#------------------------------------------------------------------------------
#$Date: 2016-04-02 04:14:52 +0300 (Sat, 02 Apr 2016) $
#$Revision: 180693 $
#$URL: svn://www.crystallography.net/cod/cif/2/10/74/2107485.cif $
#------------------------------------------------------------------------------
#
# This file is available in the Crystallography Open Database (COD),
# http://www.crystallography.net/. The original data for this entry
# were provided by IUCr Journals, http://journals.iucr.org/.
#
# The file may be used within the scientific community so long as
# proper attribution is given to the journal article from which the
# data were obtained.
#
data_2107485
loop_
_publ_author_name
'Pogoda, Dorota'
'Janczak, Jan'
'Videnova-Adrabinska, Veneta'
_publ_section_title
;
 New polymorphs of an old drug: conformational and synthon polymorphism of
 5-nitrofurazone
;
_journal_issue                   2
_journal_name_full               'Acta Crystallographica Section B'
_journal_page_first              263
_journal_page_last               273
_journal_paper_doi               10.1107/S2052520615024956
_journal_volume                  72
_journal_year                    2016
_chemical_formula_moiety         'C6 H6 N4 O4'
_chemical_formula_sum            'C6 H6 N4 O4'
_chemical_formula_weight         198.15
_space_group_crystal_system      monoclinic
_space_group_IT_number           14
_space_group_name_Hall           '-P 2ybc'
_space_group_name_H-M_alt        'P 1 21/c 1'
_symmetry_space_group_name_Hall  '-P 2ybc'
_symmetry_space_group_name_H-M   'P 1 21/c 1'
_atom_sites_solution_hydrogens   mixed
_audit_creation_method           SHELXL-2014/7
_cell_angle_alpha                90
_cell_angle_beta                 102.260(4)
_cell_angle_gamma                90
_cell_formula_units_Z            4
_cell_length_a                   13.5703(6)
_cell_length_b                   7.8254(3)
_cell_length_c                   7.9677(4)
_cell_measurement_reflns_used    1345
_cell_measurement_temperature    295(2)
_cell_measurement_theta_max      29.40
_cell_measurement_theta_min      3.02
_cell_volume                     826.82(6)
_computing_cell_refinement
;
Oxford Diffraction (2010). CrysAlis Red,
Version 1.171.33.42
;
_computing_data_collection
;
Oxford Diffraction (2010). CrysAlis CCD,
Version 1.171.33.42
;
_computing_data_reduction
;
Oxford Diffraction (2010). CrysAlis Red,
Version 1.171.33.42
;
_computing_molecular_graphics
;
Brandenburg & Putz (2006). Diamond 3.0. Crystal and Molecular
Structure Visualisation, University of Bonn, Germany
;
_computing_publication_material  'SHELXL-2014/7 (Sheldrick, 2015)'
_computing_structure_refinement  'SHELXL-2014/7 (Sheldrick, 2015)'
_computing_structure_solution    'SHELXS-97 (Sheldrick, 1990)'
_diffrn_ambient_temperature      295(2)
_diffrn_detector_area_resol_mean '1024x1024 with blocks 2x2'
_diffrn_measured_fraction_theta_full 0.990
_diffrn_measured_fraction_theta_max 0.930
_diffrn_measurement_device_type  'KUMA KM-4 with CCD detector'
_diffrn_measurement_method       \w-scan
_diffrn_radiation_monochromator  graphite
_diffrn_radiation_type           MoK\a
_diffrn_radiation_wavelength     0.71073
_diffrn_reflns_av_R_equivalents  0.0148
_diffrn_reflns_limit_h_max       17
_diffrn_reflns_limit_h_min       -18
_diffrn_reflns_limit_k_max       10
_diffrn_reflns_limit_k_min       -10
_diffrn_reflns_limit_l_max       10
_diffrn_reflns_limit_l_min       -10
_diffrn_reflns_number            11142
_diffrn_reflns_theta_full        28.500
_diffrn_reflns_theta_max         29.396
_diffrn_reflns_theta_min         3.023
_exptl_absorpt_coefficient_mu    0.136
_exptl_absorpt_correction_T_max  0.9758
_exptl_absorpt_correction_T_min  0.9607
_exptl_absorpt_correction_type   numerical
_exptl_absorpt_process_details
;
Oxford Diffraction (2010). CrysAlis Red,
Version 1.171.33.42
;
_exptl_crystal_colour            orange
_exptl_crystal_density_diffrn    1.592
_exptl_crystal_density_meas      1.59
_exptl_crystal_density_method    floatation
_exptl_crystal_description       parallelepiped
_exptl_crystal_F_000             408
_exptl_crystal_size_max          0.310
_exptl_crystal_size_mid          0.270
_exptl_crystal_size_min          0.220
_refine_diff_density_max         0.127
_refine_diff_density_min         -0.174
_refine_ls_extinction_method     none
_refine_ls_goodness_of_fit_ref   1.001
_refine_ls_hydrogen_treatment    mixed
_refine_ls_matrix_type           full
_refine_ls_number_parameters     136
_refine_ls_number_reflns         2127
_refine_ls_number_restraints     0
_refine_ls_restrained_S_all      1.001
_refine_ls_R_factor_all          0.0413
_refine_ls_R_factor_gt           0.0293
_refine_ls_shift/su_max          0.001
_refine_ls_shift/su_mean         0.000
_refine_ls_structure_factor_coef Fsqd
_refine_ls_weighting_details
'w=1/[\s^2^(Fo^2^)+(0.0523P)^2^+0.0108P] where P=(Fo^2^+2Fc^2^)/3'
_refine_ls_weighting_scheme      calc
_refine_ls_wR_factor_gt          0.0771
_refine_ls_wR_factor_ref         0.0814
_reflns_number_gt                1614
_reflns_number_total             2127
_reflns_threshold_expression     'I > 2\s(I)'
_cod_data_source_file            xk5025sup1.cif
_cod_data_source_block           1061
_cod_database_code               2107485
_shelx_space_group_comment
;
The symmetry employed for this shelxl refinement is uniquely defined
by the following loop, which should always be used as a source of
symmetry information in preference to the above space-group names.
They are only intended as comments.
;
_shelx_estimated_absorpt_t_min   0.959
_shelx_estimated_absorpt_t_max   0.971
_shelx_hkl_file
;
  -2   0   0   13.99    0.05
  -2   0   0   13.99    0.04
  -3   0   0   60.58    0.47
  -3   0   0   60.58    0.13
  -4   0   0   40.41    0.11
  -4   0   0   40.35    0.14
  -4   0   0   40.00    0.14
  -4   0   0   40.69    0.12
  -5   0   0    0.39    0.02
  -5   0   0    0.41    0.02
  -5   0   0    0.38    0.02
  -5   0   0    0.40    0.02
  -6   0   0    3.35    0.05
  -6   0   0    3.26    0.04
  -6   0   0    3.25    0.05
  -6   0   0    3.23    0.05
  -7   0   0    2.12    0.04
  -7   0   0    2.11    0.03
  -7   0   0    2.14    0.04
  -7   0   0    2.12    0.04
  -8   0   0    0.60    0.03
  -8   0   0    0.62    0.03
  -8   0   0    0.58    0.02
  -8   0   0    0.58    0.03
  -9   0   0    0.01    0.02
  -9   0   0   -0.01    0.03
  -9   0   0   -0.01    0.01
  -9   0   0    0.00    0.02
 -10   0   0    5.02    0.09
 -10   0   0    5.23    0.07
 -10   0   0    5.33    0.07
 -10   0   0    5.15    0.09
 -11   0   0    9.68    0.13
 -11   0   0   10.19    0.11
 -11   0   0    9.65    0.12
 -12   0   0    6.47    0.11
 -12   0   0    6.42    0.11
 -13   0   0    0.02    0.04
 -13   0   0    0.02    0.03
 -14   0   0    0.39    0.05
 -14   0   0    0.33    0.04
 -15   0   0    0.69    0.05
 -15   0   0    0.67    0.06
 -16   0   0    0.35    0.05
 -16   0   0    0.25    0.05
 -17   0   0    0.11    0.05
 -17   0   0    0.15    0.04
  -1  -1   0   11.22    0.05
   1   1   0   11.33    0.05
  -2   1   0   51.05    0.13
  -2  -1   0   51.25    0.12
  -2   1   0   50.32    0.11
  -2  -1   0   50.91    0.13
  -2  -1   0   51.83    0.12
  -2   1   0   51.06    0.49
   2   1   0   51.10    0.12
  -3  -1   0   62.35    0.17
  -3   1   0   62.13    0.14
  -3   1   0   62.32    0.17
   3   1   0   64.52    0.50
  -3   1   0   62.97    0.16
  -3  -1   0   62.92    0.15
  -3   1   0   62.61    0.14
  -4   1   0    3.27    0.04
  -4   1   0    3.37    0.04
  -4  -1   0    3.41    0.04
  -4   1   0    3.33    0.05
  -4   1   0    3.33    0.04
  -4  -1   0    3.32    0.04
   4   1   0    3.41    0.03
  -5   1   0    2.28    0.04
  -5   1   0    2.21    0.04
  -5  -1   0    2.20    0.04
  -5   1   0    2.13    0.04
   5   1   0    2.25    0.03
  -5   1   0    2.23    0.03
  -5  -1   0    2.14    0.04
  -6   1   0    4.15    0.05
   6   1   0    4.17    0.04
  -6  -1   0    4.21    0.06
  -6  -1   0    4.19    0.06
  -6   1   0    4.18    0.05
  -6   1   0    4.13    0.06
  -6   1   0    4.14    0.06
  -7   1   0    4.40    0.07
  -7  -1   0    4.44    0.07
  -7  -1   0    4.41    0.06
  -7   1   0    4.55    0.06
   7   1   0    4.20    0.03
  -7   1   0    4.39    0.05
  -7   1   0    4.34    0.07
  -7  -1   0    4.46    0.06
  -8   1   0    8.30    0.10
  -8   1   0    8.38    0.08
  -8   1   0    8.43    0.08
  -8  -1   0    8.02    0.09
  -8  -1   0    8.20    0.08
  -8  -1   0    8.11    0.09
  -8   1   0    8.43    0.10
  -8  -1   0    8.36    0.09
  -9  -1   0   10.39    0.11
  -9  -1   0   10.37    0.10
  -9  -1   0   10.28    0.11
  -9   1   0   10.50    0.12
  -9   1   0   10.54    0.09
  -9   1   0   10.63    0.10
  -9   1   0   10.26    0.12
  -9  -1   0   10.68    0.09
 -10  -1   0    0.58    0.03
 -10   1   0    0.59    0.03
 -10   1   0    0.62    0.03
 -10  -1   0    0.53    0.04
 -10  -1   0    0.59    0.04
 -10   1   0    0.62    0.04
 -10   1   0    0.62    0.04
 -10  -1   0    0.55    0.03
 -11  -1   0    0.16    0.03
 -11   1   0    0.18    0.03
 -11   1   0    0.15    0.02
 -11   1   0    0.14    0.04
 -11  -1   0    0.14    0.03
 -11  -1   0    0.16    0.03
 -12   1   0    2.75    0.08
 -12  -1   0    2.86    0.08
 -12   1   0    2.75    0.08
 -12  -1   0    3.01    0.08
 -13   1   0    2.68    0.08
 -13   1   0    2.74    0.08
 -13  -1   0    2.81    0.08
 -13  -1   0    2.70    0.08
 -14  -1   0    0.75    0.05
 -14  -1   0    0.62    0.05
 -14   1   0    0.74    0.06
 -14   1   0    0.66    0.05
 -15   1   0   -0.03    0.04
 -15   1   0    0.03    0.04
 -15  -1   0    0.03    0.04
 -15  -1   0   -0.03    0.04
 -16   1   0    0.59    0.05
 -16   1   0    0.63    0.05
 -16  -1   0    0.70    0.06
 -16  -1   0    0.61    0.05
 -17   1   0    0.06    0.05
 -17  -1   0    0.03    0.04
 -17  -1   0    0.04    0.03
 -17   1   0    0.10    0.05
   0  -2   0    0.81    0.02
   0   2   0    0.81    0.03
   0  -2   0    0.81    0.03
   1  -2   0   10.95    0.07
   1   2   0   10.12    0.07
   1  -2   0   10.88    0.06
  -1  -2   0   10.68    0.07
  -1  -2   0   11.15    0.07
  -1   2   0   10.60    0.07
  -1  -2   0   10.91    0.06
  -1   2   0   10.99    0.05
   2  -2   0    0.94    0.03
   2  -2   0    0.94    0.02
  -2   2   0    0.94    0.02
  -2   2   0    0.94    0.03
   2   2   0    0.94    0.02
  -2  -2   0    0.94    0.03
  -2   2   0    0.94    0.02
  -2  -2   0    0.94    0.03
  -2  -2   0    0.94    0.02
   3  -2   0   33.53    0.12
  -3  -2   0   34.29    0.14
  -3  -2   0   33.25    0.14
   3   2   0   33.73    0.13
  -3   2   0   33.36    0.13
  -3   2   0   33.53    0.13
  -3   2   0   33.22    0.14
  -3  -2   0   34.18    0.13
   4  -2   0   33.12    0.14
  -4   2   0   31.63    0.13
   4   2   0   33.25    0.14
  -4   2   0   32.40    0.15
  -4  -2   0   32.15    0.15
  -4   2   0   31.78    0.14
  -4  -2   0   32.37    0.14
  -5  -2   0    0.01    0.02
   5   2   0    0.00    0.01
  -5   2   0    0.00    0.02
  -5   2   0    0.03    0.01
  -5   2   0    0.01    0.02
  -6   2   0    5.38    0.07
  -6  -2   0    5.29    0.07
   6   2   0    5.44    0.05
  -6   2   0    5.37    0.06
  -6  -2   0    5.46    0.07
  -6   2   0    5.37    0.06
  -6   2   0    5.34    0.07
  -7  -2   0    0.66    0.03
   7   2   0    0.64    0.02
  -7   2   0    0.65    0.03
  -7   2   0    0.62    0.03
  -7   2   0    0.60    0.03
  -7  -2   0    0.63    0.03
  -7   2   0    0.65    0.03
  -8   2   0    2.67    0.06
  -8   2   0    2.50    0.05
  -8  -2   0    2.48    0.06
  -8  -2   0    2.45    0.05
  -8   2   0    2.54    0.06
  -8   2   0    2.46    0.05
  -8  -2   0    2.39    0.05
  -9   2   0    0.71    0.04
  -9  -2   0    0.72    0.03
  -9  -2   0    0.69    0.03
  -9  -2   0    0.68    0.04
  -9   2   0    0.70    0.03
  -9   2   0    0.74    0.04
  -9   2   0    0.71    0.03
 -10   2   0    0.96    0.05
 -10   2   0    1.06    0.04
 -10  -2   0    1.02    0.05
 -10   2   0    1.06    0.05
 -10   2   0    1.06    0.03
 -10  -2   0    1.03    0.04
 -10  -2   0    0.99    0.04
 -11  -2   0    0.32    0.03
 -11  -2   0    0.38    0.03
 -11   2   0    0.45    0.04
 -11   2   0    0.39    0.04
 -11  -2   0    0.37    0.04
 -12  -2   0    0.12    0.03
 -12   2   0    0.17    0.04
 -12  -2   0    0.14    0.03
 -12  -2   0    0.13    0.03
 -12   2   0    0.14    0.04
 -13  -2   0   -0.01    0.03
 -13   2   0    0.02    0.04
 -13   2   0   -0.02    0.03
 -13  -2   0    0.00    0.03
 -14  -2   0    0.00    0.04
 -14   2   0    0.00    0.04
 -14   2   0   -0.01    0.04
 -14  -2   0   -0.01    0.04
 -15   2   0    1.98    0.08
 -15   2   0    1.94    0.08
 -15  -2   0    1.89    0.08
 -15  -2   0    2.03    0.08
 -16  -2   0    0.12    0.04
 -16  -2   0    0.10    0.04
 -16   2   0    0.11    0.05
 -16   2   0    0.14    0.04
  17  -2   0    0.02    0.05
 -17   2   0    0.03    0.05
 -17  -2   0    0.02    0.04
 -17  -2   0    0.02    0.04
 -17   2   0    0.00    0.05
 -18  -2   0    0.00    0.03
   0   3   0    0.00    0.01
   0  -3   0    0.00    0.02
   0   3   0    0.00    0.02
   0  -3   0    0.00    0.01
   1  -3   0   12.68    0.07
   1  -3   0   12.49    0.09
  -1   3   0   12.39    0.09
  -1   3   0   12.51    0.07
   1   3   0   12.09    0.09
  -1  -3   0   12.49    0.09
  -1  -3   0   12.80    0.07
  -2  -3   0    0.35    0.02
   2  -3   0    0.30    0.02
  -2  -3   0    0.32    0.02
  -2   3   0    0.30    0.02
  -2   3   0    0.33    0.02
   2  -3   0    0.33    0.02
  -2   3   0    0.30    0.02
  -2  -3   0    0.32    0.02
   2   3   0    0.31    0.02
   3  -3   0   47.44    0.20
  -3  -3   0   46.62    0.19
  -3  -3   0   46.93    0.19
   3  -3   0   46.64    0.16
   3   3   0   46.80    0.18
  -3  -3   0   46.40    0.16
  -3   3   0   46.52    0.19
  -3   3   0   46.96    0.16
  -3   3   0   46.94    0.18
  -4   3   0    9.89    0.08
   4  -3   0    9.57    0.09
   4  -3   0   10.30    0.08
  -4  -3   0   10.18    0.09
  -4   3   0   10.02    0.09
   4   3   0   10.60    0.09
  -4  -3   0   10.41    0.09
  -4   3   0   10.21    0.09
  -4  -3   0   10.39    0.08
   5  -3   0    0.00    0.02
   5   3   0    0.01    0.02
  -5   3   0    0.00    0.02
  -5   3   0    0.02    0.02
  -5  -3   0    0.01    0.02
  -5   3   0    0.01    0.02
  -5  -3   0    0.02    0.02
  -6   3   0    4.04    0.06
   6   3   0    4.12    0.06
  -6  -3   0    4.04    0.07
  -6   3   0    4.07    0.07
   6  -3   0    4.05    0.06
   6   3   0    4.17    0.06
  -6  -3   0    4.10    0.07
  -6   3   0    4.04    0.06
   7  -3   0    6.30    0.08
   7   3   0    6.17    0.07
  -7  -3   0    6.15    0.08
  -7  -3   0    6.04    0.09
  -7   3   0    6.34    0.09
  -7   3   0    6.13    0.09
  -7   3   0    6.24    0.08
  -8   3   0    0.68    0.04
  -8   3   0    0.69    0.03
   8   3   0    0.67    0.03
  -8   3   0    0.74    0.04
  -8  -3   0    0.64    0.04
  -8  -3   0    0.73    0.03
   8  -3   0    0.73    0.04
  -8  -3   0    0.71    0.04
  -9  -3   0    0.21    0.03
  -9   3   0    0.18    0.03
  -9  -3   0    0.19    0.02
   9  -3   0    0.20    0.03
  -9   3   0    0.18    0.03
  -9   3   0    0.17    0.02
  -9  -3   0    0.17    0.03
 -10   3   0    0.00    0.03
 -10  -3   0    0.01    0.03
 -10   3   0    0.00    0.03
 -10  -3   0    0.00    0.02
  10  -3   0    0.01    0.03
 -10  -3   0    0.01    0.02
 -10   3   0    0.00    0.02
 -11  -3   0    1.56    0.05
 -11   3   0    1.66    0.06
 -11   3   0    1.64    0.06
 -11  -3   0    1.60    0.05
 -11  -3   0    1.57    0.06
  11  -3   0    1.55    0.06
 -12  -3   0    0.08    0.03
 -12   3   0    0.05    0.04
  12  -3   0    0.06    0.03
 -12  -3   0    0.07    0.03
 -12   3   0    0.09    0.04
 -12  -3   0    0.07    0.04
 -13   3   0    0.09    0.04
 -13   3   0    0.05    0.04
  13  -3   0    0.10    0.04
 -13  -3   0    0.03    0.04
 -13  -3   0    0.07    0.03
 -14  -3   0    2.77    0.08
 -14   3   0    3.02    0.09
  14  -3   0    2.89    0.09
 -14  -3   0    2.81    0.09
 -14   3   0    2.89    0.09
 -15   3   0    0.01    0.04
  15  -3   0    0.03    0.04
 -15  -3   0   -0.01    0.04
 -15   3   0    0.00    0.05
 -16   3   0    0.07    0.04
  16  -3   0    0.05    0.04
 -16   3   0    0.07    0.05
 -16  -3   0    0.06    0.04
 -17   3   0    0.01    0.04
 -17  -3   0    0.00    0.04
   0   4   0   59.40    0.14
   0   4   0   58.49    0.23
   0  -4   0   59.67    0.17
  -1  -4   0    1.17    0.03
  -1  -4   0    1.17    0.04
   1   4   0    1.21    0.02
  -1  -4   0    1.15    0.04
   1  -4   0    1.16    0.04
  -1   4   0    1.29    0.03
   1   4   0    1.21    0.04
  -1   4   0    1.21    0.04
   1  -4   0    1.25    0.03
  -2  -4   0   20.54    0.15
   2   4   0   20.58    0.15
   2  -4   0   20.53    0.15
  -2  -4   0   20.55    0.12
  -2   4   0   20.58    0.11
  -2   4   0   20.58    0.14
   2  -4   0   20.51    0.11
  -2  -4   0   20.50    0.15
  -3   4   0    0.10    0.02
  -3   4   0    0.11    0.02
   3   4   0    0.10    0.02
   3  -4   0    0.12    0.02
   3  -4   0    0.11    0.02
  -3  -4   0    0.11    0.02
  -3  -4   0    0.11    0.02
  -3  -4   0    0.10    0.02
   4  -4   0    0.45    0.02
   4   4   0    0.41    0.03
  -4  -4   0    0.44    0.03
   4  -4   0    0.42    0.03
  -4   4   0    0.45    0.02
  -4  -4   0    0.44    0.02
  -4   4   0    0.45    0.03
  -4   4   0    0.42    0.03
  -4  -4   0    0.43    0.03
  -5   4   0   12.59    0.11
   5   4   0   13.10    0.12
  -5  -4   0   12.75    0.11
  -5   4   0   12.59    0.11
   5  -4   0   12.73    0.10
  -5   4   0   12.68    0.12
  -5  -4   0   12.35    0.12
  -5  -4   0   12.30    0.12
   5  -4   0   12.40    0.13
  -6   4   0    1.54    0.05
  -6   4   0    1.50    0.04
   6   4   0    1.52    0.04
   6  -4   0    1.43    0.05
  -6  -4   0    1.55    0.05
  -6  -4   0    1.57    0.05
  -6   4   0    1.48    0.04
   6   4   0    1.55    0.05
   6  -4   0    1.49    0.04
   7   4   0    0.72    0.04
   7  -4   0    0.68    0.04
   7   4   0    0.68    0.03
  -7   4   0    0.76    0.04
  -7  -4   0    0.69    0.04
   7  -4   0    0.68    0.04
  -7   4   0    0.73    0.04
  -7   4   0    0.69    0.03
  -7  -4   0    0.71    0.04
  -8   4   0    0.07    0.02
  -8  -4   0    0.04    0.01
   8   4   0    0.06    0.02
  -8  -4   0    0.05    0.03
  -8   4   0    0.05    0.03
   8  -4   0    0.05    0.02
  -8   4   0    0.05    0.03
  -8  -4   0    0.05    0.03
  -9   4   0    4.70    0.08
  -9  -4   0    4.72    0.09
   9  -4   0    4.59    0.08
  -9   4   0    4.62    0.09
  -9   4   0    4.59    0.09
  -9  -4   0    4.51    0.09
 -10  -4   0    0.38    0.04
  10  -4   0    0.35    0.04
 -10   4   0    0.31    0.04
 -10  -4   0    0.32    0.04
 -10   4   0    0.39    0.04
 -10   4   0    0.37    0.03
  11  -4   0    0.74    0.05
 -11   4   0    0.76    0.05
 -11  -4   0    0.86    0.05
 -11  -4   0    0.85    0.05
 -11   4   0    0.84    0.05
 -12   4   0    3.39    0.09
 -12  -4   0    3.30    0.09
 -12  -4   0    3.33    0.08
 -12   4   0    3.33    0.09
  12  -4   0    3.29    0.09
 -13   4   0    2.28    0.08
 -13   4   0    2.39    0.08
 -13  -4   0    2.36    0.08
  13  -4   0    2.40    0.08
 -14   4   0    0.13    0.04
 -14  -4   0    0.10    0.04
  14  -4   0    0.10    0.04
 -14   4   0    0.13    0.05
 -15  -4   0    0.04    0.04
  15  -4   0    0.00    0.04
 -15   4   0    0.03    0.04
 -15   4   0    0.05    0.05
 -16  -4   0    0.07    0.04
 -16   4   0    0.09    0.05
 -16   4   0    0.11    0.04
  16  -4   0    0.08    0.04
   0   5   0    0.01    0.02
   0  -5   0   -0.01    0.01
   0  -5   0    0.00    0.02
  -1  -5   0   10.69    0.12
   1  -5   0   11.07    0.08
  -1   5   0   11.02    0.07
  -1   5   0   10.68    0.11
  -1  -5   0   10.72    0.12
   1   5   0   10.90    0.11
   1  -5   0   10.49    0.11
  -1  -5   0   10.91    0.09
  -2  -5   0    0.00    0.02
  -2  -5   0    0.01    0.02
  -2   5   0    0.01    0.02
   2  -5   0    0.01    0.03
   2   5   0   -0.01    0.02
   2  -5   0   -0.01    0.01
  -2   5   0    0.00    0.01
  -2  -5   0    0.01    0.01
   3  -5   0    0.27    0.03
   3   5   0    0.31    0.03
  -3  -5   0    0.28    0.03
   3  -5   0    0.28    0.02
  -3  -5   0    0.30    0.02
  -3   5   0    0.31    0.02
  -3   5   0    0.30    0.03
  -3  -5   0    0.27    0.03
  -4  -5   0    1.19    0.04
  -4  -5   0    1.17    0.04
   4  -5   0    1.18    0.05
   4   5   0    1.18    0.04
  -4   5   0    1.19    0.04
   4  -5   0    1.18    0.03
  -4   5   0    1.18    0.03
  -4  -5   0    1.18    0.03
   5   5   0    4.75    0.08
  -5   5   0    4.46    0.08
  -5   5   0    4.69    0.07
  -5  -5   0    4.48    0.08
   5  -5   0    4.57    0.09
  -5  -5   0    4.67    0.08
   5  -5   0    4.60    0.07
  -5   5   0    4.52    0.08
  -5  -5   0    4.56    0.07
  -6  -5   0    0.23    0.03
  -6   5   0    0.19    0.03
   6  -5   0    0.23    0.04
   6  -5   0    0.20    0.02
  -6  -5   0    0.23    0.03
   6   5   0    0.27    0.03
  -6   5   0    0.22    0.03
   6   5   0    0.24    0.03
  -6   5   0    0.22    0.03
   7  -5   0    0.25    0.03
   7  -5   0    0.23    0.04
  -7  -5   0    0.24    0.03
  -7   5   0    0.23    0.04
  -7   5   0    0.27    0.03
  -7  -5   0    0.28    0.03
   7   5   0    0.27    0.03
  -7   5   0    0.27    0.03
   7   5   0    0.26    0.03
  -8   5   0    1.35    0.05
  -8   5   0    1.35    0.05
   8  -5   0    1.29    0.05
  -8   5   0    1.26    0.06
   8  -5   0    1.30    0.06
   8   5   0    1.34    0.05
   8   5   0    1.37    0.05
  -8  -5   0    1.28    0.05
  -8  -5   0    1.31    0.05
  -9   5   0    5.07    0.09
  -9   5   0    4.97    0.10
   9  -5   0    5.22    0.09
  -9  -5   0    5.15    0.10
  -9  -5   0    5.33    0.10
  -9   5   0    5.12    0.09
   9  -5   0    5.14    0.11
 -10   5   0    4.25    0.08
 -10   5   0    4.19    0.09
 -10  -5   0    4.19    0.09
 -10   5   0    4.08    0.10
  10  -5   0    4.17    0.09
  10  -5   0    4.06    0.10
 -10  -5   0    3.96    0.09
  11  -5   0    2.93    0.08
 -11   5   0    2.90    0.08
 -11   5   0    2.88    0.09
 -11  -5   0    2.87    0.08
  11  -5   0    2.90    0.09
 -11  -5   0    3.10    0.08
 -12   5   0    1.79    0.07
 -12  -5   0    1.69    0.07
  12  -5   0    1.74    0.07
 -12   5   0    1.84    0.08
  12  -5   0    1.77    0.08
 -12  -5   0    1.83    0.07
  13  -5   0    0.19    0.04
 -13  -5   0    0.16    0.04
  13  -5   0    0.21    0.05
 -13   5   0    0.17    0.05
 -13   5   0    0.18    0.04
 -14   5   0   -0.02    0.04
 -14  -5   0    0.00    0.04
 -14   5   0    0.04    0.04
  14  -5   0    0.02    0.04
  15  -5   0    0.04    0.04
 -15   5   0    0.02    0.04
 -15   5   0   -0.02    0.04
 -15  -5   0    0.01    0.03
   0  -6   0    0.10    0.03
   0   6   0    0.10    0.03
   1   6   0    0.12    0.03
  -1  -6   0    0.11    0.03
  -1  -6   0    0.24    0.03
   1  -6   0    0.14    0.03
  -1   6   0    0.12    0.03
  -2  -6   0    3.75    0.08
  -2  -6   0    3.65    0.08
  -2   6   0    3.73    0.08
   2  -6   0    3.65    0.08
   2   6   0    3.93    0.08
  -3   6   0    7.89    0.11
   3  -6   0    8.27    0.12
  -3  -6   0    8.06    0.12
  -3  -6   0    8.13    0.11
   3   6   0    8.13    0.11
  -4  -6   0   13.39    0.15
   4  -6   0   13.40    0.15
  -4  -6   0   13.31    0.15
  -4   6   0   12.99    0.14
   4   6   0   13.60    0.15
   5  -6   0    0.26    0.04
  -5  -6   0    0.25    0.04
   5   6   0    0.28    0.04
  -5  -6   0    0.24    0.04
  -5   6   0    0.23    0.03
  -6   6   0    0.14    0.03
  -6   6   0    0.17    0.03
  -6  -6   0    0.16    0.03
   6  -6   0    0.16    0.04
  -6  -6   0    0.15    0.04
   6   6   0    0.12    0.03
   6   6   0    0.14    0.03
  -7   6   0    1.26    0.05
   7   6   0    1.25    0.05
   7  -6   0    1.24    0.06
  -7   6   0    1.15    0.06
  -7  -6   0    1.25    0.06
   7   6   0    1.29    0.05
  -7   6   0    1.25    0.05
  -7  -6   0    1.16    0.06
   8   6   0    5.43    0.10
  -8  -6   0    5.36    0.11
  -8   6   0    5.19    0.11
  -8  -6   0    5.25    0.10
   8  -6   0    5.21    0.11
   8   6   0    5.37    0.09
  -8   6   0    5.03    0.09
  -8   6   0    5.35    0.09
   9  -6   0    0.01    0.04
  -9  -6   0    0.00    0.03
  -9   6   0   -0.01    0.03
  -9  -6   0   -0.01    0.04
  -9   6   0    0.00    0.03
  -9   6   0    0.00    0.03
   9   6   0   -0.01    0.03
 -10   6   0    0.00    0.04
 -10  -6   0    0.00    0.03
 -10   6   0   -0.01    0.03
  10  -6   0    0.00    0.04
 -10   6   0   -0.02    0.03
 -10  -6   0    0.00    0.04
 -11  -6   0    0.11    0.04
 -11   6   0    0.06    0.04
 -11   6   0    0.11    0.04
  11  -6   0    0.07    0.04
 -11  -6   0    0.10    0.04
  12  -6   0    0.00    0.04
 -12  -6   0    0.00    0.03
 -12   6   0   -0.02    0.04
 -12   6   0    0.00    0.04
 -12  -6   0    0.02    0.04
 -13  -6   0    0.14    0.04
 -13   6   0    0.12    0.04
  13  -6   0    0.11    0.04
 -13  -6   0    0.15    0.05
 -13   6   0    0.14    0.04
  14  -6   0    0.01    0.05
 -14  -6   0    0.02    0.03
 -14   6   0   -0.01    0.04
 -14   6   0    0.02    0.04
   0  -7   0   -0.01    0.04
   0  -7   0    0.01    0.03
   0   7   0   -0.01    0.03
   1  -7   0    0.00    0.03
  -1   7   0    0.00    0.03
  -1  -7   0    0.00    0.03
   1   7   0    0.00    0.03
  -1  -7   0    0.02    0.04
  -2   7   0    5.12    0.10
   2   7   0    5.23    0.10
   2  -7   0    5.34    0.10
  -2  -7   0    5.24    0.10
  -2  -7   0    5.13    0.10
  -3  -7   0    0.03    0.03
   3   7   0    0.02    0.03
  -3   7   0    0.02    0.03
  -3  -7   0    0.03    0.03
   3  -7   0    0.00    0.04
   4   7   0    1.61    0.06
  -4   7   0    1.60    0.06
  -4  -7   0    1.61    0.06
   4  -7   0    1.65    0.07
  -4  -7   0    1.65    0.06
  -5  -7   0    7.75    0.13
  -5  -7   0    7.55    0.12
   5   7   0    7.56    0.12
   5  -7   0    7.85    0.13
   5   7   0    7.97    0.13
  -5   7   0    7.66    0.12
   6   7   0    1.67    0.07
  -6  -7   0    1.77    0.07
   6   7   0    1.67    0.07
   6  -7   0    1.81    0.07
  -6  -7   0    1.76    0.07
  -6   7   0    1.63    0.06
  -7  -7   0    4.60    0.10
   7   7   0    4.81    0.10
  -7  -7   0    4.83    0.11
   7  -7   0    4.65    0.11
   7   7   0    4.87    0.10
  -7   7   0    4.50    0.10
   8  -7   0    0.07    0.04
   8   7   0    0.10    0.03
  -8  -7   0    0.06    0.03
   8   7   0    0.03    0.03
  -8   7   0    0.06    0.03
  -8  -7   0    0.07    0.04
  -9  -7   0    0.10    0.04
   9   7   0    0.06    0.04
  -9  -7   0    0.10    0.04
  -9   7   0    0.08    0.04
   9  -7   0    0.09    0.04
  10  -7   0    0.10    0.05
 -10  -7   0    0.10    0.04
 -10   7   0    0.09    0.04
 -10  -7   0    0.09    0.04
 -10   7   0    0.08    0.03
  11  -7   0    0.02    0.04
 -11   7   0    0.00    0.04
 -11  -7   0    0.00    0.04
 -11  -7   0    0.01    0.04
  12  -7   0    0.26    0.05
 -12  -7   0    0.28    0.04
 -12   7   0    0.27    0.05
 -12  -7   0    0.23    0.04
 -13  -7   0    0.01    0.04
 -13  -7   0    0.06    0.03
   0  -8   0    0.18    0.04
   0  -8   0    0.17    0.04
   0   8   0    0.16    0.04
  -1  -8   0    0.05    0.04
  -1   8   0    0.03    0.04
   1   8   0    0.02    0.04
   1  -8   0    0.03    0.03
  -1  -8   0    0.02    0.04
   1  -8   0    0.04    0.04
  -2   8   0    0.03    0.03
   2  -8   0    0.02    0.03
  -2  -8   0    0.02    0.04
  -2  -8   0    0.04    0.04
   2   8   0    0.04    0.04
   2  -8   0    0.02    0.04
   3  -8   0   -0.01    0.03
   3   8   0    0.00    0.04
  -3  -8   0    0.03    0.03
  -3  -8   0    0.00    0.03
  -3   8   0    0.01    0.03
  -4  -8   0    2.09    0.08
  -4   8   0    2.03    0.07
   4   8   0    2.06    0.07
   4  -8   0    2.09    0.08
  -4  -8   0    2.03    0.07
   4   8   0    2.05    0.07
   5  -8   0    1.48    0.07
  -5   8   0    1.48    0.07
  -5  -8   0    1.47    0.07
  -5  -8   0    1.45    0.07
   5   8   0    1.45    0.06
   5   8   0    1.44    0.06
  -6   8   0    0.22    0.04
   6   8   0    0.26    0.04
   6   8   0    0.27    0.04
  -6  -8   0    0.26    0.04
   6  -8   0    0.21    0.05
  -6  -8   0    0.23    0.04
   7   8   0    1.33    0.06
  -7  -8   0    1.48    0.07
  -7   8   0    1.37    0.06
   7   8   0    1.28    0.06
  -7  -8   0    1.41    0.07
   7  -8   0    1.22    0.07
   8   8   0    0.08    0.04
   8   8   0    0.06    0.03
  -8  -8   0    0.06    0.04
  -8  -8   0    0.08    0.04
  -8   8   0    0.06    0.03
   8  -8   0    0.05    0.04
  -9  -8   0    0.13    0.04
   9  -8   0    0.06    0.04
  -9   8   0    0.08    0.04
  -9  -8   0    0.06    0.04
   9   8   0    0.05    0.04
  10  -8   0    0.10    0.05
 -10  -8   0    0.08    0.04
 -10  -8   0    0.10    0.04
 -11  -8   0    0.27    0.05
 -11  -8   0    0.28    0.05
   0   9   0    0.01    0.04
   0  -9   0    0.00    0.04
   0  -9   0    0.01    0.04
  -1  -9   0    0.07    0.04
   1  -9   0    0.08    0.04
  -1  -9   0    0.09    0.04
   1   9   0    0.08    0.04
   1  -9   0    0.11    0.05
  -1   9   0    0.07    0.04
   2   9   0    0.11    0.05
  -2   9   0    0.15    0.04
   2  -9   0    0.11    0.04
   2   9   0    0.14    0.04
  -2  -9   0    0.13    0.05
   2  -9   0    0.10    0.04
  -2  -9   0    0.10    0.04
   3  -9   0    0.05    0.04
  -3  -9   0    0.01    0.04
   3   9   0    0.05    0.04
   3   9   0    0.00    0.04
  -3  -9   0    0.00    0.04
   3  -9   0    0.00    0.04
  -3   9   0   -0.01    0.04
   4   9   0    0.13    0.04
   4  -9   0    0.11    0.04
  -4  -9   0    0.18    0.05
  -4  -9   0    0.19    0.05
  -4   9   0    0.18    0.04
   4   9   0    0.17    0.05
   5   9   0    0.34    0.05
  -5   9   0    0.37    0.05
   5   9   0    0.40    0.05
   5  -9   0    0.35    0.05
  -5  -9   0    0.36    0.05
  -5  -9   0    0.42    0.05
   6  -9   0    0.15    0.05
  -6  -9   0    0.19    0.05
  -6   9   0    0.21    0.04
   6   9   0    0.15    0.05
  -6  -9   0    0.19    0.05
   6   9   0    0.18    0.04
  -7   9   0    0.46    0.05
  -7  -9   0    0.45    0.06
   7   9   0    0.44    0.05
   7   9   0    0.44    0.05
  -7  -9   0    0.46    0.05
   7  -9   0    0.46    0.05
   8  -9   0    0.00    0.04
  -8   9   0    0.04    0.04
   8   9   0    0.00    0.03
  -8  -9   0    0.00    0.04
  -8  -9   0    0.02    0.04
   0 -10   0    0.01    0.04
   0 -10   0    0.01    0.04
   0  10   0    0.06    0.05
   1  10   0    1.36    0.07
   1 -10   0    1.37    0.08
   1 -10   0    1.17    0.07
  -1 -10   0    1.31    0.08
  -1 -10   0    1.31    0.07
  -1  10   0    1.31    0.07
   2 -10   0    1.00    0.07
   2 -10   0    1.17    0.07
  -2 -10   0    1.04    0.07
  -2 -10   0    1.06    0.07
   2  10   0    1.20    0.07
  -2  10   0    1.14    0.07
  -3 -10   0    0.40    0.06
   3 -10   0    0.32    0.05
  -3  10   0    0.42    0.06
   3  10   0    0.36    0.05
  -3 -10   0    0.36    0.06
   3 -10   0    0.35    0.05
   4  10   0    0.20    0.04
  -4  10   0    0.27    0.05
  -4 -10   0    0.21    0.04
   4 -10   0    0.27    0.05
  -5  10   0    0.01    0.04
   5 -10   0   -0.01    0.04
   6 -10   0    0.00    0.04
  -6  10   0    0.06    0.04
 -17   0   1    0.01    0.04
 -17   0   1    0.00    0.04
 -16   0   1   -0.01    0.04
 -16   0   1   -0.02    0.04
 -15   0   1   -0.01    0.04
 -15   0   1   -0.01    0.04
 -14   0   1    0.01    0.04
 -14   0   1   -0.02    0.03
 -13   0   1   -0.01    0.04
 -13   0   1   -0.01    0.04
 -12   0   1    0.00    0.02
 -12   0   1   -0.01    0.04
 -12   0   1    0.00    0.03
 -11   0   1    0.01    0.02
 -11   0   1    0.02    0.03
 -11   0   1    0.01    0.03
 -10   0   1    0.02    0.03
 -10   0   1    0.02    0.03
 -10   0   1    0.02    0.02
  -9   0   1    0.01    0.02
  -9   0   1    0.01    0.01
  -9   0   1   -0.01    0.03
  -8   0   1    0.01    0.01
   8   0  -1    0.00    0.01
  -8   0   1    0.00    0.02
  -8   0   1    0.01    0.01
   7   0  -1    0.00    0.01
  -7   0   1    0.00    0.02
  -7   0   1    0.01    0.01
  -7   0   1    0.01    0.01
  -6   0   1    0.00    0.02
   6   0  -1    0.00    0.01
  -6   0   1    0.00    0.01
  -6   0   1    0.00    0.01
  -5   0   1    0.01    0.02
   5   0  -1    0.01    0.01
  -5   0   1    0.01    0.01
  -5   0   1    0.02    0.01
  -4   0   1    0.00    0.01
  -4   0   1    0.01    0.01
   4   0  -1    0.01    0.01
  -3   0   1    0.00    0.01
   3   0  -1    0.00    0.01
  -3   0   1    0.00    0.01
  -2   0   1    0.02    0.01
   2   0  -1    0.01    0.01
  -2   0   1    0.01    0.01
  -2   0  -1    0.00    0.01
  -2   0  -1    0.00    0.01
  -2   0  -1    0.00    0.01
  -3   0  -1    0.00    0.01
  -3   0  -1    0.01    0.01
  -3   0  -1    0.01    0.01
  -4   0  -1    0.00    0.01
  -4   0  -1    0.00    0.01
  -4   0  -1    0.00    0.00
  -4   0  -1   -0.01    0.01
  -5   0  -1    0.00    0.01
  -5   0  -1    0.01    0.02
  -5   0  -1    0.00    0.01
  -5   0  -1    0.00    0.02
  -6   0  -1    0.00    0.02
  -6   0  -1   -0.01    0.02
  -6   0  -1    0.00    0.01
  -6   0  -1    0.00    0.02
  -7   0  -1    0.00    0.01
  -7   0  -1    0.00    0.02
  -7   0  -1    0.00    0.02
  -7   0  -1    0.04    0.02
  -8   0  -1    0.01    0.01
  -8   0  -1    0.00    0.02
  -8   0  -1    0.00    0.02
  -8   0  -1    0.00    0.02
  -9   0  -1    0.00    0.03
  -9   0  -1    0.00    0.02
  -9   0  -1    0.00    0.02
 -10   0  -1   -0.01    0.03
 -10   0  -1    0.00    0.03
 -10   0  -1    0.00    0.02
 -11   0  -1    0.00    0.03
 -11   0  -1    0.00    0.03
 -11   0  -1    0.02    0.02
 -12   0  -1   -0.01    0.03
 -12   0  -1    0.00    0.03
 -12   0  -1    0.01    0.03
 -13   0  -1    0.01    0.03
 -13   0  -1    0.01    0.03
 -14   0  -1   -0.02    0.04
 -14   0  -1    0.02    0.04
 -15   0  -1    0.03    0.05
 -15   0  -1    0.02    0.04
 -16   0  -1    0.01    0.04
 -16   0  -1    0.03    0.04
 -17   0  -1    0.01    0.03
 -17   0  -1   -0.01    0.04
 -18  -1   1    0.03    0.04
 -17  -1   1    0.02    0.04
 -17   1   1    0.02    0.04
 -17  -1   1    0.05    0.04
 -17   1   1    0.03    0.05
  17  -1  -1    0.02    0.05
 -16  -1   1    0.29    0.05
 -16  -1   1    0.33    0.05
 -16   1   1    0.32    0.05
 -16   1   1    0.38    0.05
 -15  -1   1    0.01    0.03
 -15   1   1    0.02    0.04
 -15   1   1   -0.01    0.04
 -15  -1   1   -0.02    0.04
 -14  -1   1    0.20    0.04
 -14   1   1    0.22    0.04
 -14   1   1    0.21    0.04
 -14  -1   1    0.20    0.04
 -13  -1   1    0.47    0.05
 -13   1   1    0.54    0.05
 -13  -1   1    0.51    0.05
 -13   1   1    0.59    0.05
 -12   1   1    9.06    0.13
 -12   1   1    9.05    0.13
 -12  -1   1    9.19    0.13
 -12  -1   1    8.94    0.13
 -11   1   1    0.59    0.03
 -11   1   1    0.61    0.04
 -11  -1   1    0.57    0.04
 -11  -1   1    0.51    0.04
 -11  -1   1    0.56    0.03
 -11   1   1    0.53    0.04
 -10  -1   1    0.66    0.03
 -10   1   1    0.61    0.04
 -10  -1   1    0.61    0.04
 -10  -1   1    0.62    0.03
 -10   1   1    0.57    0.04
 -10   1   1    0.62    0.03
  -9   1   1    4.40    0.08
  -9  -1   1    4.49    0.07
  -9  -1   1    4.24    0.07
  -9  -1   1    4.50    0.06
  -9   1   1    4.57    0.06
  -9   1   1    4.51    0.07
  -9   1   1    4.26    0.08
  -8   1   1    6.19    0.06
  -8  -1   1    6.12    0.09
  -8   1   1    6.13    0.07
  -8   1   1    6.19    0.09
   8   1  -1    6.16    0.06
  -8  -1   1    6.15    0.07
   8  -1  -1    6.12    0.05
  -8   1   1    6.17    0.09
  -7   1   1    2.12    0.03
  -7  -1   1    1.99    0.05
  -7   1   1    2.07    0.04
  -7   1   1    2.01    0.05
   7  -1  -1    2.11    0.03
   7   1  -1    2.05    0.03
  -7  -1   1    1.99    0.04
  -6  -1   1    5.74    0.07
  -6  -1   1    5.92    0.05
   6  -1  -1    6.04    0.05
  -6   1   1    5.75    0.06
  -6   1   1    6.01    0.07
   6   1  -1    6.00    0.05
  -6   1   1    5.94    0.05
  -5  -1   1    8.79    0.08
  -5   1   1    9.12    0.05
  -5   1   1    8.44    0.07
  -5   1   1    8.95    0.08
   5  -1  -1    8.98    0.06
   5   1  -1    8.96    0.06
  -5  -1   1    8.87    0.06
  -4  -1   1    1.61    0.03
  -4   1   1    1.63    0.03
   4  -1  -1    1.67    0.03
   4  -1  -1    1.60    0.03
  -4   1   1    1.69    0.03
   4   1  -1    1.68    0.03
  -4  -1   1    1.67    0.03
   3  -1  -1    1.93    0.03
  -3  -1   1    1.93    0.03
  -3   1   1    1.94    0.03
  -3   1   1    1.85    0.03
   3   1  -1    1.92    0.03
   3  -1  -1    1.94    0.03
  -3  -1   1    1.91    0.03
   2  -1  -1   13.31    0.07
  -2   1   1   13.58    0.07
   2   1  -1   13.62    0.07
   2  -1  -1   13.50    0.07
  -2   1   1   12.94    0.07
  -2  -1   1   13.94    0.07
   2   1  -1   13.64    0.07
   1   1  -1   84.95    0.65
  -1   1   1   82.67    0.62
   1  -1  -1   86.35    0.16
   1  -1  -1   84.71    0.64
   1   1  -1   83.29    0.65
  -1  -1   1   85.62    0.61
   1   1  -1   84.84    0.61
   0  -1  -1    3.43    0.03
   0   1  -1    3.12    0.03
   0  -1  -1    3.43    0.03
   0   1  -1    3.12    0.03
   0   1  -1    3.28    0.03
   0   1   1    3.46    0.03
   0  -1  -1    3.37    0.03
  -1   1  -1    0.27    0.01
  -1   1  -1    0.27    0.01
  -1   1  -1    0.27    0.01
   1  -1   1    0.27    0.01
  -1  -1  -1    0.31    0.02
  -1  -1  -1    0.34    0.01
  -1   1  -1    0.27    0.01
   1   1   1    0.32    0.01
  -1   1  -1    0.26    0.01
  -1  -1  -1    0.30    0.02
  -2  -1  -1    0.02    0.01
  -2   1  -1    0.02    0.01
   2   1   1    0.02    0.01
  -2   1  -1    0.02    0.01
  -2  -1  -1    0.02    0.01
  -2   1  -1    0.02    0.02
  -2  -1  -1    0.02    0.01
  -2   1  -1    0.02    0.01
  -2   1  -1    0.02    0.01
  -2  -1  -1    0.02    0.01
  -3  -1  -1   70.53    0.17
   3   1   1   70.44    0.13
  -3   1  -1   70.28    0.19
  -3  -1  -1   69.63    0.64
  -3   1  -1   70.57    0.19
  -3   1  -1   71.59    0.51
  -3  -1  -1   70.17    0.19
  -3   1  -1   70.17    0.17
  -3  -1  -1   70.03    0.19
  -4   1  -1    4.81    0.06
  -4  -1  -1    4.79    0.06
  -4  -1  -1    4.87    0.05
  -4  -1  -1    4.99    0.05
  -4  -1  -1    4.96    0.06
  -4   1  -1    4.95    0.04
  -4   1  -1    4.87    0.05
  -4   1  -1    4.84    0.06
  -5  -1  -1    0.08    0.01
  -5  -1  -1    0.08    0.02
  -5   1  -1    0.08    0.02
  -5   1  -1    0.08    0.01
  -5   1  -1    0.08    0.02
  -5  -1  -1    0.08    0.02
  -5   1  -1    0.08    0.02
  -6   1  -1    0.87    0.03
  -6  -1  -1    0.91    0.03
  -6   1  -1    0.84    0.03
  -6  -1  -1    0.86    0.03
  -6   1  -1    0.94    0.03
  -6   1  -1    0.87    0.02
  -6  -1  -1    0.93    0.03
  -7   1  -1    1.71    0.04
  -7   1  -1    1.78    0.04
  -7  -1  -1    1.74    0.04
  -7   1  -1    1.69    0.03
  -7  -1  -1    1.74    0.04
  -7   1  -1    1.67    0.05
  -7  -1  -1    1.76    0.04
  -8   1  -1    3.49    0.04
  -8   1  -1    3.50    0.06
  -8  -1  -1    3.52    0.06
  -8  -1  -1    3.43    0.04
  -8  -1  -1    3.36    0.06
  -8   1  -1    3.54    0.06
  -8  -1  -1    3.47    0.06
  -8   1  -1    3.37    0.07
  -9  -1  -1    2.10    0.05
  -9   1  -1    2.00    0.06
  -9   1  -1    2.01    0.05
  -9  -1  -1    2.06    0.06
  -9  -1  -1    2.04    0.05
  -9   1  -1    2.14    0.05
 -10  -1  -1    1.53    0.05
 -10   1  -1    1.44    0.06
 -10  -1  -1    1.55    0.05
 -10  -1  -1    1.60    0.05
 -10   1  -1    1.55    0.05
 -10   1  -1    1.46    0.05
 -11  -1  -1    0.49    0.04
 -11   1  -1    0.47    0.04
 -11  -1  -1    0.45    0.04
 -11   1  -1    0.41    0.03
 -11   1  -1    0.48    0.04
 -11  -1  -1    0.43    0.04
 -12  -1  -1    0.52    0.04
 -12  -1  -1    0.47    0.04
 -12   1  -1    0.52    0.04
 -12   1  -1    0.56    0.04
 -12  -1  -1    0.48    0.04
 -12   1  -1    0.51    0.04
 -13   1  -1    0.23    0.04
 -13  -1  -1    0.21    0.04
 -13  -1  -1    0.25    0.04
 -13   1  -1    0.23    0.04
 -13  -1  -1    0.18    0.03
 -14   1  -1    2.70    0.08
 -14   1  -1    2.58    0.08
 -14  -1  -1    2.68    0.08
 -14  -1  -1    2.70    0.08
 -15   1  -1    0.19    0.04
 -15  -1  -1    0.19    0.04
 -15   1  -1    0.24    0.05
 -15  -1  -1    0.22    0.05
 -16  -1  -1    0.06    0.04
 -16  -1  -1    0.03    0.04
 -16   1  -1    0.09    0.05
 -16   1  -1    0.10    0.04
 -17  -1  -1   -0.01    0.04
 -17  -1  -1   -0.05    0.04
 -17   1  -1    0.02    0.04
 -17   1  -1    0.00    0.03
 -18  -2   1    0.03    0.04
 -17  -2   1    0.15    0.04
 -17   2   1    0.10    0.04
  17  -2  -1    0.19    0.05
 -17   2   1    0.13    0.05
 -17  -2   1    0.12    0.05
 -16  -2   1    0.10    0.04
 -16  -2   1    0.06    0.04
 -16   2   1    0.07    0.04
  16  -2  -1    0.12    0.05
 -16   2   1    0.15    0.05
 -15  -2   1    4.47    0.11
 -15   2   1    4.62    0.11
 -15  -2   1    4.37    0.10
 -15   2   1    4.41    0.11
  15  -2  -1    4.66    0.11
 -14   2   1    0.22    0.05
  14  -2  -1    0.30    0.05
 -14  -2   1    0.26    0.04
 -14   2   1    0.27    0.05
 -14  -2   1    0.31    0.04
 -13   2   1    0.37    0.04
 -13  -2   1    0.35    0.04
 -13   2   1    0.37    0.04
  13  -2  -1    0.39    0.05
 -13  -2   1    0.32    0.04
 -12   2   1    0.15    0.04
 -12  -2   1    0.13    0.03
 -12   2   1    0.09    0.02
 -12   2   1    0.14    0.04
 -12  -2   1    0.09    0.02
  12  -2  -1    0.12    0.04
 -12  -2   1    0.16    0.03
 -11   2   1    0.34    0.03
 -11  -2   1    0.30    0.04
 -11   2   1    0.36    0.04
  11  -2  -1    0.35    0.04
 -11   2   1    0.31    0.04
 -10  -2   1    2.11    0.06
 -10   2   1    2.20    0.06
 -10  -2   1    2.22    0.05
 -10   2   1    2.28    0.05
  10  -2  -1    2.31    0.07
 -10   2   1    2.21    0.06
  -9   2   1    0.49    0.04
   9  -2  -1    0.50    0.04
  -9  -2   1    0.44    0.03
  -9  -2   1    0.44    0.03
  -9   2   1    0.47    0.04
  -9   2   1    0.46    0.03
   8   2  -1   12.00    0.09
  -8   2   1   11.67    0.10
  -8   2   1   12.01    0.12
   8  -2  -1   12.03    0.12
  -8  -2   1   12.04    0.10
  -8  -2   1   11.98    0.12
  -8   2   1   11.67    0.12
   7   2  -1    0.31    0.02
  -7   2   1    0.32    0.03
  -7  -2   1    0.33    0.03
  -7   2   1    0.32    0.02
  -7   2   1    0.33    0.03
   7  -2  -1    0.34    0.03
  -7  -2   1    0.33    0.02
  -6   2   1   14.03    0.12
   6  -2  -1   14.02    0.12
  -6   2   1   14.02    0.11
   6   2  -1   14.03    0.10
  -6  -2   1   14.02    0.12
  -6   2   1   14.03    0.11
  -6  -2   1   14.03    0.10
  -5   2   1   21.60    0.12
  -5  -2   1   21.26    0.11
  -5   2   1   21.72    0.13
   5  -2  -1   21.70    0.13
  -5   2   1   21.32    0.12
   5   2  -1   21.61    0.11
  -5  -2   1   21.38    0.13
  -4  -2   1    9.51    0.08
   4   2  -1    9.36    0.07
   4  -2  -1    8.85    0.08
  -4   2   1    8.93    0.07
  -4  -2   1    9.18    0.07
   3   2  -1    1.06    0.03
  -3   2   1    1.08    0.03
  -3  -2   1    1.05    0.03
  -3  -2   1    1.07    0.02
  -3   2   1    1.10    0.03
   3   2  -1    1.07    0.03
   3  -2  -1    1.10    0.03
  -2   2   1    7.84    0.06
   2   2  -1    8.09    0.07
   2  -2  -1    8.20    0.07
   2   2  -1    8.08    0.07
   2  -2  -1    8.19    0.06
   2   2  -1    8.02    0.06
  -2   2   1    8.14    0.07
   1  -2  -1    0.78    0.02
   1   2  -1    0.82    0.03
   1  -2  -1    0.76    0.02
   1   2  -1    0.80    0.02
  -1  -2   1    0.83    0.02
   1   2  -1    0.84    0.02
   1  -2  -1    0.82    0.02
  -1   2   1    0.80    0.02
  -1   2   1    0.78    0.02
   0   2   1    3.05    0.04
   0  -2  -1    2.83    0.04
   0   2  -1    2.96    0.04
   0  -2   1    3.07    0.04
   0   2  -1    3.03    0.04
   0  -2  -1    3.05    0.04
   0   2  -1    2.99    0.04
   0  -2  -1    2.99    0.04
  -1   2  -1   92.98    0.81
   1   2   1   94.30    0.80
  -1  -2  -1   93.87    0.20
  -1  -2  -1   94.57    0.21
   1  -2   1   94.69    0.21
  -1   2  -1   94.35    0.20
  -2   2  -1    4.05    0.05
  -2  -2  -1    4.34    0.05
  -2  -2  -1    4.19    0.05
  -2   2  -1    4.08    0.04
   2  -2   1    4.23    0.05
  -2  -2  -1    4.36    0.05
   2   2   1    4.32    0.04
  -2   2  -1    4.02    0.04
  -2   2  -1    4.11    0.05
  -3   2  -1    4.95    0.05
  -3  -2  -1    4.97    0.05
  -3  -2  -1    5.08    0.04
  -3   2  -1    4.98    0.06
  -3   2  -1    4.97    0.06
   3  -2   1    5.07    0.06
  -3  -2  -1    4.65    0.06
  -3   2  -1    5.08    0.06
  -3   2  -1    4.90    0.05
   3   2   1    5.15    0.05
  -3  -2  -1    5.04    0.06
  -4  -2  -1    2.77    0.04
  -4   2  -1    2.83    0.05
  -4   2  -1    2.74    0.04
  -4   2  -1    2.71    0.04
  -4  -2  -1    2.73    0.05
  -4   2  -1    2.85    0.05
  -4   2  -1    2.85    0.05
   4   2   1    2.65    0.04
  -4  -2  -1    2.67    0.04
  -4  -2  -1    2.69    0.05
   5   2   1    0.98    0.03
  -5  -2  -1    1.07    0.03
  -5   2  -1    1.11    0.02
  -5  -2  -1    1.05    0.04
  -5  -2  -1    1.03    0.03
  -5   2  -1    1.13    0.03
  -5   2  -1    1.17    0.03
  -5   2  -1    1.07    0.03
  -5   2  -1    1.11    0.04
  -5  -2  -1    1.03    0.03
  -6  -2  -1    2.85    0.05
  -6  -2  -1    2.96    0.06
  -6   2  -1    2.83    0.04
  -6   2  -1    2.86    0.03
  -6   2  -1    3.03    0.06
  -6   2  -1    2.89    0.05
  -6   2  -1    3.00    0.06
  -6  -2  -1    2.96    0.05
  -7  -2  -1    4.96    0.07
  -7  -2  -1    4.91    0.07
  -7   2  -1    5.10    0.08
  -7   2  -1    5.00    0.07
  -7  -2  -1    5.11    0.08
  -7   2  -1    5.05    0.08
  -7   2  -1    5.03    0.06
  -8   2  -1    2.25    0.05
  -8   2  -1    2.23    0.06
  -8  -2  -1    2.19    0.05
  -8  -2  -1    2.11    0.05
  -8   2  -1    2.20    0.06
  -8   2  -1    2.34    0.04
  -8  -2  -1    2.13    0.05
  -9   2  -1    0.15    0.03
  -9  -2  -1    0.12    0.02
  -9  -2  -1    0.14    0.03
  -9   2  -1    0.12    0.03
  -9  -2  -1    0.11    0.03
  -9   2  -1    0.12    0.03
 -10  -2  -1    2.44    0.06
 -10   2  -1    2.47    0.06
 -10   2  -1    2.43    0.07
 -10   2  -1    2.36    0.06
 -10  -2  -1    2.53    0.06
 -10  -2  -1    2.41    0.06
 -11   2  -1    0.08    0.03
 -11  -2  -1    0.06    0.03
 -11   2  -1    0.07    0.02
 -11  -2  -1    0.11    0.03
 -11  -2  -1    0.05    0.03
 -11   2  -1    0.05    0.03
 -12  -2  -1    0.50    0.04
 -12   2  -1    0.50    0.04
 -12   2  -1    0.52    0.05
 -12  -2  -1    0.51    0.04
 -12   2  -1    0.34    0.03
 -12  -2  -1    0.55    0.04
 -13   2  -1    0.18    0.04
 -13  -2  -1    0.20    0.03
 -13   2  -1    0.16    0.04
 -13  -2  -1    0.17    0.04
 -13  -2  -1    0.16    0.04
 -14  -2  -1   -0.01    0.04
 -14   2  -1    0.01    0.04
 -14   2  -1    0.02    0.04
 -14  -2  -1    0.03    0.03
 -15   2  -1    0.49    0.05
 -15  -2  -1    0.46    0.05
 -15   2  -1    0.49    0.05
 -15  -2  -1    0.54    0.05
 -16   2  -1    0.00    0.03
 -16  -2  -1    0.06    0.04
 -16  -2  -1    0.03    0.03
 -16   2  -1    0.06    0.05
 -17  -2  -1    0.99    0.06
 -17   2  -1    0.90    0.06
 -17   3   1    0.01    0.04
 -17  -3   1    0.01    0.04
  17  -3  -1    0.02    0.04
 -16  -3   1    0.27    0.05
  16  -3  -1    0.21    0.04
 -16  -3   1    0.22    0.04
 -16   3   1    0.24    0.05
 -16   3   1    0.27    0.04
 -15   3   1    0.06    0.04
 -15   3   1    0.05    0.04
  15  -3  -1    0.05    0.04
 -15  -3   1    0.07    0.04
 -15  -3   1    0.08    0.04
  14  -3  -1    0.10    0.04
 -14   3   1    0.09    0.04
 -14   3   1    0.13    0.04
 -14  -3   1    0.05    0.04
 -14  -3   1    0.10    0.03
 -13  -3   1    2.74    0.07
 -13  -3   1    2.60    0.08
  13  -3  -1    2.80    0.08
 -13   3   1    2.62    0.08
 -13   3   1    2.59    0.08
 -12  -3   1    0.09    0.04
 -12  -3   1    0.14    0.03
 -12   3   1    0.11    0.04
 -12   3   1    0.06    0.02
  12  -3  -1    0.07    0.04
 -12   3   1    0.06    0.04
 -11  -3   1    0.16    0.04
 -11   3   1    0.17    0.03
 -11  -3   1    0.18    0.03
  11  -3  -1    0.14    0.04
 -11   3   1    0.15    0.03
 -11   3   1    0.18    0.04
  10  -3  -1    3.01    0.07
 -10   3   1    2.93    0.07
 -10  -3   1    2.79    0.07
 -10   3   1    2.91    0.08
 -10  -3   1    2.98    0.06
 -10   3   1    2.93    0.06
  -9  -3   1    0.78    0.04
   9  -3  -1    0.72    0.04
  -9   3   1    0.75    0.03
  -9   3   1    0.80    0.04
  -9   3   1    0.76    0.04
  -9  -3   1    0.82    0.04
  -8  -3   1    0.25    0.02
  -8   3   1    0.20    0.02
   8   3  -1    0.24    0.02
  -8   3   1    0.25    0.03
  -8   3   1    0.23    0.03
   8  -3  -1    0.23    0.03
  -8  -3   1    0.22    0.03
  -7  -3   1    0.09    0.02
  -7   3   1    0.08    0.02
  -7   3   1    0.09    0.02
  -7   3   1    0.08    0.02
  -7  -3   1    0.11    0.02
   7  -3  -1    0.08    0.02
   7   3  -1    0.09    0.02
  -6  -3   1    6.53    0.08
   6   3  -1    6.67    0.07
  -6   3   1    6.43    0.08
  -6  -3   1    6.34    0.08
  -6   3   1    6.36    0.08
   6  -3  -1    6.51    0.08
  -6   3   1    6.71    0.09
  -5   3   1    6.02    0.07
   5   3  -1    6.19    0.08
   5  -3  -1    6.04    0.07
   5   3  -1    6.23    0.07
  -5  -3   1    5.88    0.08
  -5   3   1    6.23    0.08
  -5  -3   1    6.22    0.07
  -5   3   1    6.06    0.07
  -4   3   1    2.52    0.04
  -4  -3   1    2.53    0.05
   4   3  -1    2.53    0.05
  -4  -3   1    2.54    0.05
   4   3  -1    2.54    0.05
   4  -3  -1    2.54    0.05
  -4   3   1    2.55    0.05
  -4   3   1    2.54    0.05
   4  -3  -1    2.54    0.05
   3  -3  -1   18.27    0.11
  -3   3   1   18.76    0.12
  -3   3   1   18.34    0.10
  -3   3   1   18.24    0.12
   3   3  -1   18.27    0.12
   3   3  -1   18.16    0.12
   3  -3  -1   18.42    0.12
  -3  -3   1   18.19    0.12
  -3  -3   1   18.03    0.12
  -2  -3   1    8.65    0.05
   2   3  -1    8.53    0.06
   2  -3  -1    8.22    0.08
   2   3  -1    8.64    0.08
   2   3  -1    8.88    0.08
   2  -3  -1    8.23    0.07
  -2   3   1    8.45    0.06
  -2  -3   1    8.53    0.08
  -2   3   1    8.16    0.08
  -2   3   1    8.46    0.08
   1   3  -1    0.46    0.02
   1  -3  -1    0.41    0.02
   1   3  -1    0.47    0.03
  -1   3   1    0.49    0.02
   1  -3  -1    0.45    0.02
   1  -3  -1    0.47    0.02
  -1  -3   1    0.58    0.03
   1   3  -1    0.49    0.02
   0  -3   1   15.61    0.11
   0  -3  -1   15.61    0.10
   0  -3  -1   15.85    0.10
   0   3  -1   15.20    0.09
   0   3   1   15.85    0.10
   0  -3  -1   15.36    0.10
   0   3  -1   15.51    0.10
  -1  -3  -1    0.55    0.02
  -1   3  -1    0.59    0.02
  -1   3  -1    0.55    0.02
  -1  -3  -1    0.58    0.02
  -1  -3  -1    0.56    0.02
   1  -3   1    0.62    0.03
   1   3   1    0.60    0.03
  -2  -3  -1    4.69    0.06
  -2  -3  -1    4.54    0.06
  -2   3  -1    4.60    0.06
   2  -3   1    4.70    0.06
  -2  -3  -1    4.72    0.06
   2  -3   1    4.73    0.04
   2   3   1    4.87    0.06
  -2   3  -1    4.62    0.05
   3   3   1    1.16    0.03
  -3  -3  -1    1.13    0.03
  -3   3  -1    1.11    0.03
   3  -3   1    1.15    0.04
  -3  -3  -1    1.13    0.03
  -3   3  -1    1.13    0.03
   3  -3   1    1.13    0.03
  -3   3  -1    1.15    0.04
  -3  -3  -1    1.18    0.04
  -4  -3  -1    6.82    0.08
   4  -3   1    6.72    0.06
  -4   3  -1    6.64    0.08
   4   3   1    6.65    0.07
  -4   3  -1    6.58    0.07
  -4  -3  -1    6.82    0.08
  -4   3  -1    6.60    0.08
  -4  -3  -1    7.00    0.08
   4  -3   1    6.70    0.08
  -4  -3  -1    6.89    0.05
  -5   3  -1    5.23    0.07
  -5  -3  -1    5.18    0.07
   5   3   1    5.31    0.06
   5  -3   1    5.22    0.08
  -5   3  -1    5.18    0.06
  -5   3  -1    5.05    0.07
  -5  -3  -1    5.09    0.05
  -5  -3  -1    5.03    0.07
  -5   3  -1    5.22    0.06
  -5  -3  -1    5.05    0.07
  -6  -3  -1    3.81    0.05
   6   3   1    3.95    0.06
  -6  -3  -1    3.85    0.07
  -6   3  -1    3.77    0.06
  -6   3  -1    3.79    0.05
  -6   3  -1    3.83    0.07
  -6   3  -1    3.82    0.07
  -6  -3  -1    3.75    0.07
  -6  -3  -1    3.90    0.07
  -7   3  -1    3.06    0.07
  -7  -3  -1    3.14    0.06
   7   3   1    3.29    0.05
  -7  -3  -1    3.17    0.07
  -7   3  -1    3.02    0.04
  -7   3  -1    3.10    0.05
  -7   3  -1    3.01    0.06
  -7  -3  -1    3.04    0.05
  -8   3  -1    0.84    0.04
  -8  -3  -1    0.83    0.03
  -8   3  -1    0.77    0.04
  -8   3  -1    0.85    0.03
  -8   3  -1    0.80    0.04
  -8  -3  -1    0.84    0.04
  -8  -3  -1    0.84    0.04
  -9   3  -1    0.15    0.03
  -9  -3  -1    0.19    0.02
  -9   3  -1    0.18    0.03
  -9   3  -1    0.14    0.03
  -9  -3  -1    0.18    0.03
  -9  -3  -1    0.18    0.03
 -10  -3  -1    0.01    0.03
 -10  -3  -1    0.01    0.03
 -10   3  -1    0.03    0.03
 -10   3  -1    0.05    0.03
 -10   3  -1    0.04    0.02
 -10  -3  -1    0.05    0.02
 -11   3  -1    0.06    0.03
 -11  -3  -1    0.03    0.02
 -11   3  -1    0.05    0.02
 -11  -3  -1    0.06    0.03
 -11  -3  -1    0.08    0.03
 -11   3  -1    0.03    0.03
 -12  -3  -1    1.37    0.06
 -12   3  -1    1.30    0.06
 -12  -3  -1    1.33    0.06
 -12   3  -1    1.31    0.06
 -13   3  -1    0.00    0.04
 -13  -3  -1   -0.01    0.03
 -13   3  -1   -0.02    0.04
 -13  -3  -1    0.01    0.03
 -14   3  -1    0.23    0.05
 -14  -3  -1    0.18    0.04
 -14   3  -1    0.23    0.05
 -15   3  -1    0.99    0.07
 -15   3  -1    0.85    0.06
 -15  -3  -1    0.93    0.06
 -16  -3  -1    0.05    0.04
 -16   3  -1    0.09    0.05
 -16   3  -1    0.05    0.04
  16  -3   1    0.10    0.04
 -17  -3  -1    0.06    0.03
 -16   4   1    0.07    0.05
 -16  -4   1    0.04    0.04
 -16   4   1    0.05    0.04
  16  -4  -1    0.05    0.04
 -15   4   1    0.01    0.04
  15  -4  -1    0.02    0.04
 -15  -4   1    0.00    0.04
 -15   4   1    0.01    0.04
 -14   4   1    0.05    0.04
  14  -4  -1    0.11    0.04
 -14   4   1    0.13    0.04
 -14  -4   1    0.11    0.04
  13  -4  -1    0.02    0.04
 -13   4   1    0.06    0.04
 -13   4   1    0.02    0.04
 -13  -4   1    0.03    0.04
 -12   4   1    4.57    0.11
 -12  -4   1    4.73    0.11
 -12   4   1    4.95    0.11
  12  -4  -1    4.70    0.10
 -11  -4   1    3.24    0.07
 -11   4   1    3.39    0.08
 -11  -4   1    3.32    0.09
 -11   4   1    3.19    0.07
 -11   4   1    3.33    0.09
  11  -4  -1    3.24    0.08
 -10  -4   1    0.41    0.04
 -10  -4   1    0.44    0.04
 -10   4   1    0.40    0.03
 -10   4   1    0.35    0.04
 -10   4   1    0.40    0.04
  10  -4  -1    0.38    0.04
  -9  -4   1    3.39    0.08
  -9  -4   1    3.34    0.07
  -9   4   1    3.43    0.07
   9   4  -1    3.42    0.06
  -9   4   1    3.45    0.08
   9  -4  -1    3.55    0.08
  -9   4   1    3.51    0.08
  -8  -4   1    0.54    0.03
  -8   4   1    0.57    0.04
   8  -4  -1    0.51    0.04
  -8   4   1    0.52    0.04
  -8  -4   1    0.57    0.04
   8   4  -1    0.53    0.03
  -8   4   1    0.54    0.04
   7  -4  -1    0.07    0.02
  -7   4   1    0.06    0.02
  -7  -4   1    0.07    0.02
   7  -4  -1    0.06    0.03
  -7   4   1    0.07    0.03
  -7  -4   1    0.05    0.03
   7   4  -1    0.06    0.02
  -7   4   1    0.07    0.02
  -6   4   1    0.43    0.03
   6   4  -1    0.40    0.03
   6  -4  -1    0.41    0.03
  -6   4   1    0.42    0.03
   6   4  -1    0.45    0.03
   6  -4  -1    0.42    0.03
  -6  -4   1    0.42    0.03
  -6   4   1    0.39    0.03
  -6  -4   1    0.38    0.03
   5   4  -1    3.25    0.06
   5  -4  -1    3.20    0.07
  -5   4   1    3.21    0.05
   5   4  -1    3.38    0.06
  -5  -4   1    3.16    0.06
  -5  -4   1    3.22    0.07
   5  -4  -1    3.26    0.06
  -5   4   1    3.27    0.07
  -5   4   1    3.24    0.06
  -4   4   1    0.75    0.03
  -4  -4   1    0.74    0.04
   4  -4  -1    0.73    0.03
  -4  -4   1    0.78    0.03
   4  -4  -1    0.71    0.04
  -4   4   1    0.74    0.04
   4   4  -1    0.81    0.04
   4   4  -1    0.78    0.03
  -4   4   1    0.72    0.03
  -3  -4   1    2.22    0.05
  -3  -4   1    2.21    0.05
  -3  -4   1    2.22    0.03
   3   4  -1    2.21    0.05
   3  -4  -1    2.22    0.05
   3   4  -1    2.28    0.05
  -3   4   1    2.29    0.04
   3   4  -1    2.29    0.04
   3  -4  -1    2.22    0.04
  -3   4   1    2.16    0.05
  -3   4   1    2.18    0.05
  -2  -4   1    0.87    0.03
   2  -4  -1    0.86    0.03
  -2  -4   1    0.87    0.02
   2   4  -1    0.86    0.03
   2   4  -1    0.86    0.03
  -2   4   1    0.87    0.03
   2  -4  -1    0.86    0.03
  -2   4   1    0.86    0.02
   2   4  -1    0.85    0.02
   1  -4  -1    3.50    0.05
  -1   4   1    3.65    0.06
   1  -4  -1    3.47    0.06
   1  -4  -1    3.55    0.06
  -1  -4   1    3.76    0.03
  -1  -4   1    3.37    0.06
  -1   4   1    3.60    0.03
   1   4  -1    3.55    0.06
   1   4  -1    3.48    0.04
   0  -4  -1   30.41    0.15
   0   4   1   30.72    0.17
   0  -4   1   30.72    0.17
   0  -4  -1   30.80    0.17
   0   4  -1   30.79    0.17
   0  -4  -1   30.51    0.17
   0  -4   1   31.33    0.09
   0   4  -1   30.50    0.13
   1   4   1    1.77    0.04
   1  -4   1    1.76    0.02
  -1  -4  -1    1.71    0.04
  -1  -4  -1    1.67    0.04
   1  -4   1    1.73    0.05
  -1   4  -1    1.66    0.04
  -1  -4  -1    1.75    0.04
  -1   4  -1    1.76    0.04
   2  -4   1   27.97    0.17
  -2   4  -1   27.79    0.16
   2   4   1   28.12    0.16
  -2  -4  -1   27.89    0.17
  -2  -4  -1   28.39    0.16
   2  -4   1   28.31    0.11
  -2   4  -1   27.48    0.14
  -2  -4  -1   28.58    0.15
  -3  -4  -1    3.01    0.06
  -3  -4  -1    2.92    0.06
  -3  -4  -1    3.00    0.05
   3   4   1    2.93    0.06
   3  -4   1    2.94    0.04
   3  -4   1    2.92    0.06
  -3   4  -1    2.77    0.05
  -3   4  -1    2.88    0.05
  -4  -4  -1    0.75    0.03
   4   4   1    0.74    0.03
   4  -4   1    0.72    0.04
  -4   4  -1    0.75    0.03
  -4  -4  -1    0.72    0.03
  -4   4  -1    0.71    0.03
  -4  -4  -1    0.79    0.04
   4  -4   1    0.73    0.03
  -4   4  -1    0.74    0.03
  -5   4  -1    0.82    0.03
  -5  -4  -1    0.83    0.04
  -5  -4  -1    0.84    0.04
   5   4   1    0.80    0.03
  -5   4  -1    0.79    0.04
   5  -4   1    0.77    0.04
  -5  -4  -1    0.81    0.04
   5  -4   1    0.76    0.03
  -5   4  -1    0.81    0.04
  -6   4  -1    0.43    0.03
  -6   4  -1    0.46    0.03
  -6  -4  -1    0.47    0.03
   6  -4   1    0.50    0.04
  -6  -4  -1    0.47    0.03
   6   4   1    0.44    0.03
  -6  -4  -1    0.48    0.03
  -6   4  -1    0.46    0.03
   6  -4   1    0.45    0.03
  -7  -4  -1    0.73    0.04
   7   4   1    0.71    0.03
  -7   4  -1    0.66    0.03
  -7  -4  -1    0.73    0.04
  -7   4  -1    0.73    0.04
   7  -4   1    0.71    0.03
  -7   4  -1    0.70    0.03
  -7   4  -1    0.69    0.04
  -7  -4  -1    0.71    0.04
   7  -4   1    0.71    0.04
   8  -4   1    0.13    0.03
  -8   4  -1    0.11    0.03
  -8  -4  -1    0.09    0.03
   8  -4   1    0.13    0.03
  -8  -4  -1    0.12    0.03
   8   4   1    0.10    0.02
  -8   4  -1    0.11    0.02
  -8   4  -1    0.10    0.03
  -9   4  -1    0.01    0.03
  -9   4  -1    0.01    0.03
  -9  -4  -1    0.04    0.03
   9  -4   1    0.02    0.03
  -9  -4  -1    0.02    0.03
   9  -4   1    0.05    0.03
  10  -4   1    0.47    0.04
 -10  -4  -1    0.49    0.04
 -10  -4  -1    0.50    0.04
 -10   4  -1    0.51    0.04
 -10   4  -1    0.46    0.04
 -11   4  -1    0.33    0.04
  11  -4   1    0.30    0.04
 -11  -4  -1    0.36    0.04
 -11  -4  -1    0.31    0.04
 -11   4  -1    0.34    0.04
 -12  -4  -1    0.60    0.05
 -12  -4  -1    0.70    0.05
  12  -4   1    0.59    0.05
 -12   4  -1    0.63    0.05
 -12   4  -1    0.63    0.05
 -13   4  -1    0.83    0.06
  13  -4   1    0.85    0.06
 -13  -4  -1    0.81    0.06
 -13  -4  -1    0.84    0.05
 -13   4  -1    0.84    0.06
  14  -4   1    1.01    0.06
 -14   4  -1    0.91    0.06
 -14  -4  -1    0.86    0.06
 -14   4  -1    0.89    0.06
 -15   4  -1    0.01    0.05
  15  -4   1   -0.01    0.04
 -15   4  -1   -0.02    0.04
 -15  -4  -1   -0.03    0.04
 -16   4  -1    0.03    0.04
 -16  -4  -1   -0.03    0.04
  16  -4   1    0.02    0.03
  16  -5  -1    0.02    0.04
 -15  -5   1    0.07    0.05
 -15   5   1    0.02    0.04
 -15   5   1   -0.01    0.05
  15  -5  -1    0.00    0.04
 -14   5   1    0.01    0.04
 -14   5   1    0.01    0.04
 -14  -5   1    0.00    0.04
  14  -5  -1    0.01    0.04
 -13  -5   1    0.09    0.04
 -13   5   1    0.09    0.04
 -13   5   1    0.11    0.04
  13  -5  -1    0.14    0.04
 -12   5   1    0.54    0.05
  12  -5  -1    0.50    0.05
 -12   5   1    0.49    0.05
 -12  -5   1    0.57    0.05
  12  -5  -1    0.55    0.05
  11  -5  -1    0.01    0.03
 -11   5   1    0.05    0.03
 -11   5   1    0.03    0.03
 -11   5   1    0.04    0.04
 -11  -5   1    0.00    0.04
  11  -5  -1    0.03    0.04
 -11  -5   1    0.05    0.03
  10  -5  -1    1.18    0.05
  10  -5  -1    1.21    0.06
 -10   5   1    1.20    0.05
 -10   5   1    1.23    0.06
 -10  -5   1    1.22    0.05
 -10  -5   1    1.12    0.05
 -10   5   1    1.18    0.05
  -9  -5   1    7.15    0.11
  -9   5   1    7.04    0.12
  -9   5   1    7.37    0.11
   9   5  -1    6.96    0.10
  -9  -5   1    7.39    0.12
   9  -5  -1    7.29    0.11
  -9   5   1    7.13    0.11
   9  -5  -1    7.30    0.12
   8   5  -1    4.33    0.08
  -8  -5   1    4.13    0.09
   8  -5  -1    4.22    0.08
   8  -5  -1    4.27    0.09
  -8  -5   1    4.21    0.08
  -8   5   1    4.33    0.09
  -8   5   1    4.16    0.08
  -8   5   1    4.27    0.08
  -7   5   1    0.99    0.04
   7   5  -1    1.00    0.05
   7  -5  -1    1.01    0.05
  -7   5   1    0.96    0.05
  -7  -5   1    0.90    0.04
   7   5  -1    0.96    0.04
   7  -5  -1    0.94    0.04
  -7   5   1    0.90    0.04
  -7  -5   1    0.95    0.05
  -6   5   1    1.64    0.05
  -6  -5   1    1.53    0.05
   6  -5  -1    1.54    0.06
  -6   5   1    1.47    0.05
  -6   5   1    1.53    0.06
   6   5  -1    1.56    0.05
   6   5  -1    1.48    0.05
   6  -5  -1    1.51    0.05
  -6  -5   1    1.58    0.06
  -5   5   1    0.74    0.03
  -5  -5   1    0.68    0.04
   5   5  -1    0.72    0.04
   5  -5  -1    0.66    0.04
   5   5  -1    0.71    0.04
  -5  -5   1    0.73    0.04
  -5   5   1    0.73    0.04
   5  -5  -1    0.71    0.03
  -5   5   1    0.70    0.04
   4   5  -1    0.01    0.03
   4  -5  -1    0.02    0.02
   4  -5  -1    0.03    0.03
  -4  -5   1    0.02    0.02
  -4   5   1    0.02    0.01
  -4  -5   1    0.03    0.03
  -4   5   1    0.02    0.02
   4   5  -1    0.02    0.02
  -3  -5   1    3.91    0.07
   3  -5  -1    3.83    0.07
  -3  -5   1    3.85    0.07
   3   5  -1    4.09    0.07
  -3   5   1    3.67    0.07
   3  -5  -1    3.94    0.06
   3   5  -1    4.01    0.07
  -3   5   1    4.04    0.05
   2   5  -1    0.31    0.02
   2  -5  -1    0.31    0.02
   2  -5  -1    0.31    0.03
  -2   5   1    0.32    0.03
  -2  -5   1    0.32    0.03
   2   5  -1    0.31    0.03
   2   5  -1    0.36    0.03
   1   5  -1    5.38    0.06
  -1   5   1    5.50    0.08
  -1  -5   1    5.47    0.08
   1  -5  -1    5.36    0.08
   1  -5  -1    5.48    0.07
   1  -5  -1    5.33    0.08
   1   5  -1    5.38    0.08
   0  -5  -1    3.08    0.05
   0   5  -1    3.09    0.05
   0   5  -1    3.15    0.07
   0  -5  -1    3.10    0.06
   0  -5  -1    3.00    0.06
   0  -5   1    3.01    0.07
   0   5   1    3.09    0.06
   1   5   1    0.39    0.03
   1  -5   1    0.37    0.03
  -1  -5  -1    0.40    0.03
  -1   5  -1    0.38    0.02
  -1   5  -1    0.38    0.03
  -1  -5  -1    0.37    0.03
  -1  -5  -1    0.41    0.03
  -2  -5  -1    0.93    0.03
  -2  -5  -1    0.89    0.04
   2   5   1    0.93    0.04
  -2  -5  -1    0.90    0.04
  -2   5  -1    0.93    0.04
   2  -5   1    0.89    0.04
  -2   5  -1    0.86    0.03
  -3  -5  -1    1.56    0.05
  -3   5  -1    1.58    0.05
   3  -5   1    1.65    0.05
   3   5   1    1.63    0.05
  -3  -5  -1    1.63    0.04
  -3  -5  -1    1.60    0.05
  -3   5  -1    1.57    0.04
  -4  -5  -1    1.00    0.05
   4  -5   1    0.97    0.05
  -4  -5  -1    1.02    0.04
   4   5   1    0.96    0.04
  -4  -5  -1    1.01    0.04
  -4   5  -1    0.95    0.04
  -4   5  -1    0.97    0.04
  -5  -5  -1    1.07    0.05
  -5   5  -1    1.06    0.04
  -5   5  -1    0.98    0.04
  -5  -5  -1    1.12    0.04
  -5  -5  -1    1.08    0.04
   5   5   1    1.13    0.04
   5  -5   1    1.00    0.05
   6   5   1    0.22    0.03
  -6  -5  -1    0.18    0.03
   6  -5   1    0.14    0.03
  -6  -5  -1    0.20    0.03
  -6   5  -1    0.14    0.03
  -6   5  -1    0.18    0.03
  -6  -5  -1    0.20    0.03
  -6   5  -1    0.18    0.03
  -7   5  -1    0.16    0.03
  -7   5  -1    0.17    0.02
   7   5   1    0.18    0.03
   7  -5   1    0.14    0.03
  -7   5  -1    0.22    0.03
  -7  -5  -1    0.17    0.03
  -7  -5  -1    0.13    0.03
  -7   5  -1    0.17    0.03
  -7  -5  -1    0.16    0.03
  -8  -5  -1    0.92    0.05
  -8  -5  -1    0.95    0.05
   8  -5   1    0.97    0.05
  -8   5  -1    0.91    0.05
  -8   5  -1    0.95    0.05
   8   5   1    0.92    0.04
  -8   5  -1    0.98    0.04
   9  -5   1    0.07    0.04
  -9   5  -1    0.07    0.03
  -9   5  -1    0.09    0.04
  -9  -5  -1    0.07    0.04
  -9  -5  -1    0.11    0.04
  10  -5   1    1.54    0.07
 -10  -5  -1    1.56    0.06
 -10  -5  -1    1.59    0.06
 -10   5  -1    1.53    0.06
 -10   5  -1    1.64    0.07
  11  -5   1    2.95    0.09
 -11  -5  -1    3.01    0.09
 -11   5  -1    3.15    0.09
 -11   5  -1    3.01    0.09
 -11  -5  -1    3.12    0.09
 -12   5  -1    0.76    0.06
 -12   5  -1    0.86    0.06
  12  -5   1    0.83    0.06
 -12  -5  -1    0.78    0.06
 -12  -5  -1    0.77    0.05
  13  -5   1    0.10    0.04
 -13   5  -1    0.13    0.04
 -13   5  -1    0.13    0.04
 -13  -5  -1    0.09    0.04
 -13  -5  -1    0.09    0.04
 -14  -5  -1    0.05    0.04
 -14   5  -1    0.09    0.05
 -14   5  -1    0.06    0.05
  14  -5   1    0.08    0.05
 -15  -5  -1    0.01    0.03
  15  -5   1    0.01    0.04
 -15   5  -1    0.02    0.04
 -15   6   1   -0.01    0.04
 -14   6   1    0.14    0.04
  14  -6  -1    0.09    0.04
 -14  -6   1    0.17    0.05
 -14   6   1    0.13    0.04
 -13  -6   1    0.67    0.05
 -13   6   1    0.68    0.05
 -13   6   1    0.67    0.06
  13  -6  -1    0.70    0.06
 -12   6   1    0.56    0.05
  12  -6  -1    0.54    0.06
 -12  -6   1    0.52    0.05
 -12   6   1    0.46    0.05
  11  -6  -1    0.01    0.04
 -11  -6   1    0.01    0.04
 -11   6   1    0.01    0.04
 -11  -6   1    0.00    0.03
 -11   6   1    0.04    0.03
 -11   6   1    0.02    0.03
 -10   6   1    1.96    0.07
  10  -6  -1    1.87    0.08
 -10   6   1    1.94    0.07
 -10  -6   1    1.98    0.08
 -10  -6   1    2.00    0.07
 -10   6   1    1.91    0.08
  -9   6   1    0.03    0.03
  -9   6   1    0.01    0.04
   9   6  -1    0.04    0.03
  -9  -6   1    0.01    0.03
  -9  -6   1    0.01    0.04
   9  -6  -1    0.04    0.04
   9  -6  -1    0.01    0.02
  -9   6   1    0.01    0.02
  -8  -6   1    0.15    0.03
  -8   6   1    0.17    0.04
  -8   6   1    0.16    0.03
   8  -6  -1    0.11    0.03
   8   6  -1    0.16    0.03
   8   6  -1    0.12    0.03
   8  -6  -1    0.16    0.04
  -8  -6   1    0.13    0.04
   7  -6  -1    0.99    0.04
   7   6  -1    1.00    0.05
  -7  -6   1    1.07    0.06
  -7  -6   1    1.07    0.05
   7  -6  -1    1.02    0.06
  -7   6   1    1.00    0.06
   7   6  -1    1.06    0.05
  -7   6   1    1.01    0.05
  -6   6   1    3.73    0.08
   6   6  -1    3.91    0.08
   6  -6  -1    4.07    0.08
   6  -6  -1    3.71    0.09
   6   6  -1    3.86    0.09
  -6  -6   1    3.76    0.09
  -6  -6   1    3.79    0.08
  -5   6   1    3.48    0.08
  -5  -6   1    3.34    0.08
   5   6  -1    3.46    0.08
   5   6  -1    3.55    0.08
   5  -6  -1    3.41    0.08
  -5  -6   1    3.55    0.08
   5  -6  -1    3.61    0.07
  -4  -6   1    0.55    0.04
  -4   6   1    0.56    0.04
  -4  -6   1    0.55    0.04
   4  -6  -1    0.59    0.04
   4  -6  -1    0.59    0.03
   4   6  -1    0.56    0.04
   4   6  -1    0.61    0.04
  -3  -6   1    0.04    0.03
   3  -6  -1    0.02    0.03
   3  -6  -1    0.05    0.02
  -3   6   1    0.04    0.03
   3   6  -1    0.07    0.03
   3   6  -1    0.05    0.03
  -3  -6   1    0.04    0.03
   2  -6  -1    8.87    0.11
   2  -6  -1    9.03    0.12
  -2  -6   1    9.35    0.12
  -2   6   1    8.81    0.12
   2  -6  -1    9.11    0.10
   2   6  -1    9.32    0.12
   2   6  -1    9.30    0.12
  -2  -6   1    9.36    0.12
  -1  -6   1    7.32    0.11
   1  -6  -1    7.32    0.09
   1  -6  -1    7.18    0.11
  -1   6   1    7.13    0.10
   1   6  -1    7.11    0.11
   1  -6  -1    7.08    0.10
   0  -6  -1    0.30    0.03
   0   6   1    0.29    0.04
   0   6  -1    0.29    0.03
   0  -6  -1    0.26    0.04
   0  -6   1    0.26    0.04
   0  -6  -1    0.28    0.02
  -1   6  -1    2.98    0.07
   1  -6   1    2.95    0.07
  -1  -6  -1    3.01    0.06
  -1  -6  -1    3.15    0.07
  -1  -6  -1    2.93    0.07
   1   6   1    2.92    0.07
   2  -6   1    0.60    0.04
  -2  -6  -1    0.60    0.04
  -2  -6  -1    0.61    0.03
  -2  -6  -1    0.60    0.04
   2   6   1    0.58    0.04
  -2   6  -1    0.60    0.04
   3  -6   1    5.87    0.10
  -3  -6  -1    5.67    0.10
   3   6   1    5.89    0.10
  -3   6  -1    5.63    0.09
  -3  -6  -1    5.93    0.08
  -3  -6  -1    5.85    0.10
  -4  -6  -1    6.22    0.10
  -4  -6  -1    6.03    0.10
  -4  -6  -1    6.42    0.09
   4  -6   1    6.14    0.11
   4   6   1    6.44    0.10
  -4   6  -1    6.20    0.09
  -4   6  -1    6.01    0.10
   5  -6   1    0.10    0.04
  -5  -6  -1    0.06    0.03
  -5   6  -1    0.08    0.03
  -5   6  -1    0.10    0.03
  -5  -6  -1    0.10    0.03
   5   6   1    0.07    0.03
  -5  -6  -1    0.11    0.03
  -6   6  -1    0.65    0.04
  -6   6  -1    0.66    0.04
  -6  -6  -1    0.67    0.04
  -6  -6  -1    0.64    0.05
   6  -6   1    0.65    0.05
  -6   6  -1    0.74    0.04
  -6  -6  -1    0.66    0.04
   6   6   1    0.67    0.04
  -7   6  -1    1.92    0.06
  -7  -6  -1    1.93    0.06
  -7   6  -1    1.79    0.06
   7  -6   1    1.84    0.07
  -7  -6  -1    1.94    0.07
  -7  -6  -1    1.88    0.07
   7   6   1    1.96    0.06
  -8  -6  -1    2.17    0.07
  -8   6  -1    2.40    0.07
   8  -6   1    2.25    0.08
  -8  -6  -1    2.32    0.08
  -8   6  -1    2.26    0.07
  -8   6  -1    2.21    0.07
   8   6   1    2.31    0.07
  -9   6  -1    0.20    0.04
  -9   6  -1    0.21    0.04
  -9  -6  -1    0.22    0.04
   9  -6   1    0.20    0.04
  -9  -6  -1    0.24    0.04
 -10   6  -1    0.00    0.03
 -10   6  -1   -0.01    0.04
 -10  -6  -1   -0.01    0.04
 -10  -6  -1   -0.01    0.04
  10  -6   1    0.01    0.04
 -11  -6  -1    0.01    0.04
 -11   6  -1   -0.03    0.04
 -11   6  -1    0.00    0.04
  11  -6   1    0.00    0.04
 -11  -6  -1    0.01    0.03
 -12   6  -1    0.29    0.04
  12  -6   1    0.32    0.05
 -12   6  -1    0.30    0.05
 -12  -6  -1    0.27    0.05
 -12  -6  -1    0.28    0.05
 -13  -6  -1    0.08    0.04
 -13   6  -1    0.10    0.04
  13  -6   1    0.07    0.04
 -13   6  -1    0.07    0.04
 -13  -6  -1    0.08    0.04
 -14   6  -1    0.08    0.04
 -14  -6  -1    0.02    0.03
 -14   6  -1    0.09    0.04
  14  -6   1    0.07    0.05
 -14  -6  -1    0.10    0.04
 -13  -7   1    0.07    0.05
  12  -7  -1    1.81    0.09
 -12   7   1    1.81    0.09
 -12  -7   1    1.81    0.08
 -11   7   1    0.02    0.04
 -11  -7   1    0.01    0.03
  11  -7  -1    0.03    0.04
 -11   7   1   -0.01    0.04
 -11  -7   1    0.01    0.04
  10  -7  -1   -0.01    0.04
 -10   7   1    0.04    0.04
 -10   7   1    0.01    0.04
 -10  -7   1    0.02    0.04
 -10  -7   1    0.01    0.03
  -9  -7   1    0.09    0.04
   9   7  -1    0.05    0.03
  -9   7   1    0.07    0.04
   9  -7  -1    0.09    0.04
  -9   7   1    0.06    0.04
  -9  -7   1    0.10    0.04
   8  -7  -1    0.05    0.04
   8   7  -1    0.06    0.03
  -8  -7   1    0.07    0.04
  -8   7   1    0.07    0.04
   8   7  -1    0.02    0.04
  -8  -7   1    0.06    0.04
   7   7  -1    0.11    0.04
  -7   7   1    0.14    0.04
  -7  -7   1    0.13    0.04
   7   7  -1    0.10    0.04
  -7  -7   1    0.11    0.04
   7  -7  -1    0.11    0.04
  -6  -7   1    1.11    0.06
   6   7  -1    1.10    0.06
  -6  -7   1    1.13    0.06
   6   7  -1    1.14    0.06
   6  -7  -1    1.11    0.06
  -6   7   1    1.10    0.05
  -5   7   1    0.01    0.03
   5   7  -1    0.00    0.03
   5   7  -1    0.04    0.04
  -5  -7   1    0.01    0.04
   5  -7  -1    0.05    0.04
  -5  -7   1    0.00    0.04
  -4   7   1    6.51    0.11
  -4  -7   1    6.45    0.12
   4  -7  -1    6.45    0.12
  -4  -7   1    6.49    0.12
   4   7  -1    6.68    0.12
   4   7  -1    6.77    0.12
   3  -7  -1    0.30    0.04
  -3  -7   1    0.32    0.04
   3  -7  -1    0.36    0.04
   3   7  -1    0.29    0.04
  -3   7   1    0.31    0.04
  -3  -7   1    0.34    0.04
   3   7  -1    0.39    0.04
   2  -7  -1    0.84    0.05
   2   7  -1    0.95    0.06
  -2  -7   1    0.90    0.05
  -2   7   1    0.91    0.05
   2   7  -1    0.90    0.05
  -2  -7   1    0.89    0.05
   2  -7  -1    0.88    0.05
  -1  -7   1    1.03    0.05
   1  -7  -1    1.04    0.05
   1   7  -1    1.04    0.05
  -1   7   1    1.04    0.05
   1  -7  -1    1.05    0.05
   1   7  -1    1.04    0.05
   0   7  -1    5.00    0.10
   0   7  -1    4.93    0.10
   0  -7   1    5.07    0.10
   0  -7  -1    4.92    0.10
   0  -7  -1    4.94    0.10
   0   7   1    5.10    0.10
   1  -7   1    0.04    0.04
  -1   7  -1    0.06    0.03
   1   7   1    0.02    0.03
  -1   7  -1    0.03    0.03
  -1  -7  -1    0.03    0.03
  -1  -7  -1    0.04    0.03
   2   7   1    4.54    0.09
  -2  -7  -1    4.41    0.09
   2  -7   1    4.31    0.09
  -2   7  -1    4.52    0.09
  -2  -7  -1    4.45    0.09
   3   7   1    0.72    0.05
  -3  -7  -1    0.72    0.05
  -3   7  -1    0.72    0.04
  -3  -7  -1    0.72    0.05
   3  -7   1    0.72    0.05
  -4  -7  -1    0.09    0.04
   4   7   1    0.05    0.03
  -4   7  -1    0.05    0.03
  -4  -7  -1    0.09    0.04
   4  -7   1    0.07    0.04
  -4   7  -1    0.08    0.03
   5   7   1    0.10    0.04
  -5   7  -1    0.10    0.03
  -5   7  -1    0.11    0.04
   5  -7   1    0.08    0.04
  -5  -7  -1    0.07    0.03
  -5  -7  -1    0.11    0.04
  -6   7  -1    4.50    0.09
   6  -7   1    4.47    0.10
   6   7   1    4.86    0.10
  -6  -7  -1    4.71    0.10
  -6  -7  -1    4.68    0.11
  -6   7  -1    4.54    0.09
  -7  -7  -1    0.04    0.03
  -7   7  -1    0.01    0.03
  -7   7  -1    0.05    0.03
  -7  -7  -1   -0.01    0.04
   7  -7   1    0.04    0.04
   7   7   1    0.05    0.03
   8  -7   1    0.23    0.04
  -8  -7  -1    0.25    0.05
   8   7   1    0.21    0.04
  -8   7  -1    0.25    0.04
  -8  -7  -1    0.24    0.04
  -9  -7  -1    0.04    0.04
  -9  -7  -1    0.04    0.03
   9  -7   1    0.02    0.04
  10  -7   1    0.07    0.04
 -10  -7  -1    0.07    0.04
 -10  -7  -1    0.03    0.04
 -11   7  -1    0.01    0.04
 -11  -7  -1    0.01    0.03
  11  -7   1    0.02    0.04
 -11   7  -1    0.00    0.04
 -11  -7  -1    0.01    0.04
  12  -7   1   -0.01    0.04
 -12   7  -1    0.03    0.04
 -12   7  -1    0.03    0.04
 -12  -7  -1    0.03    0.04
 -12  -7  -1   -0.01    0.04
 -13   7  -1    0.03    0.03
 -13  -7  -1    0.03    0.04
  11  -8  -1   -0.03    0.04
 -11  -8   1    0.03    0.04
 -11   8   1    0.01    0.03
 -11  -8   1    0.05    0.03
  10  -8  -1    0.01    0.04
 -10  -8   1    0.09    0.03
 -10   8   1    0.04    0.04
 -10  -8   1    0.03    0.04
   9   8  -1    0.24    0.04
   9   8  -1    0.24    0.04
  -9   8   1    0.31    0.04
  -9  -8   1    0.31    0.05
  -9  -8   1    0.28    0.04
   9  -8  -1    0.26    0.05
  -8   8   1    0.43    0.04
  -8  -8   1    0.42    0.05
   8  -8  -1    0.41    0.05
   8   8  -1    0.38    0.05
   8   8  -1    0.44    0.05
  -8  -8   1    0.46    0.05
  -7  -8   1    0.16    0.04
   7  -8  -1    0.15    0.04
   7   8  -1    0.17    0.04
  -7   8   1    0.18    0.04
  -7  -8   1    0.17    0.04
   7   8  -1    0.18    0.04
   6  -8  -1    0.09    0.04
   6   8  -1    0.12    0.04
  -6  -8   1    0.09    0.04
   6   8  -1    0.09    0.04
  -6  -8   1    0.09    0.04
  -6   8   1    0.07    0.04
  -5  -8   1   -0.01    0.04
   5  -8  -1    0.02    0.04
  -5  -8   1    0.00    0.03
   5   8  -1   -0.01    0.04
  -5   8   1   -0.01    0.04
   5   8  -1    0.00    0.03
  -4  -8   1    0.35    0.05
  -4   8   1    0.38    0.05
  -4  -8   1    0.34    0.05
   4  -8  -1    0.30    0.04
   4   8  -1    0.36    0.05
   4   8  -1    0.36    0.05
   4  -8  -1    0.34    0.04
   3  -8  -1    0.22    0.04
   3   8  -1    0.23    0.04
  -3  -8   1    0.23    0.04
   3   8  -1    0.25    0.04
  -3   8   1    0.23    0.04
  -3  -8   1    0.20    0.04
   3  -8  -1    0.24    0.04
  -2   8   1    0.27    0.04
  -2  -8   1    0.28    0.04
   2   8  -1    0.28    0.04
   2  -8  -1    0.27    0.04
   2   8  -1    0.25    0.04
  -2  -8   1    0.28    0.04
   2  -8  -1    0.29    0.04
  -1  -8   1    0.02    0.04
   1   8  -1    0.02    0.04
   1   8  -1    0.02    0.04
  -1   8   1    0.01    0.03
   1  -8  -1    0.00    0.04
  -1  -8   1    0.01    0.03
   1  -8  -1    0.00    0.03
   0   8  -1    0.02    0.04
   0   8   1    0.00    0.04
   0  -8  -1    0.01    0.03
   0  -8   1    0.02    0.04
   0  -8  -1    0.00    0.04
   0   8  -1    0.02    0.04
   1  -8   1    1.53    0.07
  -1  -8  -1    1.43    0.06
   1   8   1    1.45    0.06
  -1   8  -1    1.41    0.06
  -1  -8  -1    1.46    0.07
  -1   8  -1    1.44    0.06
  -2   8  -1    0.12    0.04
  -2  -8  -1    0.15    0.04
  -2  -8  -1    0.11    0.04
   2   8   1    0.11    0.04
  -2   8  -1    0.17    0.04
   2  -8   1    0.11    0.04
  -3   8  -1    0.00    0.03
   3   8   1    0.01    0.04
  -3   8  -1   -0.01    0.04
   3  -8   1    0.00    0.03
  -3  -8  -1    0.01    0.03
  -3  -8  -1    0.00    0.04
  -4   8  -1    0.14    0.04
  -4   8  -1    0.10    0.04
   4   8   1    0.13    0.04
  -4  -8  -1    0.12    0.04
  -4  -8  -1    0.11    0.04
   4  -8   1    0.14    0.04
  -5  -8  -1    0.06    0.04
   5  -8   1    0.06    0.04
  -5   8  -1    0.09    0.04
  -5   8  -1    0.07    0.04
  -5  -8  -1    0.05    0.04
   5   8   1    0.07    0.04
  -6   8  -1    0.12    0.04
  -6  -8  -1    0.10    0.04
   6   8   1    0.13    0.04
  -6  -8  -1    0.12    0.04
   6  -8   1    0.14    0.04
  -6   8  -1    0.14    0.04
   7   8   1    0.01    0.04
   7   8   1    0.02    0.04
  -7   8  -1    0.03    0.04
  -7  -8  -1   -0.01    0.04
   7  -8   1    0.05    0.04
  -7  -8  -1    0.00    0.04
   8  -8   1    0.15    0.05
  -8  -8  -1    0.13    0.04
  -8  -8  -1    0.18    0.04
  -8   8  -1    0.14    0.04
   9  -8   1    0.10    0.04
  -9  -8  -1    0.11    0.04
  -9  -8  -1    0.18    0.04
  10  -8   1    0.17    0.04
 -10  -8  -1    0.10    0.04
 -10  -8  -1    0.16    0.04
 -11  -8  -1    0.14    0.04
  -9  -9   1    0.43    0.05
  -8  -9   1    0.41    0.05
   8  -9  -1    0.43    0.06
  -8  -9   1    0.42    0.05
   8   9  -1    0.43    0.05
   7   9  -1    0.17    0.05
  -7  -9   1    0.11    0.04
   7   9  -1    0.13    0.04
  -7   9   1    0.12    0.04
  -7  -9   1    0.12    0.04
   7  -9  -1    0.08    0.05
  -6   9   1    0.00    0.04
   6   9  -1    0.05    0.05
   6  -9  -1    0.01    0.03
  -6  -9   1    0.03    0.04
   6   9  -1    0.02    0.04
  -6  -9   1    0.01    0.04
   6  -9  -1    0.02    0.04
   5   9  -1    0.08    0.04
   5   9  -1    0.03    0.04
  -5   9   1    0.04    0.04
  -5  -9   1    0.04    0.04
   5  -9  -1    0.03    0.04
  -5  -9   1    0.01    0.04
   5  -9  -1    0.07    0.04
   4   9  -1    0.03    0.04
  -4  -9   1    0.02    0.04
  -4  -9   1    0.02    0.04
  -4   9   1    0.02    0.04
   4   9  -1    0.01    0.04
   4  -9  -1    0.06    0.04
   4  -9  -1   -0.01    0.04
   3  -9  -1    0.11    0.05
  -3  -9   1    0.08    0.05
   3   9  -1    0.08    0.04
   3  -9  -1    0.07    0.04
  -3  -9   1    0.06    0.04
  -3   9   1    0.08    0.04
   3   9  -1    0.10    0.04
  -2   9   1   -0.01    0.04
  -2  -9   1    0.01    0.04
   2   9  -1   -0.01    0.04
   2  -9  -1    0.01    0.04
   2   9  -1    0.00    0.04
  -2  -9   1    0.01    0.04
   2  -9  -1    0.01    0.04
   1  -9  -1    2.01    0.08
  -1  -9   1    1.81    0.08
   1   9  -1    1.88    0.08
  -1   9   1    1.89    0.08
  -1  -9   1    1.93    0.08
   1  -9  -1    1.94    0.08
   1   9  -1    1.88    0.08
   0   9  -1    0.33    0.04
   0   9  -1    0.31    0.05
   0   9   1    0.32    0.05
   0  -9   1    0.32    0.04
   0  -9   1    0.35    0.05
   0  -9  -1    0.36    0.05
   0  -9  -1    0.34    0.05
  -1  -9  -1    0.02    0.04
   1   9   1    0.01    0.04
  -1  -9  -1    0.00    0.04
   1  -9   1    0.00    0.04
  -1   9  -1    0.03    0.04
   1  -9   1    0.06    0.04
  -1   9  -1    0.01    0.03
  -2   9  -1    0.21    0.04
  -2  -9  -1    0.24    0.05
  -2   9  -1    0.23    0.04
   2   9   1    0.21    0.04
  -2  -9  -1    0.25    0.05
   2  -9   1    0.21    0.04
  -3  -9  -1    1.70    0.07
  -3   9  -1    1.66    0.07
   3   9   1    1.65    0.07
  -3   9  -1    1.64    0.07
  -3  -9  -1    1.71    0.08
   3  -9   1    1.79    0.08
  -4   9  -1    0.03    0.04
   4  -9   1   -0.02    0.04
   4   9   1    0.01    0.04
  -4  -9  -1   -0.01    0.03
  -4   9  -1    0.02    0.03
  -4  -9  -1    0.02    0.04
  -5   9  -1    0.00    0.03
   5   9   1    0.02    0.04
  -5   9  -1    0.01    0.04
   5  -9   1    0.03    0.04
  -5  -9  -1    0.00    0.04
  -5  -9  -1   -0.01    0.04
  -6  -9  -1    0.00    0.04
   6   9   1    0.00    0.03
  -6  -9  -1    0.01    0.04
  -6   9  -1   -0.02    0.04
   6  -9   1    0.00    0.04
  -6   9  -1    0.03    0.04
   6   9   1   -0.02    0.04
   7  -9   1    0.03    0.04
   7   9   1   -0.01    0.03
   7   9   1   -0.04    0.03
  -7  -9  -1   -0.04    0.04
  -7  -9  -1   -0.02    0.04
  -7   9  -1    0.00    0.04
  -8  -9  -1    0.03    0.04
  -9  -9  -1    0.09    0.05
   6 -10  -1    0.00    0.03
   5 -10  -1    0.23    0.04
   4 -10  -1    0.00    0.03
   4  10  -1    0.04    0.04
   4 -10  -1    0.02    0.04
   3 -10  -1    0.32    0.05
  -3 -10   1    0.34    0.05
   3  10  -1    0.33    0.05
   3 -10  -1    0.40    0.06
  -3 -10   1    0.37    0.06
  -2 -10   1    0.64    0.06
   2 -10  -1    0.55    0.06
   2  10  -1    0.60    0.06
   2 -10  -1    0.49    0.06
  -2 -10   1    0.68    0.06
   1 -10  -1    0.03    0.04
   1 -10  -1   -0.01    0.04
  -1 -10   1    0.01    0.04
   1  10  -1    0.06    0.05
  -1 -10   1    0.04    0.04
   0 -10   1    0.12    0.05
   0 -10   1    0.07    0.05
   0 -10  -1    0.07    0.04
   0 -10  -1    0.09    0.04
   0  10  -1    0.10    0.05
  -1 -10  -1    0.04    0.05
  -1 -10  -1    0.06    0.03
   1 -10   1    0.02    0.04
   1 -10   1    0.01    0.05
  -1  10  -1    0.05    0.05
  -2 -10  -1    0.16    0.04
  -2  10  -1    0.17    0.05
   2 -10   1    0.18    0.05
  -2 -10  -1    0.12    0.04
   2 -10   1    0.24    0.05
  -3  10  -1    0.04    0.05
   3 -10   1    0.03    0.04
  -3 -10  -1    0.01    0.04
  -3 -10  -1    0.02    0.04
   3 -10   1    0.03    0.04
  -4  10  -1    0.31    0.05
  -4 -10  -1    0.30    0.05
  -5  10  -1    0.19    0.05
  -6  10  -1    0.07    0.03
 -17   0   2    0.02    0.04
  17   0  -2    0.01    0.05
 -17   0   2    0.05    0.04
 -16   0   2    1.40    0.07
  16   0  -2    1.52    0.08
 -16   0   2    1.44    0.07
 -15   0   2    0.48    0.05
 -15   0   2    0.46    0.05
 -14   0   2    2.15    0.08
 -14   0   2    2.17    0.08
 -13   0   2    2.03    0.07
 -13   0   2    2.15    0.07
 -13   0   2    2.16    0.06
 -12   0   2    0.15    0.04
 -12   0   2    0.21    0.03
 -11   0   2   -0.01    0.03
 -11   0   2    0.00    0.02
 -10   0   2   18.87    0.17
 -10   0   2   18.69    0.15
  -9   0   2   30.65    0.20
   9   0  -2   30.89    0.14
  -9   0   2   30.34    0.18
  -8   0   2    4.47    0.07
   8   0  -2    4.58    0.05
  -8   0   2    4.27    0.04
  -8   0   2    4.64    0.07
  -7   0   2    1.98    0.04
  -7   0   2    1.94    0.05
   7   0  -2    2.06    0.04
  -7   0   2    1.94    0.02
   6   0  -2    0.42    0.03
  -6   0   2    0.42    0.02
   6   0  -2    0.42    0.02
  -6   0   2    0.42    0.03
  -5   0   2   10.74    0.08
   5   0  -2   10.93    0.08
   5   0  -2   10.77    0.09
  -5   0   2   10.67    0.09
  -4   0   2   12.00    0.08
  -4   0   2   11.31    0.08
   4   0  -2   11.99    0.08
   4   0  -2   12.16    0.08
  -3   0   2    1.78    0.03
   3   0  -2    1.91    0.03
   3   0  -2    1.76    0.03
  -3   0   2    1.80    0.03
  -2   0   2   48.05    0.12
   2   0  -2   48.67    0.14
   2   0  -2   48.27    0.15
   2   0  -2   48.07    0.15
  -2   0   2   49.04    0.15
   1   0  -2   45.44    0.13
   1   0  -2   45.50    0.11
   1   0  -2   45.41    0.14
  -1   0   2   46.30    0.13
   1   0  -2   44.46    0.14
   0   0   2   72.66    0.56
   0   0  -2   73.01    0.17
   0   0  -2   73.10    0.16
   0   0  -2   73.00    0.17
   0   0  -2   72.81    0.16
  -1   0  -2    0.28    0.02
  -1   0  -2    0.32    0.02
   1   0   2    0.32    0.01
  -1   0  -2    0.28    0.02
  -1   0  -2    0.32    0.02
  -2   0  -2 1134.00    2.81
  -2   0  -2 1134.80    2.77
  -2   0  -2 1134.95    2.25
  -3   0  -2    1.47    0.03
  -3   0  -2    1.47    0.03
  -3   0  -2    1.47    0.02
  -3   0  -2    1.47    0.02
  -3   0  -2    1.47    0.03
  -4   0  -2    0.51    0.03
  -4   0  -2    0.46    0.01
  -4   0  -2    0.44    0.02
  -4   0  -2    0.41    0.03
  -4   0  -2    0.46    0.02
  -5   0  -2   12.83    0.11
  -5   0  -2   12.68    0.09
  -5   0  -2   12.52    0.10
  -6   0  -2    8.08    0.09
  -6   0  -2    8.27    0.09
  -6   0  -2    8.28    0.08
  -7   0  -2    0.00    0.02
  -7   0  -2    0.00    0.02
  -7   0  -2    0.01    0.02
  -8   0  -2    0.01    0.03
  -8   0  -2    0.00    0.02
  -8   0  -2    0.01    0.02
  -9   0  -2    0.00    0.02
  -9   0  -2    0.00    0.03
  -9   0  -2    0.00    0.03
 -10   0  -2    0.25    0.03
 -10   0  -2    0.26    0.03
 -10   0  -2    0.23    0.03
 -11   0  -2    0.80    0.05
 -11   0  -2    0.84    0.05
 -11   0  -2    0.78    0.04
 -12   0  -2    2.91    0.08
 -12   0  -2    2.89    0.08
 -12   0  -2    2.82    0.07
 -13   0  -2    1.67    0.06
 -13   0  -2    1.61    0.07
 -13   0  -2    1.67    0.06
 -14   0  -2    1.25    0.06
 -14   0  -2    1.33    0.06
 -15   0  -2    0.02    0.04
 -16   0  -2    0.21    0.04
 -18  -1   2    0.02    0.04
  17  -1  -2   -0.03    0.04
 -17   1   2    0.00    0.04
 -17  -1   2    0.00    0.04
 -17  -1   2   -0.01    0.05
 -17   1   2    0.01    0.04
 -16   1   2    0.01    0.04
  16  -1  -2    0.02    0.04
 -16   1   2    0.01    0.04
 -16  -1   2    0.01    0.04
 -16  -1   2    0.01    0.04
 -15  -1   2    0.40    0.05
 -15   1   2    0.49    0.05
 -15  -1   2    0.50    0.05
  15  -1  -2    0.48    0.05
 -15   1   2    0.47    0.05
  14  -1  -2    1.39    0.07
 -14  -1   2    1.34    0.06
 -14  -1   2    1.48    0.06
 -14   1   2    1.24    0.06
 -14   1   2    1.42    0.07
 -13   1   2    0.02    0.03
 -13   1   2    0.02    0.03
 -13  -1   2    0.03    0.04
 -13  -1   2    0.02    0.03
 -13   1   2    0.02    0.04
  13  -1  -2    0.02    0.04
 -12  -1   2    2.83    0.08
 -12   1   2    2.89    0.07
 -12   1   2    2.88    0.08
  12  -1  -2    2.95    0.08
 -12  -1   2    2.86    0.07
 -12   1   2    3.03    0.08
 -11   1   2    2.95    0.06
 -11  -1   2    2.99    0.07
  11  -1  -2    3.01    0.08
 -11  -1   2    2.82    0.07
 -11   1   2    3.11    0.08
 -10   1   2    5.15    0.08
  10  -1  -2    5.44    0.09
 -10  -1   2    5.41    0.08
 -10   1   2    5.32    0.09
 -10  -1   2    5.07    0.09
   9  -1  -2    0.05    0.03
  -9  -1   2    0.04    0.02
  -9   1   2    0.08    0.03
   9  -1  -2    0.06    0.01
  -9  -1   2    0.05    0.02
  -9   1   2    0.06    0.02
   9   1  -2    0.05    0.01
  -8  -1   2    4.70    0.08
   8  -1  -2    4.89    0.08
  -8  -1   2    5.02    0.05
   8   1  -2    4.82    0.06
  -8   1   2    4.95    0.08
   8  -1  -2    5.10    0.06
  -8   1   2    4.80    0.07
  -8  -1   2    4.88    0.07
   7   1  -2   19.62    0.12
   7  -1  -2   19.62    0.15
   7  -1  -2   19.63    0.12
  -7  -1   2   19.62    0.10
  -7  -1   2   19.63    0.15
  -7   1   2   19.62    0.14
  -7   1   2   19.63    0.15
  -6  -1   2    9.02    0.06
   6  -1  -2    9.07    0.09
  -6   1   2    8.91    0.09
   6   1  -2    9.13    0.08
   6  -1  -2    9.22    0.07
  -6  -1   2    8.84    0.09
  -6   1   2    9.19    0.09
  -5  -1   2   11.28    0.06
  -5   1   2   11.27    0.09
   5  -1  -2   11.51    0.08
  -5  -1   2   11.20    0.09
   5  -1  -2   10.68    0.09
  -5   1   2   11.22    0.09
   5   1  -2   11.24    0.08
  -4  -1   2    6.73    0.07
  -4  -1   2    6.70    0.05
   4   1  -2    6.41    0.06
   4   1  -2    6.80    0.06
  -4   1   2    6.51    0.06
   4  -1  -2    6.77    0.06
  -4   1   2    6.66    0.06
   4  -1  -2    6.45    0.07
   3   1  -2    0.19    0.02
  -3   1   2    0.24    0.02
  -3  -1   2    0.25    0.02
  -3   1   2    0.21    0.02
   3   1  -2    0.22    0.01
   3  -1  -2    0.23    0.02
   3  -1  -2    0.21    0.02
   3   1  -2    0.19    0.02
   2   1  -2    4.15    0.04
  -2  -1   2    4.19    0.04
  -2   1   2    4.12    0.05
   2   1  -2    4.16    0.05
   2  -1  -2    4.10    0.05
  -2   1   2    4.16    0.04
   1   1  -2   73.08    0.19
   1   1  -2   72.74    0.19
  -1  -1   2   73.78    0.15
   1  -1  -2   72.43    0.19
   1  -1  -2   72.95    0.15
   1  -1  -2   72.75    0.19
  -1   1   2   73.66    0.17
   1  -1  -2   73.62    0.16
   0  -1   2   74.92    0.57
   0  -1  -2   73.45    0.17
   0   1   2   73.92    0.16
   0   1  -2   73.53    0.19
   0  -1  -2   72.87    0.19
   0   1  -2   73.12    0.18
   0  -1  -2   72.30    0.19
   0  -1  -2   74.20    0.16
   0   1  -2   73.24    0.18
  -1   1  -2    0.11    0.01
  -1  -1  -2    0.08    0.01
  -1  -1  -2    0.06    0.01
   1   1   2    0.09    0.01
  -1   1  -2    0.12    0.01
  -1  -1  -2    0.06    0.02
  -1  -1  -2    0.06    0.02
   1  -1   2    0.11    0.01
  -1   1  -2    0.12    0.01
  -1   1  -2    0.12    0.02
   2   1   2    4.45    0.03
  -2  -1  -2    4.35    0.03
  -2  -1  -2    4.29    0.04
  -2   1  -2    4.25    0.04
  -2  -1  -2    4.36    0.05
  -2   1  -2    4.24    0.05
  -2   1  -2    4.24    0.04
   2  -1   2    4.38    0.04
  -2  -1  -2    4.20    0.05
  -2   1  -2    4.39    0.04
  -2  -1  -2    4.29    0.04
  -2   1  -2    4.22    0.03
  -2   1  -2    3.97    0.05
  -3  -1  -2   20.44    0.09
  -3  -1  -2   20.24    0.12
  -3   1  -2   20.12    0.06
  -3  -1  -2   20.75    0.12
  -3   1  -2   20.36    0.12
  -3   1  -2   19.97    0.12
  -3   1  -2   19.90    0.09
  -3  -1  -2   20.10    0.10
   3   1   2   20.77    0.07
  -3   1  -2   19.94    0.09
  -3  -1  -2   19.99    0.09
  -4  -1  -2    4.48    0.05
  -4  -1  -2    4.42    0.06
  -4   1  -2    4.60    0.04
  -4   1  -2    4.55    0.06
  -4  -1  -2    3.86    0.06
   4   1   2    4.46    0.03
  -4  -1  -2    4.46    0.04
  -4   1  -2    4.59    0.06
  -4   1  -2    4.59    0.05
  -4  -1  -2    4.59    0.05
  -4   1  -2    4.59    0.03
  -5  -1  -2   13.91    0.09
  -5   1  -2   13.52    0.05
  -5  -1  -2   13.07    0.11
  -5   1  -2   13.84    0.06
  -5   1  -2   13.63    0.11
  -5  -1  -2   13.75    0.10
  -5  -1  -2   14.04    0.11
  -5   1  -2   13.41    0.09
  -5   1  -2   13.18    0.11
  -6  -1  -2    0.39    0.02
  -6   1  -2    0.43    0.03
  -6  -1  -2    0.36    0.02
  -6  -1  -2    0.37    0.03
  -6   1  -2    0.40    0.02
  -6   1  -2    0.25    0.01
  -6  -1  -2    0.37    0.03
  -6   1  -2    0.37    0.03
  -7  -1  -2    0.73    0.03
  -7  -1  -2    0.78    0.03
  -7   1  -2    0.77    0.04
  -7   1  -2    0.74    0.04
  -7  -1  -2    0.75    0.04
  -7   1  -2    0.77    0.03
  -8  -1  -2    0.64    0.03
  -8   1  -2    0.63    0.04
  -8  -1  -2    0.63    0.04
  -8  -1  -2    0.63    0.04
  -8   1  -2    0.63    0.04
  -8   1  -2    0.63    0.03
  -9  -1  -2    0.99    0.04
  -9   1  -2    1.00    0.05
  -9   1  -2    1.04    0.04
  -9  -1  -2    1.09    0.05
  -9   1  -2    1.08    0.04
  -9  -1  -2    1.04    0.04
 -10  -1  -2    1.92    0.06
 -10   1  -2    2.03    0.06
 -10   1  -2    1.92    0.06
 -10  -1  -2    1.91    0.06
 -10  -1  -2    1.85    0.06
 -10   1  -2    1.88    0.06
 -11  -1  -2    2.27    0.07
 -11   1  -2    2.25    0.07
 -11   1  -2    2.22    0.07
 -11  -1  -2    2.11    0.06
 -11   1  -2    2.34    0.06
 -11  -1  -2    2.19    0.06
 -12   1  -2    0.03    0.03
 -12  -1  -2    0.04    0.03
 -12   1  -2    0.02    0.03
 -12  -1  -2    0.02    0.03
 -12  -1  -2    0.03    0.03
 -12   1  -2    0.04    0.03
 -13   1  -2   -0.01    0.03
 -13   1  -2    0.00    0.04
 -13   1  -2    0.02    0.03
 -13  -1  -2    0.00    0.03
 -13  -1  -2    0.01    0.03
 -13  -1  -2    0.03    0.04
 -14   1  -2    0.77    0.05
 -14  -1  -2    0.83    0.06
 -14   1  -2    0.81    0.06
 -14  -1  -2    0.80    0.05
 -14  -1  -2    0.82    0.05
 -15   1  -2    1.02    0.06
 -15  -1  -2    1.05    0.06
 -15   1  -2    0.98    0.06
 -16   1  -2    0.16    0.04
 -16  -1  -2    0.20    0.05
 -17  -1  -2    0.02    0.04
 -18  -2   2    0.13    0.04
 -17   2   2    0.01    0.05
 -17  -2   2    0.03    0.04
 -17  -2   2    0.00    0.04
  17  -2  -2    0.03    0.04
 -17   2   2    0.02    0.04
 -16   2   2    0.00    0.04
 -16   2   2    0.05    0.05
 -16  -2   2    0.01    0.04
  16  -2  -2    0.04    0.04
 -16  -2   2    0.02    0.04
  15  -2  -2   -0.01    0.04
 -15  -2   2   -0.01    0.04
 -15  -2   2    0.03    0.04
 -15   2   2    0.01    0.04
 -15   2   2    0.02    0.04
  14  -2  -2    0.38    0.05
 -14   2   2    0.36    0.05
 -14  -2   2    0.39    0.05
 -14   2   2    0.40    0.05
 -13   2   2    5.79    0.12
 -13   2   2    5.71    0.10
 -13  -2   2    6.03    0.10
 -13  -2   2    5.36    0.11
 -13   2   2    5.79    0.11
  13  -2  -2    5.90    0.12
  12  -2  -2    0.08    0.04
 -12   2   2    0.06    0.03
 -12   2   2    0.08    0.04
 -12   2   2    0.09    0.03
 -12  -2   2    0.07    0.04
 -12  -2   2    0.07    0.03
 -11  -2   2    0.66    0.05
  11  -2  -2    0.78    0.05
 -11   2   2    0.76    0.05
 -11   2   2    0.74    0.05
 -11   2   2    0.72    0.04
 -10  -2   2    0.66    0.04
  10  -2  -2    0.67    0.04
 -10   2   2    0.67    0.04
 -10   2   2    0.64    0.04
 -10   2   2    0.66    0.04
  -9   2   2    0.17    0.02
  -9  -2   2    0.17    0.02
  -9  -2   2    0.17    0.03
   9  -2  -2    0.17    0.03
  -9   2   2    0.17    0.03
   9  -2  -2    0.17    0.02
   9   2  -2    0.17    0.02
   8  -2  -2    4.69    0.08
  -8  -2   2    4.99    0.06
  -8  -2   2    4.81    0.08
  -8   2   2    4.79    0.07
   8  -2  -2    4.94    0.06
  -8   2   2    4.95    0.08
   8   2  -2    4.94    0.06
   7  -2  -2    1.23    0.04
  -7   2   2    1.24    0.04
  -7  -2   2    1.25    0.03
  -7  -2   2    1.28    0.04
   7   2  -2    1.25    0.04
   7  -2  -2    1.24    0.03
  -7   2   2    1.19    0.04
   6  -2  -2    7.63    0.09
  -6  -2   2    7.66    0.09
   6  -2  -2    7.63    0.08
  -6  -2   2    7.67    0.07
  -6   2   2    7.66    0.09
  -6   2   2    7.63    0.09
   6   2  -2    7.64    0.08
  -5   2   2    1.74    0.04
   5  -2  -2    1.83    0.04
  -5  -2   2    1.72    0.03
   5   2  -2    1.74    0.04
  -5   2   2    1.82    0.04
  -5  -2   2    1.78    0.04
   5  -2  -2    1.74    0.04
  -4   2   2    8.99    0.08
  -4  -2   2    9.11    0.08
  -4   2   2    8.70    0.08
   4  -2  -2    9.03    0.08
   4  -2  -2    9.02    0.08
   4   2  -2    9.09    0.08
   4  -2  -2    9.02    0.06
  -3  -2   2    0.70    0.03
   3  -2  -2    0.74    0.02
   3   2  -2    0.77    0.03
   3   2  -2    0.70    0.03
   3  -2  -2    0.80    0.03
   3  -2  -2    0.72    0.03
  -3   2   2    0.75    0.03
  -3   2   2    0.79    0.03
  -2  -2   2   28.94    0.13
   2  -2  -2   28.26    0.11
   2  -2  -2   29.11    0.12
   2   2  -2   28.57    0.14
   2   2  -2   28.70    0.14
  -2   2   2   29.22    0.13
   2   2  -2   28.64    0.13
   2  -2  -2   28.54    0.14
  -2   2   2   29.14    0.12
   2  -2  -2   28.79    0.14
  -1  -2   2   25.92    0.12
   1  -2  -2   24.71    0.11
  -1   2   2   25.92    0.11
   1  -2  -2   25.29    0.13
   1  -2  -2   25.20    0.11
   1  -2  -2   25.33    0.13
   1   2  -2   24.98    0.12
   1   2  -2   24.60    0.12
   1   2  -2   25.45    0.12
  -1   2   2   25.43    0.12
   0  -2  -2    0.96    0.02
   0  -2  -2    0.96    0.03
   0  -2   2    0.93    0.03
   0   2  -2    0.94    0.03
   0  -2  -2    0.94    0.02
   0  -2  -2    0.92    0.03
   0  -2  -2    0.93    0.03
   0   2  -2    0.88    0.03
   0   2  -2    0.92    0.03
   0   2   2    0.96    0.03
  -1   2  -2    6.02    0.06
   1   2   2    6.08    0.05
  -1  -2  -2    5.91    0.06
  -1   2  -2    5.94    0.06
  -1  -2  -2    5.94    0.06
  -1  -2  -2    6.13    0.04
  -1  -2  -2    5.92    0.05
  -1  -2  -2    5.97    0.06
  -1   2  -2    5.79    0.05
   1  -2   2    6.19    0.06
  -2   2  -2    0.10    0.02
  -2  -2  -2    0.10    0.01
   2  -2   2    0.10    0.02
  -2  -2  -2    0.10    0.02
  -2  -2  -2    0.10    0.02
   2   2   2    0.10    0.01
  -2  -2  -2    0.10    0.01
  -2   2  -2    0.10    0.02
  -2   2  -2    0.10    0.02
  -2   2  -2    0.10    0.01
  -3   2  -2    3.19    0.05
   3   2   2    3.24    0.04
  -3  -2  -2    2.84    0.05
   3  -2   2    3.27    0.05
  -3  -2  -2    3.10    0.05
  -3   2  -2    3.16    0.04
  -3  -2  -2    3.22    0.04
  -3   2  -2    3.15    0.05
  -3   2  -2    3.11    0.04
  -3  -2  -2    3.25    0.04
  -4  -2  -2    0.01    0.01
   4  -2   2    0.00    0.02
  -4  -2  -2    0.00    0.01
  -4   2  -2    0.00    0.02
  -4  -2  -2    0.05    0.02
  -4   2  -2   -0.01    0.01
  -4   2  -2    0.00    0.01
  -4   2  -2    0.01    0.01
  -4  -2  -2    0.00    0.02
  -4   2  -2    0.00    0.02
   4   2   2    0.00    0.01
  -5  -2  -2    9.03    0.08
  -5  -2  -2    8.94    0.08
  -5   2  -2    9.20    0.06
  -5  -2  -2    8.51    0.09
  -5   2  -2    8.93    0.10
  -5   2  -2    9.00    0.07
  -5  -2  -2    9.06    0.10
  -5   2  -2    8.97    0.09
   5   2   2    9.05    0.06
  -5   2  -2    8.72    0.10
  -6  -2  -2    9.25    0.09
  -6   2  -2    9.28    0.10
  -6  -2  -2    9.10    0.08
  -6  -2  -2    9.29    0.10
  -6   2  -2    9.32    0.06
  -6   2  -2    9.47    0.10
   6   2   2    9.33    0.07
  -6   2  -2    9.46    0.07
  -6  -2  -2    9.26    0.10
  -6   2  -2    9.39    0.09
  -7   2  -2    0.02    0.03
  -7   2  -2    0.01    0.03
  -7  -2  -2    0.03    0.03
  -7  -2  -2    0.03    0.02
  -7   2  -2    0.03    0.02
  -7  -2  -2    0.02    0.02
  -7  -2  -2    0.02    0.02
  -8  -2  -2    2.40    0.05
  -8  -2  -2    2.39    0.05
  -8   2  -2    2.33    0.06
  -8   2  -2    2.35    0.06
  -8  -2  -2    2.34    0.06
  -8   2  -2    2.31    0.06
  -9   2  -2    0.02    0.03
  -9  -2  -2    0.05    0.03
  -9   2  -2    0.03    0.03
  -9  -2  -2    0.04    0.02
  -9   2  -2    0.03    0.02
  -9  -2  -2    0.01    0.02
 -10   2  -2    0.23    0.03
 -10   2  -2    0.22    0.04
 -10  -2  -2    0.17    0.03
 -10  -2  -2    0.23    0.03
 -10   2  -2    0.24    0.03
 -10  -2  -2    0.24    0.03
 -11   2  -2    0.27    0.03
 -11   2  -2    0.29    0.04
 -11  -2  -2    0.30    0.04
 -11   2  -2    0.30    0.03
 -11  -2  -2    0.28    0.03
 -11  -2  -2    0.27    0.03
 -12  -2  -2    0.03    0.03
 -12   2  -2    0.03    0.03
 -12  -2  -2    0.03    0.03
 -12   2  -2    0.03    0.03
 -12  -2  -2    0.05    0.03
 -12   2  -2    0.02    0.03
 -13  -2  -2    0.26    0.04
 -13   2  -2    0.26    0.05
 -13  -2  -2    0.23    0.04
 -13   2  -2    0.24    0.04
 -13  -2  -2    0.21    0.04
 -13   2  -2    0.23    0.04
 -14   2  -2    0.00    0.04
 -14  -2  -2    0.04    0.04
 -14   2  -2   -0.01    0.04
 -14  -2  -2    0.02    0.04
 -14  -2  -2    0.02    0.03
 -15   2  -2    0.09    0.05
 -15   2  -2    0.06    0.05
 -16   2  -2   -0.01    0.05
 -17   3   2    0.00    0.04
 -17  -3   2   -0.01    0.03
 -17   3   2    0.03    0.04
  17  -3  -2   -0.01    0.04
 -17  -3   2    0.02    0.04
 -16  -3   2    0.76    0.06
 -16   3   2    0.82    0.06
 -16   3   2    0.74    0.06
 -16  -3   2    0.83    0.06
  16  -3  -2    0.74    0.06
 -15  -3   2    0.01    0.04
  15  -3  -2    0.01    0.04
 -15   3   2    0.02    0.04
 -15  -3   2    0.00    0.04
 -15   3   2    0.02    0.04
  14  -3  -2   -0.01    0.04
 -14   3   2   -0.01    0.04
 -14   3   2    0.03    0.04
 -14  -3   2    0.01    0.03
 -13   3   2    0.01    0.04
 -13   3   2    0.02    0.03
 -13   3   2    0.00    0.04
  13  -3  -2    0.00    0.04
 -13  -3   2    0.04    0.03
 -12  -3   2    5.98    0.11
  12  -3  -2    6.32    0.11
 -12   3   2    6.31    0.11
 -12   3   2    6.41    0.12
 -12   3   2    6.18    0.10
 -11   3   2    0.43    0.04
 -11  -3   2    0.39    0.04
 -11   3   2    0.41    0.03
  11  -3  -2    0.41    0.04
 -11   3   2    0.44    0.04
 -10  -3   2    0.40    0.04
 -10   3   2    0.43    0.03
  10  -3  -2    0.39    0.04
 -10   3   2    0.42    0.04
 -10   3   2    0.44    0.04
   9  -3  -2    2.06    0.06
  -9  -3   2    1.98    0.06
  -9  -3   2    2.05    0.05
   9   3  -2    2.09    0.05
  -9   3   2    2.14    0.06
  -9   3   2    2.06    0.06
  -9   3   2    2.08    0.06
   8   3  -2    0.06    0.02
  -8   3   2    0.06    0.02
  -8   3   2    0.08    0.03
  -8  -3   2    0.07    0.02
  -8   3   2    0.06    0.02
  -8  -3   2    0.07    0.03
   8  -3  -2    0.07    0.03
  -7  -3   2    0.57    0.03
   7  -3  -2    0.54    0.03
   7   3  -2    0.58    0.03
  -7   3   2    0.62    0.03
  -7  -3   2    0.58    0.03
  -7   3   2    0.55    0.03
  -6  -3   2    2.44    0.06
  -6   3   2    2.23    0.05
  -6  -3   2    2.40    0.05
   6  -3  -2    2.31    0.05
   6   3  -2    2.41    0.05
  -6   3   2    2.42    0.06
  -5  -3   2    9.26    0.10
   5   3  -2    9.33    0.09
  -5  -3   2    9.25    0.09
  -5   3   2    8.91    0.09
  -5   3   2    9.49    0.10
   5  -3  -2    9.19    0.10
  -4  -3   2    6.42    0.08
   4  -3  -2    6.44    0.08
   4   3  -2    6.47    0.08
  -4   3   2    6.40    0.08
   4  -3  -2    6.30    0.08
   4   3  -2    6.53    0.08
   4  -3  -2    6.22    0.06
  -4   3   2    6.20    0.08
   3   3  -2    0.90    0.03
  -3  -3   2    0.92    0.03
   3  -3  -2    0.97    0.03
   3  -3  -2    1.01    0.03
  -3   3   2    0.97    0.03
   3   3  -2    0.94    0.03
  -3   3   2    0.94    0.03
   3  -3  -2    0.99    0.03
   3   3  -2    0.97    0.03
  -2  -3   2   16.99    0.12
  -2   3   2   16.53    0.11
   2  -3  -2   16.52    0.10
   2   3  -2   17.01    0.12
   2  -3  -2   16.82    0.11
   2   3  -2   17.16    0.11
   2   3  -2   17.22    0.12
   2  -3  -2   16.81    0.12
  -2   3   2   16.98    0.12
   1   3  -2   27.08    0.14
  -1  -3   2   28.50    0.15
   1  -3  -2   28.09    0.14
   1  -3  -2   28.36    0.15
   1  -3  -2   27.79    0.14
  -1   3   2   27.89    0.14
   1   3  -2   27.08    0.15
   1   3  -2   27.79    0.15
   0   3   2    0.03    0.02
   0   3  -2    0.01    0.02
   0   3  -2    0.00    0.02
   0   3  -2    0.02    0.02
   0  -3  -2    0.01    0.01
   0  -3  -2    0.00    0.02
   0  -3  -2    0.02    0.02
   0  -3   2    0.01    0.02
  -1  -3  -2   10.03    0.09
  -1   3  -2   10.00    0.09
  -1   3  -2    9.72    0.08
   1  -3   2   10.27    0.09
  -1  -3  -2   10.21    0.09
  -1  -3  -2    9.92    0.08
  -1   3  -2    9.92    0.09
   1   3   2   10.24    0.08
  -2  -3  -2    0.43    0.02
   2   3   2    0.46    0.02
  -2  -3  -2    0.40    0.03
   2  -3   2    0.41    0.02
  -2   3  -2    0.38    0.02
  -2   3  -2    0.40    0.02
  -2  -3  -2    0.43    0.03
  -2   3  -2    0.40    0.03
  -3  -3  -2    2.13    0.04
   3  -3   2    2.23    0.05
  -3  -3  -2    2.20    0.05
  -3  -3  -2    2.20    0.05
  -3   3  -2    2.23    0.04
  -3   3  -2    2.22    0.04
   3   3   2    2.26    0.04
  -3   3  -2    2.28    0.05
  -3  -3  -2    2.21    0.03
  -4   3  -2    0.65    0.03
  -4   3  -2    0.61    0.03
  -4  -3  -2    0.63    0.03
   4   3   2    0.60    0.03
   4  -3   2    0.62    0.03
  -4  -3  -2    0.65    0.02
  -4  -3  -2    0.65    0.03
  -4   3  -2    0.72    0.03
  -4  -3  -2    0.64    0.03
  -4   3  -2    0.62    0.03
  -5   3  -2   17.94    0.14
  -5  -3  -2   18.07    0.14
  -5  -3  -2   17.70    0.10
  -5  -3  -2   18.15    0.13
   5  -3   2   17.66    0.14
  -5  -3  -2   18.22    0.15
   5   3   2   17.62    0.11
  -5   3  -2   18.03    0.11
  -5   3  -2   17.97    0.13
  -5   3  -2   18.07    0.11
  -6   3  -2    2.27    0.05
  -6   3  -2    2.21    0.04
  -6  -3  -2    2.29    0.05
  -6  -3  -2    2.17    0.04
  -6   3  -2    2.26    0.06
   6  -3   2    2.17    0.06
  -6  -3  -2    2.33    0.06
   6   3   2    2.35    0.04
  -6   3  -2    2.18    0.04
  -6  -3  -2    2.25    0.06
  -6   3  -2    2.24    0.06
  -7  -3  -2    0.33    0.02
  -7  -3  -2    0.31    0.03
   7  -3   2    0.30    0.03
  -7  -3  -2    0.36    0.03
  -7  -3  -2    0.35    0.03
  -7   3  -2    0.35    0.04
  -7   3  -2    0.34    0.03
  -7   3  -2    0.33    0.03
  -8  -3  -2    0.91    0.03
  -8  -3  -2    0.90    0.04
  -8   3  -2    0.90    0.04
  -8  -3  -2    0.91    0.05
  -8   3  -2    0.98    0.05
  -8   3  -2    0.85    0.04
  -9   3  -2    2.37    0.07
  -9  -3  -2    2.50    0.07
  -9  -3  -2    2.45    0.06
  -9   3  -2    2.48    0.07
  -9   3  -2    2.45    0.07
 -10  -3  -2    0.14    0.04
 -10  -3  -2    0.17    0.03
 -10   3  -2    0.15    0.04
 -10   3  -2    0.15    0.03
 -10   3  -2    0.15    0.03
 -11  -3  -2    0.00    0.03
 -11   3  -2    0.02    0.04
 -11   3  -2   -0.02    0.03
 -11   3  -2    0.01    0.03
 -11  -3  -2    0.01    0.03
 -12   3  -2    0.05    0.04
 -12  -3  -2    0.03    0.03
 -12   3  -2    0.02    0.03
 -12  -3  -2    0.02    0.03
 -12   3  -2    0.04    0.03
 -13  -3  -2    0.57    0.05
 -13   3  -2    0.56    0.05
 -13   3  -2    0.70    0.06
 -13  -3  -2    0.59    0.05
 -14   3  -2   -0.01    0.04
 -14   3  -2    0.00    0.04
 -14  -3  -2    0.02    0.04
 -15   3  -2    0.02    0.05
 -15   3  -2    0.01    0.03
  16  -4  -2    0.07    0.04
 -16   4   2    0.06    0.04
 -16   4   2    0.05    0.04
 -16  -4   2    0.07    0.05
  15  -4  -2    0.06    0.04
 -15   4   2    0.04    0.05
 -15   4   2    0.09    0.04
 -15  -4   2    0.02    0.04
  14  -4  -2    0.15    0.05
 -14   4   2    0.18    0.04
 -14   4   2    0.19    0.05
 -14  -4   2    0.18    0.05
 -13   4   2    0.22    0.04
 -13   4   2    0.21    0.04
 -13   4   2    0.23    0.04
 -13  -4   2    0.13    0.04
  13  -4  -2    0.22    0.04
  12  -4  -2    0.46    0.05
 -12  -4   2    0.37    0.05
 -12   4   2    0.48    0.04
 -12   4   2    0.42    0.04
 -12   4   2    0.41    0.05
 -11   4   2    5.24    0.11
 -11   4   2    5.38    0.10
 -11   4   2    5.12    0.10
 -11  -4   2    5.17    0.11
  11  -4  -2    5.40    0.10
 -10  -4   2    5.60    0.10
 -10   4   2    5.85    0.10
 -10   4   2    5.79    0.10
 -10   4   2    5.81    0.11
 -10  -4   2    5.24    0.08
  10  -4  -2    5.91    0.11
   9  -4  -2    0.30    0.04
  -9  -4   2    0.33    0.04
  -9   4   2    0.28    0.03
  -9   4   2    0.27    0.04
  -9  -4   2    0.31    0.03
   9   4  -2    0.34    0.03
  -9   4   2    0.26    0.03
  -8   4   2    0.13    0.03
  -8  -4   2    0.15    0.02
   8   4  -2    0.16    0.03
  -8   4   2    0.13    0.03
   8  -4  -2    0.13    0.03
  -8  -4   2    0.15    0.03
  -8   4   2    0.13    0.03
  -7   4   2    7.49    0.09
  -7   4   2    7.33    0.10
   7   4  -2    7.66    0.10
  -7   4   2    7.65    0.11
   7  -4  -2    7.61    0.10
  -7  -4   2    7.46    0.09
  -7  -4   2    7.50    0.11
  -6  -4   2    0.40    0.03
  -6   4   2    0.39    0.03
   6  -4  -2    0.37    0.03
   6  -4  -2    0.36    0.03
  -6  -4   2    0.37    0.03
   6   4  -2    0.45    0.03
  -6   4   2    0.40    0.03
  -6   4   2    0.40    0.03
   5   4  -2    3.81    0.07
  -5  -4   2    3.87    0.07
  -5   4   2    3.90    0.06
   5  -4  -2    3.84    0.07
  -5   4   2    4.02    0.07
  -5  -4   2    3.80    0.07
   5  -4  -2    3.98    0.07
   5   4  -2    3.88    0.07
  -5   4   2    3.96    0.07
   4   4  -2    2.54    0.05
  -4  -4   2    2.50    0.06
  -4   4   2    2.52    0.04
   4  -4  -2    2.38    0.05
  -4   4   2    2.46    0.06
   4  -4  -2    2.57    0.05
   4   4  -2    2.58    0.06
  -4   4   2    2.50    0.06
   4  -4  -2    2.46    0.05
   4   4  -2    2.60    0.06
  -3   4   2   15.45    0.13
   3   4  -2   15.37    0.11
  -3  -4   2   15.24    0.13
  -3   4   2   15.23    0.09
   3  -4  -2   15.32    0.13
   3  -4  -2   15.35    0.12
   3   4  -2   14.70    0.13
   3  -4  -2   15.34    0.11
  -3   4   2   15.07    0.12
   3   4  -2   15.32    0.13
   2  -4  -2    0.00    0.02
  -2   4   2    0.01    0.02
   2   4  -2    0.00    0.02
   2  -4  -2    0.00    0.02
   2  -4  -2   -0.01    0.02
  -2   4   2    0.01    0.01
   2   4  -2    0.04    0.02
  -2  -4   2   -0.01    0.02
   2   4  -2    0.02    0.02
   1  -4  -2    0.03    0.02
   1  -4  -2    0.01    0.02
  -1  -4   2    0.00    0.02
  -1   4   2    0.01    0.02
   1   4  -2    0.00    0.02
   1  -4  -2    0.07    0.02
   1   4  -2    0.02    0.02
   1   4  -2    0.01    0.02
   0  -4  -2   23.41    0.15
   0  -4   2   23.10    0.15
   0  -4  -2   23.19    0.14
   0   4  -2   23.41    0.13
   0   4  -2   22.76    0.15
   0   4  -2   22.77    0.15
   0  -4  -2   22.89    0.15
   0   4   2   23.50    0.15
  -1   4  -2    0.26    0.02
  -1   4  -2    0.30    0.03
   1  -4   2    0.23    0.03
   1   4   2    0.29    0.03
  -1  -4  -2    0.28    0.02
  -1  -4  -2    0.28    0.03
  -1  -4  -2    0.29    0.03
  -1   4  -2    0.26    0.03
  -2  -4  -2   29.25    0.16
  -2   4  -2   29.90    0.16
   2  -4   2   29.76    0.18
  -2  -4  -2   29.21    0.17
   2   4   2   30.40    0.17
  -2   4  -2   28.65    0.17
  -2   4  -2   28.92    0.16
  -2  -4  -2   29.87    0.18
  -3  -4  -2    0.79    0.03
  -3   4  -2    0.92    0.04
   3  -4   2    0.80    0.04
  -3  -4  -2    0.85    0.04
  -3   4  -2    0.88    0.04
   3   4   2    0.84    0.03
  -3  -4  -2    0.81    0.04
  -3   4  -2    0.92    0.03
  -4   4  -2    7.28    0.09
  -4  -4  -2    7.23    0.10
  -4  -4  -2    7.08    0.09
   4  -4   2    7.26    0.09
   4   4   2    7.30    0.08
  -4   4  -2    7.12    0.08
  -4  -4  -2    7.45    0.09
  -4   4  -2    7.26    0.08
  -5   4  -2    0.08    0.02
  -5  -4  -2    0.07    0.03
  -5   4  -2    0.06    0.02
  -5   4  -2    0.07    0.03
  -5  -4  -2    0.07    0.03
   5  -4   2    0.05    0.02
  -5  -4  -2    0.06    0.02
   5   4   2    0.07    0.02
  -5   4  -2    0.06    0.02
  -6   4  -2    0.45    0.04
  -6  -4  -2    0.46    0.04
   6  -4   2    0.43    0.03
   6   4   2    0.45    0.03
  -6  -4  -2    0.42    0.04
  -6   4  -2    0.40    0.03
  -6   4  -2    0.44    0.03
  -6   4  -2    0.42    0.03
  -6  -4  -2    0.41    0.03
  -7  -4  -2    4.02    0.08
  -7  -4  -2    3.98    0.08
   7  -4   2    4.04    0.08
  -7  -4  -2    4.10    0.08
  -7   4  -2    3.84    0.08
  -7   4  -2    3.99    0.08
   8  -4   2    0.24    0.03
  -8  -4  -2    0.26    0.03
  -8   4  -2    0.28    0.04
  -8  -4  -2    0.29    0.04
  -8   4  -2    0.26    0.03
  -8  -4  -2    0.26    0.04
   9  -4   2    0.00    0.03
  -9   4  -2   -0.01    0.03
  -9   4  -2    0.01    0.03
  -9  -4  -2   -0.01    0.03
  -9  -4  -2   -0.02    0.03
 -10   4  -2    0.01    0.03
  10  -4   2   -0.01    0.03
 -10   4  -2    0.00    0.03
 -10  -4  -2    0.00    0.03
 -10  -4  -2   -0.01    0.03
 -11   4  -2    1.11    0.06
  11  -4   2    1.14    0.06
 -11  -4  -2    1.15    0.05
 -11  -4  -2    1.18    0.06
 -11   4  -2    1.12    0.06
 -12  -4  -2    0.32    0.04
 -12   4  -2    0.30    0.05
  12  -4   2    0.35    0.05
 -12  -4  -2    0.35    0.05
 -12   4  -2    0.32    0.04
 -13   4  -2    0.69    0.06
  13  -4   2    0.59    0.05
 -13  -4  -2    0.66    0.05
 -13   4  -2    0.59    0.06
 -14   4  -2    1.06    0.07
  14  -4   2    1.08    0.07
 -14   4  -2    1.05    0.07
 -14  -4  -2    0.99    0.06
  15  -4   2    0.35    0.05
 -15   4  -2    0.58    0.05
  16  -5  -2    0.04    0.04
 -15   5   2    0.00    0.04
  15  -5  -2    0.00    0.04
 -15   5   2    0.01    0.04
 -15  -5   2   -0.03    0.05
  14  -5  -2    0.01    0.04
 -14   5   2    0.00    0.04
 -14   5   2    0.04    0.05
 -14  -5   2    0.02    0.04
 -13   5   2    0.06    0.03
  13  -5  -2    0.07    0.04
 -13   5   2    0.05    0.04
 -13   5   2    0.08    0.04
 -13  -5   2    0.08    0.04
 -12   5   2    0.04    0.03
 -12   5   2    0.04    0.03
 -12  -5   2    0.06    0.04
  12  -5  -2    0.04    0.04
 -12   5   2    0.05    0.04
 -11   5   2    0.55    0.05
  11  -5  -2    0.55    0.05
  11  -5  -2    0.55    0.06
 -11   5   2    0.55    0.05
 -11  -5   2    0.55    0.06
 -11   5   2    0.55    0.05
 -10  -5   2    4.81    0.10
 -10   5   2    5.09    0.10
 -10   5   2    4.99    0.11
 -10  -5   2    5.11    0.09
  10  -5  -2    4.80    0.11
 -10   5   2    4.88    0.10
  10  -5  -2    4.79    0.10
   9   5  -2    7.92    0.11
  -9  -5   2    7.61    0.11
   9  -5  -2    7.67    0.13
  -9   5   2    7.74    0.11
  -9   5   2    7.48    0.11
  -9   5   2    7.74    0.12
   9  -5  -2    7.99    0.12
  -9  -5   2    7.60    0.12
   8   5  -2    9.42    0.12
  -8  -5   2    8.96    0.13
  -8   5   2    9.55    0.11
   8  -5  -2    9.14    0.13
  -8  -5   2    9.41    0.12
  -8   5   2    9.02    0.12
  -8   5   2    9.24    0.13
   8  -5  -2    9.08    0.12
  -7   5   2    5.86    0.08
   7  -5  -2    5.85    0.10
  -7  -5   2    5.80    0.09
  -7   5   2    5.68    0.10
   7   5  -2    5.86    0.09
  -7   5   2    5.92    0.10
   7  -5  -2    5.86    0.09
  -7  -5   2    5.92    0.10
  -6   5   2    0.67    0.03
   6  -5  -2    0.67    0.04
  -6  -5   2    0.63    0.04
  -6  -5   2    0.67    0.04
  -6   5   2    0.73    0.04
   6  -5  -2    0.66    0.04
  -6   5   2    0.68    0.04
   6   5  -2    0.72    0.04
   6   5  -2    0.72    0.04
  -5   5   2    0.88    0.04
  -5  -5   2    0.92    0.04
  -5   5   2    0.95    0.03
  -5  -5   2    0.95    0.04
   5  -5  -2    0.86    0.04
   5  -5  -2    0.94    0.04
   5   5  -2    0.89    0.05
  -5   5   2    0.95    0.04
   5   5  -2    0.87    0.04
   4   5  -2    0.15    0.02
  -4  -5   2    0.14    0.03
   4  -5  -2    0.12    0.03
   4  -5  -2    0.16    0.03
   4   5  -2    0.14    0.03
  -4   5   2    0.15    0.03
   4   5  -2    0.14    0.03
   4  -5  -2    0.14    0.02
  -4  -5   2    0.13    0.03
   3   5  -2    3.06    0.05
  -3  -5   2    3.06    0.07
   3  -5  -2    2.91    0.06
  -3   5   2    3.05    0.07
   3  -5  -2    2.99    0.06
   3   5  -2    2.99    0.07
   3  -5  -2    3.06    0.06
   3   5  -2    3.16    0.07
   2   5  -2    1.59    0.04
   2  -5  -2    1.54    0.04
   2  -5  -2    1.58    0.05
   2  -5  -2    1.50    0.04
   2   5  -2    1.54    0.05
  -2   5   2    1.58    0.05
  -2  -5   2    1.51    0.05
   2   5  -2    1.52    0.05
   1   5  -2    0.43    0.03
  -1  -5   2    0.46    0.03
   1  -5  -2    0.46    0.03
   1  -5  -2    0.45    0.03
   1   5  -2    0.42    0.03
  -1   5   2    0.46    0.03
   1  -5  -2    0.47    0.03
   1   5  -2    0.50    0.03
   0   5   2    0.50    0.04
   0  -5  -2    0.50    0.04
   0  -5   2    0.50    0.04
   0  -5  -2    0.50    0.03
   0   5  -2    0.50    0.03
   0   5  -2    0.50    0.04
   0  -5  -2    0.50    0.03
   0   5  -2    0.50    0.03
  -1   5  -2    7.87    0.09
  -1  -5  -2    7.92    0.10
   1  -5   2    8.08    0.10
  -1  -5  -2    8.16    0.10
  -1  -5  -2    8.10    0.10
  -1   5  -2    8.02    0.10
  -1   5  -2    8.20    0.10
   1   5   2    8.13    0.10
  -2   5  -2    0.01    0.02
  -2  -5  -2    0.02    0.02
  -2   5  -2    0.02    0.02
   2   5   2    0.02    0.02
   2  -5   2   -0.01    0.03
  -2  -5  -2    0.01    0.03
  -2   5  -2    0.01    0.02
  -2  -5  -2    0.01    0.02
  -3  -5  -2    7.47    0.10
   3  -5   2    7.45    0.10
  -3  -5  -2    7.67    0.10
  -3   5  -2    7.16    0.10
  -3  -5  -2    7.38    0.11
  -3   5  -2    7.34    0.10
   3   5   2    7.56    0.10
  -3   5  -2    7.38    0.09
  -4   5  -2    0.17    0.03
   4  -5   2    0.20    0.03
  -4   5  -2    0.18    0.03
  -4  -5  -2    0.17    0.03
   4   5   2    0.21    0.03
  -4   5  -2    0.20    0.03
  -4  -5  -2    0.19    0.03
  -4  -5  -2    0.19    0.03
  -5  -5  -2    0.15    0.03
  -5  -5  -2    0.10    0.03
   5   5   2    0.12    0.02
  -5   5  -2    0.19    0.03
  -5   5  -2    0.14    0.03
  -5   5  -2    0.13    0.03
  -5  -5  -2    0.15    0.03
   5  -5   2    0.12    0.03
  -6   5  -2    0.11    0.02
  -6   5  -2    0.12    0.03
  -6  -5  -2    0.14    0.03
   6   5   2    0.13    0.03
  -6   5  -2    0.13    0.03
  -6  -5  -2    0.10    0.03
  -6  -5  -2    0.13    0.03
   6  -5   2    0.13    0.03
  -7  -5  -2    1.83    0.06
  -7   5  -2    1.93    0.06
  -7   5  -2    1.85    0.06
  -7  -5  -2    1.82    0.06
   7  -5   2    1.79    0.06
  -7  -5  -2    1.85    0.07
   8  -5   2    0.07    0.04
  -8  -5  -2    0.06    0.03
  -8   5  -2    0.08    0.03
  -8   5  -2    0.11    0.03
  -8  -5  -2    0.10    0.03
  -8  -5  -2    0.08    0.03
   9  -5   2    0.03    0.04
  -9   5  -2    0.01    0.04
  -9   5  -2    0.01    0.03
  -9  -5  -2    0.05    0.04
  -9  -5  -2    0.02    0.03
 -10  -5  -2    0.73    0.05
  10  -5   2    0.60    0.05
 -10  -5  -2    0.70    0.05
 -10   5  -2    0.63    0.05
 -10   5  -2    0.63    0.05
 -11  -5  -2    2.43    0.08
  11  -5   2    2.51    0.09
 -11  -5  -2    2.36    0.08
 -11   5  -2    2.42    0.08
 -11   5  -2    2.41    0.08
 -12  -5  -2    1.07    0.06
 -12   5  -2    1.16    0.07
 -12   5  -2    1.12    0.07
  12  -5   2    1.07    0.07
 -12  -5  -2    0.99    0.06
 -13   5  -2    0.90    0.07
 -13   5  -2    0.85    0.06
 -13  -5  -2    0.86    0.06
  13  -5   2    0.81    0.06
 -14   5  -2    0.35    0.05
 -14  -5  -2    0.31    0.05
 -14   5  -2    0.32    0.05
  14  -5   2    0.39    0.05
 -15   5  -2    0.06    0.04
  15  -6  -2    0.08    0.04
 -15   6   2    0.15    0.04
 -14  -6   2    0.06    0.04
  14  -6  -2    0.06    0.04
 -14   6   2    0.04    0.04
  14  -6  -2    0.05    0.04
 -14   6   2    0.07    0.04
 -13   6   2    1.12    0.07
 -13   6   2    1.05    0.06
 -13  -6   2    1.05    0.07
 -13   6   2    1.15    0.06
  13  -6  -2    1.05    0.07
  13  -6  -2    1.15    0.06
  12  -6  -2    0.00    0.04
  12  -6  -2    0.01    0.03
 -12   6   2    0.02    0.03
 -12   6   2    0.00    0.04
 -12  -6   2    0.03    0.04
 -12   6   2    0.06    0.04
  11  -6  -2    0.04    0.04
  11  -6  -2    0.06    0.04
 -11  -6   2    0.07    0.04
 -11   6   2    0.02    0.04
 -11   6   2    0.07    0.04
  10  -6  -2    0.01    0.03
  10  -6  -2    0.03    0.04
 -10   6   2    0.01    0.04
 -10  -6   2    0.03    0.04
 -10  -6   2   -0.01    0.03
 -10   6   2    0.00    0.04
   9  -6  -2    0.17    0.04
  -9   6   2    0.19    0.04
   9  -6  -2    0.18    0.03
  -9  -6   2    0.22    0.04
  -9   6   2    0.20    0.04
  -9  -6   2    0.21    0.04
   9   6  -2    0.23    0.03
   8  -6  -2   -0.01    0.03
  -8   6   2   -0.01    0.03
  -8   6   2    0.00    0.03
  -8  -6   2    0.00    0.03
   8   6  -2    0.00    0.03
  -8  -6   2    0.00    0.03
   8  -6  -2    0.01    0.03
   7   6  -2    0.04    0.03
  -7   6   2    0.00    0.04
   7   6  -2    0.03    0.03
  -7   6   2    0.04    0.03
  -7  -6   2    0.03    0.03
  -7  -6   2    0.03    0.04
   7  -6  -2    0.03    0.03
   7  -6  -2    0.03    0.04
  -6  -6   2    7.27    0.12
  -6   6   2    7.15    0.11
  -6   6   2    7.27    0.12
   6  -6  -2    7.16    0.12
   6   6  -2    7.36    0.12
  -6  -6   2    7.53    0.11
   6   6  -2    7.36    0.11
   6  -6  -2    7.39    0.11
   5   6  -2    2.46    0.07
  -5  -6   2    2.48    0.07
   5   6  -2    2.49    0.07
   5  -6  -2    2.62    0.07
  -5  -6   2    2.55    0.07
   5  -6  -2    2.49    0.06
   5  -6  -2    2.65    0.06
  -5   6   2    2.52    0.07
   4   6  -2    0.10    0.04
   4  -6  -2    0.07    0.03
  -4   6   2    0.09    0.03
  -4  -6   2    0.08    0.03
   4  -6  -2    0.05    0.03
   4   6  -2    0.10    0.04
   4  -6  -2    0.10    0.03
  -4  -6   2    0.09    0.04
   3  -6  -2    0.85    0.04
  -3  -6   2    0.83    0.05
   3  -6  -2    0.81    0.05
  -3   6   2    0.81    0.05
   3   6  -2    0.94    0.05
   3  -6  -2    0.81    0.04
   3   6  -2    0.79    0.05
   2  -6  -2   15.37    0.15
  -2   6   2   15.88    0.16
   2   6  -2   15.50    0.16
  -2  -6   2   15.64    0.16
   2  -6  -2   16.22    0.14
   2  -6  -2   15.83    0.15
   2   6  -2   16.36    0.16
  -1  -6   2    8.32    0.12
   1  -6  -2    8.54    0.11
   1   6  -2    8.32    0.12
  -1   6   2    8.44    0.12
   1  -6  -2    8.35    0.11
   1   6  -2    8.30    0.12
   1  -6  -2    8.42    0.10
   0  -6   2    2.12    0.06
   0  -6  -2    2.10    0.06
   0  -6  -2    2.02    0.06
   0   6   2    2.16    0.06
   0  -6  -2    2.16    0.06
   0   6  -2    2.02    0.06
   0   6  -2    2.16    0.07
  -1  -6  -2    0.01    0.03
  -1   6  -2    0.00    0.02
  -1   6  -2    0.01    0.03
  -1   6  -2    0.01    0.03
   1   6   2    0.01    0.03
   1  -6   2    0.01    0.03
  -1  -6  -2    0.01    0.03
  -1  -6  -2    0.03    0.03
  -2   6  -2    0.24    0.03
  -2  -6  -2    0.25    0.03
   2  -6   2    0.29    0.04
  -2  -6  -2    0.25    0.03
  -2   6  -2    0.23    0.03
  -2  -6  -2    0.29    0.04
  -2   6  -2    0.27    0.03
   2   6   2    0.23    0.03
  -3  -6  -2    0.48    0.04
  -3   6  -2    0.51    0.04
   3  -6   2    0.52    0.04
  -3  -6  -2    0.53    0.04
   3   6   2    0.48    0.04
  -3   6  -2    0.46    0.03
  -3   6  -2    0.54    0.04
  -3  -6  -2    0.43    0.04
  -4  -6  -2    3.45    0.08
  -4  -6  -2    3.54    0.08
   4  -6   2    3.34    0.08
  -4   6  -2    3.38    0.08
  -4  -6  -2    3.74    0.08
  -4   6  -2    3.58    0.08
   4   6   2    3.72    0.08
  -4   6  -2    3.46    0.07
   5  -6   2    2.18    0.07
  -5  -6  -2    2.22    0.07
   5   6   2    2.22    0.06
  -5  -6  -2    2.31    0.06
  -5   6  -2    2.12    0.06
  -5  -6  -2    2.20    0.07
  -5   6  -2    2.12    0.06
  -5   6  -2    2.13    0.06
  -6   6  -2    5.04    0.09
  -6  -6  -2    5.04    0.10
  -6  -6  -2    5.17    0.10
   6  -6   2    4.92    0.10
   6   6   2    5.24    0.09
  -6   6  -2    5.30    0.09
  -6   6  -2    5.27    0.09
  -6  -6  -2    5.15    0.11
   7  -6   2    0.05    0.04
  -7  -6  -2    0.05    0.03
  -7   6  -2    0.01    0.02
  -7  -6  -2    0.07    0.03
  -7  -6  -2    0.03    0.04
  -7   6  -2    0.06    0.03
  -8  -6  -2    0.58    0.05
   8  -6   2    0.44    0.05
  -8  -6  -2    0.44    0.05
  -8  -6  -2    0.55    0.05
  -8   6  -2    0.49    0.05
   9  -6   2    0.20    0.04
  -9  -6  -2    0.23    0.04
  -9   6  -2    0.19    0.04
  -9   6  -2    0.19    0.04
  -9  -6  -2    0.23    0.04
 -10   6  -2    2.04    0.08
  10  -6   2    1.97    0.08
 -10  -6  -2    2.05    0.08
 -10   6  -2    1.92    0.08
 -10  -6  -2    2.03    0.07
  11  -6   2    0.00    0.04
 -11  -6  -2    0.00    0.04
 -11   6  -2    0.01    0.04
 -11   6  -2    0.01    0.04
 -11  -6  -2    0.00    0.04
  12  -6   2    0.03    0.04
 -12   6  -2   -0.01    0.04
 -12   6  -2    0.05    0.04
 -12  -6  -2    0.01    0.03
 -13   6  -2    0.02    0.04
 -13   6  -2    0.02    0.04
  13  -6   2    0.02    0.03
 -13  -6  -2    0.01    0.04
 -13  -7   2    0.28    0.05
  12  -7  -2    0.54    0.06
 -12   7   2    0.50    0.05
 -12   7   2    0.57    0.06
 -12  -7   2    0.57    0.06
 -11  -7   2    0.02    0.04
  11  -7  -2    0.03    0.04
 -11   7   2    0.02    0.04
 -11   7   2    0.04    0.04
  10  -7  -2    0.18    0.05
 -10  -7   2    0.19    0.03
 -10   7   2    0.18    0.05
 -10  -7   2    0.19    0.04
 -10   7   2    0.22    0.04
  -9   7   2   -0.01    0.04
   9  -7  -2    0.01    0.04
  -9  -7   2    0.03    0.04
  -9  -7   2    0.01    0.03
   9   7  -2   -0.01    0.03
  -9   7   2    0.03    0.04
  -8  -7   2    0.02    0.04
   8  -7  -2    0.02    0.04
  -8   7   2    0.00    0.03
   8   7  -2    0.03    0.04
   8   7  -2    0.03    0.03
  -8  -7   2    0.00    0.03
   7  -7  -2    0.05    0.04
  -7  -7   2    0.06    0.03
   7   7  -2    0.07    0.04
   7   7  -2    0.01    0.04
  -7   7   2    0.06    0.03
  -7  -7   2    0.08    0.03
   6   7  -2    0.08    0.04
   6  -7  -2    0.09    0.04
   6   7  -2    0.11    0.04
  -6   7   2    0.08    0.04
  -6  -7   2    0.10    0.03
  -6  -7   2    0.08    0.04
   6  -7  -2    0.10    0.03
  -5  -7   2    8.64    0.13
  -5  -7   2    8.91    0.13
   5  -7  -2    8.82    0.14
  -5   7   2    8.46    0.13
   5   7  -2    8.68    0.14
   5   7  -2    8.82    0.13
   5  -7  -2    8.93    0.13
  -4  -7   2    4.46    0.10
  -4  -7   2    4.60    0.10
   4  -7  -2    4.44    0.10
   4   7  -2    4.59    0.10
  -4   7   2    4.19    0.09
   4   7  -2    4.52    0.10
   4  -7  -2    4.55    0.09
  -3  -7   2    4.73    0.10
   3   7  -2    4.80    0.10
   3  -7  -2    4.54    0.10
  -3   7   2    4.81    0.10
   3  -7  -2    4.62    0.09
  -3  -7   2    4.74    0.10
   3   7  -2    4.81    0.10
  -2   7   2    0.39    0.04
   2  -7  -2    0.41    0.04
  -2  -7   2    0.40    0.04
   2  -7  -2    0.40    0.05
   2  -7  -2    0.30    0.03
   2   7  -2    0.43    0.04
   2   7  -2    0.42    0.04
   1   7  -2    0.02    0.04
   1   7  -2    0.03    0.03
  -1   7   2    0.01    0.03
   1  -7  -2    0.02    0.03
  -1  -7   2    0.03    0.04
   1  -7  -2    0.01    0.02
   1  -7  -2    0.01    0.03
   0  -7   2    3.29    0.08
   0  -7  -2    3.23    0.08
   0   7  -2    3.17    0.08
   0   7   2    3.23    0.08
   0  -7  -2    3.27    0.08
   0   7  -2    3.27    0.08
  -1   7  -2    0.05    0.04
  -1   7  -2    0.06    0.03
   1   7   2    0.06    0.03
  -1  -7  -2    0.06    0.02
  -1  -7  -2    0.06    0.03
   1  -7   2    0.06    0.03
  -1  -7  -2    0.06    0.03
  -2   7  -2    0.01    0.03
  -2   7  -2    0.04    0.03
   2  -7   2   -0.01    0.03
  -2  -7  -2    0.00    0.03
   2   7   2    0.03    0.03
  -2  -7  -2    0.04    0.03
  -2  -7  -2    0.02    0.03
  -3   7  -2    0.05    0.03
   3  -7   2    0.03    0.04
  -3   7  -2    0.03    0.03
  -3  -7  -2    0.01    0.04
  -3  -7  -2    0.04    0.03
   3   7   2    0.04    0.03
  -3  -7  -2    0.00    0.03
  -4  -7  -2    3.33    0.08
  -4  -7  -2    3.52    0.08
  -4  -7  -2    3.46    0.09
   4   7   2    3.48    0.08
  -4   7  -2    3.37    0.08
  -4   7  -2    3.38    0.08
   4  -7   2    3.40    0.09
  -5   7  -2    0.01    0.03
   5  -7   2   -0.02    0.04
  -5  -7  -2    0.00    0.03
  -5   7  -2    0.01    0.03
  -5  -7  -2    0.02    0.03
  -5  -7  -2   -0.01    0.04
   5   7   2    0.01    0.03
  -6  -7  -2    1.76    0.07
  -6  -7  -2    1.84    0.07
  -6   7  -2    1.80    0.07
   6  -7   2    1.77    0.07
  -6  -7  -2    1.82    0.07
   6   7   2    1.75    0.06
  -6   7  -2    1.80    0.06
  -7  -7  -2    6.16    0.12
  -7  -7  -2    6.20    0.11
   7  -7   2    5.88    0.12
  -7  -7  -2    5.94    0.12
   8  -7   2    0.32    0.05
  -8  -7  -2    0.32    0.04
  -8  -7  -2    0.32    0.04
  -8  -7  -2    0.30    0.04
  -8   7  -2    0.29    0.04
  -9   7  -2    1.39    0.07
  -9  -7  -2    1.35    0.07
   9  -7   2    1.33    0.07
  -9  -7  -2    1.35    0.07
  10  -7   2    0.01    0.04
 -10  -7  -2    0.07    0.04
 -10   7  -2   -0.01    0.04
 -10  -7  -2    0.03    0.04
 -11   7  -2    0.00    0.04
  11  -7   2    0.02    0.05
 -11  -7  -2    0.02    0.04
  12  -7   2    0.04    0.05
 -12   7  -2    0.02    0.04
 -11  -8   2    0.18    0.05
  11  -8  -2    0.11    0.04
  10  -8  -2    0.13    0.05
 -10   8   2    0.15    0.04
 -10  -8   2    0.18    0.05
 -10  -8   2    0.18    0.04
   9  -8  -2    0.87    0.07
  -9   8   2    0.84    0.06
  -9  -8   2    0.83    0.05
   9   8  -2    0.90    0.06
  -9  -8   2    0.89    0.06
  -8  -8   2    0.08    0.04
   8   8  -2    0.06    0.04
  -8   8   2    0.08    0.04
   8  -8  -2    0.10    0.05
  -8  -8   2    0.06    0.03
   8   8  -2    0.06    0.04
   7  -8  -2    0.08    0.04
  -7   8   2    0.06    0.04
   7   8  -2    0.08    0.04
  -7  -8   2    0.07    0.03
  -7  -8   2    0.10    0.04
   7   8  -2    0.06    0.04
   6   8  -2    0.04    0.04
   6  -8  -2    0.07    0.04
   6   8  -2    0.05    0.04
  -6   8   2    0.05    0.04
  -6  -8   2    0.11    0.04
  -6  -8   2    0.08    0.04
   6  -8  -2    0.07    0.03
  -5  -8   2    1.55    0.07
  -5   8   2    1.49    0.07
   5  -8  -2    1.54    0.07
   5   8  -2    1.52    0.07
  -5  -8   2    1.52    0.07
   5  -8  -2    1.52    0.06
   5   8  -2    1.60    0.07
   4  -8  -2    0.24    0.04
   4   8  -2    0.23    0.04
  -4   8   2    0.27    0.04
   4   8  -2    0.23    0.04
   4  -8  -2    0.26    0.04
  -4  -8   2    0.20    0.04
  -4  -8   2    0.20    0.04
  -3  -8   2    2.09    0.08
   3  -8  -2    1.91    0.07
  -3   8   2    2.11    0.08
   3   8  -2    2.10    0.08
  -3  -8   2    2.07    0.08
   3   8  -2    2.07    0.08
   3  -8  -2    2.01    0.07
   2   8  -2    2.03    0.08
  -2  -8   2    2.13    0.08
   2  -8  -2    2.08    0.07
  -2   8   2    2.09    0.07
  -2  -8   2    2.08    0.08
   2   8  -2    2.13    0.07
   2  -8  -2    2.06    0.07
   1   8  -2    0.12    0.04
  -1   8   2    0.10    0.03
   1   8  -2    0.12    0.04
   1  -8  -2    0.11    0.04
  -1  -8   2    0.11    0.04
   1  -8  -2    0.07    0.04
   0   8  -2    0.08    0.04
   0  -8  -2    0.05    0.03
   0   8  -2    0.07    0.03
   0   8   2    0.07    0.04
   0  -8   2    0.08    0.04
   0  -8  -2    0.09    0.04
  -1   8  -2    0.06    0.03
   1   8   2    0.01    0.04
  -1   8  -2    0.03    0.04
  -1  -8  -2    0.04    0.03
  -1  -8  -2    0.03    0.04
   1  -8   2    0.04    0.04
   2  -8   2    0.10    0.04
  -2   8  -2    0.10    0.04
  -2   8  -2    0.11    0.03
   2   8   2    0.10    0.03
  -2  -8  -2    0.11    0.04
  -2  -8  -2    0.12    0.04
  -3   8  -2    0.04    0.04
   3   8   2    0.03    0.04
  -3   8  -2    0.04    0.03
  -3  -8  -2    0.04    0.04
  -3  -8  -2    0.09    0.04
   3  -8   2    0.02    0.04
  -4   8  -2    0.03    0.03
  -4   8  -2    0.03    0.04
   4  -8   2    0.03    0.04
   4   8   2    0.01    0.03
  -4  -8  -2    0.05    0.04
  -4  -8  -2    0.04    0.04
   5  -8   2    0.06    0.04
  -5  -8  -2    0.06    0.04
  -5   8  -2    0.08    0.04
  -5   8  -2    0.05    0.04
   5   8   2    0.04    0.03
  -5  -8  -2    0.03    0.04
  -6  -8  -2    0.59    0.06
  -6   8  -2    0.65    0.05
   6  -8   2    0.71    0.06
   6   8   2    0.61    0.05
  -6   8  -2    0.63    0.05
  -6  -8  -2    0.70    0.05
   7  -8   2    0.37    0.05
  -7  -8  -2    0.35    0.05
  -7  -8  -2    0.30    0.04
   8  -8   2    0.11    0.04
  -8  -8  -2    0.08    0.04
  -8  -8  -2    0.06    0.04
  -9  -8  -2    0.58    0.05
   9  -8   2    0.55    0.05
  -9  -8  -2    0.49    0.05
  10  -8   2    0.07    0.04
  -9  -9   2    0.38    0.05
   9   9  -2    0.26    0.04
   8  -9  -2    0.02    0.04
  -8  -9   2    0.02    0.04
  -8  -9   2    0.06    0.04
   8   9  -2    0.04    0.04
   7   9  -2    0.08    0.04
   7  -9  -2    0.01    0.04
  -7  -9   2    0.05    0.04
  -7  -9   2    0.04    0.04
   6   9  -2    0.00    0.04
   6  -9  -2    0.00    0.04
   6   9  -2    0.03    0.03
  -6   9   2    0.02    0.03
  -6  -9   2    0.01    0.04
  -6  -9   2    0.02    0.04
  -5  -9   2    0.43    0.05
  -5   9   2    0.45    0.05
   5  -9  -2    0.48    0.06
   5   9  -2    0.52    0.06
  -5  -9   2    0.50    0.05
   5  -9  -2    0.54    0.06
   5   9  -2    0.51    0.05
   4   9  -2    0.07    0.04
   4  -9  -2    0.10    0.04
   4   9  -2    0.02    0.04
  -4  -9   2    0.07    0.04
   4  -9  -2    0.05    0.04
  -4  -9   2    0.07    0.05
  -4   9   2    0.05    0.03
  -3  -9   2    0.48    0.06
  -3   9   2    0.46    0.05
   3  -9  -2    0.47    0.05
   3   9  -2    0.43    0.05
   3  -9  -2    0.46    0.05
  -3  -9   2    0.47    0.05
   3   9  -2    0.58    0.05
  -2  -9   2    0.12    0.04
  -2   9   2    0.12    0.04
   2   9  -2    0.10    0.04
   2   9  -2    0.11    0.04
   2  -9  -2    0.15    0.04
  -2  -9   2    0.12    0.04
   2  -9  -2    0.15    0.04
   1   9  -2    0.10    0.04
  -1   9   2    0.07    0.04
   1   9  -2    0.09    0.04
  -1  -9   2    0.07    0.04
   1  -9  -2    0.06    0.04
  -1  -9   2    0.06    0.04
   1  -9  -2    0.05    0.04
   0   9  -2    0.11    0.04
   0  -9  -2    0.17    0.04
   0   9  -2    0.10    0.04
   0   9   2    0.17    0.05
   0  -9   2    0.16    0.04
   0  -9  -2    0.17    0.04
  -1   9  -2   -0.01    0.04
   1   9   2    0.00    0.04
   1  -9   2    0.00    0.04
  -1   9  -2    0.00    0.03
  -1  -9  -2    0.01    0.03
  -1  -9  -2    0.00    0.04
  -2   9  -2    0.05    0.04
   2  -9   2    0.07    0.05
  -2   9  -2    0.09    0.04
  -2  -9  -2    0.08    0.04
   2   9   2    0.05    0.03
  -2  -9  -2    0.09    0.04
  -3   9  -2    0.10    0.04
  -3  -9  -2    0.09    0.04
   3   9   2    0.09    0.04
  -3   9  -2    0.10    0.04
  -3  -9  -2    0.07    0.04
   3  -9   2    0.10    0.05
  -4   9  -2    0.03    0.04
  -4   9  -2    0.04    0.04
  -4  -9  -2    0.08    0.04
   4   9   2    0.05    0.04
  -4  -9  -2    0.02    0.04
   4  -9   2    0.04    0.04
  -5   9  -2    0.04    0.03
  -5   9  -2    0.03    0.03
  -5  -9  -2    0.07    0.04
   5   9   2    0.07    0.03
  -5  -9  -2    0.08    0.04
   5  -9   2    0.05    0.04
  -6  -9  -2    0.07    0.04
   6  -9   2    0.07    0.04
  -6  -9  -2    0.06    0.04
  -6   9  -2    0.09    0.04
   7  -9   2    0.16    0.05
  -7  -9  -2    0.07    0.03
  -8  -9  -2    0.15    0.04
   4 -10  -2    0.01    0.03
   4 -10  -2    0.04    0.04
   3 -10  -2    0.06    0.04
   3 -10  -2    0.00    0.04
   2  10  -2    0.37    0.05
  -2 -10   2    0.38    0.05
   2 -10  -2    0.37    0.05
   2 -10  -2    0.43    0.05
  -2 -10   2    0.39    0.04
  -1 -10   2    0.48    0.06
   1 -10  -2    0.60    0.06
   1 -10  -2    0.56    0.05
  -1 -10   2    0.48    0.06
   1  10  -2    0.56    0.05
   0 -10   2    0.81    0.07
   0 -10  -2    0.73    0.06
   0 -10  -2    0.86    0.06
   0 -10   2    0.80    0.06
   0  10  -2    0.84    0.07
  -1 -10  -2    0.63    0.06
   1 -10   2    0.58    0.06
  -1 -10  -2    0.64    0.06
  -1  10  -2    0.73    0.06
  -2  10  -2    0.00    0.04
  -2 -10  -2    0.04    0.04
  -2 -10  -2    0.01    0.04
  -3 -10  -2    1.15    0.07
  -3  10  -2    1.11    0.07
  -4 -10  -2    0.65    0.06
  -4  10  -2    0.69    0.06
  -5  10  -2    0.08    0.03
 -17   0   3    0.02    0.04
 -17   0   3   -0.02    0.04
  17   0  -3    0.01    0.05
 -16   0   3   -0.04    0.04
 -16   0   3    0.01    0.04
  16   0  -3   -0.01    0.04
 -15   0   3    0.02    0.04
  15   0  -3    0.00    0.04
 -15   0   3    0.00    0.03
  14   0  -3    0.00    0.04
 -14   0   3    0.00    0.04
 -14   0   3    0.00    0.03
  13   0  -3    0.01    0.03
 -13   0   3    0.02    0.04
 -13   0   3    0.00    0.03
 -12   0   3   -0.01    0.03
 -12   0   3    0.00    0.03
  12   0  -3    0.01    0.03
 -11   0   3    0.00    0.03
  11   0  -3    0.01    0.03
 -11   0   3   -0.01    0.03
 -10   0   3    0.00    0.03
  10   0  -3   -0.01    0.03
 -10   0   3    0.00    0.02
  10   0  -3    0.00    0.02
   9   0  -3    0.00    0.02
   9   0  -3    0.03    0.03
  -9   0   3    0.01    0.02
  -9   0   3    0.04    0.03
   8   0  -3    0.02    0.03
  -8   0   3    0.03    0.02
  -8   0   3    0.03    0.02
   8   0  -3    0.05    0.02
  -7   0   3    0.01    0.02
   7   0  -3    0.00    0.02
  -7   0   3    0.00    0.02
   7   0  -3    0.00    0.02
   6   0  -3    0.02    0.02
  -6   0   3   -0.01    0.02
  -6   0   3    0.02    0.02
   6   0  -3    0.00    0.02
   5   0  -3    0.01    0.02
  -5   0   3    0.00    0.02
   5   0  -3    0.00    0.02
  -5   0   3   -0.01    0.02
   4   0  -3    0.00    0.01
  -4   0   3    0.01    0.01
  -4   0   3    0.01    0.02
   4   0  -3    0.00    0.02
   3   0  -3    0.00    0.02
  -3   0   3    0.01    0.01
  -3   0   3    0.01    0.01
   3   0  -3    0.01    0.02
   3   0  -3    0.02    0.01
   3   0  -3    0.01    0.01
   2   0  -3    0.00    0.02
   2   0  -3    0.00    0.01
   2   0  -3    0.01    0.01
  -2   0   3    0.00    0.01
  -2   0   3    0.00    0.01
   2   0  -3    0.00    0.02
   1   0  -3    0.00    0.01
   1   0  -3    0.00    0.02
   1   0  -3    0.00    0.01
   1   0  -3    0.00    0.02
  -1   0   3    0.01    0.01
   0   0   3    0.00    0.01
   0   0  -3    0.00    0.01
   0   0  -3    0.01    0.01
   0   0  -3    0.00    0.02
   0   0  -3    0.00    0.01
  -1   0  -3    0.02    0.02
  -1   0  -3    0.00    0.02
  -1   0  -3    0.00    0.01
  -1   0  -3    0.00    0.02
   1   0   3    0.00    0.01
  -2   0  -3    0.00    0.02
  -2   0  -3    0.00    0.02
  -2   0  -3    0.00    0.02
   2   0   3    0.01    0.01
  -2   0  -3    0.01    0.01
  -3   0  -3    0.01    0.02
  -3   0  -3    0.01    0.02
  -3   0  -3    0.01    0.02
  -3   0  -3    0.01    0.01
  -3   0  -3    0.00    0.01
  -4   0  -3    0.01    0.02
  -4   0  -3    0.00    0.01
  -4   0  -3    0.01    0.02
  -4   0  -3    0.00    0.02
  -4   0  -3    0.00    0.01
  -5   0  -3    0.01    0.02
  -5   0  -3    0.00    0.01
  -5   0  -3   -0.01    0.03
  -5   0  -3    0.00    0.02
  -5   0  -3    0.00    0.01
  -6   0  -3    0.00    0.02
  -6   0  -3    0.00    0.01
  -6   0  -3    0.00    0.03
  -7   0  -3    0.01    0.01
  -7   0  -3   -0.01    0.03
  -7   0  -3    0.01    0.03
  -8   0  -3    0.01    0.03
  -8   0  -3    0.00    0.02
  -8   0  -3    0.00    0.03
  -9   0  -3   -0.01    0.03
  -9   0  -3    0.00    0.02
  -9   0  -3   -0.01    0.03
 -10   0  -3    0.01    0.03
 -10   0  -3    0.00    0.02
 -10   0  -3    0.01    0.03
 -11   0  -3   -0.01    0.03
 -11   0  -3    0.00    0.03
 -12   0  -3    0.00    0.04
 -12   0  -3    0.00    0.03
 -13   0  -3    0.01    0.04
 -13   0  -3    0.00    0.03
 -14   0  -3    0.02    0.04
 -14   0  -3   -0.01    0.03
 -15   0  -3   -0.01    0.04
 -16   0  -3   -0.04    0.05
  17   1  -3    0.03    0.04
 -17   1   3    0.06    0.04
 -17  -1   3    0.04    0.04
 -17   1   3    0.06    0.04
 -17  -1   3    0.03    0.04
  17  -1  -3    0.07    0.04
 -16  -1   3   -0.01    0.04
 -16   1   3   -0.01    0.04
 -16  -1   3    0.01    0.04
 -16   1   3    0.01    0.04
  16  -1  -3    0.02    0.04
  16   1  -3    0.03    0.04
 -15  -1   3    0.07    0.04
  15   1  -3    0.05    0.04
 -15   1   3    0.03    0.04
 -15   1   3    0.06    0.04
 -15  -1   3    0.05    0.03
 -15   1   3    0.07    0.03
  15  -1  -3    0.04    0.04
 -14  -1   3    1.48    0.06
  14   1  -3    1.44    0.07
  14  -1  -3    1.44    0.07
 -14   1   3    1.43    0.06
 -14   1   3    1.41    0.07
 -14  -1   3    1.37    0.07
  13  -1  -3    0.05    0.04
  13   1  -3    0.08    0.04
 -13   1   3    0.09    0.04
 -13  -1   3    0.06    0.04
 -13   1   3    0.09    0.03
 -13  -1   3    0.06    0.03
 -12   1   3    0.12    0.04
 -12  -1   3    0.09    0.04
 -12  -1   3    0.09    0.03
 -12   1   3    0.10    0.03
  12   1  -3    0.10    0.04
  12  -1  -3    0.10    0.04
 -11   1   3    0.55    0.04
  11   1  -3    0.57    0.04
  11  -1  -3    0.53    0.04
 -11  -1   3    0.57    0.04
 -11  -1   3    0.57    0.04
 -11   1   3    0.59    0.04
 -10  -1   3   17.45    0.16
 -10   1   3   17.87    0.15
  10   1  -3   17.64    0.16
 -10  -1   3   17.96    0.16
  10  -1  -3   17.68    0.16
  10   1  -3   18.45    0.13
 -10   1   3   18.19    0.16
  -9  -1   3    0.68    0.04
   9   1  -3    0.65    0.04
   9  -1  -3    0.65    0.04
   9   1  -3    0.65    0.03
  -9   1   3    0.68    0.04
  -9  -1   3    0.67    0.04
   9  -1  -3    0.66    0.03
  -9   1   3    0.72    0.04
  -8  -1   3    0.42    0.03
   8   1  -3    0.39    0.03
  -8   1   3    0.43    0.03
   8  -1  -3    0.43    0.03
   8  -1  -3    0.44    0.03
   8   1  -3    0.43    0.03
  -8   1   3    0.43    0.03
  -8  -1   3    0.39    0.03
   7  -1  -3   11.68    0.11
  -7  -1   3   11.70    0.11
   7   1  -3   11.62    0.11
   7   1  -3   11.67    0.10
  -7   1   3   11.47    0.11
   7  -1  -3   11.74    0.10
  -7   1   3   11.72    0.11
  -6  -1   3   11.54    0.11
  -6   1   3   11.56    0.11
   6   1  -3   11.58    0.10
  -6  -1   3   11.53    0.06
   6  -1  -3   11.50    0.10
   6   1  -3   11.55    0.10
  -6   1   3   11.53    0.11
   6  -1  -3   11.51    0.11
   5   1  -3    0.01    0.01
   5  -1  -3    0.00    0.02
  -5   1   3    0.00    0.02
  -5  -1   3    0.02    0.02
  -5   1   3    0.00    0.02
   5  -1  -3    0.02    0.02
   5   1  -3    0.01    0.02
   4   1  -3    2.42    0.05
  -4  -1   3    2.54    0.04
   4  -1  -3    2.57    0.05
  -4   1   3    2.50    0.05
   4   1  -3    2.50    0.05
   4  -1  -3    2.45    0.05
  -4   1   3    2.62    0.04
   4   1  -3    2.48    0.04
   3   1  -3    6.25    0.07
  -3   1   3    6.18    0.07
   3   1  -3    6.21    0.07
  -3  -1   3    6.20    0.06
   3  -1  -3    6.20    0.04
   3   1  -3    6.22    0.06
   3  -1  -3    6.14    0.07
   3  -1  -3    6.14    0.07
  -3   1   3    6.14    0.06
   2  -1  -3    1.63    0.03
   2   1  -3    1.65    0.04
   2  -1  -3    1.61    0.03
   2   1  -3    1.60    0.03
  -2   1   3    1.66    0.04
   2   1  -3    1.62    0.04
   2  -1  -3    1.67    0.04
   2  -1  -3    1.62    0.04
  -2   1   3    1.62    0.03
  -2  -1   3    1.69    0.03
   1  -1  -3    2.86    0.04
   1   1  -3    2.92    0.05
  -1  -1   3    2.98    0.03
   1   1  -3    2.97    0.04
   1   1  -3    2.89    0.04
   1  -1  -3    2.89    0.04
   1  -1  -3    2.69    0.05
   1  -1  -3    2.88    0.05
   1   1  -3    2.90    0.05
  -1   1   3    2.91    0.04
   0  -1  -3    5.41    0.06
   0   1  -3    5.64    0.07
   0  -1   3    5.85    0.04
   0   1  -3    5.64    0.06
   0   1  -3    5.65    0.05
   0  -1  -3    5.47    0.06
   0   1   3    5.71    0.05
   0  -1  -3    5.58    0.06
   0   1  -3    5.73    0.06
   0  -1  -3    5.50    0.06
  -1  -1  -3   24.66    0.12
  -1   1  -3   24.49    0.14
   1  -1   3   25.61    0.09
  -1  -1  -3   25.21    0.13
  -1   1  -3   25.19    0.11
  -1   1  -3   24.63    0.13
  -1  -1  -3   23.84    0.13
  -1  -1  -3   24.42    0.13
  -1   1  -3   24.67    0.13
   1   1   3   25.56    0.10
  -2  -1  -3    2.24    0.04
  -2   1  -3    2.22    0.05
  -2   1  -3    2.24    0.04
  -2   1  -3    2.25    0.04
   2  -1   3    2.28    0.03
  -2  -1  -3    2.15    0.04
  -2   1  -3    2.28    0.05
  -2  -1  -3    2.27    0.05
   2   1   3    2.37    0.03
  -2  -1  -3    2.27    0.04
  -3  -1  -3    0.90    0.02
  -3  -1  -3    0.92    0.03
  -3   1  -3    0.86    0.03
  -3  -1  -3    0.89    0.03
   3  -1   3    0.87    0.02
  -3   1  -3    0.88    0.03
  -3  -1  -3    0.89    0.03
   3   1   3    0.91    0.02
  -3  -1  -3    0.89    0.03
  -3   1  -3    0.84    0.03
  -3   1  -3    0.90    0.02
  -3   1  -3    0.88    0.03
  -4  -1  -3    0.60    0.03
  -4   1  -3    0.60    0.03
  -4   1  -3    0.60    0.03
  -4  -1  -3    0.60    0.03
  -4   1  -3    0.60    0.04
  -4  -1  -3    0.60    0.03
  -4  -1  -3    0.60    0.02
  -4   1  -3    0.60    0.02
  -4  -1  -3    0.60    0.02
  -4   1  -3    0.60    0.02
  -5  -1  -3   16.36    0.09
  -5   1  -3   16.60    0.13
  -5  -1  -3   16.73    0.12
  -5  -1  -3   16.63    0.13
  -5   1  -3   16.51    0.14
  -5  -1  -3   16.29    0.14
  -5   1  -3   16.89    0.09
  -5   1  -3   16.90    0.11
  -5  -1  -3   16.90    0.10
  -6  -1  -3    0.40    0.03
  -6  -1  -3    0.42    0.03
  -6   1  -3    0.45    0.03
  -6  -1  -3    0.42    0.03
  -6   1  -3    0.44    0.03
  -6  -1  -3    0.41    0.02
  -6   1  -3    0.41    0.02
  -7  -1  -3   -0.01    0.03
  -7   1  -3    0.04    0.03
  -7   1  -3    0.01    0.03
  -7  -1  -3    0.01    0.02
  -7  -1  -3    0.00    0.02
  -7  -1  -3    0.01    0.03
  -7   1  -3    0.00    0.02
  -8  -1  -3    0.36    0.03
  -8   1  -3    0.39    0.04
  -8   1  -3    0.38    0.04
  -8  -1  -3    0.35    0.03
  -8   1  -3    0.37    0.03
  -8  -1  -3    0.35    0.03
  -9   1  -3    0.03    0.02
  -9  -1  -3    0.03    0.02
  -9   1  -3    0.02    0.03
  -9  -1  -3    0.04    0.03
  -9   1  -3    0.03    0.03
  -9  -1  -3    0.02    0.03
 -10   1  -3    0.97    0.05
 -10  -1  -3    0.98    0.05
 -10   1  -3    0.91    0.05
 -10  -1  -3    0.95    0.05
 -10   1  -3    0.81    0.04
 -11   1  -3    0.60    0.05
 -11  -1  -3    0.56    0.04
 -11   1  -3    0.51    0.04
 -11  -1  -3    0.54    0.04
 -12   1  -3    0.25    0.04
 -12  -1  -3    0.25    0.04
 -12   1  -3    0.26    0.04
 -12  -1  -3    0.23    0.04
 -13   1  -3    0.02    0.04
 -13  -1  -3    0.01    0.04
 -13  -1  -3    0.03    0.03
 -13   1  -3    0.04    0.04
 -14   1  -3    0.22    0.04
 -14  -1  -3    0.26    0.05
 -14   1  -3    0.23    0.04
 -14  -1  -3    0.26    0.05
 -15   1  -3    0.12    0.05
 -15  -1  -3    0.09    0.04
 -15  -1  -3    0.11    0.04
 -16  -1  -3    0.46    0.05
  17   2  -3    0.35    0.06
 -17   2   3    0.35    0.05
 -17  -2   3    0.28    0.05
 -17   2   3    0.28    0.05
 -17  -2   3    0.29    0.05
  17  -2  -3    0.26    0.05
 -16   2   3    0.00    0.04
  16  -2  -3    0.00    0.04
 -16  -2   3    0.03    0.04
 -16   2   3   -0.01    0.04
  16   2  -3    0.01    0.04
 -15   2   3    0.21    0.05
 -15   2   3    0.10    0.04
  15  -2  -3    0.16    0.04
 -15   2   3    0.18    0.03
 -15  -2   3    0.17    0.03
 -15  -2   3    0.20    0.04
 -14  -2   3    0.26    0.05
 -14   2   3    0.16    0.04
 -14  -2   3    0.15    0.03
 -14   2   3    0.16    0.03
 -14   2   3    0.17    0.04
  14  -2  -3    0.17    0.04
 -13  -2   3   11.90    0.16
  13  -2  -3   12.17    0.16
 -13   2   3   12.48    0.16
 -13  -2   3   12.32    0.15
 -13   2   3   12.44    0.15
 -13   2   3   12.10    0.16
 -12  -2   3    0.89    0.05
  12  -2  -3    0.91    0.06
 -12   2   3    0.92    0.05
 -12  -2   3    0.95    0.05
 -12   2   3    0.89    0.06
 -11   2   3    0.03    0.03
  11  -2  -3    0.03    0.03
 -11  -2   3    0.03    0.03
 -11   2   3    0.02    0.03
 -11  -2   3    0.02    0.03
 -10  -2   3    0.86    0.05
  10  -2  -3    0.90    0.05
  10   2  -3    0.91    0.04
 -10   2   3    0.91    0.04
 -10   2   3    0.90    0.05
   9  -2  -3    0.61    0.04
  -9  -2   3    0.62    0.04
   9  -2  -3    0.64    0.03
   9   2  -3    0.64    0.03
  -9   2   3    0.58    0.04
  -9   2   3    0.64    0.04
  -8  -2   3    5.38    0.08
   8   2  -3    5.47    0.08
   8  -2  -3    5.32    0.09
  -8   2   3    5.36    0.08
   8  -2  -3    5.27    0.07
  -8   2   3    5.36    0.08
   7   2  -3    0.61    0.03
  -7   2   3    0.63    0.03
  -7  -2   3    0.55    0.03
  -7   2   3    0.55    0.03
  -7  -2   3    0.56    0.02
   7  -2  -3    0.60    0.04
   7  -2  -3    0.56    0.03
   7   2  -3    0.52    0.03
   6   2  -3   11.86    0.11
   6   2  -3   11.91    0.10
  -6  -2   3   11.62    0.11
  -6   2   3   11.50    0.11
   6  -2  -3   12.18    0.10
  -6  -2   3   11.60    0.08
  -6   2   3   11.83    0.11
   6  -2  -3   11.77    0.11
   5   2  -3    0.94    0.03
   5  -2  -3    0.74    0.02
  -5  -2   3    0.91    0.03
  -5   2   3    0.96    0.04
   5  -2  -3    0.92    0.03
   5   2  -3    0.95    0.03
   5  -2  -3    0.85    0.04
  -5   2   3    0.95    0.03
   4   2  -3   16.19    0.09
   4   2  -3   16.16    0.12
  -4  -2   3   16.13    0.12
   4  -2  -3   16.15    0.08
   4  -2  -3   16.14    0.13
   4   2  -3   16.15    0.13
  -4   2   3   16.11    0.13
  -4   2   3   16.19    0.11
   4  -2  -3   16.10    0.12
   3   2  -3   14.57    0.11
   3  -2  -3   14.85    0.11
  -3  -2   3   14.65    0.10
   3  -2  -3   14.82    0.11
  -3   2   3   14.75    0.11
   3   2  -3   14.66    0.11
  -3   2   3   14.84    0.09
   3  -2  -3   14.77    0.08
   3   2  -3   14.65    0.08
   2  -2  -3    7.76    0.08
   2   2  -3    7.61    0.08
  -2  -2   3    7.85    0.07
   2  -2  -3    7.49    0.06
   2   2  -3    7.56    0.08
   2  -2  -3    7.53    0.06
  -2   2   3    7.71    0.08
   2  -2  -3    7.66    0.08
   2   2  -3    7.94    0.05
  -2   2   3    7.74    0.06
   1  -2  -3    0.23    0.02
   1   2  -3    0.22    0.02
  -1  -2   3    0.21    0.02
  -1   2   3    0.24    0.02
   1  -2  -3    0.20    0.01
   1   2  -3    0.18    0.02
   1   2  -3    0.18    0.01
   1  -2  -3    0.24    0.02
   1  -2  -3    0.19    0.02
   1  -2  -3    0.21    0.02
   0  -2  -3    2.52    0.04
   0   2  -3    2.51    0.05
   0  -2  -3    2.46    0.05
   0  -2  -3    2.50    0.03
   0   2  -3    2.45    0.03
   0  -2   3    2.48    0.04
   0  -2  -3    2.49    0.04
   0  -2  -3    2.39    0.05
   0   2  -3    2.45    0.05
   0   2   3    2.49    0.04
  -1  -2  -3    0.41    0.02
  -1   2  -3    0.22    0.02
  -1  -2  -3    0.26    0.01
  -1   2  -3    0.24    0.01
   1  -2   3    0.25    0.02
  -1   2  -3    0.22    0.02
  -1  -2  -3    0.25    0.02
  -1  -2  -3    0.28    0.02
  -1  -2  -3    0.27    0.02
  -1   2  -3    0.23    0.02
   1   2   3    0.28    0.02
  -1   2  -3    0.29    0.02
  -2   2  -3    1.20    0.04
  -2  -2  -3    1.17    0.02
  -2   2  -3    1.09    0.02
   2  -2   3    1.18    0.03
  -2  -2  -3    1.18    0.03
  -2   2  -3    1.19    0.03
  -2   2  -3    1.12    0.04
  -2  -2  -3    1.18    0.04
   2   2   3    1.20    0.03
  -2  -2  -3    1.24    0.03
  -2  -2  -3    1.17    0.04
  -2   2  -3    1.20    0.03
  -3  -2  -3   12.89    0.10
  -3  -2  -3   12.81    0.08
  -3   2  -3   12.54    0.08
   3  -2   3   12.95    0.09
  -3  -2  -3   12.85    0.11
  -3   2  -3   12.71    0.11
  -3  -2  -3   12.90    0.12
   3   2   3   13.24    0.08
  -3  -2  -3   12.61    0.09
  -3   2  -3   12.99    0.11
  -3   2  -3   12.78    0.09
  -3   2  -3   13.02    0.10
  -4  -2  -3    1.97    0.03
  -4  -2  -3    1.88    0.05
   4  -2   3    1.83    0.04
  -4   2  -3    1.89    0.05
  -4  -2  -3    1.85    0.05
  -4   2  -3    1.91    0.03
   4   2   3    1.88    0.03
  -4   2  -3    1.83    0.05
  -4   2  -3    1.86    0.04
  -4   2  -3    1.90    0.04
  -4  -2  -3    1.93    0.04
  -5  -2  -3    1.69    0.04
  -5   2  -3    1.72    0.05
  -5  -2  -3    1.63    0.05
   5  -2   3    1.74    0.04
  -5   2  -3    1.67    0.05
  -5   2  -3    1.74    0.04
  -5  -2  -3    1.69    0.05
  -5  -2  -3    1.66    0.04
  -5   2  -3    1.69    0.04
  -6  -2  -3    0.01    0.02
  -6   2  -3    0.03    0.03
  -6  -2  -3    0.02    0.03
  -6   2  -3    0.03    0.02
  -6   2  -3    0.03    0.03
  -6  -2  -3    0.01    0.03
  -6  -2  -3    0.03    0.01
  -7  -2  -3    0.23    0.02
  -7   2  -3    0.26    0.03
  -7  -2  -3    0.23    0.02
  -7  -2  -3    0.19    0.03
  -7   2  -3    0.23    0.03
  -7  -2  -3    0.20    0.03
  -7   2  -3    0.23    0.02
  -8  -2  -3    0.40    0.03
  -8   2  -3    0.38    0.04
  -8  -2  -3    0.43    0.03
  -8  -2  -3    0.41    0.04
  -8   2  -3    0.37    0.04
  -8  -2  -3    0.41    0.04
  -8   2  -3    0.46    0.03
  -9   2  -3    0.24    0.03
  -9   2  -3    0.30    0.04
  -9  -2  -3    0.29    0.03
  -9   2  -3    0.32    0.04
  -9  -2  -3    0.27    0.04
  -9  -2  -3    0.21    0.02
 -10   2  -3    0.14    0.04
 -10  -2  -3    0.12    0.03
 -10   2  -3    0.11    0.03
 -10   2  -3    0.13    0.03
 -10  -2  -3    0.13    0.04
 -11   2  -3    0.06    0.04
 -11  -2  -3    0.04    0.03
 -11   2  -3    0.01    0.02
 -11   2  -3    0.03    0.03
 -11  -2  -3    0.03    0.03
 -12   2  -3    0.10    0.04
 -12  -2  -3    0.14    0.03
 -12   2  -3    0.14    0.04
 -12  -2  -3    0.16    0.04
 -13   2  -3    0.02    0.03
 -13   2  -3    0.01    0.04
 -13  -2  -3    0.01    0.03
 -14   2  -3    0.10    0.05
 -14  -2  -3    0.07    0.04
 -14   2  -3    0.10    0.04
 -15   2  -3    0.03    0.04
 -15  -2  -3    0.04    0.04
 -17   3   3    0.12    0.04
 -17  -3   3    0.11    0.04
  16  -3  -3    0.12    0.05
 -16   3   3    0.12    0.04
 -16   3   3    0.12    0.04
 -16  -3   3    0.16    0.05
  15  -3  -3    0.03    0.04
 -15   3   3    0.06    0.05
 -15   3   3    0.04    0.04
 -15  -3   3    0.02    0.04
 -15  -3   3    0.04    0.04
 -15   3   3    0.02    0.03
 -14  -3   3    0.17    0.04
  14  -3  -3    0.18    0.05
 -14   3   3    0.15    0.04
 -14   3   3    0.14    0.04
 -14  -3   3    0.16    0.04
 -14   3   3    0.17    0.04
  13  -3  -3    0.00    0.04
 -13   3   3   -0.01    0.04
 -13   3   3    0.00    0.04
 -13  -3   3    0.00    0.04
 -13   3   3    0.03    0.03
  12  -3  -3    0.35    0.04
 -12  -3   3    0.35    0.04
 -12   3   3    0.35    0.04
 -12   3   3    0.35    0.04
 -12   3   3    0.35    0.04
 -11  -3   3    3.13    0.08
  11  -3  -3    3.17    0.08
 -11   3   3    3.05    0.08
 -11   3   3    3.07    0.08
 -11   3   3    3.15    0.08
 -10   3   3    0.08    0.03
 -10   3   3    0.08    0.03
  10  -3  -3    0.08    0.04
  10   3  -3    0.08    0.03
 -10  -3   3    0.08    0.03
  -9  -3   3    0.30    0.04
  -9   3   3    0.30    0.03
  -9   3   3    0.33    0.03
   9  -3  -3    0.34    0.03
   9   3  -3    0.35    0.03
   9  -3  -3    0.30    0.04
  -8  -3   3    1.67    0.06
   8   3  -3    1.74    0.05
   8  -3  -3    1.83    0.05
  -8   3   3    1.83    0.06
  -8  -3   3    1.81    0.04
  -8   3   3    1.70    0.05
   8  -3  -3    1.76    0.06
  -7  -3   3    2.31    0.06
   7  -3  -3    2.32    0.06
  -7  -3   3    2.38    0.05
  -7   3   3    2.20    0.06
   7  -3  -3    2.44    0.05
   7   3  -3    2.35    0.06
  -7   3   3    2.36    0.06
   6  -3  -3    0.16    0.03
   6   3  -3    0.18    0.02
   6  -3  -3    0.14    0.01
  -6   3   3    0.14    0.02
  -6  -3   3    0.16    0.02
  -6   3   3    0.13    0.02
  -6  -3   3    0.15    0.02
   6  -3  -3    0.16    0.02
   6   3  -3    0.14    0.02
  -5  -3   3    2.35    0.06
   5   3  -3    2.33    0.04
   5  -3  -3    2.33    0.04
  -5   3   3    2.40    0.06
   5  -3  -3    2.40    0.05
   5  -3  -3    2.40    0.06
   5   3  -3    2.44    0.06
  -5   3   3    2.39    0.05
   4   3  -3   12.02    0.11
  -4  -3   3   11.74    0.11
   4  -3  -3   11.60    0.10
   4   3  -3   12.20    0.07
   4  -3  -3   11.80    0.11
   4  -3  -3   11.65    0.08
  -4   3   3   11.57    0.11
   4  -3  -3   11.84    0.11
   4   3  -3   11.80    0.11
  -4   3   3   11.86    0.10
   3  -3  -3    3.42    0.05
   3   3  -3    3.40    0.06
  -3  -3   3    3.45    0.06
   3  -3  -3    3.41    0.06
   3  -3  -3    3.30    0.05
  -3   3   3    3.35    0.06
   3  -3  -3    3.36    0.06
   3   3  -3    3.07    0.06
  -3   3   3    3.44    0.05
   2  -3  -3    0.01    0.01
   2   3  -3    0.01    0.02
   2  -3  -3    0.01    0.01
   2  -3  -3    0.00    0.02
   2   3  -3    0.02    0.02
  -2   3   3    0.03    0.02
  -2  -3   3    0.01    0.02
   2  -3  -3    0.01    0.02
  -2   3   3    0.02    0.02
   2   3  -3    0.02    0.02
   1   3  -3   12.34    0.11
   1   3  -3   13.02    0.11
  -1  -3   3   12.91    0.10
   1  -3  -3   12.52    0.09
   1  -3  -3   12.87    0.10
   1   3  -3   12.62    0.11
   1  -3  -3   12.62    0.11
  -1   3   3   13.18    0.11
   1  -3  -3   12.80    0.11
   0  -3  -3    2.49    0.03
   0   3  -3    2.48    0.05
   0  -3  -3    2.49    0.05
   0  -3   3    2.55    0.05
   0  -3  -3    2.40    0.04
   0   3  -3    2.44    0.05
   0  -3  -3    2.46    0.05
   0   3   3    2.50    0.05
   0  -3  -3    2.59    0.05
   0   3  -3    2.60    0.05
  -1   3  -3    2.73    0.05
  -1  -3  -3    2.75    0.04
   1  -3   3    2.86    0.05
  -1  -3  -3    2.83    0.03
  -1  -3  -3    2.69    0.06
  -1  -3  -3    2.74    0.05
  -1   3  -3    2.82    0.05
   1   3   3    2.87    0.05
  -1   3  -3    2.78    0.05
  -2  -3  -3    7.39    0.05
  -2   3  -3    7.29    0.09
  -2  -3  -3    7.21    0.07
  -2   3  -3    7.27    0.08
   2  -3   3    7.20    0.08
  -2  -3  -3    7.25    0.09
  -2  -3  -3    7.28    0.09
  -2   3  -3    7.23    0.07
   2   3   3    7.31    0.07
  -3  -3  -3    1.27    0.03
  -3   3  -3    1.24    0.04
  -3  -3  -3    1.25    0.03
   3  -3   3    1.26    0.04
  -3  -3  -3    1.22    0.04
  -3  -3  -3    1.34    0.04
  -3   3  -3    1.28    0.03
   3   3   3    1.33    0.03
  -3   3  -3    1.27    0.04
   4  -3   3    0.14    0.02
  -4  -3  -3    0.13    0.01
  -4  -3  -3    0.15    0.03
  -4   3  -3    0.19    0.03
  -4   3  -3    0.13    0.03
  -4  -3  -3    0.13    0.03
  -4   3  -3    0.14    0.02
   4   3   3    0.13    0.02
  -4   3  -3    0.15    0.02
  -4  -3  -3    0.13    0.02
  -5  -3  -3    0.88    0.03
  -5  -3  -3    0.88    0.03
  -5   3  -3    0.85    0.04
  -5  -3  -3    0.88    0.04
  -5   3  -3    0.85    0.03
   5  -3   3    0.84    0.04
  -5   3  -3    0.90    0.04
  -5   3  -3    0.86    0.03
  -5  -3  -3    0.89    0.04
  -5   3  -3    0.94    0.03
  -6  -3  -3    1.52    0.04
  -6  -3  -3    1.45    0.04
  -6   3  -3    1.58    0.06
  -6  -3  -3    1.62    0.06
   6  -3   3    1.55    0.05
  -6   3  -3    1.54    0.05
  -6  -3  -3    1.60    0.06
  -6   3  -3    1.51    0.05
  -7  -3  -3    0.70    0.03
  -7   3  -3    0.73    0.05
  -7  -3  -3    0.72    0.05
   7  -3   3    0.70    0.04
  -7   3  -3    0.72    0.04
  -7  -3  -3    0.66    0.04
  -7   3  -3    0.68    0.04
  -8  -3  -3    0.75    0.04
  -8   3  -3    0.96    0.05
  -8  -3  -3    0.92    0.05
   8  -3   3    0.91    0.04
  -8   3  -3    0.96    0.05
  -8  -3  -3    1.00    0.05
  -8   3  -3    0.99    0.04
  -9   3  -3    0.46    0.05
  -9   3  -3    0.51    0.04
   9  -3   3    0.49    0.04
  -9  -3  -3    0.53    0.05
  -9   3  -3    0.52    0.04
 -10   3  -3    0.11    0.04
 -10   3  -3    0.08    0.03
 -10   3  -3    0.10    0.03
 -10  -3  -3    0.10    0.04
 -11   3  -3    0.07    0.03
 -11   3  -3    0.07    0.04
 -11   3  -3    0.07    0.03
 -11  -3  -3    0.08    0.04
 -12   3  -3   -0.01    0.04
 -12   3  -3    0.00    0.03
 -12  -3  -3   -0.01    0.04
 -13   3  -3    0.01    0.04
 -13   3  -3    0.02    0.03
 -13  -3  -3   -0.01    0.04
 -14   3  -3    0.22    0.05
 -14  -3  -3    0.20    0.04
 -15  -3  -3   -0.01    0.04
 -16   4   3    0.25    0.04
 -16   4   3    0.23    0.05
 -16  -4   3    0.18    0.04
  16  -4  -3    0.19    0.05
 -15   4   3    0.08    0.04
 -15   4   3    0.09    0.04
 -15  -4   3    0.08    0.04
  15  -4  -3    0.09    0.04
 -14  -4   3    0.24    0.04
 -14   4   3    0.25    0.04
 -14   4   3    0.27    0.05
 -14   4   3    0.27    0.04
  14  -4  -3    0.27    0.05
 -13   4   3    0.03    0.04
 -13   4   3   -0.01    0.04
  13  -4  -3   -0.01    0.04
 -13   4   3    0.00    0.04
 -13  -4   3    0.00    0.03
 -12  -4   3    0.22    0.04
 -12   4   3    0.22    0.04
  12  -4  -3    0.19    0.04
 -12   4   3    0.24    0.04
 -12   4   3    0.23    0.04
 -11   4   3    0.17    0.03
 -11   4   3    0.12    0.04
  11  -4  -3    0.15    0.04
 -11   4   3    0.21    0.04
 -11  -4   3    0.20    0.04
 -10  -4   3   10.76    0.14
 -10   4   3   10.56    0.13
 -10   4   3   10.40    0.13
  10   4  -3   10.85    0.13
 -10   4   3   10.75    0.14
  10  -4  -3   10.75    0.14
  -9  -4   3    5.31    0.10
  -9   4   3    5.38    0.09
  -9   4   3    5.16    0.09
   9   4  -3    5.25    0.09
  -9   4   3    5.34    0.10
   9  -4  -3    5.36    0.10
   8  -4  -3    0.03    0.03
  -8  -4   3    0.01    0.02
  -8   4   3    0.04    0.02
  -8   4   3    0.02    0.03
  -8   4   3    0.01    0.03
  -8  -4   3    0.02    0.03
   8   4  -3    0.01    0.03
  -7  -4   3    7.60    0.11
   7  -4  -3    7.43    0.11
  -7  -4   3    7.57    0.09
  -7   4   3    7.32    0.10
  -7   4   3    7.44    0.10
   7   4  -3    7.69    0.10
   6   4  -3    0.65    0.04
  -6  -4   3    0.65    0.04
   6  -4  -3    0.68    0.04
   6  -4  -3    0.69    0.03
  -6   4   3    0.62    0.04
  -6  -4   3    0.65    0.03
   6  -4  -3    0.66    0.04
  -6   4   3    0.69    0.04
   5   4  -3    0.26    0.03
   5  -4  -3    0.23    0.03
  -5  -4   3    0.24    0.03
   5  -4  -3    0.23    0.03
   5  -4  -3    0.24    0.02
   5   4  -3    0.23    0.03
  -5   4   3    0.22    0.03
  -5   4   3    0.21    0.03
   4  -4  -3    0.23    0.03
  -4  -4   3    0.22    0.03
   4   4  -3    0.22    0.02
   4  -4  -3    0.23    0.03
   4  -4  -3    0.23    0.02
   4   4  -3    0.24    0.03
  -4   4   3    0.23    0.03
  -4   4   3    0.24    0.03
   4   4  -3    0.21    0.03
   3   4  -3    1.50    0.04
  -3  -4   3    1.65    0.05
   3  -4  -3    1.54    0.04
   3  -4  -3    1.50    0.04
   3   4  -3    1.56    0.05
  -3   4   3    1.61    0.05
   3  -4  -3    1.51    0.05
   3   4  -3    1.50    0.05
   2   4  -3    0.11    0.03
   2   4  -3    0.11    0.02
   2  -4  -3    0.11    0.02
   2   4  -3    0.11    0.02
   2  -4  -3    0.12    0.03
  -2   4   3    0.08    0.02
   2  -4  -3    0.10    0.02
  -2  -4   3    0.13    0.02
   1   4  -3    0.85    0.04
  -1  -4   3    0.85    0.04
   1  -4  -3    0.83    0.03
   1   4  -3    0.80    0.04
   1  -4  -3    0.76    0.03
   1  -4  -3    0.81    0.04
  -1   4   3    0.85    0.04
   1   4  -3    0.88    0.04
   0   4  -3    0.16    0.02
   0   4  -3    0.11    0.02
   0   4   3    0.12    0.02
   0  -4  -3    0.12    0.02
   0  -4   3    0.13    0.02
   0  -4  -3    0.11    0.02
   0  -4  -3    0.12    0.02
   0   4  -3    0.10    0.02
  -1   4  -3    0.73    0.03
  -1  -4  -3    0.73    0.03
   1  -4   3    0.76    0.03
  -1  -4  -3    0.72    0.04
  -1  -4  -3    0.77    0.04
  -1   4  -3    0.73    0.03
  -1   4  -3    0.76    0.04
   1   4   3    0.73    0.03
  -2   4  -3    8.04    0.10
  -2  -4  -3    8.21    0.09
   2  -4   3    8.33    0.10
  -2  -4  -3    7.85    0.10
  -2  -4  -3    8.09    0.10
   2   4   3    8.30    0.09
  -2   4  -3    8.35    0.09
  -2   4  -3    8.19    0.10
   3  -4   3    0.06    0.02
  -3  -4  -3    0.05    0.03
  -3   4  -3    0.06    0.03
  -3  -4  -3    0.05    0.02
  -3   4  -3    0.07    0.02
   3   4   3    0.06    0.02
  -3   4  -3    0.07    0.02
  -3  -4  -3    0.08    0.03
  -4   4  -3    7.76    0.10
  -4  -4  -3    7.58    0.09
   4  -4   3    7.43    0.10
  -4  -4  -3    7.70    0.10
  -4  -4  -3    7.43    0.11
  -4   4  -3    7.55    0.08
   4   4   3    7.85    0.09
  -4   4  -3    7.45    0.09
  -5  -4  -3    0.61    0.03
  -5  -4  -3    0.62    0.04
   5  -4   3    0.62    0.04
  -5  -4  -3    0.63    0.04
  -5   4  -3    0.65    0.03
   5   4   3    0.62    0.03
  -5   4  -3    0.62   0.03
  -5   4  -3    0.62    0.04
   6  -4   3    0.03    0.02
  -6   4  -3    0.00    0.03
  -6  -4  -3    0.03    0.03
  -6   4  -3    0.02    0.02
  -6  -4  -3    0.01    0.03
  -6  -4  -3    0.01    0.02
   7  -4   3    0.09    0.03
  -7  -4  -3    0.08    0.02
  -7   4  -3    0.07    0.03
  -7  -4  -3    0.08    0.03
  -7   4  -3    0.09    0.03
  -7  -4  -3    0.09    0.03
   8  -4   3    0.09    0.03
  -8  -4  -3    0.04    0.03
  -8   4  -3    0.05    0.03
  -8   4  -3    0.08    0.03
  -8  -4  -3    0.03    0.02
  -8  -4  -3    0.08    0.03
   9  -4   3    0.00    0.03
  -9  -4  -3    0.00    0.04
  -9   4  -3    0.00    0.04
  -9   4  -3   -0.01    0.03
  -9  -4  -3    0.00    0.03
  10  -4   3    0.05    0.03
 -10   4  -3    0.04    0.04
 -10   4  -3    0.05    0.03
 -10  -4  -3    0.04    0.03
  11  -4   3    0.03    0.03
 -11   4  -3    0.06    0.04
 -11   4  -3    0.06    0.03
 -11  -4  -3    0.03    0.04
 -12  -4  -3    0.15    0.05
 -12   4  -3    0.18    0.05
 -13   4  -3   -0.01    0.05
 -13  -4  -3    0.00    0.04
 -14   4  -3    0.33    0.06
 -14  -4  -3    0.30    0.04
 -15   5   3    0.05    0.04
  15  -5  -3    0.02    0.04
 -15   5   3    0.05    0.05
 -15  -5   3    0.03    0.04
 -14   5   3    0.09    0.04
 -14  -5   3    0.15    0.04
  14  -5  -3    0.11    0.04
 -14   5   3    0.07    0.04
 -14   5   3    0.10    0.04
 -13   5   3    0.01    0.03
  13  -5  -3   -0.03    0.04
 -13   5   3    0.01    0.04
 -13  -5   3    0.00    0.04
 -13   5   3    0.01    0.04
  12  -5  -3    0.01    0.04
 -12   5   3    0.04    0.04
 -12   5   3    0.01    0.04
 -12   5   3    0.01    0.04
 -12  -5   3    0.03    0.04
 -11  -5   3    0.50    0.05
 -11   5   3    0.48    0.04
 -11   5   3    0.50    0.05
  11  -5  -3    0.46    0.05
 -11   5   3    0.49    0.04
  11  -5  -3    0.52    0.05
 -10  -5   3    2.18    0.07
 -10   5   3    2.26    0.07
  10  -5  -3    2.23    0.08
  10   5  -3    2.23    0.07
  10  -5  -3    2.15    0.07
 -10   5   3    2.26    0.08
 -10   5   3    2.22    0.07
  -9  -5   3    0.37    0.04
  -9   5   3    0.34    0.04
   9   5  -3    0.35    0.04
   9  -5  -3    0.31    0.04
  -9  -5   3    0.21    0.03
   9  -5  -3    0.36    0.04
  -9   5   3    0.31    0.04
  -9   5   3    0.32    0.04
   8  -5  -3    0.32    0.04
  -8   5   3    0.32    0.03
  -8   5   3    0.32    0.04
  -8   5   3    0.32    0.04
  -8  -5   3    0.32    0.04
  -8  -5   3    0.33    0.03
   8  -5  -3    0.32    0.04
   8   5  -3    0.34    0.04
   7  -5  -3    6.52    0.11
   7  -5  -3    6.84    0.11
  -7  -5   3    6.82    0.10
  -7   5   3    6.73    0.11
   7   5  -3    6.84    0.11
  -7  -5   3    6.86    0.11
  -7   5   3    6.88    0.11
  -6  -5   3    4.62    0.09
   6  -5  -3    4.48    0.09
  -6   5   3    4.43    0.09
   6   5  -3    4.60    0.09
  -6  -5   3    4.74    0.08
   6  -5  -3    4.72    0.09
  -6   5   3    4.82    0.09
  -5  -5   3    1.63    0.06
   5  -5  -3    1.64    0.05
   5   5  -3    1.67    0.06
   5  -5  -3    1.70    0.05
  -5   5   3    1.71    0.06
  -5   5   3    1.70    0.05
   5  -5  -3    1.70    0.05
   5   5  -3    1.66    0.06
   4   5  -3    1.68    0.05
  -4  -5   3    1.65    0.06
   4  -5  -3    1.69    0.05
   4  -5  -3    1.75    0.05
   4  -5  -3    1.67    0.05
  -4   5   3    1.68    0.06
   4   5  -3    1.62    0.06
   4   5  -3    1.69    0.06
   3   5  -3    0.80    0.03
  -3  -5   3    0.76    0.04
   3   5  -3    0.76    0.04
   3  -5  -3    0.77    0.04
   3  -5  -3    0.72    0.04
   3  -5  -3    0.78    0.03
  -3   5   3    0.82    0.04
   3   5  -3    0.79    0.04
   2   5  -3    0.31    0.03
  -2  -5   3    0.37    0.03
   2  -5  -3    0.31    0.03
   2   5  -3    0.29    0.03
   2  -5  -3    0.32    0.03
  -2   5   3    0.34    0.03
   2  -5  -3    0.37    0.03
   2   5  -3    0.32    0.04
   1   5  -3    3.64    0.07
  -1  -5   3    3.74    0.07
   1  -5  -3    3.74    0.07
   1   5  -3    3.61    0.07
   1  -5  -3    3.63    0.07
   1  -5  -3    3.62    0.07
  -1   5   3    3.74    0.07
   1   5  -3    3.52    0.07
   0   5  -3    0.01    0.02
   0   5  -3    0.03    0.03
   0   5   3    0.01    0.02
   0  -5  -3    0.00    0.02
   0  -5  -3    0.00    0.03
   0  -5   3    0.08    0.02
   0  -5  -3    0.01    0.02
   0   5  -3    0.02    0.03
  -1   5  -3    5.03    0.08
  -1   5  -3    5.15    0.08
  -1  -5  -3    5.19    0.08
   1  -5   3    5.05    0.08
  -1   5  -3    5.01    0.09
  -1  -5  -3    5.14    0.09
  -1  -5  -3    4.95    0.09
   1   5   3    5.17    0.08
  -2   5  -3    2.98    0.07
  -2  -5  -3    3.04    0.06
   2  -5   3    2.99    0.07
  -2  -5  -3    2.96    0.07
  -2  -5  -3    3.07    0.07
  -2   5  -3    3.01    0.06
   2   5   3    3.02    0.06
  -2   5  -3    3.09    0.07
  -3  -5  -3    1.17    0.04
   3  -5   3    1.17    0.05
  -3  -5  -3    1.13    0.05
  -3  -5  -3    1.17    0.05
  -3   5  -3    1.19    0.04
   3   5   3    1.16    0.04
  -3   5  -3    1.11    0.05
  -3   5  -3    1.16    0.05
   4  -5   3    0.12    0.03
  -4   5  -3    0.11    0.02
  -4   5  -3    0.10    0.03
  -4  -5  -3    0.14    0.02
  -4  -5  -3    0.11    0.03
  -4  -5  -3    0.14    0.03
   4   5   3    0.11    0.03
  -4   5  -3    0.09    0.03
   5  -5   3    0.25    0.03
  -5  -5  -3    0.25    0.03
  -5   5  -3    0.25    0.04
  -5  -5  -3    0.25    0.04
   5   5   3    0.25    0.02
  -5   5  -3    0.25    0.03
  -5  -5  -3    0.25    0.04
  -5   5  -3    0.25    0.03
  -6  -5  -3    0.37    0.03
  -6   5  -3    0.36    0.04
  -6  -5  -3    0.33    0.04
   6  -5   3    0.34    0.04
  -6  -5  -3    0.35    0.04
   7  -5   3    0.11    0.03
  -7  -5  -3    0.12    0.02
  -7   5  -3    0.12    0.04
  -7  -5  -3    0.14    0.03
  -7  -5  -3    0.10    0.04
   8  -5   3    0.20    0.04
  -8  -5  -3    0.19    0.04
  -8   5  -3    0.21    0.04
  -8   5  -3    0.18    0.03
  -8  -5  -3    0.17    0.04
   9  -5   3    0.03    0.03
  -9  -5  -3    0.02    0.04
  -9   5  -3    0.02    0.04
  -9   5  -3    0.02    0.03
  -9  -5  -3    0.01    0.04
 -10   5  -3    0.42    0.05
  10  -5   3    0.45    0.05
 -10  -5  -3    0.49    0.05
 -10   5  -3    0.41    0.04
  11  -5   3    0.03    0.04
 -11   5  -3    0.02    0.04
 -11   5  -3    0.04    0.04
 -11  -5  -3    0.01    0.04
 -12   5  -3    0.27    0.05
 -12   5  -3    0.29    0.05
 -12  -5  -3    0.25    0.05
 -13   5  -3    0.76    0.07
 -13  -5  -3    0.57    0.06
  14  -6  -3    0.20    0.04
  14  -6  -3    0.24    0.05
 -14   6   3    0.23    0.06
 -14  -6   3    0.16    0.04
 -14   6   3    0.18    0.04
  13  -6  -3    0.02    0.04
  13  -6  -3    0.01    0.04
 -13   6   3   -0.01    0.04
 -13   6   3   -0.01    0.03
 -13  -6   3    0.04    0.04
  12  -6  -3    0.15    0.04
  12  -6  -3    0.12    0.04
 -12   6   3    0.13    0.04
 -12   6   3    0.12    0.03
 -12  -6   3    0.15    0.04
 -11  -6   3    1.47    0.07
  11  -6  -3    1.46    0.07
  11  -6  -3    1.41    0.06
 -11   6   3    1.41    0.07
 -11   6   3    1.44    0.06
 -10  -6   3    0.93    0.06
  10  -6  -3    0.83    0.06
  10  -6  -3    0.84    0.05
  10   6  -3    0.86    0.05
 -10   6   3    0.92    0.06
 -10   6   3    0.90    0.06
   9  -6  -3    0.05    0.04
  -9  -6   3    0.05    0.03
  -9   6   3    0.03    0.04
  -9   6   3    0.05    0.03
  -9  -6   3    0.00    0.03
   9  -6  -3    0.03    0.03
   9   6  -3    0.02    0.03
  -8  -6   3    4.26    0.10
   8  -6  -3    4.22    0.10
  -8  -6   3    4.26    0.09
  -8   6   3    4.18    0.09
   8  -6  -3    4.15    0.09
   8   6  -3    4.28    0.09
  -8   6   3    4.14    0.10
   7  -6  -3    0.09    0.03
   7  -6  -3    0.09    0.03
  -7   6   3    0.09    0.03
  -7   6   3    0.07    0.03
  -7  -6   3    0.09    0.04
  -7  -6   3    0.05    0.03
   7   6  -3    0.07    0.04
   6  -6  -3    1.11    0.05
  -6  -6   3    1.09    0.06
   6  -6  -3    0.96    0.05
   6   6  -3    0.95    0.06
  -6   6   3    1.00    0.05
  -6  -6   3    0.99    0.05
   6   6  -3    1.04    0.05
  -5  -6   3    2.05    0.07
   5  -6  -3    1.94    0.06
   5   6  -3    1.98    0.07
   5  -6  -3    2.00    0.06
  -5   6   3    1.95    0.07
  -5  -6   3    1.98    0.06
   5  -6  -3    2.06    0.06
   5   6  -3    2.00    0.07
  -4  -6   3    3.72    0.08
   4  -6  -3    3.88    0.08
   4  -6  -3    3.96    0.08
   4   6  -3    3.84    0.09
   4  -6  -3    3.72    0.07
  -4   6   3    3.88    0.09
   4   6  -3    3.90    0.09
  -3  -6   3    2.99    0.08
   3  -6  -3    2.99    0.07
   3   6  -3    2.91    0.08
   3  -6  -3    2.91    0.07
  -3   6   3    2.96    0.07
   3  -6  -3    2.85    0.07
   3   6  -3    3.01    0.08
   2   6  -3    0.01    0.03
   2  -6  -3    0.01    0.03
   2  -6  -3    0.01    0.03
   2   6  -3    0.00    0.02
   2   6  -3   -0.01    0.03
  -2   6   3    0.00    0.03
   2  -6  -3    0.00    0.03
  -2  -6   3    0.00    0.03
   1   6  -3    0.82    0.04
   1  -6  -3    0.81    0.04
  -1   6   3    0.78    0.05
  -1  -6   3    0.89    0.05
   1  -6  -3    0.81    0.04
   1   6  -3    0.79    0.05
   1  -6  -3    0.79    0.04
   1   6  -3    0.84    0.05
   0   6  -3    6.47    0.09
   0  -6   3    6.73    0.11
   0  -6  -3    6.33    0.10
   0  -6  -3    6.48    0.10
   0   6  -3    6.47    0.11
   0  -6  -3    6.14    0.10
   0   6   3    6.64    0.10
   0   6  -3    6.56    0.11
  -1   6  -3    2.61    0.06
  -1  -6  -3    2.60    0.07
   1  -6   3    2.67    0.07
  -1  -6  -3    2.52    0.07
  -1   6  -3    2.63    0.07
  -1  -6  -3    2.54    0.07
   1   6   3    2.60    0.07
  -1   6  -3    2.64    0.07
  -2   6  -3    0.10    0.03
  -2   6  -3    0.09    0.03
  -2   6  -3    0.10    0.03
   2   6   3    0.08    0.03
  -2  -6  -3    0.06    0.03
  -2  -6  -3    0.10    0.03
  -2  -6  -3    0.08    0.03
   2  -6   3    0.08    0.03
  -3   6  -3    1.43    0.05
  -3  -6  -3    1.57    0.05
   3  -6   3    1.52    0.06
  -3  -6  -3    1.55    0.06
  -3  -6  -3    1.47    0.06
  -3   6  -3    1.47    0.05
   3   6   3    1.60    0.06
  -3   6  -3    1.50    0.06
  -4  -6  -3    0.80    0.04
   4  -6   3    0.81    0.05
  -4  -6  -3    0.81    0.05
  -4  -6  -3    0.87    0.05
  -4   6  -3    0.73    0.04
   4   6   3    0.87    0.04
  -4   6  -3    0.81    0.05
  -4   6  -3    0.80    0.04
  -5   6  -3    1.87    0.06
  -5  -6  -3    2.00    0.06
   5  -6   3    1.98    0.07
  -5  -6  -3    1.87    0.06
  -5  -6  -3    1.88    0.07
  -5   6  -3    1.92    0.06
  -5   6  -3    1.96    0.06
  -6   6  -3    2.41    0.07
  -6  -6  -3    2.29    0.07
  -6  -6  -3    2.49    0.08
   6  -6   3    2.29    0.07
  -6  -6  -3    2.37    0.08
   7  -6   3    0.04    0.03
  -7   6  -3    0.03    0.03
  -7  -6  -3    0.04    0.03
  -7  -6  -3    0.04    0.04
   8  -6   3    0.28    0.04
  -8   6  -3    0.29    0.04
  -8  -6  -3    0.31    0.05
  -8  -6  -3    0.37    0.04
  -9   6  -3    0.55    0.05
  -9  -6  -3    0.54    0.05
   9  -6   3    0.49    0.05
  -9  -6  -3    0.56    0.06
 -10   6  -3    0.92    0.06
  10  -6   3    0.92    0.06
 -10  -6  -3    0.94    0.06
  11  -6   3    0.04    0.04
 -11   6  -3    0.06    0.05
 -11   6  -3    0.01    0.04
 -11  -6  -3    0.03    0.04
 -12  -6  -3    0.01    0.04
 -12   6  -3   -0.01    0.04
  12  -7  -3    0.07    0.05
 -12   7   3    0.06    0.05
 -12   7   3    0.07    0.04
 -12  -7   3    0.05    0.04
  12  -7  -3    0.03    0.04
  11  -7  -3    0.05    0.04
 -11   7   3    0.08    0.04
 -11   7   3    0.05    0.04
  11  -7  -3    0.07    0.04
 -11  -7   3    0.05    0.04
 -10  -7   3    2.62    0.10
  10  -7  -3    2.62    0.10
 -10   7   3    2.62    0.09
  10  -7  -3    2.61    0.09
  10   7  -3    2.63    0.09
 -10   7   3    2.61    0.10
   9  -7  -3    0.06    0.04
  -9   7   3    0.06    0.04
  -9   7   3    0.07    0.04
   9  -7  -3    0.03    0.03
  -9  -7   3    0.07    0.03
  -9  -7   3    0.06    0.04
   9   7  -3    0.10    0.04
   8  -7  -3    0.12    0.04
   8  -7  -3    0.17    0.03
  -8   7   3    0.13    0.04
  -8  -7   3    0.14    0.04
  -8  -7   3    0.13    0.04
   8   7  -3    0.12    0.04
   7  -7  -3    0.01    0.04
   7  -7  -3    0.09    0.03
  -7   7   3    0.07    0.04
  -7  -7   3    0.05    0.04
  -7  -7   3    0.05    0.03
   7   7  -3    0.04    0.04
   6  -7  -3    0.07    0.04
   6  -7  -3    0.04    0.03
   6   7  -3    0.05    0.04
  -6   7   3    0.06    0.03
  -6  -7   3    0.05    0.03
  -6  -7   3    0.05    0.03
   6   7  -3    0.04    0.04
   5   7  -3    0.28    0.04
   5  -7  -3    0.28    0.04
   5  -7  -3    0.26    0.03
   5  -7  -3    0.26    0.04
  -5  -7   3    0.26    0.04
  -5   7   3    0.21    0.04
  -5  -7   3    0.26    0.04
   5   7  -3    0.23    0.04
  -4  -7   3    1.78    0.07
   4  -7  -3    1.69    0.07
   4   7  -3    1.70    0.07
   4  -7  -3    1.70    0.06
  -4   7   3    1.71    0.07
   4  -7  -3    1.78    0.06
   4   7  -3    1.78    0.07
   3   7  -3    0.04    0.04
   3  -7  -3    0.04    0.03
   3   7  -3    0.04    0.04
   3  -7  -3    0.01    0.03
  -3   7   3    0.04    0.04
   3  -7  -3    0.01    0.03
  -3  -7   3    0.02    0.04
  -2  -7   3    4.40    0.10
   2  -7  -3    4.47    0.09
   2  -7  -3    4.60    0.09
   2   7  -3    4.44    0.10
   2  -7  -3    4.48    0.09
  -2   7   3    4.49    0.10
   2   7  -3    4.44    0.10
   1   7  -3    0.21    0.04
   1  -7  -3    0.18    0.04
   1   7  -3    0.19    0.04
  -1   7   3    0.20    0.04
   1  -7  -3    0.18    0.04
  -1  -7   3    0.18    0.04
   1  -7  -3    0.19    0.04
   0  -7   3    1.41    0.06
   0  -7  -3    1.47    0.06
   0  -7  -3    1.42    0.06
   0   7  -3    1.49    0.06
   0  -7  -3    1.42    0.06
   0   7   3    1.48    0.06
   0   7  -3    1.48    0.06
  -1  -7  -3    0.66    0.04
   1  -7   3    0.56    0.05
  -1  -7  -3    0.64    0.04
  -1  -7  -3    0.62    0.05
   1   7   3    0.57    0.04
  -1   7  -3    0.62    0.05
  -1   7  -3    0.63    0.05
  -2  -7  -3    2.41    0.07
   2  -7   3    2.46    0.08
  -2  -7  -3    2.44    0.07
  -2   7  -3    2.42    0.07
  -2  -7  -3    2.34    0.08
   2   7   3    2.43    0.07
  -2   7  -3    2.35    0.07
  -3   7  -3    0.15    0.04
   3  -7   3    0.14    0.04
  -3  -7  -3    0.13    0.03
  -3   7  -3    0.14    0.04
   3   7   3    0.16    0.04
  -3  -7  -3    0.15    0.04
  -3  -7  -3    0.14    0.03
  -4  -7  -3    1.87    0.06
   4  -7   3    1.89    0.07
  -4  -7  -3    1.93    0.07
  -4  -7  -3    1.86    0.07
  -4   7  -3    1.88    0.06
   4   7   3    1.84    0.06
  -4   7  -3    1.81    0.06
  -5   7  -3    0.14    0.03
   5  -7   3    0.18    0.04
  -5   7  -3    0.14    0.04
  -5  -7  -3    0.18    0.04
  -5   7  -3    0.15    0.03
  -5  -7  -3    0.17    0.04
  -5  -7  -3    0.17    0.03
   6  -7   3    0.05    0.04
  -6   7  -3    0.04    0.03
  -6  -7  -3    0.03    0.03
  -6  -7  -3    0.05    0.04
  -6  -7  -3    0.02    0.03
   7  -7   3    0.02    0.04
  -7   7  -3    0.01    0.04
  -7  -7  -3    0.03    0.03
  -7  -7  -3   -0.01    0.04
  -8   7  -3    1.68    0.07
  -8  -7  -3    1.67    0.07
   8  -7   3    1.64    0.07
  -8  -7  -3    1.57    0.08
   9  -7   3    0.01    0.04
  -9  -7  -3    0.00    0.04
  -9   7  -3    0.03    0.04
  -9  -7  -3    0.02    0.04
  10  -7   3    0.05    0.04
 -10   7  -3    0.00    0.04
 -10  -7  -3    0.02    0.04
 -11   7  -3   -0.01    0.04
  11  -7   3    0.02    0.03
  11  -8  -3    0.03    0.04
 -10  -8   3    0.63    0.06
  10  -8  -3    0.59    0.06
  10   8  -3    0.72    0.06
   9  -8  -3    0.06    0.05
  -9  -8   3    0.06    0.04
  -9   8   3    0.06    0.04
  -9  -8   3    0.06    0.05
   9   8  -3    0.09    0.04
   8  -8  -3    0.04    0.04
  -8   8   3    0.02    0.04
  -8  -8   3    0.01    0.04
  -8  -8   3    0.01    0.04
   8   8  -3    0.01    0.04
   7  -8  -3    0.32    0.05
   7   8  -3    0.27    0.05
  -7  -8   3    0.32    0.05
  -7   8   3    0.26    0.04
  -7  -8   3    0.25    0.04
   7   8  -3    0.36    0.05
  -6  -8   3    0.42    0.05
   6  -8  -3    0.42    0.05
  -6   8   3    0.43    0.05
  -6  -8   3    0.42    0.05
   6   8  -3    0.35    0.05
   6   8  -3    0.41    0.05
   5  -8  -3    0.10    0.04
  -5  -8   3    0.15    0.04
  -5   8   3    0.14    0.04
   5   8  -3    0.11    0.04
  -5  -8   3    0.15    0.04
   5   8  -3    0.15    0.04
   4   8  -3    0.01    0.04
  -4   8   3    0.02    0.03
   4  -8  -3    0.02    0.04
  -4  -8   3    0.04    0.04
   4  -8  -3   -0.01    0.03
  -4  -8   3    0.03    0.04
   4   8  -3    0.02    0.04
   3   8  -3    0.06    0.04
   3   8  -3    0.03    0.04
  -3   8   3    0.04    0.03
   3  -8  -3    0.04    0.03
  -3  -8   3    0.03    0.04
   3  -8  -3    0.06    0.04
  -2  -8   3    0.47    0.05
   2  -8  -3    0.44    0.05
   2   8  -3    0.45    0.05
   2  -8  -3    0.41    0.04
  -2   8   3    0.41    0.05
   2   8  -3    0.42    0.05
   1   8  -3    0.23    0.04
   1   8  -3    0.20    0.04
  -1   8   3    0.24    0.04
   1  -8  -3    0.22    0.04
  -1  -8   3    0.26    0.04
   1  -8  -3    0.28    0.04
   0   8  -3    0.13    0.04
   0   8  -3    0.11    0.04
   0   8   3    0.12    0.04
   0  -8  -3    0.14    0.04
   0  -8   3    0.12    0.04
   0  -8  -3    0.13    0.04
  -1   8  -3    0.09    0.04
   1   8   3    0.10    0.04
  -1   8  -3    0.06    0.03
  -1  -8  -3    0.07    0.03
  -1  -8  -3    0.09    0.03
   1  -8   3    0.09    0.03
  -2   8  -3    0.01    0.03
  -2   8  -3    0.02    0.04
   2   8   3    0.03    0.04
  -2  -8  -3    0.00    0.04
  -2  -8  -3    0.02    0.03
   2  -8   3    0.01    0.04
  -3  -8  -3    1.02    0.06
   3  -8   3    1.04    0.06
  -3  -8  -3    1.09    0.06
  -3   8  -3    0.99    0.06
   3   8   3    1.03    0.06
  -3   8  -3    1.02    0.06
  -4   8  -3    0.14    0.04
   4   8   3    0.17    0.04
  -4  -8  -3    0.22    0.05
  -4  -8  -3    0.16    0.04
  -4   8  -3    0.20    0.04
   4  -8   3    0.13    0.04
  -5   8  -3    0.04    0.03
   5  -8   3    0.02    0.04
  -5  -8  -3    0.00    0.04
  -5   8  -3    0.00    0.04
  -5  -8  -3   -0.02    0.04
   6  -8   3   -0.01    0.03
  -6  -8  -3    0.05    0.04
   7  -8   3    0.02    0.04
  -7  -8  -3    0.03    0.05
   8  -8   3    0.02    0.04
  -8  -8  -3    0.01    0.04
   9  -8   3    0.08    0.04
  -9  -9   3    0.71    0.05
   8  -9  -3    0.65    0.06
  -8  -9   3    0.65    0.06
   8   9  -3    0.65    0.07
   7  -9  -3    0.13    0.05
  -7  -9   3    0.16    0.04
  -7  -9   3    0.13    0.04
   7   9  -3    0.18    0.05
   6  -9  -3    0.23    0.05
  -6  -9   3    0.25    0.04
  -6  -9   3    0.25    0.05
   6   9  -3    0.22    0.05
  -5  -9   3    0.09    0.04
  -5   9   3    0.07    0.04
  -5  -9   3    0.10    0.04
   5  -9  -3    0.06    0.04
   5   9  -3    0.06    0.04
   4   9  -3   -0.02    0.04
  -4  -9   3    0.01    0.04
   4  -9  -3   -0.03    0.04
  -4   9   3    0.03    0.04
  -4  -9   3   -0.02    0.04
   4  -9  -3    0.04    0.04
   4   9  -3    0.03    0.04
   3   9  -3    0.14    0.04
   3   9  -3    0.12    0.04
  -3   9   3    0.14    0.04
   3  -9  -3    0.10    0.04
  -3  -9   3    0.13    0.04
  -3  -9   3    0.10    0.04
   3  -9  -3    0.12    0.04
   2   9  -3    0.07    0.04
   2   9  -3    0.05    0.04
  -2   9   3    0.09    0.04
   2  -9  -3    0.11    0.04
  -2  -9   3    0.06    0.04
   2  -9  -3    0.07    0.04
   1   9  -3    0.32    0.05
   1   9  -3    0.26    0.04
  -1   9   3    0.27    0.05
   1  -9  -3    0.29    0.04
  -1  -9   3    0.28    0.05
   1  -9  -3    0.32    0.05
   0   9  -3    0.04    0.05
   0   9  -3    0.03    0.03
   0   9   3    0.04    0.04
   0  -9  -3    0.09    0.04
   0  -9   3    0.04    0.04
   0  -9  -3    0.04    0.04
  -1  -9  -3    0.89    0.06
   1  -9   3    0.88    0.06
  -1   9  -3    0.92    0.06
  -1  -9  -3    0.90    0.06
   1   9   3    0.94    0.06
  -1   9  -3    0.93    0.06
  -2   9  -3    0.17    0.05
  -2  -9  -3    0.25    0.05
  -2   9  -3    0.20    0.04
   2   9   3    0.17    0.05
  -2  -9  -3    0.23    0.05
   2  -9   3    0.30    0.05
  -3   9  -3    0.10    0.04
  -3   9  -3    0.10    0.04
  -3  -9  -3    0.09    0.04
  -3  -9  -3    0.11    0.04
   3   9   3    0.10    0.04
   3  -9   3    0.11    0.04
  -4   9  -3    0.08    0.04
  -4   9  -3    0.07    0.04
   4   9   3    0.05    0.03
  -4  -9  -3    0.09    0.05
  -4  -9  -3    0.07    0.04
   4  -9   3    0.06    0.04
   5  -9   3    0.67    0.06
  -5  -9  -3    0.66    0.06
  -5   9  -3    0.74    0.06
   6  -9   3    0.00    0.04
   3 -10  -3    0.19    0.04
   3 -10  -3    0.13    0.05
   2 -10  -3    0.05    0.04
   2 -10  -3    0.03    0.04
   1 -10  -3    0.28    0.05
   1 -10  -3    0.32    0.05
   0 -10  -3    0.44    0.05
   0 -10  -3    0.53    0.06
  -1 -10  -3    0.02    0.04
  -2 -10  -3    0.03    0.03
 -17   0   4    0.07    0.05
 -17   0   4    0.07    0.05
  17   0  -4    0.07    0.05
  16   0  -4    0.44    0.05
 -16   0   4    0.49    0.05
 -16   0   4    0.43    0.05
 -15   0   4    0.07    0.04
 -15   0   4    0.11    0.04
  15   0  -4    0.08    0.04
 -14   0   4    2.24    0.07
  14   0  -4    2.20    0.08
 -14   0   4    2.38    0.08
  13   0  -4    1.05    0.06
 -13   0   4    1.10    0.05
 -13   0   4    1.08    0.06
  12   0  -4    4.84    0.10
 -12   0   4    4.82    0.10
 -12   0   4    4.83    0.10
  11   0  -4    2.49    0.07
 -11   0   4    2.49    0.07
 -11   0   4    2.56    0.07
 -10   0   4    0.03    0.03
  10   0  -4    0.01    0.03
 -10   0   4    0.03    0.03
  10   0  -4    0.02    0.02
  -9   0   4    0.04    0.03
   9   0  -4    0.04    0.03
  -9   0   4    0.03    0.03
   9   0  -4    0.03    0.02
   8   0  -4   22.63    0.17
   8   0  -4   23.04    0.16
  -8   0   4   22.02    0.17
  -8   0   4   22.20    0.16
  -7   0   4   34.98    0.20
   7   0  -4   34.90    0.19
   7   0  -4   35.44    0.20
  -7   0   4   35.10    0.19
  -6   0   4    2.15    0.05
  -6   0   4    2.14    0.05
   6   0  -4    2.05    0.05
   6   0  -4    2.10    0.05
  -5   0   4    0.73    0.03
   5   0  -4    0.72    0.03
   5   0  -4    0.73    0.03
  -5   0   4    0.73    0.03
   4   0  -4    0.01    0.02
   4   0  -4    0.01    0.01
  -4   0   4    0.00    0.01
  -4   0   4    0.00    0.02
   4   0  -4    0.01    0.02
   4   0  -4    0.02    0.02
   3   0  -4    5.11    0.07
   3   0  -4    5.35    0.07
   3   0  -4    5.32    0.05
  -3   0   4    5.26    0.07
   3   0  -4    5.30    0.07
  -3   0   4    5.27    0.05
   2   0  -4    3.67    0.06
   2   0  -4    3.62    0.05
   2   0  -4    3.60    0.06
   2   0  -4    3.73    0.05
  -2   0   4    3.77    0.05
  -2   0   4    3.60    0.03
  -1   0   4    1.43    0.03
   1   0  -4    1.43    0.04
   1   0  -4    1.46    0.03
   1   0  -4    1.48    0.04
   1   0  -4    1.50    0.04
   0   0  -4   13.27    0.11
   0   0  -4   12.82    0.10
   0   0  -4   12.77    0.10
   0   0   4   13.15    0.09
   0   0  -4   12.70    0.11
  -1   0  -4    6.32    0.07
  -1   0  -4    6.54    0.08
   1   0   4    6.55    0.06
  -1   0  -4    6.44    0.08
  -1   0  -4    6.50    0.08
  -2   0  -4   43.53    0.20
  -2   0  -4   42.54    0.21
   2   0   4   43.59    0.12
  -2   0  -4   43.18    0.18
  -3   0  -4    0.57    0.04
  -3   0  -4    0.57    0.03
  -3   0  -4    0.57    0.04
  -3   0  -4    0.56    0.03
  -4   0  -4  140.59    0.39
  -4   0  -4  140.83    0.38
  -4   0  -4  141.31    0.42
  -4   0  -4  140.40    0.33
  -5   0  -4    0.06    0.03
  -5   0  -4    0.04    0.03
  -5   0  -4    0.07    0.04
  -5   0  -4    0.05    0.02
  -6   0  -4    0.37    0.04
  -6   0  -4    0.40    0.04
  -6   0  -4    0.40    0.04
  -7   0  -4    0.95    0.05
  -7   0  -4    0.96    0.05
  -8   0  -4    0.94    0.05
  -8   0  -4    1.01    0.05
  -9   0  -4    0.03    0.03
  -9   0  -4    0.02    0.03
 -10   0  -4    0.08    0.03
 -10   0  -4    0.08    0.04
 -11   0  -4    0.03    0.04
 -11   0  -4    0.03    0.04
 -12   0  -4    0.08    0.04
 -12   0  -4    0.09    0.04
 -13   0  -4    0.51    0.05
 -13   0  -4    0.58    0.05
 -14   0  -4    0.96    0.07
 -14   0  -4    0.96    0.06
 -15   0  -4    0.14    0.05
 -15   0  -4    0.16    0.04
  17  -1  -4    0.27    0.05
 -17  -1   4    0.27    0.05
 -17   1   4    0.27    0.05
 -17   1   4    0.27    0.05
  17   1  -4    0.27    0.05
  16  -1  -4    0.02    0.04
 -16   1   4    0.00    0.04
 -16  -1   4    0.00    0.04
 -16   1   4    0.01    0.04
 -16  -1   4    0.01    0.04
  16   1  -4    0.03    0.04
  15   1  -4    0.01    0.04
 -15  -1   4    0.03    0.04
  15  -1  -4    0.03    0.04
 -15   1   4    0.02    0.04
 -15   1   4   -0.02    0.04
 -15  -1   4    0.03    0.04
  14   1  -4    0.04    0.04
 -14  -1   4    0.01    0.03
 -14  -1   4    0.02    0.04
  14  -1  -4    0.02    0.04
 -14   1   4    0.03    0.04
 -14   1   4    0.02    0.03
  13  -1  -4    1.70    0.07
  13   1  -4    1.75    0.07
 -13   1   4    1.76    0.06
 -13  -1   4    1.72    0.07
 -13   1   4    1.82    0.07
 -13  -1   4    1.66    0.07
  12  -1  -4    1.56    0.07
 -12  -1   4    1.54    0.06
  12   1  -4    1.60    0.06
 -12  -1   4    1.52    0.06
 -12   1   4    1.51    0.06
 -12   1   4    1.48    0.06
  11  -1  -4    0.57    0.05
  11   1  -4    0.61    0.04
 -11  -1   4    0.57    0.04
 -11   1   4    0.49    0.04
 -11   1   4    0.55    0.04
 -11  -1   4    0.60    0.04
 -10  -1   4    7.72    0.11
  10  -1  -4    7.81    0.12
  10   1  -4    7.75    0.11
  10  -1  -4    8.02    0.10
 -10  -1   4    7.55    0.11
  10   1  -4    7.85    0.10
 -10   1   4    7.83    0.11
 -10   1   4    7.90    0.11
  -9  -1   4    1.39    0.05
   9   1  -4    1.36    0.05
  -9  -1   4    1.31    0.05
  -9   1   4    1.39    0.05
   9  -1  -4    1.40    0.04
   9   1  -4    1.42    0.04
  -9   1   4    1.40    0.05
   9  -1  -4    1.37    0.05
  -8  -1   4    3.86    0.07
   8   1  -4    3.95    0.07
  -8  -1   4    3.74    0.07
   8  -1  -4    3.82    0.07
  -8   1   4    4.03    0.08
   8   1  -4    4.02    0.07
   8  -1  -4    3.83    0.08
  -8   1   4    3.91    0.07
  -7  -1   4    0.29    0.03
  -7   1   4    0.28    0.03
   7   1  -4    0.26    0.03
   7  -1  -4    0.23    0.03
   7  -1  -4    0.26    0.03
  -7   1   4    0.28    0.03
  -7  -1   4    0.26    0.03
   7   1  -4    0.30    0.03
  -6  -1   4    7.88    0.09
   6  -1  -4    8.13    0.09
  -6   1   4    8.26    0.10
   6   1  -4    7.80    0.09
   6  -1  -4    7.86    0.10
   6   1  -4    7.87    0.09
  -6   1   4    7.99    0.09
  -6  -1   4    8.02    0.10
  -5  -1   4   13.39    0.10
  -5   1   4   13.06    0.12
   5  -1  -4   13.28    0.12
   5   1  -4   12.99    0.12
   5  -1  -4   12.87    0.12
   5   1  -4   13.08    0.10
  -5   1   4   13.07    0.10
   4   1  -4    1.86    0.05
  -4  -1   4    1.89    0.04
   4  -1  -4    1.90    0.03
   4  -1  -4    1.86    0.05
   4  -1  -4    1.91    0.05
   4   1  -4    1.83    0.05
   4   1  -4    1.85    0.04
  -4   1   4    1.87    0.05
  -4   1   4    1.92    0.04
   3  -1  -4    6.13    0.07
   3   1  -4    5.98    0.08
  -3  -1   4    6.13    0.06
   3  -1  -4    6.05    0.08
   3  -1  -4    6.01    0.05
   3   1  -4    6.05    0.06
   3  -1  -4    6.16    0.08
  -3   1   4    6.23    0.07
   3   1  -4    6.04    0.08
  -3   1   4    6.26    0.06
   2  -1  -4    1.36    0.04
   2   1  -4    1.46    0.04
  -2  -1   4    1.40    0.03
   2   1  -4    1.44    0.03
   2  -1  -4    1.41    0.03
  -2   1   4    1.43    0.04
   2   1  -4    1.36    0.03
   2  -1  -4    1.36    0.04
   2  -1  -4    1.39    0.04
   2   1  -4    1.32    0.04
  -2   1   4    1.43    0.02
   1   1  -4    0.06    0.01
  -1  -1   4    0.08    0.01
   1  -1  -4    0.04    0.02
   1  -1  -4    0.05    0.02
   1   1  -4    0.05    0.02
   1   1  -4    0.05    0.02
   1  -1  -4    0.06    0.01
  -1   1   4    0.06    0.02
   1  -1  -4    0.07    0.02
   1   1  -4    0.06    0.02
   0  -1   4    0.15    0.01
   0  -1  -4    0.14    0.02
   0   1  -4    0.15    0.02
   0   1  -4    0.16    0.02
   0   1  -4    0.15    0.02
   0  -1  -4    0.16    0.02
   0   1   4    0.17    0.02
   0  -1  -4    0.14    0.02
   0  -1  -4    0.14    0.02
   0   1  -4    0.14    0.02
  -1  -1  -4   21.68    0.13
  -1   1  -4   22.19    0.15
  -1   1  -4   21.97    0.12
  -1   1  -4   22.54    0.14
  -1  -1  -4   21.99    0.14
  -1  -1  -4   21.93    0.14
  -1  -1  -4   22.02    0.14
  -1   1  -4   22.61    0.14
   1   1   4   22.54    0.11
  -2  -1  -4   22.30    0.14
  -2   1  -4   22.34    0.15
  -2   1  -4   22.14    0.13
  -2  -1  -4   22.44    0.15
  -2   1  -4   22.08    0.15
  -2  -1  -4   22.11    0.15
   2   1   4   22.99    0.10
  -2   1  -4   22.63    0.14
  -2  -1  -4   22.40    0.14
  -3   1  -4    0.07    0.03
  -3  -1  -4    0.00    0.02
  -3   1  -4    0.02    0.03
  -3   1  -4    0.03    0.02
  -3  -1  -4   -0.02    0.03
  -3  -1  -4    0.04    0.02
  -3  -1  -4    0.00    0.03
  -3   1  -4    0.03    0.02
  -4  -1  -4    2.18    0.04
  -4  -1  -4    2.08    0.05
  -4   1  -4    2.07    0.06
  -4   1  -4    2.01    0.05
  -4  -1  -4    2.07    0.06
  -4   1  -4    2.19    0.06
  -4  -1  -4    2.02    0.06
  -4   1  -4    2.18    0.04
  -5  -1  -4    7.89    0.09
  -5   1  -4    7.91    0.10
  -5   1  -4    7.72    0.09
  -5  -1  -4    7.43    0.10
  -5   1  -4    7.71    0.11
  -5  -1  -4    7.82    0.11
  -5  -1  -4    8.01    0.08
  -5   1  -4    7.94    0.08
  -6  -1  -4    0.30    0.03
  -6   1  -4    0.35    0.04
  -6  -1  -4    0.28    0.04
  -6   1  -4    0.28    0.03
  -6  -1  -4    0.30    0.04
  -7  -1  -4    1.66    0.05
  -7   1  -4    1.62    0.06
  -7  -1  -4    1.56    0.06
  -7   1  -4    1.60    0.06
  -7  -1  -4    1.61    0.06
  -8  -1  -4    0.06    0.03
  -8   1  -4    0.05    0.03
  -8   1  -4    0.08    0.04
  -8  -1  -4    0.05    0.03
  -9  -1  -4    0.02    0.03
  -9   1  -4    0.03    0.03
  -9  -1  -4    0.02    0.03
  -9   1  -4    0.02    0.03
 -10   1  -4    0.02    0.03
 -10   1  -4    0.02    0.03
 -10  -1  -4    0.01    0.03
 -10  -1  -4    0.04    0.03
 -11   1  -4    0.33    0.04
 -11  -1  -4    0.29    0.04
 -11   1  -4    0.35    0.04
 -11  -1  -4    0.37    0.04
 -12   1  -4    0.10    0.04
 -12  -1  -4    0.15    0.04
 -12   1  -4    0.17    0.04
 -12  -1  -4    0.17    0.04
 -13   1  -4    0.27    0.05
 -13  -1  -4    0.32    0.05
 -13  -1  -4    0.35    0.05
 -13   1  -4    0.29    0.05
 -14   1  -4    0.01    0.04
 -14  -1  -4   -0.01    0.04
 -14   1  -4    0.03    0.03
 -14  -1  -4    0.07    0.04
 -15   1  -4   -0.01    0.03
 -15  -1  -4    0.03    0.04
  17  -2  -4   -0.01    0.04
  17   2  -4   -0.02    0.04
 -17   2   4   -0.01    0.05
 -17   2   4    0.00    0.04
 -17  -2   4    0.03    0.04
  16  -2  -4    0.21    0.05
 -16   2   4    0.18    0.04
  16   2  -4    0.21    0.04
 -16   2   4    0.22    0.05
 -16  -2   4    0.23    0.05
 -16   2   4    0.25    0.05
 -16  -2   4    0.25    0.05
  15  -2  -4    0.03    0.05
 -15   2   4    0.08    0.04
 -15  -2   4    0.08    0.04
  15   2  -4    0.08    0.04
 -15   2   4    0.08    0.04
 -15  -2   4    0.11    0.04
 -15   2   4    0.08    0.04
 -14  -2   4    0.04    0.04
 -14   2   4   -0.01    0.03
 -14   2   4    0.06    0.04
  14   2  -4    0.05    0.04
 -14  -2   4    0.04    0.04
  14  -2  -4    0.02    0.04
 -13   2   4    0.06    0.03
 -13   2   4    0.06    0.04
  13   2  -4    0.09    0.04
 -13  -2   4    0.07    0.04
 -13  -2   4    0.08    0.04
  13  -2  -4    0.05    0.04
 -12  -2   4    0.57    0.05
  12   2  -4    0.52    0.05
 -12   2   4    0.54    0.04
 -12  -2   4    0.53    0.05
  12  -2  -4    0.58    0.05
 -12   2   4    0.59    0.05
 -11  -2   4    8.50    0.13
  11   2  -4    8.82    0.12
 -11   2   4    8.65    0.12
  11  -2  -4    8.49    0.13
 -11  -2   4    8.63    0.12
 -11   2   4    8.48    0.12
  10   2  -4    0.20    0.03
 -10   2   4    0.19    0.03
  10  -2  -4    0.17    0.04
 -10  -2   4    0.21    0.04
 -10   2   4    0.20    0.03
  10   2  -4    0.20    0.03
  10  -2  -4    0.20    0.03
  -9  -2   4    2.43    0.06
   9   2  -4    2.36    0.06
  -9   2   4    2.29    0.06
   9  -2  -4    2.37    0.06
   9   2  -4    2.22    0.06
  -9   2   4    2.33    0.06
   9  -2  -4    2.37    0.07
  -8  -2   4    0.58    0.04
   8   2  -4    0.56    0.03
   8  -2  -4    0.56    0.03
  -8   2   4    0.57    0.04
   8   2  -4    0.54    0.03
   8  -2  -4    0.57    0.04
  -8   2   4    0.59    0.04
   7  -2  -4    0.01    0.03
   7   2  -4    0.01    0.02
  -7   2   4    0.03    0.02
  -7  -2   4    0.00    0.02
  -7   2   4    0.00    0.02
   7  -2  -4    0.02    0.02
   7   2  -4    0.00    0.02
  -6  -2   4    5.29    0.08
  -6   2   4    5.35    0.08
   6   2  -4    5.24    0.08
   6  -2  -4    5.28    0.08
  -6   2   4    5.23    0.07
   6  -2  -4    5.45    0.08
   6   2  -4    5.23    0.07
   5   2  -4    1.34    0.05
  -5  -2   4    1.36    0.04
  -5   2   4    1.34    0.04
   5  -2  -4    1.34    0.05
   5   2  -4    1.34    0.05
   5   2  -4    1.38    0.03
  -5   2   4    1.39    0.04
   5  -2  -4    1.38    0.04
   4   2  -4    7.42    0.09
   4  -2  -4    7.15    0.09
  -4  -2   4    7.24    0.08
  -4   2   4    7.44    0.07
   4  -2  -4    7.34    0.06
  -4   2   4    7.30    0.09
   4   2  -4    7.29    0.07
   4  -2  -4    7.26    0.09
   4   2  -4    7.46    0.09
   3   2  -4    0.66    0.03
  -3  -2   4    0.71    0.03
  -3   2   4    0.76    0.03
   3   2  -4    0.74    0.04
   3  -2  -4    0.74    0.02
   3   2  -4    0.70    0.02
   3  -2  -4    0.66    0.04
   3  -2  -4    0.72    0.04
  -3   2   4    0.76    0.02
   2  -2  -4    6.71    0.07
   2   2  -4    6.74    0.09
  -2  -2   4    6.99    0.07
   2  -2  -4    6.96    0.06
   2  -2  -4    6.84    0.07
   2   2  -4    6.77    0.06
  -2   2   4    6.82    0.08
   2  -2  -4    6.76    0.09
   2  -2  -4    6.68    0.08
   2   2  -4    6.78    0.09
  -2   2   4    6.96    0.06
   1  -2  -4    2.24    0.04
   1   2  -4    2.22    0.05
  -1  -2   4    2.21    0.04
   1  -2  -4    2.29    0.03
   1   2  -4    2.18    0.03
   1  -2  -4    2.27    0.04
   1  -2  -4    2.18    0.05
  -1   2   4    2.32    0.04
   1  -2  -4    2.13    0.05
   1   2  -4    2.26    0.05
   0  -2  -4    5.50    0.06
   0   2  -4    5.50    0.08
   0  -2   4    5.60    0.06
   0   2  -4    5.44    0.05
   0   2  -4    5.43    0.07
   0  -2  -4    5.34    0.07
   0  -2  -4    5.10    0.08
   0   2   4    5.53    0.06
   0  -2  -4    5.33    0.07
   0   2  -4    5.47    0.08
  -1  -2  -4    3.70    0.05
  -1   2  -4    3.65    0.07
   1  -2   4    3.75    0.05
  -1   2  -4    3.53    0.05
  -1   2  -4    3.79    0.07
  -1  -2  -4    3.73    0.07
  -1  -2  -4    3.70    0.06
  -1  -2  -4    3.75    0.06
   1   2   4    3.79    0.05
  -1   2  -4    3.63    0.06
  -2  -2  -4    0.08    0.02
  -2   2  -4    0.06    0.02
  -2   2  -4    0.08    0.01
  -2  -2  -4    0.08    0.02
  -2   2  -4    0.06    0.03
   2   2   4    0.07    0.01
  -2  -2  -4    0.07    0.02
   2  -2   4    0.07    0.01
  -2  -2  -4    0.06    0.02
  -2   2  -4    0.06    0.02
  -3  -2  -4    0.60    0.03
  -3   2  -4    0.60    0.04
  -3   2  -4    0.52    0.02
   3  -2   4    0.61    0.02
  -3  -2  -4    0.63    0.04
  -3   2  -4    0.54    0.04
  -3  -2  -4    0.60    0.04
   3   2   4    0.57    0.02
  -3   2  -4    0.61    0.03
  -3  -2  -4    0.60    0.03
   4  -2   4    0.00    0.01
  -4  -2  -4    0.00    0.02
  -4   2  -4    0.00    0.03
  -4  -2  -4    0.00    0.03
  -4   2  -4    0.02    0.03
  -4  -2  -4    0.01    0.02
  -4  -2  -4    0.01    0.02
  -4   2  -4    0.00    0.02
  -5  -2  -4    0.25    0.02
  -5  -2  -4    0.19    0.02
  -5   2  -4    0.22    0.03
  -5   2  -4    0.23    0.03
  -5  -2  -4    0.23    0.03
  -5  -2  -4    0.22    0.03
  -5   2  -4    0.24    0.02
  -5   2  -4    0.24    0.02
  -6  -2  -4    0.07    0.02
  -6   2  -4    0.08    0.03
  -6  -2  -4    0.08    0.03
  -6   2  -4    0.09    0.03
  -6  -2  -4    0.06    0.03
  -7  -2  -4    1.10    0.04
  -7   2  -4    1.12    0.05
  -7  -2  -4    1.09    0.05
  -7   2  -4    1.06    0.06
  -7  -2  -4    1.08    0.06
  -8  -2  -4    1.81    0.05
  -8   2  -4    1.79    0.07
  -8  -2  -4    1.67    0.06
  -8   2  -4    1.72    0.06
  -8  -2  -4    1.76    0.06
  -9  -2  -4    0.01    0.03
  -9  -2  -4    0.04    0.03
  -9   2  -4    0.05    0.03
  -9   2  -4    0.04    0.04
 -10   2  -4    0.66    0.05
 -10  -2  -4    0.52    0.04
 -10   2  -4    0.59    0.05
 -10  -2  -4    0.74    0.05
 -11   2  -4    0.02    0.04
 -11   2  -4    0.01    0.04
 -11  -2  -4    0.00    0.04
 -12   2  -4    0.00    0.04
 -12  -2  -4    0.00    0.04
 -12   2  -4    0.00    0.04
 -13   2  -4    0.03    0.04
 -13   2  -4    0.06    0.04
 -13  -2  -4    0.06    0.04
 -14   2  -4    0.02    0.04
 -14   2  -4    0.01    0.04
 -14  -2  -4   -0.01    0.03
 -15   2  -4    0.05    0.03
  17   3  -4    0.01    0.03
 -16   3   4    0.01    0.04
 -16   3   4    0.02    0.04
 -16   3   4    0.00    0.04
 -16  -3   4    0.01    0.05
 -16  -3   4    0.02    0.03
  16  -3  -4   -0.01    0.04
  16   3  -4   -0.03    0.04
  15   3  -4    0.00    0.04
 -15   3   4    0.03    0.04
 -15   3   4   -0.01    0.04
 -15  -3   4   -0.02    0.04
 -15   3   4    0.01    0.03
  15  -3  -4    0.00    0.04
 -15  -3   4    0.00    0.03
 -14  -3   4    1.59    0.07
  14   3  -4    1.70    0.07
 -14   3   4    1.71    0.07
 -14   3   4    1.67    0.07
 -14  -3   4    1.74    0.07
 -14   3   4    1.59    0.07
  14  -3  -4    1.68    0.07
 -13   3   4    0.05    0.03
  13   3  -4    0.06    0.03
 -13   3   4    0.02    0.03
  13  -3  -4    0.06    0.04
 -13  -3   4    0.08    0.04
 -13  -3   4    0.06    0.04
  12   3  -4    0.17    0.04
 -12   3   4    0.17    0.04
  12  -3  -4    0.18    0.04
 -12  -3   4    0.16    0.04
 -12   3   4    0.19    0.04
  11  -3  -4    0.11    0.04
 -11   3   4    0.06    0.04
 -11   3   4    0.10    0.03
 -11  -3   4    0.06    0.04
  11   3  -4    0.08    0.03
  11   3  -4    0.06    0.03
 -10   3   4    7.36    0.11
 -10  -3   4    7.59    0.12
  10   3  -4    7.84    0.10
  10  -3  -4    7.95    0.11
  10   3  -4    7.68    0.11
 -10   3   4    7.85    0.12
  10  -3  -4    7.93    0.12
  -9  -3   4    1.25    0.05
   9   3  -4    1.19    0.04
  -9   3   4    1.18    0.05
   9  -3  -4    1.27    0.05
   9   3  -4    1.23    0.05
   9  -3  -4    1.21    0.06
  -9   3   4    1.26    0.05
  -8   3   4    0.40    0.04
  -8  -3   4    0.37    0.03
   8   3  -4    0.44    0.03
   8   3  -4    0.41    0.04
   8  -3  -4    0.39    0.03
   8  -3  -4    0.44    0.04
  -8   3   4    0.40    0.04
   7   3  -4    1.23    0.04
  -7  -3   4    1.25    0.05
  -7   3   4    1.15    0.05
   7  -3  -4    1.26    0.05
   7   3  -4    1.36    0.05
   7  -3  -4    1.23    0.05
  -7   3   4    1.21    0.05
  -6   3   4    0.00    0.02
  -6   3   4    0.00    0.02
  -6  -3   4    0.01    0.02
   6  -3  -4    0.01    0.03
   6  -3  -4    0.01    0.02
   6   3  -4    0.00    0.01
   6   3  -4    0.01    0.03
   5   3  -4    0.64    0.04
  -5  -3   4    0.70    0.03
   5  -3  -4    0.64    0.04
   5  -3  -4    0.67    0.04
   5  -3  -4    0.53    0.02
  -5   3   4    0.70    0.04
   5   3  -4    0.66    0.04
  -5   3   4    0.62    0.03
   5   3  -4    0.66    0.02
   4   3  -4    2.71    0.06
  -4  -3   4    2.71    0.06
   4  -3  -4    2.71    0.05
   4  -3  -4    2.71    0.05
   4  -3  -4    2.71    0.07
   4  -3  -4    2.71    0.07
  -4   3   4    2.71    0.06
   4   3  -4    2.71    0.07
  -4   3   4    2.71    0.05
   3   3  -4    5.20    0.08
  -3  -3   4    5.28    0.07
   3  -3  -4    5.32    0.07
   3  -3  -4    5.23    0.06
  -3   3   4    5.26    0.08
   3  -3  -4    5.36    0.08
   3  -3  -4    5.31    0.08
   3   3  -4    5.35    0.08
  -3   3   4    5.34    0.07
   2   3  -4    1.86    0.05
  -2  -3   4    1.95    0.04
   2  -3  -4    1.89    0.05
   2  -3  -4    1.95    0.04
   2  -3  -4    1.88    0.04
  -2   3   4    1.93    0.05
   2  -3  -4    1.94    0.05
   2   3  -4    1.89    0.05
   1   3  -4    1.25    0.04
  -1  -3   4    1.29    0.04
   1  -3  -4    1.36    0.03
   1  -3  -4    1.33    0.04
   1  -3  -4    1.31    0.05
   1  -3  -4    1.30    0.04
   1   3  -4    1.22    0.04
  -1   3   4    1.37    0.04
   0  -3  -4    7.71    0.07
   0   3  -4    7.94    0.10
   0  -3   4    8.04    0.08
   0  -3  -4    7.89    0.07
   0  -3  -4    7.50    0.10
   0  -3  -4    7.86    0.09
   0  -3  -4    8.02    0.10
   0   3   4    8.12    0.09
   0   3  -4    7.71    0.09
  -1  -3  -4    4.43    0.05
  -1   3  -4    4.35    0.08
  -1  -3  -4    4.41    0.05
   1  -3   4    4.43    0.06
  -1  -3  -4    4.36    0.08
  -1  -3  -4    4.54    0.07
   1   3   4    4.60    0.06
  -1   3  -4    4.35    0.07
  -1  -3  -4    4.30    0.07
  -2  -3  -4    0.11    0.01
  -2  -3  -4    0.11    0.01
   2  -3   4    0.13    0.02
  -2   3  -4    0.11    0.03
   2   3   4    0.14    0.02
  -2  -3  -4    0.14    0.03
  -2  -3  -4    0.13    0.03
  -2  -3  -4    0.15    0.03
  -2   3  -4    0.11    0.02
  -2   3  -4    0.11    0.02
  -3  -3  -4    1.69    0.04
  -3   3  -4    1.72    0.05
  -3   3  -4    1.49    0.04
   3  -3   4    1.63    0.04
  -3  -3  -4    1.67    0.05
  -3   3  -4    1.76    0.06
  -3  -3  -4    1.72    0.05
   3   3   4    1.70    0.04
  -3   3  -4    1.72    0.05
  -4   3  -4    0.28    0.03
   4  -3   4    0.28    0.02
  -4  -3  -4    0.27    0.04
  -4   3  -4    0.33    0.04
  -4  -3  -4    0.27    0.03
  -4   3  -4    0.28    0.02
   5  -3   4    0.02    0.02
  -5  -3  -4    0.02    0.03
  -5   3  -4    0.01    0.03
  -5  -3  -4    0.00    0.03
  -5   3  -4    0.02    0.03
  -5   3  -4    0.03    0.02
  -6   3  -4    0.33    0.04
  -6  -3  -4    0.33    0.04
  -6   3  -4    0.31    0.04
  -6  -3  -4    0.32    0.04
  -6   3  -4    0.23    0.02
  -7   3  -4    3.03    0.08
  -7  -3  -4    3.04    0.08
  -7   3  -4    3.04    0.08
  -7  -3  -4    3.20    0.08
  -8   3  -4    0.36    0.04
  -8  -3  -4    0.33    0.04
  -8   3  -4    0.32    0.04
  -8  -3  -4    0.31    0.04
  -9   3  -4    0.22    0.04
  -9  -3  -4    0.25    0.04
  -9   3  -4    0.22    0.04
  -9  -3  -4    0.22    0.04
 -10  -3  -4    0.19    0.04
 -10   3  -4    0.14    0.04
 -10   3  -4    0.17    0.04
 -11   3  -4    0.66    0.05
 -11   3  -4    0.59    0.05
 -11  -3  -4    0.65    0.05
 -12   3  -4    0.02    0.04
 -12   3  -4    0.03    0.04
 -12  -3  -4    0.04    0.04
 -13   3  -4   -0.01    0.04
 -13   3  -4   -0.01    0.04
 -13  -3  -4    0.04    0.04
 -14   3  -4    0.02    0.04
 -14  -3  -4    0.03    0.04
 -16   4   4    0.06    0.05
 -16   4   4    0.05    0.04
  16  -4  -4    0.02    0.04
 -16  -4   4    0.00    0.04
 -16   4   4    0.03    0.03
 -16  -4   4    0.00    0.03
 -15   4   4    0.03    0.04
  15  -4  -4    0.02    0.04
 -15   4   4    0.04    0.04
 -15  -4   4    0.06    0.05
 -15   4   4    0.02    0.03
 -15  -4   4   -0.02    0.03
 -14   4   4    0.14    0.04
  14  -4  -4    0.13    0.04
 -14   4   4    0.14    0.04
 -14   4   4    0.13    0.04
 -14  -4   4    0.17    0.05
 -13   4   4    0.18    0.04
  13  -4  -4    0.13    0.04
 -13   4   4    0.16    0.04
 -13   4   4    0.16    0.05
 -13  -4   4    0.14    0.04
  12  -4  -4    0.27    0.04
 -12   4   4    0.23    0.04
 -12   4   4    0.21    0.04
 -12   4   4    0.22    0.04
 -12  -4   4    0.21    0.04
 -11  -4   4    0.54    0.04
 -11   4   4    0.54    0.04
  11   4  -4    0.54    0.03
  11  -4  -4    0.54    0.05
 -11   4   4    0.54    0.04
 -10  -4   4    0.88    0.05
 -10   4   4    0.89    0.05
  10   4  -4    0.88    0.05
  10  -4  -4    0.87    0.05
 -10   4   4    0.77    0.05
  -9  -4   4    6.69    0.11
  -9   4   4    6.58    0.11
   9   4  -4    6.85    0.11
   9  -4  -4    6.65    0.11
  -9   4   4    6.80    0.11
  -8  -4   4    4.79    0.09
  -8   4   4    4.60    0.09
   8  -4  -4    4.75    0.09
   8   4  -4    4.74    0.09
  -8   4   4    4.94    0.09
   7  -4  -4    0.01    0.03
  -7   4   4    0.01    0.03
  -7   4   4    0.00    0.03
   7  -4  -4   -0.01    0.03
   7  -4  -4    0.02    0.03
  -7  -4   4    0.00    0.02
  -7  -4   4    0.01    0.03
   7   4  -4    0.01    0.03
   6  -4  -4    0.07    0.02
  -6   4   4    0.07    0.03
   6  -4  -4    0.02    0.03
  -6   4   4    0.06    0.03
   6  -4  -4    0.07    0.03
  -6  -4   4    0.07    0.03
   6   4  -4    0.04    0.03
   5   4  -4    3.73    0.07
  -5  -4   4    3.82    0.07
   5  -4  -4    3.84    0.07
  -5   4   4    3.76    0.08
   5  -4  -4    3.66    0.08
   5  -4  -4    3.78    0.08
   5   4  -4    3.79    0.08
  -5   4   4    3.61    0.07
   4   4  -4    0.58    0.04
  -4  -4   4    0.60    0.03
   4  -4  -4    0.60    0.03
   4   4  -4    0.61    0.04
   4  -4  -4    0.62    0.03
  -4   4   4    0.56    0.04
   4  -4  -4    0.58    0.04
   4  -4  -4    0.60    0.04
  -4   4   4    0.59    0.03
   3   4  -4    3.85    0.07
  -3  -4   4    3.65    0.07
   3  -4  -4    3.83    0.06
   3  -4  -4    3.80    0.06
   3   4  -4    3.81    0.08
  -3   4   4    3.85    0.07
   3  -4  -4    3.82    0.08
   2   4  -4    1.12    0.04
  -2  -4   4    1.17    0.04
   2  -4  -4    1.14    0.04
   2  -4  -4    1.12    0.04
  -2   4   4    1.13    0.04
   2  -4  -4    1.09    0.05
   2   4  -4    1.12    0.05
   1   4  -4    5.19    0.08
  -1  -4   4    5.26    0.08
   1  -4  -4    5.33    0.07
   1   4  -4    5.29    0.08
   1  -4  -4    5.41    0.09
  -1   4   4    5.40    0.08
   1   4  -4    5.21    0.09
   1  -4  -4    5.20    0.08
   0   4  -4    0.27    0.03
   0  -4   4    0.26    0.03
   0  -4  -4    0.28    0.02
   0  -4  -4    0.28    0.03
   0  -4  -4    0.29    0.03
   0   4  -4    0.30    0.03
   0   4   4    0.32    0.03
   0   4  -4    0.35    0.03
  -1   4  -4    0.07    0.03
  -1   4  -4    0.08    0.02
   1   4   4    0.09    0.02
  -1  -4  -4    0.09    0.03
  -1  -4  -4    0.08    0.03
  -1  -4  -4    0.09    0.02
   1  -4   4    0.07    0.02
  -1   4  -4    0.09    0.03
  -2   4  -4    8.03    0.10
  -2   4  -4    7.95    0.11
  -2  -4  -4    7.33    0.08
   2  -4   4    8.29    0.10
  -2  -4  -4    7.82    0.11
  -2  -4  -4    7.95    0.11
  -2   4  -4    7.85    0.09
   2   4   4    8.22    0.09
   3  -4   4    0.01    0.02
  -3   4  -4    0.00    0.03
  -3   4  -4    0.01    0.02
   3   4   4    0.01    0.02
  -3  -4  -4    0.01    0.03
  -3  -4  -4    0.02    0.03
  -3   4  -4    0.02    0.02
  -4   4  -4    6.06    0.10
   4  -4   4    6.00    0.09
  -4  -4  -4    6.19    0.10
  -4  -4  -4    6.00    0.10
  -4   4  -4    6.08    0.09
  -5   4  -4    0.28    0.04
   5  -4   4    0.26    0.03
  -5  -4  -4    0.31    0.04
  -5  -4  -4    0.28    0.04
  -5   4  -4    0.30    0.03
  -6   4  -4    1.47    0.06
  -6  -4  -4    1.47    0.06
  -6  -4  -4    1.51    0.06
  -7   4  -4    0.03    0.03
  -7  -4  -4    0.02    0.03
  -7  -4  -4    0.01    0.03
  -8  -4  -4    0.10    0.04
  -8   4  -4    0.07    0.04
  -8  -4  -4    0.11    0.04
  -9   4  -4    0.78    0.05
  -9  -4  -4    0.81    0.06
  -9  -4  -4    0.77    0.05
 -10   4  -4    0.04    0.04
 -10  -4  -4    0.03    0.04
 -11   4  -4    0.05    0.04
 -11  -4  -4    0.03    0.03
 -12   4  -4    0.01    0.04
 -12  -4  -4   -0.01    0.04
 -13   4  -4    0.14    0.05
 -13  -4  -4    0.16    0.04
 -15   5   4    0.07    0.04
  15  -5  -4    0.15    0.04
 -15   5   4    0.08    0.04
 -15   5   4    0.06    0.05
 -15  -5   4    0.11    0.05
  14  -5  -4    0.04    0.04
 -14   5   4    0.02    0.04
 -14   5   4    0.05    0.04
 -14   5   4    0.02    0.03
 -14  -5   4    0.02    0.04
  13  -5  -4    0.01    0.04
 -13   5   4    0.00    0.04
 -13   5   4   -0.01    0.04
 -13   5   4    0.01    0.04
 -13  -5   4    0.02    0.04
  12  -5  -4    0.11    0.04
 -12   5   4    0.12    0.03
 -12   5   4    0.12    0.04
 -12   5   4    0.13    0.04
 -12  -5   4    0.12    0.04
  11  -5  -4    0.17    0.04
  11  -5  -4    0.19    0.04
 -11   5   4    0.18    0.03
 -11   5   4    0.14    0.04
 -11   5   4    0.14    0.04
 -11  -5   4    0.16    0.04
  11   5  -4    0.19    0.04
 -10  -5   4    0.42    0.04
 -10   5   4    0.31    0.03
  10  -5  -4    0.41    0.05
 -10   5   4    0.39    0.05
  10  -5  -4    0.41    0.05
  10   5  -4    0.40    0.04
 -10   5   4    0.38    0.04
  -9  -5   4    0.68    0.05
   9  -5  -4    0.68    0.05
  -9   5   4    0.68    0.05
   9  -5  -4    0.68    0.05
   9   5  -4    0.68    0.05
  -9   5   4    0.68    0.05
  -8  -5   4    6.55    0.11
   8   5  -4    6.55    0.11
   8  -5  -4    6.53    0.11
  -8   5   4    6.50    0.11
   8  -5  -4    6.36    0.11
  -8   5   4    6.44    0.11
  -7  -5   4   11.13    0.14
   7  -5  -4   10.70    0.14
  -7   5   4   11.07    0.14
  -7  -5   4   11.19    0.13
   7  -5  -4   10.99    0.14
   7   5  -4   11.02    0.14
  -7   5   4   10.95    0.14
  -6  -5   4    8.87    0.12
   6  -5  -4    9.16    0.12
  -6   5   4    9.47    0.13
   6  -5  -4    9.09    0.13
   6   5  -4    9.10    0.13
  -6   5   4    9.17    0.12
   5   5  -4    2.56    0.06
  -5  -5   4    2.60    0.07
   5  -5  -4    2.59    0.07
  -5   5   4    2.64    0.07
   5  -5  -4    2.71    0.07
  -5   5   4    2.62    0.07
   5   5  -4    2.68    0.07
   4  -5  -4    0.02    0.02
   4   5  -4    0.04    0.03
   4  -5  -4    0.04    0.03
  -4   5   4    0.04    0.03
   4  -5  -4    0.04    0.02
  -4  -5   4    0.06    0.03
   4   5  -4    0.03    0.03
   3   5  -4    0.65    0.04
  -3  -5   4    0.66    0.04
   3  -5  -4    0.67    0.04
   3   5  -4    0.62    0.04
   3  -5  -4    0.63    0.03
  -3   5   4    0.65    0.04
   3  -5  -4    0.66    0.04
   3   5  -4    0.70    0.04
   2  -5  -4    0.00    0.02
   2  -5  -4    0.02    0.03
   2   5  -4    0.00    0.03
   2   5  -4    0.00    0.03
  -2   5   4    0.00    0.03
   2  -5  -4    0.00    0.02
  -2  -5   4    0.00    0.02
   2   5  -4    0.01    0.03
   1   5  -4    0.60    0.04
  -1  -5   4    0.54    0.04
   1  -5  -4    0.55    0.03
   1   5  -4    0.51    0.04
   1  -5  -4    0.53    0.03
   1  -5  -4    0.57    0.04
  -1   5   4    0.56    0.04
   1   5  -4    0.56    0.04
   0   5  -4    0.26    0.03
   0  -5   4    0.24    0.03
   0  -5  -4    0.25    0.03
   0   5  -4    0.24    0.03
   0  -5  -4    0.25    0.03
   0   5   4    0.24    0.03
   0   5  -4    0.27    0.03
   0  -5  -4    0.24    0.03
  -1   5  -4    0.50    0.04
  -1  -5  -4    0.47    0.03
   1  -5   4    0.53    0.04
  -1  -5  -4    0.48    0.04
  -1  -5  -4    0.47    0.04
  -1   5  -4    0.46    0.03
   1   5   4    0.53    0.04
  -1   5  -4    0.48    0.04
  -2   5  -4    0.56    0.04
  -2  -5  -4    0.37    0.03
   2  -5   4    0.49    0.04
  -2  -5  -4    0.58    0.04
  -2  -5  -4    0.48    0.04
  -2   5  -4    0.54    0.04
   2   5   4    0.53    0.04
  -2   5  -4    0.57    0.04
  -3   5  -4    4.31    0.09
   3  -5   4    4.45    0.08
  -3  -5  -4    4.36    0.09
  -3  -5  -4    4.35    0.09
  -3   5  -4    4.59    0.08
   3   5   4    4.56    0.08
  -3   5  -4    4.47    0.08
   4  -5   4    0.06    0.03
  -4   5  -4    0.03    0.03
  -4  -5  -4    0.04    0.03
  -4  -5  -4    0.02    0.03
  -4   5  -4    0.03    0.03
  -5   5  -4    2.41    0.07
   5  -5   4    2.45    0.07
  -5  -5  -4    2.41    0.07
  -5  -5  -4    2.41    0.07
  -5   5  -4    2.04    0.06
   6  -5   4    0.04    0.03
  -6   5  -4    0.05    0.04
  -6  -5  -4    0.08    0.04
  -6  -5  -4    0.07    0.04
  -7   5  -4    0.06    0.04
  -7  -5  -4    0.11    0.04
  -7  -5  -4    0.05    0.04
  -8  -5  -4   -0.01    0.04
  -8   5  -4    0.02    0.04
  -8  -5  -4    0.01    0.04
  -9  -5  -4    0.28    0.05
  -9   5  -4    0.29    0.05
  -9  -5  -4    0.28    0.04
 -10   5  -4    0.05    0.04
 -10  -5  -4    0.02    0.04
 -11   5  -4    0.00    0.04
 -11  -5  -4    0.01    0.04
 -12   5  -4    0.17    0.05
 -12  -5  -4    0.18    0.05
  14  -6  -4    0.16    0.05
 -14   6   4    0.17    0.05
  14  -6  -4    0.13    0.04
  13  -6  -4    0.17    0.05
 -13   6   4    0.16    0.05
 -13   6   4    0.15    0.04
 -13  -6   4    0.23    0.05
  13  -6  -4    0.17    0.04
  12  -6  -4    0.08    0.04
 -12   6   4    0.04    0.04
 -12   6   4    0.04    0.03
 -12  -6   4    0.04    0.04
  12  -6  -4    0.06    0.03
 -11  -6   4    1.52    0.07
  11  -6  -4    1.38    0.07
 -11   6   4    1.43    0.07
  11  -6  -4    1.63    0.07
  11   6  -4    1.43    0.06
 -11   6   4    1.44    0.07
  10  -6  -4    0.00    0.03
  10  -6  -4    0.03    0.04
 -10   6   4    0.03    0.04
 -10   6   4    0.05    0.04
 -10  -6   4    0.01    0.03
  10   6  -4    0.04    0.04
   9  -6  -4    0.04    0.04
  -9   6   4    0.05    0.04
   9  -6  -4    0.04    0.04
  -9   6   4    0.02    0.03
  -9  -6   4    0.03    0.04
   9   6  -4    0.02    0.03
   8  -6  -4    0.06    0.03
  -8   6   4    0.06    0.03
   8  -6  -4    0.04    0.04
  -8   6   4    0.06    0.03
  -8  -6   4    0.05    0.04
  -8  -6   4    0.05    0.03
   8   6  -4    0.04    0.03
   7  -6  -4    0.14    0.04
  -7   6   4    0.14    0.04
   7  -6  -4    0.17    0.04
  -7   6   4    0.14    0.03
  -7  -6   4    0.17    0.04
  -7  -6   4    0.14    0.03
   7   6  -4    0.15    0.04
   6  -6  -4    0.04    0.03
   6  -6  -4    0.01    0.03
  -6   6   4    0.02    0.04
  -6  -6   4    0.03    0.03
  -6  -6   4    0.04    0.03
   6   6  -4    0.03    0.04
   5   6  -4    0.20    0.03
  -5  -6   4    0.30    0.04
   5  -6  -4    0.31    0.04
   5  -6  -4    0.32    0.04
  -5   6   4    0.32    0.04
   5   6  -4    0.32    0.04
   4   6  -4    4.69    0.08
  -4  -6   4    4.84    0.10
   4  -6  -4    4.96    0.09
   4   6  -4    4.58    0.10
   4  -6  -4    4.63    0.08
  -4   6   4    4.98    0.10
   4  -6  -4    5.04    0.10
   4   6  -4    4.65    0.10
   3   6  -4    1.96    0.06
  -3  -6   4    1.93    0.07
   3  -6  -4    1.93    0.06
   3   6  -4    1.95    0.07
   3  -6  -4    1.92    0.06
  -3   6   4    2.04    0.07
   3  -6  -4    1.98    0.07
   3   6  -4    1.89    0.07
   2   6  -4    0.45    0.04
  -2  -6   4    0.41    0.04
   2  -6  -4    0.43    0.04
   2   6  -4    0.39    0.04
   2  -6  -4    0.43    0.04
   2  -6  -4    0.43    0.04
  -2   6   4    0.40    0.04
   2   6  -4    0.48    0.04
   1   6  -4    1.08    0.05
  -1  -6   4    1.21    0.05
   1  -6  -4    1.15    0.05
   1  -6  -4    1.15    0.05
   1   6  -4    1.12    0.05
   1  -6  -4    1.19    0.05
  -1   6   4    1.18    0.05
   1   6  -4    1.25    0.06
   0   6  -4    7.97    0.11
   0  -6   4    7.97    0.12
   0  -6  -4    7.88    0.11
   0  -6  -4    7.83    0.12
   0   6  -4    7.90    0.12
   0  -6  -4    7.93    0.12
   0   6   4    7.96    0.12
   0   6  -4    7.65    0.12
  -1   6  -4    3.15    0.08
   1  -6   4    3.24    0.08
  -1  -6  -4    3.07    0.08
  -1  -6  -4    3.12    0.08
  -1   6  -4    3.04    0.08
   1   6   4    3.33    0.08
  -1   6  -4    3.24    0.08
  -2   6  -4    0.44    0.04
   2  -6   4    0.46    0.04
  -2  -6  -4    0.42    0.05
  -2  -6  -4    0.45    0.04
  -2   6  -4    0.47    0.04
   2   6   4    0.48    0.04
  -2   6  -4    0.47    0.04
  -3   6  -4    0.00    0.02
  -3   6  -4    0.01    0.03
   3   6   4    0.03    0.03
  -3  -6  -4    0.01    0.03
  -3  -6  -4    0.02    0.03
   3  -6   4    0.00    0.03
  -3   6  -4    0.02    0.03
  -4   6  -4    0.26    0.04
   4  -6   4    0.26    0.04
  -4  -6  -4    0.26    0.04
  -4  -6  -4    0.26    0.04
  -4   6  -4    0.26    0.04
  -5   6  -4    0.43    0.04
   5  -6   4    0.43    0.04
  -5  -6  -4    0.48    0.05
  -5  -6  -4    0.40    0.05
  -5   6  -4    0.34    0.03
  -6   6  -4    1.86    0.07
   6  -6   4    1.82    0.07
  -6  -6  -4    1.81    0.07
  -6  -6  -4    1.85    0.07
  -7   6  -4    0.15    0.04
  -7  -6  -4    0.15    0.04
  -7  -6  -4    0.16    0.04
  -8   6  -4    1.28    0.07
  -8  -6  -4    1.25    0.07
  -8  -6  -4    1.19    0.07
  -9  -6  -4    0.02    0.04
  -9   6  -4   -0.01    0.04
  -9  -6  -4    0.05    0.04
 -10   6  -4    0.51    0.06
 -10  -6  -4    0.47    0.05
 -10  -6  -4    0.46    0.06
 -11   6  -4    0.02    0.04
 -11  -6  -4    0.01    0.03
  13  -7  -4    0.17    0.04
 -12  -7   4    0.55    0.06
  12  -7  -4    0.55    0.06
  12  -7  -4    0.55    0.05
 -12   7   4    0.55    0.06
 -11  -7   4    0.41    0.05
  11  -7  -4    0.37    0.05
 -11   7   4    0.50    0.05
  11  -7  -4    0.40    0.05
  11   7  -4    0.43    0.05
 -11   7   4    0.47    0.05
 -10  -7   4    1.03    0.07
  10  -7  -4    0.89    0.06
 -10   7   4    0.85    0.06
  10  -7  -4    0.94    0.06
  10   7  -4    0.99    0.06
 -10   7   4    0.90    0.06
   9  -7  -4    0.08    0.04
   9  -7  -4    0.12    0.04
  -9  -7   4    0.07    0.04
  -9   7   4    0.07    0.04
  -9   7   4    0.11    0.04
   9   7  -4    0.11    0.04
   8  -7  -4    0.01    0.04
  -8  -7   4    0.02    0.03
   8  -7  -4    0.02    0.04
  -8   7   4    0.00    0.04
  -8  -7   4    0.00    0.04
   8   7  -4    0.01    0.03
   7  -7  -4    0.12    0.04
   7  -7  -4    0.08    0.03
  -7   7   4    0.09    0.04
  -7  -7   4    0.10    0.04
  -7  -7   4    0.12    0.04
   7   7  -4    0.13    0.04
   6  -7  -4    0.03    0.04
   6  -7  -4    0.03    0.03
  -6   7   4    0.02    0.03
  -6  -7   4    0.04    0.04
  -6  -7   4    0.04    0.03
   6   7  -4    0.03    0.03
   5  -7  -4    0.00    0.03
   5  -7  -4    0.00    0.03
   5   7  -4    0.00    0.04
  -5   7   4    0.02    0.04
  -5  -7   4    0.01    0.03
   5   7  -4    0.00    0.04
   4  -7  -4    0.13    0.04
   4  -7  -4    0.13    0.04
   4   7  -4    0.08    0.04
  -4   7   4    0.05    0.04
   4  -7  -4    0.05    0.02
  -4  -7   4    0.09    0.04
   4   7  -4    0.12    0.04
  -3  -7   4    8.17    0.13
   3  -7  -4    8.03    0.12
   3   7  -4    8.05    0.14
   3  -7  -4    8.06    0.12
   3  -7  -4    8.38    0.13
  -3   7   4    7.90    0.13
   3   7  -4    7.68    0.13
  -2  -7   4    4.74    0.10
   2  -7  -4    4.62    0.09
   2  -7  -4    4.63    0.10
   2   7  -4    4.66    0.10
   2  -7  -4    4.67    0.10
  -2   7   4    4.71    0.10
   2   7  -4    4.62    0.10
  -1  -7   4    1.76    0.07
   1  -7  -4    1.78    0.06
   1  -7  -4    1.84    0.07
   1   7  -4    1.82    0.07
   1  -7  -4    1.82    0.07
   1   7  -4    1.85    0.07
  -1   7   4    1.85    0.07
   0  -7  -4    0.03    0.04
   0   7  -4    0.05    0.03
   0   7   4    0.03    0.03
   0  -7  -4    0.01    0.04
   0  -7   4    0.01    0.04
   0  -7  -4    0.05    0.03
   0   7  -4    0.08    0.04
  -1   7  -4    0.05    0.03
   1   7   4    0.05    0.03
  -1  -7  -4    0.05    0.03
  -1  -7  -4    0.04    0.04
   1  -7   4    0.05    0.04
  -1   7  -4    0.07    0.04
  -2   7  -4    0.98    0.05
   2  -7   4    1.09    0.06
  -2  -7  -4    1.08    0.06
  -2  -7  -4    1.01    0.06
  -2   7  -4    1.10    0.05
   2   7   4    1.15    0.05
  -2   7  -4    0.99    0.05
  -3   7  -4    0.09    0.03
  -3  -7  -4    0.07    0.04
  -3   7  -4    0.09    0.04
   3   7   4    0.07    0.03
  -3  -7  -4    0.10    0.04
   3  -7   4    0.08    0.04
  -3   7  -4    0.06    0.04
  -4   7  -4    0.07    0.03
  -4  -7  -4    0.07    0.04
  -4   7  -4    0.08    0.03
  -4  -7  -4    0.12    0.04
   4  -7   4    0.08    0.03
  -5   7  -4    0.01    0.03
  -5  -7  -4    0.01    0.03
  -5  -7  -4    0.00    0.04
   5  -7   4   -0.01    0.03
  -6   7  -4    0.78    0.06
   6  -7   4    0.83    0.06
  -6  -7  -4    0.89    0.06
  -6  -7  -4    0.86    0.06
  -7   7  -4    0.06    0.04
  -7  -7  -4    0.04    0.04
  -7  -7  -4    0.11    0.05
  -8   7  -4    0.71    0.05
  -8  -7  -4    0.65    0.05
  -8  -7  -4    0.65    0.06
  -9   7  -4    2.45    0.09
  -9  -7  -4    2.45    0.09
  -9  -7  -4    2.29    0.09
 -10   7  -4    0.01    0.04
  10  -8  -4    0.07    0.04
 -10  -8   4    0.09    0.04
  10   8  -4    0.11    0.04
   9  -8  -4    0.08    0.04
  -9  -8   4    0.15    0.05
   9   8  -4    0.12    0.04
   8  -8  -4    0.27    0.05
  -8   8   4    0.23    0.05
  -8  -8   4    0.26    0.05
  -8  -8   4    0.25    0.04
   8   8  -4    0.25    0.04
  -7  -8   4    1.01    0.06
   7  -8  -4    1.02    0.06
  -7   8   4    0.91    0.06
  -7  -8   4    0.95    0.06
   7  -8  -4    1.03    0.06
   7   8  -4    1.02    0.06
   6  -8  -4    0.07    0.04
   6  -8  -4    0.05    0.04
  -6   8   4    0.05    0.04
  -6  -8   4    0.07    0.04
  -6  -8   4    0.03    0.03
   6   8  -4    0.08    0.04
   5  -8  -4    0.14    0.05
   5  -8  -4    0.06    0.03
   5   8  -4    0.06    0.04
  -5   8   4    0.06    0.04
  -5  -8   4    0.09    0.04
  -5  -8   4    0.12    0.04
   5   8  -4    0.13    0.04
   4  -8  -4    0.03    0.03
   4   8  -4    0.04    0.04
  -4   8   4    0.02    0.04
  -4  -8   4    0.04    0.04
   4   8  -4    0.02    0.04
   4  -8  -4   -0.01    0.04
  -3  -8   4    0.81    0.05
   3  -8  -4    0.80    0.05
   3  -8  -4    0.78    0.05
   3   8  -4    0.80    0.06
   3  -8  -4    0.75    0.05
  -3   8   4    0.79    0.06
   3   8  -4    0.79    0.05
   2  -8  -4    0.11    0.04
   2   8  -4    0.05    0.04
  -2   8   4    0.07    0.04
  -2  -8   4    0.05    0.04
   2  -8  -4    0.06    0.03
   2  -8  -4    0.03    0.04
   2   8  -4    0.14    0.05
  -1  -8   4    0.90    0.06
   1  -8  -4    0.92    0.05
   1  -8  -4    0.83    0.05
   1   8  -4    0.92    0.06
   1  -8  -4    0.91    0.06
  -1   8   4    0.83    0.06
   1   8  -4    0.86    0.06
   0  -8   4    0.81    0.06
   0  -8  -4    0.83    0.05
   0   8  -4    0.79    0.05
   0  -8  -4    0.80    0.05
   0   8   4    0.82    0.05
   0   8  -4    0.74    0.05
  -1   8  -4    0.07    0.04
   1   8   4    0.06    0.04
  -1  -8  -4    0.05    0.03
  -1  -8  -4    0.03    0.03
   1  -8   4    0.06    0.03
  -1   8  -4    0.03    0.04
  -2  -8  -4   -0.03    0.03
  -2   8  -4    0.02    0.04
   2   8   4    0.00    0.03
  -2  -8  -4    0.00    0.03
   2  -8   4    0.00    0.04
  -2   8  -4   -0.01    0.04
  -3  -8  -4    0.03    0.04
  -3   8  -4    0.02    0.04
  -3  -8  -4    0.03    0.04
   3  -8   4    0.01    0.04
  -3   8  -4    0.04    0.04
  -4  -8  -4    0.01    0.03
  -4  -8  -4    0.01    0.04
   4  -8   4    0.03    0.04
  -4   8  -4    0.00    0.04
  -5  -8  -4    0.04    0.04
  -5  -8  -4    0.06    0.04
   5  -8   4    0.06    0.04
  -6  -8  -4    0.16    0.04
  -6  -8  -4    0.10    0.05
   6  -8   4    0.10    0.05
  -7  -8  -4    0.13    0.04
  -7  -8  -4    0.12    0.04
  -8  -8  -4    0.10    0.03
   8  -9  -4    0.38    0.05
  -8  -9   4    0.26    0.04
   7  -9  -4    0.18    0.05
  -7  -9   4    0.16    0.04
   6  -9  -4    0.01    0.04
  -6  -9   4    0.03    0.03
  -6  -9   4    0.00    0.04
   6   9  -4    0.02    0.04
  -5  -9   4    0.10    0.04
  -5  -9   4    0.08    0.04
   5   9  -4    0.14    0.05
   5  -9  -4    0.06    0.04
  -4  -9   4    0.07    0.04
  -4  -9   4    0.02    0.04
   4  -9  -4    0.07    0.04
   4   9  -4    0.08    0.05
  -3  -9   4    0.20    0.04
   3  -9  -4    0.25    0.04
   3   9  -4    0.23    0.04
   2   9  -4    0.00    0.03
  -2   9   4    0.04    0.04
   2  -9  -4    0.07    0.04
  -2  -9   4    0.01    0.04
   2  -9  -4    0.02    0.04
   2   9  -4    0.05    0.05
  -1   9   4    0.22    0.04
   1   9  -4    0.22    0.04
   1  -9  -4    0.23    0.04
  -1  -9   4    0.22    0.05
   1   9  -4    0.26    0.05
   0   9  -4    0.06    0.04
   0   9   4    0.04    0.04
   0  -9  -4    0.03    0.03
   0  -9   4    0.06    0.05
   0   9  -4    0.01    0.04
  -1   9  -4    0.12    0.04
   1   9   4    0.09    0.04
  -1  -9  -4    0.08    0.04
   1  -9   4    0.08    0.04
  -1   9  -4    0.11    0.04
  -2   9  -4    0.06    0.03
   2   9   4    0.06    0.03
  -2  -9  -4    0.09    0.04
   2  -9   4    0.07    0.04
  -2   9  -4    0.09    0.04
  -3  -9  -4    0.01    0.04
   3  -9   4    0.00    0.04
  -3   9  -4   -0.01    0.03
  -4  -9  -4    0.07    0.04
   4  -9   4    0.09    0.04
  -4   9  -4    0.09    0.04
   5  -9   4    0.04    0.03
  17   0  -5   -0.01    0.04
 -17   0   5   -0.01    0.04
 -17   0   5    0.00    0.03
  16   0  -5    0.00    0.04
 -16   0   5    0.03    0.04
 -16   0   5    0.00    0.03
  15   0  -5   -0.02    0.04
 -15   0   5    0.02    0.04
 -15   0   5   -0.01    0.03
 -14   0   5    0.02    0.04
 -14   0   5    0.00    0.03
  14   0  -5    0.00    0.04
 -13   0   5    0.01    0.03
 -13   0   5    0.01    0.04
  13   0  -5    0.00    0.04
 -12   0   5    0.00    0.03
 -12   0   5    0.01    0.03
  12   0  -5    0.01    0.04
 -11   0   5    0.00    0.03
 -11   0   5   -0.01    0.03
  11   0  -5    0.02    0.03
  11   0  -5    0.01    0.03
  10   0  -5   -0.01    0.03
 -10   0   5    0.00    0.03
  10   0  -5   -0.01    0.03
 -10   0   5    0.00    0.03
   9   0  -5   -0.01    0.03
  -9   0   5    0.00    0.03
  -9   0   5    0.00    0.03
   9   0  -5   -0.01    0.03
   8   0  -5    0.00    0.03
  -8   0   5    0.00    0.02
  -8   0   5   -0.01    0.03
   8   0  -5   -0.01    0.03
   7   0  -5    0.02    0.03
  -7   0   5    0.02    0.02
  -7   0   5    0.01    0.03
   7   0  -5    0.03    0.03
  -6   0   5    0.02    0.02
   6   0  -5    0.02    0.02
   6   0  -5    0.02    0.03
  -6   0   5    0.03    0.02
  -5   0   5    0.00    0.01
   5   0  -5   -0.01    0.02
  -5   0   5   -0.01    0.02
   5   0  -5    0.01    0.02
   4   0  -5    0.00    0.02
   4   0  -5    0.00    0.02
   4   0  -5    0.00    0.01
  -4   0   5    0.01    0.01
  -4   0   5   -0.01    0.02
   4   0  -5   -0.02    0.03
   3   0  -5    0.01    0.02
   3   0  -5    0.00    0.02
  -3   0   5    0.00    0.01
  -3   0   5    0.00    0.02
   3   0  -5    0.00    0.01
   3   0  -5   -0.01    0.02
   2   0  -5    0.01    0.02
   2   0  -5    0.00    0.02
  -2   0   5    0.00    0.02
   2   0  -5    0.01    0.01
   2   0  -5    0.00    0.02
  -1   0   5    0.00    0.01
   1   0  -5    0.00    0.02
   1   0  -5    0.00    0.02
   1   0  -5   -0.01    0.02
   0   0  -5    0.00    0.02
   0   0  -5    0.00    0.02
   0   0   5    0.00    0.01
   0   0  -5    0.00    0.02
   0   0  -5   -0.01    0.02
  -1   0  -5    0.00    0.02
  -1   0  -5    0.00    0.02
  -1   0  -5    0.00    0.02
   1   0   5    0.00    0.01
  -1   0  -5    0.01    0.02
  -2   0  -5    0.01    0.02
  -2   0  -5   -0.02    0.03
  -2   0  -5    0.01    0.03
  -2   0  -5    0.01    0.02
  -3   0  -5    0.01    0.03
  -3   0  -5    0.00    0.03
  -3   0  -5    0.00    0.03
  -3   0  -5    0.00    0.02
  -4   0  -5    0.00    0.03
  -4   0  -5    0.00    0.03
  -4   0  -5    0.00    0.03
  -4   0  -5    0.01    0.02
  -5   0  -5   -0.01    0.03
  -5   0  -5    0.01    0.03
  -5   0  -5    0.00    0.03
  -6   0  -5    0.00    0.03
  -6   0  -5   -0.01    0.03
  -6   0  -5    0.01    0.03
  -7   0  -5   -0.01    0.03
  -7   0  -5   -0.02    0.03
  -7   0  -5    0.02    0.04
  -8   0  -5   -0.02    0.03
  -8   0  -5    0.00    0.04
  -9   0  -5   -0.01    0.03
  -9   0  -5    0.02    0.04
 -10   0  -5    0.01    0.03
 -10   0  -5    0.02    0.04
 -11   0  -5   -0.01    0.04
 -11   0  -5   -0.01    0.03
 -12   0  -5   -0.02    0.04
 -12   0  -5   -0.01    0.04
 -13   0  -5    0.00    0.04
 -13   0  -5    0.00    0.04
 -14   0  -5    0.00    0.03
 -17   1   5    0.01    0.03
 -17  -1   5    0.03    0.03
  17   1  -5    0.02    0.04
 -17   1   5    0.03    0.04
 -17  -1   5    0.07    0.05
  17  -1  -5   -0.02    0.05
  16   1  -5    0.04    0.04
 -16   1   5    0.08    0.04
 -16  -1   5    0.13    0.05
 -16   1   5    0.06    0.04
 -16  -1   5    0.04    0.04
  16  -1  -5    0.07    0.04
  15   1  -5    0.14    0.04
 -15   1   5    0.16    0.05
 -15   1   5    0.15    0.04
 -15  -1   5    0.13    0.04
 -15  -1   5    0.16    0.04
  15  -1  -5    0.15    0.04
  14   1  -5   -0.02    0.04
 -14   1   5    0.00    0.04
 -14  -1   5    0.00    0.03
 -14   1   5   -0.01    0.03
 -14  -1   5   -0.01    0.04
  14  -1  -5    0.00    0.04
  13   1  -5    0.02    0.03
 -13   1   5    0.04    0.04
 -13  -1   5    0.03    0.03
  13  -1  -5    0.06    0.04
 -13   1   5    0.04    0.03
 -13  -1   5    0.05    0.04
  12   1  -5    2.76    0.08
 -12  -1   5    2.81    0.08
 -12   1   5    2.84    0.08
 -12   1   5    2.68    0.08
  12  -1  -5    2.68    0.08
 -12  -1   5    2.79    0.08
  11  -1  -5    0.26    0.04
 -11   1   5    0.24    0.04
 -11  -1   5    0.23    0.04
 -11   1   5    0.24    0.04
 -11  -1   5    0.23    0.04
  11  -1  -5    0.24    0.03
  11   1  -5    0.26    0.03
  11   1  -5    0.22    0.04
  10  -1  -5    0.14    0.04
 -10   1   5    0.15    0.03
 -10  -1   5    0.17    0.03
 -10   1   5    0.16    0.04
 -10  -1   5    0.22    0.04
  10   1  -5    0.16    0.03
  10  -1  -5    0.14    0.03
  10   1  -5    0.17    0.03
   9  -1  -5    0.22    0.04
  -9   1   5    0.26    0.04
  -9  -1   5    0.20    0.03
  -9  -1   5    0.20    0.03
   9  -1  -5    0.22    0.03
   9   1  -5    0.21    0.03
  -9   1   5    0.23    0.03
   9   1  -5    0.24    0.03
  -8  -1   5   15.78    0.14
  -8   1   5   16.38    0.16
  -8  -1   5   16.91    0.16
   8  -1  -5   16.48    0.15
   8   1  -5   16.55    0.15
   8  -1  -5   16.28    0.16
   8   1  -5   16.51    0.15
  -8   1   5   16.28    0.14
  -7  -1   5    0.23    0.03
  -7   1   5    0.25    0.03
  -7  -1   5    0.22    0.03
   7   1  -5    0.24    0.03
   7  -1  -5    0.25    0.03
   7   1  -5    0.23    0.03
  -7   1   5    0.23    0.03
   7  -1  -5    0.24    0.03
  -6   1   5    0.03    0.02
  -6  -1   5    0.01    0.02
  -6   1   5    0.01    0.02
  -6  -1   5    0.01    0.02
   6  -1  -5    0.02    0.03
   6  -1  -5    0.00    0.03
   6   1  -5    0.03    0.02
   6   1  -5    0.02    0.02
  -5  -1   5    6.81    0.08
   5   1  -5    6.63    0.10
  -5   1   5    7.00    0.09
  -5  -1   5    6.91    0.09
   5  -1  -5    6.92    0.09
   5   1  -5    6.88    0.08
   5  -1  -5    7.01    0.10
   5   1  -5    7.03    0.10
  -5   1   5    6.81    0.07
  -4  -1   5    7.56    0.07
   4   1  -5    7.38    0.10
  -4   1   5    7.64    0.09
   4  -1  -5    7.48    0.10
   4  -1  -5    7.69    0.06
   4   1  -5    7.37    0.08
   4  -1  -5    7.43    0.10
   4   1  -5    7.63    0.10
  -4   1   5    7.59    0.07
  -4  -1   5    7.77    0.09
   3  -1  -5    0.38    0.03
  -3  -1   5    0.44    0.02
   3   1  -5    0.42    0.03
   3   1  -5    0.45    0.02
   3  -1  -5    0.36    0.02
  -3   1   5    0.42    0.03
  -3  -1   5    0.48    0.03
   3   1  -5    0.44    0.02
   3  -1  -5    0.39    0.03
   3  -1  -5    0.39    0.03
   3   1  -5    0.44    0.03
   2  -1  -5    0.44    0.03
   2   1  -5    0.45    0.03
   2   1  -5    0.43    0.02
   2  -1  -5    0.47    0.02
   2   1  -5    0.43    0.02
   2  -1  -5    0.45    0.03
  -2  -1   5    0.44    0.03
   2  -1  -5    0.49    0.03
   2   1  -5    0.47    0.03
  -2   1   5    0.49    0.03
   1  -1  -5    0.85    0.03
   1   1  -5    0.84    0.04
   1   1  -5    0.89    0.03
   1  -1  -5    0.90    0.03
   1   1  -5    0.85    0.03
   1  -1  -5    0.84    0.04
  -1   1   5    0.93    0.03
  -1  -1   5    0.90    0.03
   1  -1  -5    0.85    0.04
   1   1  -5    0.83    0.04
   0  -1  -5    0.36    0.03
   0   1  -5    0.42    0.03
   0  -1   5    0.45    0.02
   0   1  -5    0.44    0.03
   0   1  -5    0.43    0.02
   0  -1  -5    0.45    0.03
   0  -1  -5    0.42    0.03
   0   1   5    0.44    0.02
   0  -1  -5    0.43    0.03
   0   1  -5    0.41    0.03
  -1  -1  -5    1.27    0.04
  -1   1  -5    1.28    0.05
  -1   1  -5    1.34    0.04
  -1   1  -5    1.25    0.04
  -1  -1  -5    1.24    0.04
  -1  -1  -5    1.36    0.04
   1  -1   5    1.40    0.03
   1   1   5    1.33    0.03
  -1  -1  -5    1.30    0.04
  -1   1  -5    1.29    0.04
  -2  -1  -5    1.04    0.04
  -2   1  -5    1.00    0.04
  -2   1  -5    1.01    0.04
  -2  -1  -5    0.97    0.04
  -2   1  -5    1.02    0.04
  -2  -1  -5    1.24    0.05
  -2  -1  -5    1.04    0.04
  -2   1  -5    1.01    0.04
  -3  -1  -5    3.69    0.07
  -3   1  -5    3.74    0.08
  -3   1  -5    3.61    0.06
  -3  -1  -5    3.64    0.08
  -3   1  -5    3.54    0.07
  -3  -1  -5    3.65    0.08
  -3  -1  -5    3.73    0.07
  -3   1  -5    3.66    0.06
  -4  -1  -5    0.10    0.03
  -4   1  -5    0.12    0.03
  -4   1  -5    0.11    0.02
  -4  -1  -5    0.10    0.03
  -4   1  -5    0.14    0.03
  -4  -1  -5    0.10    0.03
  -4  -1  -5    0.11    0.02
  -4   1  -5    0.10    0.02
  -5  -1  -5    0.54    0.03
  -5   1  -5    0.51    0.04
  -5   1  -5    0.50    0.03
  -5  -1  -5    0.52    0.04
  -5   1  -5    0.54    0.04
  -5  -1  -5    0.50    0.04
  -5  -1  -5    0.41    0.03
  -6  -1  -5    0.34    0.03
  -6   1  -5    0.32    0.04
  -6  -1  -5    0.28    0.04
  -6   1  -5    0.33    0.04
  -6  -1  -5    0.27    0.04
  -7  -1  -5    2.48    0.07
  -7   1  -5    2.44    0.07
  -7  -1  -5    2.55    0.07
  -7   1  -5    2.35    0.07
  -7  -1  -5    2.46    0.08
  -8  -1  -5    0.02    0.04
  -8  -1  -5    0.02    0.03
  -8   1  -5    0.02    0.04
  -8   1  -5    0.02    0.04
  -8  -1  -5    0.01    0.04
  -9  -1  -5    0.02    0.03
  -9   1  -5   -0.02    0.04
  -9   1  -5   -0.01    0.03
  -9  -1  -5    0.02    0.04
 -10  -1  -5    0.13    0.04
 -10   1  -5    0.10    0.04
 -10   1  -5    0.13    0.04
 -10  -1  -5    0.08    0.04
 -11  -1  -5    0.03    0.04
 -11   1  -5    0.01    0.04
 -11   1  -5    0.03    0.04
 -11  -1  -5    0.03    0.04
 -12  -1  -5    0.17    0.04
 -12   1  -5    0.14    0.04
 -12   1  -5    0.23    0.05
 -12  -1  -5    0.23    0.05
 -13   1  -5    0.05    0.04
 -13   1  -5    0.12    0.05
 -13  -1  -5    0.09    0.04
  17   2  -5    0.04    0.03
  16   2  -5    0.12    0.04
 -16   2   5    0.14    0.04
  16  -2  -5    0.15    0.04
 -16   2   5    0.20    0.04
 -16  -2   5    0.16    0.04
 -16  -2   5    0.14    0.04
  15   2  -5    0.50    0.05
 -15   2   5    0.48    0.05
 -15  -2   5    0.50    0.05
 -15   2   5    0.54    0.05
  15  -2  -5    0.51    0.06
 -15  -2   5    0.48    0.05
  14   2  -5    0.00    0.03
 -14   2   5    0.00    0.04
  14  -2  -5    0.00    0.04
 -14  -2   5    0.00    0.04
 -14   2   5    0.00    0.03
 -14  -2   5   -0.01    0.03
  13   2  -5    0.00    0.03
  13  -2  -5    0.00    0.04
 -13   2   5    0.05    0.04
 -13  -2   5    0.02    0.04
 -13   2   5   -0.01    0.03
 -13  -2   5   -0.01    0.03
  12   2  -5    0.08    0.03
  12  -2  -5    0.11    0.04
 -12   2   5    0.12    0.04
 -12  -2   5    0.09    0.03
 -12   2   5    0.10    0.04
 -12  -2   5    0.10    0.04
 -11  -2   5   14.85    0.16
  11   2  -5   15.33    0.16
 -11  -2   5   15.07    0.17
 -11   2   5   14.54    0.17
  11  -2  -5   15.47    0.15
  11   2  -5   15.21    0.16
  11  -2  -5   14.71    0.17
 -11   2   5   15.24    0.17
  10   2  -5    0.99    0.05
 -10  -2   5    0.92    0.05
 -10  -2   5    1.05    0.05
 -10   2   5    0.96    0.05
  10  -2  -5    0.95    0.05
  10   2  -5    0.96    0.05
  10  -2  -5    0.95    0.06
 -10   2   5    0.96    0.05
   9  -2  -5    0.15    0.04
  -9   2   5    0.11    0.03
  -9  -2   5    0.13    0.03
  -9   2   5    0.11    0.03
  -9  -2   5    0.13    0.04
   9   2  -5    0.13    0.03
   9  -2  -5    0.12    0.03
   9   2  -5    0.11    0.03
  -8  -2   5    1.05    0.05
  -8   2   5    1.00    0.05
   8  -2  -5    1.06    0.05
   8   2  -5    1.03    0.05
   8  -2  -5    0.98    0.05
  -8   2   5    1.03    0.04
   8   2  -5    1.07    0.04
  -7  -2   5    0.76    0.04
  -7   2   5    0.82    0.04
   7  -2  -5    0.74    0.04
   7   2  -5    0.74    0.04
   7  -2  -5    0.76    0.04
   7   2  -5    0.78    0.03
  -7   2   5    0.79    0.04
  -6  -2   5    4.22    0.07
  -6   2   5    4.13    0.08
   6  -2  -5    4.25    0.08
   6  -2  -5    4.09    0.08
   6   2  -5    4.20    0.08
   6   2  -5    4.32    0.06
  -6   2   5    4.28    0.07
   5   2  -5    0.03    0.03
  -5   2   5    0.04    0.02
   5  -2  -5    0.03    0.03
   5   2  -5    0.05    0.02
  -5   2   5    0.04    0.03
  -5  -2   5    0.05    0.02
   5  -2  -5    0.05    0.03
   5   2  -5    0.04    0.03
   4   2  -5    1.76    0.05
  -4  -2   5    1.85    0.04
   4  -2  -5    1.64    0.03
  -4   2   5    1.75    0.05
   4  -2  -5    1.71    0.05
   4   2  -5    1.77    0.04
   4  -2  -5    1.82    0.05
   4   2  -5    1.78    0.06
  -4   2   5    1.75    0.04
   3   2  -5    0.74    0.04
  -3  -2   5    0.77    0.03
   3  -2  -5    0.73    0.02
   3  -2  -5    0.74    0.03
  -3   2   5    0.78    0.04
   3   2  -5    0.74    0.03
   3  -2  -5    0.77    0.04
   3  -2  -5    0.80    0.04
   3   2  -5    0.69    0.04
   2  -2  -5    2.91    0.06
   2   2  -5    2.91    0.07
  -2   2   5    2.99    0.06
  -2  -2   5    2.92    0.05
   2  -2  -5    2.97    0.05
   2   2  -5    2.86    0.05
   2  -2  -5    2.88    0.06
   2  -2  -5    2.95    0.07
   2   2  -5    2.86    0.07
   1  -2  -5    1.79    0.04
   1   2  -5    1.72    0.05
   1   2  -5    1.81    0.05
   1   2  -5    1.76    0.04
   1  -2  -5    1.81    0.05
   1  -2  -5    1.84    0.05
  -1   2   5    1.83    0.04
   1  -2  -5    1.77    0.05
   1   2  -5    1.73    0.05
   0  -2  -5    2.07    0.05
   0   2  -5    2.25    0.06
   0   2  -5    2.18    0.04
   0   2  -5    2.17    0.05
   0  -2  -5    2.19    0.05
   0  -2  -5    2.06    0.06
   0   2   5    2.18    0.05
   0  -2  -5    2.04    0.06
   0   2  -5    2.17    0.06
  -1  -2  -5    0.04    0.02
  -1   2  -5    0.05    0.03
  -1   2  -5    0.05    0.01
  -1   2  -5    0.03    0.02
   1   2   5    0.04    0.02
  -1  -2  -5    0.05    0.02
  -1  -2  -5    0.05    0.03
  -1  -2  -5    0.06    0.02
  -1   2  -5    0.03    0.02
  -2  -2  -5    0.17    0.02
  -2   2  -5    0.16    0.03
  -2   2  -5    0.15    0.02
  -2   2  -5    0.16    0.03
  -2  -2  -5    0.15    0.03
  -2  -2  -5    0.15    0.03
  -2  -2  -5    0.16    0.03
  -2   2  -5    0.16    0.02
  -3  -2  -5    0.30    0.03
  -3   2  -5    0.28    0.04
  -3   2  -5    0.26    0.03
  -3  -2  -5    0.31    0.04
  -3   2  -5    0.27    0.03
  -3  -2  -5    0.29    0.03
  -3  -2  -5    0.30    0.03
  -3   2  -5    0.26    0.03
  -4  -2  -5    0.35    0.03
  -4   2  -5    0.37    0.04
  -4   2  -5    0.38    0.03
  -4  -2  -5    0.35    0.04
  -4   2  -5    0.38    0.04
  -4  -2  -5    0.32    0.04
  -4  -2  -5    0.33    0.03
  -4   2  -5    0.35    0.03
  -5  -2  -5    0.56    0.03
  -5   2  -5    0.56    0.04
  -5  -2  -5    0.56    0.04
  -5   2  -5    0.56    0.04
  -5  -2  -5    0.57    0.04
  -5  -2  -5    0.56    0.03
  -6  -2  -5    0.34    0.03
  -6   2  -5    0.27    0.04
  -6  -2  -5    0.28    0.04
  -6   2  -5    0.27    0.04
  -6  -2  -5    0.27    0.04
  -7  -2  -5    0.12    0.02
  -7   2  -5    0.11    0.04
  -7  -2  -5    0.17    0.04
  -7   2  -5    0.13    0.04
  -7  -2  -5    0.10    0.04
  -8  -2  -5    0.10    0.04
  -8  -2  -5    0.03    0.02
  -8   2  -5    0.05    0.04
  -8   2  -5    0.07    0.04
  -8  -2  -5    0.05    0.04
  -9  -2  -5   -0.01    0.04
  -9   2  -5    0.00    0.03
  -9   2  -5    0.00    0.04
  -9  -2  -5   -0.01    0.04
 -10   2  -5    0.02    0.04
 -10   2  -5    0.05    0.04
 -10  -2  -5    0.04    0.04
 -11   2  -5    0.03    0.04
 -11   2  -5   -0.01    0.04
 -11  -2  -5   -0.01    0.03
 -12   2  -5    0.00    0.04
 -12   2  -5    0.01    0.04
 -12  -2  -5    0.02    0.04
 -13   2  -5   -0.04    0.04
 -13   2  -5    0.01    0.04
 -13  -2  -5    0.01    0.04
 -16   3   5    0.04    0.04
  16  -3  -5    0.04    0.04
 -16   3   5    0.00    0.04
 -16  -3   5    0.04    0.04
 -16   3   5    0.05    0.04
 -16  -3   5    0.01    0.03
 -15  -3   5    0.39    0.04
 -15   3   5    0.36    0.04
 -15  -3   5    0.39    0.05
 -15   3   5    0.36    0.05
  15  -3  -5    0.34    0.05
 -14   3   5    0.37    0.05
 -14  -3   5    0.37    0.05
 -14  -3   5    0.29    0.05
  14  -3  -5    0.38    0.05
 -14   3   5    0.41    0.05
  13  -3  -5    0.29    0.04
 -13   3   5    0.28    0.04
 -13  -3   5    0.31    0.05
 -13   3   5    0.31    0.04
 -13  -3   5    0.27    0.04
  12  -3  -5   -0.01    0.04
 -12   3   5    0.04    0.04
 -12  -3   5    0.03    0.03
 -12   3   5    0.00    0.03
 -12  -3   5    0.02    0.04
  11  -3  -5    0.25    0.04
 -11   3   5    0.25    0.04
 -11  -3   5    0.25    0.04
 -11   3   5    0.25    0.04
  11  -3  -5    0.25    0.03
  11   3  -5    0.25    0.04
 -10  -3   5    1.04    0.05
 -10   3   5    1.06    0.05
  10  -3  -5    1.08    0.05
  10   3  -5    1.06    0.05
  10  -3  -5    1.08    0.05
 -10   3   5    1.07    0.05
  -9  -3   5    1.42    0.06
  -9   3   5    1.42    0.06
   9  -3  -5    1.49    0.06
   9   3  -5    1.39    0.06
   9  -3  -5    1.47    0.06
  -9   3   5    1.51    0.06
  -8  -3   5    0.60    0.04
  -8   3   5    0.60    0.04
   8  -3  -5    0.60    0.04
   8  -3  -5    0.56    0.04
   8   3  -5    0.58    0.04
  -8   3   5    0.61    0.04
  -7   3   5    0.12    0.03
   7  -3  -5    0.16    0.04
  -7   3   5    0.12    0.03
  -7  -3   5    0.12    0.03
   7  -3  -5    0.13    0.03
   7   3  -5    0.11    0.03
   6   3  -5    0.23    0.03
  -6  -3   5    0.24    0.03
  -6   3   5    0.28    0.03
   6  -3  -5    0.24    0.04
   6  -3  -5    0.26    0.04
   6   3  -5    0.27    0.03
  -6   3   5    0.27    0.03
   5   3  -5    1.54    0.05
  -5  -3   5    1.58    0.05
   5  -3  -5    1.66    0.04
  -5   3   5    1.54    0.05
   5  -3  -5    1.53    0.06
   5  -3  -5    1.56    0.05
   5   3  -5    1.50    0.05
  -5   3   5    1.58    0.04
   4  -3  -5    0.03    0.02
   4   3  -5    0.02    0.03
   4  -3  -5    0.02    0.03
  -4   3   5    0.03    0.02
  -4   3   5    0.05    0.03
  -4  -3   5    0.03    0.02
   4  -3  -5    0.05    0.03
   4   3  -5    0.04    0.03
   3   3  -5    2.43    0.06
  -3  -3   5    2.48    0.05
   3  -3  -5    2.26    0.04
   3  -3  -5    2.45    0.05
   3  -3  -5    2.31    0.06
  -3   3   5    2.42    0.06
   3  -3  -5    2.46    0.06
   3   3  -5    2.37    0.06
   2   3  -5    4.75    0.08
  -2  -3   5    4.75    0.07
   2  -3  -5    4.64    0.07
   2  -3  -5    4.57    0.08
  -2   3   5    4.72    0.08
   2  -3  -5    4.63    0.08
   2   3  -5    4.73    0.09
   1  -3  -5    0.80    0.03
   1   3  -5    0.73    0.04
  -1  -3   5    0.79    0.03
   1  -3  -5    0.80    0.03
   1  -3  -5    0.76    0.04
  -1   3   5    0.78    0.03
   1  -3  -5    0.77    0.04
   1   3  -5    0.81    0.04
   0  -3  -5    0.27    0.02
   0   3  -5    0.28    0.04
   0  -3  -5    0.28    0.03
   0  -3  -5    0.26    0.03
   0   3   5    0.30    0.03
   0  -3  -5    0.26    0.03
   0   3  -5    0.29    0.03
  -1  -3  -5    1.62    0.04
  -1   3  -5    2.05    0.06
  -1  -3  -5    1.95    0.06
  -1  -3  -5    2.01    0.06
   1   3   5    2.10    0.05
  -1  -3  -5    2.00    0.06
  -1   3  -5    2.08    0.06
  -2   3  -5    0.27    0.04
  -2   3  -5    0.30    0.04
  -2  -3  -5    0.24    0.04
  -2  -3  -5    0.28    0.03
  -2  -3  -5    0.30    0.03
  -2   3  -5    0.28    0.03
  -3   3  -5    0.99    0.05
  -3  -3  -5    0.89    0.05
  -3   3  -5    0.88    0.05
  -3  -3  -5    0.84    0.04
  -3  -3  -5    0.94    0.04
  -3   3  -5    0.91    0.04
  -4   3  -5    0.84    0.05
  -4  -3  -5    0.88    0.05
  -4   3  -5    0.80    0.05
  -4  -3  -5    0.90    0.05
  -4   3  -5    0.87    0.04
  -5   3  -5    0.37    0.04
  -5  -3  -5    0.38    0.04
  -5   3  -5    0.39    0.04
  -5  -3  -5    0.36    0.04
  -6   3  -5    0.01    0.04
  -6  -3  -5   -0.01    0.04
  -6   3  -5    0.01    0.03
  -6  -3  -5    0.00    0.03
  -7   3  -5    0.16    0.04
  -7  -3  -5    0.15    0.04
  -7   3  -5    0.14    0.04
  -7  -3  -5    0.16    0.04
  -8  -3  -5    0.18    0.04
  -8   3  -5    0.14    0.04
  -8   3  -5    0.13    0.04
  -8  -3  -5    0.17    0.04
  -9  -3  -5    0.10    0.04
  -9   3  -5    0.10    0.04
  -9   3  -5    0.15    0.04
  -9  -3  -5    0.14    0.04
 -10   3  -5    0.14    0.04
 -10   3  -5    0.12    0.04
 -10  -3  -5    0.18    0.04
 -11   3  -5    0.03    0.04
 -11  -3  -5    0.03    0.04
 -11   3  -5    0.02    0.04
 -12   3  -5    0.05    0.05
 -12   3  -5    0.04    0.04
 -12  -3  -5   -0.01    0.04
 -16   4   5    0.07    0.04
 -15  -4   5    0.49    0.05
 -15   4   5    0.42    0.05
 -15   4   5    0.43    0.05
 -15  -4   5    0.47    0.05
  15  -4  -5    0.44    0.05
 -15   4   5    0.47    0.05
 -14  -4   5    0.38    0.05
 -14   4   5    0.39    0.05
 -14  -4   5    0.34    0.04
 -14   4   5    0.36    0.04
  14  -4  -5    0.51    0.05
 -14   4   5    0.41    0.05
  13  -4  -5    0.10    0.04
 -13  -4   5    0.16    0.04
 -13   4   5    0.16    0.04
 -13   4   5    0.13    0.04
 -12  -4   5    0.34    0.04
  12  -4  -5    0.33    0.05
 -12   4   5    0.31    0.04
 -12   4   5    0.32    0.04
 -11   4   5   -0.01    0.03
 -11   4   5    0.00    0.03
 -11  -4   5   -0.01    0.04
  11  -4  -5    0.00    0.03
  11   4  -5    0.01    0.03
  11  -4  -5    0.00    0.04
 -10   4   5    0.04    0.03
 -10   4   5    0.04    0.03
 -10  -4   5    0.04    0.04
  10  -4  -5    0.02    0.03
  10  -4  -5    0.03    0.04
  10   4  -5    0.03    0.03
  -9  -4   5    0.51    0.04
  -9   4   5    0.52    0.05
   9  -4  -5    0.55    0.04
   9  -4  -5    0.60    0.05
   9   4  -5    0.51    0.04
  -9   4   5    0.59    0.04
  -8  -4   5    9.25    0.13
   8  -4  -5    9.46    0.13
  -8   4   5    9.23    0.13
   8  -4  -5    9.35    0.13
   8  -4  -5    9.32    0.14
   8   4  -5    9.36    0.13
  -8   4   5    9.44    0.12
  -7  -4   5    2.99    0.07
   7  -4  -5    2.85    0.07
  -7   4   5    2.88    0.08
   7  -4  -5    2.83    0.08
   7  -4  -5    2.89    0.08
   7   4  -5    2.83    0.08
  -7   4   5    2.83    0.07
   6  -4  -5    0.09    0.03
   6   4  -5    0.07    0.03
  -6   4   5    0.07    0.03
   6  -4  -5    0.06    0.03
  -6   4   5    0.06    0.03
  -6  -4   5    0.09    0.03
   6  -4  -5    0.11    0.04
   6   4  -5    0.04    0.03
   5  -4  -5    4.62    0.09
   5   4  -5    4.64    0.09
  -5  -4   5    4.51    0.08
   5  -4  -5    4.62    0.08
  -5   4   5    4.55    0.09
   5  -4  -5    4.67    0.09
   5   4  -5    4.47    0.09
  -5   4   5    4.67    0.08
   4   4  -5    0.82    0.05
  -4  -4   5    0.84    0.04
   4  -4  -5    0.90    0.04
  -4   4   5    0.88    0.04
   4  -4  -5    0.84    0.05
   4  -4  -5    0.88    0.05
   4   4  -5    0.83    0.05
  -4   4   5    0.73    0.03
   3  -4  -5    0.15    0.03
   3   4  -5    0.14    0.03
  -3   4   5    0.16    0.03
   3  -4  -5    0.14    0.02
  -3  -4   5    0.15    0.03
   3  -4  -5    0.14    0.03
   3   4  -5    0.14    0.04
   2  -4  -5   -0.02    0.03
   2   4  -5    0.01    0.03
  -2   4   5    0.00    0.02
   2  -4  -5    0.01    0.02
  -2  -4   5    0.00    0.02
   2  -4  -5    0.00    0.03
   2   4  -5   -0.01    0.03
   1   4  -5    0.03    0.03
  -1   4   5    0.02    0.02
   1  -4  -5    0.01    0.02
  -1  -4   5    0.01    0.02
   1  -4  -5    0.02    0.03
   1   4  -5    0.02    0.03
   1  -4  -5    0.00    0.03
   0   4  -5    0.01    0.03
   0   4   5    0.03    0.02
   0  -4  -5    0.00    0.02
   0  -4  -5    0.01    0.03
   0  -4   5    0.01    0.02
   0  -4  -5    0.01    0.03
   0   4  -5    0.00    0.03
  -1   4  -5    0.02    0.03
   1   4   5    0.02    0.02
  -1  -4  -5    0.00    0.03
  -1  -4  -5    0.01    0.03
  -1   4  -5    0.03    0.03
  -2   4  -5    0.78    0.05
  -2  -4  -5    0.79    0.05
  -2  -4  -5    0.76    0.04
  -2   4  -5    0.75    0.04
  -3   4  -5    0.05    0.03
  -3  -4  -5    0.03    0.03
  -3  -4  -5    0.04    0.03
  -3   4  -5    0.04    0.03
  -4   4  -5    0.72    0.05
  -4  -4  -5    0.70    0.05
  -4  -4  -5    0.65    0.05
  -4   4  -5    0.70    0.04
  -5   4  -5    0.03    0.03
  -5  -4  -5    0.02    0.03
  -5  -4  -5    0.05    0.03
  -6   4  -5    1.23    0.06
  -6  -4  -5    1.26    0.06
  -6  -4  -5    1.24    0.06
  -7   4  -5    0.05    0.04
  -7  -4  -5   -0.01    0.04
  -7  -4  -5    0.05    0.04
  -8   4  -5    0.00    0.04
  -8  -4  -5    0.01    0.04
  -8  -4  -5    0.01    0.04
  -9  -4  -5   -0.02    0.04
  -9   4  -5   -0.01    0.04
  -9  -4  -5    0.00    0.04
 -10  -4  -5    0.00    0.04
 -10   4  -5    0.00    0.04
 -10   4  -5   -0.01    0.04
 -10  -4  -5    0.01    0.04
 -11   4  -5    0.03    0.04
 -11  -4  -5    0.03    0.04
  14  -5  -5    0.01    0.03
 -14   5   5   -0.01    0.04
 -14  -5   5    0.08    0.04
 -13  -5   5   -0.01    0.04
 -13   5   5   -0.01    0.04
 -13   5   5    0.00    0.04
  13  -5  -5    0.01    0.04
  12  -5  -5    0.08    0.04
 -12   5   5    0.06    0.04
 -12   5   5    0.07    0.04
 -12  -5   5    0.10    0.04
  12  -5  -5    0.10    0.04
  11  -5  -5    0.00    0.04
 -11   5   5   -0.02    0.03
 -11   5   5    0.01    0.04
 -11  -5   5    0.04    0.04
  11  -5  -5   -0.02    0.04
  11   5  -5   -0.02    0.04
  10  -5  -5    0.06    0.04
 -10   5   5    0.08    0.04
 -10   5   5    0.08    0.04
 -10  -5   5    0.07    0.03
  10  -5  -5    0.08    0.04
  10   5  -5    0.07    0.04
  -9  -5   5    0.88    0.05
   9  -5  -5    0.84    0.05
  -9   5   5    0.80    0.05
   9  -5  -5    0.88    0.06
   9   5  -5    0.90    0.06
  -9   5   5    0.79    0.05
  -8  -5   5    3.49    0.09
   8  -5  -5    3.44    0.08
  -8   5   5    3.40    0.09
   8  -5  -5    3.44    0.09
   8   5  -5    3.63    0.09
  -8   5   5    3.42    0.08
  -7  -5   5    1.52    0.06
   7  -5  -5    1.45    0.06
  -7   5   5    1.49    0.06
   7  -5  -5    1.54    0.07
   7   5  -5    1.41    0.06
  -7   5   5    1.44    0.07
   6  -5  -5    0.02    0.03
   6   5  -5    0.02    0.03
  -6   5   5    0.01    0.03
   6  -5  -5    0.01    0.04
  -6   5   5    0.02    0.04
  -6  -5   5    0.02    0.03
   6   5  -5    0.02    0.04
   5   5  -5    2.34    0.07
  -5  -5   5    2.39    0.07
   5  -5  -5    2.47    0.06
  -5   5   5    2.46    0.07
   5  -5  -5    2.53    0.08
   5   5  -5    2.46    0.08
   4   5  -5    2.46    0.07
  -4  -5   5    2.58    0.07
  -4   5   5    2.70    0.07
   4  -5  -5    2.55    0.08
   4   5  -5    2.51    0.08
   3   5  -5    1.19    0.05
  -3  -5   5    1.23    0.05
   3  -5  -5    1.08    0.04
  -3   5   5    1.19    0.05
   3  -5  -5    1.14    0.06
   3   5  -5    1.18    0.05
   2   5  -5    0.79    0.05
  -2  -5   5    0.81    0.04
   2  -5  -5    0.75    0.04
   2  -5  -5    0.74    0.05
  -2   5   5    0.85    0.05
   2   5  -5    0.73    0.05
   1   5  -5    0.16    0.03
  -1   5   5    0.15    0.03
   1  -5  -5    0.17    0.03
  -1  -5   5    0.17    0.03
   1  -5  -5    0.16    0.04
   1   5  -5    0.18    0.04
   0   5  -5    0.17    0.04
   0   5   5    0.14    0.03
   0  -5  -5    0.15    0.03
   0  -5  -5    0.17    0.04
   0  -5   5    0.16    0.03
   0   5  -5    0.11    0.04
  -1   5  -5    0.83    0.05
   1  -5   5    0.61    0.04
  -1  -5  -5    0.90    0.05
  -1  -5  -5    0.82    0.05
  -1   5  -5    0.87    0.04
   1   5   5    0.83    0.04
  -1   5  -5    0.79    0.05
  -2   5  -5    0.03    0.03
  -2  -5  -5    0.04    0.03
  -2   5  -5    0.01    0.02
  -2  -5  -5    0.05    0.03
  -2   5  -5    0.04    0.03
  -3   5  -5    1.83    0.07
  -3  -5  -5    1.97    0.07
  -3  -5  -5    1.87    0.07
  -3   5  -5    1.80    0.06
  -4   5  -5    1.14    0.06
  -4  -5  -5    1.25    0.06
  -4  -5  -5    1.20    0.06
  -4   5  -5    1.23    0.05
  -5   5  -5    0.56    0.05
  -5  -5  -5    0.66    0.05
  -5  -5  -5    0.59    0.05
  -6   5  -5    0.03    0.04
  -6  -5  -5    0.01    0.03
  -6  -5  -5   -0.01    0.04
  -7   5  -5    0.08    0.04
  -7  -5  -5    0.08    0.04
  -7  -5  -5    0.04    0.04
  -8   5  -5    0.02    0.04
  -8  -5  -5    0.04    0.04
  -8  -5  -5    0.03    0.04
  -9  -5  -5    0.03    0.04
  -9   5  -5   -0.01    0.04
  -9  -5  -5   -0.01    0.03
 -10  -5  -5    0.06    0.04
 -10   5  -5    0.04    0.04
 -10  -5  -5    0.02    0.05
  13  -6  -5    0.03    0.04
 -13   6   5    0.03    0.04
 -13  -6   5    0.01    0.04
  13  -6  -5   -0.01    0.04
  12  -6  -5    0.28    0.05
 -12   6   5    0.32    0.05
 -12   6   5    0.29    0.05
  12  -6  -5    0.37    0.05
 -12  -6   5    0.31    0.05
  11  -6  -5    0.02    0.03
 -11   6   5   -0.01    0.04
  11  -6  -5    0.02    0.04
 -11   6   5    0.00    0.04
 -11  -6   5    0.02    0.03
  11   6  -5    0.01    0.03
  10  -6  -5    0.04    0.04
 -10   6   5    0.05    0.04
  10  -6  -5    0.07    0.04
 -10   6   5    0.06    0.04
 -10  -6   5    0.06    0.04
  10   6  -5    0.07    0.04
  -9  -6   5    1.33    0.06
   9  -6  -5    1.39    0.06
  -9   6   5    1.34    0.06
   9  -6  -5    1.33    0.06
   9   6  -5    1.36    0.06
  -9   6   5    1.30    0.06
  -8  -6   5    0.57    0.05
   8  -6  -5    0.55    0.05
  -8   6   5    0.49    0.05
   8  -6  -5    0.54    0.05
   8   6  -5    0.55    0.05
  -8   6   5    0.56    0.05
   7  -6  -5    0.10    0.03
   7  -6  -5    0.07    0.04
  -7   6   5    0.06    0.03
  -7  -6   5    0.11    0.04
  -7   6   5    0.07    0.03
   7   6  -5    0.10    0.04
   6   6  -5    3.20    0.08
  -6  -6   5    3.12    0.08
   6  -6  -5    3.19    0.08
  -6   6   5    3.32    0.09
   6  -6  -5    3.28    0.09
   6   6  -5    3.25    0.09
   5  -6  -5    0.05    0.03
   5   6  -5    0.05    0.03
   5  -6  -5    0.04    0.04
  -5   6   5    0.05    0.04
  -5  -6   5    0.06    0.03
   5   6  -5    0.05    0.04
   4   6  -5    1.55    0.06
  -4  -6   5    1.59    0.06
  -4   6   5    1.58    0.06
   4  -6  -5    1.51    0.06
   4   6  -5    1.64    0.07
   3   6  -5    1.47    0.06
  -3  -6   5    1.49    0.06
   3  -6  -5    1.52    0.07
  -3   6   5    1.46    0.06
   3   6  -5    1.49    0.07
   2   6  -5    2.01    0.07
  -2  -6   5    2.01    0.07
   2  -6  -5    1.98    0.06
   2  -6  -5    1.99    0.07
  -2   6   5    1.97    0.07
   2   6  -5    1.96    0.07
   1   6  -5    1.05    0.05
  -1  -6   5    1.02    0.05
   1  -6  -5    1.02    0.06
   1   6  -5    1.05    0.06
   1  -6  -5    1.08    0.05
  -1   6   5    1.10    0.05
   1   6  -5    1.03    0.06
   0   6  -5    0.35    0.04
   0  -6   5    0.41    0.04
   0  -6  -5    0.42    0.05
   0  -6  -5    0.39    0.04
   0   6  -5    0.36    0.04
   0   6   5    0.40    0.04
   0   6  -5    0.47    0.05
  -1   6  -5    1.25    0.06
   1  -6   5    1.11    0.05
  -1  -6  -5    1.15    0.06
  -1  -6  -5    1.16    0.06
  -1   6  -5    1.21    0.06
   1   6   5    1.19    0.05
  -1   6  -5    1.19    0.06
  -2   6  -5    2.42    0.08
  -2  -6  -5    2.18    0.08
  -2  -6  -5    2.23    0.08
  -2   6  -5    2.26    0.07
  -3   6  -5    0.21    0.04
  -3  -6  -5    0.25    0.05
  -3  -6  -5    0.22    0.04
  -3   6  -5    0.22    0.04
  -4   6  -5    0.01    0.04
  -4  -6  -5   -0.01    0.03
  -4  -6  -5    0.03    0.03
  -4   6  -5    0.02    0.03
  -5   6  -5    0.40    0.05
  -5  -6  -5    0.41    0.05
  -5  -6  -5    0.40    0.05
  -6   6  -5    0.52    0.05
  -6  -6  -5    0.52    0.05
  -6  -6  -5    0.54    0.05
  -7   6  -5    0.48    0.05
  -7  -6  -5    0.47    0.06
  -7  -6  -5    0.38    0.05
  -8   6  -5    0.60    0.06
  -8  -6  -5    0.57    0.06
  -8  -6  -5    0.48    0.06
  -9  -6  -5    0.03    0.04
  -9   6  -5    0.04    0.04
  -9  -6  -5    0.02    0.04
  12  -7  -5    0.69    0.06
  12  -7  -5    0.77    0.06
 -12   7   5    0.75    0.06
  11  -7  -5    0.10    0.04
 -11   7   5    0.15    0.05
  11  -7  -5    0.16    0.04
 -11  -7   5    0.14    0.05
  11   7  -5    0.13    0.04
  10  -7  -5    0.27    0.05
 -10   7   5    0.27    0.05
  10  -7  -5    0.27    0.05
 -10  -7   5    0.27    0.05
  10   7  -5    0.27    0.05
   9  -7  -5    0.07    0.04
   9  -7  -5    0.04    0.04
  -9   7   5    0.06    0.04
  -9  -7   5    0.06    0.04
   9   7  -5    0.08    0.04
  -8  -7   5    1.52    0.08
   8  -7  -5    1.52    0.08
  -8   7   5    1.52    0.08
   8  -7  -5    1.52    0.08
   8   7  -5    1.52    0.08
   7  -7  -5    0.12    0.04
   7  -7  -5    0.09    0.04
  -7   7   5    0.12    0.04
  -7  -7   5    0.07    0.04
   7   7  -5    0.06    0.04
   6  -7  -5    0.12    0.04
   6  -7  -5    0.13    0.04
  -6   7   5    0.12    0.03
  -6  -7   5    0.17    0.04
   6   7  -5    0.15    0.04
   5  -7  -5   -0.01    0.03
   5  -7  -5   -0.01    0.03
  -5   7   5    0.01    0.04
  -5  -7   5    0.02    0.04
   5   7  -5   -0.01    0.04
   4  -7  -5    0.02    0.03
  -4   7   5    0.05    0.04
  -4  -7   5    0.04    0.04
   4   7  -5    0.01    0.04
   3  -7  -5    0.11    0.04
  -3   7   5    0.12    0.04
  -3  -7   5    0.19    0.04
   3   7  -5    0.13    0.04
  -2  -7   5    1.26    0.06
   2  -7  -5    1.23    0.06
   2   7  -5    1.31    0.06
   2  -7  -5    1.14    0.06
  -2   7   5    1.28    0.06
   2   7  -5    1.26    0.07
   1   7  -5    0.08    0.04
  -1   7   5    0.13    0.04
   1  -7  -5    0.07    0.04
   1  -7  -5    0.08    0.04
  -1  -7   5    0.06    0.03
   1   7  -5    0.07    0.04
   0   7  -5    1.53    0.06
   0  -7   5    1.49    0.06
   0  -7  -5    1.57    0.07
   0  -7  -5    1.59    0.07
   0   7  -5    1.60    0.07
   0   7   5    1.50    0.06
   0   7  -5    1.56    0.07
  -1   7  -5    0.01    0.04
   1   7   5    0.03    0.03
  -1   7  -5    0.04    0.03
  -1  -7  -5    0.02    0.04
  -1  -7  -5    0.01    0.04
   1  -7   5    0.02    0.03
  -1   7  -5    0.06    0.04
  -2   7  -5    0.80    0.05
  -2  -7  -5    0.73    0.05
  -2  -7  -5    0.82    0.06
  -2   7  -5    0.73    0.05
  -3   7  -5    0.23    0.04
  -3  -7  -5    0.31    0.05
  -3  -7  -5    0.30    0.05
  -3   7  -5    0.29    0.04
  -4   7  -5    0.53    0.05
  -4  -7  -5    0.60    0.06
  -4  -7  -5    0.67    0.06
  -4   7  -5    0.57    0.05
  -5   7  -5    0.11    0.04
  -5  -7  -5    0.12    0.05
  -5  -7  -5    0.10    0.05
  -6   7  -5    0.55    0.06
  -6  -7  -5    0.50    0.05
  -6  -7  -5    0.50    0.05
  -7   7  -5   -0.01    0.04
  -7  -7  -5    0.02    0.04
  -7  -7  -5    0.00    0.04
  -8   7  -5    0.07    0.05
  -8  -7  -5    0.13    0.04
  10  -8  -5    1.14    0.07
  10  -8  -5    1.14    0.06
   9  -8  -5    0.08    0.04
   9  -8  -5    0.10    0.04
  -9  -8   5    0.07    0.05
   9   8  -5    0.07    0.04
   8  -8  -5    0.31    0.04
   8  -8  -5    0.31    0.05
  -8  -8   5    0.28    0.05
   8   8  -5    0.23    0.05
   7  -8  -5    0.21    0.04
   7  -8  -5    0.20    0.04
  -7  -8   5    0.26    0.04
   7   8  -5    0.25    0.05
   6  -8  -5    0.01    0.04
  -6   8   5    0.02    0.03
  -6  -8   5    0.02    0.04
  -6  -8   5    0.01    0.03
   6   8  -5    0.05    0.04
   5  -8  -5    0.09    0.04
  -5   8   5    0.04    0.04
  -5  -8   5    0.05    0.03
   5   8  -5    0.09    0.04
   4  -8  -5    0.17    0.04
  -4   8   5    0.15    0.05
  -4  -8   5    0.19    0.04
   4   8  -5    0.17    0.04
  -3   8   5    0.09    0.04
  -3  -8   5    0.07    0.03
   3  -8  -5    0.10    0.04
   3   8  -5    0.10    0.05
   2   8  -5    0.01    0.04
  -2   8   5    0.00    0.03
   2  -8  -5    0.00    0.03
  -2  -8   5   -0.02    0.04
   2  -8  -5    0.00    0.04
   2   8  -5    0.01    0.04
   1   8  -5    0.13    0.04
  -1   8   5    0.12    0.04
   1  -8  -5    0.13    0.05
   1  -8  -5    0.13    0.04
  -1  -8   5    0.12    0.04
   1   8  -5    0.10    0.04
   0   8  -5    0.24    0.05
   0   8   5    0.22    0.04
   0  -8  -5    0.22    0.05
   0  -8  -5    0.20    0.04
   0  -8   5    0.24    0.04
   0   8  -5    0.24    0.04
  -1   8  -5    0.03    0.04
  -1  -8  -5    0.08    0.04
   1   8   5    0.08    0.03
  -1  -8  -5    0.09    0.04
   1  -8   5    0.04    0.04
  -1   8  -5    0.09    0.04
  -2  -8  -5    0.01    0.04
  -2  -8  -5    0.04    0.04
  -2   8  -5    0.04    0.04
  -3  -8  -5    0.11    0.04
  -3  -8  -5    0.15    0.04
  -3   8  -5    0.17    0.05
  -4  -8  -5    0.02    0.04
  -4  -8  -5    0.02    0.04
  -5  -8  -5    0.34    0.05
  -5  -8  -5    0.38    0.05
  -6  -8  -5    0.04    0.04
  -6  -9   5    0.64    0.05
  -5  -9   5   -0.03    0.03
  -5  -9   5    0.00    0.04
  -4  -9   5    0.06    0.03
  -3  -9   5    0.04    0.04
  -2  -9   5   -0.02    0.05
   2   9  -5    0.02    0.04
   1  -9  -5    0.08    0.04
  -1  -9   5    0.12    0.04
   1   9  -5    0.08    0.04
   0  -9  -5    0.03    0.03
   0  -9   5    0.06    0.04
   0   9  -5    0.00    0.04
  -1  -9  -5    0.17    0.05
   1  -9   5    0.13    0.04
  -1   9  -5    0.20    0.05
  -2  -9  -5    0.04    0.04
  -2   9  -5    0.05    0.04
  -3   9  -5    0.25    0.04
 -16   0   6    0.23    0.05
  16   0  -6    0.23    0.05
 -15   0   6    0.00    0.03
  15   0  -6    0.05    0.03
 -15   0   6    0.02    0.04
 -14   0   6    0.81    0.06
  14   0  -6    0.74    0.06
 -14   0   6    0.85    0.05
  13   0  -6    0.03    0.03
 -13   0   6    0.03    0.03
 -13   0   6    0.05    0.03
 -12   0   6    1.37    0.06
  12   0  -6    1.29    0.05
  12   0  -6    1.47    0.07
 -12   0   6    1.42    0.06
 -11   0   6    1.68    0.07
  11   0  -6    1.68    0.06
  11   0  -6    1.77    0.07
 -11   0   6    1.67    0.06
 -10   0   6    3.11    0.08
  10   0  -6    3.06    0.08
  10   0  -6    3.03    0.08
 -10   0   6    3.08    0.07
  -9   0   6    1.05    0.05
   9   0  -6    1.04    0.05
   9   0  -6    1.09    0.05
  -9   0   6    1.13    0.05
  -8   0   6    0.05    0.02
  -8   0   6    0.06    0.03
   8   0  -6    0.05    0.03
   8   0  -6    0.05    0.03
  -7   0   6    0.64    0.04
   7   0  -6    0.63    0.04
   7   0  -6    0.62    0.04
  -6   0   6   10.82    0.13
   6   0  -6   10.77    0.12
   6   0  -6   10.65    0.13
   5   0  -6   17.46    0.16
  -5   0   6   17.35    0.15
   5   0  -6   16.85    0.15
   5   0  -6   17.02    0.16
   4   0  -6    0.78    0.04
  -4   0   6    0.77    0.04
   4   0  -6    0.75    0.04
   4   0  -6    0.69    0.04
   3   0  -6    0.02    0.02
   3   0  -6    0.00    0.03
   3   0  -6    0.00    0.02
  -3   0   6    0.02    0.02
   3   0  -6    0.01    0.03
   2   0  -6    0.05    0.02
   2   0  -6    0.08    0.03
   2   0  -6    0.06    0.02
  -2   0   6    0.09    0.02
   2   0  -6    0.06    0.03
   1   0  -6    0.18    0.03
   1   0  -6    0.20    0.02
  -1   0   6    0.18    0.02
   1   0  -6    0.19    0.03
   1   0  -6    0.18    0.03
   0   0  -6    0.34    0.03
   0   0  -6    0.41    0.03
   0   0  -6    0.35    0.03
   0   0   6    0.37    0.02
   0   0  -6    0.39    0.03
  -1   0  -6    0.49    0.04
  -1   0  -6    0.55    0.04
  -1   0  -6    0.49    0.03
  -1   0  -6    0.52    0.04
  -2   0  -6    2.18    0.06
  -2   0  -6    2.00    0.06
  -2   0  -6    2.07    0.06
  -2   0  -6    2.14    0.06
  -3   0  -6    0.66    0.04
  -3   0  -6    0.63    0.04
  -3   0  -6    0.68    0.05
  -3   0  -6    0.66    0.04
  -4   0  -6   12.76    0.14
  -4   0  -6   12.45    0.14
  -4   0  -6   11.96    0.15
  -4   0  -6   11.76    0.12
  -5   0  -6    0.54    0.04
  -5   0  -6    0.52    0.04
  -5   0  -6    0.56    0.05
  -6   0  -6   15.60    0.17
  -6   0  -6   15.35    0.18
  -7   0  -6    0.01    0.04
  -7   0  -6    0.02    0.03
  -7   0  -6    0.04    0.04
  -8   0  -6    0.05    0.03
  -8   0  -6    0.01    0.04
  -9   0  -6    0.09    0.04
  -9   0  -6    0.02    0.04
 -10   0  -6    0.12    0.04
 -10   0  -6    0.06    0.04
 -11   0  -6    0.04    0.04
 -11   0  -6    0.02    0.04
 -12   0  -6    0.06    0.04
 -12   0  -6   -0.01    0.04
 -13   0  -6    0.02    0.03
  17   1  -6   -0.01    0.04
  16  -1  -6    0.10    0.04
 -16   1   6    0.03    0.04
 -16  -1   6   -0.01    0.04
  16   1  -6    0.03    0.04
  15  -1  -6    0.22    0.05
 -15   1   6    0.22    0.04
 -15  -1   6    0.22    0.04
  15   1  -6    0.22    0.04
 -15   1   6    0.22    0.05
 -15  -1   6    0.22    0.05
  14  -1  -6    0.06    0.04
 -14   1   6    0.05    0.03
 -14  -1   6    0.08    0.04
  14   1  -6    0.10    0.04
 -14   1   6    0.11    0.04
 -14  -1   6    0.07    0.04
  13  -1  -6    0.04    0.04
 -13   1   6    0.03    0.04
  13   1  -6    0.05    0.04
 -13  -1   6    0.07    0.04
 -13   1   6    0.07    0.03
 -13  -1   6    0.08    0.04
  12  -1  -6    0.22    0.04
  12   1  -6    0.26    0.04
 -12   1   6    0.25    0.04
 -12  -1   6    0.24    0.04
 -12   1   6    0.22    0.04
 -12  -1   6    0.21    0.04
  12  -1  -6    0.18    0.03
  12   1  -6    0.25    0.04
 -11   1   6    2.40    0.07
 -11  -1   6    2.44    0.08
  11  -1  -6    2.56    0.07
  11   1  -6    2.42    0.07
  11  -1  -6    2.43    0.08
  11   1  -6    2.58    0.07
 -11   1   6    2.57    0.07
 -11  -1   6    2.58    0.07
 -10   1   6    1.14    0.06
 -10  -1   6    1.18    0.06
  10  -1  -6    1.18    0.05
  10   1  -6    1.21    0.06
  10  -1  -6    1.13    0.06
  10   1  -6    1.17    0.05
 -10   1   6    1.17    0.04
 -10  -1   6    1.11    0.05
  -9   1   6    1.61    0.06
  -9  -1   6    1.56    0.06
   9  -1  -6    1.57    0.06
   9   1  -6    1.58    0.06
   9  -1  -6    1.61    0.06
   9   1  -6    1.57    0.05
  -9   1   6    1.55    0.05
  -9  -1   6    1.63    0.05
  -8  -1   6    8.31    0.10
  -8   1   6    8.69    0.12
  -8  -1   6    8.48    0.12
   8  -1  -6    8.59    0.12
   8   1  -6    8.44    0.12
   8  -1  -6    8.39    0.12
   8   1  -6    8.34    0.11
  -8   1   6    7.98    0.10
  -7  -1   6    0.17    0.02
   7  -1  -6    0.16    0.04
  -7   1   6    0.16    0.03
  -7  -1   6    0.19    0.04
   7   1  -6    0.18    0.03
   7  -1  -6    0.14    0.04
   7   1  -6    0.19    0.04
  -6   1   6    1.19    0.05
  -6  -1   6    1.34    0.05
   6  -1  -6    1.15    0.05
   6   1  -6    1.13    0.04
   6  -1  -6    1.14    0.05
   6   1  -6    1.26    0.05
   5   1  -6    0.43    0.04
  -5   1   6    0.44    0.03
  -5  -1   6    0.43    0.04
   5  -1  -6    0.43    0.04
   5   1  -6    0.43    0.03
   5  -1  -6    0.42    0.04
   5   1  -6    0.42    0.04
   4  -1  -6    3.26    0.07
   4   1  -6    3.11    0.07
  -4   1   6    3.19    0.07
  -4  -1   6    3.27    0.07
   4   1  -6    3.11    0.06
   4  -1  -6    3.11    0.07
   4  -1  -6    3.34    0.08
   4   1  -6    3.03    0.07
   3  -1  -6    3.20    0.07
   3   1  -6    3.20    0.07
   3   1  -6    3.25    0.06
   3  -1  -6    3.36    0.06
   3   1  -6    3.21    0.06
   3  -1  -6    3.23    0.07
  -3   1   6    3.40    0.07
  -3  -1   6    3.48    0.07
   3  -1  -6    3.19    0.07
   3   1  -6    3.26    0.07
   2  -1  -6    0.26    0.03
   2   1  -6    0.25    0.04
   2   1  -6    0.28    0.03
   2  -1  -6    0.26    0.02
   2   1  -6    0.25    0.02
   2  -1  -6    0.23    0.03
  -2   1   6    0.25    0.03
  -2  -1   6    0.26    0.03
   2  -1  -6    0.26    0.03
   2   1  -6    0.25    0.03
   1  -1  -6    0.67    0.04
   1   1  -6    0.69    0.04
   1   1  -6    0.70    0.04
   1  -1  -6    0.69    0.03
   1   1  -6    0.68    0.03
   1  -1  -6    0.66    0.04
  -1   1   6    0.75    0.03
  -1  -1   6    0.71    0.03
   1  -1  -6    0.67    0.04
   1   1  -6    0.70    0.04
   0  -1  -6    0.12    0.03
   0   1  -6    0.12    0.03
   0   1   6    0.14    0.02
   0   1  -6    0.13    0.02
   0  -1  -6    0.12    0.02
   0   1  -6    0.11    0.02
   0  -1   6    0.13    0.02
   0  -1  -6    0.14    0.03
   0  -1  -6    0.13    0.03
   0   1  -6    0.11    0.03
  -1  -1  -6    0.00    0.02
  -1   1  -6    0.01    0.03
  -1   1  -6    0.00    0.02
  -1   1  -6    0.01    0.02
  -1  -1  -6    0.00    0.02
  -1  -1  -6    0.01    0.03
  -1  -1  -6    0.00    0.02
  -1   1  -6   -0.01    0.03
  -2  -1  -6    0.22    0.03
  -2   1  -6    0.24    0.04
  -2   1  -6    0.22    0.03
  -2  -1  -6    0.23    0.03
  -2   1  -6    0.20    0.03
  -2  -1  -6    0.19    0.03
  -2  -1  -6    0.20    0.03
  -2   1  -6    0.18    0.03
  -3  -1  -6    3.72    0.08
  -3   1  -6    3.65    0.08
  -3   1  -6    3.63    0.07
  -3  -1  -6    3.60    0.08
  -3   1  -6    3.76    0.08
  -3  -1  -6    3.81    0.08
  -3  -1  -6    3.69    0.07
  -3   1  -6    3.80    0.07
  -4  -1  -6    3.95    0.08
  -4   1  -6    3.91    0.09
  -4   1  -6    3.80    0.08
  -4  -1  -6    3.97    0.09
  -4   1  -6    3.95    0.09
  -4  -1  -6    3.92    0.09
  -4  -1  -6    3.91    0.07
  -5   1  -6    0.14    0.03
  -5  -1  -6    0.14    0.03
  -5   1  -6    0.10    0.04
  -5  -1  -6    0.13    0.04
  -5   1  -6    0.15    0.04
  -5  -1  -6    0.18    0.04
  -6  -1  -6    0.46    0.04
  -6   1  -6    0.52    0.05
  -6   1  -6    0.39    0.04
  -6  -1  -6    0.42    0.05
  -6   1  -6    0.42    0.04
  -6  -1  -6    0.43    0.05
  -7  -1  -6    1.77    0.06
  -7   1  -6    1.77    0.07
  -7  -1  -6    1.87    0.07
  -7   1  -6    1.73    0.07
  -7  -1  -6    1.77    0.07
  -8  -1  -6    0.03    0.04
  -8  -1  -6    0.04    0.03
  -8   1  -6    0.03    0.04
  -8   1  -6    0.06    0.04
  -8  -1  -6    0.04    0.03
  -9  -1  -6    0.19    0.04
  -9   1  -6    0.19    0.04
  -9   1  -6    0.16    0.04
  -9  -1  -6    0.20    0.04
 -10  -1  -6    0.01    0.03
 -10   1  -6    0.01    0.04
 -10   1  -6    0.04    0.05
 -10  -1  -6    0.06    0.04
 -11   1  -6   -0.01    0.04
 -11   1  -6    0.00    0.04
 -11  -1  -6    0.02    0.04
 -12   1  -6    0.00    0.04
 -12   1  -6   -0.01    0.04
 -12  -1  -6    0.01    0.04
  16  -2  -6    0.13    0.05
 -16   2   6    0.13    0.04
 -16  -2   6    0.12    0.05
  15  -2  -6    0.01    0.04
 -15   2   6    0.04    0.04
 -15  -2   6    0.00    0.04
 -15   2   6    0.04    0.03
 -15  -2   6    0.00    0.04
  15   2  -6    0.02    0.04
  14  -2  -6    0.17    0.04
 -14   2   6    0.18    0.04
 -14  -2   6    0.18    0.04
 -14   2   6    0.13    0.04
 -14  -2   6    0.12    0.04
  14   2  -6    0.18    0.04
  13  -2  -6    0.10    0.04
 -13   2   6    0.09    0.03
 -13  -2   6    0.12    0.04
  13   2  -6    0.09    0.04
 -13   2   6    0.08    0.04
 -13  -2   6    0.10    0.04
  12  -2  -6    0.03    0.03
 -12   2   6    0.00    0.03
  12   2  -6    0.01    0.03
 -12  -2   6   -0.01    0.03
 -12   2   6    0.01    0.03
 -12  -2   6   -0.01    0.04
  12   2  -6    0.00    0.03
 -11  -2   6    0.24    0.04
 -11  -2   6    0.24    0.04
 -11   2   6    0.24    0.04
  11  -2  -6    0.25    0.04
  11   2  -6    0.25    0.04
  11  -2  -6    0.25    0.04
 -11   2   6    0.25    0.04
  11   2  -6    0.24    0.03
 -10  -2   6    0.31    0.04
 -10   2   6    0.28    0.04
 -10  -2   6    0.29    0.04
  10  -2  -6    0.31    0.04
  10   2  -6    0.32    0.04
  10   2  -6    0.23    0.03
 -10   2   6    0.25    0.04
  10  -2  -6    0.28    0.05
  -9  -2   6    5.62    0.10
  -9   2   6    5.59    0.10
  -9  -2   6    5.80    0.11
   9  -2  -6    5.75    0.10
   9   2  -6    5.78    0.11
   9  -2  -6    5.58    0.11
  -9   2   6    5.59    0.09
  -8  -2   6    0.09    0.03
  -8   2   6    0.09    0.03
   8  -2  -6    0.10    0.04
  -8  -2   6    0.10    0.03
   8  -2  -6    0.09    0.04
   8   2  -6    0.07    0.03
   8   2  -6    0.10    0.02
  -7  -2   6    1.65    0.05
  -7   2   6    1.68    0.06
  -7  -2   6    1.77    0.06
   7  -2  -6    1.62    0.06
   7  -2  -6    1.63    0.06
   7   2  -6    1.63    0.06
   6   2  -6    0.06    0.03
   6  -2  -6    0.07    0.03
  -6   2   6    0.05    0.03
   6  -2  -6    0.03    0.03
   6   2  -6    0.09    0.03
   5   2  -6    0.07    0.03
   5  -2  -6    0.03    0.03
  -5   2   6    0.03    0.03
   5  -2  -6    0.04    0.03
   5   2  -6    0.04    0.03
   4   2  -6    1.59    0.06
  -4   2   6    1.62    0.05
   4  -2  -6    1.54    0.06
   4  -2  -6    1.53    0.06
   4   2  -6    1.43    0.06
   3  -2  -6    0.76    0.04
   3   2  -6    0.82    0.04
   3  -2  -6    0.82    0.03
   3  -2  -6    0.81    0.04
  -3   2   6    0.81    0.04
   3  -2  -6    0.81    0.04
   3   2  -6    0.81    0.05
   2  -2  -6    2.48    0.06
   2   2  -6    2.53    0.07
   2  -2  -6    2.55    0.05
   2  -2  -6    2.45    0.07
   2  -2  -6    2.59    0.07
   2   2  -6    2.39    0.07
  -2   2   6    2.62    0.06
   1  -2  -6    0.07    0.02
   1   2  -6    0.08    0.03
   1   2  -6    0.09    0.02
   1  -2  -6    0.10    0.02
  -1   2   6    0.08    0.02
   1  -2  -6    0.08    0.03
   1  -2  -6    0.09    0.03
   1   2  -6    0.10    0.03
   0  -2  -6    2.70    0.06
   0   2  -6    2.48    0.07
   0   2  -6    2.55    0.06
   0  -2  -6    2.59    0.06
   0  -2  -6    2.56    0.07
   0   2   6    2.42    0.05
   0  -2  -6    2.56    0.07
   0   2  -6    2.54    0.07
  -1  -2  -6    1.26    0.04
  -1   2  -6    1.24    0.06
  -1   2  -6    1.19    0.05
  -1  -2  -6    1.24    0.05
  -1  -2  -6    1.25    0.05
  -1  -2  -6    1.20    0.05
  -1   2  -6    1.20    0.05
  -2  -2  -6    0.26    0.03
  -2   2  -6    0.29    0.04
  -2  -2  -6    0.29    0.04
  -2   2  -6    0.29    0.04
  -2  -2  -6    0.30    0.03
  -2  -2  -6    0.29    0.03
  -2   2  -6    0.34    0.03
  -3  -2  -6    0.21    0.03
  -3   2  -6    0.22    0.04
  -3  -2  -6    0.22    0.04
  -3   2  -6    0.23    0.04
  -3  -2  -6    0.20    0.04
  -3   2  -6    0.24    0.03
  -3  -2  -6    0.19    0.03
  -4  -2  -6    0.02    0.02
  -4   2  -6    0.00    0.03
  -4  -2  -6    0.00    0.03
  -4   2  -6    0.00    0.03
  -4  -2  -6   -0.02    0.04
  -4  -2  -6    0.00    0.02
  -4   2  -6    0.00    0.02
  -5  -2  -6    0.01    0.02
  -5   2  -6    0.00    0.03
  -5  -2  -6    0.02    0.03
  -5   2  -6    0.02    0.03
  -5  -2  -6   -0.02    0.04
  -6   2  -6    0.00    0.04
  -6  -2  -6    0.02    0.04
  -6   2  -6    0.01    0.04
  -6  -2  -6   -0.02    0.04
  -7   2  -6    0.02    0.04
  -7  -2  -6    0.00    0.04
  -7   2  -6    0.02    0.04
  -7  -2  -6    0.01    0.04
  -8  -2  -6    0.05    0.04
  -8   2  -6    0.06    0.04
  -8   2  -6    0.03    0.04
  -8  -2  -6    0.04    0.04
  -9  -2  -6    0.11    0.04
  -9   2  -6    0.11    0.04
  -9   2  -6    0.14    0.05
  -9  -2  -6    0.15    0.04
 -10   2  -6    0.33    0.05
 -10   2  -6    0.39    0.05
 -10  -2  -6    0.33    0.05
 -11   2  -6    0.01    0.04
 -11   2  -6   -0.01    0.04
 -11  -2  -6    0.01    0.04
 -16   3   6    0.21    0.05
  15  -3  -6    0.01    0.04
 -15   3   6   -0.05    0.04
 -15  -3   6    0.00    0.04
  14  -3  -6    0.01    0.04
 -14   3   6    0.01    0.04
 -14  -3   6    0.00    0.03
 -14   3   6    0.04    0.04
 -14  -3   6    0.04    0.04
  13  -3  -6    0.01    0.04
 -13   3   6   -0.01    0.03
 -13  -3   6    0.00    0.04
 -13   3   6    0.01    0.04
 -13  -3   6   -0.01    0.04
 -12  -3   6    2.07    0.07
 -12   3   6    2.01    0.08
 -12  -3   6    2.05    0.08
  12   3  -6    1.99    0.07
  12  -3  -6    2.19    0.08
 -12   3   6    2.19    0.07
 -11   3   6    0.02    0.03
 -11  -3   6    0.04    0.04
 -11   3   6    0.04    0.03
 -11  -3   6    0.04    0.03
  11  -3  -6    0.02    0.03
  11  -3  -6    0.06    0.04
  11   3  -6    0.01    0.03
 -10  -3   6    0.82    0.05
 -10   3   6    0.74    0.05
  10  -3  -6    0.77    0.05
  10  -3  -6    0.78    0.06
  10   3  -6    0.69    0.05
 -10   3   6    0.74    0.05
  -9   3   6    0.08    0.03
  -9  -3   6    0.13    0.03
  -9   3   6    0.06    0.03
   9  -3  -6    0.11    0.04
   9  -3  -6    0.10    0.03
   9   3  -6    0.11    0.04
  -8  -3   6    4.90    0.09
  -8   3   6    5.04    0.10
   8  -3  -6    4.91    0.10
   8  -3  -6    4.98    0.10
   8   3  -6    4.86    0.10
  -7  -3   6    1.17    0.05
  -7   3   6    1.16    0.05
   7  -3  -6    1.18    0.06
   7  -3  -6    1.19    0.06
   7   3  -6    1.12    0.06
   6   3  -6    0.10    0.03
   6  -3  -6    0.14    0.04
  -6   3   6    0.10    0.03
  -6  -3   6    0.11    0.02
   6  -3  -6    0.11    0.04
   6   3  -6    0.12    0.04
   5   3  -6    0.39    0.04
  -5   3   6    0.41    0.04
   5  -3  -6    0.34    0.04
   5  -3  -6    0.38    0.04
   5   3  -6    0.40    0.04
   4   3  -6    0.11    0.04
   4  -3  -6    0.12    0.04
  -4   3   6    0.10    0.03
   4  -3  -6    0.10    0.04
   4   3  -6    0.10    0.04
   3   3  -6    0.44    0.04
   3  -3  -6    0.45    0.04
  -3   3   6    0.45    0.03
   3  -3  -6    0.39    0.04
   3   3  -6    0.44    0.04
   2   3  -6    1.51    0.06
   2  -3  -6    1.42    0.04
   2  -3  -6    1.47    0.06
  -2   3   6    1.47    0.05
   2  -3  -6    1.40    0.06
   2   3  -6    1.49    0.06
   1   3  -6    1.32    0.06
   1  -3  -6    1.31    0.05
   1  -3  -6    1.31    0.06
  -1   3   6    1.37    0.05
   1  -3  -6    1.29    0.05
   1   3  -6    1.37    0.06
   0   3  -6    0.06    0.04
   0   3   6    0.05    0.02
   0  -3  -6    0.07    0.03
   0  -3  -6    0.06    0.03
   0  -3  -6    0.08    0.03
   0   3  -6    0.09    0.03
  -1   3  -6    0.41    0.04
  -1  -3  -6    0.40    0.04
  -1  -3  -6    0.39    0.03
  -1  -3  -6    0.43    0.04
  -1   3  -6    0.44    0.04
  -2   3  -6    1.68    0.06
  -2   3  -6    1.49    0.06
  -2  -3  -6    1.57    0.06
  -2  -3  -6    1.58    0.06
  -2  -3  -6    1.57    0.06
  -2   3  -6    1.62    0.06
  -3   3  -6    0.45    0.05
  -3  -3  -6    0.37    0.04
  -3   3  -6    0.37    0.04
  -3  -3  -6    0.40    0.04
  -3  -3  -6    0.38    0.04
  -3   3  -6    0.42    0.04
  -4   3  -6    0.06    0.04
  -4  -3  -6    0.00    0.04
  -4   3  -6    0.00    0.03
  -4  -3  -6    0.02    0.03
  -4  -3  -6    0.02    0.02
  -4   3  -6    0.02    0.02
  -5   3  -6    0.13    0.04
  -5  -3  -6    0.08    0.04
  -5   3  -6    0.12    0.04
  -5  -3  -6    0.06    0.03
  -6   3  -6    0.07    0.04
  -6  -3  -6    0.11    0.04
  -6   3  -6    0.06    0.04
  -6  -3  -6    0.06    0.04
  -7   3  -6    0.02    0.04
  -7  -3  -6    0.04    0.04
  -7   3  -6    0.04    0.04
  -7  -3  -6    0.00    0.03
  -8   3  -6    0.10    0.04
  -8  -3  -6    0.09    0.04
  -8   3  -6    0.06    0.04
  -8  -3  -6    0.09    0.05
  -9   3  -6    0.38    0.05
  -9  -3  -6    0.39    0.05
  -9   3  -6    0.36    0.05
  -9  -3  -6    0.37    0.05
 -10   3  -6    0.05    0.04
 -10   3  -6    0.07    0.04
 -10  -3  -6    0.03    0.04
 -11   3  -6    0.04    0.04
 -11   3  -6    0.06    0.04
 -11  -3  -6    0.07    0.05
 -15   4   6    0.10    0.04
 -15  -4   6    0.08    0.04
 -14   4   6    0.00    0.04
 -14  -4   6    0.00    0.04
  14  -4  -6   -0.02    0.04
 -13   4   6    0.01    0.03
 -13  -4   6    0.01    0.04
 -13   4   6    0.02    0.04
 -13  -4   6    0.02    0.04
  13  -4  -6    0.01    0.04
 -12   4   6    0.16    0.04
 -12  -4   6    0.16    0.04
 -12   4   6    0.17    0.04
  12  -4  -6    0.14    0.04
  12   4  -6    0.15    0.04
 -11   4   6    0.20    0.04
 -11  -4   6    0.19    0.04
 -11   4   6    0.17    0.04
  11  -4  -6    0.14    0.04
  11  -4  -6    0.17    0.04
  11   4  -6    0.16    0.04
 -10  -4   6    0.33    0.04
 -10   4   6    0.34    0.04
  10  -4  -6    0.38    0.04
  10  -4  -6    0.35    0.05
  10   4  -6    0.31    0.04
 -10   4   6    0.36    0.04
  -9  -4   6    0.50    0.04
   9  -4  -6    0.50    0.04
  -9   4   6    0.50    0.05
   9  -4  -6    0.50    0.04
   9  -4  -6    0.50    0.05
   9   4  -6    0.50    0.04
  -8  -4   6    0.91    0.05
  -8   4   6    0.88    0.05
   8  -4  -6    0.85    0.06
   8  -4  -6    0.79    0.05
   8   4  -6    0.80    0.06
  -7  -4   6    5.47    0.10
  -7   4   6    5.37    0.10
   7  -4  -6    5.42    0.11
   7  -4  -6    5.21    0.11
   7   4  -6    5.27    0.11
   6   4  -6    2.04    0.07
  -6  -4   6    2.04    0.06
  -6   4   6    2.08    0.07
   6  -4  -6    2.06    0.07
   6  -4  -6    2.09    0.07
   6   4  -6    2.20    0.07
   5   4  -6    0.00    0.03
   5  -4  -6    0.02    0.04
  -5   4   6    0.01    0.03
  -5  -4   6    0.01    0.02
   5  -4  -6    0.02    0.03
   5   4  -6    0.01    0.04
   4   4  -6    0.07    0.03
   4  -4  -6    0.07    0.03
  -4   4   6    0.09    0.03
   4  -4  -6    0.08    0.03
   4   4  -6    0.09    0.04
   3   4  -6    0.66    0.05
   3  -4  -6    0.79    0.05
  -3   4   6    0.75    0.04
   3  -4  -6    0.70    0.05
   3   4  -6    0.67    0.05
   2   4  -6    0.29    0.04
   2  -4  -6    0.31    0.03
   2  -4  -6    0.29    0.04
  -2   4   6    0.34    0.03
   2  -4  -6    0.33    0.04
   2   4  -6    0.32    0.04
   1   4  -6    1.19    0.06
   1  -4  -6    1.03    0.05
   1  -4  -6    1.10    0.06
  -1   4   6    1.19    0.05
   1  -4  -6    1.13    0.06
   1   4  -6    1.12    0.06
   0   4  -6    0.24    0.04
   0  -4  -6    0.27    0.03
   0   4   6    0.20    0.02
   0  -4  -6    0.25    0.04
   0   4  -6    0.25    0.03
   0  -4  -6    0.27    0.04
  -1   4  -6    0.72    0.05
  -1  -4  -6    0.78    0.05
  -1  -4  -6    0.75    0.04
  -1  -4  -6    0.78    0.05
  -1   4  -6    0.84    0.05
  -2   4  -6    0.29    0.04
  -2  -4  -6    0.25    0.04
  -2  -4  -6    0.25    0.04
  -2   4  -6    0.24    0.03
  -3   4  -6    0.00    0.04
  -3  -4  -6    0.01    0.03
  -3  -4  -6   -0.01    0.03
  -3   4  -6    0.01    0.03
  -4   4  -6    1.64    0.07
  -4  -4  -6    1.67    0.07
  -4  -4  -6    1.67    0.07
  -5   4  -6    0.05    0.04
  -5  -4  -6    0.07    0.04
  -5  -4  -6    0.03    0.04
  -6   4  -6    1.04    0.06
  -6  -4  -6    1.00    0.06
  -6  -4  -6    1.09    0.06
  -7   4  -6    0.09    0.05
  -7  -4  -6    0.09    0.04
  -7  -4  -6    0.08    0.04
  -8  -4  -6    0.35    0.05
  -8   4  -6    0.29    0.05
  -8  -4  -6    0.27    0.04
  -9  -4  -6    0.03    0.04
  -9   4  -6    0.01    0.05
  -9  -4  -6   -0.01    0.04
 -10  -4  -6    0.00    0.04
 -10   4  -6    0.03    0.05
 -10  -4  -6    0.00    0.05
 -14  -5   6    0.71    0.07
  14  -5  -6    0.71    0.07
 -14   5   6    0.71    0.06
  13  -5  -6    0.08    0.04
 -13   5   6    0.08    0.03
 -13  -5   6    0.07    0.04
  13  -5  -6    0.12    0.04
  12  -5  -6    0.04    0.04
 -12   5   6    0.03    0.03
  12  -5  -6    0.05    0.04
 -12   5   6    0.04    0.03
 -12  -5   6    0.03    0.04
  12   5  -6    0.06    0.04
  11  -5  -6    0.04    0.04
 -11   5   6    0.02    0.03
  11  -5  -6    0.03    0.04
 -11   5   6    0.03    0.03
 -11  -5   6    0.10    0.04
  11   5  -6    0.01    0.04
  10  -5  -6    0.10    0.04
  10  -5  -6    0.07    0.04
 -10   5   6    0.11    0.04
 -10  -5   6    0.08    0.04
  10   5  -6    0.12    0.04
   9  -5  -6    0.11    0.05
  -9   5   6    0.14    0.04
  -9  -5   6    0.18    0.04
   9   5  -6    0.15    0.04
  -8  -5   6    0.73    0.05
  -8   5   6    0.68    0.05
   8  -5  -6    0.69    0.06
   8   5  -6    0.73    0.05
   7  -5  -6    0.21    0.05
  -7   5   6    0.15    0.04
  -7  -5   6    0.19    0.04
   7   5  -6    0.21    0.04
   6   5  -6    4.60    0.10
  -6  -5   6    4.66    0.09
  -6   5   6    4.41    0.10
   6  -5  -6    4.44    0.10
   6   5  -6    4.51    0.10
   5   5  -6    6.62    0.12
  -5  -5   6    6.25    0.10
  -5   5   6    6.73    0.12
   5  -5  -6    6.57    0.12
   5   5  -6    6.62    0.12
   4   5  -6    3.86    0.09
  -4   5   6    4.03    0.09
   4  -5  -6    4.01    0.10
   4   5  -6    3.94    0.10
   3   5  -6    0.41    0.05
   3  -5  -6    0.46    0.05
  -3   5   6    0.54    0.04
   3   5  -6    0.48    0.05
   2   5  -6   -0.02    0.03
  -2   5   6    0.02    0.03
   2  -5  -6    0.01    0.02
   2   5  -6    0.00    0.04
   2  -5  -6    0.00    0.04
   1   5  -6    0.10    0.04
  -1   5   6    0.09    0.03
   1  -5  -6    0.11    0.03
   1  -5  -6    0.10    0.04
   1   5  -6    0.10    0.04
   0   5  -6    0.03    0.04
   0   5   6    0.04    0.02
   0  -5  -6    0.03    0.03
   0  -5  -6    0.06    0.04
   0   5  -6    0.02    0.04
  -1   5  -6    0.06    0.04
  -1  -5  -6    0.03    0.03
  -1  -5  -6    0.08    0.04
  -1   5  -6    0.07    0.03
  -2   5  -6   -0.01    0.04
  -2  -5  -6    0.00    0.04
  -2  -5  -6    0.03    0.03
  -2   5  -6    0.00    0.03
  -3   5  -6    0.37    0.05
  -3  -5  -6    0.32    0.04
  -3  -5  -6    0.35    0.05
  -3   5  -6    0.35    0.04
  -4   5  -6    0.20    0.05
  -4  -5  -6    0.15    0.04
  -4  -5  -6    0.16    0.04
  -5   5  -6    1.82    0.08
  -5  -5  -6    1.80    0.08
  -5  -5  -6    1.76    0.08
  -6   5  -6    0.05    0.05
  -6  -5  -6    0.02    0.04
  -6  -5  -6    0.03    0.04
  -7   5  -6    0.45    0.06
  -7  -5  -6    0.41    0.05
  -7  -5  -6    0.46    0.05
  -8   5  -6    0.01    0.04
  -8  -5  -6    0.00    0.04
  -8  -5  -6    0.01    0.04
  -9  -5  -6   -0.02    0.05
  -9   5  -6   -0.02    0.05
  -9  -5  -6    0.02    0.04
  13  -6  -6    1.68    0.08
 -13   6   6    1.70    0.07
  12  -6  -6    0.10    0.04
  12  -6  -6    0.12    0.04
 -12  -6   6    0.12    0.04
  12   6  -6    0.11    0.04
  11  -6  -6    0.14    0.04
  11  -6  -6    0.15    0.04
 -11  -6   6    0.16    0.04
  11   6  -6    0.21    0.04
  10  -6  -6    0.00    0.04
 -10   6   6    0.01    0.03
 -10  -6   6    0.00    0.03
  10   6  -6    0.01    0.04
  -9  -6   6    0.98    0.06
  -9   6   6    0.92    0.06
   9  -6  -6    1.04    0.07
   9   6  -6    0.92    0.06
   8  -6  -6    0.00    0.04
  -8   6   6    0.01    0.04
  -8  -6   6    0.02    0.04
   8   6  -6    0.00    0.04
   7  -6  -6    0.10    0.04
  -7   6   6    0.12    0.04
  -7  -6   6    0.12    0.03
   7   6  -6    0.12    0.04
   6   6  -6    0.22    0.04
   6  -6  -6    0.26    0.05
  -6   6   6    0.25    0.04
  -6  -6   6    0.21    0.04
   6   6  -6    0.25    0.05
   5  -6  -6    0.05    0.04
   5   6  -6    0.01    0.04
  -5   6   6    0.05    0.03
  -5  -6   6    0.02    0.03
   5   6  -6    0.07    0.04
   4  -6  -6    0.30    0.05
   4   6  -6    0.27    0.04
  -4   6   6    0.31    0.04
   4   6  -6    0.27    0.04
   3   6  -6    0.49    0.05
   3  -6  -6    0.43    0.05
  -3   6   6    0.48    0.05
   3   6  -6    0.49    0.05
   2   6  -6    1.83    0.07
   2  -6  -6    1.90    0.08
  -2   6   6    1.81    0.07
   2   6  -6    1.76    0.07
   1   6  -6    0.74    0.05
   1  -6  -6    0.73    0.06
   1  -6  -6    0.77    0.05
  -1   6   6    0.77    0.05
   1   6  -6    0.75    0.06
   0   6  -6    0.59    0.05
   0  -6  -6    0.60    0.05
   0  -6  -6    0.59    0.04
   0   6  -6    0.62    0.05
  -1   6  -6    0.66    0.05
  -1  -6  -6    0.62    0.05
  -1  -6  -6    0.79    0.05
  -1   6  -6    0.67    0.05
  -2   6  -6    2.06    0.08
  -2  -6  -6    2.13    0.08
  -2  -6  -6    2.05    0.08
  -2   6  -6    2.10    0.07
  -3   6  -6    0.69    0.06
  -3  -6  -6    0.74    0.06
  -3  -6  -6    0.74    0.06
  -3   6  -6    0.76    0.05
  -4   6  -6    0.03    0.04
  -4  -6  -6    0.00    0.04
  -4  -6  -6    0.04    0.04
  -5   6  -6    0.02    0.04
  -5  -6  -6    0.02    0.05
  -5  -6  -6    0.01    0.04
  -6   6  -6    0.08    0.04
  -6  -6  -6    0.05    0.05
  -6  -6  -6    0.09    0.04
  -7   6  -6    0.16    0.04
  -7  -6  -6    0.19    0.05
  -7  -6  -6    0.15    0.04
  -8   6  -6    0.62    0.06
  11   7  -6    0.02    0.03
 -10  -7   6    0.41    0.06
  10  -7  -6    0.41    0.05
  10   7  -6    0.41    0.06
  -9  -7   6    0.44    0.05
   9  -7  -6    0.43    0.06
   9   7  -6    0.37    0.05
  -8  -7   6    0.71    0.05
   8  -7  -6    0.66    0.06
   8   7  -6    0.63    0.06
   7  -7  -6    0.11    0.04
  -7   7   6    0.12    0.04
  -7  -7   6    0.15    0.04
   7   7  -6    0.10    0.04
   6  -7  -6    0.02    0.04
  -6   7   6    0.02    0.04
  -6  -7   6    0.05    0.03
   6   7  -6    0.04    0.04
   5  -7  -6    0.13    0.04
  -5   7   6    0.12    0.04
  -5  -7   6    0.11    0.03
   5   7  -6    0.09    0.04
   4  -7  -6    0.03    0.04
  -4   7   6    0.13    0.04
   4   7  -6    0.09    0.04
   3   7  -6    0.00    0.03
  -3   7   6    0.01    0.04
   3  -7  -6   -0.03    0.04
   3   7  -6    0.02    0.04
   2   7  -6    0.10    0.04
  -2   7   6    0.10    0.04
   2  -7  -6    0.09    0.04
   2   7  -6    0.13    0.04
   1   7  -6    3.75    0.10
   1  -7  -6    3.69    0.10
   1  -7  -6    3.69    0.09
  -1   7   6    3.86    0.10
   1   7  -6    3.38    0.10
   0   7  -6    2.45    0.08
   0  -7  -6    2.22    0.08
   0  -7  -6    2.17    0.08
   0   7  -6    2.18    0.08
  -1   7  -6    0.57    0.05
  -1  -7  -6    0.56    0.05
  -1  -7  -6    0.57    0.05
  -1   7  -6    0.65    0.06
  -2   7  -6    0.06    0.04
  -2  -7  -6    0.00    0.04
  -2  -7  -6    0.00    0.04
  -2   7  -6    0.03    0.04
  -3   7  -6    0.01    0.04
  -3  -7  -6   -0.02    0.04
  -3  -7  -6    0.04    0.04
  -3   7  -6    0.01    0.05
  -4   7  -6    0.23    0.05
  -4  -7  -6    0.24    0.05
  -4  -7  -6    0.20    0.04
  -5   7  -6    0.00    0.04
  -5  -7  -6    0.01    0.05
  -5  -7  -6    0.01    0.04
  -6   7  -6    0.04    0.05
  -6  -7  -6    0.10    0.05
  -6  -7  -6    0.00    0.04
   8  -8  -6    0.07    0.04
  -8  -8   6    0.04    0.04
   7  -8  -6    0.05    0.04
  -7  -8   6   -0.02    0.04
   6  -8  -6    0.13    0.04
  -6  -8   6    0.09    0.04
   6   8  -6    0.10    0.05
  -5  -8   6    0.46    0.05
   5  -8  -6    0.40    0.05
   5   8  -6    0.40    0.05
   4  -8  -6    0.04    0.04
   4   8  -6    0.04    0.04
  -3   8   6    0.14    0.04
   3  -8  -6    0.09    0.04
   3   8  -6    0.08    0.04
  -2   8   6    0.02    0.04
   2  -8  -6    0.00    0.04
   2   8  -6    0.00    0.04
  -1   8   6    0.18    0.04
   1  -8  -6    0.20    0.04
   1   8  -6    0.28    0.05
   0  -8  -6   -0.03    0.04
   0  -8  -6    0.02    0.04
   0   8  -6    0.00    0.04
  -1  -8  -6    0.22    0.05
  -1  -8  -6    0.14    0.04
  -1   8  -6    0.16    0.04
  -2  -8  -6    0.20    0.04
  -2  -8  -6    0.22    0.05
  -2   8  -6    0.20    0.04
  -3  -8  -6   -0.09    0.04
  -3  -8  -6   -0.02    0.04
  -3   8  -6   -0.01    0.03
  16   0  -7    0.03    0.04
 -16   0   7    0.04    0.04
  15   0  -7    0.02    0.04
 -15   0   7    0.03    0.04
  14   0  -7    0.01    0.04
 -14   0   7    0.03    0.04
 -14   0   7    0.01    0.04
  13   0  -7    0.04    0.04
 -13   0   7    0.02    0.04
  12   0  -7    0.04    0.04
 -12   0   7    0.00    0.04
  12   0  -7    0.01    0.03
 -11   0   7   -0.01    0.04
  11   0  -7    0.01    0.03
  11   0  -7    0.00    0.04
 -10   0   7    0.01    0.04
  10   0  -7    0.01    0.03
  10   0  -7   -0.01    0.04
   9   0  -7   -0.01    0.03
  -9   0   7    0.00    0.04
   9   0  -7    0.01    0.04
   8   0  -7    0.01    0.03
  -8   0   7   -0.02    0.03
   8   0  -7    0.00    0.04
   7   0  -7   -0.01    0.03
  -7   0   7   -0.02    0.03
   7   0  -7   -0.02    0.04
   6   0  -7    0.03    0.03
  -6   0   7   -0.01    0.03
   6   0  -7    0.00    0.03
   5   0  -7    0.04    0.03
   5   0  -7    0.01    0.03
  -5   0   7    0.02    0.03
   5   0  -7    0.01    0.03
   4   0  -7    0.00    0.03
   4   0  -7    0.03    0.03
  -4   0   7    0.02    0.03
   4   0  -7    0.02    0.03
   3   0  -7    0.00    0.02
   3   0  -7   -0.01    0.03
  -3   0   7    0.00    0.02
   3   0  -7   -0.01    0.03
   2   0  -7    0.00    0.03
   2   0  -7   -0.01    0.02
  -2   0   7   -0.02    0.02
   2   0  -7   -0.02    0.03
   2   0  -7    0.01    0.02
   1   0  -7    0.01    0.03
   1   0  -7   -0.01    0.02
   1   0  -7    0.00    0.02
   1   0  -7   -0.01    0.03
   0   0  -7    0.01    0.03
   0   0  -7    0.00    0.02
   0   0  -7   -0.01    0.03
   0   0  -7   -0.01    0.03
  -1   0  -7   -0.02    0.03
  -1   0  -7    0.00    0.03
  -1   0  -7    0.01    0.02
  -1   0  -7    0.00    0.03
  -2   0  -7   -0.01    0.03
  -2   0  -7   -0.02    0.03
  -2   0  -7    0.00    0.03
  -2   0  -7   -0.01    0.03
  -3   0  -7    0.00    0.03
  -3   0  -7    0.00    0.03
  -3   0  -7    0.00    0.03
  -3   0  -7    0.00    0.02
  -4   0  -7    0.00    0.03
  -4   0  -7    0.02    0.03
  -4   0  -7    0.01    0.03
  -5   0  -7    0.00    0.03
  -5   0  -7    0.01    0.03
  -5   0  -7    0.02    0.04
  -6   0  -7    0.01    0.04
  -6   0  -7    0.01    0.03
  -6   0  -7    0.01    0.04
  -7   0  -7   -0.02    0.04
  -7   0  -7    0.01    0.04
  -7   0  -7    0.03    0.04
  -8   0  -7    0.03    0.05
  -8   0  -7    0.01    0.04
  -9   0  -7    0.01    0.04
  -9   0  -7    0.02    0.04
 -10   0  -7    0.00    0.04
 -10   0  -7   -0.01    0.04
 -11   0  -7   -0.03    0.04
  16   1  -7    0.09    0.04
 -16   1   7    0.06    0.03
 -16  -1   7    0.10    0.04
  15  -1  -7    0.05    0.04
  15   1  -7    0.07    0.03
 -15   1   7    0.03    0.03
 -15  -1   7    0.04    0.03
  14  -1  -7    0.14    0.04
  14   1  -7    0.21    0.05
 -14  -1   7    0.16    0.04
 -14   1   7    0.20    0.04
 -14  -1   7    0.13    0.04
  13  -1  -7    0.11    0.04
  13   1  -7    0.16    0.04
 -13  -1   7    0.22    0.04
 -13   1   7    0.15    0.04
 -13  -1   7    0.21    0.05
  12   1  -7    0.01    0.04
 -12   1   7   -0.01    0.03
 -12  -1   7    0.02    0.03
  12  -1  -7   -0.01    0.03
  12   1  -7   -0.01    0.04
  12  -1  -7    0.00    0.03
 -11   1   7    0.01    0.03
 -11  -1   7    0.03    0.04
  11  -1  -7   -0.01    0.04
  11  -1  -7    0.03    0.04
  11   1  -7    0.03    0.03
  11   1  -7    0.00    0.03
 -10   1   7    2.08    0.08
 -10  -1   7    2.03    0.08
  10  -1  -7    2.02    0.07
  10   1  -7    2.05    0.07
  10  -1  -7    2.08    0.07
  10   1  -7    2.15    0.07
   9  -1  -7    0.19    0.04
  -9   1   7    0.19    0.04
  -9  -1   7    0.18    0.04
   9   1  -7    0.20    0.03
   9  -1  -7    0.20    0.04
   9   1  -7    0.17    0.04
  -8   1   7    0.93    0.05
  -8  -1   7    0.84    0.05
   8  -1  -7    0.88    0.05
   8   1  -7    0.86    0.05
   8  -1  -7    0.83    0.05
   8   1  -7    0.85    0.05
   7  -1  -7    0.07    0.03
   7   1  -7    0.07    0.03
  -7   1   7    0.05    0.03
  -7  -1   7    0.05    0.03
   7  -1  -7    0.06    0.04
   7   1  -7    0.06    0.03
   6   1  -7    6.83    0.12
  -6   1   7    7.11    0.11
  -6  -1   7    7.03    0.11
   6  -1  -7    7.11    0.11
   6   1  -7    7.03    0.10
   6  -1  -7    7.11    0.12
   6   1  -7    7.09    0.12
   5   1  -7   -0.02    0.04
   5   1  -7   -0.01    0.02
   5  -1  -7    0.00    0.03
  -5   1   7    0.03    0.03
  -5  -1   7    0.00    0.03
   5  -1  -7    0.02    0.03
   5   1  -7    0.00    0.03
   4   1  -7    0.06    0.02
   4  -1  -7    0.06    0.03
   4  -1  -7    0.07    0.03
   4   1  -7    0.06    0.03
  -4   1   7    0.11    0.03
  -4  -1   7    0.08    0.03
   4  -1  -7    0.06    0.04
   4   1  -7    0.08    0.03
   3  -1  -7    1.58    0.06
   3   1  -7    1.42    0.06
   3   1  -7    1.23    0.04
   3  -1  -7    1.55    0.06
  -3   1   7    1.55    0.05
  -3  -1   7    1.52    0.05
   3  -1  -7    1.48    0.06
   3   1  -7    1.39    0.06
   2  -1  -7    2.10    0.06
   2   1  -7    2.00    0.07
   2   1  -7    2.08    0.06
   2  -1  -7    1.47    0.05
   2   1  -7    1.57    0.05
   2  -1  -7    2.01    0.06
  -2   1   7    2.03    0.05
  -2  -1   7    2.15    0.06
   2  -1  -7    2.04    0.07
   2   1  -7    2.08    0.07
   1  -1  -7    0.07    0.03
   1   1  -7    0.11    0.04
   1   1  -7    0.11    0.03
   1  -1  -7    0.08    0.02
   1   1  -7    0.04    0.02
   1  -1  -7    0.08    0.03
   1  -1  -7    0.11    0.03
   1   1  -7    0.06    0.03
   0  -1  -7    0.13    0.03
   0   1  -7    0.10    0.03
   0   1  -7    0.11    0.03
   0  -1  -7    0.11    0.03
   0   1  -7    0.06    0.02
   0  -1  -7    0.10    0.03
   0  -1  -7    0.13    0.03
   0   1  -7    0.13    0.03
  -1  -1  -7    0.05    0.03
  -1   1  -7    0.08    0.03
  -1   1  -7    0.05    0.02
  -1   1  -7    0.11    0.03
  -1  -1  -7    0.09    0.03
  -1  -1  -7    0.10    0.03
  -1  -1  -7    0.10    0.03
  -1   1  -7    0.08    0.03
  -2  -1  -7    0.02    0.03
  -2   1  -7    0.00    0.03
  -2   1  -7    0.02    0.02
  -2  -1  -7   -0.01    0.03
  -2   1  -7    0.02    0.03
  -2  -1  -7    0.02    0.03
  -2  -1  -7    0.04    0.03
  -2   1  -7    0.02    0.03
  -3  -1  -7    0.34    0.04
  -3   1  -7    0.45    0.04
  -3  -1  -7    0.35    0.04
  -3   1  -7    0.40    0.04
  -3  -1  -7    0.40    0.04
  -3  -1  -7    0.39    0.04
  -3   1  -7    0.39    0.04
  -4  -1  -7    0.16    0.04
  -4   1  -7    0.19    0.04
  -4  -1  -7    0.15    0.04
  -4   1  -7    0.15    0.04
  -4  -1  -7    0.11    0.04
  -5  -1  -7    0.53    0.04
  -5   1  -7    0.39    0.04
  -5  -1  -7    0.43    0.05
  -5   1  -7    0.48    0.05
  -5  -1  -7    0.47    0.05
  -6  -1  -7    0.00    0.03
  -6   1  -7    0.04    0.04
  -6  -1  -7    0.01    0.04
  -6   1  -7    0.04    0.04
  -6  -1  -7    0.03    0.03
  -7  -1  -7    0.21    0.04
  -7   1  -7    0.23    0.05
  -7  -1  -7    0.24    0.05
  -7   1  -7    0.25    0.05
  -7  -1  -7    0.24    0.05
  -8  -1  -7    0.10    0.04
  -8  -1  -7    0.06    0.04
  -8   1  -7    0.07    0.04
  -8   1  -7    0.05    0.04
  -8  -1  -7    0.09    0.05
  -9   1  -7    0.35    0.05
  -9   1  -7    0.36    0.05
  -9  -1  -7    0.51    0.06
 -10   1  -7    0.00    0.04
 -10   1  -7    0.00    0.04
 -10  -1  -7    0.00    0.04
  15  -2  -7    0.02    0.04
 -15  -2   7    0.05    0.04
 -14  -2   7    0.08    0.04
  14  -2  -7    0.11    0.04
 -13   2   7    0.46    0.05
 -13  -2   7    0.48    0.05
  13  -2  -7    0.48    0.05
 -13  -2   7    0.48    0.04
 -12   2   7    0.02    0.04
 -12  -2   7    0.04    0.03
  12  -2  -7    0.02    0.04
  12  -2  -7    0.03    0.03
  12   2  -7    0.07    0.03
 -11   2   7    0.20    0.04
 -11  -2   7    0.17    0.04
  11  -2  -7    0.18    0.05
  11  -2  -7    0.20    0.04
  11   2  -7    0.20    0.04
  10  -2  -7    0.02    0.04
 -10   2   7   -0.01    0.04
 -10  -2   7   -0.01    0.04
  10  -2  -7    0.02    0.03
  10   2  -7    0.03    0.04
  -9   2   7    8.04    0.13
  -9  -2   7    8.08    0.13
   9  -2  -7    7.94    0.13
   9  -2  -7    8.06    0.13
   9   2  -7    7.69    0.13
  -8   2   7    0.44    0.04
  -8  -2   7    0.44    0.05
   8  -2  -7    0.36    0.04
   8  -2  -7    0.37    0.05
   8   2  -7    0.37    0.04
   7  -2  -7    0.17    0.04
  -7   2   7    0.16    0.04
  -7  -2   7    0.14    0.04
   7  -2  -7    0.14    0.04
   7   2  -7    0.16    0.04
   6   2  -7    0.35    0.04
  -6   2   7    0.33    0.04
  -6  -2   7    0.29    0.04
   6  -2  -7    0.30    0.04
   6  -2  -7    0.28    0.04
   6   2  -7    0.27    0.04
   5   2  -7    0.39    0.05
  -5   2   7    0.35    0.04
   5  -2  -7    0.40    0.04
  -5  -2   7    0.40    0.04
   5  -2  -7    0.38    0.05
   5   2  -7    0.35    0.04
   4   2  -7    1.03    0.06
   4  -2  -7    1.03    0.05
  -4   2   7    1.12    0.05
  -4  -2   7    1.09    0.05
   4  -2  -7    1.02    0.06
   4   2  -7    1.01    0.06
   3  -2  -7    0.02    0.03
   3  -2  -7    0.01    0.02
   3   2  -7    0.03    0.03
  -3   2   7    0.02    0.02
  -3  -2   7    0.02    0.03
   3  -2  -7    0.02    0.03
   3   2  -7    0.03    0.03
   2  -2  -7    0.00    0.02
   2   2  -7    0.01    0.04
  -2   2   7    0.01    0.02
  -2  -2   7    0.02    0.02
   2  -2  -7    0.01    0.03
   2   2  -7    0.02    0.03
   2  -2  -7    0.03    0.03
   1  -2  -7    0.16    0.03
   1   2  -7    0.16    0.04
   1   2  -7    0.17    0.03
   1  -2  -7    0.17    0.03
   1  -2  -7    0.16    0.04
   1  -2  -7    0.18    0.03
   1   2  -7    0.17    0.04
   0  -2  -7    0.07    0.03
   0   2  -7    0.06    0.03
   0   2  -7    0.07    0.03
   0  -2  -7    0.05    0.02
   0  -2  -7    0.10    0.04
   0  -2  -7    0.06    0.03
   0   2  -7    0.07    0.03
  -1  -2  -7    0.07    0.03
  -1   2  -7    0.04    0.03
  -1   2  -7    0.09    0.03
  -1  -2  -7    0.05    0.03
  -1  -2  -7    0.04    0.03
  -1  -2  -7    0.04    0.03
  -1   2  -7    0.06    0.03
  -2  -2  -7    0.29    0.03
  -2   2  -7    0.37    0.05
  -2  -2  -7    0.33    0.04
  -2   2  -7    0.36    0.04
  -2  -2  -7    0.35    0.04
  -2  -2  -7    0.41    0.04
  -2   2  -7    0.35    0.04
  -3   2  -7    0.00    0.03
  -3  -2  -7   -0.02    0.04
  -3   2  -7    0.00    0.03
  -3  -2  -7   -0.02    0.03
  -3  -2  -7    0.00    0.03
  -3   2  -7    0.00    0.03
  -4   2  -7    0.02    0.04
  -4  -2  -7    0.01    0.04
  -4   2  -7    0.00    0.04
  -4  -2  -7    0.02    0.04
  -5   2  -7    0.08    0.04
  -5  -2  -7    0.06    0.04
  -5   2  -7    0.06    0.04
  -5  -2  -7    0.05    0.04
  -6   2  -7    0.07    0.04
  -6  -2  -7    0.08    0.04
  -6   2  -7    0.06    0.04
  -6  -2  -7    0.08    0.04
  -7   2  -7    0.01    0.04
  -7  -2  -7    0.02    0.04
  -7   2  -7    0.00    0.04
  -7  -2  -7    0.02    0.04
  -8  -2  -7    0.04    0.04
  -8   2  -7    0.01    0.04
  -8   2  -7    0.00    0.04
  -8  -2  -7    0.02    0.04
  -9  -2  -7    0.04    0.04
  -9   2  -7   -0.01    0.04
  -9   2  -7   -0.01    0.05
  -9  -2  -7    0.01    0.04
 -10   2  -7    0.04    0.04
 -15  -3   7    0.04    0.03
 -14  -3   7   -0.06    0.03
  14  -3  -7    0.00    0.04
 -13  -3   7    0.34    0.04
 -13  -3   7    0.35    0.05
 -13   3   7    0.33    0.05
  13  -3  -7    0.35    0.05
 -12  -3   7    0.43    0.04
 -12   3   7    0.43    0.05
 -12  -3   7    0.43    0.05
  12  -3  -7    0.45    0.05
  12  -3  -7    0.45    0.05
  12   3  -7    0.41    0.04
 -11   3   7    0.53    0.05
 -11  -3   7    0.57    0.05
  11  -3  -7    0.56    0.05
  11  -3  -7    0.64    0.06
  11   3  -7    0.58    0.05
  10  -3  -7    0.00    0.04
 -10   3   7   -0.02    0.03
 -10  -3   7    0.01    0.04
  10  -3  -7    0.01    0.03
  10   3  -7    0.00    0.04
   9  -3  -7    0.29    0.05
  -9  -3   7    0.31    0.04
  -9   3   7    0.25    0.04
   9  -3  -7    0.29    0.04
   9   3  -7    0.26    0.04
  -8   3   7    1.20    0.06
   8  -3  -7    1.22    0.06
   8  -3  -7    1.15    0.06
   8   3  -7    1.18    0.06
  -7   3   7    0.33    0.04
   7  -3  -7    0.35    0.05
   7  -3  -7    0.33    0.05
   7   3  -7    0.31    0.04
   6   3  -7    0.35    0.04
  -6   3   7    0.38    0.04
   6  -3  -7    0.36    0.05
   6  -3  -7    0.35    0.05
   6   3  -7    0.37    0.04
   5   3  -7    0.05    0.04
   5  -3  -7    0.02    0.04
  -5   3   7    0.02    0.03
   5  -3  -7    0.00    0.04
   5   3  -7    0.03    0.04
   4  -3  -7    0.08    0.04
   4   3  -7    0.04    0.04
  -4   3   7    0.08    0.03
   4  -3  -7    0.07    0.03
   4   3  -7    0.04    0.03
   3   3  -7    0.31    0.04
   3  -3  -7    0.30    0.04
  -3   3   7    0.33    0.03
   3  -3  -7    0.32    0.04
   3   3  -7    0.32    0.04
   2   3  -7    0.02    0.03
  -2   3   7    0.03    0.03
   2  -3  -7    0.01    0.04
   2   3  -7    0.04    0.03
   2  -3  -7    0.01    0.04
   1   3  -7    0.49    0.05
   1  -3  -7    0.45    0.03
   1  -3  -7    0.43    0.05
   1  -3  -7    0.45    0.05
   1   3  -7    0.43    0.04
   0   3  -7    0.83    0.06
   0  -3  -7    0.73    0.05
   0  -3  -7    0.80    0.04
   0  -3  -7    0.78    0.05
   0   3  -7    0.74    0.05
  -1   3  -7    0.14    0.04
  -1  -3  -7    0.14    0.03
  -1  -3  -7    0.11    0.04
  -1  -3  -7    0.15    0.04
  -1   3  -7    0.12    0.03
  -2   3  -7    0.03    0.04
  -2   3  -7    0.04    0.03
  -2  -3  -7    0.06    0.04
  -2  -3  -7    0.04    0.03
  -2  -3  -7    0.03    0.03
  -2   3  -7    0.03    0.03
  -3   3  -7    0.09    0.04
  -3  -3  -7    0.07    0.04
  -3   3  -7    0.09    0.04
  -3  -3  -7    0.12    0.04
  -3  -3  -7    0.11    0.03
  -3   3  -7    0.07    0.03
  -4   3  -7    0.04    0.04
  -4  -3  -7    0.02    0.04
  -4   3  -7    0.07    0.04
  -4  -3  -7    0.05    0.04
  -5   3  -7    0.03    0.04
  -5  -3  -7    0.12    0.04
  -5   3  -7    0.11    0.04
  -5  -3  -7    0.04    0.04
  -6   3  -7    0.02    0.04
  -6  -3  -7    0.03    0.04
  -6   3  -7    0.07    0.04
  -6  -3  -7    0.02    0.04
  -7   3  -7    0.04    0.04
  -7  -3  -7    0.08    0.04
  -7   3  -7    0.07    0.05
  -7  -3  -7    0.03    0.04
  -8   3  -7    0.02    0.04
  -8  -3  -7   -0.02    0.04
  -8   3  -7    0.01    0.05
  -8  -3  -7    0.02    0.04
  -9  -3  -7    0.04    0.05
  -9   3  -7    0.02    0.04
  -9   3  -7    0.03    0.05
  -9  -3  -7    0.05    0.05
 -14  -4   7    0.06    0.03
 -13  -4   7    0.24    0.04
  13  -4  -7    0.29    0.05
  12  -4  -7    0.23    0.05
 -12  -4   7    0.23    0.04
 -12   4   7    0.19    0.04
 -12  -4   7    0.15    0.04
  12  -4  -7    0.25    0.04
  12   4  -7    0.24    0.04
  11  -4  -7    0.02    0.04
 -11   4   7    0.05    0.03
  11  -4  -7    0.05    0.04
  11   4  -7    0.03    0.03
  10  -4  -7    0.10    0.04
 -10   4   7    0.08    0.04
  10  -4  -7    0.10    0.04
  10   4  -7    0.10    0.04
   9  -4  -7    0.01    0.04
  -9   4   7    0.01    0.04
   9  -4  -7    0.00    0.04
   9   4  -7    0.00    0.03
   8  -4  -7    0.07    0.04
  -8   4   7    0.06    0.04
   8  -4  -7    0.04    0.04
   8   4  -7    0.04    0.04
   7   4  -7    0.73    0.05
  -7   4   7    0.71    0.05
   7  -4  -7    0.73    0.06
   7  -4  -7    0.79    0.06
   7   4  -7    0.70    0.06
   6   4  -7    3.42    0.09
  -6   4   7    3.38    0.09
   6  -4  -7    3.38    0.09
   6  -4  -7    3.51    0.10
   6   4  -7    3.41    0.09
   5   4  -7    0.52    0.05
  -5   4   7    0.59    0.05
   5  -4  -7    0.60    0.05
   5  -4  -7    0.60    0.05
   5   4  -7    0.55    0.05
   4  -4  -7    0.11    0.04
   4   4  -7    0.10    0.04
  -4   4   7    0.15    0.04
   4  -4  -7    0.14    0.04
   4   4  -7    0.15    0.04
   3   4  -7    1.01    0.06
   3  -4  -7    1.05    0.06
  -3   4   7    1.09    0.05
   3  -4  -7    1.15    0.06
   3   4  -7    1.07    0.06
   2   4  -7    0.41    0.05
   2  -4  -7    0.49    0.05
  -2   4   7    0.54    0.04
   2  -4  -7    0.49    0.05
   2   4  -7    0.48    0.05
   1   4  -7    0.07    0.04
   1  -4  -7    0.03    0.02
   1  -4  -7    0.04    0.04
   1  -4  -7    0.10    0.04
   1   4  -7    0.06    0.04
   0   4  -7    0.00    0.03
   0  -4  -7    0.01    0.03
   0  -4  -7    0.01    0.04
   0  -4  -7    0.02    0.04
   0   4  -7    0.02    0.03
  -1   4  -7    0.06    0.04
  -1  -4  -7    0.06    0.03
  -1  -4  -7    0.06    0.04
  -1  -4  -7    0.04    0.04
  -1   4  -7    0.06    0.03
  -2   4  -7    0.00    0.04
  -2  -4  -7    0.00    0.04
  -2  -4  -7    0.00    0.03
  -2  -4  -7   -0.01    0.03
  -2   4  -7    0.03    0.03
  -3   4  -7    0.03    0.04
  -3  -4  -7   -0.01    0.04
  -3  -4  -7    0.01    0.04
  -3   4  -7    0.01    0.03
  -4   4  -7    0.40    0.05
  -4  -4  -7    0.36    0.05
  -4  -4  -7    0.37    0.05
  -5   4  -7    0.03    0.04
  -5  -4  -7    0.04    0.04
  -5  -4  -7   -0.01    0.04
  -6   4  -7    0.02    0.04
  -6  -4  -7    0.02    0.04
  -6  -4  -7    0.05    0.04
  -7   4  -7    0.03    0.04
  -7  -4  -7    0.00    0.04
  -7  -4  -7    0.04    0.04
  -8   4  -7    0.17    0.05
  -8  -4  -7    0.23    0.05
  -8  -4  -7    0.12    0.05
 -13  -5   7    0.02    0.03
  12  -5  -7   -0.04    0.04
 -12  -5   7    0.01    0.03
  12   5  -7    0.00    0.04
  11  -5  -7    0.02    0.05
  11   5  -7   -0.01    0.04
  10  -5  -7   -0.01    0.04
 -10   5   7    0.03    0.04
  10   5  -7    0.00    0.04
   9  -5  -7   -0.03    0.04
  -9   5   7   -0.01    0.04
   9  -5  -7    0.01    0.04
   9   5  -7    0.01    0.04
   8  -5  -7    0.03    0.04
  -8   5   7    0.04    0.04
   8  -5  -7    0.06    0.04
   8   5  -7    0.05    0.04
  -7   5   7    0.52    0.05
   7  -5  -7    0.51    0.05
   7  -5  -7    0.50    0.05
   7   5  -7    0.49    0.05
   6   5  -7    2.23    0.08
  -6   5   7    2.21    0.08
   6  -5  -7    2.30    0.08
   6  -5  -7    2.33    0.09
   6   5  -7    2.22    0.08
   5   5  -7    1.33    0.07
  -5   5   7    1.47    0.07
   5  -5  -7    1.47    0.07
   5  -5  -7    1.41    0.07
   5   5  -7    1.40    0.07
   4  -5  -7    0.13    0.05
   4   5  -7    0.15    0.04
  -4   5   7    0.13    0.04
   4  -5  -7    0.16    0.04
   4   5  -7    0.19    0.05
   3   5  -7    0.35    0.05
   3  -5  -7    0.43    0.05
  -3   5   7    0.38    0.04
   3  -5  -7    0.43    0.05
   3   5  -7    0.42    0.05
   2   5  -7    0.96    0.06
   2  -5  -7    1.00    0.06
  -2   5   7    1.06    0.05
   2   5  -7    1.05    0.06
   1   5  -7    0.52    0.05
   1  -5  -7    0.52    0.05
   1   5  -7    0.48    0.05
   0   5  -7    0.11    0.04
   0  -5  -7    0.14    0.03
   0  -5  -7    0.09    0.05
   0   5  -7    0.17    0.04
  -1   5  -7    0.01    0.04
  -1  -5  -7   -0.02    0.03
  -1  -5  -7   -0.02    0.04
  -1   5  -7    0.02    0.04
  -2   5  -7    0.02    0.04
  -2  -5  -7    0.00    0.04
  -2  -5  -7    0.00    0.04
  -2   5  -7    0.01    0.03
  -3   5  -7    0.01    0.04
  -3  -5  -7    0.02    0.04
  -3  -5  -7    0.02    0.04
  -3   5  -7    0.02    0.03
  -4   5  -7    0.04    0.05
  -4  -5  -7    0.00    0.04
  -4  -5  -7   -0.02    0.03
  -5   5  -7    0.37    0.05
  -5  -5  -7    0.37    0.05
  -5  -5  -7    0.34    0.05
  -6   5  -7    0.30    0.05
  -6  -5  -7    0.29    0.05
  -6  -5  -7    0.31    0.05
  -7   5  -7    0.15    0.05
  -7  -5  -7    0.20    0.05
  -7  -5  -7    0.14    0.05
  11   6  -7    0.02    0.05
  10  -6  -7    0.32    0.05
  10   6  -7    0.33    0.05
   9  -6  -7    0.03    0.04
   9   6  -7    0.01    0.04
   8  -6  -7    0.03    0.05
  -8   6   7    0.01    0.03
   8   6  -7    0.04    0.04
  -7   6   7    0.53    0.05
   7  -6  -7    0.64    0.06
   7   6  -7    0.48    0.05
   6  -6  -7    0.17    0.05
   6   6  -7    0.17    0.04
  -6   6   7    0.15    0.04
   6   6  -7    0.11    0.05
   5  -6  -7    0.06    0.05
   5   6  -7    0.00    0.04
  -5   6   7    0.07    0.04
   5   6  -7    0.07    0.05
   4   6  -7    0.87    0.06
   4  -6  -7    0.86    0.06
  -4   6   7    0.97    0.06
   4   6  -7    0.95    0.06
   3   6  -7    0.00    0.04
  -3   6   7   -0.02    0.03
   3  -6  -7   -0.01    0.05
   3   6  -7    0.04    0.04
   2   6  -7    1.01    0.06
   2  -6  -7    0.98    0.07
  -2   6   7    0.97    0.05
   2   6  -7    0.87    0.06
   1   6  -7    0.63    0.05
   1  -6  -7    0.61    0.06
   1   6  -7    0.59    0.06
   0   6  -7    0.43    0.05
   0  -6  -7    0.47    0.05
   0  -6  -7    0.46    0.05
   0   6  -7    0.46    0.05
  -1   6  -7    0.16    0.04
  -1  -6  -7    0.18    0.05
  -1  -6  -7    0.17    0.05
  -1   6  -7    0.22    0.05
  -2   6  -7    0.51    0.05
  -2  -6  -7    0.50    0.05
  -2  -6  -7    0.43    0.05
  -2   6  -7    0.56    0.05
  -3   6  -7    0.59    0.06
  -3  -6  -7    0.61    0.06
  -3  -6  -7    0.58    0.05
  -4   6  -7    0.47    0.06
  -4  -6  -7    0.53    0.06
  -4  -6  -7    0.41    0.05
  -5   6  -7   -0.01    0.04
  -5  -6  -7   -0.02    0.04
  -5  -6  -7    0.04    0.04
   8  -7  -7    0.37    0.05
   7  -7  -7    0.08    0.05
   7   7  -7    0.11    0.05
   6  -7  -7    0.42    0.06
   6   7  -7    0.42    0.06
   5  -7  -7    0.04    0.04
  -5   7   7    0.04    0.04
   5   7  -7    0.04    0.04
   4   7  -7    0.01    0.04
  -4   7   7    0.01    0.04
   4  -7  -7    0.00    0.04
   4   7  -7    0.03    0.04
   3   7  -7    0.06    0.04
  -3   7   7    0.02    0.03
   3  -7  -7    0.03    0.04
   3   7  -7   -0.01    0.04
   2   7  -7    0.01    0.04
   2  -7  -7    0.02    0.04
   2   7  -7    0.02    0.04
   1   7  -7    0.01    0.03
   1  -7  -7    0.00    0.04
   1   7  -7    0.01    0.04
   0   7  -7    0.46    0.06
   0  -7  -7    0.55    0.05
   0   7  -7    0.52    0.05
  -1   7  -7    0.09    0.04
  -1  -7  -7    0.08    0.05
  -1  -7  -7    0.08    0.03
  -1   7  -7    0.09    0.04
  -2   7  -7    0.35    0.05
  -2  -7  -7    0.34    0.05
  -2  -7  -7    0.37    0.05
  -2   7  -7    0.33    0.05
  -3   7  -7   -0.01    0.05
  -3  -7  -7    0.01    0.04
  -4  -7  -7    0.22    0.04
  15   0  -8    2.88    0.10
  14   0  -8    0.18    0.04
  13   0  -8   -0.02    0.04
  13   0  -8    0.01    0.03
 -12   0   8    0.79    0.06
  12   0  -8    0.70    0.05
  11   0  -8    0.01    0.04
 -11   0   8   -0.01    0.04
  11   0  -8    0.03    0.04
 -10   0   8    0.42    0.05
  10   0  -8    0.43    0.05
  10   0  -8    0.44    0.05
  -9   0   8    1.46    0.07
   9   0  -8    1.45    0.06
   9   0  -8    1.43    0.07
  -8   0   8    0.58    0.05
   8   0  -8    0.60    0.05
   8   0  -8    0.49    0.05
   7   0  -8    0.30    0.04
  -7   0   8    0.27    0.04
   7   0  -8    0.26    0.04
   6   0  -8    0.19    0.03
  -6   0   8    0.23    0.04
   6   0  -8    0.19    0.05
   5   0  -8    1.06    0.06
   5   0  -8    1.01    0.05
  -5   0   8    1.11    0.05
   5   0  -8    0.94    0.06
   4   0  -8    2.84    0.08
   4   0  -8    2.99    0.08
  -4   0   8    3.03    0.07
   4   0  -8    2.88    0.09
   3   0  -8    5.45    0.11
   3   0  -8    5.26    0.10
   3   0  -8    5.44    0.11
   2   0  -8    0.18    0.04
   2   0  -8    0.15    0.03
   2   0  -8    0.13    0.04
   1   0  -8    0.02    0.04
   1   0  -8    0.03    0.02
   1   0  -8    0.03    0.03
   1   0  -8    0.04    0.03
   0   0  -8   -0.01    0.04
   0   0  -8    0.02    0.03
   0   0  -8    0.00    0.03
   0   0  -8    0.03    0.03
  -1   0  -8    0.01    0.03
  -1   0  -8   -0.01    0.03
  -1   0  -8    0.01    0.03
  -1   0  -8    0.03    0.03
  -2   0  -8    0.09    0.04
  -2   0  -8    0.08    0.03
  -2   0  -8    0.07    0.03
  -2   0  -8    0.10    0.04
  -3   0  -8    0.14    0.04
  -3   0  -8    0.18    0.03
  -3   0  -8    0.14    0.04
  -4   0  -8    0.18    0.04
  -4   0  -8    0.24    0.04
  -4   0  -8    0.22    0.04
  -5   0  -8    0.09    0.05
  -5   0  -8    0.14    0.04
  -5   0  -8    0.17    0.05
  -6   0  -8    2.83    0.09
  -6   0  -8    2.71    0.08
  -6   0  -8    2.83    0.10
  -7   0  -8    0.18    0.04
  -7   0  -8    0.19    0.04
  -8   0  -8    1.89    0.08
  -8   0  -8    1.62    0.09
  -9   0  -8    0.03    0.04
  14  -1  -8    0.00    0.04
  13  -1  -8    0.09    0.04
  13  -1  -8    0.07    0.04
  13   1  -8    0.09    0.04
  12  -1  -8    0.08    0.04
 -12   1   8    0.10    0.04
 -12  -1   8    0.08    0.04
  12  -1  -8    0.08    0.04
  12   1  -8    0.03    0.04
  11  -1  -8    0.14    0.04
 -11   1   8    0.18    0.04
 -11  -1   8    0.16    0.04
  11  -1  -8    0.11    0.04
  11   1  -8    0.13    0.04
  10  -1  -8    0.26    0.04
 -10   1   8    0.33    0.05
 -10  -1   8    0.29    0.05
  10  -1  -8    0.29    0.05
  10   1  -8    0.25    0.04
  -9   1   8    1.45    0.07
  -9  -1   8    1.28    0.06
   9  -1  -8    1.18    0.06
   9  -1  -8    1.19    0.07
   9   1  -8    1.18    0.07
  -8  -1   8    0.70    0.05
   8  -1  -8    0.70    0.05
   8  -1  -8    0.72    0.06
   8   1  -8    0.73    0.05
  -7   1   8    1.30    0.06
  -7  -1   8    1.25    0.06
   7  -1  -8    1.19    0.06
   7  -1  -8    1.18    0.06
   7   1  -8    1.24    0.06
   6   1  -8    3.82    0.10
  -6   1   8    3.93    0.09
   6  -1  -8    3.91    0.09
  -6  -1   8    4.09    0.09
   6  -1  -8    3.88    0.10
   6   1  -8    3.93    0.10
   5  -1  -8    0.00    0.03
   5   1  -8    0.02    0.04
  -5   1   8    0.01    0.03
  -5  -1   8    0.02    0.03
   5  -1  -8    0.03    0.04
   5   1  -8    0.02    0.04
   4  -1  -8    0.31    0.04
   4  -1  -8    0.27    0.04
   4   1  -8    0.25    0.04
  -4   1   8    0.30    0.04
  -4  -1   8    0.33    0.03
   4   1  -8    0.29    0.05
   4  -1  -8    0.23    0.04
   3  -1  -8    0.16    0.04
   3   1  -8    0.12    0.04
   3  -1  -8    0.12    0.04
   3   1  -8    0.07    0.04
   3  -1  -8    0.15    0.04
   2  -1  -8    0.58    0.04
   2   1  -8    0.63    0.05
   2  -1  -8    0.64    0.05
   2  -1  -8    0.57    0.05
   2   1  -8    0.46    0.05
   1  -1  -8    0.66    0.05
   1   1  -8    0.65    0.05
   1   1  -8    0.62    0.04
   1  -1  -8    0.61    0.05
   1  -1  -8    0.63    0.05
   1   1  -8    0.65    0.05
   0  -1  -8    0.10    0.03
   0   1  -8    0.12    0.04
   0   1  -8    0.10    0.03
   0  -1  -8    0.06    0.03
   0  -1  -8    0.08    0.03
   0  -1  -8    0.09    0.04
   0   1  -8    0.14    0.04
  -1  -1  -8    0.02    0.03
  -1   1  -8   -0.02    0.04
  -1   1  -8    0.00    0.03
  -1  -1  -8   -0.02    0.03
  -1  -1  -8    0.03    0.03
  -1  -1  -8    0.03    0.03
  -1   1  -8    0.01    0.03
  -2  -1  -8    0.02    0.03
  -2   1  -8   -0.01    0.04
  -2  -1  -8    0.01    0.03
  -2   1  -8    0.04    0.03
  -2  -1  -8    0.02    0.03
  -2  -1  -8    0.02    0.03
  -2   1  -8    0.01    0.03
  -3  -1  -8    0.02    0.03
  -3   1  -8    0.01    0.04
  -3  -1  -8    0.02    0.04
  -3   1  -8    0.03    0.03
  -3  -1  -8    0.01    0.04
  -4  -1  -8    0.27    0.04
  -4   1  -8    0.22    0.05
  -4  -1  -8    0.20    0.04
  -4   1  -8    0.23    0.05
  -4  -1  -8    0.27    0.05
  -5  -1  -8    0.48    0.05
  -5   1  -8    0.49    0.05
  -5  -1  -8    0.50    0.06
  -5   1  -8    0.59    0.05
  -5  -1  -8    0.58    0.05
  -6   1  -8    0.54    0.05
  -6  -1  -8    0.64    0.06
  -6   1  -8    0.53    0.05
  -6  -1  -8    0.55    0.05
  -7   1  -8    0.09    0.04
  -7  -1  -8    0.07    0.04
  -7   1  -8    0.16    0.04
  -7  -1  -8    0.14    0.05
  -8  -1  -8    0.09    0.04
  -8   1  -8    0.07    0.04
  -8   1  -8    0.07    0.05
  -8  -1  -8    0.12    0.04
  -9   1  -8    0.31    0.05
  14  -2  -8    0.17    0.05
  13  -2  -8    0.02    0.03
  13   2  -8    0.03    0.04
  12  -2  -8    0.03    0.03
 -12   2   8    0.06    0.04
 -12  -2   8    0.00    0.03
  12  -2  -8    0.00    0.04
  12   2  -8    0.07    0.04
  11  -2  -8    0.01    0.04
 -11   2   8    0.01    0.04
 -11  -2   8    0.04    0.04
  11  -2  -8    0.04    0.04
  11   2  -8    0.00    0.04
  10  -2  -8    0.00    0.04
 -10   2   8    0.00    0.04
 -10  -2   8   -0.02    0.04
  10  -2  -8   -0.01    0.04
  10   2  -8    0.01    0.04
  -9   2   8    0.53    0.05
  -9  -2   8    0.59    0.05
   9  -2  -8    0.51    0.05
   9  -2  -8    0.55    0.05
   9   2  -8    0.57    0.05
   8  -2  -8    0.04    0.04
  -8   2   8    0.05    0.04
  -8  -2   8    0.04    0.04
   8  -2  -8    0.07    0.04
   8   2  -8    0.06    0.04
  -7   2   8    1.88    0.07
  -7  -2   8    1.99    0.07
   7  -2  -8    1.87    0.07
   7  -2  -8    1.89    0.08
   7   2  -8    1.84    0.07
   6   2  -8    0.05    0.04
   6  -2  -8    0.03    0.04
  -6   2   8    0.01    0.03
  -6  -2   8    0.02    0.04
   6  -2  -8    0.02    0.04
   6   2  -8    0.02    0.04
   5   2  -8    0.48    0.05
   5  -2  -8    0.48    0.05
  -5   2   8    0.48    0.04
  -5  -2   8    0.47    0.04
   5  -2  -8    0.45    0.05
   5   2  -8    0.45    0.05
   4  -2  -8   -0.01    0.04
   4   2  -8   -0.01    0.04
  -4   2   8    0.01    0.03
  -4  -2   8   -0.02    0.03
   4  -2  -8    0.02    0.04
   4   2  -8    0.01    0.04
   3  -2  -8    0.03    0.03
   3   2  -8    0.05    0.04
   3  -2  -8    0.03    0.04
   3   2  -8    0.07    0.04
   3  -2  -8    0.03    0.03
   2  -2  -8    0.20    0.03
   2   2  -8    0.17    0.04
   2  -2  -8    0.16    0.04
   2  -2  -8    0.16    0.04
   2   2  -8    0.18    0.04
   1  -2  -8    0.17    0.03
   1   2  -8    0.21    0.04
   1   2  -8    0.21    0.03
   1  -2  -8    0.18    0.04
   1  -2  -8    0.19    0.04
   1   2  -8    0.20    0.04
   0  -2  -8    0.47    0.04
   0   2  -8    0.56    0.05
   0   2  -8    0.65    0.04
   0  -2  -8    0.59    0.05
   0  -2  -8    0.64    0.04
   0  -2  -8    0.69    0.05
   0   2  -8    0.68    0.05
  -1   2  -8    0.03    0.04
  -1   2  -8    0.03    0.03
  -1  -2  -8    0.02    0.03
  -1  -2  -8    0.02    0.04
  -1  -2  -8    0.01    0.03
  -1   2  -8    0.01    0.03
  -2   2  -8    0.62    0.06
  -2  -2  -8    0.57    0.05
  -2   2  -8    0.58    0.05
  -2  -2  -8    0.57    0.05
  -2  -2  -8    0.59    0.05
  -2   2  -8    0.59    0.05
  -3   2  -8    0.37    0.05
  -3   2  -8    0.30    0.04
  -3  -2  -8    0.32    0.04
  -3  -2  -8    0.30    0.05
  -3  -2  -8    0.24    0.04
  -4   2  -8    0.02    0.04
  -4  -2  -8    0.02    0.04
  -4   2  -8    0.00    0.04
  -4  -2  -8    0.02    0.04
  -5   2  -8    0.00    0.04
  -5  -2  -8    0.02    0.04
  -5   2  -8   -0.01    0.05
  -5  -2  -8    0.02    0.04
  -6   2  -8    0.00    0.04
  -6  -2  -8   -0.01    0.04
  -6   2  -8    0.00    0.04
  -6  -2  -8    0.00    0.04
  -7   2  -8   -0.01    0.04
  -7  -2  -8    0.00    0.04
  -7   2  -8   -0.02    0.04
  -7  -2  -8   -0.02    0.04
  -8  -2  -8    0.02    0.04
  -8   2  -8   -0.03    0.04
  13  -3  -8   -0.03    0.04
  13   3  -8    0.06    0.03
  12  -3  -8   -0.01    0.04
  12  -3  -8    0.02    0.04
  12   3  -8   -0.01    0.04
  11  -3  -8    0.00    0.04
 -11   3   8    0.01    0.03
 -11  -3   8    0.00    0.04
  11  -3  -8    0.03    0.04
  11   3  -8    0.02    0.04
 -10   3   8    1.29    0.06
 -10  -3   8    1.38    0.07
  10  -3  -8    1.31    0.07
  10  -3  -8    1.36    0.07
  10   3  -8    1.29    0.07
   9  -3  -8   -0.03    0.04
  -9   3   8    0.01    0.04
  -9  -3   8    0.00    0.03
   9  -3  -8    0.01    0.04
   9   3  -8   -0.02    0.04
  -8   3   8    0.98    0.06
  -8  -3   8    0.93    0.06
   8  -3  -8    0.89    0.06
   8  -3  -8    0.94    0.06
   8   3  -8    0.99    0.06
   7  -3  -8    0.07    0.04
  -7   3   8    0.08    0.04
  -7  -3   8    0.04    0.03
   7  -3  -8    0.12    0.05
   7   3  -8    0.04    0.04
   6   3  -8    1.80    0.08
  -6   3   8    1.83    0.07
   6  -3  -8    1.78    0.07
  -6  -3   8    1.91    0.07
   6  -3  -8    1.89    0.08
   6   3  -8    1.89    0.08
   5   3  -8    0.49    0.06
   5  -3  -8    0.45    0.05
  -5   3   8    0.48    0.04
  -5  -3   8    0.42    0.04
   5  -3  -8    0.50    0.05
   5   3  -8    0.47    0.05
   4  -3  -8   -0.01    0.04
   4   3  -8    0.04    0.04
  -4   3   8    0.04    0.03
  -4  -3   8    0.02    0.03
   4  -3  -8    0.02    0.04
   4   3  -8    0.02    0.04
   3   3  -8    0.07    0.04
   3  -3  -8    0.06    0.04
   3   3  -8    0.12    0.04
   3  -3  -8    0.09    0.04
   2   3  -8    0.14    0.04
   2  -3  -8    0.13    0.04
   2  -3  -8    0.14    0.04
   2   3  -8    0.13    0.04
   1   3  -8    0.17    0.04
   1  -3  -8    0.18    0.04
   1  -3  -8    0.21    0.04
   1   3  -8    0.19    0.04
   0   3  -8    0.37    0.05
   0  -3  -8    0.39    0.05
   0  -3  -8    0.26    0.03
   0  -3  -8    0.37    0.04
   0   3  -8    0.47    0.05
  -1   3  -8    0.23    0.05
  -1  -3  -8    0.20    0.04
  -1  -3  -8    0.20    0.04
  -1  -3  -8    0.24    0.04
  -1   3  -8    0.22    0.04
  -2   3  -8    0.01    0.04
  -2  -3  -8    0.01    0.04
  -2  -3  -8    0.00    0.03
  -2  -3  -8    0.00    0.04
  -2   3  -8    0.04    0.03
  -3   3  -8    0.04    0.04
  -3   3  -8    0.07    0.04
  -3  -3  -8    0.05    0.04
  -3  -3  -8    0.10    0.04
  -3  -3  -8    0.05    0.03
  -4   3  -8    0.16    0.04
  -4  -3  -8    0.18    0.05
  -4   3  -8    0.17    0.04
  -4  -3  -8    0.17    0.04
  -5   3  -8    0.03    0.04
  -5  -3  -8    0.05    0.04
  -5   3  -8    0.02    0.04
  -5  -3  -8    0.03    0.04
  -6   3  -8    0.02    0.05
  -6  -3  -8    0.03    0.04
  -6   3  -8   -0.01    0.05
  -6  -3  -8   -0.01    0.04
  -7   3  -8    0.01    0.04
  -7  -3  -8    0.02    0.04
  -7   3  -8    0.01    0.04
  -7  -3  -8   -0.01    0.04
  13   4  -8    0.13    0.04
  12  -4  -8    0.02    0.04
  12   4  -8   -0.01    0.04
  11  -4  -8    0.00    0.04
  11  -4  -8    0.02    0.04
  11   4  -8    0.04    0.04
  10  -4  -8    0.02    0.04
 -10   4   8    0.07    0.04
 -10  -4   8    0.06    0.04
  10  -4  -8    0.00    0.04
  10   4  -8    0.02    0.04
   9  -4  -8    0.09    0.05
  -9   4   8    0.11    0.04
  -9  -4   8    0.09    0.04
   9  -4  -8    0.10    0.04
   9   4  -8    0.14    0.05
   8  -4  -8    0.25    0.05
  -8   4   8    0.32    0.04
   8  -4  -8    0.23    0.04
   8   4  -8    0.30    0.05
   7   4  -8    0.34    0.05
   7  -4  -8    0.34    0.05
  -7   4   8    0.36    0.04
   7  -4  -8    0.34    0.05
   7   4  -8    0.35    0.05
   6   4  -8    0.45    0.06
  -6   4   8    0.50    0.05
   6  -4  -8    0.50    0.06
   6  -4  -8    0.50    0.06
   6   4  -8    0.47    0.05
   5   4  -8    2.46    0.09
   5  -4  -8    2.45    0.09
  -5   4   8    2.47    0.08
   5  -4  -8    2.50    0.09
   5   4  -8    2.55    0.09
   4   4  -8    0.65    0.06
   4  -4  -8    0.61    0.06
  -4   4   8    0.67    0.05
   4  -4  -8    0.57    0.06
   4   4  -8    0.64    0.06
   3   4  -8   -0.01    0.04
   3  -4  -8    0.01    0.04
   3   4  -8   -0.01    0.04
   3  -4  -8   -0.01    0.04
   2   4  -8    0.05    0.04
   2  -4  -8    0.04    0.04
   2  -4  -8    0.04    0.04
   2   4  -8    0.03    0.04
   1   4  -8    0.08    0.04
   1  -4  -8    0.08    0.04
   1  -4  -8    0.08    0.04
   1   4  -8    0.06    0.04
   0   4  -8    0.11    0.04
   0  -4  -8    0.09    0.05
   0  -4  -8    0.13    0.04
   0   4  -8    0.10    0.04
  -1   4  -8    0.21    0.05
  -1  -4  -8    0.19    0.05
  -1  -4  -8    0.17    0.04
  -1  -4  -8    0.15    0.04
  -1   4  -8    0.17    0.04
  -2   4  -8    0.02    0.04
  -2  -4  -8    0.03    0.04
  -2  -4  -8    0.06    0.04
  -2  -4  -8    0.07    0.04
  -2   4  -8    0.04    0.04
  -3   4  -8    0.08    0.04
  -3  -4  -8    0.04    0.04
  -3  -4  -8    0.08    0.04
  -4   4  -8    0.11    0.05
  -4  -4  -8    0.06    0.04
  -4  -4  -8    0.11    0.04
  -5   4  -8   -0.03    0.05
  -5  -4  -8   -0.01    0.04
  -5  -4  -8    0.00    0.03
  -6  -4  -8    0.24    0.05
  -6  -4  -8    0.28    0.05
  11  -5  -8    0.09    0.04
  10  -5  -8    0.01    0.04
  10  -5  -8    0.01    0.04
  10   5  -8   -0.03    0.04
   9  -5  -8    0.02    0.04
   9  -5  -8    0.00    0.04
   9   5  -8    0.01    0.04
   8  -5  -8   -0.03    0.04
  -8   5   8    0.02    0.04
   8  -5  -8    0.03    0.04
   8   5  -8    0.01    0.04
   7   5  -8    0.10    0.05
   7  -5  -8    0.09    0.04
  -7   5   8    0.09    0.04
   7  -5  -8    0.13    0.05
   7   5  -8    0.14    0.05
   6   5  -8    0.47    0.06
   6  -5  -8    0.41    0.05
  -6   5   8    0.44    0.05
   6  -5  -8    0.41    0.06
   6   5  -8    0.49    0.05
   5  -5  -8    0.02    0.04
   5   5  -8   -0.01    0.05
  -5   5   8    0.00    0.03
   5  -5  -8    0.01    0.04
   5   5  -8    0.02    0.05
   4   5  -8    1.93    0.08
   4  -5  -8    2.03    0.09
  -4   5   8    1.95    0.07
   4  -5  -8    1.92    0.08
   4   5  -8    2.04    0.08
   3   5  -8    1.73    0.08
   3  -5  -8    1.84    0.08
   3  -5  -8    1.87    0.08
   3   5  -8    1.98    0.08
   2   5  -8    1.00    0.07
   2  -5  -8    0.97    0.07
   2  -5  -8    1.06    0.07
   2   5  -8    1.10    0.07
   1   5  -8    0.03    0.04
   1  -5  -8    0.02    0.05
   1   5  -8    0.08    0.04
   0   5  -8   -0.01    0.05
   0  -5  -8   -0.01    0.04
   0   5  -8    0.01    0.04
  -1   5  -8   -0.01    0.05
  -1  -5  -8    0.00    0.04
  -1   5  -8    0.02    0.04
  -2   5  -8    0.03    0.05
  -2  -5  -8    0.01    0.04
  -2  -5  -8    0.04    0.04
  -2   5  -8    0.03    0.04
  -3   5  -8    0.01    0.04
  -3  -5  -8    0.00    0.04
  -3  -5  -8    0.01    0.03
  -4   5  -8    0.04    0.05
  -4  -5  -8   -0.06    0.04
  -4  -5  -8    0.02    0.03
  -5  -5  -8    0.14    0.04
   7  -6  -8    0.35    0.05
   7   6  -8    0.30    0.05
   6  -6  -8    0.03    0.05
   6   6  -8    0.02    0.04
  -6   6   8    0.00    0.04
   6   6  -8    0.05    0.05
   5  -6  -8    0.16    0.05
   5   6  -8    0.16    0.05
  -5   6   8    0.15    0.04
   5   6  -8    0.14    0.05
   4   6  -8    0.17    0.05
  -4   6   8    0.11    0.03
   4  -6  -8    0.16    0.05
   4   6  -8    0.11    0.04
   3   6  -8    0.01    0.04
   3  -6  -8    0.01    0.04
   3   6  -8    0.01    0.04
   2   6  -8    0.27    0.05
   2  -6  -8    0.30    0.06
   2   6  -8    0.29    0.05
   1   6  -8    0.31    0.05
   1  -6  -8    0.26    0.05
   1   6  -8    0.35    0.05
   0   6  -8    0.42    0.05
   0  -6  -8    0.44    0.06
   0   6  -8    0.44    0.05
  -1   6  -8    0.23    0.05
  -1  -6  -8    0.22    0.05
  -1   6  -8    0.26    0.04
  -2   6  -8    0.21    0.05
  -2  -6  -8    0.23    0.05
  -3  -6  -8    0.25    0.05
   5   7  -8    0.04    0.03
   4   7  -8   -0.03    0.03
   3   7  -8    0.01    0.03
   2   7  -8    0.06    0.04
  13   0  -9    0.03    0.03
  12   0  -9    0.03    0.04
  11   0  -9    0.01    0.04
 -10   0   9   -0.02    0.04
  10   0  -9   -0.01    0.04
  -9   0   9   -0.01    0.03
   9   0  -9   -0.01    0.04
  -8   0   9    0.01    0.03
   8   0  -9    0.00    0.04
  -7   0   9   -0.04    0.04
   7   0  -9    0.02    0.05
  -6   0   9    0.02    0.03
   6   0  -9   -0.01    0.05
   5   0  -9    0.00    0.03
   5   0  -9   -0.02    0.04
   4   0  -9    0.01    0.04
   4   0  -9   -0.02    0.04
   3   0  -9    0.00    0.04
   3   0  -9    0.01    0.04
   2   0  -9   -0.01    0.04
   2   0  -9    0.02    0.03
   1   0  -9    0.00    0.03
   1   0  -9   -0.01    0.03
   0   0  -9    0.00    0.04
   0   0  -9   -0.01    0.04
  -1   0  -9   -0.02    0.04
  -1   0  -9    0.00    0.04
  -1   0  -9    0.01    0.04
  -2   0  -9   -0.02    0.04
  -2   0  -9    0.02    0.04
  -2   0  -9   -0.01    0.04
  -3   0  -9   -0.04    0.04
  -3   0  -9    0.01    0.04
  -4   0  -9   -0.03    0.04
  -4   0  -9    0.01    0.04
  -5   0  -9   -0.02    0.04
  -5   0  -9   -0.01    0.04
  -6   0  -9    0.01    0.04
  -6   0  -9   -0.01    0.04
  -7   0  -9   -0.02    0.03
  13  -1  -9    0.00    0.04
  13  -1  -9    0.00    0.03
  13   1  -9    0.04    0.03
  12  -1  -9    0.13    0.05
  12  -1  -9    0.08    0.04
  12   1  -9    0.09    0.04
  11  -1  -9    0.07    0.04
  11  -1  -9    0.07    0.04
  11   1  -9    0.09    0.04
  10  -1  -9   -0.03    0.04
 -10   1   9    0.04    0.04
 -10  -1   9    0.02    0.04
  10  -1  -9    0.09    0.04
  10   1  -9    0.03    0.04
   9  -1  -9    0.01    0.04
  -9   1   9   -0.03    0.04
  -9  -1   9   -0.01    0.03
   9  -1  -9    0.00    0.04
   9   1  -9    0.01    0.04
  -8   1   9    0.56    0.05
  -8  -1   9    0.59    0.05
   8  -1  -9    0.62    0.06
   8  -1  -9    0.56    0.06
   8   1  -9    0.57    0.05
   7  -1  -9    0.06    0.04
  -7   1   9    0.08    0.04
  -7  -1   9    0.06    0.04
   7  -1  -9    0.08    0.04
   7   1  -9    0.06    0.05
   6   1  -9    0.74    0.06
   6  -1  -9    0.75    0.05
  -6   1   9    0.70    0.05
  -6  -1   9    0.73    0.05
   6  -1  -9    0.73    0.06
   6   1  -9    0.70    0.06
   5  -1  -9    0.03    0.03
   5   1  -9    0.03    0.04
   5  -1  -9    0.01    0.04
   5   1  -9   -0.01    0.04
   4  -1  -9    1.73    0.07
   4   1  -9    1.69    0.08
   4  -1  -9    1.77    0.07
   4  -1  -9    1.84    0.08
   4   1  -9    1.77    0.08
   3  -1  -9    0.02    0.04
   3   1  -9   -0.02    0.04
   3  -1  -9    0.01    0.04
   3  -1  -9    0.04    0.04
   3   1  -9    0.01    0.04
   2  -1  -9    0.10    0.04
   2   1  -9    0.06    0.04
   2  -1  -9    0.08    0.04
   2  -1  -9    0.06    0.04
   2   1  -9    0.09    0.04
   1  -1  -9    0.21    0.04
   1   1  -9    0.19    0.04
   1  -1  -9    0.20    0.04
   1  -1  -9    0.27    0.05
   1   1  -9    0.22    0.05
   0  -1  -9    0.41    0.05
   0   1  -9    0.33    0.05
   0  -1  -9    0.42    0.05
   0  -1  -9    0.38    0.05
   0   1  -9    0.43    0.05
  -1  -1  -9   -0.01    0.04
  -1   1  -9    0.02    0.04
  -1  -1  -9   -0.02    0.04
  -1   1  -9    0.02    0.04
  -1  -1  -9    0.00    0.03
  -1  -1  -9    0.00    0.04
  -1   1  -9    0.01    0.04
  -2  -1  -9    0.03    0.04
  -2   1  -9    0.01    0.04
  -2  -1  -9    0.02    0.05
  -2   1  -9    0.00    0.04
  -2  -1  -9    0.05    0.04
  -2  -1  -9    0.03    0.04
  -3   1  -9    0.04    0.04
  -3  -1  -9    0.02    0.04
  -3   1  -9    0.02    0.03
  -3  -1  -9    0.04    0.04
  -4   1  -9   -0.02    0.04
  -4  -1  -9    0.01    0.04
  -4   1  -9   -0.03    0.04
  -4  -1  -9    0.05    0.04
  -5   1  -9    0.10    0.04
  -5  -1  -9    0.12    0.04
  -5   1  -9    0.14    0.04
  -5  -1  -9    0.15    0.05
  -6   1  -9    0.00    0.04
  -6  -1  -9    0.05    0.03
  -6  -1  -9    0.02    0.04
  12  -2  -9    0.06    0.04
  12  -2  -9    0.05    0.04
  12   2  -9    0.02    0.04
  11  -2  -9    0.26    0.04
  11  -2  -9    0.30    0.04
  11   2  -9    0.27    0.05
  10  -2  -9    0.00    0.04
  10  -2  -9    0.07    0.04
  10   2  -9    0.04    0.04
   9  -2  -9    0.34    0.05
  -9   2   9    0.36    0.05
  -9  -2   9    0.40    0.05
   9  -2  -9    0.39    0.05
   9   2  -9    0.38    0.05
   8  -2  -9    0.03    0.04
  -8   2   9    0.05    0.04
  -8  -2   9    0.05    0.04
   8  -2  -9    0.09    0.04
   8   2  -9    0.09    0.05
   7  -2  -9    2.25    0.08
  -7   2   9    2.38    0.08
  -7  -2   9    2.31    0.08
   7  -2  -9    2.23    0.09
   7   2  -9    2.21    0.09
   6  -2  -9    0.10    0.04
   6   2  -9    0.15    0.05
  -6   2   9    0.10    0.04
  -6  -2   9    0.10    0.04
   6  -2  -9    0.16    0.05
   6   2  -9    0.12    0.05
   5  -2  -9    0.07    0.04
   5   2  -9    0.08    0.04
   5  -2  -9    0.08    0.05
   5   2  -9    0.05    0.05
   4   2  -9    0.05    0.04
   4  -2  -9    0.03    0.04
   4   2  -9    0.06    0.05
   4  -2  -9    0.04    0.04
   3   2  -9    0.04    0.04
   3  -2  -9    0.08    0.04
   3  -2  -9    0.10    0.04
   3   2  -9    0.09    0.04
   2   2  -9    0.10    0.04
   2  -2  -9    0.14    0.04
   2  -2  -9    0.08    0.04
   2   2  -9    0.14    0.04
   1   2  -9   -0.01    0.04
   1  -2  -9    0.03    0.04
   1  -2  -9    0.01    0.04
   1   2  -9   -0.02    0.04
   0   2  -9    0.04    0.04
   0   2  -9    0.01    0.03
   0  -2  -9    0.00    0.04
   0  -2  -9    0.00    0.04
   0   2  -9   -0.01    0.04
  -1   2  -9   -0.01    0.04
  -1   2  -9    0.04    0.04
  -1  -2  -9    0.04    0.04
  -1  -2  -9    0.02    0.04
  -1   2  -9    0.02    0.04
  -2   2  -9    0.03    0.04
  -2  -2  -9   -0.02    0.04
  -2   2  -9    0.03    0.04
  -2  -2  -9   -0.04    0.04
  -2  -2  -9    0.01    0.04
  -3   2  -9   -0.02    0.04
  -3  -2  -9    0.01    0.04
  -3   2  -9   -0.01    0.04
  -3  -2  -9   -0.01    0.03
  -4   2  -9    0.04    0.05
  -4  -2  -9    0.05    0.04
  -4   2  -9    0.03    0.04
  -4  -2  -9    0.09    0.04
  -5   2  -9    0.00    0.05
  -5  -2  -9    0.01    0.04
  -5   2  -9    0.02    0.04
  -5  -2  -9    0.01    0.04
  -6  -2  -9    0.04    0.04
  11  -3  -9    0.09    0.04
  11  -3  -9    0.10    0.04
  11   3  -9    0.10    0.05
  10  -3  -9    0.18    0.05
  10  -3  -9    0.17    0.05
  10   3  -9    0.18    0.04
  -9   3   9    0.36    0.05
  -9  -3   9    0.37    0.05
   9  -3  -9    0.37    0.05
   9   3  -9    0.37    0.05
   9  -3  -9    0.31    0.05
   8  -3  -9    0.04    0.04
  -8   3   9    0.00    0.04
  -8  -3   9    0.02    0.04
   8  -3  -9    0.04    0.05
   8   3  -9    0.02    0.05
   7  -3  -9    0.16    0.05
  -7   3   9    0.13    0.04
  -7  -3   9    0.11    0.04
   7  -3  -9    0.12    0.05
   7   3  -9    0.16    0.05
   6   3  -9    0.45    0.06
   6  -3  -9    0.46    0.05
  -6   3   9    0.46    0.05
  -6  -3   9    0.42    0.05
   6  -3  -9    0.43    0.06
   6   3  -9    0.45    0.06
   5  -3  -9    0.06    0.04
   5   3  -9    0.06    0.05
   5  -3  -9    0.08    0.05
   5   3  -9    0.05    0.04
   4   3  -9    0.11    0.04
   4  -3  -9    0.11    0.05
   4   3  -9    0.11    0.05
   4  -3  -9    0.12    0.04
   3   3  -9    0.01    0.04
   3  -3  -9    0.00    0.05
   3  -3  -9    0.00    0.04
   3   3  -9   -0.01    0.05
   2   3  -9    0.05    0.04
   2  -3  -9    0.03    0.04
   2  -3  -9    0.02    0.04
   2   3  -9    0.02    0.03
   1   3  -9    0.03    0.04
   1  -3  -9    0.06    0.04
   1  -3  -9    0.06    0.04
   1   3  -9    0.04    0.04
   0   3  -9    0.07    0.04
   0  -3  -9    0.00    0.04
   0  -3  -9    0.02    0.03
   0   3  -9    0.01    0.04
  -1   3  -9    0.02    0.04
  -1  -3  -9    0.03    0.04
  -1  -3  -9    0.02    0.04
  -1   3  -9    0.05    0.04
  -2   3  -9    0.08    0.04
  -2  -3  -9    0.08    0.05
  -2  -3  -9    0.09    0.04
  -2  -3  -9    0.12    0.04
  -3   3  -9    0.02    0.05
  -3  -3  -9    0.05    0.04
  -3  -3  -9    0.00    0.04
  -4   3  -9    0.00    0.04
  -4   3  -9   -0.02    0.04
  -4  -3  -9    0.01    0.04
  -4  -3  -9   -0.02    0.03
  -5  -3  -9   -0.01    0.04
   9  -4  -9    0.02    0.04
   9  -4  -9    0.01    0.04
   9   4  -9    0.01    0.04
   8  -4  -9   -0.03    0.04
   8  -4  -9    0.01    0.04
   8   4  -9    0.01    0.04
   7   4  -9    0.01    0.05
   7  -4  -9    0.00    0.04
  -7   4   9    0.03    0.04
  -7  -4   9    0.01    0.03
   7  -4  -9   -0.01    0.05
   7   4  -9    0.00    0.05
   6  -4  -9    0.14    0.05
   6   4  -9    0.15    0.04
  -6   4   9    0.13    0.04
  -6  -4   9    0.10    0.03
   6  -4  -9    0.13    0.05
   6   4  -9    0.11    0.04
   5   4  -9    0.41    0.06
   5  -4  -9    0.45    0.06
   5  -4  -9    0.41    0.05
   5   4  -9    0.42    0.06
   4   4  -9    0.58    0.06
   4  -4  -9    0.58    0.05
   4  -4  -9    0.65    0.06
   4   4  -9    0.61    0.06
   3   4  -9    0.07    0.05
   3  -4  -9    0.09    0.05
   3  -4  -9    0.09    0.04
   3   4  -9    0.08    0.04
   2   4  -9    0.07    0.04
   2  -4  -9    0.08    0.04
   2  -4  -9    0.13    0.04
   2   4  -9    0.12    0.05
   1   4  -9    0.10    0.05
   1  -4  -9    0.15    0.05
   1  -4  -9    0.14    0.04
   1   4  -9    0.17    0.04
   0   4  -9    0.12    0.05
   0  -4  -9    0.11    0.05
   0  -4  -9    0.12    0.04
   0   4  -9    0.09    0.04
  -1   4  -9    0.02    0.04
  -1  -4  -9    0.04    0.04
  -1  -4  -9    0.00    0.04
  -1   4  -9    0.02    0.03
  -2   4  -9   -0.02    0.04
  -2  -4  -9   -0.01    0.04
  -2  -4  -9   -0.01    0.04
  -3  -4  -9    0.02    0.03
  -4  -4  -9   -0.09    0.04
   6   5  -9   -0.02    0.04
   5   5  -9    0.09    0.05
   5  -5  -9    0.05    0.05
   5   5  -9    0.08    0.04
   5  -5  -9    0.13    0.04
   4   5  -9    0.60    0.06
   4  -5  -9    0.61    0.06
   4  -5  -9    0.63    0.06
   4   5  -9    0.70    0.06
   3   5  -9    0.44    0.06
   3  -5  -9    0.54    0.06
   3  -5  -9    0.55    0.06
   3   5  -9    0.52    0.05
   2   5  -9    0.14    0.05
   2  -5  -9    0.14    0.05
   2  -5  -9    0.10    0.04
   2   5  -9    0.12    0.05
   1   5  -9    0.04    0.05
   1  -5  -9    0.04    0.05
   1   5  -9    0.05    0.04
   0   5  -9    0.29    0.05
  -1   5  -9    0.10    0.04
  -8   0  10    0.04    0.03
   8   0 -10    0.09    0.05
   7   0 -10    0.58    0.07
   6   0 -10    0.00    0.05
   5   0 -10    0.07    0.04
   5   0 -10    0.05    0.05
   4   0 -10    0.19    0.05
   4   0 -10    0.17    0.05
   3   0 -10    0.52    0.06
   3   0 -10    0.66    0.06
   2   0 -10    0.57    0.05
   2   0 -10    0.61    0.05
   1   0 -10    1.28    0.07
   1   0 -10    1.21    0.07
   0   0 -10    0.00    0.04
   0   0 -10    0.03    0.04
  -1   0 -10   -0.01    0.04
  -1   0 -10    0.01    0.03
  -2   0 -10    0.00    0.04
  -3   0 -10   -0.04    0.04
  -3   0 -10   -0.03    0.03
  -4   0 -10   -0.01    0.03
   8  -1 -10    0.15    0.05
   8   1 -10    0.07    0.04
   7  -1 -10    0.29    0.05
   7   1 -10    0.23    0.05
   6  -1 -10    0.37    0.05
   6   1 -10    0.40    0.06
   5   1 -10    0.38    0.06
   5  -1 -10    0.36    0.06
   5   1 -10    0.37    0.06
   4  -1 -10    1.16    0.06
   4   1 -10    1.15    0.07
   4  -1 -10    1.13    0.07
   4   1 -10    0.96    0.06
   3  -1 -10    0.03    0.04
   3   1 -10    0.02    0.04
   3  -1 -10   -0.01    0.05
   3   1 -10   -0.04    0.05
   2  -1 -10    0.07    0.04
   2   1 -10    0.07    0.04
   2  -1 -10    0.08    0.04
   2   1 -10    0.09    0.04
   1  -1 -10    0.03    0.04
   1   1 -10    0.02    0.04
   1  -1 -10    0.00    0.04
   1   1 -10    0.02    0.04
   0   1 -10    0.12    0.04
   0  -1 -10    0.13    0.04
   0   1 -10    0.10    0.04
  -1   1 -10    0.06    0.04
  -1  -1 -10    0.08    0.04
  -2   1 -10    0.05    0.05
  -3   1 -10   -0.01    0.03
  -3  -1 -10   -0.01    0.03
   9  -2 -10   -0.02    0.04
   8  -2 -10    0.02    0.04
   7  -2 -10    0.44    0.05
   7  -2 -10    0.30    0.05
   7   2 -10    0.31    0.05
   6  -2 -10   -0.01    0.04
   6   2 -10    0.01    0.05
   6  -2 -10   -0.01    0.05
   6   2 -10    0.01    0.05
   5   2 -10    0.29    0.05
   5  -2 -10    0.42    0.05
   5  -2 -10    0.39    0.06
   5   2 -10    0.38    0.06
   4   2 -10   -0.02    0.04
   4  -2 -10    0.01    0.04
   4  -2 -10   -0.01    0.04
   4   2 -10    0.01    0.05
   3   2 -10    0.09    0.05
   3  -2 -10    0.10    0.04
   3  -2 -10    0.07    0.05
   3   2 -10    0.12    0.04
   2   2 -10    0.01    0.05
   2  -2 -10    0.04    0.04
   2  -2 -10    0.01    0.04
   2   2 -10    0.01    0.04
   1   2 -10    0.01    0.05
   1  -2 -10   -0.01    0.04
   1  -2 -10   -0.01    0.04
   1   2 -10    0.00    0.04
   0   2 -10    0.01    0.05
   0  -2 -10   -0.01    0.04
   0  -2 -10    0.01    0.03
   0   2 -10    0.00    0.04
  -1  -2 -10    0.02    0.04
  -1  -2 -10    0.00    0.04
  -2  -2 -10    0.12    0.04
  -2   2 -10    0.09    0.03
   7  -3 -10    0.03    0.04
   6  -3 -10    0.46    0.05
   5  -3 -10    0.00    0.04
   4  -3 -10    0.45    0.06
   4  -3 -10    0.39    0.05
   4   3 -10    0.49    0.05
   3  -3 -10    0.08    0.04
   3  -3 -10    0.08    0.04
   3   3 -10    0.05    0.05
   2  -3 -10   -0.02    0.05
   2  -3 -10   -0.01    0.04
   2   3 -10   -0.01    0.04
   1  -3 -10    0.00    0.04
   1  -3 -10    0.04    0.04
   1   3 -10   -0.02    0.04
   0  -3 -10    0.05    0.04
   0  -3 -10    0.04    0.04
   0   3 -10    0.00    0.04
  -1  -3 -10    0.02    0.03
   0   0   0    0.00    0.00
;
_shelx_hkl_checksum              57157
_shelx_res_file
;
    1061.res created by SHELXL-2014/7
TITL 1061 in P2(1)/c
CELL 0.71073  13.5703   7.8254   7.9677  90.000 102.260  90.000
ZERR    4.00   0.0006   0.0003   0.0004   0.000   0.004   0.000
LATT  1
SYMM -X, 0.5+Y, 0.5-Z
SFAC C H N O
UNIT 24 24 16 16
OMIT -4
acta 57
L.S. 4
BOND $H
HTAB 2
EQIV $1 -X+1, Y-0.5, -Z+0.5
HTAB N3 O4_$1
EQIV $2 X, Y+1, Z
HTAB N4 O3_$2
FMAP 2
PLAN 20
SIZE 0.31 0.27 0.22
WGHT    0.052300    0.010800
FVAR       0.13379
MOLE   1
O1    4    0.234392    0.162921    0.519866    11.00000    0.03489    0.02413 =
         0.04651    0.00079    0.01783   -0.00351
C1    1    0.153286    0.132583    0.587729    11.00000    0.03360    0.03123 =
         0.04018    0.00147    0.01449   -0.00670
C2    1    0.108839    0.277002    0.625736    11.00000    0.03965    0.04071 =
         0.04931   -0.00196    0.02238   -0.00236
AFIX  43
H2    2    0.051931    0.286340    0.672750    11.00000   -1.20000
AFIX   0
C3    1    0.166988    0.411150    0.579045    11.00000    0.04524    0.02900 =
         0.05176   -0.00257    0.02064   -0.00187
AFIX  43
H3    2    0.156070    0.527569    0.589928    11.00000   -1.20000
AFIX   0
C4    1    0.242272    0.337579    0.514900    11.00000    0.03650    0.02444 =
         0.03786    0.00062    0.01095   -0.00409
N1    3    0.129077   -0.041346    0.606515    11.00000    0.04264    0.03566 =
         0.05266    0.00388    0.01601   -0.01146
O2    4    0.059193   -0.070595    0.677920    11.00000    0.05636    0.05957 =
         0.07351    0.00940    0.03141   -0.02124
O3    4    0.177834   -0.151799    0.552230    11.00000    0.07745    0.02844 =
         0.11194   -0.00261    0.04663   -0.00685
C5    1    0.323077    0.399028    0.440278    11.00000    0.03605    0.02618 =
         0.04289    0.00032    0.01647   -0.00219
AFIX  43
H5    2    0.365729    0.322311    0.401783    11.00000   -1.20000
AFIX   0
N2    3    0.335977    0.560553    0.427121    11.00000    0.03543    0.02772 =
         0.04176    0.00062    0.01763   -0.00340
N3    3    0.412807    0.607424    0.352533    11.00000    0.04204    0.02282 =
         0.05238   -0.00093    0.02837   -0.00143
H3N   2    0.452795    0.533289    0.312906    11.00000   -1.20000
C6    1    0.436573    0.776229    0.340680    11.00000    0.03781    0.02585 =
         0.04704    0.00581    0.01453   -0.00181
O4    4    0.510139    0.813533    0.280902    11.00000    0.04723    0.03510 =
         0.08849    0.01410    0.03556   -0.00395
N4    3    0.377693    0.888906    0.396632    11.00000    0.05820    0.02349 =
         0.08031   -0.00018    0.03347    0.00158
H41   2    0.323521    0.856461    0.439763    11.00000   -1.20000
H42   2    0.392619    0.993252    0.389572    11.00000   -1.20000
hklf 4
REM  1061 in P2(1)/c
REM R1 =  0.0293 for    1614 Fo > 4sig(Fo)  and  0.0413 for all    2127 data
REM    136 parameters refined using      0 restraints
END
WGHT      0.0502      0.0061
REM Instructions for potential hydrogen bonds
EQIV $3 -x, y+1/2, -z+3/2
HTAB C2 O2_$3
HTAB C3 O3_$2
HTAB C5 O4_$1
HTAB N3 O4_$1
HTAB N4 O3_$2
REM Highest difference peak  0.127,  deepest hole -0.174,  1-sigma level  0.030
Q1    1   0.1978  0.3829  0.5071  11.00000  0.05    0.13
Q2    1   0.1402  0.3491  0.5952  11.00000  0.05    0.12
Q3    1   0.1224  0.3477  0.5612  11.00000  0.05    0.12
Q4    1   0.3029  0.4897  0.3807  11.00000  0.05    0.12
Q5    1   0.1154  0.2037  0.5659  11.00000  0.05    0.12
Q6    1   0.5019  0.8245  0.3689  11.00000  0.05    0.11
Q7    1   0.1562 -0.1055  0.4619  11.00000  0.05    0.10
Q8    1   0.3545  0.4817  0.5064  11.00000  0.05    0.10
Q9    1   0.1473  0.1970  0.6513  11.00000  0.05    0.10
Q10   1   0.5468  0.7994  0.2560  11.00000  0.05    0.10
Q11   1   0.2955  0.3738  0.5483  11.00000  0.05    0.10
Q12   1   0.5232  0.7260  0.2587  11.00000  0.05    0.09
Q13   1   0.4194  0.9797  0.4650  11.00000  0.05    0.09
Q14   1   0.2228  0.3770  0.5908  11.00000  0.05    0.09
Q15   1   0.1575  0.0519  0.6231  11.00000  0.05    0.09
Q16   1   0.2632  0.3662  0.4390  11.00000  0.05    0.09
Q17   1   0.5269  0.9222  0.2703  11.00000  0.05    0.09
Q18   1   0.2210 -0.0703  0.4997  11.00000  0.05    0.09
Q19   1   0.3461  0.9782  0.3022  11.00000  0.05    0.09
Q20   1   0.0603 -0.2051  0.6851  11.00000  0.05    0.09
;
_shelx_res_checksum              84411
loop_
_space_group_symop_operation_xyz
'x, y, z'
'-x, y+1/2, -z+1/2'
'-x, -y, -z'
'x, -y-1/2, z-1/2'
loop_
_atom_site_type_symbol
_atom_site_label
_atom_site_fract_x
_atom_site_fract_y
_atom_site_fract_z
_atom_site_U_iso_or_equiv
_atom_site_adp_type
_atom_site_calc_flag
_atom_site_occupancy
O O1 0.23439(4) 0.16292(7) 0.51987(7) 0.03382(16) Uani d 1
C C1 0.15329(6) 0.13258(11) 0.58773(11) 0.0340(2) Uani d 1
C C2 0.10884(7) 0.27700(12) 0.62574(12) 0.0413(2) Uani d 1
H H2 0.0519 0.2863 0.6727 0.050 Uiso calc 1
C C3 0.16699(7) 0.41115(12) 0.57904(12) 0.0405(2) Uani d 1
H H3 0.1561 0.5276 0.5899 0.049 Uiso calc 1
C C4 0.24227(6) 0.33758(11) 0.51490(10) 0.03248(19) Uani d 1
N N1 0.12908(6) -0.04135(10) 0.60652(10) 0.0428(2) Uani d 1
O O2 0.05919(6) -0.07059(11) 0.67792(10) 0.0605(2) Uani d 1
O O3 0.17783(7) -0.15180(9) 0.55223(12) 0.0687(3) Uani d 1
C C5 0.32308(6) 0.39903(10) 0.44028(11) 0.0338(2) Uani d 1
H H5 0.3657 0.3223 0.4018 0.041 Uiso calc 1
N N2 0.33598(5) 0.56055(9) 0.42712(9) 0.03357(18) Uani d 1
N N3 0.41281(6) 0.60742(9) 0.35253(9) 0.03636(19) Uani d 1
H H3N 0.4528(8) 0.5333(14) 0.3129(13) 0.044 Uiso d 1
C C6 0.43657(7) 0.77623(11) 0.34068(11) 0.0361(2) Uani d 1
O O4 0.51014(6) 0.81353(9) 0.28090(10) 0.0538(2) Uani d 1
N N4 0.37769(7) 0.88891(11) 0.39663(13) 0.0512(2) Uani d 1
H H41 0.3235(10) 0.8565(15) 0.4398(15) 0.061 Uiso d 1
H H42 0.3926(9) 0.9933(17) 0.3896(15) 0.061 Uiso d 1
loop_
_atom_site_aniso_label
_atom_site_aniso_U_11
_atom_site_aniso_U_22
_atom_site_aniso_U_33
_atom_site_aniso_U_12
_atom_site_aniso_U_13
_atom_site_aniso_U_23
O1 0.0349(3) 0.0241(3) 0.0465(3) -0.0035(2) 0.0178(3) 0.0008(2)
C1 0.0336(4) 0.0312(4) 0.0402(4) -0.0067(3) 0.0145(4) 0.0015(3)
C2 0.0396(5) 0.0407(5) 0.0493(5) -0.0024(4) 0.0224(4) -0.0020(4)
C3 0.0452(5) 0.0290(4) 0.0518(5) -0.0019(4) 0.0206(4) -0.0026(4)
C4 0.0365(4) 0.0244(4) 0.0379(4) -0.0041(3) 0.0110(3) 0.0006(3)
N1 0.0426(4) 0.0357(4) 0.0527(5) -0.0115(3) 0.0160(4) 0.0039(3)
O2 0.0564(5) 0.0596(5) 0.0735(5) -0.0212(4) 0.0314(4) 0.0094(4)
O3 0.0774(6) 0.0284(4) 0.1119(7) -0.0068(3) 0.0466(5) -0.0026(4)
C5 0.0361(4) 0.0262(4) 0.0429(5) -0.0022(3) 0.0165(4) 0.0003(3)
N2 0.0354(4) 0.0277(3) 0.0418(4) -0.0034(3) 0.0176(3) 0.0006(3)
N3 0.0420(4) 0.0228(3) 0.0524(4) -0.0014(3) 0.0284(4) -0.0009(3)
C6 0.0378(5) 0.0258(4) 0.0470(5) -0.0018(3) 0.0145(4) 0.0058(3)
O4 0.0472(4) 0.0351(4) 0.0885(5) -0.0040(3) 0.0356(4) 0.0141(3)
N4 0.0582(6) 0.0235(4) 0.0803(6) 0.0016(4) 0.0335(5) -0.0002(4)
loop_
_atom_type_symbol
_atom_type_description
_atom_type_scat_dispersion_real
_atom_type_scat_dispersion_imag
_atom_type_scat_source
C C 0.0033 0.0016 'International Tables Vol C Tables 4.2.6.8 and 6.1.1.4'
H H 0.0000 0.0000 'International Tables Vol C Tables 4.2.6.8 and 6.1.1.4'
N N 0.0061 0.0033 'International Tables Vol C Tables 4.2.6.8 and 6.1.1.4'
O O 0.0106 0.0060 'International Tables Vol C Tables 4.2.6.8 and 6.1.1.4'
loop_
_geom_angle_atom_site_label_1
_geom_angle_atom_site_label_2
_geom_angle_atom_site_label_3
_geom_angle
C1 O1 C4 105.22(6)
C2 C1 O1 112.71(7)
C2 C1 N1 131.20(8)
O1 C1 N1 116.10(8)
C1 C2 C3 105.26(8)
C1 C2 H2 127.4
C3 C2 H2 127.4
C4 C3 C2 106.89(8)
C4 C3 H3 126.6
C2 C3 H3 126.6
C3 C4 O1 109.92(7)
C3 C4 C5 135.44(9)
O1 C4 C5 114.60(7)
O3 N1 O2 124.21(8)
O3 N1 C1 119.17(8)
O2 N1 C1 116.62(9)
N2 C5 C4 119.52(8)
N2 C5 H5 120.2
C4 C5 H5 120.2
C5 N2 N3 115.67(7)
N2 N3 C6 120.41(7)
N2 N3 H3N 124.0(7)
C6 N3 H3N 115.6(7)
O4 C6 N4 124.62(8)
O4 C6 N3 118.62(8)
N4 C6 N3 116.76(8)
C6 N4 H41 122.2(8)
C6 N4 H42 116.7(9)
H41 N4 H42 121.2(12)
loop_
_geom_bond_atom_site_label_1
_geom_bond_atom_site_label_2
_geom_bond_distance
O1 C1 1.3464(10)
O1 C4 1.3722(10)
C1 C2 1.3455(13)
C1 N1 1.4155(11)
C2 C3 1.4099(13)
C2 H2 0.9300
C3 C4 1.3631(13)
C3 H3 0.9300
C4 C5 1.4367(12)
N1 O3 1.2221(11)
N1 O2 1.2266(11)
C5 N2 1.2834(11)
C5 H5 0.9300
N2 N3 1.3557(10)
N3 C6 1.3678(11)
N3 H3N 0.896(12)
C6 O4 1.2291(11)
C6 N4 1.3289(12)
N4 H41 0.911(13)
N4 H42 0.846(13)
loop_
_geom_hbond_atom_site_label_D
_geom_hbond_atom_site_label_H
_geom_hbond_atom_site_label_A
_geom_hbond_site_symmetry_A
_geom_hbond_distance_DH
_geom_hbond_distance_HA
_geom_hbond_distance_DA
_geom_hbond_angle_DHA
N3 H3N O4 2_645 0.896(12) 1.982(12) 2.8258(10) 156.3(10)
N4 H41 O3 1_565 0.911(13) 2.338(13) 3.2283(13) 165.4(11)

_cod_database_fobs_code 2107485
