#------------------------------------------------------------------------------
#$Date: 2016-04-02 04:17:53 +0300 (Sat, 02 Apr 2016) $
#$Revision: 180695 $
#$URL: svn://www.crystallography.net/cod/cif/2/10/74/2107491.cif $
#------------------------------------------------------------------------------
#
# This file is available in the Crystallography Open Database (COD),
# http://www.crystallography.net/. The original data for this entry
# were provided by IUCr Journals, http://journals.iucr.org/.
#
# The file may be used within the scientific community so long as
# proper attribution is given to the journal article from which the
# data were obtained.
#
data_2107491
loop_
_publ_author_name
'Hejny, Clivia'
'Kahlenberg, Volker'
'Eberhard, Tim'
'Kr\"uger, Hannes'
_publ_section_title
;
 Melilite-like modulation and temperature-dependent evolution in the
 framework structure of K~2~Sc[Si~2~O~6~]F
;
_journal_coeditor_code           DK5040
_journal_issue                   2
_journal_name_full               'Acta Crystallographica Section B'
_journal_page_first              209
_journal_page_last               222
_journal_paper_doi               10.1107/S2052520615024865
_journal_volume                  72
_journal_year                    2016
_chemical_formula_sum            'F K2 O6 Sc Si2'
_chemical_formula_weight         294.3
_chemical_name_systematic        ' ?'
_space_group_IT_number           136
_symmetry_cell_setting           tetragonal
_symmetry_space_group_name_Hall  '-P 4n 2n'
_symmetry_space_group_name_H-M   'P 42/m n m'
_cell_angle_alpha                90
_cell_angle_beta                 90
_cell_angle_gamma                90
_cell_formula_units_Z            4
_cell_length_a                   8.9622(4)
_cell_length_b                   8.9622(4)
_cell_length_c                   8.2705(4)
_cell_measurement_reflns_used    5195
_cell_measurement_temperature    293
_cell_measurement_theta_max      29.29
_cell_measurement_theta_min      3
_cell_modulation_dimension       2
_cell_volume                     664.30(5)
_computing_cell_refinement
;
CrysAlisPro, Agilent Technologies,
Version 1.171.36.20 (release 27-06-2012 CrysAlis171 .NET)
(compiled Jul 11 2012,15:38:31)
;
_computing_data_collection
;
CrysAlisPro, Agilent Technologies,
Version 1.171.36.20 (release 27-06-2012 CrysAlis171 .NET)
(compiled Jul 11 2012,15:38:31)
;
_computing_data_reduction
;
CrysAlisPro, Agilent Technologies,
Version 1.171.36.20 (release 27-06-2012 CrysAlis171 .NET)
(compiled Jul 11 2012,15:38:31)
;
_diffrn_ambient_temperature      293
_diffrn_detector_area_resol_mean 10.3575
_diffrn_measured_fraction_theta_full 0.98
_diffrn_measured_fraction_theta_max 0.92
_diffrn_measurement_device       'four-cycle diffractometer'
_diffrn_measurement_device_type  'Xcalibur, Ruby, Gemini ultra'
_diffrn_measurement_method       '\w scans'
_diffrn_radiation_monochromator  graphite
_diffrn_radiation_probe          x-ray
_diffrn_radiation_source         'Enhance (Mo) X-ray Source'
_diffrn_radiation_type           'Mo K\a'
_diffrn_radiation_wavelength     0.71073
_diffrn_reflns_av_R_equivalents  0.056
_diffrn_reflns_av_unetI/netI     0.0306
_diffrn_reflns_limit_h_max       12
_diffrn_reflns_limit_h_min       -11
_diffrn_reflns_limit_index_m_1_max 1
_diffrn_reflns_limit_index_m_1_min -1
_diffrn_reflns_limit_index_m_2_max 1
_diffrn_reflns_limit_index_m_2_min -1
_diffrn_reflns_limit_k_max       12
_diffrn_reflns_limit_k_min       -12
_diffrn_reflns_limit_l_max       9
_diffrn_reflns_limit_l_min       -11
_diffrn_reflns_number            38281
_diffrn_reflns_theta_full        27.95
_diffrn_reflns_theta_max         29.35
_diffrn_reflns_theta_min         3.01
_exptl_absorpt_coefficient_mu    2.721
_exptl_absorpt_correction_T_max  0.676
_exptl_absorpt_correction_T_min  0.443
_exptl_absorpt_correction_type   analytical
_exptl_absorpt_process_details
;
CrysAlisPro, Agilent Technologies,
Version 1.171.36.20 (release 27-06-2012 CrysAlis171 .NET)
(compiled Jul 11 2012,15:38:31)
Analytical numeric absorption correction using a multifaceted crystal
            model based on expressions derived by R.C. Clark & J.S. Reid.
(Clark, R. C. & Reid, J. S. (1995). Acta Cryst. A51, 887-897)
;
_exptl_crystal_colour
;
;
_exptl_crystal_density_diffrn    2.9419
_exptl_crystal_description
;
;
_exptl_crystal_F_000             576
_exptl_crystal_size_max          0.448
_exptl_crystal_size_mid          0.372
_exptl_crystal_size_min          0.209
_refine_diff_density_max         2.77
_refine_diff_density_min         -3.32
_refine_ls_extinction_coef       9100(400)
_refine_ls_extinction_method
'B-C type 1 Gaussian isotropic (Becker & Coppens, 1974)'
_refine_ls_goodness_of_fit_gt    2.31
_refine_ls_goodness_of_fit_ref   1.82
_refine_ls_number_constraints    0
_refine_ls_number_parameters     187
_refine_ls_number_reflns         3986
_refine_ls_number_restraints     0
_refine_ls_R_factor_all          0.0990
_refine_ls_R_factor_gt           0.0498
_refine_ls_shift/su_max          0.0336
_refine_ls_shift/su_mean         0.0037
_refine_ls_structure_factor_coef F
_refine_ls_weighting_details     w=1/(\s^2^(F)+0.0001F^2^)
_refine_ls_weighting_scheme      sigma
_refine_ls_wR_factor_gt          0.0619
_refine_ls_wR_factor_ref         0.0674
_reflns_number_gt                2178
_reflns_number_total             3986
_reflns_threshold_expression     I>3\s(I)
_cod_data_source_file            dk5040sup1.cif
_cod_data_source_block           III_173K
_cod_depositor_comments
;
The following automatic conversions were performed:

'_diffrn_radiation_probe' value 'X-ray' changed to 'x-ray' according
to
/usr/data/users/saulius/crontab/automatic-downloads/rss-feeds/IUCr/lib/dictionaries/cif_core.dic
dictionary named 'cif_core.dic' version 2.4.2 from 2011-04-26.

Automatic conversion script
Id: cif_fix_values 4268 2015-11-12 08:31:59Z antanas 
;
_cod_original_sg_symbol_H-M      'P 42/m 21/n 2/m'
_cod_original_formula_sum        'F1 K2 O6 Sc1 Si2'
_cod_database_code               2107491
loop_
_space_group_symop_id
_space_group_symop_operation_xyz
1 x,y,z
2 -x,-y,z
3 -y+0.5,x+0.5,z+0.5
4 y+0.5,-x+0.5,z+0.5
5 -x+0.5,y+0.5,-z+0.5
6 x+0.5,-y+0.5,-z+0.5
7 y,x,-z
8 -y,-x,-z
9 -x,-y,-z
10 x,y,-z
11 y+0.5,-x+0.5,-z+0.5
12 -y+0.5,x+0.5,-z+0.5
13 x+0.5,-y+0.5,z+0.5
14 -x+0.5,y+0.5,z+0.5
15 -y,-x,z
16 y,x,z
loop_
_space_group_symop_ssg_id
_space_group_symop_ssg_operation_algebraic
1 x1,x2,x3,x4,x5
2 -x1,-x2,x3,-x4,-x5
3 -x2+1/2,x1+1/2,x3+1/2,-x5+1/2,x4+1/2
4 x2+1/2,-x1+1/2,x3+1/2,x5+1/2,-x4+1/2
5 -x1+1/2,x2+1/2,-x3+1/2,x5,x4
6 x1+1/2,-x2+1/2,-x3+1/2,-x5,-x4
7 x2,x1,-x3,x4+1/2,-x5+1/2
8 -x2,-x1,-x3,-x4+1/2,x5+1/2
9 -x1,-x2,-x3,-x4,-x5
10 x1,x2,-x3,x4,x5
11 x2+1/2,-x1+1/2,-x3+1/2,x5+1/2,-x4+1/2
12 -x2+1/2,x1+1/2,-x3+1/2,-x5+1/2,x4+1/2
13 x1+1/2,-x2+1/2,x3+1/2,-x5,-x4
14 -x1+1/2,x2+1/2,x3+1/2,x5,x4
15 -x2,-x1,x3,-x4+1/2,x5+1/2
16 x2,x1,x3,x4+1/2,-x5+1/2
loop_
_atom_site_label
_atom_site_type_symbol
_atom_site_fract_x
_atom_site_fract_y
_atom_site_fract_z
_atom_site_adp_type
_atom_site_U_iso_or_equiv
_atom_site_site_symmetry_multiplicity
_atom_site_occupancy
_atom_site_calc_flag
Sc Sc 0.5 0 0.25 Uani 0.00357(15) 4 1 d
K1 K 0.79283(5) 0.20717(5) 0 Uani 0.01151(17) 4 1 d
K2 K 0.34303(5) 0.34303(5) 0 Uani 0.0179(2) 4 1 d
Si Si 0.12251(4) 0.12251(4) 0.19664(7) Uani 0.00440(15) 8 1 d
O1 O 0 0 0.2586(3) Uani 0.0082(5) 4 1 d
O2 O 0.11637(16) 0.11637(16) 0 Uani 0.0111(5) 4 1 d
F F 0.5 0 0 Uani 0.0107(5) 4 1 d
O3 O 0.07260(12) 0.28133(11) 0.25896(14) Uani 0.0099(3) 16 1 d
loop_
_atom_site_aniso_label
_atom_site_aniso_type_symbol
_atom_site_aniso_U_11
_atom_site_aniso_U_22
_atom_site_aniso_U_33
_atom_site_aniso_U_12
_atom_site_aniso_U_13
_atom_site_aniso_U_23
Sc Sc 0.0030(2) 0.0030(2) 0.0047(3) 0 0 0
K1 K 0.0123(3) 0.0123(3) 0.0100(4) 0.0045(3) 0 0
K2 K 0.0214(3) 0.0214(3) 0.0110(4) -0.0137(3) 0 0
Si Si 0.0040(2) 0.0040(2) 0.0051(3) -0.0001(2) -0.00002(15) -0.00002(15)
O1 O 0.0081(7) 0.0081(7) 0.0085(12) -0.0034(8) 0 0
O2 O 0.0140(7) 0.0140(7) 0.0052(12) -0.0033(9) 0 0
F F 0.0143(9) 0.0114(9) 0.0063(10) -0.0021(7) 0 0
O3 O 0.0103(5) 0.0054(5) 0.0139(7) 0.0018(4) -0.0006(5) -0.0017(4)
loop_
_atom_site_displace_Fourier_atom_site_label
_atom_site_displace_Fourier_axis
_atom_site_displace_Fourier_wave_vector_seq_id
_atom_site_displace_Fourier_param_cos
_atom_site_displace_Fourier_param_sin
Sc x 1 0 -0.00473(5)
Sc y 1 0 -0.00788(5)
Sc z 1 -0.00037(6) 0
Sc x 2 0 -0.00788(5)
Sc y 2 0 0.00473(5)
Sc z 2 -0.00037(6) 0
Sc x 3 0 0.00073(6)
Sc y 3 0 0.00069(5)
Sc z 3 0.00055(9) 0
Sc x 4 0 -0.00069(5)
Sc y 4 0 0.00073(6)
Sc z 4 -0.00055(9) 0
K1 x 1 0.01551(7) 0.00598(6)
K1 y 1 0.01551(7) -0.00598(6)
K1 z 1 0 0
K1 x 2 -0.00623(7) 0.00190(7)
K1 y 2 -0.00623(7) 0.00190(7)
K1 z 2 0 0
K1 x 3 -0.00152(8) 0.00057(8)
K1 y 3 -0.00062(7) 0.00145(8)
K1 z 3 0 0
K1 x 4 0.00062(7) -0.00145(8)
K1 y 4 0.00152(8) -0.00057(8)
K1 z 4 0 0
K2 x 1 0.01831(9) -0.00988(9)
K2 y 1 -0.01831(9) 0.00988(9)
K2 z 1 0 0
K2 x 2 -0.00528(8) -0.00108(7)
K2 y 2 0.00528(8) -0.00108(7)
K2 z 2 0 0
K2 x 3 -0.00880(8) -0.00302(9)
K2 y 3 0.00748(8) 0.00269(9)
K2 z 3 0 0
K2 x 4 0.00748(8) -0.00269(9)
K2 y 4 -0.00880(8) 0.00302(9)
K2 z 4 0 0
Si x 1 0.00128(5) 0.00349(5)
Si y 1 -0.00128(5) -0.00349(5)
Si z 1 0 0
Si x 2 0.00508(5) -0.00806(5)
Si y 2 -0.00508(5) -0.00806(5)
Si z 2 0 0.00059(10)
Si x 3 -0.00040(6) -0.00037(7)
Si y 3 -0.00005(6) 0.00095(6)
Si z 3 0.00002(8) 0.00026(8)
Si x 4 -0.00005(6) -0.00095(6)
Si y 4 -0.00040(6) 0.00037(7)
Si z 4 0.00002(8) -0.00026(8)
O1 x 1 0 -0.0196(2)
O1 y 1 0 0.0196(2)
O1 z 1 0 0
O1 x 2 0 -0.00865(19)
O1 y 2 0 -0.00865(19)
O1 z 2 0 0
O1 x 3 0 0.0023(2)
O1 y 3 0 -0.0011(2)
O1 z 3 0.0000(3) 0
O1 x 4 0 0.0011(2)
O1 y 4 0 -0.0023(2)
O1 z 4 0.0000(3) 0
O2 x 1 0.0088(2) 0.0182(2)
O2 y 1 -0.0088(2) -0.0182(2)
O2 z 1 0 0
O2 x 2 0.0006(2) -0.00685(19)
O2 y 2 -0.0006(2) -0.00685(19)
O2 z 2 0 0
O2 x 3 0.0009(2) -0.0005(3)
O2 y 3 -0.0023(2) 0.0025(2)
O2 z 3 0 0
O2 x 4 -0.0023(2) -0.0025(2)
O2 y 4 0.0009(2) 0.0005(3)
O2 z 4 0 0
F x 1 0 -0.0158(2)
F y 1 0 -0.0011(2)
F z 1 0 0
F x 2 0 -0.0213(2)
F y 2 0 -0.0112(2)
F z 2 0 0
F x 3 0 -0.0033(3)
F y 3 0 0.0002(3)
F z 3 0 0
F x 4 0 -0.0030(3)
F y 4 0 -0.0008(3)
F z 4 0 0
O3 x 1 -0.01546(15) 0.01659(15)
O3 y 1 -0.00458(14) 0.00648(13)
O3 z 1 -0.00379(18) -0.01955(19)
O3 x 2 0.01806(15) -0.00397(14)
O3 y 2 0.00033(13) -0.01004(13)
O3 z 2 0.00389(18) 0.00372(19)
O3 x 3 0.00126(15) -0.00247(17)
O3 y 3 0.00154(15) 0.00062(14)
O3 z 3 -0.0029(2) 0.0000(2)
O3 x 4 0.00134(16) -0.00210(16)
O3 y 4 -0.00038(14) -0.00021(15)
O3 z 4 0.0018(2) 0.0003(2)
loop_
_atom_site_Fourier_wave_vector_seq_id
_jana_atom_site_fourier_wave_vector_q1_coeff
_jana_atom_site_fourier_wave_vector_q2_coeff
1 1 0
2 0 1
3 1 1
4 -1 1
loop_
_atom_site_U_Fourier_atom_site_label
_atom_site_U_Fourier_tens_elem
_atom_site_U_Fourier_wave_vector_seq_id
_atom_site_U_Fourier_param_cos
_atom_site_U_Fourier_param_sin
Sc U11 1 -0.0006(2) 0
Sc U22 1 -0.0001(2) 0
Sc U33 1 0.0004(3) 0
Sc U12 1 -0.00013(19) 0
Sc U13 1 0 0.00009(19)
Sc U23 1 0 -0.00010(19)
Sc U11 2 0.0001(2) 0
Sc U22 2 0.0006(2) 0
Sc U33 2 -0.0004(3) 0
Sc U12 2 -0.00013(19) 0
Sc U13 2 0 0.00010(19)
Sc U23 2 0 0.00009(19)
K1 U11 1 -0.0015(3) 0.0012(3)
K1 U22 1 0.0015(3) 0.0012(3)
K1 U33 1 0 -0.0002(5)
K1 U12 1 0 0.0006(4)
K1 U13 1 0 0
K1 U23 1 0 0
K1 U11 2 0.0022(3) -0.0006(3)
K1 U22 2 -0.0022(3) 0.0006(3)
K1 U33 2 0 0
K1 U12 2 0 0
K1 U13 2 0 0
K1 U23 2 0 0
K2 U11 1 0.0019(4) -0.0007(4)
K2 U22 1 -0.0019(4) 0.0007(4)
K2 U33 1 0 0
K2 U12 1 0 0
K2 U13 1 0 0
K2 U23 1 0 0
K2 U11 2 0.0003(4) -0.0150(4)
K2 U22 2 -0.0003(4) -0.0150(4)
K2 U33 2 0 0.0005(6)
K2 U12 2 0 0.0163(5)
K2 U13 2 0 0
K2 U23 2 0 0
Si U11 1 0.0000(2) -0.0001(3)
Si U22 1 0.0000(2) 0.0001(3)
Si U33 1 0 0
Si U12 1 0 0
Si U13 1 -0.0002(2) 0.0000(2)
Si U23 1 0.0002(2) 0.0000(2)
Si U11 2 -0.0003(2) 0.0001(2)
Si U22 2 0.0003(2) 0.0001(2)
Si U33 2 0 -0.0001(4)
Si U12 2 0 -0.0007(3)
Si U13 2 -0.0001(2) -0.0001(2)
Si U23 2 0.0001(2) -0.0001(2)
O1 U11 1 -0.0013(11) 0
O1 U22 1 0.0013(11) 0
O1 U33 1 0 0
O1 U12 1 0 0
O1 U13 1 0 0.0039(9)
O1 U23 1 0 -0.0039(9)
O1 U11 2 0.0004(10) 0
O1 U22 2 -0.0004(10) 0
O1 U33 2 0 0
O1 U12 2 0 0
O1 U13 2 0 0.0003(8)
O1 U23 2 0 0.0003(8)
O2 U11 1 -0.0042(11) -0.0039(12)
O2 U22 1 0.0042(11) 0.0039(12)
O2 U33 1 0 0
O2 U12 1 0 0
O2 U13 1 0 0
O2 U23 1 0 0
O2 U11 2 0.0000(11) -0.0007(9)
O2 U22 2 0.0000(11) -0.0007(9)
O2 U33 2 0 -0.0007(17)
O2 U12 2 0 0.0010(12)
O2 U13 2 0 0
O2 U23 2 0 0
F U11 1 -0.0025(13) 0
F U22 1 -0.0006(11) 0
F U33 1 0.0000(14) 0
F U12 1 -0.0001(10) 0
F U13 1 0 0
F U23 1 0 0
F U11 2 -0.0011(13) 0
F U22 2 0.0023(11) 0
F U33 2 0.0002(14) 0
F U12 2 0.0000(10) 0
F U13 2 0 0
F U23 2 0 0
O3 U11 1 0.0016(8) 0.0021(8)
O3 U22 1 0.0017(6) -0.0007(6)
O3 U33 1 0.0035(10) 0.0038(10)
O3 U12 1 0.0005(6) -0.0005(6)
O3 U13 1 -0.0020(7) -0.0021(7)
O3 U23 1 -0.0019(6) -0.0006(6)
O3 U11 2 -0.0022(7) 0.0022(8)
O3 U22 2 0.0003(6) 0.0000(6)
O3 U33 2 -0.0007(10) -0.0012(10)
O3 U12 2 -0.0005(6) -0.0012(6)
O3 U13 2 0.0000(7) 0.0016(7)
O3 U23 2 0.0003(6) 0.0003(6)
loop_
_atom_type_symbol
_atom_type_scat_dispersion_real
_atom_type_scat_dispersion_imag
_atom_type_scat_source
F 0.0171 0.0103 'International Tables Vol C tables 4.2.6.8 and 6.1.1.1'
K 0.2009 0.2494 'International Tables Vol C tables 4.2.6.8 and 6.1.1.1'
O 0.0106 0.0060 'International Tables Vol C tables 4.2.6.8 and 6.1.1.1'
Sc 0.2519 0.3716 'International Tables Vol C tables 4.2.6.8 and 6.1.1.1'
Si 0.0817 0.0704 'International Tables Vol C tables 4.2.6.8 and 6.1.1.1'
loop_
_cell_wave_vector_seq_id
_cell_wave_vector_x
_cell_wave_vector_y
_cell_wave_vector_z
1 0.298700 0.298700 0.000000
2 -0.298700 0.298700 0.000000
loop_
_geom_bond_atom_site_label_1
_geom_bond_atom_site_label_2
_geom_bond_site_ssg_symmetry_2
_geom_bond_distance_av
_geom_bond_distance_min
_geom_bond_distance_max
Sc F . 2.0737(13) 2.062(2) 2.0868(15)
Sc F 3_54555 2.0739(13) 2.062(2) 2.0868(15)
Sc O3 5_54555 2.078(5) 2.051(5) 2.104(5)
Sc O3 6_55555 2.077(5) 2.051(5) 2.104(5)
Sc O3 15_65555 2.078(5) 2.051(5) 2.104(5)
Sc O3 16_55555 2.077(5) 2.051(5) 2.104(5)
K1 O2 1_65555 3.025(8) 2.863(8) 3.250(8)
K1 O2 2_65555 3.021(8) 2.863(8) 3.250(8)
K1 O3 4_55455 2.809(7) 2.701(7) 2.951(7)
K1 O3 6_55555 2.817(7) 2.701(7) 2.951(7)
K1 O3 11_55555 2.809(7) 2.701(7) 2.951(7)
K1 O3 13_55455 2.817(7) 2.701(7) 2.951(7)
K2 O1 3_55455 2.830(4) 2.641(5) 3.011(5)
K2 O1 5_55555 2.830(4) 2.641(5) 3.011(5)
K2 O2 . 2.897(9) 2.800(9) 2.958(9)
K2 O3 . 3.282(7) 2.772(7) 3.766(7)
K2 O3 3_55455 3.067(7) 2.787(7) 3.676(6)
K2 O3 6_55555 3.090(7) 2.787(7) 3.676(6)
K2 O3 7_55555 3.299(7) 2.772(7) 3.766(7)
K2 O3 10_55555 3.282(7) 2.772(7) 3.766(7)
K2 O3 12_55555 3.067(7) 2.787(7) 3.676(6)
K2 O3 13_55455 3.090(7) 2.787(7) 3.676(6)
K2 O3 16_55555 3.299(7) 2.772(7) 3.766(7)
Si O1 . 1.648(4) 1.630(6) 1.668(5)
Si O2 . 1.636(2) 1.624(2) 1.648(2)
Si O3 . 1.591(6) 1.574(6) 1.610(6)
Si O3 16_55555 1.592(6) 1.574(6) 1.610(6)
loop_
_refln_index_h
_refln_index_k
_refln_index_l
_refln_index_m_1
_refln_index_m_2
_refln_F_squared_calc
_refln_F_squared_meas
_refln_F_squared_sigma
_refln_observed_status
0 0 2 0 0 7972.33 9396.68 112.11 o
0 0 2 1 1 0.14 -0.24 0.67 <
0 0 4 1 1 0.22 2.67 1.23 <
0 0 6 0 0 1056.68 1022.45 38.79 o
0 0 6 1 1 0.39 -4.28 1.57 <
0 0 8 0 0 8568.87 8275.73 189.02 o
0 0 8 1 1 0.01 -3.49 2.23 <
0 0 10 0 0 2571.75 2503.77 114.82 o
0 0 10 1 1 0.32 -2.46 2.88 <
1 0 0 1 0 8.91 8.35 1.58 o
1 0 1 0 0 495.70 523.97 11.67 o
1 0 1 0 1 0.20 -0.38 0.61 <
1 0 1 1 -1 3.48 3.21 0.52 o
1 0 1 1 0 0.99 0.78 0.31 <
1 0 1 1 1 2.71 2.52 0.42 o
1 0 2 0 1 0.48 0.54 0.40 <
1 0 2 1 0 1.12 1.15 0.47 <
1 0 2 1 1 1.21 1.00 0.46 <
1 0 3 -1 1 0.69 1.16 0.82 <
1 0 3 0 0 1335.79 1252.78 19.25 o
1 0 3 0 1 0.32 0.73 0.60 <
1 0 3 1 -1 1.90 0.79 0.65 <
1 0 3 1 0 0.00 0.79 0.53 <
1 0 3 1 1 0.69 0.07 0.46 <
1 0 4 0 1 0.77 1.33 0.66 <
1 0 4 1 0 4.96 4.07 0.87 o
1 0 4 1 1 2.48 3.26 0.83 o
1 0 5 -1 1 2.81 2.03 1.34 <
1 0 5 0 0 1244.84 1409.24 29.52 o
1 0 5 0 1 0.91 0.89 0.92 <
1 0 5 1 -1 7.86 7.36 1.74 o
1 0 5 1 0 0.41 -0.78 0.86 <
1 0 5 1 1 5.12 6.10 1.17 o
1 0 6 0 1 0.04 0.26 0.76 <
1 0 6 1 0 0.02 0.74 1.17 <
1 0 6 1 1 0.15 0.00 0.90 <
1 0 7 -1 1 0.92 2.06 1.78 <
1 0 7 0 0 354.80 375.15 17.86 o
1 0 7 0 1 0.62 1.28 1.06 <
1 0 7 1 -1 2.13 3.18 1.95 <
1 0 7 1 0 0.12 -1.27 1.33 <
1 0 7 1 1 1.08 0.46 1.25 <
1 0 8 0 1 0.50 0.58 1.76 <
1 0 8 1 0 1.29 -0.73 1.80 <
1 0 8 1 1 2.41 -1.50 2.04 <
1 0 9 -1 1 1.66 0.71 2.59 <
1 0 9 0 0 18.55 18.80 4.82 o
1 0 9 0 1 1.06 2.20 1.70 <
1 0 9 1 -1 3.31 -5.18 2.92 <
1 0 9 1 0 0.37 0.59 1.99 <
1 0 9 1 1 2.59 -0.52 1.50 <
1 0 10 0 1 0.02 -7.64 2.76 <
1 0 10 1 0 0.14 -0.02 1.87 <
1 0 10 1 1 0.25 -5.72 2.68 <
1 1 0 0 0 73.69 114.31 7.50 o
1 1 0 0 1 5.26 4.54 0.84 o
1 1 0 1 1 0.01 0.25 0.36 <
1 1 1 -1 1 0.79 0.57 0.34 <
1 1 1 0 0 84.78 94.51 3.98 o
1 1 1 0 1 10.36 8.85 0.63 o
1 1 1 1 1 0.52 0.44 0.32 <
1 1 2 -1 1 0.01 0.81 0.45 <
1 1 2 0 0 897.36 927.79 13.34 o
1 1 2 0 1 5.02 3.84 0.63 o
1 1 2 1 1 0.23 0.15 0.45 <
1 1 3 -1 1 0.01 -0.08 0.50 <
1 1 3 0 0 904.31 875.46 15.87 o
1 1 3 0 1 74.23 87.14 3.37 o
1 1 3 1 1 0.24 -0.42 0.55 <
1 1 4 -1 1 0.15 0.34 0.57 <
1 1 4 0 0 1244.67 1286.83 20.38 o
1 1 4 0 1 19.80 19.40 1.80 o
1 1 4 1 1 0.08 0.10 0.73 <
1 1 5 -1 1 0.94 2.04 1.03 <
1 1 5 0 0 456.01 510.97 14.39 o
1 1 5 0 1 67.32 73.23 4.00 o
1 1 5 1 1 0.20 -0.73 0.75 <
1 1 6 -1 1 0.18 0.53 0.92 <
1 1 6 0 0 2839.94 2945.39 35.59 o
1 1 6 0 1 3.23 5.24 1.25 o
1 1 6 1 1 0.40 -2.01 0.96 <
1 1 7 -1 1 0.04 0.03 1.13 <
1 1 7 0 0 281.09 293.66 15.84 o
1 1 7 0 1 45.52 46.23 4.55 o
1 1 7 1 1 0.11 1.40 1.65 <
1 1 8 -1 1 0.19 -0.76 1.65 <
1 1 8 0 0 2216.80 2159.63 46.85 o
1 1 8 0 1 25.95 22.31 3.27 o
1 1 8 1 1 0.17 -3.71 1.88 <
1 1 9 -1 1 0.40 -0.19 1.76 <
1 1 9 0 0 16.27 10.90 3.61 o
1 1 9 0 1 27.97 24.20 3.79 o
1 1 9 1 1 0.03 1.07 2.29 <
1 1 10 -1 1 0.08 -2.84 2.17 <
1 1 10 0 0 2121.48 2010.02 51.43 o
1 1 10 0 1 5.13 2.41 2.22 <
1 1 10 1 1 0.21 -4.49 2.45 <
2 0 0 -1 1 3.72 3.94 0.84 o
2 0 0 0 0 1484.21 1497.83 14.98 o
2 0 0 0 1 7.40 5.88 0.65 o
2 0 0 1 -1 19.23 12.20 1.28 o
2 0 0 1 0 9.80 9.19 0.80 o
2 0 0 1 1 10.33 7.42 0.80 o
2 0 1 0 1 23.05 19.98 0.86 o
2 0 1 1 0 84.09 81.47 1.64 o
2 0 1 1 1 0.17 0.26 0.20 <
2 0 2 -1 1 1.67 1.97 0.69 <
2 0 2 0 0 13509.90 14215.20 59.01 o
2 0 2 0 1 15.43 15.72 1.18 o
2 0 2 1 -1 8.86 8.66 1.02 o
2 0 2 1 0 16.70 17.65 1.02 o
2 0 2 1 1 12.30 11.88 1.00 o
2 0 3 0 1 19.32 26.02 1.77 o
2 0 3 1 0 77.42 78.44 3.01 o
2 0 3 1 1 0.93 1.65 0.63 <
2 0 4 -1 1 3.31 3.05 1.06 <
2 0 4 0 0 732.82 813.48 16.12 o
2 0 4 0 1 8.56 7.18 1.05 o
2 0 4 1 -1 6.42 5.60 1.33 o
2 0 4 1 0 1.61 0.85 0.64 <
2 0 4 1 1 6.66 5.25 0.92 o
2 0 5 0 1 61.98 67.54 4.03 o
2 0 5 1 0 21.76 22.88 2.22 o
2 0 5 1 1 0.07 0.72 0.92 <
2 0 6 -1 1 0.01 -1.49 1.41 <
2 0 6 0 0 5087.54 5303.05 52.68 o
2 0 6 0 1 0.55 0.56 0.93 <
2 0 6 1 -1 5.69 6.12 1.68 o
2 0 6 1 0 2.62 3.05 1.00 o
2 0 6 1 1 2.44 2.85 1.14 <
2 0 7 0 1 17.62 14.94 2.68 o
2 0 7 1 0 35.33 35.91 3.96 o
2 0 7 1 1 0.87 0.98 1.09 <
2 0 8 -1 1 1.83 2.35 1.93 <
2 0 8 0 0 190.90 187.08 13.66 o
2 0 8 0 1 8.92 5.99 2.04 <
2 0 8 1 -1 1.53 -3.01 2.54 <
2 0 8 1 0 0.01 0.75 1.46 <
2 0 8 1 1 3.70 1.86 1.77 <
2 0 9 0 1 27.44 23.26 3.65 o
2 0 9 1 0 2.84 0.16 2.01 <
2 0 9 1 1 0.21 1.27 2.03 <
2 0 10 -1 1 0.00 -7.44 3.58 <
2 0 10 0 0 2238.85 2135.76 53.26 o
2 0 10 0 1 0.55 -7.99 2.90 <
2 0 10 1 -1 1.97 5.99 3.16 <
2 0 10 1 0 1.98 0.11 1.93 <
2 0 10 1 1 0.40 0.72 2.37 <
2 1 0 -1 -1 3.69 2.47 0.49 o
2 1 0 -1 0 27.68 25.60 1.27 o
2 1 0 -1 1 3.92 2.39 0.57 o
2 1 0 0 -1 60.02 56.01 2.00 o
2 1 0 0 0 1084.15 1186.49 9.47 o
2 1 0 0 1 2.72 3.44 0.47 o
2 1 0 1 -1 1.78 2.85 0.59 o
2 1 0 1 0 195.21 198.11 4.13 o
2 1 0 1 1 4.81 5.62 0.56 o
2 1 1 -1 -1 0.97 0.94 0.23 o
2 1 1 -1 0 9.32 10.71 0.66 o
2 1 1 -1 1 2.54 2.20 0.47 o
2 1 1 0 -1 47.60 41.72 1.28 o
2 1 1 0 0 14.67 19.03 0.98 o
2 1 1 0 1 43.93 45.89 1.72 o
2 1 1 1 -1 3.26 4.25 0.48 o
2 1 1 1 0 27.30 24.47 1.12 o
2 1 1 1 1 7.92 8.59 0.80 o
2 1 2 -1 -1 3.66 4.56 0.69 o
2 1 2 -1 0 6.11 6.80 0.80 o
2 1 2 -1 1 6.71 5.49 0.77 o
2 1 2 0 -1 27.40 22.64 1.17 o
2 1 2 0 0 15766.60 16346.00 51.86 o
2 1 2 0 1 14.88 17.31 1.26 o
2 1 2 1 -1 1.77 2.12 0.37 o
2 1 2 1 0 10.88 11.03 0.87 o
2 1 2 1 1 0.56 0.28 0.33 <
2 1 3 -1 -1 2.22 1.75 0.51 o
2 1 3 -1 0 0.01 -0.16 0.54 <
2 1 3 -1 1 1.41 1.76 0.60 <
2 1 3 0 -1 159.73 162.55 4.38 o
2 1 3 0 0 12.10 16.89 1.52 o
2 1 3 0 1 6.39 8.16 1.02 o
2 1 3 1 -1 2.33 1.52 0.50 o
2 1 3 1 0 218.29 225.97 5.50 o
2 1 3 1 1 1.71 2.00 0.64 o
2 1 4 -1 -1 1.58 1.22 0.71 <
2 1 4 -1 0 5.64 5.72 1.05 o
2 1 4 -1 1 1.16 1.32 0.63 <
2 1 4 0 -1 8.25 7.46 1.20 o
2 1 4 0 0 266.26 228.44 6.21 o
2 1 4 0 1 2.06 1.10 0.63 <
2 1 4 1 -1 0.46 0.77 0.70 <
2 1 4 1 0 61.80 66.90 3.37 o
2 1 4 1 1 2.80 2.25 0.77 <
2 1 5 -1 -1 0.01 -0.18 0.89 <
2 1 5 -1 0 11.63 12.29 1.64 o
2 1 5 -1 1 0.61 0.78 0.73 <
2 1 5 0 -1 0.01 0.10 0.91 <
2 1 5 0 0 30.66 36.59 2.83 o
2 1 5 0 1 32.19 33.96 2.66 o
2 1 5 1 -1 1.36 1.64 0.81 <
2 1 5 1 0 5.24 5.60 1.03 o
2 1 5 1 1 5.20 3.31 0.76 o
2 1 6 -1 -1 1.34 4.20 1.12 o
2 1 6 -1 0 0.08 2.01 0.86 <
2 1 6 -1 1 3.42 -0.33 0.92 <
2 1 6 0 -1 36.23 34.37 2.84 o
2 1 6 0 0 725.22 819.90 14.03 o
2 1 6 0 1 0.75 0.94 0.98 <
2 1 6 1 -1 1.32 -0.16 1.04 <
2 1 6 1 0 0.29 0.29 0.88 <
2 1 6 1 1 0.23 0.42 0.87 <
2 1 7 -1 -1 1.58 -0.25 1.39 <
2 1 7 -1 0 0.36 0.91 1.45 <
2 1 7 -1 1 1.35 0.99 1.32 <
2 1 7 0 -1 86.00 80.66 5.97 o
2 1 7 0 0 7.68 5.66 1.90 <
2 1 7 0 1 1.52 1.05 1.23 <
2 1 7 1 -1 0.67 1.16 1.37 <
2 1 7 1 0 102.14 102.48 6.36 o
2 1 7 1 1 0.43 0.68 1.13 <
2 1 8 -1 -1 0.58 -0.04 1.51 <
2 1 8 -1 0 0.08 -2.60 1.70 <
2 1 8 -1 1 0.11 -3.76 1.91 <
2 1 8 0 -1 1.17 1.44 1.16 <
2 1 8 0 0 2514.41 2446.23 35.80 o
2 1 8 0 1 13.55 9.06 2.18 o
2 1 8 1 -1 0.02 0.13 1.65 <
2 1 8 1 0 6.00 3.43 1.67 <
2 1 8 1 1 0.97 0.33 1.57 <
2 1 9 -1 -1 0.12 -3.19 1.97 <
2 1 9 -1 0 6.28 8.10 2.49 o
2 1 9 -1 1 0.00 -0.01 1.62 <
2 1 9 0 -1 0.64 1.01 2.15 <
2 1 9 0 0 4.13 4.21 2.42 <
2 1 9 0 1 7.72 10.60 2.56 o
2 1 9 1 -1 0.55 6.08 2.56 <
2 1 9 1 0 0.18 -0.70 1.93 <
2 1 9 1 1 1.65 1.75 1.87 <
2 1 10 -1 -1 0.30 -2.81 2.43 <
2 1 10 -1 0 0.05 -3.07 2.84 <
2 1 10 -1 1 2.06 -1.38 2.28 <
2 1 10 0 -1 28.95 23.17 3.98 o
2 1 10 0 0 0.32 0.02 2.21 <
2 1 10 0 1 5.08 7.56 2.47 o
2 1 10 1 -1 0.68 -3.03 2.12 <
2 1 10 1 0 1.52 -1.76 2.46 <
2 1 10 1 1 0.45 -2.87 2.73 <
2 2 0 -1 1 12.13 7.88 0.81 o
2 2 0 0 0 12123.10 10780.80 56.47 o
2 2 0 0 1 35.83 34.33 1.56 o
2 2 0 1 1 1.95 2.75 0.46 o
2 2 1 -1 1 0.35 0.30 0.32 <
2 2 1 0 0 6870.23 7067.41 42.64 o
2 2 1 0 1 0.36 0.59 0.34 <
2 2 1 1 1 1.71 2.78 0.56 o
2 2 2 -1 1 5.47 3.01 0.65 o
2 2 2 0 0 1066.07 1328.10 15.55 o
2 2 2 0 1 40.52 49.77 1.89 o
2 2 2 1 1 0.04 0.24 0.36 <
2 2 3 -1 1 0.08 0.40 0.53 <
2 2 3 0 0 274.69 248.64 7.96 o
2 2 3 0 1 9.18 7.01 0.88 o
2 2 3 1 1 0.36 0.18 0.44 <
2 2 4 -1 1 3.61 2.66 0.78 o
2 2 4 0 0 7583.29 7831.15 50.69 o
2 2 4 0 1 8.58 6.93 1.07 o
2 2 4 1 1 0.28 -0.17 0.70 <
2 2 5 -1 1 0.53 0.54 0.89 <
2 2 5 0 0 9046.89 9524.87 63.46 o
2 2 5 0 1 4.24 5.53 1.11 o
2 2 5 1 1 2.92 3.60 0.89 o
2 2 6 -1 1 4.07 0.60 0.91 <
2 2 6 0 0 57.52 61.94 5.92 o
2 2 6 0 1 2.92 3.75 1.26 <
2 2 6 1 1 0.20 1.67 1.01 <
2 2 7 -1 1 0.05 0.33 1.36 <
2 2 7 0 0 156.51 170.30 12.19 o
2 2 7 0 1 2.17 0.47 1.61 <
2 2 7 1 1 0.28 -1.01 1.55 <
2 2 8 -1 1 0.34 -5.17 1.90 <
2 2 8 0 0 3475.85 3432.87 60.58 o
2 2 8 0 1 0.12 -1.04 1.58 <
2 2 8 1 1 0.04 -0.77 1.50 <
2 2 9 -1 1 0.06 0.20 1.86 <
2 2 9 0 0 669.80 687.70 28.43 o
2 2 9 0 1 0.53 4.83 2.07 <
2 2 9 1 1 0.48 -1.86 2.40 <
2 2 10 -1 1 2.48 3.02 2.21 <
2 2 10 0 0 9.31 9.23 4.77 <
2 2 10 0 1 0.13 -1.87 2.26 <
2 2 10 1 1 0.32 -6.21 2.88 <
2 2 11 0 0 906.80 799.07 63.13 o
2 2 11 0 1 2.53 -6.88 5.05 <
3 0 0 0 1 1.55 0.31 0.33 <
3 0 0 1 0 25.24 28.12 1.38 o
3 0 0 1 1 4.00 4.09 0.69 o
3 0 1 -1 1 0.00 -0.16 0.30 <
3 0 1 0 0 455.90 476.95 6.07 o
3 0 1 0 1 36.28 30.44 1.05 o
3 0 1 1 -1 0.38 -0.02 0.40 <
3 0 1 1 0 2.74 3.74 0.38 o
3 0 1 1 1 0.41 0.18 0.24 <
3 0 2 0 1 237.52 232.77 3.80 o
3 0 2 1 0 114.48 125.62 2.86 o
3 0 2 1 1 0.79 0.75 0.38 <
3 0 3 -1 1 0.32 0.88 0.82 <
3 0 3 0 0 2264.75 2245.64 20.02 o
3 0 3 0 1 68.70 67.49 2.47 o
3 0 3 1 -1 1.00 0.84 0.54 <
3 0 3 1 0 35.84 31.77 1.66 o
3 0 3 1 1 3.58 2.64 0.58 o
3 0 4 0 1 0.81 -0.02 0.64 <
3 0 4 1 0 0.23 0.61 0.61 <
3 0 4 1 1 1.12 -0.89 0.63 <
3 0 5 -1 1 0.17 0.87 1.45 <
3 0 5 0 0 2276.25 2384.18 32.27 o
3 0 5 0 1 2.77 2.94 0.88 o
3 0 5 1 -1 0.86 -0.99 1.00 <
3 0 5 1 0 30.06 32.82 2.45 o
3 0 5 1 1 0.10 -0.81 0.90 <
3 0 6 0 1 81.00 77.44 4.33 o
3 0 6 1 0 6.29 7.34 1.28 o
3 0 6 1 1 0.00 -2.46 1.10 <
3 0 7 -1 1 0.29 -0.82 1.98 <
3 0 7 0 0 1042.88 1068.60 31.27 o
3 0 7 0 1 37.81 34.85 4.03 o
3 0 7 1 -1 0.36 1.43 2.09 <
3 0 7 1 0 30.42 28.77 3.45 o
3 0 7 1 1 2.25 0.73 1.40 <
3 0 8 0 1 0.82 -1.94 1.93 <
3 0 8 1 0 8.45 6.26 2.41 <
3 0 8 1 1 0.15 -2.29 1.52 <
3 0 9 -1 1 0.18 -3.01 2.97 <
3 0 9 0 0 85.08 79.99 9.68 o
3 0 9 0 1 0.53 0.07 1.85 <
3 0 9 1 -1 0.02 -1.36 2.10 <
3 0 9 1 0 16.99 13.76 2.93 o
3 0 9 1 1 0.09 -0.57 2.14 <
3 0 10 0 1 32.92 24.82 4.01 o
3 0 10 1 0 0.46 -4.46 3.03 <
3 0 10 1 1 0.03 -6.88 3.35 <
3 1 0 -1 -1 0.10 1.46 0.51 <
3 1 0 -1 0 59.19 61.56 2.19 o
3 1 0 -1 1 0.09 0.42 0.44 <
3 1 0 0 -1 2.19 1.30 0.48 <
3 1 0 0 0 17616.10 17119.70 52.53 o
3 1 0 0 1 30.35 33.87 1.70 o
3 1 0 1 -1 10.07 16.55 1.37 o
3 1 0 1 0 106.64 127.87 3.51 o
3 1 0 1 1 2.76 2.47 0.61 o
3 1 1 -1 -1 11.28 9.58 0.61 o
3 1 1 -1 0 4.07 3.90 0.44 o
3 1 1 -1 1 12.34 9.75 0.67 o
3 1 1 0 -1 75.09 77.16 1.84 o
3 1 1 0 0 4677.94 4780.35 15.94 o
3 1 1 0 1 150.58 143.32 2.55 o
3 1 1 1 -1 2.69 2.35 0.36 o
3 1 1 1 0 4.21 5.37 0.52 o
3 1 1 1 1 2.75 3.32 0.46 o
3 1 2 -1 -1 7.87 5.46 0.60 o
3 1 2 -1 0 13.65 12.43 0.87 o
3 1 2 -1 1 1.46 3.05 0.48 o
3 1 2 0 -1 1.62 1.46 0.34 o
3 1 2 0 0 410.48 600.59 6.04 o
3 1 2 0 1 56.95 50.45 1.84 o
3 1 2 1 -1 3.36 4.57 0.53 o
3 1 2 1 0 90.15 88.98 2.28 o
3 1 2 1 1 3.85 3.18 0.56 o
3 1 3 -1 -1 18.19 18.32 1.29 o
3 1 3 -1 0 8.29 9.57 0.96 o
3 1 3 -1 1 14.70 11.89 1.21 o
3 1 3 0 -1 3.71 3.85 0.60 o
3 1 3 0 0 411.65 431.36 6.04 o
3 1 3 0 1 17.26 15.30 1.22 o
3 1 3 1 -1 12.47 11.17 1.03 o
3 1 3 1 0 5.26 6.53 0.73 o
3 1 3 1 1 6.41 8.11 0.85 o
3 1 4 -1 -1 0.43 -0.29 0.62 <
3 1 4 -1 0 11.37 14.50 1.57 o
3 1 4 -1 1 0.03 -0.32 0.71 <
3 1 4 0 -1 0.00 0.62 0.66 <
3 1 4 0 0 6687.91 6896.31 35.80 o
3 1 4 0 1 0.10 0.92 0.81 <
3 1 4 1 -1 5.98 6.87 0.89 o
3 1 4 1 0 43.25 48.38 2.52 o
3 1 4 1 1 1.27 1.08 0.71 <
3 1 5 -1 -1 2.14 1.93 0.88 <
3 1 5 -1 0 16.71 17.15 1.78 o
3 1 5 -1 1 3.10 4.67 1.12 o
3 1 5 0 -1 108.77 110.42 4.38 o
3 1 5 0 0 3956.65 4179.74 28.72 o
3 1 5 0 1 125.71 131.60 4.90 o
3 1 5 1 -1 0.07 -0.61 0.85 <
3 1 5 1 0 0.21 0.20 0.76 <
3 1 5 1 1 0.06 0.07 0.64 <
3 1 6 -1 -1 1.27 -1.41 0.98 <
3 1 6 -1 0 0.11 -0.24 1.00 <
3 1 6 -1 1 0.46 0.08 0.89 <
3 1 6 0 -1 4.87 4.05 1.23 o
3 1 6 0 0 837.88 832.60 14.97 o
3 1 6 0 1 0.13 -0.83 1.26 <
3 1 6 1 -1 0.80 -1.66 1.16 <
3 1 6 1 0 22.68 20.70 2.43 o
3 1 6 1 1 1.69 2.35 1.04 <
3 1 7 -1 -1 6.45 2.40 1.84 <
3 1 7 -1 0 7.97 8.28 1.95 o
3 1 7 -1 1 5.18 4.65 1.27 o
3 1 7 0 -1 7.38 7.71 1.56 o
3 1 7 0 0 161.68 147.81 8.11 o
3 1 7 0 1 1.56 -1.48 1.75 <
3 1 7 1 -1 8.29 7.20 1.93 o
3 1 7 1 0 10.14 9.16 2.24 o
3 1 7 1 1 4.57 4.18 1.53 <
3 1 8 -1 -1 0.58 -2.81 2.06 <
3 1 8 -1 0 0.25 1.10 1.51 <
3 1 8 -1 1 0.02 -1.97 1.73 <
3 1 8 0 -1 2.15 0.56 1.77 <
3 1 8 0 0 994.59 997.27 22.88 o
3 1 8 0 1 14.90 11.32 2.49 o
3 1 8 1 -1 2.85 5.09 1.92 <
3 1 8 1 0 6.85 3.92 1.67 <
3 1 8 1 1 0.46 -3.32 1.94 <
3 1 9 -1 -1 1.35 -1.33 1.97 <
3 1 9 -1 0 6.11 6.14 1.92 o
3 1 9 -1 1 1.34 0.05 1.63 <
3 1 9 0 -1 20.96 15.61 2.90 o
3 1 9 0 0 503.46 481.82 16.84 o
3 1 9 0 1 33.40 30.11 4.16 o
3 1 9 1 -1 0.20 1.72 2.11 <
3 1 9 1 0 4.41 2.44 1.88 <
3 1 9 1 1 0.08 1.81 1.78 <
3 1 10 -1 -1 0.33 -6.82 3.15 <
3 1 10 -1 0 2.31 -3.98 2.83 <
3 1 10 -1 1 0.37 -1.77 2.54 <
3 1 10 0 -1 2.56 6.58 3.25 <
3 1 10 0 0 413.30 384.13 19.45 o
3 1 10 0 1 2.00 0.49 2.42 <
3 1 10 1 -1 0.01 -1.34 2.94 <
3 1 10 1 0 1.70 -11.47 4.11 <
3 1 10 1 1 0.62 -7.53 3.77 <
3 2 0 -1 -1 0.00 0.32 0.35 <
3 2 0 -1 0 34.87 26.22 1.61 o
3 2 0 -1 1 11.42 9.22 0.85 o
3 2 0 0 -1 259.67 258.05 5.18 o
3 2 0 0 0 1810.21 1632.51 13.26 o
3 2 0 0 1 33.08 37.84 1.89 o
3 2 0 1 -1 15.06 14.68 1.33 o
3 2 0 1 0 47.38 53.10 2.24 o
3 2 0 1 1 9.94 13.87 1.32 o
3 2 1 -1 -1 0.19 0.20 0.30 <
3 2 1 -1 0 22.13 19.44 1.12 o
3 2 1 -1 1 3.76 3.55 0.61 o
3 2 1 0 -1 171.56 166.95 3.00 o
3 2 1 0 0 133.29 125.31 3.05 o
3 2 1 0 1 17.58 17.80 1.19 o
3 2 1 1 -1 0.04 -0.65 0.36 <
3 2 1 1 0 127.35 127.17 3.09 o
3 2 1 1 1 0.83 0.27 0.45 <
3 2 2 -1 -1 25.91 23.16 1.23 o
3 2 2 -1 0 177.15 183.14 3.51 o
3 2 2 -1 1 2.91 1.96 0.51 o
3 2 2 0 -1 34.87 30.84 1.42 o
3 2 2 0 0 558.87 721.27 7.90 o
3 2 2 0 1 176.01 191.99 4.33 o
3 2 2 1 -1 16.41 15.41 1.08 o
3 2 2 1 0 91.55 87.92 2.62 o
3 2 2 1 1 8.78 10.73 1.29 o
3 2 3 -1 -1 0.96 1.33 0.54 <
3 2 3 -1 0 122.33 127.29 3.35 o
3 2 3 -1 1 3.77 1.52 0.57 <
3 2 3 0 -1 178.16 179.10 4.06 o
3 2 3 0 0 204.04 207.17 4.56 o
3 2 3 0 1 2.68 3.42 0.61 o
3 2 3 1 -1 0.02 -0.22 0.52 <
3 2 3 1 0 88.03 85.74 2.93 o
3 2 3 1 1 0.02 0.49 0.61 <
3 2 4 -1 -1 0.38 0.00 0.66 <
3 2 4 -1 0 23.34 22.99 1.90 o
3 2 4 -1 1 7.77 5.42 0.92 o
3 2 4 0 -1 71.29 73.20 3.10 o
3 2 4 0 0 34.24 35.09 2.17 o
3 2 4 0 1 27.91 29.38 1.95 o
3 2 4 1 -1 7.57 7.17 0.98 o
3 2 4 1 0 37.15 41.31 2.10 o
3 2 4 1 1 3.59 6.03 0.89 o
3 2 5 -1 -1 1.19 -0.50 0.89 <
3 2 5 -1 0 1.43 1.65 0.77 <
3 2 5 -1 1 1.20 0.48 0.83 <
3 2 5 0 -1 58.74 54.54 3.17 o
3 2 5 0 0 27.93 29.26 2.16 o
3 2 5 0 1 14.34 15.17 1.52 o
3 2 5 1 -1 0.01 0.33 0.77 <
3 2 5 1 0 68.42 68.62 3.28 o
3 2 5 1 1 0.70 -1.39 0.82 <
3 2 6 -1 -1 6.25 5.99 1.32 o
3 2 6 -1 0 55.10 60.39 4.19 o
3 2 6 -1 1 0.51 0.48 1.19 <
3 2 6 0 -1 63.97 56.40 4.06 o
3 2 6 0 0 2328.37 2335.64 26.51 o
3 2 6 0 1 90.76 87.78 5.04 o
3 2 6 1 -1 8.53 10.69 1.89 o
3 2 6 1 0 59.67 63.19 4.92 o
3 2 6 1 1 6.35 7.10 1.47 o
3 2 7 -1 -1 0.69 -1.22 1.58 <
3 2 7 -1 0 73.08 71.89 5.65 o
3 2 7 -1 1 1.78 4.13 1.68 <
3 2 7 0 -1 61.25 60.79 5.28 o
3 2 7 0 0 109.59 109.04 6.50 o
3 2 7 0 1 1.74 1.93 1.05 <
3 2 7 1 -1 0.14 -0.25 1.31 <
3 2 7 1 0 25.33 27.54 3.17 o
3 2 7 1 1 0.01 1.08 1.23 <
3 2 8 -1 -1 0.94 -3.29 2.14 <
3 2 8 -1 0 10.56 5.50 1.89 <
3 2 8 -1 1 4.78 1.47 2.37 <
3 2 8 0 -1 1.89 3.85 1.89 <
3 2 8 0 0 636.52 610.35 16.81 o
3 2 8 0 1 17.77 12.72 2.42 o
3 2 8 1 -1 1.90 -3.81 2.12 <
3 2 8 1 0 19.85 23.31 3.47 o
3 2 8 1 1 0.39 2.85 1.82 <
3 2 9 -1 -1 0.48 -1.87 2.22 <
3 2 9 -1 0 0.85 -4.97 2.11 <
3 2 9 -1 1 0.34 -8.34 2.33 <
3 2 9 0 -1 36.22 35.75 4.57 o
3 2 9 0 0 11.41 12.04 2.71 o
3 2 9 0 1 1.77 -4.80 2.41 <
3 2 9 1 -1 0.33 0.82 2.65 <
3 2 9 1 0 45.97 47.31 5.47 o
3 2 9 1 1 0.02 2.12 2.43 <
3 2 10 -1 -1 1.45 -0.52 2.62 <
3 2 10 -1 0 17.55 11.33 2.85 o
3 2 10 -1 1 0.01 -5.48 2.84 <
3 2 10 0 -1 39.32 32.09 6.32 o
3 2 10 0 0 1561.75 1457.95 42.15 o
3 2 10 0 1 32.32 25.94 4.67 o
3 2 10 1 -1 4.96 1.17 2.47 <
3 2 10 1 0 24.23 11.21 4.79 <
3 2 10 1 1 4.76 -3.64 4.17 <
3 3 0 -1 1 0.18 1.07 0.49 <
3 3 0 0 0 2163.32 2157.18 23.82 o
3 3 0 0 1 13.01 10.73 1.04 o
3 3 0 1 1 6.52 3.53 0.72 o
3 3 1 -1 1 0.17 1.16 0.51 <
3 3 1 0 0 0.76 4.61 0.80 o
3 3 1 0 1 61.52 65.97 2.45 o
3 3 1 1 1 0.14 0.08 0.47 <
3 3 2 -1 1 6.00 5.20 0.81 o
3 3 2 0 0 2724.68 2653.59 30.97 o
3 3 2 0 1 6.02 5.92 1.06 o
3 3 2 1 1 0.26 0.34 0.66 <
3 3 3 -1 1 0.01 1.01 0.63 <
3 3 3 0 0 2624.69 2584.51 26.98 o
3 3 3 0 1 9.79 8.72 0.89 o
3 3 3 1 1 0.01 0.76 0.58 <
3 3 4 -1 1 0.26 0.80 0.51 <
3 3 4 0 0 179.21 183.71 5.81 o
3 3 4 0 1 9.16 9.10 0.98 o
3 3 4 1 1 4.09 2.23 0.56 o
3 3 5 -1 1 0.13 0.28 0.84 <
3 3 5 0 0 790.74 781.18 17.90 o
3 3 5 0 1 111.19 107.21 4.72 o
3 3 5 1 1 0.14 -0.49 0.69 <
3 3 6 -1 1 1.88 1.00 1.17 <
3 3 6 0 0 4461.74 4627.23 61.99 o
3 3 6 0 1 1.69 -0.86 1.44 <
3 3 6 1 1 0.15 0.99 1.12 <
3 3 7 -1 1 0.01 0.83 1.22 <
3 3 7 0 0 1325.68 1404.78 31.29 o
3 3 7 0 1 18.67 19.84 2.65 o
3 3 7 1 1 0.00 -1.00 1.17 <
3 3 8 -1 1 0.44 -1.79 1.84 <
3 3 8 0 0 230.65 253.75 16.41 o
3 3 8 0 1 5.87 4.48 1.51 <
3 3 8 1 1 1.38 -0.88 1.73 <
3 3 9 -1 1 0.06 -0.40 2.22 <
3 3 9 0 0 2.65 0.41 3.04 <
3 3 9 0 1 29.00 28.56 4.43 o
3 3 9 1 1 0.14 1.04 2.32 <
3 3 10 -1 1 0.33 -4.79 3.57 <
3 3 10 0 1 0.38 -17.34 8.52 <
4 0 0 -1 1 77.80 66.46 3.02 o
4 0 0 0 0 393.47 474.83 8.85 o
4 0 0 0 1 149.17 152.01 3.26 o
4 0 0 1 -1 23.00 22.38 2.02 o
4 0 0 1 0 0.63 -0.17 0.49 <
4 0 0 1 1 36.08 33.96 1.74 o
4 0 1 0 1 121.40 124.93 2.31 o
4 0 1 1 0 161.47 150.09 2.70 o
4 0 1 1 1 0.55 0.95 0.31 o
4 0 2 -1 1 0.12 -0.42 0.37 <
4 0 2 0 0 1362.89 1425.28 12.74 o
4 0 2 0 1 0.02 0.06 0.35 <
4 0 2 1 -1 8.09 8.93 1.03 o
4 0 2 1 0 60.26 54.21 1.73 o
4 0 2 1 1 12.85 13.44 0.88 o
4 0 3 0 1 85.43 91.24 2.84 o
4 0 3 1 0 35.18 30.76 1.68 o
4 0 3 1 1 0.15 0.71 0.45 <
4 0 4 -1 1 26.69 20.22 2.17 o
4 0 4 0 0 2871.45 2904.43 27.34 o
4 0 4 0 1 29.62 28.10 1.80 o
4 0 4 1 -1 23.58 23.82 2.29 o
4 0 4 1 0 11.56 10.59 1.12 o
4 0 4 1 1 18.76 18.99 1.46 o
4 0 5 0 1 54.11 51.77 3.23 o
4 0 5 1 0 150.14 151.63 5.09 o
4 0 5 1 1 0.29 -0.90 0.81 <
4 0 6 -1 1 3.21 2.27 1.12 <
4 0 6 0 0 5891.96 5909.52 55.50 o
4 0 6 0 1 21.68 17.82 2.04 o
4 0 6 1 -1 0.13 -6.42 1.90 <
4 0 6 1 0 2.35 2.27 0.99 <
4 0 6 1 1 6.50 6.55 1.18 o
4 0 7 0 1 22.29 22.19 2.88 o
4 0 7 1 0 11.21 10.83 1.94 o
4 0 7 1 1 0.28 -1.22 1.21 <
4 0 8 -1 1 3.32 0.31 2.36 <
4 0 8 0 0 5812.63 5606.35 79.97 o
4 0 8 0 1 0.51 -3.42 2.20 <
4 0 8 1 -1 19.22 15.92 3.82 o
4 0 8 1 0 29.81 24.24 3.06 o
4 0 8 1 1 6.42 -3.17 2.37 <
4 0 9 0 1 30.78 31.61 4.36 o
4 0 9 1 0 59.04 56.94 5.08 o
4 0 9 1 1 0.01 -4.20 2.24 <
4 0 10 -1 1 3.30 4.78 4.65 <
4 0 10 0 0 4423.94 4104.68 98.82 o
4 0 10 0 1 22.24 13.40 3.26 o
4 0 10 1 -1 0.34 -0.71 3.09 <
4 0 10 1 0 0.05 -4.77 3.73 <
4 0 10 1 1 2.58 3.21 3.98 <
4 1 0 -1 -1 12.24 7.01 0.87 o
4 1 0 -1 0 274.85 298.64 4.93 o
4 1 0 -1 1 13.17 14.12 1.53 o
4 1 0 0 -1 1.39 0.69 0.53 <
4 1 0 0 0 13315.30 13389.60 45.46 o
4 1 0 0 1 123.21 124.42 3.52 o
4 1 0 1 -1 1.72 0.40 0.80 <
4 1 0 1 0 286.29 300.13 5.51 o
4 1 0 1 1 14.78 8.93 0.97 o
4 1 1 -1 -1 0.06 -0.29 0.33 <
4 1 1 -1 0 35.88 39.11 1.31 o
4 1 1 -1 1 0.37 -0.03 0.33 <
4 1 1 0 -1 9.84 9.24 0.69 o
4 1 1 0 0 142.67 165.81 2.84 o
4 1 1 0 1 23.50 21.74 1.03 o
4 1 1 1 -1 0.02 0.16 0.35 <
4 1 1 1 0 20.75 20.32 1.02 o
4 1 1 1 1 0.52 0.41 0.39 <
4 1 2 -1 -1 18.33 14.75 0.96 o
4 1 2 -1 0 128.35 126.03 2.68 o
4 1 2 -1 1 5.17 6.71 0.66 o
4 1 2 0 -1 8.85 6.43 0.65 o
4 1 2 0 0 469.23 419.04 5.21 o
4 1 2 0 1 0.02 0.21 0.37 <
4 1 2 1 -1 3.08 2.52 0.48 o
4 1 2 1 0 98.78 99.75 2.53 o
4 1 2 1 1 0.66 1.80 0.47 o
4 1 3 -1 -1 0.85 -0.07 0.47 <
4 1 3 -1 0 15.80 14.47 1.14 o
4 1 3 -1 1 1.41 0.52 0.44 <
4 1 3 0 -1 27.21 26.63 1.55 o
4 1 3 0 0 2735.31 2711.71 16.35 o
4 1 3 0 1 1.06 1.33 0.45 <
4 1 3 1 -1 0.60 0.62 0.50 <
4 1 3 1 0 0.12 -0.19 0.57 <
4 1 3 1 1 1.43 0.82 0.43 <
4 1 4 -1 -1 6.55 2.22 0.65 o
4 1 4 -1 0 179.15 184.97 4.56 o
4 1 4 -1 1 7.73 3.55 0.72 o
4 1 4 0 -1 12.85 11.06 1.07 o
4 1 4 0 0 6288.80 6532.37 30.34 o
4 1 4 0 1 79.41 80.73 3.13 o
4 1 4 1 -1 0.23 -0.39 0.64 <
4 1 4 1 0 135.98 140.10 3.93 o
4 1 4 1 1 7.76 3.64 0.65 o
4 1 5 -1 -1 1.28 -0.47 0.87 <
4 1 5 -1 0 83.09 85.98 3.98 o
4 1 5 -1 1 0.03 0.21 0.76 <
4 1 5 0 -1 41.46 37.25 2.52 o
4 1 5 0 0 1699.75 1707.59 17.45 o
4 1 5 0 1 31.88 28.25 2.21 o
4 1 5 1 -1 0.52 0.80 0.91 <
4 1 5 1 0 33.08 32.02 2.18 o
4 1 5 1 1 2.44 1.71 0.77 <
4 1 6 -1 -1 8.53 8.68 1.37 o
4 1 6 -1 0 81.69 77.30 4.59 o
4 1 6 -1 1 2.43 1.86 1.11 <
4 1 6 0 -1 3.24 4.18 0.91 o
4 1 6 0 0 647.62 669.02 12.26 o
4 1 6 0 1 1.51 1.05 1.10 <
4 1 6 1 -1 0.44 -0.50 0.90 <
4 1 6 1 0 27.16 28.54 2.42 o
4 1 6 1 1 0.02 0.27 1.01 <
4 1 7 -1 -1 1.82 0.85 1.20 <
4 1 7 -1 0 15.29 12.57 2.34 o
4 1 7 -1 1 0.44 0.38 1.33 <
4 1 7 0 -1 14.70 10.97 2.07 o
4 1 7 0 0 1345.41 1366.39 23.60 o
4 1 7 0 1 0.58 0.31 1.74 <
4 1 7 1 -1 0.41 1.53 1.41 <
4 1 7 1 0 2.94 2.58 1.13 <
4 1 7 1 1 1.91 3.08 1.32 <
4 1 8 -1 -1 2.28 -3.05 1.92 <
4 1 8 -1 0 92.25 88.62 6.86 o
4 1 8 -1 1 2.91 0.53 1.86 <
4 1 8 0 -1 26.20 25.15 2.95 o
4 1 8 0 0 1686.59 1667.90 30.30 o
4 1 8 0 1 37.25 31.53 3.84 o
4 1 8 1 -1 0.02 -0.54 1.45 <
4 1 8 1 0 35.99 35.24 3.49 o
4 1 8 1 1 2.48 -0.50 1.65 <
4 1 9 -1 -1 2.13 -2.10 2.14 <
4 1 9 -1 0 17.86 17.50 3.40 o
4 1 9 -1 1 0.37 -2.98 2.13 <
4 1 9 0 -1 3.11 0.70 1.83 <
4 1 9 0 0 24.69 26.81 3.75 o
4 1 9 0 1 1.82 1.02 1.61 <
4 1 9 1 -1 0.21 0.62 1.62 <
4 1 9 1 0 15.04 12.38 2.26 o
4 1 9 1 1 0.95 -0.17 1.93 <
4 1 10 -1 -1 4.00 -2.93 3.56 <
4 1 10 -1 0 44.37 30.63 6.15 o
4 1 10 -1 1 0.76 -1.21 3.36 <
4 1 10 0 -1 5.93 2.14 2.33 <
4 1 10 0 0 540.66 551.21 22.31 o
4 1 10 0 1 1.64 0.88 2.54 <
4 1 10 1 -1 0.24 -2.57 3.95 <
4 1 10 1 0 11.14 6.76 3.76 <
4 1 10 1 1 0.01 -1.06 2.27 <
4 2 0 -1 -1 4.45 4.75 0.76 o
4 2 0 -1 0 0.08 1.03 0.53 <
4 2 0 -1 1 5.39 4.82 0.71 o
4 2 0 0 -1 33.36 32.02 1.95 o
4 2 0 0 0 11735.90 11863.50 45.60 o
4 2 0 0 1 158.58 150.93 4.01 o
4 2 0 1 -1 0.98 -0.43 0.66 <
4 2 0 1 0 103.95 129.58 4.36 o
4 2 0 1 1 8.33 8.52 0.99 o
4 2 1 -1 -1 6.41 5.12 0.56 o
4 2 1 -1 0 1.38 0.67 0.34 <
4 2 1 -1 1 14.70 13.91 0.88 o
4 2 1 0 -1 130.87 130.71 2.82 o
4 2 1 0 0 16.65 14.29 0.94 o
4 2 1 0 1 6.94 6.18 0.67 o
4 2 1 1 -1 12.89 14.62 1.04 o
4 2 1 1 0 205.72 209.18 3.92 o
4 2 1 1 1 13.55 13.39 0.98 o
4 2 2 -1 -1 24.79 19.18 1.13 o
4 2 2 -1 0 0.00 -0.43 0.42 <
4 2 2 -1 1 0.07 -0.04 0.46 <
4 2 2 0 -1 0.16 0.28 0.46 <
4 2 2 0 0 4918.56 5045.08 22.58 o
4 2 2 0 1 31.97 29.08 1.64 o
4 2 2 1 -1 2.27 3.11 0.54 o
4 2 2 1 0 43.17 39.68 1.85 o
4 2 2 1 1 6.04 6.69 0.80 o
4 2 3 -1 -1 2.67 2.35 0.54 o
4 2 3 -1 0 0.69 0.34 0.53 <
4 2 3 -1 1 5.85 7.17 0.92 o
4 2 3 0 -1 84.68 91.59 3.03 o
4 2 3 0 0 56.76 58.32 2.60 o
4 2 3 0 1 22.29 23.19 1.60 o
4 2 3 1 -1 0.13 0.28 0.55 <
4 2 3 1 0 4.02 4.52 0.76 o
4 2 3 1 1 1.85 3.25 0.65 o
4 2 4 -1 -1 2.50 1.59 0.64 <
4 2 4 -1 0 0.15 0.78 0.55 <
4 2 4 -1 1 3.09 2.35 0.71 o
4 2 4 0 -1 14.01 13.24 1.23 o
4 2 4 0 0 6562.58 6736.49 27.93 o
4 2 4 0 1 86.94 85.22 2.87 o
4 2 4 1 -1 0.26 -0.17 0.59 <
4 2 4 1 0 16.97 20.64 1.59 o
4 2 4 1 1 4.69 4.13 0.74 o
4 2 5 -1 -1 4.54 4.38 0.97 o
4 2 5 -1 0 0.62 0.77 0.90 <
4 2 5 -1 1 10.73 10.28 1.30 o
4 2 5 0 -1 81.35 80.60 3.49 o
4 2 5 0 0 1.05 3.32 0.88 o
4 2 5 0 1 0.56 0.64 0.79 <
4 2 5 1 -1 21.18 19.75 1.89 o
4 2 5 1 0 269.68 282.76 6.86 o
4 2 5 1 1 14.09 12.26 1.53 o
4 2 6 -1 -1 11.98 10.64 1.53 o
4 2 6 -1 0 0.34 -0.10 1.20 <
4 2 6 -1 1 0.02 -0.51 0.97 <
4 2 6 0 -1 2.73 1.82 0.92 <
4 2 6 0 0 2063.31 2102.55 24.11 o
4 2 6 0 1 19.31 18.12 2.30 o
4 2 6 1 -1 0.65 3.53 1.17 o
4 2 6 1 0 0.55 -1.21 1.05 <
4 2 6 1 1 3.08 3.13 1.26 <
4 2 7 -1 -1 0.66 2.43 1.55 <
4 2 7 -1 0 0.01 2.07 1.22 <
4 2 7 -1 1 0.78 0.81 1.25 <
4 2 7 0 -1 20.38 18.13 2.35 o
4 2 7 0 0 24.87 24.53 2.57 o
4 2 7 0 1 16.11 14.69 2.24 o
4 2 7 1 -1 0.59 -2.32 1.44 <
4 2 7 1 0 0.08 1.05 1.24 <
4 2 7 1 1 0.14 0.11 1.30 <
4 2 8 -1 -1 0.65 -1.16 1.70 <
4 2 8 -1 0 0.37 -0.08 2.02 <
4 2 8 -1 1 1.25 -1.00 1.66 <
4 2 8 0 -1 3.46 -0.72 1.52 <
4 2 8 0 0 2323.80 2345.68 33.41 o
4 2 8 0 1 26.93 25.33 3.44 o
4 2 8 1 -1 0.00 -5.24 1.84 <
4 2 8 1 0 2.97 0.33 1.22 <
4 2 8 1 1 2.28 2.15 1.44 <
4 2 9 -1 -1 2.69 1.92 2.10 <
4 2 9 -1 0 2.01 -0.61 1.89 <
4 2 9 -1 1 6.48 6.48 2.32 <
4 2 9 0 -1 57.64 57.96 5.14 o
4 2 9 0 0 6.48 6.26 2.01 o
4 2 9 0 1 1.08 0.89 2.27 <
4 2 9 1 -1 7.56 11.37 2.06 o
4 2 9 1 0 86.00 82.04 6.22 o
4 2 9 1 1 6.56 2.89 1.65 <
4 2 10 -1 -1 7.69 7.32 2.74 <
4 2 10 -1 0 0.11 -1.89 3.90 <
4 2 10 -1 1 0.02 -4.62 2.88 <
4 2 10 0 -1 1.83 1.52 2.27 <
4 2 10 0 0 854.73 807.20 35.33 o
4 2 10 0 1 15.14 5.41 2.81 <
4 2 10 1 -1 0.15 10.22 5.85 <
4 2 10 1 0 7.57 -1.94 7.91 <
4 2 10 1 1 0.75 1.93 2.06 <
4 3 0 -1 -1 1.68 1.63 0.72 <
4 3 0 -1 0 4.44 4.75 0.88 o
4 3 0 -1 1 7.23 6.53 1.01 o
4 3 0 0 -1 25.95 25.48 1.67 o
4 3 0 0 0 195.89 191.92 4.96 o
4 3 0 0 1 148.77 151.57 4.77 o
4 3 0 1 -1 8.43 6.34 0.81 o
4 3 0 1 0 132.19 122.05 4.53 o
4 3 0 1 1 0.00 3.00 1.12 <
4 3 1 -1 -1 10.30 9.36 0.85 o
4 3 1 -1 0 19.50 19.89 1.34 o
4 3 1 -1 1 8.88 5.72 0.71 o
4 3 1 0 -1 131.07 131.85 3.12 o
4 3 1 0 0 441.52 406.67 6.25 o
4 3 1 0 1 31.96 32.31 1.82 o
4 3 1 1 -1 5.35 6.23 0.72 o
4 3 1 1 0 87.37 101.16 3.31 o
4 3 1 1 1 0.05 0.41 0.53 <
4 3 2 -1 -1 0.19 1.54 0.59 <
4 3 2 -1 0 71.96 71.55 2.97 o
4 3 2 -1 1 13.02 8.50 1.20 o
4 3 2 0 -1 143.24 139.92 3.79 o
4 3 2 0 0 165.48 161.58 4.85 o
4 3 2 0 1 26.00 29.34 2.00 o
4 3 2 1 -1 0.03 -0.82 0.61 <
4 3 2 1 0 15.72 16.02 1.55 o
4 3 2 1 1 0.71 2.90 0.78 o
4 3 3 -1 -1 4.21 4.85 0.78 o
4 3 3 -1 0 19.26 19.34 1.39 o
4 3 3 -1 1 4.22 1.88 0.60 o
4 3 3 0 -1 1.53 2.27 0.60 o
4 3 3 0 0 3631.53 3752.01 24.36 o
4 3 3 0 1 141.25 147.29 4.00 o
4 3 3 1 -1 4.29 3.11 0.64 o
4 3 3 1 0 70.25 75.74 2.78 o
4 3 3 1 1 14.63 15.26 1.57 o
4 3 4 -1 -1 0.34 -1.51 0.68 <
4 3 4 -1 0 0.03 0.07 0.52 <
4 3 4 -1 1 6.41 5.54 0.77 o
4 3 4 0 -1 8.35 8.67 1.08 o
4 3 4 0 0 157.79 154.84 4.19 o
4 3 4 0 1 49.45 50.03 2.32 o
4 3 4 1 -1 4.00 2.90 0.81 o
4 3 4 1 0 58.58 53.05 2.66 o
4 3 4 1 1 0.31 1.15 0.68 <
4 3 5 -1 -1 6.30 5.83 1.23 o
4 3 5 -1 0 8.65 11.57 1.51 o
4 3 5 -1 1 6.09 3.44 0.89 o
4 3 5 0 -1 222.75 221.58 5.95 o
4 3 5 0 0 27.48 29.04 2.16 o
4 3 5 0 1 0.05 0.76 0.82 <
4 3 5 1 -1 2.07 2.91 1.05 <
4 3 5 1 0 57.49 66.24 3.63 o
4 3 5 1 1 4.14 1.19 0.65 <
4 3 6 -1 -1 0.72 0.65 1.07 <
4 3 6 -1 0 73.05 69.13 4.55 o
4 3 6 -1 1 3.52 3.12 1.23 <
4 3 6 0 -1 38.37 39.54 3.50 o
4 3 6 0 0 53.67 52.95 4.04 o
4 3 6 0 1 0.08 0.22 0.92 <
4 3 6 1 -1 0.70 -0.45 0.97 <
4 3 6 1 0 0.63 0.90 0.94 <
4 3 6 1 1 0.00 -0.92 0.97 <
4 3 7 -1 -1 2.59 2.84 1.19 <
4 3 7 -1 0 8.03 8.88 1.81 o
4 3 7 -1 1 1.34 0.77 1.65 <
4 3 7 0 -1 7.44 4.92 1.20 o
4 3 7 0 0 1414.38 1432.34 21.01 o
4 3 7 0 1 79.10 84.72 4.87 o
4 3 7 1 -1 2.98 2.94 1.57 <
4 3 7 1 0 17.69 19.40 2.51 o
4 3 7 1 1 10.23 7.17 1.56 o
4 3 8 -1 -1 0.01 -1.33 1.68 <
4 3 8 -1 0 4.89 3.52 1.80 <
4 3 8 -1 1 5.58 2.67 1.84 <
4 3 8 0 -1 0.05 -0.26 1.56 <
4 3 8 0 0 103.97 94.49 6.18 o
4 3 8 0 1 2.38 0.25 1.43 <
4 3 8 1 -1 0.60 -4.72 2.06 <
4 3 8 1 0 12.85 8.55 1.84 o
4 3 8 1 1 1.08 1.71 1.54 <
4 3 9 -1 -1 1.14 2.71 1.70 <
4 3 9 -1 0 6.79 3.03 1.73 <
4 3 9 -1 1 2.90 -1.02 1.79 <
4 3 9 0 -1 65.40 61.85 6.19 o
4 3 9 0 0 347.36 357.79 14.92 o
4 3 9 0 1 3.57 2.48 2.43 <
4 3 9 1 -1 0.10 -5.38 2.77 <
4 3 9 1 0 55.88 61.01 6.30 o
4 3 9 1 1 1.21 -1.58 2.43 <
4 3 10 -1 -1 0.54 2.86 6.93 <
4 3 10 -1 0 52.95 58.06 16.16 o
4 4 0 -1 1 1.40 -0.11 0.60 <
4 4 0 0 0 24509.20 23183.80 133.17 o
4 4 0 0 1 72.53 64.40 3.33 o
4 4 0 1 1 0.02 4.04 1.08 o
4 4 1 -1 1 0.23 -0.26 0.59 <
4 4 1 0 0 240.03 247.45 7.56 o
4 4 1 0 1 29.72 31.77 1.80 o
4 4 1 1 1 0.22 -0.45 0.64 <
4 4 2 -1 1 8.59 3.87 0.90 o
4 4 2 0 0 3251.73 3198.38 30.09 o
4 4 2 0 1 19.15 19.96 1.59 o
4 4 2 1 1 6.84 1.89 0.70 <
4 4 3 -1 1 0.00 -1.02 0.81 <
4 4 3 0 0 90.12 97.58 5.44 o
4 4 3 0 1 37.36 34.15 2.36 o
4 4 3 1 1 2.55 -0.23 0.91 <
4 4 4 -1 1 0.58 -0.35 0.63 <
4 4 4 0 0 8019.41 7773.82 60.14 o
4 4 4 0 1 5.88 4.55 1.02 o
4 4 4 1 1 0.20 0.77 0.96 <
4 4 5 -1 1 0.35 -0.19 0.73 <
4 4 5 0 0 223.56 227.88 10.08 o
4 4 5 0 1 6.67 5.78 1.32 o
4 4 5 1 1 0.16 0.38 1.03 <
4 4 6 -1 1 5.23 1.80 0.95 <
4 4 6 0 0 79.83 68.03 5.13 o
4 4 6 0 1 5.71 3.33 0.98 o
4 4 6 1 1 1.69 2.39 1.17 <
4 4 7 -1 1 0.02 0.84 1.50 <
4 4 7 0 0 26.71 32.98 5.09 o
4 4 7 0 1 32.58 33.59 3.66 o
4 4 7 1 1 2.24 3.58 2.05 <
4 4 8 -1 1 0.07 -2.62 1.85 <
4 4 8 0 0 343.73 329.80 20.02 o
4 4 8 0 1 11.22 12.79 3.08 o
4 4 8 1 1 0.78 -3.92 2.21 <
4 4 9 -1 1 0.14 1.62 1.96 <
4 4 9 0 0 129.34 135.48 13.69 o
4 4 9 0 1 0.48 -3.08 2.88 <
4 4 9 1 1 0.12 0.28 4.01 <
5 0 0 0 1 369.78 381.20 6.02 o
5 0 0 1 0 35.10 36.25 2.07 o
5 0 0 1 1 0.30 -0.95 0.62 <
5 0 1 -1 1 19.87 20.08 1.36 o
5 0 1 0 0 21.44 15.76 1.32 o
5 0 1 0 1 36.99 33.53 1.32 o
5 0 1 1 -1 14.82 16.20 1.51 o
5 0 1 1 0 21.12 18.09 1.09 o
5 0 1 1 1 16.65 16.66 0.99 o
5 0 2 0 1 7.07 6.33 0.63 o
5 0 2 1 0 73.23 69.96 2.22 o
5 0 2 1 1 2.65 0.98 0.39 <
5 0 3 -1 1 31.64 25.45 2.17 o
5 0 3 0 0 2944.25 2932.14 23.38 o
5 0 3 0 1 45.49 44.19 1.98 o
5 0 3 1 -1 19.31 22.95 2.21 o
5 0 3 1 0 4.94 5.80 0.76 o
5 0 3 1 1 16.37 14.58 1.16 o
5 0 4 0 1 197.28 202.86 4.74 o
5 0 4 1 0 34.38 35.96 2.36 o
5 0 4 1 1 0.13 -1.23 0.66 <
5 0 5 -1 1 3.96 3.96 1.48 <
5 0 5 0 0 485.75 504.55 13.43 o
5 0 5 0 1 15.85 15.24 1.62 o
5 0 5 1 -1 5.55 5.48 1.48 o
5 0 5 1 0 39.29 33.99 2.48 o
5 0 5 1 1 7.30 11.71 1.44 o
5 0 6 0 1 9.94 8.21 1.31 o
5 0 6 1 0 19.76 18.39 1.93 o
5 0 6 1 1 1.20 0.47 0.74 <
5 0 7 -1 1 19.57 15.37 2.64 o
5 0 7 0 0 1260.18 1332.37 25.78 o
5 0 7 0 1 15.35 13.72 1.98 o
5 0 7 1 -1 9.50 7.38 2.24 o
5 0 7 1 0 0.45 0.39 1.67 <
5 0 7 1 1 7.87 4.88 1.32 o
5 0 8 0 1 67.40 73.42 5.52 o
5 0 8 1 0 26.22 29.97 3.59 o
5 0 8 1 1 0.08 1.20 1.21 <
5 0 9 -1 1 1.20 4.54 2.99 <
5 0 9 0 0 75.87 67.01 7.64 o
5 0 9 0 1 17.32 14.23 2.53 o
5 0 9 1 -1 2.96 9.11 4.11 <
5 0 9 1 0 0.20 -2.92 1.72 <
5 0 9 1 1 3.29 6.50 2.03 o
5 0 10 0 1 5.83 -4.34 2.86 <
5 0 10 1 0 9.53 10.18 3.34 o
5 0 10 1 1 0.18 -2.38 2.57 <
5 1 0 -1 -1 16.65 22.90 1.68 o
5 1 0 -1 0 557.22 566.09 7.71 o
5 1 0 -1 1 17.57 35.37 2.76 o
5 1 0 0 -1 280.95 302.74 6.17 o
5 1 0 0 0 10019.80 9789.23 40.55 o
5 1 0 0 1 1.31 1.15 0.65 <
5 1 0 1 -1 0.12 4.42 1.33 o
5 1 0 1 0 0.05 0.27 0.57 <
5 1 0 1 1 2.45 4.69 0.80 o
5 1 1 -1 -1 1.27 0.59 0.36 <
5 1 1 -1 0 1.21 0.47 0.35 <
5 1 1 -1 1 11.69 6.84 0.63 o
5 1 1 0 -1 33.01 30.30 1.40 o
5 1 1 0 0 2712.52 2683.19 13.81 o
5 1 1 0 1 0.00 -0.44 0.41 <
5 1 1 1 -1 0.00 -0.32 0.46 <
5 1 1 1 0 66.55 70.96 2.25 o
5 1 1 1 1 1.02 -0.74 0.43 <
5 1 2 -1 -1 0.02 0.16 0.36 <
5 1 2 -1 0 1.70 0.34 0.34 <
5 1 2 -1 1 1.32 1.29 0.47 <
5 1 2 0 -1 23.31 22.62 1.26 o
5 1 2 0 0 4853.52 4799.35 20.37 o
5 1 2 0 1 0.41 1.04 0.50 <
5 1 2 1 -1 4.56 3.32 0.59 o
5 1 2 1 0 1.15 0.46 0.53 <
5 1 2 1 1 14.69 16.52 1.19 o
5 1 3 -1 -1 0.68 -0.47 0.54 <
5 1 3 -1 0 14.69 13.23 1.08 o
5 1 3 -1 1 7.07 2.16 0.57 o
5 1 3 0 -1 44.42 41.03 2.07 o
5 1 3 0 0 65.76 67.05 2.48 o
5 1 3 0 1 10.53 10.01 1.02 o
5 1 3 1 -1 1.49 1.55 0.65 <
5 1 3 1 0 80.69 83.20 2.96 o
5 1 3 1 1 2.54 0.51 0.56 <
5 1 4 -1 -1 5.12 6.86 0.94 o
5 1 4 -1 0 271.98 268.45 5.47 o
5 1 4 -1 1 7.63 3.90 0.66 o
5 1 4 0 -1 96.25 97.81 3.71 o
5 1 4 0 0 3245.78 3220.59 20.87 o
5 1 4 0 1 0.35 0.18 0.61 <
5 1 4 1 -1 0.23 -0.28 0.78 <
5 1 4 1 0 2.29 2.48 0.79 o
5 1 4 1 1 3.05 4.46 0.85 o
5 1 5 -1 -1 0.75 0.26 0.83 <
5 1 5 -1 0 0.08 -1.18 0.78 <
5 1 5 -1 1 6.57 6.03 1.10 o
5 1 5 0 -1 8.19 8.73 1.21 o
5 1 5 0 0 3464.73 3515.79 24.34 o
5 1 5 0 1 3.92 3.16 0.93 o
5 1 5 1 -1 0.93 -0.43 0.89 <
5 1 5 1 0 21.95 25.92 2.03 o
5 1 5 1 1 0.35 1.12 0.90 <
5 1 6 -1 -1 1.55 1.74 0.83 <
5 1 6 -1 0 12.85 11.74 1.55 o
5 1 6 -1 1 1.95 -0.18 1.14 <
5 1 6 0 -1 1.29 -1.18 0.94 <
5 1 6 0 0 413.15 439.58 9.56 o
5 1 6 0 1 0.01 0.09 0.99 <
5 1 6 1 -1 1.95 2.04 0.90 <
5 1 6 1 0 0.34 0.47 0.94 <
5 1 6 1 1 4.41 3.96 1.21 o
5 1 7 -1 -1 0.30 -0.21 1.52 <
5 1 7 -1 0 5.77 5.04 1.47 o
5 1 7 -1 1 3.50 2.45 1.42 <
5 1 7 0 -1 29.07 24.55 2.99 o
5 1 7 0 0 19.92 22.15 2.99 o
5 1 7 0 1 3.68 2.73 1.37 <
5 1 7 1 -1 2.53 2.57 1.27 <
5 1 7 1 0 54.66 58.23 4.62 o
5 1 7 1 1 0.58 -2.50 1.50 <
5 1 8 -1 -1 0.22 -2.50 1.68 <
5 1 8 -1 0 71.77 75.36 5.31 o
5 1 8 -1 1 1.30 -3.38 1.52 <
5 1 8 0 -1 7.40 7.10 1.89 o
5 1 8 0 0 132.05 134.15 7.11 o
5 1 8 0 1 0.07 -3.68 2.10 <
5 1 8 1 -1 0.46 2.31 1.71 <
5 1 8 1 0 6.02 5.13 1.77 <
5 1 8 1 1 3.08 1.47 2.01 <
5 1 9 -1 -1 0.31 -0.01 1.73 <
5 1 9 -1 0 3.85 0.52 1.93 <
5 1 9 -1 1 2.02 1.06 1.86 <
5 1 9 0 -1 0.93 -1.10 1.81 <
5 1 9 0 0 681.13 653.83 17.47 o
5 1 9 0 1 0.00 -0.08 1.71 <
5 1 9 1 -1 1.57 -4.21 2.64 <
5 1 9 1 0 3.03 -0.23 2.41 <
5 1 9 1 1 1.36 0.42 2.05 <
5 1 10 -1 -1 2.55 -0.90 3.39 <
5 1 10 -1 0 10.73 0.54 2.66 <
5 1 10 -1 1 1.80 7.46 3.41 <
5 1 10 0 -1 3.80 4.40 4.32 <
5 1 10 0 0 31.37 29.45 5.48 o
5 1 10 0 1 0.61 4.29 3.36 <
5 1 10 1 0 0.02 -0.79 4.11 <
5 1 10 1 1 0.95 2.57 4.06 <
5 2 0 -1 -1 0.05 -0.75 0.58 <
5 2 0 -1 0 126.20 121.97 4.11 o
5 2 0 -1 1 2.78 7.70 1.41 o
5 2 0 0 -1 0.45 -0.08 0.59 <
5 2 0 0 0 389.04 392.53 7.35 o
5 2 0 0 1 409.70 431.74 8.07 o
5 2 0 1 -1 3.08 1.22 0.67 <
5 2 0 1 0 554.89 563.46 8.60 o
5 2 0 1 1 16.74 12.78 1.51 o
5 2 1 -1 -1 2.37 1.73 0.41 o
5 2 1 -1 0 25.77 25.06 1.21 o
5 2 1 -1 1 4.81 4.36 0.58 o
5 2 1 0 -1 62.40 63.97 2.07 o
5 2 1 0 0 1145.60 1150.96 9.24 o
5 2 1 0 1 44.32 42.95 1.77 o
5 2 1 1 -1 0.25 -0.08 0.52 <
5 2 1 1 0 42.36 35.14 1.52 o
5 2 1 1 1 1.00 1.23 0.44 <
5 2 2 -1 -1 0.19 1.00 0.44 <
5 2 2 -1 0 152.51 154.51 3.51 o
5 2 2 -1 1 15.91 10.22 0.91 o
5 2 2 0 -1 18.18 18.08 1.19 o
5 2 2 0 0 1789.55 1741.28 12.93 o
5 2 2 0 1 1.08 1.49 0.56 <
5 2 2 1 -1 9.23 4.04 0.64 o
5 2 2 1 0 16.12 15.97 1.06 o
5 2 2 1 1 0.28 0.78 0.47 <
5 2 3 -1 -1 0.55 0.26 0.54 <
5 2 3 -1 0 1.57 3.26 0.66 o
5 2 3 -1 1 0.14 -0.71 0.53 <
5 2 3 0 -1 15.08 16.03 1.32 o
5 2 3 0 0 723.00 742.40 8.61 o
5 2 3 0 1 1.25 0.99 0.63 <
5 2 3 1 -1 1.82 1.28 0.69 <
5 2 3 1 0 27.67 22.53 1.59 o
5 2 3 1 1 0.87 -0.41 0.55 <
5 2 4 -1 -1 0.01 -0.22 0.71 <
5 2 4 -1 0 32.29 31.35 2.05 o
5 2 4 -1 1 0.08 0.75 0.67 <
5 2 4 0 -1 0.22 0.89 0.66 <
5 2 4 0 0 71.06 72.61 3.00 o
5 2 4 0 1 149.44 153.35 4.34 o
5 2 4 1 -1 0.58 -0.33 0.72 <
5 2 4 1 0 344.41 358.52 7.08 o
5 2 4 1 1 6.79 4.83 1.01 o
5 2 5 -1 -1 6.82 5.96 1.06 o
5 2 5 -1 0 32.24 32.39 2.27 o
5 2 5 -1 1 6.81 6.34 1.19 o
5 2 5 0 -1 66.50 69.19 3.57 o
5 2 5 0 0 768.08 792.73 11.89 o
5 2 5 0 1 63.40 62.67 3.25 o
5 2 5 1 -1 0.19 -0.28 0.95 <
5 2 5 1 0 25.89 21.81 1.95 o
5 2 5 1 1 4.59 3.52 1.08 o
5 2 6 -1 -1 0.01 0.58 0.86 <
5 2 6 -1 0 21.21 22.59 2.26 o
5 2 6 -1 1 2.07 -2.05 0.97 <
5 2 6 0 -1 10.12 11.61 1.73 o
5 2 6 0 0 11.24 11.19 1.57 o
5 2 6 0 1 38.33 36.41 3.05 o
5 2 6 1 -1 9.55 6.22 1.44 o
5 2 6 1 0 4.11 4.99 1.40 o
5 2 6 1 1 0.21 -0.10 1.06 <
5 2 7 -1 -1 1.24 -2.68 1.76 <
5 2 7 -1 0 0.84 1.09 1.69 <
5 2 7 -1 1 0.02 -2.03 1.24 <
5 2 7 0 -1 2.29 0.87 1.60 <
5 2 7 0 0 326.00 335.27 11.05 o
5 2 7 0 1 1.91 1.66 1.25 <
5 2 7 1 -1 1.93 1.11 1.96 <
5 2 7 1 0 19.41 14.21 2.29 o
5 2 7 1 1 1.85 0.06 1.42 <
5 2 8 -1 -1 0.00 -0.92 1.67 <
5 2 8 -1 0 0.02 -3.90 1.55 <
5 2 8 -1 1 0.73 -2.73 1.69 <
5 2 8 0 -1 0.01 0.87 1.43 <
5 2 8 0 0 1098.03 1145.65 21.82 o
5 2 8 0 1 13.43 12.51 2.06 o
5 2 8 1 -1 0.00 -2.40 1.83 <
5 2 8 1 0 132.07 137.66 8.13 o
5 2 8 1 1 0.90 -0.08 1.54 <
5 2 9 -1 -1 4.74 2.63 2.11 <
5 2 9 -1 0 6.64 4.90 2.00 <
5 2 9 -1 1 3.26 2.91 2.29 <
5 2 9 0 -1 40.88 45.42 6.14 o
5 2 9 0 0 360.92 385.39 14.69 o
5 2 9 0 1 45.48 44.59 4.99 o
5 2 9 1 -1 0.69 -7.61 4.09 <
5 2 9 1 0 6.07 9.10 4.24 <
5 2 9 1 1 3.52 6.57 2.20 <
5 2 10 -1 -1 0.02 -2.25 3.75 <
5 2 10 -1 0 3.19 2.37 1.38 <
5 2 10 -1 1 0.36 7.35 4.96 <
5 2 10 0 -1 2.09 -2.67 4.87 <
5 2 10 0 0 147.79 149.09 27.27 o
5 2 10 0 1 36.19 36.69 13.44 <
5 3 0 -1 -1 102.90 104.20 3.89 o
5 3 0 -1 0 116.71 112.88 3.63 o
5 3 0 -1 1 2.42 3.36 0.66 o
5 3 0 0 -1 14.31 13.94 1.34 o
5 3 0 0 0 2786.33 2651.31 17.68 o
5 3 0 0 1 9.91 8.17 1.05 o
5 3 0 1 -1 8.33 13.36 1.35 o
5 3 0 1 0 10.17 23.76 2.05 o
5 3 0 1 1 13.04 9.24 1.19 o
5 3 1 -1 -1 0.51 -0.12 0.43 <
5 3 1 -1 0 50.12 48.67 1.86 o
5 3 1 -1 1 4.62 4.62 0.67 o
5 3 1 0 -1 18.25 18.15 1.04 o
5 3 1 0 0 279.27 281.29 4.53 o
5 3 1 0 1 14.44 14.79 1.18 o
5 3 1 1 -1 1.79 2.47 0.51 o
5 3 1 1 0 65.08 72.79 2.47 o
5 3 1 1 1 0.47 -0.60 0.57 <
5 3 2 -1 -1 7.53 5.43 0.74 o
5 3 2 -1 0 12.49 10.61 0.93 o
5 3 2 -1 1 3.33 5.38 0.83 o
5 3 2 0 -1 5.96 7.50 0.83 o
5 3 2 0 0 205.33 206.37 4.36 o
5 3 2 0 1 33.77 35.80 2.16 o
5 3 2 1 -1 3.51 5.23 0.82 o
5 3 2 1 0 38.38 26.56 1.77 o
5 3 2 1 1 17.22 14.91 1.50 o
5 3 3 -1 -1 2.29 1.44 0.56 <
5 3 3 -1 0 0.02 0.35 0.47 <
5 3 3 -1 1 10.42 9.83 0.92 o
5 3 3 0 -1 4.81 4.26 0.78 o
5 3 3 0 0 244.38 233.38 5.42 o
5 3 3 0 1 196.17 202.90 5.61 o
5 3 3 1 -1 0.04 -1.16 0.75 <
5 3 3 1 0 69.46 72.54 3.53 o
5 3 3 1 1 0.41 0.05 0.95 <
5 3 4 -1 -1 61.31 56.48 2.68 o
5 3 4 -1 0 103.06 99.31 3.49 o
5 3 4 -1 1 1.28 2.27 0.72 o
5 3 4 0 -1 2.06 1.41 0.77 <
5 3 4 0 0 3856.89 3819.00 25.59 o
5 3 4 0 1 30.06 29.34 2.00 o
5 3 4 1 -1 4.71 8.97 1.25 o
5 3 4 1 0 0.40 -1.25 0.94 <
5 3 4 1 1 7.35 5.47 1.18 o
5 3 5 -1 -1 3.69 1.98 0.87 <
5 3 5 -1 0 79.90 80.22 3.48 o
5 3 5 -1 1 0.87 0.72 0.78 <
5 3 5 0 -1 48.02 44.29 2.96 o
5 3 5 0 0 801.72 780.17 12.50 o
5 3 5 0 1 10.69 7.88 1.28 o
5 3 5 1 -1 3.02 2.89 1.03 <
5 3 5 1 0 25.56 28.69 2.36 o
5 3 5 1 1 0.33 -2.91 1.09 <
5 3 6 -1 -1 5.98 2.12 1.07 <
5 3 6 -1 0 0.17 0.63 1.15 <
5 3 6 -1 1 2.02 2.46 1.18 <
5 3 6 0 -1 20.48 13.66 2.04 o
5 3 6 0 0 281.56 281.15 7.74 o
5 3 6 0 1 72.92 79.28 3.97 o
5 3 6 1 -1 2.51 2.73 1.47 <
5 3 6 1 0 0.02 -3.27 1.41 <
5 3 6 1 1 11.54 8.12 1.47 o
5 3 7 -1 -1 2.28 1.22 1.19 <
5 3 7 -1 0 0.90 -1.33 1.18 <
5 3 7 -1 1 5.08 4.26 1.46 <
5 3 7 0 -1 1.10 -2.16 1.50 <
5 3 7 0 0 92.38 89.93 5.48 o
5 3 7 0 1 102.51 113.79 6.14 o
5 3 7 1 -1 0.03 -1.61 1.75 <
5 3 7 1 0 68.97 79.98 6.16 o
5 3 7 1 1 0.12 1.19 1.63 <
5 3 8 -1 -1 22.35 20.04 3.01 o
5 3 8 -1 0 78.08 72.69 5.92 o
5 3 8 -1 1 0.28 0.14 1.66 <
5 3 8 0 -1 38.10 34.70 4.57 o
5 3 8 0 0 4111.04 4158.38 47.39 o
5 3 8 0 1 52.30 47.41 5.04 o
5 3 8 1 -1 1.83 5.33 2.70 <
5 3 8 1 0 15.15 8.00 2.55 o
5 3 8 1 1 3.15 -2.91 3.08 <
5 3 9 -1 -1 1.67 -0.35 2.37 <
5 3 9 -1 0 19.42 21.04 4.05 o
5 3 9 -1 1 1.17 1.10 2.38 <
5 3 9 0 -1 5.95 11.43 4.89 <
5 3 9 0 0 24.37 22.60 4.76 o
5 3 9 0 1 0.71 -2.88 2.53 <
5 3 9 1 -1 0.56 10.70 5.24 <
5 3 9 1 0 1.00 2.62 2.72 <
5 3 9 1 1 0.24 -5.32 5.14 <
5 4 0 -1 -1 16.83 13.51 1.32 o
5 4 0 -1 0 562.59 572.42 9.27 o
5 4 0 -1 1 17.78 16.13 1.64 o
5 4 0 0 -1 0.06 0.12 0.61 <
5 4 0 0 0 6.67 14.92 1.66 o
5 4 0 0 1 3.04 5.12 0.94 o
5 4 0 1 -1 0.24 -0.40 0.85 <
5 4 0 1 0 40.13 24.69 2.00 o
5 4 0 1 1 1.32 2.57 0.87 <
5 4 1 -1 -1 3.16 2.70 0.58 o
5 4 1 -1 0 23.08 24.67 1.58 o
5 4 1 -1 1 0.07 -0.94 0.66 <
5 4 1 0 -1 302.85 324.68 6.21 o
5 4 1 0 0 2321.44 2345.42 16.22 o
5 4 1 0 1 0.66 -0.30 0.63 <
5 4 1 1 -1 0.06 -0.18 0.88 <
5 4 1 1 0 61.81 99.73 4.10 o
5 4 1 1 1 2.46 1.30 0.72 <
5 4 2 -1 -1 0.68 0.42 0.55 <
5 4 2 -1 0 8.65 9.55 1.10 o
5 4 2 -1 1 1.61 1.60 0.82 <
5 4 2 0 -1 214.76 223.42 6.10 o
5 4 2 0 0 922.25 891.78 12.25 o
5 4 2 0 1 3.87 1.50 0.79 <
5 4 2 1 -1 36.37 34.39 2.63 o
5 4 2 1 0 43.14 48.29 3.25 o
5 4 2 1 1 1.23 2.21 1.07 <
5 4 3 -1 -1 3.13 2.12 0.74 <
5 4 3 -1 0 11.33 14.00 1.77 o
5 4 3 -1 1 0.10 0.30 1.03 <
5 4 3 0 -1 35.68 37.94 3.17 o
5 4 3 0 0 4.57 2.91 1.03 <
5 4 3 0 1 46.41 48.27 3.57 o
5 4 3 1 -1 1.66 2.81 1.19 <
5 4 3 1 0 197.05 217.19 7.74 o
5 4 3 1 1 0.57 0.68 0.87 <
5 4 4 -1 -1 9.72 7.56 1.30 o
5 4 4 -1 0 329.09 324.30 8.05 o
5 4 4 -1 1 8.76 8.83 1.31 o
5 4 4 0 -1 5.90 4.11 1.03 o
5 4 4 0 0 0.13 2.59 1.36 <
5 4 4 0 1 9.69 10.43 1.67 o
5 4 4 1 -1 1.17 2.13 1.45 <
5 4 4 1 0 1.13 0.90 0.91 <
5 4 4 1 1 2.26 2.64 1.24 <
5 4 5 -1 -1 1.82 -0.73 1.01 <
5 4 5 -1 0 20.39 21.83 1.99 o
5 4 5 -1 1 0.08 0.41 0.88 <
5 4 5 0 -1 353.09 373.13 9.99 o
5 4 5 0 0 3744.72 3723.28 32.04 o
5 4 5 0 1 19.56 18.05 2.03 o
5 4 5 1 -1 1.28 -2.30 1.30 <
5 4 5 1 0 5.85 6.20 1.31 o
5 4 5 1 1 1.94 0.00 1.12 <
5 4 6 -1 -1 0.06 -2.48 1.19 <
5 4 6 -1 0 0.21 -0.40 1.34 <
5 4 6 -1 1 2.73 1.84 1.12 <
5 4 6 0 -1 52.78 56.20 4.48 o
5 4 6 0 0 386.05 360.00 11.37 o
5 4 6 0 1 13.47 15.41 2.50 o
5 4 6 1 -1 12.74 9.96 2.21 o
5 4 6 1 0 2.59 -0.37 1.83 <
5 4 6 1 1 0.01 -0.60 1.81 <
5 4 7 -1 -1 2.06 -0.34 1.45 <
5 4 7 -1 0 2.10 3.18 1.47 <
5 4 7 -1 1 0.05 0.06 1.37 <
5 4 7 0 -1 20.88 22.86 3.70 o
5 4 7 0 0 3.15 6.03 2.29 <
5 4 7 0 1 21.27 14.49 2.81 o
5 4 7 1 -1 2.55 6.52 2.27 <
5 4 7 1 0 123.56 143.86 9.25 o
5 4 7 1 1 0.44 1.64 2.20 <
5 4 8 -1 -1 4.11 0.79 2.22 <
5 4 8 -1 0 118.92 126.43 8.86 o
5 4 8 -1 1 2.12 0.11 2.25 <
5 4 8 0 -1 21.39 19.73 3.47 o
5 4 8 0 0 7.10 14.79 3.09 o
5 4 8 0 1 13.58 14.95 2.95 o
5 4 8 1 -1 2.97 4.18 2.14 <
5 4 8 1 0 20.69 17.79 3.14 o
5 4 8 1 1 2.31 1.72 2.02 <
5 4 9 -1 -1 0.72 2.71 4.35 <
5 4 9 -1 0 17.90 15.40 4.53 o
5 4 9 -1 1 0.22 -1.74 2.63 <
5 4 9 0 -1 81.28 96.45 12.74 o
5 4 9 0 0 413.39 443.10 47.41 o
5 5 0 -1 1 40.45 21.74 2.17 o
5 5 0 0 0 1227.24 913.72 20.28 o
5 5 0 0 1 34.82 23.81 2.05 o
5 5 0 1 1 2.47 1.98 1.23 <
5 5 1 -1 1 4.97 5.17 0.91 o
5 5 1 0 0 975.42 872.20 15.63 o
5 5 1 0 1 68.70 62.79 2.95 o
5 5 1 1 1 0.06 0.65 0.64 <
5 5 2 -1 1 2.82 4.09 1.01 o
5 5 2 0 0 2.89 7.72 1.91 o
5 5 2 0 1 3.69 1.69 0.98 <
5 5 2 1 1 13.66 6.41 1.29 o
5 5 3 -1 1 2.64 4.00 1.21 o
5 5 3 0 0 88.23 64.64 6.01 o
5 5 3 0 1 44.51 43.64 3.58 o
5 5 3 1 1 3.12 -0.13 1.22 <
5 5 4 -1 1 20.65 10.11 1.86 o
5 5 4 0 0 38.08 34.43 4.87 o
5 5 4 0 1 3.11 1.71 1.43 <
5 5 4 1 1 4.91 3.03 1.85 <
5 5 5 -1 1 4.80 5.76 1.28 o
5 5 5 0 0 1186.26 1151.24 33.58 o
5 5 5 0 1 46.31 39.41 4.26 o
5 5 5 1 1 0.37 0.45 1.84 <
5 5 6 -1 1 0.00 0.69 1.69 <
5 5 6 0 0 1200.24 1132.73 35.18 o
5 5 6 0 1 9.09 6.14 2.07 <
5 5 6 1 1 2.58 -0.71 1.98 <
5 5 7 -1 1 0.49 1.45 1.73 <
5 5 7 0 0 125.59 101.96 10.97 o
5 5 7 0 1 21.86 18.71 3.24 o
5 5 7 1 1 1.46 0.27 2.40 <
5 5 8 -1 1 4.53 -4.07 2.64 <
5 5 8 0 0 552.79 580.48 27.92 o
5 5 8 0 1 5.47 5.65 2.80 <
5 5 8 1 1 8.02 3.33 2.68 <
6 0 0 -1 1 24.08 28.11 2.66 o
6 0 0 0 0 3765.77 3538.93 39.15 o
6 0 0 0 1 0.30 -0.31 0.51 <
6 0 0 1 -1 15.67 37.10 3.87 o
6 0 0 1 0 208.20 203.84 6.07 o
6 0 0 1 1 3.07 1.32 0.76 <
6 0 1 0 1 0.08 0.25 0.45 <
6 0 1 1 0 53.31 52.96 2.09 o
6 0 1 1 1 1.45 1.04 0.47 <
6 0 2 -1 1 3.80 0.13 0.50 <
6 0 2 0 0 159.39 159.99 4.82 o
6 0 2 0 1 1.31 0.63 0.41 <
6 0 2 1 -1 4.09 0.75 0.74 <
6 0 2 1 0 9.72 8.96 0.85 o
6 0 2 1 1 11.44 8.19 0.86 o
6 0 3 0 1 1.68 0.57 0.51 <
6 0 3 1 0 233.55 222.02 5.38 o
6 0 3 1 1 0.01 -1.05 0.56 <
6 0 4 -1 1 18.20 19.51 2.41 o
6 0 4 0 0 3348.21 3327.37 33.24 o
6 0 4 0 1 0.54 -0.26 0.82 <
6 0 4 1 -1 5.20 5.10 1.23 o
6 0 4 1 0 60.75 56.61 2.92 o
6 0 4 1 1 2.62 1.52 0.70 <
6 0 5 0 1 0.76 0.78 0.78 <
6 0 5 1 0 0.02 0.52 0.96 <
6 0 5 1 1 2.96 3.19 1.00 o
6 0 6 -1 1 3.65 3.45 1.87 <
6 0 6 0 0 5.72 8.42 2.23 o
6 0 6 0 1 1.29 0.83 0.89 <
6 0 6 1 -1 0.15 1.45 1.68 <
6 0 6 1 0 13.39 15.18 1.95 o
6 0 6 1 1 4.29 1.12 0.98 <
6 0 7 0 1 1.92 1.68 1.70 <
6 0 7 1 0 159.31 159.88 7.55 o
6 0 7 1 1 0.34 -1.69 1.44 <
6 0 8 -1 1 9.49 8.54 2.71 o
6 0 8 0 0 2437.65 2492.31 48.10 o
6 0 8 0 1 0.66 -3.98 2.13 <
6 0 8 1 -1 0.34 -1.15 2.88 <
6 0 8 1 0 0.56 -0.87 2.10 <
6 0 8 1 1 1.75 -1.08 1.81 <
6 0 9 0 1 3.03 4.35 2.12 <
6 0 9 1 0 0.31 2.17 2.37 <
6 0 9 1 1 2.78 -4.18 2.54 <
6 0 10 -1 1 1.78 -0.90 4.61 <
6 1 0 -1 -1 22.05 18.96 1.76 o
6 1 0 -1 0 14.77 16.34 1.56 o
6 1 0 -1 1 0.19 74.60 5.01 o
6 1 0 0 -1 366.94 371.89 7.57 o
6 1 0 0 0 5411.98 5305.67 28.73 o
6 1 0 0 1 65.79 66.59 3.03 o
6 1 0 1 -1 35.08 44.98 2.90 o
6 1 0 1 0 40.76 46.13 2.58 o
6 1 0 1 1 3.52 2.52 0.72 o
6 1 1 -1 -1 1.00 -0.27 0.43 <
6 1 1 -1 0 17.84 13.70 1.00 o
6 1 1 -1 1 0.18 1.32 0.90 <
6 1 1 0 -1 144.27 148.07 3.38 o
6 1 1 0 0 429.80 433.14 5.89 o
6 1 1 0 1 12.97 12.92 1.00 o
6 1 1 1 -1 0.82 0.47 0.45 <
6 1 1 1 0 54.17 56.24 2.12 o
6 1 1 1 1 0.01 -0.47 0.49 <
6 1 2 -1 -1 11.29 7.41 0.74 o
6 1 2 -1 0 35.15 35.55 1.64 o
6 1 2 -1 1 10.04 6.49 0.72 o
6 1 2 0 -1 2.22 1.87 0.52 o
6 1 2 0 0 55.38 57.17 2.16 o
6 1 2 0 1 164.93 168.83 3.57 o
6 1 2 1 -1 1.21 -0.60 0.55 <
6 1 2 1 0 7.74 3.59 0.61 o
6 1 2 1 1 31.84 29.91 1.60 o
6 1 3 -1 -1 2.28 1.70 0.53 o
6 1 3 -1 0 5.25 3.73 0.67 o
6 1 3 -1 1 0.93 0.56 0.44 <
6 1 3 0 -1 155.89 159.57 4.76 o
6 1 3 0 0 228.81 222.54 5.31 o
6 1 3 0 1 16.08 12.89 1.18 o
6 1 3 1 -1 0.45 -1.36 0.77 <
6 1 3 1 0 111.92 122.87 4.02 o
6 1 3 1 1 0.62 0.36 0.57 <
6 1 4 -1 -1 16.05 13.25 1.51 o
6 1 4 -1 0 21.57 21.55 1.77 o
6 1 4 -1 1 0.43 0.25 0.62 <
6 1 4 0 -1 188.86 189.73 5.63 o
6 1 4 0 0 1223.87 1236.27 13.59 o
6 1 4 0 1 6.63 6.43 1.01 o
6 1 4 1 -1 14.48 16.42 1.66 o
6 1 4 1 0 78.42 86.93 3.55 o
6 1 4 1 1 6.40 7.20 1.19 o
6 1 5 -1 -1 6.00 6.35 1.27 o
6 1 5 -1 0 18.32 15.83 1.76 o
6 1 5 -1 1 1.66 3.30 1.00 o
6 1 5 0 -1 63.09 65.57 3.47 o
6 1 5 0 0 318.53 331.54 7.74 o
6 1 5 0 1 52.79 56.34 3.19 o
6 1 5 1 -1 0.20 -0.49 0.99 <
6 1 5 1 0 16.83 20.41 2.00 o
6 1 5 1 1 0.02 -1.19 0.89 <
6 1 6 -1 -1 5.89 2.39 1.25 <
6 1 6 -1 0 41.63 39.84 2.89 o
6 1 6 -1 1 0.89 0.81 1.03 <
6 1 6 0 -1 16.10 14.46 1.80 o
6 1 6 0 0 941.37 916.33 15.04 o
6 1 6 0 1 15.56 13.80 1.76 o
6 1 6 1 -1 0.65 1.78 1.42 <
6 1 6 1 0 51.53 44.57 3.55 o
6 1 6 1 1 8.00 5.58 1.57 o
6 1 7 -1 -1 2.84 4.88 1.49 o
6 1 7 -1 0 0.97 0.03 1.66 <
6 1 7 -1 1 1.09 -1.66 1.56 <
6 1 7 0 -1 101.92 110.21 6.20 o
6 1 7 0 0 111.74 108.45 6.52 o
6 1 7 0 1 13.80 9.25 1.85 o
6 1 7 1 -1 0.60 -1.90 1.87 <
6 1 7 1 0 48.32 51.18 4.61 o
6 1 7 1 1 0.33 -1.33 1.66 <
6 1 8 -1 -1 9.80 5.55 1.75 o
6 1 8 -1 0 22.46 18.36 2.71 o
6 1 8 -1 1 2.70 2.85 1.45 <
6 1 8 0 -1 48.84 46.51 4.42 o
6 1 8 0 0 20.57 18.32 2.80 o
6 1 8 0 1 9.77 12.08 2.29 o
6 1 8 1 -1 1.46 0.14 2.25 <
6 1 8 1 0 101.38 113.26 8.21 o
6 1 8 1 1 7.69 4.42 1.85 <
6 1 9 -1 -1 3.26 2.68 3.00 <
6 1 9 -1 0 10.19 1.30 2.55 <
6 1 9 -1 1 1.28 -1.64 1.90 <
6 1 9 0 -1 20.22 17.47 4.40 o
6 1 9 0 0 116.49 100.74 10.25 o
6 1 9 0 1 13.67 9.78 3.14 o
6 1 9 1 -1 0.11 4.15 2.73 <
6 1 9 1 0 28.87 22.71 5.62 o
6 1 9 1 1 0.14 7.75 3.27 <
6 1 10 -1 1 0.00 13.42 5.96 <
6 2 0 -1 -1 8.45 6.25 0.88 o
6 2 0 -1 0 16.04 14.72 1.33 o
6 2 0 -1 1 10.37 9.83 1.12 o
6 2 0 0 -1 348.89 336.95 6.99 o
6 2 0 0 0 4194.62 4135.98 28.04 o
6 2 0 0 1 0.01 -0.20 0.62 <
6 2 0 1 -1 7.86 8.01 1.21 o
6 2 0 1 0 58.67 57.43 3.09 o
6 2 0 1 1 17.04 21.33 1.66 o
6 2 1 -1 -1 9.67 13.65 1.04 o
6 2 1 -1 0 2.18 1.08 0.46 <
6 2 1 -1 1 31.50 22.01 1.19 o
6 2 1 0 -1 7.46 5.04 0.67 o
6 2 1 0 0 2353.19 2328.27 13.53 o
6 2 1 0 1 329.42 330.65 4.77 o
6 2 1 1 -1 7.20 3.52 0.64 o
6 2 1 1 0 55.37 61.18 2.23 o
6 2 1 1 1 6.82 11.03 0.90 o
6 2 2 -1 -1 0.20 -0.45 0.57 <
6 2 2 -1 0 2.09 1.25 0.48 <
6 2 2 -1 1 12.23 8.94 0.85 o
6 2 2 0 -1 3.87 2.16 0.60 o
6 2 2 0 0 3126.13 3102.63 18.06 o
6 2 2 0 1 89.02 87.53 2.78 o
6 2 2 1 -1 4.05 2.75 0.68 o
6 2 2 1 0 21.44 15.13 1.33 o
6 2 2 1 1 9.06 4.39 1.02 o
6 2 3 -1 -1 5.81 7.99 1.02 o
6 2 3 -1 0 48.36 51.12 2.56 o
6 2 3 -1 1 9.63 5.42 0.69 o
6 2 3 0 -1 68.96 74.36 3.02 o
6 2 3 0 0 200.05 217.35 5.08 o
6 2 3 0 1 65.68 60.96 2.64 o
6 2 3 1 -1 5.23 2.97 0.91 o
6 2 3 1 0 6.29 8.40 0.99 o
6 2 3 1 1 0.94 0.79 0.63 <
6 2 4 -1 -1 6.08 2.42 0.78 o
6 2 4 -1 0 17.32 16.92 1.63 o
6 2 4 -1 1 5.85 4.52 0.88 o
6 2 4 0 -1 162.93 163.54 5.15 o
6 2 4 0 0 2742.32 2731.96 22.93 o
6 2 4 0 1 6.38 4.94 0.97 o
6 2 4 1 -1 5.69 5.61 0.91 o
6 2 4 1 0 19.15 19.16 1.86 o
6 2 4 1 1 7.80 8.85 1.35 o
6 2 5 -1 -1 6.31 11.04 1.46 o
6 2 5 -1 0 35.70 31.15 2.33 o
6 2 5 -1 1 28.42 22.10 2.01 o
6 2 5 0 -1 56.74 48.86 2.98 o
6 2 5 0 0 4546.61 4502.86 32.76 o
6 2 5 0 1 310.38 313.12 8.30 o
6 2 5 1 -1 6.11 5.06 1.19 o
6 2 5 1 0 70.40 83.91 4.33 o
6 2 5 1 1 17.72 22.77 2.33 o
6 2 6 -1 -1 0.25 0.01 1.13 <
6 2 6 -1 0 6.65 6.12 1.34 o
6 2 6 -1 1 4.92 2.63 1.19 <
6 2 6 0 -1 7.13 5.58 1.59 o
6 2 6 0 0 1710.10 1728.64 24.16 o
6 2 6 0 1 11.48 11.08 1.68 o
6 2 6 1 -1 1.95 0.21 1.74 <
6 2 6 1 0 0.17 -2.45 1.53 <
6 2 6 1 1 1.79 3.01 1.51 <
6 2 7 -1 -1 3.43 0.48 1.40 <
6 2 7 -1 0 34.03 36.12 3.68 o
6 2 7 -1 1 4.43 3.32 1.52 <
6 2 7 0 -1 45.30 51.01 4.41 o
6 2 7 0 0 28.17 33.46 3.48 o
6 2 7 0 1 40.31 41.77 4.03 o
6 2 7 1 -1 1.46 -4.53 1.92 <
6 2 7 1 0 4.06 7.16 2.10 o
6 2 7 1 1 2.25 -1.61 1.79 <
6 2 8 -1 -1 3.11 5.86 2.08 <
6 2 8 -1 0 14.92 17.49 2.91 o
6 2 8 -1 1 2.13 -1.27 1.65 <
6 2 8 0 -1 29.31 31.47 4.40 o
6 2 8 0 0 1229.48 1216.11 26.86 o
6 2 8 0 1 23.42 25.30 3.92 o
6 2 8 1 -1 2.77 4.80 2.88 <
6 2 8 1 0 0.18 5.54 2.27 <
6 2 8 1 1 1.29 -0.24 2.20 <
6 2 9 -1 -1 1.77 3.24 3.74 <
6 2 9 -1 0 5.33 -5.51 3.62 <
6 2 9 -1 1 9.20 3.27 1.78 <
6 2 9 0 -1 1.26 -3.68 3.38 <
6 2 9 0 0 314.22 303.99 21.28 o
6 2 9 0 1 51.21 47.05 8.00 o
6 2 9 1 -1 5.39 13.93 4.83 <
6 2 9 1 0 18.59 23.32 6.15 o
6 2 9 1 1 8.17 7.26 3.73 <
6 2 10 -1 1 1.89 -5.50 5.32 <
6 3 0 -1 -1 0.02 0.70 0.60 <
6 3 0 -1 0 124.40 117.84 4.13 o
6 3 0 -1 1 0.03 -0.88 0.78 <
6 3 0 0 -1 309.89 312.71 6.97 o
6 3 0 0 0 3573.66 3560.50 24.32 o
6 3 0 0 1 564.82 587.00 8.67 o
6 3 0 1 -1 13.34 6.35 1.09 o
6 3 0 1 0 83.63 83.07 3.78 o
6 3 0 1 1 0.10 1.75 1.06 <
6 3 1 -1 -1 3.46 7.47 0.89 o
6 3 1 -1 0 76.79 69.12 2.19 o
6 3 1 -1 1 0.77 1.92 0.47 o
6 3 1 0 -1 6.25 4.42 0.72 o
6 3 1 0 0 726.89 696.32 7.75 o
6 3 1 0 1 0.11 -0.49 0.58 <
6 3 1 1 -1 0.96 1.60 0.61 <
6 3 1 1 0 25.35 23.23 1.54 o
6 3 1 1 1 13.84 9.30 1.01 o
6 3 2 -1 -1 9.72 4.41 0.76 o
6 3 2 -1 0 39.92 37.27 1.97 o
6 3 2 -1 1 5.58 2.76 0.56 o
6 3 2 0 -1 441.96 435.21 7.25 o
6 3 2 0 0 3929.91 3676.18 22.46 o
6 3 2 0 1 17.05 12.98 1.33 o
6 3 2 1 -1 9.19 3.41 0.82 o
6 3 2 1 0 325.95 346.34 7.49 o
6 3 2 1 1 2.12 -1.19 0.85 <
6 3 3 -1 -1 2.52 0.05 0.72 <
6 3 3 -1 0 30.30 27.42 1.98 o
6 3 3 -1 1 3.50 3.86 0.83 o
6 3 3 0 -1 0.00 -0.41 0.82 <
6 3 3 0 0 448.14 427.78 8.35 o
6 3 3 0 1 10.07 11.24 1.46 o
6 3 3 1 -1 6.84 8.16 1.22 o
6 3 3 1 0 8.25 7.56 1.09 o
6 3 3 1 1 26.03 19.86 2.45 o
6 3 4 -1 -1 0.16 -0.10 0.90 <
6 3 4 -1 0 143.07 139.74 4.62 o
6 3 4 -1 1 0.42 0.30 0.72 <
6 3 4 0 -1 86.72 82.83 4.42 o
6 3 4 0 0 405.61 411.69 9.44 o
6 3 4 0 1 232.97 236.92 6.49 o
6 3 4 1 -1 7.85 5.96 1.34 o
6 3 4 1 0 35.52 28.05 2.39 o
6 3 4 1 1 0.11 -1.66 1.06 <
6 3 5 -1 -1 2.01 0.76 1.22 <
6 3 5 -1 0 64.20 62.54 3.68 o
6 3 5 -1 1 0.09 -0.35 0.96 <
6 3 5 0 -1 6.60 6.19 1.37 o
6 3 5 0 0 538.80 501.34 10.86 o
6 3 5 0 1 2.46 1.05 0.96 <
6 3 5 1 -1 0.07 0.66 1.27 <
6 3 5 1 0 75.92 74.05 4.53 o
6 3 5 1 1 2.64 2.29 1.45 <
6 3 6 -1 -1 7.28 3.70 1.59 <
6 3 6 -1 0 0.70 0.25 1.31 <
6 3 6 -1 1 0.53 1.19 1.23 <
6 3 6 0 -1 71.16 69.34 5.03 o
6 3 6 0 0 35.00 26.06 2.98 o
6 3 6 0 1 9.76 13.71 2.24 o
6 3 6 1 -1 7.43 5.08 1.98 <
6 3 6 1 0 133.64 150.96 8.99 o
6 3 6 1 1 1.73 -0.30 2.29 <
6 3 7 -1 -1 1.65 2.58 1.48 <
6 3 7 -1 0 21.69 16.92 2.76 o
6 3 7 -1 1 4.67 2.48 1.49 <
6 3 7 0 -1 3.11 4.58 2.28 <
6 3 7 0 0 256.44 254.41 12.10 o
6 3 7 0 1 6.06 10.37 2.59 o
6 3 7 1 -1 4.53 7.85 2.80 <
6 3 7 1 0 11.84 13.96 3.08 o
6 3 7 1 1 21.62 15.61 3.28 o
6 3 8 -1 -1 0.20 0.03 2.05 <
6 3 8 -1 0 133.99 135.29 9.13 o
6 3 8 -1 1 1.79 -2.79 2.77 <
6 3 8 0 -1 0.11 5.05 2.58 <
6 3 8 0 0 417.42 376.98 15.52 o
6 3 8 0 1 34.22 38.94 4.89 o
6 3 8 1 -1 3.11 0.16 3.06 <
6 3 8 1 0 4.39 2.93 2.22 <
6 3 8 1 1 0.12 -4.82 2.37 <
6 3 9 -1 -1 0.46 -5.36 3.38 <
6 3 9 -1 0 13.17 20.65 5.83 o
6 3 9 -1 1 0.99 6.65 3.23 <
6 3 9 0 -1 1.47 11.06 4.21 <
6 3 9 0 0 204.95 224.41 19.15 o
6 3 9 0 1 0.28 6.80 5.11 <
6 4 0 -1 -1 4.23 11.72 1.69 o
6 4 0 -1 0 109.28 101.82 3.97 o
6 4 0 -1 1 11.82 9.70 1.34 o
6 4 0 0 -1 3.97 5.93 1.17 o
6 4 0 0 0 1804.88 1751.16 20.60 o
6 4 0 0 1 112.98 103.88 4.39 o
6 4 0 1 -1 5.19 1.32 0.95 <
6 4 0 1 0 37.07 53.82 3.71 o
6 4 0 1 1 15.68 14.11 1.71 o
6 4 1 -1 -1 0.55 0.53 0.46 <
6 4 1 -1 0 3.53 3.96 0.83 o
6 4 1 -1 1 11.39 10.50 1.20 o
6 4 1 0 -1 29.68 31.49 1.95 o
6 4 1 0 0 1111.49 1117.69 12.31 o
6 4 1 0 1 10.89 12.64 1.21 o
6 4 1 1 -1 0.12 -0.71 0.85 <
6 4 1 1 0 47.46 68.35 3.06 o
6 4 1 1 1 1.47 2.25 0.85 <
6 4 2 -1 -1 28.50 25.81 2.04 o
6 4 2 -1 0 309.23 298.80 7.25 o
6 4 2 -1 1 19.21 23.52 2.25 o
6 4 2 0 -1 4.79 3.98 0.99 o
6 4 2 0 0 1588.56 1513.49 17.43 o
6 4 2 0 1 38.49 39.54 2.89 o
6 4 2 1 -1 1.29 2.21 1.04 <
6 4 2 1 0 0.73 3.41 1.40 <
6 4 2 1 1 7.53 7.88 1.38 o
6 4 3 -1 -1 3.15 4.56 1.24 o
6 4 3 -1 0 0.12 -0.27 1.08 <
6 4 3 -1 1 17.22 20.23 2.36 o
6 4 3 0 -1 48.83 48.77 3.84 o
6 4 3 0 0 1073.78 1075.49 17.67 o
6 4 3 0 1 25.69 27.81 2.87 o
6 4 3 1 -1 1.35 0.54 1.20 <
6 4 3 1 0 10.60 14.56 2.21 o
6 4 3 1 1 0.46 1.82 1.16 <
6 4 4 -1 -1 0.48 -2.02 1.10 <
6 4 4 -1 0 24.20 22.61 2.18 o
6 4 4 -1 1 4.16 3.45 1.30 <
6 4 4 0 -1 0.14 0.02 0.84 <
6 4 4 0 0 1172.10 1138.92 22.28 o
6 4 4 0 1 91.32 92.83 6.32 o
6 4 4 1 -1 7.06 4.50 1.51 <
6 4 4 1 0 4.87 2.47 1.76 <
6 4 4 1 1 8.77 8.30 2.13 o
6 4 5 -1 -1 0.00 -1.09 1.12 <
6 4 5 -1 0 5.67 4.96 1.35 o
6 4 5 -1 1 4.35 3.57 1.30 <
6 4 5 0 -1 6.00 8.10 1.85 o
6 4 5 0 0 714.69 734.45 15.50 o
6 4 5 0 1 5.33 8.63 1.78 o
6 4 5 1 -1 1.89 -2.41 1.69 <
6 4 5 1 0 46.88 55.80 5.22 o
6 4 5 1 1 1.23 0.84 1.84 <
6 4 6 -1 -1 7.29 4.38 1.54 <
6 4 6 -1 0 59.71 59.44 5.04 o
6 4 6 -1 1 4.35 2.46 1.70 <
6 4 6 0 -1 17.15 20.15 3.46 o
6 4 6 0 0 879.49 868.47 21.79 o
6 4 6 0 1 16.50 22.22 3.58 o
6 4 6 1 -1 3.33 5.03 1.96 <
6 4 6 1 0 22.32 24.43 3.51 o
6 4 6 1 1 8.18 5.80 2.28 <
6 4 7 -1 -1 2.06 5.67 2.64 <
6 4 7 -1 0 0.61 0.92 1.89 <
6 4 7 -1 1 9.96 11.92 2.70 o
6 4 7 0 -1 43.11 44.29 5.28 o
6 4 7 0 0 573.37 607.03 19.17 o
6 4 7 0 1 13.95 15.02 2.81 o
6 4 7 1 -1 2.50 2.12 2.36 <
6 4 7 1 0 14.73 13.54 2.84 o
6 4 7 1 1 0.45 -3.83 2.09 <
6 4 8 -1 -1 0.68 1.24 2.15 <
6 4 8 -1 0 1.92 1.02 2.15 <
6 4 8 -1 1 0.32 0.00 2.41 <
6 4 8 0 -1 4.73 2.20 2.98 <
6 4 8 0 0 549.38 562.73 19.35 o
6 4 8 0 1 58.10 64.08 6.41 o
6 4 8 1 -1 6.52 2.81 3.72 <
6 4 8 1 0 1.93 3.49 3.37 <
6 4 8 1 1 2.39 -5.01 3.03 <
6 5 0 -1 -1 0.30 0.63 0.92 <
6 5 0 -1 0 0.46 0.89 0.67 <
6 5 0 -1 1 5.23 2.28 0.96 <
6 5 0 0 -1 18.79 20.53 2.98 o
6 5 0 0 0 265.52 282.97 10.76 o
6 5 0 0 1 0.62 0.18 1.09 <
6 5 0 1 -1 8.30 4.65 2.00 <
6 5 0 1 0 291.88 253.80 12.12 o
6 5 0 1 1 4.20 2.45 1.91 <
6 5 1 -1 -1 2.64 2.50 0.96 <
6 5 1 -1 0 7.10 7.82 1.16 o
6 5 1 -1 1 4.11 3.55 0.81 o
6 5 1 0 -1 38.48 43.35 2.39 o
6 5 1 0 0 0.12 1.23 0.88 <
6 5 1 0 1 41.33 38.72 2.48 o
6 5 1 1 -1 3.96 3.88 0.90 o
6 5 1 1 0 74.55 94.06 3.70 o
6 5 1 1 1 0.07 0.42 0.69 <
6 5 2 -1 -1 16.08 19.16 2.04 o
6 5 2 -1 0 165.04 166.56 5.97 o
6 5 2 -1 1 1.80 1.65 1.00 <
6 5 2 0 -1 3.75 2.75 0.97 <
6 5 2 0 0 635.90 588.35 11.55 o
6 5 2 0 1 2.86 3.20 1.06 o
6 5 2 1 -1 4.27 4.50 1.31 o
6 5 2 1 0 45.06 61.13 3.94 o
6 5 2 1 1 0.10 0.05 1.07 <
6 5 3 -1 -1 0.75 -1.18 1.45 <
6 5 3 -1 0 30.37 30.81 3.02 o
6 5 3 -1 1 4.82 3.40 1.17 <
6 5 3 0 -1 62.78 74.45 4.70 o
6 5 3 0 0 0.37 1.98 1.41 <
6 5 3 0 1 2.42 2.67 1.05 <
6 5 3 1 -1 0.06 0.69 1.13 <
6 5 3 1 0 125.46 144.24 6.79 o
6 5 3 1 1 1.20 1.88 1.66 <
6 5 4 -1 -1 0.89 2.37 1.60 <
6 5 4 -1 0 0.85 0.69 1.93 <
6 5 4 -1 1 2.81 1.92 1.48 <
6 5 4 0 -1 0.23 -1.77 1.74 <
6 5 4 0 0 41.86 29.54 3.79 o
6 5 4 0 1 16.57 11.42 2.42 o
6 5 4 1 -1 6.30 4.87 1.87 <
6 5 4 1 0 161.84 125.78 7.81 o
6 5 4 1 1 0.29 -0.61 1.40 <
6 5 5 -1 -1 2.33 -0.17 1.88 <
6 5 5 -1 0 0.53 -1.97 2.00 <
6 5 5 -1 1 1.46 0.59 1.26 <
6 5 5 0 -1 11.93 16.96 2.94 o
6 5 5 0 0 1.11 1.90 1.71 <
6 5 5 0 1 64.95 68.86 5.93 o
6 5 5 1 -1 8.43 7.79 2.17 o
6 5 5 1 0 36.73 48.08 5.11 o
6 5 5 1 1 0.15 -2.04 1.99 <
6 5 6 -1 -1 14.68 17.69 3.15 o
6 5 6 -1 0 162.27 169.64 9.69 o
6 5 6 -1 1 2.50 0.46 1.78 <
6 5 6 0 -1 54.65 59.46 5.86 o
6 5 6 0 0 70.90 76.52 6.63 o
6 5 6 0 1 37.88 38.58 4.94 o
6 5 6 1 -1 3.21 5.95 2.40 <
6 5 6 1 0 5.40 7.72 2.34 o
6 5 6 1 1 1.78 0.50 1.88 <
6 5 7 -1 -1 0.61 -6.23 2.85 <
6 5 7 -1 0 16.21 18.27 3.25 o
6 5 7 -1 1 4.46 7.00 2.31 o
6 5 7 0 -1 47.13 48.25 5.61 o
6 5 7 0 0 3.11 4.48 1.88 <
6 5 7 0 1 0.81 4.61 1.87 <
6 5 7 1 -1 0.69 -5.35 2.50 <
6 5 7 1 0 59.51 65.91 6.60 o
6 5 7 1 1 2.10 2.96 2.26 <
6 5 8 -1 -1 1.55 -0.15 3.04 <
6 5 8 -1 0 7.73 5.28 3.10 <
6 5 8 -1 1 0.60 0.52 2.58 <
6 5 8 0 -1 27.31 25.70 9.91 <
6 5 8 0 0 730.01 683.27 46.56 o
6 5 8 0 1 48.17 35.36 8.38 o
6 5 8 1 0 55.80 27.00 10.57 <
6 5 8 1 1 0.88 15.77 7.30 <
6 6 0 -1 1 7.65 3.39 2.09 <
6 6 0 0 0 3888.17 3522.14 57.14 o
6 6 0 0 1 5.84 7.71 1.77 o
6 6 0 1 1 17.07 10.80 3.12 o
6 6 1 -1 1 4.13 5.06 0.92 o
6 6 1 0 0 35.58 53.40 4.37 o
6 6 1 0 1 4.48 5.46 1.05 o
6 6 1 1 1 0.85 -2.19 1.35 <
6 6 2 -1 1 1.01 -0.39 0.92 <
6 6 2 0 0 879.14 930.98 21.53 o
6 6 2 0 1 4.21 5.07 1.28 o
6 6 2 1 1 5.99 4.28 1.35 o
6 6 3 -1 1 7.95 7.13 1.49 o
6 6 3 0 0 3442.41 3570.10 49.15 o
6 6 3 0 1 104.09 114.45 6.14 o
6 6 3 1 1 0.22 1.81 1.45 <
6 6 4 -1 1 6.68 2.53 1.47 <
6 6 4 0 0 2857.57 2586.22 51.17 o
6 6 4 0 1 0.21 -0.01 1.53 <
6 6 4 1 1 13.53 3.12 1.64 <
6 6 5 -1 1 1.25 -0.86 1.74 <
6 6 5 0 0 501.20 443.84 21.98 o
6 6 5 0 1 3.85 1.76 1.92 <
6 6 5 1 1 2.07 -1.06 1.80 <
6 6 6 -1 1 0.30 -4.38 2.12 <
6 6 6 0 0 497.16 535.60 25.47 o
6 6 6 0 1 17.16 14.19 2.88 o
6 6 6 1 1 4.58 0.55 2.29 <
6 6 7 -1 1 6.07 7.17 2.52 <
6 6 7 0 0 1851.26 2059.04 61.25 o
6 6 7 0 1 33.65 30.02 5.24 o
6 6 7 1 1 0.32 6.30 7.09 <
6 6 8 -1 1 5.01 1.86 7.70 <
7 0 0 0 1 27.35 30.04 2.34 o
7 0 0 1 0 0.17 0.65 0.73 <
7 0 0 1 1 0.01 0.75 0.85 <
7 0 1 -1 1 15.67 9.02 1.25 o
7 0 1 0 0 788.87 749.34 11.04 o
7 0 1 0 1 9.08 10.67 0.95 o
7 0 1 1 -1 3.19 1.84 1.17 <
7 0 1 1 0 0.38 0.08 0.62 <
7 0 1 1 1 5.40 1.74 0.68 <
7 0 2 0 1 54.15 51.38 2.18 o
7 0 2 1 0 35.03 34.31 1.92 o
7 0 2 1 1 0.06 -0.43 0.60 <
7 0 3 -1 1 35.54 27.87 2.77 o
7 0 3 0 0 3595.86 3499.55 30.96 o
7 0 3 0 1 31.50 28.69 2.00 o
7 0 3 1 -1 9.66 4.62 1.66 <
7 0 3 1 0 1.19 0.64 0.75 <
7 0 3 1 1 0.20 -0.44 0.83 <
7 0 4 0 1 2.20 2.23 0.92 <
7 0 4 1 0 0.92 1.01 0.81 <
7 0 4 1 1 0.13 0.86 0.80 <
7 0 5 -1 1 3.95 -0.77 1.36 <
7 0 5 0 0 41.77 42.78 4.03 o
7 0 5 0 1 44.45 43.00 2.81 o
7 0 5 1 -1 0.03 1.78 1.96 <
7 0 5 1 0 2.74 2.34 1.06 <
7 0 5 1 1 7.53 2.29 1.14 <
7 0 6 0 1 0.90 -0.70 1.30 <
7 0 6 1 0 6.68 5.87 1.37 o
7 0 6 1 1 0.13 -1.22 1.36 <
7 0 7 -1 1 19.25 17.48 3.78 o
7 0 7 0 0 1668.28 1752.02 37.30 o
7 0 7 0 1 15.28 12.44 2.04 o
7 0 7 1 -1 13.80 10.28 3.00 o
7 0 7 1 0 2.10 1.26 1.44 <
7 0 7 1 1 0.05 0.65 1.55 <
7 0 8 0 1 7.22 2.53 1.85 <
7 0 8 1 0 7.23 7.08 3.34 <
7 0 8 1 1 0.55 -2.95 2.62 <
7 0 9 -1 1 5.30 1.40 6.66 <
7 0 9 0 1 0.91 -1.33 5.42 <
7 0 9 1 1 1.84 -17.82 8.98 <
7 1 0 -1 -1 1.70 -0.38 0.69 <
7 1 0 -1 0 109.85 115.92 4.39 o
7 1 0 -1 1 5.47 81.02 4.05 o
7 1 0 0 -1 8.03 10.37 1.49 o
7 1 0 0 0 62.94 47.81 2.96 o
7 1 0 0 1 1.08 -0.16 0.74 <
7 1 0 1 -1 7.27 8.73 1.35 o
7 1 0 1 0 115.01 123.36 5.44 o
7 1 0 1 1 14.39 11.83 1.61 o
7 1 1 -1 -1 14.04 14.48 1.15 o
7 1 1 -1 0 147.63 149.14 3.55 o
7 1 1 -1 1 8.01 10.94 1.03 o
7 1 1 0 -1 8.03 11.86 1.09 o
7 1 1 0 0 185.73 210.09 4.45 o
7 1 1 0 1 22.95 23.49 1.42 o
7 1 1 1 -1 3.73 7.00 0.97 o
7 1 1 1 0 6.95 4.42 0.72 o
7 1 1 1 1 22.13 18.44 1.38 o
7 1 2 -1 -1 24.67 25.11 1.63 o
7 1 2 -1 0 232.84 237.84 4.67 o
7 1 2 -1 1 2.52 0.77 0.53 <
7 1 2 0 -1 94.53 98.18 3.32 o
7 1 2 0 0 201.19 189.79 4.41 o
7 1 2 0 1 389.34 410.07 6.05 o
7 1 2 1 -1 6.03 3.31 0.85 o
7 1 2 1 0 199.96 208.28 5.07 o
7 1 2 1 1 0.15 0.56 0.59 <
7 1 3 -1 -1 24.26 24.12 2.04 o
7 1 3 -1 0 194.96 185.98 5.59 o
7 1 3 -1 1 7.05 10.28 1.10 o
7 1 3 0 -1 0.30 0.64 0.93 <
7 1 3 0 0 366.54 347.81 7.49 o
7 1 3 0 1 4.51 3.20 0.65 o
7 1 3 1 -1 2.53 6.22 1.18 o
7 1 3 1 0 68.65 62.51 3.35 o
7 1 3 1 1 25.85 20.89 1.76 o
7 1 4 -1 -1 1.52 -0.01 0.93 <
7 1 4 -1 0 41.34 38.13 2.53 o
7 1 4 -1 1 1.57 -0.27 0.83 <
7 1 4 0 -1 1.54 2.49 0.97 <
7 1 4 0 0 165.64 181.21 5.65 o
7 1 4 0 1 14.42 18.48 1.87 o
7 1 4 1 -1 9.35 9.39 1.22 o
7 1 4 1 0 74.80 79.81 4.13 o
7 1 4 1 1 7.44 4.70 1.00 o
7 1 5 -1 -1 3.73 4.55 1.20 o
7 1 5 -1 0 56.81 56.89 3.33 o
7 1 5 -1 1 4.53 5.18 1.00 o
7 1 5 0 -1 6.44 7.54 1.44 o
7 1 5 0 0 744.02 791.16 13.84 o
7 1 5 0 1 22.49 21.92 2.08 o
7 1 5 1 -1 2.66 3.75 1.34 <
7 1 5 1 0 0.17 0.14 1.19 <
7 1 5 1 1 9.71 11.27 1.79 o
7 1 6 -1 -1 14.41 16.41 2.36 o
7 1 6 -1 0 232.78 249.85 9.24 o
7 1 6 -1 1 4.39 2.57 1.63 <
7 1 6 0 -1 92.10 106.10 6.15 o
7 1 6 0 0 321.90 315.25 10.39 o
7 1 6 0 1 75.04 79.51 5.03 o
7 1 6 1 -1 0.81 1.86 1.53 <
7 1 6 1 0 141.12 152.78 6.86 o
7 1 6 1 1 0.21 -1.62 1.59 <
7 1 7 -1 -1 19.60 19.37 2.55 o
7 1 7 -1 0 113.07 114.93 6.38 o
7 1 7 -1 1 3.92 4.97 1.74 <
7 1 7 0 -1 8.60 7.29 1.94 o
7 1 7 0 0 151.11 138.01 8.07 o
7 1 7 0 1 12.26 11.94 2.20 o
7 1 7 1 -1 2.07 2.67 2.10 <
7 1 7 1 0 32.10 27.00 4.19 o
7 1 7 1 1 19.74 13.37 3.09 o
7 1 8 -1 -1 0.66 -5.67 2.45 <
7 1 8 -1 0 2.89 7.71 2.31 o
7 1 8 -1 1 0.04 -0.47 1.72 <
7 1 8 0 -1 0.03 -1.43 2.45 <
7 1 8 0 0 1055.01 1112.61 28.35 o
7 1 8 0 1 63.43 66.09 6.73 o
7 1 8 1 -1 8.51 12.51 5.98 <
7 1 8 1 0 39.25 38.44 5.72 o
7 1 8 1 1 1.33 0.86 3.31 <
7 1 9 -1 -1 0.78 -12.65 7.57 <
7 1 9 -1 0 29.60 36.04 9.42 o
7 1 9 -1 1 1.73 -8.09 4.99 <
7 1 9 0 1 0.09 1.53 1.94 <
7 1 9 1 1 2.73 -1.42 4.46 <
7 2 0 -1 -1 6.58 4.27 1.08 o
7 2 0 -1 0 7.58 9.36 1.31 o
7 2 0 -1 1 1.16 13.24 2.17 o
7 2 0 0 -1 78.65 78.20 4.35 o
7 2 0 0 0 4131.45 4006.52 33.04 o
7 2 0 0 1 8.42 9.15 1.47 o
7 2 0 1 -1 2.73 1.50 1.48 <
7 2 0 1 0 217.04 192.79 6.81 o
7 2 0 1 1 4.25 2.26 0.86 <
7 2 1 -1 -1 0.25 0.47 0.59 <
7 2 1 -1 0 5.64 5.97 0.76 o
7 2 1 -1 1 19.91 18.40 1.47 o
7 2 1 0 -1 0.40 1.13 0.63 <
7 2 1 0 0 971.93 977.71 10.28 o
7 2 1 0 1 21.88 20.57 1.45 o
7 2 1 1 -1 1.97 2.14 0.66 o
7 2 1 1 0 12.74 17.80 1.49 o
7 2 1 1 1 0.09 0.26 0.54 <
7 2 2 -1 -1 17.56 16.60 1.48 o
7 2 2 -1 0 12.00 10.90 1.08 o
7 2 2 -1 1 0.13 -0.91 0.79 <
7 2 2 0 -1 24.52 25.30 1.73 o
7 2 2 0 0 116.65 118.55 3.61 o
7 2 2 0 1 78.98 81.33 3.01 o
7 2 2 1 -1 0.03 1.53 0.76 <
7 2 2 1 0 142.81 160.76 4.61 o
7 2 2 1 1 2.09 0.60 0.68 <
7 2 3 -1 -1 0.14 -0.64 0.81 <
7 2 3 -1 0 14.63 13.17 1.35 o
7 2 3 -1 1 14.24 12.99 1.25 o
7 2 3 0 -1 32.37 31.65 2.31 o
7 2 3 0 0 1230.86 1234.03 13.89 o
7 2 3 0 1 0.11 -0.98 0.85 <
7 2 3 1 -1 6.54 3.62 1.05 o
7 2 3 1 0 50.29 66.40 3.63 o
7 2 3 1 1 0.06 -1.36 0.95 <
7 2 4 -1 -1 6.72 2.73 1.01 <
7 2 4 -1 0 3.94 2.94 0.94 o
7 2 4 -1 1 1.00 2.52 1.00 <
7 2 4 0 -1 1.35 -1.78 1.00 <
7 2 4 0 0 803.04 781.97 12.10 o
7 2 4 0 1 3.51 4.79 0.99 o
7 2 4 1 -1 0.58 -1.42 1.28 <
7 2 4 1 0 62.51 47.33 3.20 o
7 2 4 1 1 4.97 3.78 1.07 o
7 2 5 -1 -1 0.61 1.48 0.90 <
7 2 5 -1 0 0.32 0.12 1.28 <
7 2 5 -1 1 13.14 11.69 1.65 o
7 2 5 0 -1 5.89 3.56 1.72 <
7 2 5 0 0 427.96 431.83 11.52 o
7 2 5 0 1 35.84 36.09 3.30 o
7 2 5 1 -1 0.01 -1.93 1.68 <
7 2 5 1 0 1.06 1.05 1.48 <
7 2 5 1 1 0.06 -2.33 1.43 <
7 2 6 -1 -1 7.46 6.75 1.84 o
7 2 6 -1 0 7.18 7.35 1.64 o
7 2 6 -1 1 0.06 1.05 1.41 <
7 2 6 0 -1 24.74 26.71 3.18 o
7 2 6 0 0 837.12 833.85 18.43 o
7 2 6 0 1 0.82 1.95 1.33 <
7 2 6 1 -1 0.56 0.19 1.66 <
7 2 6 1 0 8.65 13.86 2.84 o
7 2 6 1 1 0.59 -2.07 1.90 <
7 2 7 -1 -1 0.15 -3.61 2.43 <
7 2 7 -1 0 12.67 10.61 2.27 o
7 2 7 -1 1 8.30 6.00 2.31 <
7 2 7 0 -1 19.33 18.98 3.03 o
7 2 7 0 0 879.31 901.97 23.12 o
7 2 7 0 1 0.04 -0.61 2.06 <
7 2 7 1 -1 6.74 4.77 2.14 <
7 2 7 1 0 22.67 29.00 4.21 o
7 2 7 1 1 0.36 -2.08 2.36 <
7 2 8 -1 -1 5.78 3.64 2.92 <
7 2 8 -1 0 1.89 -6.96 2.90 <
7 2 8 -1 1 0.71 -0.29 2.68 <
7 2 8 0 -1 40.90 34.21 6.09 o
7 2 8 0 0 84.62 84.53 9.11 o
7 2 8 0 1 41.13 52.63 5.77 o
7 2 8 1 -1 0.09 -3.76 3.13 <
7 2 8 1 0 0.35 2.35 3.43 <
7 2 8 1 1 3.94 10.93 3.79 <
7 2 9 -1 -1 0.10 11.21 5.76 <
7 2 9 -1 0 0.06 -5.07 4.07 <
7 2 9 -1 1 4.94 5.75 2.65 <
7 2 9 0 0 162.32 162.29 15.53 o
7 2 9 0 1 8.57 7.97 4.83 <
7 2 9 1 1 0.02 -0.84 4.40 <
7 3 0 -1 -1 0.03 1.14 0.96 <
7 3 0 -1 0 128.93 125.13 4.85 o
7 3 0 -1 1 26.84 21.88 2.15 o
7 3 0 0 -1 2.06 -0.19 0.98 <
7 3 0 0 0 3986.16 3843.17 31.40 o
7 3 0 0 1 120.57 117.43 4.34 o
7 3 0 1 -1 0.23 -3.09 1.25 <
7 3 0 1 0 29.97 38.17 3.14 o
7 3 0 1 1 12.48 17.63 1.79 o
7 3 1 -1 -1 0.14 -2.13 0.72 <
7 3 1 -1 0 1.44 0.68 0.55 <
7 3 1 -1 1 4.69 2.74 0.54 o
7 3 1 0 -1 70.71 77.27 3.05 o
7 3 1 0 0 2.37 6.01 0.74 o
7 3 1 0 1 0.94 0.02 0.59 <
7 3 1 1 -1 0.57 0.57 0.67 <
7 3 1 1 0 196.21 214.81 5.01 o
7 3 1 1 1 0.92 -0.53 0.63 <
7 3 2 -1 -1 26.65 29.82 1.94 o
7 3 2 -1 0 23.49 22.75 1.67 o
7 3 2 -1 1 7.78 10.25 1.10 o
7 3 2 0 -1 0.18 -0.46 0.78 <
7 3 2 0 0 1572.40 1641.81 15.19 o
7 3 2 0 1 74.41 75.82 3.19 o
7 3 2 1 -1 4.92 2.56 0.92 <
7 3 2 1 0 211.71 185.76 5.35 o
7 3 2 1 1 4.64 3.08 0.92 o
7 3 3 -1 -1 1.14 -0.21 0.85 <
7 3 3 -1 0 7.22 10.87 1.42 o
7 3 3 -1 1 1.92 2.76 0.91 o
7 3 3 0 -1 135.33 154.09 5.58 o
7 3 3 0 0 895.95 954.33 14.15 o
7 3 3 0 1 5.13 2.75 0.73 o
7 3 3 1 -1 5.93 4.20 1.24 o
7 3 3 1 0 87.53 98.85 4.56 o
7 3 3 1 1 1.77 0.60 1.10 <
7 3 4 -1 -1 0.14 -0.06 0.84 <
7 3 4 -1 0 60.92 55.01 3.60 o
7 3 4 -1 1 13.50 10.44 1.62 o
7 3 4 0 -1 2.77 2.12 1.49 <
7 3 4 0 0 1654.17 1581.49 19.77 o
7 3 4 0 1 44.68 40.41 3.17 o
7 3 4 1 -1 1.00 -1.01 1.84 <
7 3 4 1 0 6.58 6.33 2.06 o
7 3 4 1 1 2.57 3.49 1.67 <
7 3 5 -1 -1 0.03 -0.38 1.42 <
7 3 5 -1 0 8.93 8.06 1.66 o
7 3 5 -1 1 3.85 2.00 1.18 <
7 3 5 0 -1 30.89 34.26 3.44 o
7 3 5 0 0 151.43 130.73 6.19 o
7 3 5 0 1 0.15 -0.29 1.21 <
7 3 5 1 -1 0.32 -1.77 1.96 <
7 3 5 1 0 189.34 202.53 10.17 o
7 3 5 1 1 0.43 -0.09 1.90 <
7 3 6 -1 -1 12.20 10.68 2.24 o
7 3 6 -1 0 41.68 43.54 4.84 o
7 3 6 -1 1 1.09 3.22 1.96 <
7 3 6 0 -1 1.33 4.31 1.86 <
7 3 6 0 0 173.80 192.59 10.24 o
7 3 6 0 1 9.81 11.88 2.82 o
7 3 6 1 -1 1.42 1.97 1.56 <
7 3 6 1 0 73.42 64.06 5.95 o
7 3 6 1 1 0.21 1.95 1.94 <
7 3 7 -1 -1 1.17 -0.63 1.57 <
7 3 7 -1 0 5.97 6.17 2.61 <
7 3 7 -1 1 1.47 2.23 2.08 <
7 3 7 0 -1 48.68 61.75 6.23 o
7 3 7 0 0 362.32 397.81 15.60 o
7 3 7 0 1 0.20 -5.30 2.45 <
7 3 7 1 -1 6.04 0.12 2.45 <
7 3 7 1 0 48.96 60.30 6.16 o
7 3 7 1 1 0.83 -5.88 2.68 <
7 3 8 -1 -1 0.88 -5.99 2.63 <
7 3 8 -1 0 13.20 13.31 3.99 o
7 3 8 -1 1 3.47 -0.18 1.87 <
7 3 8 0 -1 2.68 -7.99 3.89 <
7 3 8 0 0 232.64 209.88 14.56 o
7 3 8 0 1 1.96 -7.36 3.96 <
7 3 8 1 -1 1.36 3.12 4.35 <
7 3 8 1 0 0.99 -16.23 4.63 <
7 3 8 1 1 0.40 1.32 2.67 <
7 3 9 -1 -1 0.08 2.29 4.08 <
7 3 9 -1 0 0.94 4.97 3.92 <
7 3 9 -1 1 0.65 0.49 2.70 <
7 4 0 -1 -1 0.68 2.38 0.93 <
7 4 0 -1 0 38.45 39.22 2.92 o
7 4 0 -1 1 2.65 3.25 0.87 o
7 4 0 0 -1 3.32 5.48 1.19 o
7 4 0 0 0 6.09 14.39 1.77 o
7 4 0 0 1 50.40 48.78 3.51 o
7 4 0 1 -1 12.15 6.39 1.25 o
7 4 0 1 0 98.50 96.22 4.39 o
7 4 0 1 1 22.74 14.24 2.22 o
7 4 1 -1 -1 8.78 7.87 0.87 o
7 4 1 -1 0 32.60 35.37 2.09 o
7 4 1 -1 1 0.83 -0.65 0.83 <
7 4 1 0 -1 9.28 11.43 1.23 o
7 4 1 0 0 152.40 181.80 4.82 o
7 4 1 0 1 6.40 6.57 0.95 o
7 4 1 1 -1 11.30 7.79 1.16 o
7 4 1 1 0 0.63 1.65 0.91 <
7 4 1 1 1 0.05 -0.51 0.90 <
7 4 2 -1 -1 14.53 13.64 1.51 o
7 4 2 -1 0 16.33 16.97 1.69 o
7 4 2 -1 1 0.04 0.26 0.96 <
7 4 2 0 -1 22.20 23.41 2.08 o
7 4 2 0 0 247.91 207.08 6.38 o
7 4 2 0 1 0.09 0.12 0.91 <
7 4 2 1 -1 0.10 0.16 1.23 <
7 4 2 1 0 20.89 14.56 2.04 o
7 4 2 1 1 7.35 3.22 1.18 <
7 4 3 -1 -1 15.29 17.27 2.10 o
7 4 3 -1 0 2.17 -0.52 0.99 <
7 4 3 -1 1 0.71 -1.17 1.27 <
7 4 3 0 -1 6.20 8.79 1.71 o
7 4 3 0 0 423.24 384.48 11.00 o
7 4 3 0 1 10.19 8.39 1.63 o
7 4 3 1 -1 4.55 1.75 1.20 <
7 4 3 1 0 1.51 0.90 1.32 <
7 4 3 1 1 2.10 0.95 1.39 <
7 4 4 -1 -1 0.87 0.54 1.10 <
7 4 4 -1 0 10.06 8.40 1.80 o
7 4 4 -1 1 1.32 0.69 1.28 <
7 4 4 0 -1 4.14 5.58 2.01 <
7 4 4 0 0 0.35 -2.03 2.17 <
7 4 4 0 1 40.99 47.65 4.67 o
7 4 4 1 -1 7.16 0.62 1.80 <
7 4 4 1 0 100.41 107.15 7.25 o
7 4 4 1 1 16.14 11.73 2.62 o
7 4 5 -1 -1 2.89 6.89 2.27 o
7 4 5 -1 0 74.11 78.25 6.27 o
7 4 5 -1 1 2.99 0.16 1.53 <
7 4 5 0 -1 3.92 4.28 1.76 <
7 4 5 0 0 715.10 752.55 19.85 o
7 4 5 0 1 19.26 20.12 3.13 o
7 4 5 1 -1 9.11 4.46 1.59 <
7 4 5 1 0 0.05 -2.16 2.06 <
7 4 5 1 1 0.46 -0.24 2.06 <
7 4 6 -1 -1 7.34 5.56 1.93 <
7 4 6 -1 0 0.21 2.87 1.64 <
7 4 6 -1 1 0.21 -0.50 1.92 <
7 4 6 0 -1 10.59 9.77 2.42 o
7 4 6 0 0 77.54 64.42 6.13 o
7 4 6 0 1 0.02 -1.15 1.95 <
7 4 6 1 -1 0.88 0.70 1.96 <
7 4 6 1 0 29.94 25.84 3.87 o
7 4 6 1 1 6.05 -1.94 2.71 <
7 4 7 -1 -1 9.52 10.82 2.37 o
7 4 7 -1 0 1.71 -1.51 1.89 <
7 4 7 -1 1 0.34 -5.03 2.45 <
7 4 7 0 -1 16.59 15.51 2.97 o
7 4 7 0 0 163.10 159.12 10.03 o
7 4 7 0 1 0.57 1.14 2.42 <
7 4 7 1 -1 4.70 -0.60 2.82 <
7 4 7 1 0 6.21 8.86 3.29 <
7 4 7 1 1 1.85 1.15 2.85 <
7 4 8 -1 -1 1.31 -1.07 2.44 <
7 4 8 -1 0 0.06 -4.40 3.50 <
7 4 8 -1 1 0.34 -2.64 3.27 <
7 4 8 0 -1 3.21 -6.73 3.43 <
7 4 8 0 0 14.01 8.05 4.41 <
7 4 8 0 1 22.04 22.13 5.82 o
7 5 0 -1 -1 2.13 0.97 0.95 <
7 5 0 -1 0 23.55 24.92 3.98 o
7 5 0 -1 1 6.13 1.99 1.59 <
7 5 0 0 -1 274.15 265.04 12.70 o
7 5 0 0 0 4770.94 4536.47 53.64 o
7 5 0 0 1 77.16 72.93 6.59 o
7 5 0 1 -1 20.72 24.38 4.99 o
7 5 0 1 0 81.15 191.62 13.93 o
7 5 0 1 1 4.19 2.52 1.96 <
7 5 1 -1 -1 1.76 1.77 0.74 <
7 5 1 -1 0 0.04 -1.18 0.68 <
7 5 1 -1 1 9.16 9.87 1.22 o
7 5 1 0 -1 0.04 -0.77 0.99 <
7 5 1 0 0 86.13 73.39 3.88 o
7 5 1 0 1 55.68 56.36 3.34 o
7 5 1 1 -1 1.07 -2.11 1.49 <
7 5 1 1 0 69.89 90.52 5.49 o
7 5 1 1 1 1.33 1.52 1.50 <
7 5 2 -1 -1 17.83 11.24 1.49 o
7 5 2 -1 0 55.97 62.00 3.98 o
7 5 2 -1 1 0.65 1.06 0.93 <
7 5 2 0 -1 7.45 8.74 1.68 o
7 5 2 0 0 456.79 510.12 11.72 o
7 5 2 0 1 18.39 19.24 2.25 o
7 5 2 1 -1 14.59 7.91 2.06 o
7 5 2 1 0 49.18 35.01 3.78 o
7 5 2 1 1 1.99 2.40 1.75 <
7 5 3 -1 -1 0.07 1.04 1.37 <
7 5 3 -1 0 14.04 16.60 2.47 o
7 5 3 -1 1 4.20 5.72 1.60 o
7 5 3 0 -1 92.73 94.01 6.60 o
7 5 3 0 0 1178.45 1156.70 21.18 o
7 5 3 0 1 17.63 12.97 1.98 o
7 5 3 1 -1 0.65 1.55 1.79 <
7 5 3 1 0 3.41 2.37 2.71 <
7 5 3 1 1 0.07 2.47 1.81 <
7 5 4 -1 -1 4.60 2.33 1.62 <
7 5 4 -1 0 2.25 -3.26 1.77 <
7 5 4 -1 1 1.33 0.63 1.54 <
7 5 4 0 -1 109.83 104.51 7.15 o
7 5 4 0 0 2282.51 2197.91 33.51 o
7 5 4 0 1 5.80 1.09 1.82 <
7 5 4 1 -1 8.35 10.69 2.15 o
7 5 4 1 0 17.45 26.36 3.83 o
7 5 4 1 1 2.50 0.81 1.64 <
7 5 5 -1 -1 4.03 2.23 1.68 <
7 5 5 -1 0 5.13 3.56 1.65 <
7 5 5 -1 1 10.63 9.09 2.02 o
7 5 5 0 -1 24.50 23.93 3.67 o
7 5 5 0 0 28.01 28.83 3.87 o
7 5 5 0 1 169.21 179.35 9.93 o
7 5 5 1 -1 0.77 0.30 1.90 <
7 5 5 1 0 170.17 200.22 10.68 o
7 5 5 1 1 1.75 2.69 1.75 <
7 5 6 -1 -1 4.61 6.12 2.64 <
7 5 6 -1 0 5.03 11.30 2.56 o
7 5 6 -1 1 0.64 -2.50 2.19 <
7 5 6 0 -1 13.87 10.76 2.73 o
7 5 6 0 0 1.03 0.26 1.98 <
7 5 6 0 1 14.46 15.18 3.18 o
7 5 6 1 -1 2.36 2.44 1.91 <
7 5 6 1 0 0.09 -0.01 2.20 <
7 5 6 1 1 2.27 2.58 2.81 <
7 5 7 -1 -1 0.49 0.74 2.11 <
7 5 7 -1 0 7.58 11.26 2.67 o
7 5 7 -1 1 0.93 0.55 2.30 <
7 5 7 0 -1 56.79 49.42 6.65 o
7 5 7 0 0 622.05 623.00 25.63 o
7 5 7 0 1 28.30 27.50 5.38 o
7 5 7 1 -1 0.72 2.45 6.30 <
7 5 7 1 0 6.46 4.41 3.73 <
7 5 7 1 1 0.17 1.94 4.36 <
7 5 8 -1 0 3.45 10.96 9.00 <
7 5 8 -1 1 0.09 0.66 6.57 <
7 6 0 -1 -1 26.12 21.24 4.38 o
7 6 0 -1 0 451.70 474.01 20.73 o
7 6 0 -1 1 2.78 5.81 2.75 <
7 6 0 0 -1 170.33 184.72 13.31 o
7 6 0 0 0 1448.64 1511.38 38.30 o
7 6 0 0 1 7.83 10.22 3.31 o
7 6 0 1 -1 34.20 30.53 5.73 o
7 6 0 1 0 118.06 187.61 13.91 o
7 6 0 1 1 0.05 1.00 1.95 <
7 6 1 -1 -1 2.59 4.79 1.34 o
7 6 1 -1 0 9.37 7.55 1.36 o
7 6 1 -1 1 0.13 1.13 1.21 <
7 6 1 0 -1 12.17 16.14 2.88 o
7 6 1 0 0 416.32 384.98 13.59 o
7 6 1 0 1 72.04 75.09 5.95 o
7 6 1 1 -1 0.10 0.11 1.85 <
7 6 1 1 0 41.93 69.59 6.04 o
7 6 1 1 1 4.25 6.48 2.06 o
7 6 2 -1 -1 8.08 5.43 1.67 o
7 6 2 -1 0 4.88 2.85 1.44 <
7 6 2 -1 1 0.98 0.60 1.42 <
7 6 2 0 -1 1.95 0.99 1.39 <
7 6 2 0 0 161.76 129.47 6.72 o
7 6 2 0 1 2.74 1.08 1.19 <
7 6 2 1 -1 1.03 1.81 1.68 <
7 6 2 1 0 127.06 112.91 7.77 o
7 6 2 1 1 1.28 0.79 1.97 <
7 6 3 -1 -1 1.02 0.70 1.50 <
7 6 3 -1 0 45.55 45.87 4.65 o
7 6 3 -1 1 0.66 -1.70 1.81 <
7 6 3 0 -1 60.20 69.70 5.86 o
7 6 3 0 0 264.31 252.25 10.98 o
7 6 3 0 1 4.80 2.78 1.52 <
7 6 3 1 -1 3.19 1.22 2.67 <
7 6 3 1 0 120.75 170.75 10.27 o
7 6 3 1 1 2.02 4.71 1.96 <
7 6 4 -1 -1 12.78 14.73 2.56 o
7 6 4 -1 0 302.51 302.62 12.39 o
7 6 4 -1 1 2.10 1.16 2.24 <
7 6 4 0 -1 24.76 28.07 3.87 o
7 6 4 0 0 147.85 174.52 9.65 o
7 6 4 0 1 4.75 -3.97 1.80 <
7 6 4 1 -1 22.50 12.92 2.37 o
7 6 4 1 0 136.73 166.01 9.58 o
7 6 4 1 1 0.53 3.16 1.86 <
7 6 5 -1 -1 2.68 -0.61 2.09 <
7 6 5 -1 0 0.14 0.10 1.83 <
7 6 5 -1 1 0.00 0.46 1.81 <
7 6 5 0 -1 0.30 -3.58 2.34 <
7 6 5 0 0 378.02 379.95 14.96 o
7 6 5 0 1 107.44 105.62 7.90 o
7 6 5 1 -1 0.86 -4.07 2.20 <
7 6 5 1 0 8.83 13.02 3.01 o
7 6 5 1 1 2.99 3.94 2.34 <
7 6 6 -1 -1 0.86 2.14 2.38 <
7 6 6 -1 0 0.05 -1.65 2.43 <
7 6 6 -1 1 0.70 -0.97 1.91 <
7 6 6 0 -1 66.78 66.76 8.18 o
7 6 6 0 0 393.64 442.93 17.90 o
7 6 6 0 1 25.62 31.12 4.30 o
7 6 6 1 -1 2.78 -5.51 4.08 <
7 6 6 1 0 143.60 90.78 14.70 o
7 6 6 1 1 0.17 -9.47 4.86 <
7 6 7 -1 -1 1.01 4.18 3.42 <
7 6 7 -1 0 31.58 28.43 8.32 o
7 6 7 -1 1 0.29 -1.70 4.92 <
7 6 7 0 -1 37.86 43.89 10.55 o
7 6 7 0 0 151.60 119.09 17.19 o
7 6 7 0 1 4.13 -16.08 6.73 <
7 6 7 1 -1 4.60 14.88 9.10 <
7 6 7 1 0 76.64 83.12 14.80 o
7 6 7 1 1 2.90 -11.43 7.69 <
7 7 0 -1 1 13.09 18.11 4.27 o
7 7 0 0 0 84.21 111.10 15.34 o
7 7 0 0 1 11.39 12.89 3.46 o
7 7 0 1 1 0.87 -0.61 2.26 <
7 7 1 -1 1 1.51 3.04 1.45 <
7 7 1 0 0 166.72 116.69 11.08 o
7 7 1 0 1 89.32 89.20 6.87 o
7 7 1 1 1 1.13 2.34 1.89 <
7 7 2 -1 1 19.27 11.67 2.67 o
7 7 2 0 0 1909.28 1682.05 43.26 o
7 7 2 0 1 59.23 53.72 5.40 o
7 7 2 1 1 27.21 15.59 3.22 o
7 7 3 -1 1 5.54 7.79 2.19 o
7 7 3 0 0 218.81 294.87 21.31 o
7 7 3 0 1 9.95 8.61 2.99 <
7 7 3 1 1 5.33 1.42 2.50 <
7 7 4 -1 1 9.74 11.07 2.49 o
7 7 4 0 0 309.66 383.82 25.07 o
7 7 4 0 1 13.28 8.45 2.61 o
7 7 4 1 1 3.05 -3.73 2.67 <
7 7 5 -1 1 0.05 0.68 2.71 <
7 7 5 0 0 643.01 607.70 55.36 o
7 7 5 0 1 127.11 142.41 27.12 o
7 7 6 -1 1 11.93 4.68 3.99 <
7 7 7 -1 1 5.10 -0.02 5.10 <
8 0 0 -1 1 1.06 1.41 1.24 <
8 0 0 0 0 6533.66 6393.02 61.74 o
8 0 0 0 1 120.62 132.95 5.48 o
8 0 0 1 0 77.59 85.58 5.03 o
8 0 0 1 1 16.08 23.96 2.55 o
8 0 1 0 1 48.32 42.65 2.16 o
8 0 1 1 0 41.45 50.94 2.87 o
8 0 1 1 1 0.15 0.39 0.70 <
8 0 2 -1 1 41.26 42.99 3.13 o
8 0 2 0 0 4773.95 4759.09 41.37 o
8 0 2 0 1 8.66 8.10 1.06 o
8 0 2 1 -1 25.84 21.93 3.14 o
8 0 2 1 0 0.43 -1.24 0.86 <
8 0 2 1 1 5.90 8.84 1.23 o
8 0 3 0 1 0.47 1.43 0.89 <
8 0 3 1 0 4.01 5.27 1.21 o
8 0 3 1 1 2.66 0.66 1.00 <
8 0 4 -1 1 0.01 -1.21 1.24 <
8 0 4 0 0 1552.65 1571.33 26.18 o
8 0 4 0 1 20.25 19.53 2.04 o
8 0 4 1 -1 27.88 22.38 3.56 o
8 0 4 1 0 9.99 10.37 1.52 o
8 0 4 1 1 6.68 8.85 1.60 o
8 0 5 0 1 81.65 76.77 4.96 o
8 0 5 1 0 58.60 74.06 4.83 o
8 0 5 1 1 3.00 3.97 1.63 <
8 0 6 -1 1 39.85 41.49 5.54 o
8 0 6 0 0 178.71 172.87 11.30 o
8 0 6 0 1 81.31 84.07 5.95 o
8 0 6 1 -1 9.51 7.29 3.07 <
8 0 6 1 0 46.08 51.48 4.31 o
8 0 6 1 1 11.41 14.17 2.38 o
8 0 7 0 1 0.01 -0.70 1.82 <
8 0 7 1 0 0.94 -2.55 2.95 <
8 0 7 1 1 4.29 -0.33 2.13 <
8 0 8 -1 1 0.99 6.36 4.16 <
8 1 0 -1 -1 0.06 0.70 1.26 <
8 1 0 -1 0 255.48 268.59 7.62 o
8 1 0 -1 1 2.39 1.60 0.93 <
8 1 0 0 -1 25.77 21.70 2.40 o
8 1 0 0 0 0.33 1.80 0.91 <
8 1 0 0 1 161.58 158.24 5.93 o
8 1 0 1 -1 8.00 6.37 1.44 o
8 1 0 1 0 10.23 7.42 1.62 o
8 1 0 1 1 0.11 -2.20 0.98 <
8 1 1 -1 -1 4.40 4.47 0.90 o
8 1 1 -1 0 1.56 2.06 0.66 o
8 1 1 -1 1 4.23 6.41 0.98 o
8 1 1 0 -1 110.91 112.04 3.97 o
8 1 1 0 0 165.13 174.87 4.50 o
8 1 1 0 1 0.07 0.46 0.61 <
8 1 1 1 -1 13.95 17.01 1.78 o
8 1 1 1 0 26.55 27.92 1.97 o
8 1 1 1 1 2.70 2.50 0.74 o
8 1 2 -1 -1 16.77 18.01 1.60 o
8 1 2 -1 0 43.39 40.98 2.30 o
8 1 2 -1 1 13.46 13.71 1.30 o
8 1 2 0 -1 353.35 379.77 7.46 o
8 1 2 0 0 8.06 14.73 1.50 o
8 1 2 0 1 39.94 38.99 2.37 o
8 1 2 1 -1 2.07 1.17 0.83 <
8 1 2 1 0 51.87 52.37 2.96 o
8 1 2 1 1 0.40 -2.90 1.00 <
8 1 3 -1 -1 6.64 6.23 1.01 o
8 1 3 -1 0 63.68 65.20 3.28 o
8 1 3 -1 1 8.51 9.03 1.24 o
8 1 3 0 -1 0.45 1.65 0.99 <
8 1 3 0 0 464.28 459.00 8.78 o
8 1 3 0 1 17.93 19.23 1.85 o
8 1 3 1 -1 3.69 4.86 1.26 o
8 1 3 1 0 3.33 7.51 1.44 o
8 1 3 1 1 3.16 3.74 1.22 o
8 1 4 -1 -1 0.02 -2.26 1.03 <
8 1 4 -1 0 137.24 148.71 5.27 o
8 1 4 -1 1 1.78 -2.69 0.94 <
8 1 4 0 -1 0.52 -1.19 1.36 <
8 1 4 0 0 3.66 5.05 1.16 o
8 1 4 0 1 103.43 103.62 5.10 o
8 1 4 1 -1 4.29 -0.93 1.34 <
8 1 4 1 0 23.87 18.75 2.36 o
8 1 4 1 1 0.03 -0.31 1.50 <
8 1 5 -1 -1 2.29 1.92 1.03 <
8 1 5 -1 0 6.71 3.98 1.21 o
8 1 5 -1 1 1.58 0.65 1.54 <
8 1 5 0 -1 196.55 200.59 8.00 o
8 1 5 0 0 721.33 750.79 15.31 o
8 1 5 0 1 1.80 1.09 1.35 <
8 1 5 1 -1 16.49 18.60 2.53 o
8 1 5 1 0 49.15 59.45 4.65 o
8 1 5 1 1 1.43 -3.96 1.67 <
8 1 6 -1 -1 11.19 10.20 2.01 o
8 1 6 -1 0 4.89 4.85 1.70 <
8 1 6 -1 1 8.13 10.90 1.96 o
8 1 6 0 -1 104.94 126.59 7.20 o
8 1 6 0 0 0.43 1.76 1.46 <
8 1 6 0 1 14.00 17.10 2.52 o
8 1 6 1 -1 2.81 -2.14 2.23 <
8 1 6 1 0 76.20 81.18 6.46 o
8 1 6 1 1 1.21 -1.94 1.90 <
8 1 7 -1 -1 2.43 4.18 2.36 <
8 1 7 -1 0 33.95 40.13 4.76 o
8 1 7 -1 1 3.51 0.86 1.41 <
8 1 7 0 -1 0.40 -1.14 2.58 <
8 1 7 0 0 127.68 122.49 8.06 o
8 1 7 0 1 3.83 1.09 1.87 <
8 1 7 1 -1 1.54 2.15 2.79 <
8 1 7 1 0 0.46 -3.41 2.50 <
8 1 7 1 1 1.77 -2.32 2.69 <
8 1 8 -1 0 43.68 34.99 12.06 <
8 1 8 -1 1 0.65 -3.69 2.68 <
8 1 8 0 0 16.17 17.20 5.25 o
8 1 8 0 1 43.94 48.29 9.56 o
8 1 8 1 1 0.60 2.54 3.02 <
8 2 0 -1 -1 12.03 13.97 1.93 o
8 2 0 -1 0 194.18 182.76 6.69 o
8 2 0 -1 1 0.81 24.74 3.79 o
8 2 0 0 -1 32.77 31.68 2.98 o
8 2 0 0 0 4597.47 4315.75 35.70 o
8 2 0 0 1 0.53 2.61 1.43 <
8 2 0 1 -1 1.44 3.01 1.99 <
8 2 0 1 0 0.26 -2.67 1.25 <
8 2 0 1 1 25.74 19.26 2.24 o
8 2 1 -1 -1 1.75 0.49 0.76 <
8 2 1 -1 0 20.12 21.10 1.69 o
8 2 1 -1 1 1.66 0.32 0.93 <
8 2 1 0 -1 33.88 37.85 2.28 o
8 2 1 0 0 478.79 430.67 7.66 o
8 2 1 0 1 0.76 0.12 0.71 <
8 2 1 1 -1 0.33 -0.62 0.79 <
8 2 1 1 0 0.02 -0.99 0.78 <
8 2 1 1 1 8.96 5.01 0.95 o
8 2 2 -1 -1 0.21 1.04 0.72 <
8 2 2 -1 0 4.66 4.04 0.83 o
8 2 2 -1 1 6.14 7.10 0.98 o
8 2 2 0 -1 5.04 5.25 1.01 o
8 2 2 0 0 1010.92 1003.18 12.05 o
8 2 2 0 1 0.17 -0.61 0.86 <
8 2 2 1 -1 0.05 -1.68 1.03 <
8 2 2 1 0 8.79 8.90 1.22 o
8 2 2 1 1 1.55 -0.92 1.02 <
8 2 3 -1 -1 6.48 4.10 1.08 o
8 2 3 -1 0 61.07 59.22 3.51 o
8 2 3 -1 1 0.15 -0.78 1.09 <
8 2 3 0 -1 1.85 2.61 1.23 <
8 2 3 0 0 850.23 784.53 15.27 o
8 2 3 0 1 0.33 1.39 1.09 <
8 2 3 1 -1 1.11 -5.22 1.59 <
8 2 3 1 0 23.21 17.98 2.29 o
8 2 3 1 1 3.36 1.50 0.89 <
8 2 4 -1 -1 11.69 7.32 1.67 o
8 2 4 -1 0 92.49 89.88 4.94 o
8 2 4 -1 1 0.92 1.97 1.09 <
8 2 4 0 -1 11.03 9.02 1.76 o
8 2 4 0 0 3276.88 3059.22 32.17 o
8 2 4 0 1 0.22 0.25 1.08 <
8 2 4 1 -1 0.33 -3.07 1.96 <
8 2 4 1 0 4.56 -4.96 2.04 <
8 2 4 1 1 15.23 13.77 2.44 o
8 2 5 -1 -1 0.08 -2.68 1.30 <
8 2 5 -1 0 4.47 3.51 1.57 <
8 2 5 -1 1 2.22 -1.56 1.44 <
8 2 5 0 -1 71.20 79.26 5.86 o
8 2 5 0 0 183.29 160.10 7.86 o
8 2 5 0 1 2.67 -0.05 1.28 <
8 2 5 1 -1 0.26 -0.09 2.06 <
8 2 5 1 0 3.48 4.78 1.36 o
8 2 5 1 1 10.20 6.15 2.07 <
8 2 6 -1 -1 0.04 -1.14 1.97 <
8 2 6 -1 0 3.96 3.50 1.62 <
8 2 6 -1 1 2.79 3.72 1.71 <
8 2 6 0 -1 0.28 -1.81 2.17 <
8 2 6 0 0 518.72 520.33 17.50 o
8 2 6 0 1 0.11 -5.35 2.27 <
8 2 6 1 -1 1.18 0.66 1.87 <
8 2 6 1 0 23.20 25.51 3.84 o
8 2 6 1 1 0.10 2.31 2.49 <
8 2 7 -1 -1 4.48 -0.75 2.11 <
8 2 7 -1 0 33.14 33.31 4.42 o
8 2 7 -1 1 0.21 -1.58 1.92 <
8 2 7 0 -1 1.56 1.89 1.93 <
8 2 7 0 0 542.53 523.38 18.12 o
8 2 7 0 1 0.05 -2.30 2.14 <
8 2 7 1 -1 0.06 -8.66 3.21 <
8 2 7 1 0 6.18 3.66 2.29 <
8 2 7 1 1 1.28 -6.91 3.20 <
8 2 8 -1 -1 8.24 -7.03 5.57 <
8 2 8 -1 0 14.85 13.90 3.79 o
8 2 8 -1 1 0.77 -4.68 2.78 <
8 2 8 0 -1 0.42 -2.92 4.10 <
8 2 8 0 0 1624.43 1626.70 60.26 o
8 2 8 0 1 0.09 6.75 3.30 <
8 2 8 1 0 8.38 0.48 4.45 <
8 2 8 1 1 5.70 5.13 2.76 <
8 3 0 -1 -1 5.93 2.28 1.09 <
8 3 0 -1 0 124.61 119.08 5.06 o
8 3 0 -1 1 6.18 9.45 2.09 o
8 3 0 0 -1 260.97 258.23 8.28 o
8 3 0 0 0 6.79 4.64 1.21 o
8 3 0 0 1 28.47 42.98 2.86 o
8 3 0 1 -1 6.86 -2.40 2.20 <
8 3 0 1 0 196.09 242.55 7.49 o
8 3 0 1 1 0.90 2.33 1.29 <
8 3 1 -1 -1 0.94 1.99 0.85 <
8 3 1 -1 0 21.00 21.02 1.60 o
8 3 1 -1 1 7.73 9.28 1.05 o
8 3 1 0 -1 93.18 95.71 3.70 o
8 3 1 0 0 58.38 57.86 2.63 o
8 3 1 0 1 2.15 1.80 0.78 <
8 3 1 1 -1 4.46 4.83 1.09 o
8 3 1 1 0 0.27 -0.50 0.96 <
8 3 1 1 1 0.94 1.84 0.77 <
8 3 2 -1 -1 1.31 -1.81 0.91 <
8 3 2 -1 0 213.58 215.83 5.91 o
8 3 2 -1 1 29.46 17.42 1.61 o
8 3 2 0 -1 62.10 67.90 3.99 o
8 3 2 0 0 691.08 659.99 10.52 o
8 3 2 0 1 65.50 75.42 3.50 o
8 3 2 1 -1 0.01 -1.49 1.26 <
8 3 2 1 0 21.02 30.35 3.15 o
8 3 2 1 1 17.28 16.20 1.98 o
8 3 3 -1 -1 1.75 2.24 1.44 <
8 3 3 -1 0 30.53 30.23 2.64 o
8 3 3 -1 1 12.63 9.99 1.29 o
8 3 3 0 -1 3.35 2.10 1.29 <
8 3 3 0 0 729.16 756.48 15.62 o
8 3 3 0 1 95.27 96.72 5.25 o
8 3 3 1 -1 0.00 0.29 1.46 <
8 3 3 1 0 30.34 41.42 3.93 o
8 3 3 1 1 5.94 8.12 1.89 o
8 3 4 -1 -1 2.39 -0.57 1.41 <
8 3 4 -1 0 74.08 69.43 4.93 o
8 3 4 -1 1 2.49 -0.96 1.48 <
8 3 4 0 -1 199.59 195.75 9.20 o
8 3 4 0 0 2.92 3.56 1.49 <
8 3 4 0 1 3.72 -1.86 1.40 <
8 3 4 1 -1 2.34 -5.49 1.98 <
8 3 4 1 0 249.63 308.03 12.48 o
8 3 4 1 1 0.06 0.09 1.55 <
8 3 5 -1 -1 0.44 -1.37 2.05 <
8 3 5 -1 0 11.13 10.30 2.30 o
8 3 5 -1 1 3.76 4.45 1.86 <
8 3 5 0 -1 155.29 162.54 8.87 o
8 3 5 0 0 573.40 576.61 17.61 o
8 3 5 0 1 11.12 9.38 1.97 o
8 3 5 1 -1 11.03 12.55 3.04 o
8 3 5 1 0 12.16 7.12 2.21 o
8 3 5 1 1 0.04 -3.52 2.15 <
8 3 6 -1 -1 3.49 -0.27 2.20 <
8 3 6 -1 0 107.17 105.25 7.79 o
8 3 6 -1 1 12.62 0.26 2.12 <
8 3 6 0 -1 42.99 44.87 5.26 o
8 3 6 0 0 485.90 465.02 16.53 o
8 3 6 0 1 116.51 124.45 8.56 o
8 3 6 1 -1 1.55 -7.38 2.48 <
8 3 6 1 0 0.76 -5.00 2.11 <
8 3 6 1 1 6.19 3.04 2.48 <
8 3 7 -1 -1 1.23 -1.38 3.25 <
8 3 7 -1 0 17.60 15.45 2.97 o
8 3 7 -1 1 7.34 9.05 2.69 o
8 3 7 0 -1 0.74 -2.19 3.50 <
8 3 7 0 0 352.49 378.12 19.18 o
8 3 7 0 1 57.50 58.37 7.32 o
8 3 7 1 -1 0.53 -0.99 2.73 <
8 3 7 1 0 13.95 22.88 4.95 o
8 3 7 1 1 3.01 3.44 2.35 <
8 3 8 -1 -1 0.12 4.54 4.08 <
8 3 8 -1 0 25.99 30.51 6.95 o
8 3 8 -1 1 0.30 -2.10 2.93 <
8 3 8 0 -1 119.25 134.70 17.74 o
8 3 8 0 0 2.35 -1.07 3.35 <
8 3 8 0 1 4.28 -5.49 4.70 <
8 4 0 -1 -1 30.38 35.86 2.84 o
8 4 0 -1 0 134.75 133.45 4.64 o
8 4 0 -1 1 10.78 8.05 1.16 o
8 4 0 0 -1 313.41 302.95 9.42 o
8 4 0 0 0 89.85 71.74 4.64 o
8 4 0 0 1 226.75 217.57 8.00 o
8 4 0 1 -1 33.27 24.91 4.89 o
8 4 0 1 0 36.85 28.02 4.15 o
8 4 0 1 1 0.19 2.54 1.80 <
8 4 1 -1 -1 1.12 -0.76 0.81 <
8 4 1 -1 0 59.13 57.90 2.75 o
8 4 1 -1 1 3.33 0.62 0.78 <
8 4 1 0 -1 1.13 1.98 1.23 <
8 4 1 0 0 714.68 617.58 14.05 o
8 4 1 0 1 94.61 87.88 4.92 o
8 4 1 1 -1 1.01 -3.20 1.58 <
8 4 1 1 0 63.39 74.10 5.46 o
8 4 1 1 1 17.57 8.60 1.76 o
8 4 2 -1 -1 7.07 10.16 1.44 o
8 4 2 -1 0 65.33 61.70 3.87 o
8 4 2 -1 1 0.06 -1.30 1.07 <
8 4 2 0 -1 65.05 59.22 4.45 o
8 4 2 0 0 2.79 2.86 1.25 <
8 4 2 0 1 8.89 11.13 2.09 o
8 4 2 1 -1 0.20 -1.47 1.52 <
8 4 2 1 0 0.49 -1.23 1.37 <
8 4 2 1 1 13.38 13.44 2.45 o
8 4 3 -1 -1 1.18 -0.04 1.49 <
8 4 3 -1 0 78.86 70.82 5.62 o
8 4 3 -1 1 2.78 -1.43 1.53 <
8 4 3 0 -1 14.51 8.55 2.03 o
8 4 3 0 0 465.79 415.07 13.84 o
8 4 3 0 1 217.91 210.96 9.89 o
8 4 3 1 -1 4.22 1.58 1.92 <
8 4 3 1 0 40.39 50.28 4.97 o
8 4 3 1 1 3.24 0.43 1.90 <
8 4 4 -1 -1 21.01 26.07 3.39 o
8 4 4 -1 0 65.59 66.73 5.80 o
8 4 4 -1 1 5.22 5.25 2.02 <
8 4 4 0 -1 73.82 65.20 5.70 o
8 4 4 0 0 465.16 520.76 16.34 o
8 4 4 0 1 39.20 36.29 4.39 o
8 4 4 1 -1 28.26 25.79 3.74 o
8 4 4 1 0 41.02 31.93 3.96 o
8 4 4 1 1 0.04 2.55 2.10 <
8 4 5 -1 -1 0.64 -0.70 1.89 <
8 4 5 -1 0 31.25 29.52 3.88 o
8 4 5 -1 1 2.59 -0.79 1.80 <
8 4 5 0 -1 15.19 21.66 3.69 o
8 4 5 0 0 657.51 610.55 18.53 o
8 4 5 0 1 24.22 19.95 3.21 o
8 4 5 1 -1 0.02 -1.04 1.82 <
8 4 5 1 0 57.17 63.34 6.02 o
8 4 5 1 1 29.71 15.33 2.57 o
8 4 6 -1 -1 6.27 8.62 2.42 o
8 4 6 -1 0 94.14 94.12 7.47 o
8 4 6 -1 1 0.30 -0.73 2.00 <
8 4 6 0 -1 14.45 10.25 2.31 o
8 4 6 0 0 1907.68 1872.82 34.28 o
8 4 6 0 1 58.24 58.92 5.93 o
8 4 6 1 -1 0.07 -2.18 2.75 <
8 4 6 1 0 0.27 -10.09 3.75 <
8 4 6 1 1 13.88 14.37 3.18 o
8 4 7 -1 -1 1.10 -4.67 3.33 <
8 4 7 -1 0 46.48 41.49 6.17 o
8 4 7 -1 1 1.67 7.12 2.89 <
8 4 7 0 -1 10.55 11.05 3.63 o
8 4 7 0 0 253.54 231.21 15.35 o
8 4 7 0 1 134.59 150.64 12.31 o
8 4 7 1 -1 3.40 3.35 5.89 <
8 4 7 1 0 26.46 28.63 7.95 o
8 4 7 1 1 0.01 2.17 5.68 <
8 4 8 -1 -1 10.09 6.80 3.07 <
8 5 0 -1 -1 1.37 8.14 2.89 <
8 5 0 -1 0 39.44 43.92 5.33 o
8 5 0 -1 1 1.33 6.29 2.90 <
8 5 0 0 -1 9.36 5.67 2.80 <
8 5 0 0 0 707.06 616.41 24.49 o
8 5 0 0 1 25.41 32.00 5.79 o
8 5 0 1 -1 34.01 29.06 5.71 o
8 5 0 1 0 43.31 36.46 6.53 o
8 5 0 1 1 10.98 14.10 4.39 o
8 5 1 -1 -1 0.15 -0.14 1.43 <
8 5 1 -1 0 30.99 32.23 3.28 o
8 5 1 -1 1 14.31 13.88 1.95 o
8 5 1 0 -1 11.16 14.71 2.44 o
8 5 1 0 0 1030.54 1129.49 21.49 o
8 5 1 0 1 57.81 54.22 4.58 o
8 5 1 1 -1 0.00 -0.80 2.00 <
8 5 1 1 0 9.79 16.12 3.55 o
8 5 1 1 1 13.23 15.59 2.67 o
8 5 2 -1 -1 0.30 0.49 1.45 <
8 5 2 -1 0 19.20 19.61 2.88 o
8 5 2 -1 1 14.03 9.86 1.97 o
8 5 2 0 -1 18.98 15.60 2.64 o
8 5 2 0 0 104.10 82.06 5.69 o
8 5 2 0 1 28.94 32.65 3.56 o
8 5 2 1 -1 4.78 1.68 2.10 <
8 5 2 1 0 206.94 226.60 11.80 o
8 5 2 1 1 2.12 -0.38 1.97 <
8 5 3 -1 -1 0.39 -1.11 1.62 <
8 5 3 -1 0 1.03 4.51 1.78 <
8 5 3 -1 1 3.69 1.81 1.65 <
8 5 3 0 -1 3.43 1.56 1.28 <
8 5 3 0 0 30.46 18.56 3.14 o
8 5 3 0 1 0.53 -0.86 1.81 <
8 5 3 1 -1 1.20 1.63 1.68 <
8 5 3 1 0 3.86 3.57 1.89 <
8 5 3 1 1 12.33 8.26 2.45 o
8 5 4 -1 -1 0.22 -2.22 1.54 <
8 5 4 -1 0 75.03 75.19 6.31 o
8 5 4 -1 1 0.10 -4.07 2.45 <
8 5 4 0 -1 0.30 1.51 1.66 <
8 5 4 0 0 445.13 399.86 14.57 o
8 5 4 0 1 35.93 42.48 4.85 o
8 5 4 1 -1 18.89 17.66 3.61 o
8 5 4 1 0 15.47 10.21 2.95 o
8 5 4 1 1 7.89 0.50 2.54 <
8 5 5 -1 -1 0.03 -6.48 2.46 <
8 5 5 -1 0 45.36 41.51 4.71 o
8 5 5 -1 1 15.96 13.91 2.75 o
8 5 5 0 -1 20.81 22.68 3.47 o
8 5 5 0 0 2170.38 2318.17 37.34 o
8 5 5 0 1 103.17 106.14 7.90 o
8 5 5 1 -1 0.51 -1.74 3.19 <
8 5 5 1 0 8.36 -0.90 3.05 <
8 5 5 1 1 8.31 10.96 2.91 o
8 5 6 -1 -1 0.21 -1.55 3.00 <
8 5 6 -1 0 0.92 -1.81 2.24 <
8 5 6 -1 1 4.19 1.17 2.54 <
8 5 6 0 -1 65.75 51.39 7.22 o
8 5 6 0 0 157.83 140.67 11.67 o
8 5 6 0 1 6.27 5.09 2.82 <
8 5 6 1 -1 9.32 17.50 8.97 <
8 5 6 1 0 89.86 99.01 15.87 o
8 5 6 1 1 2.46 -0.64 2.30 <
8 5 7 -1 -1 1.32 -5.77 3.91 <
8 5 7 -1 0 2.53 0.71 4.92 <
8 5 7 -1 1 2.76 8.99 4.67 <
8 5 7 0 -1 0.71 -10.76 5.58 <
8 5 7 0 0 5.57 20.80 7.12 <
8 5 7 0 1 0.90 10.69 5.92 <
8 6 0 -1 -1 11.09 17.27 4.19 o
8 6 0 -1 0 62.09 62.47 7.82 o
8 6 0 -1 1 2.99 0.22 2.19 <
8 6 0 0 -1 85.65 84.29 9.41 o
8 6 0 0 0 1920.56 1990.41 46.29 o
8 6 0 0 1 0.07 -0.76 2.54 <
8 6 0 1 -1 9.07 14.79 4.45 o
8 6 0 1 0 22.85 51.10 8.18 o
8 6 0 1 1 3.14 3.35 2.39 <
8 6 1 -1 -1 8.89 6.64 2.05 o
8 6 1 -1 0 10.23 14.06 3.01 o
8 6 1 -1 1 9.36 11.88 2.54 o
8 6 1 0 -1 2.04 -1.41 2.05 <
8 6 1 0 0 169.54 191.49 10.10 o
8 6 1 0 1 9.79 9.78 2.11 o
8 6 1 1 -1 0.10 2.84 1.55 <
8 6 1 1 0 64.73 90.10 7.24 o
8 6 1 1 1 0.23 -1.57 1.89 <
8 6 2 -1 -1 4.06 6.55 1.81 o
8 6 2 -1 0 2.41 4.41 1.94 <
8 6 2 -1 1 3.34 1.71 1.45 <
8 6 2 0 -1 6.48 6.80 2.64 <
8 6 2 0 0 544.22 502.89 17.79 o
8 6 2 0 1 56.26 56.23 5.98 o
8 6 2 1 -1 0.01 -0.49 1.69 <
8 6 2 1 0 0.99 7.84 3.14 <
8 6 2 1 1 20.31 23.71 4.19 o
8 6 3 -1 -1 3.05 1.73 1.25 <
8 6 3 -1 0 11.87 13.19 2.44 o
8 6 3 -1 1 15.84 20.91 3.10 o
8 6 3 0 -1 33.76 27.02 4.48 o
8 6 3 0 0 74.02 77.82 7.85 o
8 6 3 0 1 4.93 3.07 1.32 <
8 6 3 1 -1 0.60 0.61 2.52 <
8 6 3 1 0 11.19 19.17 4.02 o
8 6 3 1 1 0.31 2.20 2.58 <
8 6 4 -1 -1 11.00 11.31 2.40 o
8 6 4 -1 0 90.19 92.85 7.16 o
8 6 4 -1 1 3.87 3.63 1.96 <
8 6 4 0 -1 77.98 79.29 8.02 o
8 6 4 0 0 1751.21 1809.60 39.09 o
8 6 4 0 1 4.90 5.84 2.89 <
8 6 4 1 -1 8.15 4.11 3.92 <
8 6 4 1 0 42.39 17.85 5.47 o
8 6 4 1 1 1.75 -1.57 2.80 <
8 6 5 -1 -1 9.83 7.44 2.27 o
8 6 5 -1 0 44.29 46.02 5.21 o
8 6 5 -1 1 4.25 5.36 2.21 <
8 6 5 0 -1 1.58 3.05 4.78 <
8 6 5 0 0 169.01 202.77 18.38 o
8 6 5 0 1 12.09 10.52 3.94 <
8 6 6 -1 -1 1.88 -3.66 4.08 <
8 6 6 -1 0 4.10 4.89 3.91 <
8 6 6 -1 1 4.27 -15.60 6.07 <
8 6 7 -1 -1 2.30 6.12 6.33 <
8 6 7 -1 0 10.71 15.30 6.10 <
8 6 7 -1 1 9.85 13.06 8.60 <
8 7 0 -1 -1 10.31 21.89 5.19 o
8 7 0 -1 0 25.59 22.42 5.05 o
8 7 0 -1 1 0.09 -0.02 2.35 <
8 7 0 0 -1 0.90 1.10 3.05 <
8 7 0 0 0 0.53 0.74 3.61 <
8 7 0 0 1 30.32 22.42 5.29 o
8 7 0 1 -1 0.18 -2.64 3.80 <
8 7 0 1 0 206.56 186.31 14.97 o
8 7 0 1 1 1.15 4.07 3.54 <
8 7 1 -1 -1 10.99 10.70 2.41 o
8 7 1 -1 0 0.40 4.15 2.15 <
8 7 1 -1 1 0.69 0.69 2.02 <
8 7 1 0 -1 79.98 93.86 7.41 o
8 7 1 0 0 530.94 587.27 18.56 o
8 7 1 0 1 4.62 5.53 2.08 <
8 7 1 1 -1 2.43 2.04 1.83 <
8 7 1 1 0 17.05 40.16 5.05 o
8 7 1 1 1 0.77 -0.39 2.34 <
8 7 2 -1 -1 10.47 10.42 2.72 o
8 7 2 -1 0 196.95 202.83 11.58 o
8 7 2 -1 1 1.65 -2.19 1.87 <
8 7 2 0 -1 57.66 50.42 6.11 o
8 7 2 0 0 0.03 5.95 2.45 <
8 7 2 0 1 65.15 73.28 7.08 o
8 7 2 1 -1 18.61 25.64 6.18 o
8 7 2 1 0 64.07 82.80 12.09 o
8 7 2 1 1 5.86 9.88 4.86 <
8 7 3 -1 -1 5.48 6.71 2.98 <
8 7 3 -1 0 17.53 24.03 4.25 o
8 7 3 -1 1 0.94 -3.01 2.30 <
8 7 3 0 -1 3.36 -2.21 2.41 <
8 7 3 0 0 9.74 11.15 3.45 o
8 7 3 0 1 33.66 36.20 5.51 o
8 7 4 -1 -1 9.23 5.51 2.98 <
8 7 4 -1 0 36.78 35.15 5.62 o
8 7 4 -1 1 0.29 2.05 2.27 <
8 8 0 -1 1 10.35 4.91 2.26 <
8 8 0 0 1 112.73 115.58 24.35 o
8 8 1 -1 1 8.05 4.13 2.70 <
8 8 1 0 1 7.66 7.77 6.41 <
8 8 2 -1 1 0.95 4.88 1.97 <
9 0 0 0 1 7.75 10.53 1.87 o
9 0 0 1 0 276.98 305.87 11.72 o
9 0 0 1 1 9.29 11.88 2.02 o
9 0 1 -1 1 7.14 1.88 1.09 <
9 0 1 0 0 1839.92 1760.80 25.66 o
9 0 1 0 1 3.74 6.29 1.21 o
9 0 1 1 -1 6.95 19.35 3.76 o
9 0 1 1 0 50.71 38.76 2.93 o
9 0 1 1 1 12.87 7.08 1.26 o
9 0 2 0 1 35.20 42.56 2.64 o
9 0 2 1 0 18.59 25.29 2.38 o
9 0 2 1 1 0.81 -0.43 0.98 <
9 0 3 -1 1 2.73 -0.64 1.17 <
9 0 3 0 0 1.45 9.61 2.61 o
9 0 3 0 1 32.75 33.93 2.94 o
9 0 3 1 -1 1.34 -1.18 1.35 <
9 0 3 1 0 4.25 6.42 1.39 o
9 0 3 1 1 9.58 4.52 1.41 o
9 0 4 0 1 2.55 5.27 1.46 o
9 0 4 1 0 282.31 311.38 9.68 o
9 0 4 1 1 6.44 6.67 1.60 o
9 0 5 -1 1 7.06 3.11 1.94 <
9 0 5 0 0 3443.27 3508.39 48.01 o
9 0 5 0 1 0.08 -1.78 1.73 <
9 0 5 1 -1 9.32 0.56 2.66 <
9 0 5 1 0 110.59 102.35 6.98 o
9 0 5 1 1 13.62 3.03 1.43 <
9 0 6 0 1 39.38 44.90 4.94 o
9 0 6 1 0 1.32 2.73 2.30 <
9 0 6 1 1 0.16 -8.05 2.32 <
9 0 7 -1 1 1.58 13.44 6.43 <
9 0 7 1 1 2.93 5.54 2.95 <
9 1 0 -1 -1 7.89 5.60 1.60 o
9 1 0 -1 0 16.07 18.79 2.51 o
9 1 0 -1 1 9.37 11.67 1.87 o
9 1 0 0 -1 54.08 54.56 4.94 o
9 1 0 0 0 411.23 359.81 11.34 o
9 1 0 0 1 66.17 80.64 4.95 o
9 1 0 1 -1 10.05 18.93 3.16 o
9 1 0 1 0 285.74 339.73 12.39 o
9 1 0 1 1 16.62 17.38 2.91 o
9 1 1 -1 -1 1.80 5.56 1.28 o
9 1 1 -1 0 29.64 30.73 2.40 o
9 1 1 -1 1 18.47 19.19 1.72 o
9 1 1 0 -1 0.76 0.60 0.96 <
9 1 1 0 0 722.39 694.41 11.99 o
9 1 1 0 1 172.98 171.08 5.15 o
9 1 1 1 -1 7.31 8.85 1.78 o
9 1 1 1 0 11.23 6.63 1.30 o
9 1 1 1 1 1.73 6.11 1.36 o
9 1 2 -1 -1 6.92 4.04 1.43 <
9 1 2 -1 0 27.76 30.94 2.45 o
9 1 2 -1 1 1.94 3.13 0.88 o
9 1 2 0 -1 30.43 35.11 2.83 o
9 1 2 0 0 148.48 161.24 5.86 o
9 1 2 0 1 143.06 153.00 5.44 o
9 1 2 1 -1 5.19 2.70 1.08 <
9 1 2 1 0 39.65 56.74 3.86 o
9 1 2 1 1 0.33 0.14 1.00 <
9 1 3 -1 -1 0.48 2.26 1.17 <
9 1 3 -1 0 0.06 -2.06 1.07 <
9 1 3 -1 1 6.95 4.13 1.20 o
9 1 3 0 -1 7.45 6.42 1.34 o
9 1 3 0 0 29.86 25.29 2.83 o
9 1 3 0 1 38.06 32.87 3.08 o
9 1 3 1 -1 13.58 15.07 2.40 o
9 1 3 1 0 35.45 29.10 3.15 o
9 1 3 1 1 0.01 2.65 1.70 <
9 1 4 -1 -1 5.25 0.63 1.47 <
9 1 4 -1 0 42.05 42.38 3.44 o
9 1 4 -1 1 4.44 6.11 1.37 o
9 1 4 0 -1 106.02 112.35 6.09 o
9 1 4 0 0 1160.65 1107.22 19.13 o
9 1 4 0 1 44.13 56.32 4.48 o
9 1 4 1 -1 6.09 11.16 2.24 o
9 1 4 1 0 132.41 161.84 7.96 o
9 1 4 1 1 9.02 11.16 2.49 o
9 1 5 -1 -1 2.24 4.51 1.55 <
9 1 5 -1 0 53.44 51.42 4.43 o
9 1 5 -1 1 18.80 15.84 2.64 o
9 1 5 0 -1 0.04 1.08 1.78 <
9 1 5 0 0 1104.69 1099.92 22.32 o
9 1 5 0 1 217.18 223.52 9.96 o
9 1 5 1 -1 3.46 3.26 2.04 <
9 1 5 1 0 2.18 -7.62 2.52 <
9 1 5 1 1 3.11 13.40 3.03 o
9 1 6 -1 -1 5.24 -0.81 2.45 <
9 1 6 -1 0 0.07 -6.75 2.32 <
9 1 6 -1 1 3.52 3.07 2.43 <
9 1 6 0 -1 0.23 -3.31 2.63 <
9 1 6 0 0 1072.71 1135.36 25.76 o
9 1 6 0 1 114.82 128.18 8.03 o
9 1 6 1 -1 2.01 -8.98 4.01 <
9 1 6 1 0 111.77 132.05 9.14 o
9 1 6 1 1 0.14 -0.84 1.77 <
9 1 7 -1 0 0.83 -6.41 4.10 <
9 1 7 -1 1 5.13 0.14 2.34 <
9 1 7 0 0 41.08 33.58 9.34 o
9 1 7 0 1 15.96 7.63 4.05 <
9 1 7 1 1 0.02 1.71 2.40 <
9 2 0 -1 -1 33.61 42.42 4.42 o
9 2 0 -1 0 132.31 130.87 6.28 o
9 2 0 -1 1 0.32 29.00 4.21 o
9 2 0 0 -1 1.47 2.10 1.18 <
9 2 0 0 0 694.70 722.47 17.73 o
9 2 0 0 1 321.89 350.00 11.61 o
9 2 0 1 -1 9.69 9.58 2.35 o
9 2 0 1 0 3.51 3.91 1.68 <
9 2 0 1 1 1.00 0.28 1.27 <
9 2 1 -1 -1 12.03 10.99 1.70 o
9 2 1 -1 0 9.73 9.76 1.28 o
9 2 1 -1 1 0.04 -0.05 0.94 <
9 2 1 0 -1 5.05 8.98 1.40 o
9 2 1 0 0 104.04 83.88 4.39 o
9 2 1 0 1 10.49 11.88 1.52 o
9 2 1 1 -1 0.03 -0.30 0.94 <
9 2 1 1 0 36.19 40.42 3.58 o
9 2 1 1 1 33.56 21.78 2.41 o
9 2 2 -1 -1 0.01 1.75 1.14 <
9 2 2 -1 0 0.04 -0.29 0.99 <
9 2 2 -1 1 4.38 4.02 1.26 o
9 2 2 0 -1 62.42 61.05 4.21 o
9 2 2 0 0 245.49 225.28 7.96 o
9 2 2 0 1 91.39 77.37 4.43 o
9 2 2 1 -1 5.36 5.54 1.72 o
9 2 2 1 0 65.09 58.74 4.46 o
9 2 2 1 1 12.70 10.99 2.13 o
9 2 3 -1 -1 5.41 5.59 1.68 o
9 2 3 -1 0 7.92 7.73 1.51 o
9 2 3 -1 1 0.55 -4.43 1.66 <
9 2 3 0 -1 11.67 18.41 2.73 o
9 2 3 0 0 107.39 82.91 5.84 o
9 2 3 0 1 44.18 36.44 3.78 o
9 2 3 1 -1 2.67 5.34 1.65 o
9 2 3 1 0 56.71 68.18 5.17 o
9 2 3 1 1 27.34 20.56 2.76 o
9 2 4 -1 -1 30.02 37.27 3.81 o
9 2 4 -1 0 218.32 230.88 8.98 o
9 2 4 -1 1 2.50 -6.64 2.21 <
9 2 4 0 -1 6.83 8.31 2.10 o
9 2 4 0 0 37.64 39.90 4.51 o
9 2 4 0 1 105.12 115.28 7.15 o
9 2 4 1 -1 4.33 7.49 2.31 o
9 2 4 1 0 2.15 2.90 2.07 <
9 2 4 1 1 0.04 -1.98 2.06 <
9 2 5 -1 -1 12.86 6.49 2.01 o
9 2 5 -1 0 36.24 45.69 4.96 o
9 2 5 -1 1 0.00 1.49 1.76 <
9 2 5 0 -1 0.84 2.43 1.97 <
9 2 5 0 0 77.83 59.73 5.54 o
9 2 5 0 1 0.54 1.64 2.50 <
9 2 5 1 -1 2.19 -1.57 2.08 <
9 2 5 1 0 10.94 10.12 2.77 o
9 2 5 1 1 27.42 15.56 2.73 o
9 2 6 -1 -1 0.08 -11.48 2.86 <
9 2 6 -1 0 39.08 36.72 4.43 o
9 2 6 -1 1 0.07 0.21 1.77 <
9 2 6 0 -1 19.45 19.58 4.33 o
9 2 6 0 0 130.97 164.04 9.47 o
9 2 6 0 1 0.10 -4.82 2.39 <
9 2 6 1 -1 7.60 0.59 3.22 <
9 2 6 1 0 54.39 54.80 6.98 o
9 2 6 1 1 1.71 0.27 2.75 <
9 2 7 -1 -1 2.41 4.78 5.07 <
9 2 7 -1 0 7.06 8.45 2.67 o
9 2 7 -1 1 0.36 -2.36 2.84 <
9 2 7 0 -1 9.98 6.11 2.92 <
9 2 7 0 0 58.62 23.65 5.77 o
9 2 7 0 1 26.32 26.16 4.74 o
9 2 7 1 0 63.74 92.00 14.65 o
9 2 7 1 1 14.36 3.44 3.82 <
9 2 8 -1 1 4.72 9.51 3.71 <
9 3 0 -1 -1 1.97 7.01 1.79 o
9 3 0 -1 0 0.00 -1.27 1.79 <
9 3 0 -1 1 7.36 10.70 1.82 o
9 3 0 0 -1 119.24 127.75 8.64 o
9 3 0 0 0 3298.86 3379.08 40.91 o
9 3 0 0 1 354.72 379.63 13.22 o
9 3 0 1 -1 0.22 2.87 2.54 <
9 3 0 1 0 345.53 383.04 19.18 o
9 3 0 1 1 17.36 20.92 4.76 o
9 3 1 -1 -1 2.30 2.81 1.14 <
9 3 1 -1 0 0.16 -0.71 1.07 <
9 3 1 -1 1 0.00 0.83 0.80 <
9 3 1 0 -1 0.48 -2.11 1.38 <
9 3 1 0 0 62.43 86.48 4.66 o
9 3 1 0 1 7.50 4.78 1.23 o
9 3 1 1 -1 0.08 -0.45 1.43 <
9 3 1 1 0 0.88 -1.84 1.40 <
9 3 1 1 1 0.61 -2.25 1.48 <
9 3 2 -1 -1 2.90 3.18 1.22 <
9 3 2 -1 0 0.02 0.81 1.43 <
9 3 2 -1 1 3.79 3.28 1.37 <
9 3 2 0 -1 0.04 -3.69 1.29 <
9 3 2 0 0 1413.19 1303.13 20.26 o
9 3 2 0 1 6.02 2.29 1.03 <
9 3 2 1 -1 25.63 20.68 2.84 o
9 3 2 1 0 39.09 29.71 3.04 o
9 3 2 1 1 0.33 -0.83 1.53 <
9 3 3 -1 -1 2.15 3.31 1.77 <
9 3 3 -1 0 19.70 19.27 2.92 o
9 3 3 -1 1 0.43 0.11 1.45 <
9 3 3 0 -1 7.21 8.39 1.91 o
9 3 3 0 0 660.19 727.15 17.59 o
9 3 3 0 1 13.43 13.09 2.36 o
9 3 3 1 -1 8.79 6.12 1.93 o
9 3 3 1 0 37.29 33.93 3.96 o
9 3 3 1 1 0.00 3.39 1.81 <
9 3 4 -1 -1 1.71 1.93 1.72 <
9 3 4 -1 0 1.29 -2.23 1.91 <
9 3 4 -1 1 5.73 10.62 2.17 o
9 3 4 0 -1 33.87 30.45 3.77 o
9 3 4 0 0 1365.99 1408.10 25.83 o
9 3 4 0 1 166.84 179.57 9.70 o
9 3 4 1 -1 1.63 2.24 1.87 <
9 3 4 1 0 139.64 152.75 9.20 o
9 3 4 1 1 10.15 11.19 2.51 o
9 3 5 -1 -1 0.84 2.67 1.85 <
9 3 5 -1 0 2.32 0.85 1.95 <
9 3 5 -1 1 0.02 -4.85 2.23 <
9 3 5 0 -1 3.43 -0.88 2.02 <
9 3 5 0 0 3.88 5.93 2.06 <
9 3 5 0 1 23.69 20.74 3.45 o
9 3 5 1 -1 2.39 7.52 3.08 <
9 3 5 1 0 4.53 5.22 2.43 <
9 3 5 1 1 1.43 0.52 1.92 <
9 3 6 -1 -1 2.42 -2.28 2.66 <
9 3 6 -1 0 3.63 4.32 1.95 <
9 3 6 -1 1 2.82 3.19 2.58 <
9 3 6 0 -1 26.61 25.68 4.89 o
9 3 6 0 0 125.12 79.35 8.69 o
9 3 6 0 1 12.41 12.49 3.68 o
9 3 6 1 -1 8.24 5.86 4.01 <
9 3 6 1 0 3.53 -5.85 3.37 <
9 3 6 1 1 1.54 1.54 2.66 <
9 3 7 -1 -1 3.70 -16.33 5.53 <
9 3 7 -1 0 6.35 14.54 4.46 o
9 3 7 -1 1 0.05 2.97 2.48 <
9 3 7 0 -1 1.69 12.02 8.26 <
9 3 7 0 0 317.69 363.78 21.37 o
9 3 7 0 1 2.06 12.89 3.78 o
9 3 7 1 1 0.12 21.86 11.07 <
9 4 0 -1 -1 39.03 41.32 6.39 o
9 4 0 -1 0 34.64 26.93 3.64 o
9 4 0 -1 1 7.83 7.81 2.40 o
9 4 0 0 -1 0.14 -0.64 2.66 <
9 4 0 0 0 38.56 35.08 6.01 o
9 4 0 0 1 4.26 9.15 2.90 o
9 4 0 1 -1 1.32 -8.08 3.16 <
9 4 0 1 0 64.10 46.33 7.14 o
9 4 0 1 1 0.24 1.02 2.10 <
9 4 1 -1 -1 0.58 0.46 1.31 <
9 4 1 -1 0 35.33 30.32 3.21 o
9 4 1 -1 1 5.76 4.32 1.13 o
9 4 1 0 -1 54.73 56.25 5.63 o
9 4 1 0 0 436.76 435.02 14.23 o
9 4 1 0 1 28.27 26.37 3.67 o
9 4 1 1 -1 2.32 -0.93 1.79 <
9 4 1 1 0 0.74 2.71 1.76 <
9 4 1 1 1 0.00 0.49 2.08 <
9 4 2 -1 -1 0.04 -3.33 1.71 <
9 4 2 -1 0 29.11 27.95 3.08 o
9 4 2 -1 1 15.45 17.58 2.62 o
9 4 2 0 -1 3.60 4.19 1.37 o
9 4 2 0 0 53.61 70.13 5.81 o
9 4 2 0 1 1.98 3.30 1.77 <
9 4 2 1 -1 2.85 -1.22 1.80 <
9 4 2 1 0 59.42 76.84 6.92 o
9 4 2 1 1 2.28 1.61 2.03 <
9 4 3 -1 -1 0.22 1.03 1.42 <
9 4 3 -1 0 22.55 16.57 3.09 o
9 4 3 -1 1 9.07 9.72 2.48 o
9 4 3 0 -1 14.61 17.84 3.34 o
9 4 3 0 0 189.64 184.09 9.64 o
9 4 3 0 1 11.39 10.32 2.26 o
9 4 3 1 -1 0.17 1.92 2.04 <
9 4 3 1 0 55.07 77.43 7.00 o
9 4 3 1 1 2.90 3.60 2.07 <
9 4 4 -1 -1 22.32 18.91 3.42 o
9 4 4 -1 0 37.99 33.74 4.23 o
9 4 4 -1 1 6.88 4.34 2.13 <
9 4 4 0 -1 4.44 4.09 1.60 <
9 4 4 0 0 32.54 23.58 3.58 o
9 4 4 0 1 0.30 2.44 1.95 <
9 4 4 1 -1 1.88 -1.76 2.12 <
9 4 4 1 0 28.50 9.09 3.07 <
9 4 4 1 1 0.19 -5.13 2.41 <
9 4 5 -1 -1 3.01 2.33 1.92 <
9 4 5 -1 0 34.46 36.81 4.64 o
9 4 5 -1 1 2.58 0.44 1.91 <
9 4 5 0 -1 144.39 143.06 11.30 o
9 4 5 0 0 1242.89 1301.07 28.15 o
9 4 5 0 1 87.62 87.32 7.14 o
9 4 5 1 -1 5.01 8.78 3.47 <
9 4 5 1 0 6.49 4.18 4.32 <
9 4 5 1 1 1.03 1.70 3.16 <
9 4 6 -1 -1 1.62 5.29 2.62 <
9 4 6 -1 0 34.33 31.93 5.49 o
9 4 6 -1 1 11.50 4.02 3.04 <
9 4 6 0 -1 3.22 2.62 4.32 <
9 4 6 0 0 35.12 39.75 6.22 o
9 4 6 0 1 19.07 28.95 5.50 o
9 4 6 1 -1 0.79 1.48 5.72 <
9 4 6 1 0 16.03 37.03 14.90 <
9 4 6 1 1 0.01 2.09 7.52 <
9 4 7 -1 -1 1.34 9.04 6.07 <
9 4 7 -1 0 10.51 17.12 5.48 o
9 4 7 -1 1 5.69 6.69 3.14 <
9 4 7 0 1 7.99 7.01 8.56 <
9 5 0 -1 -1 5.91 9.34 3.33 <
9 5 0 -1 0 78.09 80.93 9.10 o
9 5 0 -1 1 3.11 0.96 2.48 <
9 5 0 0 -1 10.74 10.57 4.02 <
9 5 0 0 0 1085.39 1017.83 33.20 o
9 5 0 0 1 25.61 20.69 4.65 o
9 5 0 1 -1 1.64 1.75 2.70 <
9 5 0 1 0 4.37 7.19 4.00 <
9 5 0 1 1 2.64 3.61 3.01 <
9 5 1 -1 -1 4.07 7.32 2.31 o
9 5 1 -1 0 0.02 -0.67 1.60 <
9 5 1 -1 1 4.45 -1.39 1.79 <
9 5 1 0 -1 63.42 68.00 6.59 o
9 5 1 0 0 14.48 12.72 2.80 o
9 5 1 0 1 0.99 -1.56 2.13 <
9 5 1 1 -1 3.30 -4.80 2.22 <
9 5 1 1 0 24.66 35.88 4.90 o
9 5 1 1 1 0.05 -2.60 2.20 <
9 5 2 -1 -1 0.54 0.49 2.20 <
9 5 2 -1 0 0.61 3.92 2.36 <
9 5 2 -1 1 2.73 4.59 2.10 <
9 5 2 0 -1 83.62 91.84 7.69 o
9 5 2 0 0 1462.51 1577.86 32.04 o
9 5 2 0 1 0.22 -4.39 2.06 <
9 5 2 1 -1 15.73 14.23 3.43 o
9 5 2 1 0 7.73 13.48 3.97 o
9 5 2 1 1 4.26 0.21 2.47 <
9 5 3 -1 -1 2.15 2.20 1.73 <
9 5 3 -1 0 3.30 4.07 2.46 <
9 5 3 -1 1 0.84 -3.18 1.94 <
9 5 3 0 -1 44.43 44.78 5.92 o
9 5 3 0 0 157.40 188.24 12.21 o
9 5 3 0 1 4.59 8.59 2.84 o
9 5 3 1 -1 6.71 5.70 3.20 <
9 5 3 1 0 2.19 2.96 2.90 <
9 5 3 1 1 6.50 6.75 2.89 <
9 5 4 -1 -1 4.38 1.64 2.33 <
9 5 4 -1 0 38.52 39.75 4.96 o
9 5 4 -1 1 4.65 8.30 2.73 o
9 5 4 0 -1 0.87 -4.34 2.46 <
9 5 4 0 0 252.92 222.29 13.53 o
9 5 4 0 1 6.89 5.58 3.18 <
9 5 4 1 -1 0.46 -5.27 5.29 <
9 5 4 1 0 0.68 -3.80 4.44 <
9 5 4 1 1 0.89 5.40 4.79 <
9 5 5 -1 -1 4.23 5.43 2.50 <
9 5 5 -1 0 0.65 0.49 2.73 <
9 5 5 -1 1 6.21 2.25 2.35 <
9 5 5 0 -1 58.78 64.45 17.09 o
9 5 5 0 0 129.31 98.45 20.62 o
9 5 5 0 1 7.09 15.13 6.35 <
9 5 6 -1 -1 0.18 -2.59 3.34 <
9 5 6 -1 0 10.41 9.88 4.80 <
9 5 6 -1 1 0.34 3.85 3.78 <
9 6 0 -1 -1 12.55 9.55 2.96 o
9 6 0 -1 0 56.10 62.66 8.29 o
9 6 0 -1 1 0.41 5.46 3.02 <
9 6 0 0 -1 7.15 1.76 4.88 <
9 6 0 0 0 76.58 116.11 11.63 o
9 6 0 0 1 33.56 29.17 5.81 o
9 6 0 1 -1 32.47 25.75 8.45 o
9 6 0 1 0 19.67 19.35 5.22 o
9 6 0 1 1 1.03 2.00 3.03 <
9 6 1 -1 -1 2.59 3.51 1.92 <
9 6 1 -1 0 57.45 51.80 5.34 o
9 6 1 -1 1 3.59 -1.04 2.42 <
9 6 1 0 -1 0.05 -4.58 2.19 <
9 6 1 0 0 146.51 119.95 8.39 o
9 6 1 0 1 16.51 17.56 3.31 o
9 6 1 1 -1 1.67 -0.33 2.00 <
9 6 1 1 0 19.16 10.23 3.84 <
9 6 1 1 1 2.42 2.38 2.39 <
9 6 2 -1 -1 7.66 14.20 3.17 o
9 6 2 -1 0 153.48 156.85 10.19 o
9 6 2 -1 1 0.36 -1.85 1.98 <
9 6 2 0 -1 48.53 49.35 5.91 o
9 6 2 0 0 314.70 255.96 13.34 o
9 6 2 0 1 14.61 7.83 2.67 <
9 6 2 1 -1 1.85 2.68 4.40 <
9 6 2 1 0 16.42 23.89 8.02 <
9 6 2 1 1 6.98 12.71 5.93 <
9 6 3 -1 -1 1.68 6.24 2.91 <
9 6 3 -1 0 9.54 11.52 3.20 o
9 6 3 -1 1 0.48 0.02 2.40 <
9 6 3 0 -1 0.81 -3.30 6.58 <
9 6 3 0 0 337.10 323.07 20.33 o
9 6 3 0 1 7.80 7.95 3.59 <
9 6 4 -1 -1 6.28 4.62 3.42 <
9 6 4 -1 0 18.11 11.61 3.70 o
9 6 4 -1 1 1.50 -5.42 2.88 <
9 7 0 -1 -1 0.14 -2.31 3.55 <
9 7 0 -1 0 2.82 5.11 2.90 <
9 7 0 -1 1 3.70 3.38 3.33 <
9 7 0 0 -1 5.63 4.51 6.45 <
9 7 0 0 0 502.48 349.26 41.65 o
9 7 0 0 1 22.11 8.77 5.16 <
9 7 1 -1 -1 0.89 3.50 1.68 <
9 7 1 -1 0 15.22 11.64 2.94 o
9 7 1 -1 1 2.14 4.56 2.15 <
9 7 1 0 -1 20.20 35.52 12.53 <
9 7 1 0 0 2.42 6.47 6.44 <
9 7 1 0 1 1.70 0.86 2.91 <
9 7 2 -1 -1 17.97 13.86 3.32 o
9 7 2 -1 0 71.40 79.64 7.49 o
9 7 2 -1 1 0.10 -1.22 1.78 <
9 7 2 0 -1 66.24 83.86 19.58 o
9 7 2 0 0 195.29 189.19 29.95 o
10 0 0 -1 1 0.05 1.68 2.20 <
10 0 0 0 0 3006.50 3228.60 57.06 o
10 0 0 0 1 0.86 6.45 1.70 o
10 0 0 1 0 46.60 40.69 4.48 o
10 0 0 1 1 12.81 11.34 2.34 o
10 0 1 0 1 20.05 23.25 2.31 o
10 0 1 1 0 4.05 5.99 1.41 o
10 0 1 1 1 1.86 2.23 1.12 <
10 0 2 -1 1 0.20 0.16 1.46 <
10 0 2 0 0 863.76 836.80 23.61 o
10 0 2 0 1 6.92 7.40 1.41 o
10 0 2 1 -1 6.94 6.61 3.37 <
10 0 2 1 0 0.03 -1.95 1.68 <
10 0 2 1 1 0.68 0.07 1.42 <
10 0 3 0 1 1.63 2.22 1.22 <
10 0 3 1 0 18.76 22.30 3.38 o
10 0 3 1 1 0.04 1.14 1.52 <
10 0 4 -1 1 0.21 -1.34 1.66 <
10 0 4 0 0 2099.52 2282.95 50.11 o
10 0 4 0 1 7.79 6.06 1.68 o
10 0 4 1 -1 37.06 31.98 5.75 o
10 0 4 1 0 8.29 4.38 1.87 <
10 0 4 1 1 9.64 6.60 2.13 o
10 0 5 0 1 36.20 40.14 4.92 o
10 0 5 1 0 0.89 -7.79 3.23 <
10 0 5 1 1 3.22 1.92 2.58 <
10 0 6 -1 1 0.36 -7.98 4.30 <
10 0 6 0 1 0.41 -3.04 3.86 <
10 1 0 -1 -1 11.07 9.91 2.40 o
10 1 0 -1 0 65.74 68.26 5.69 o
10 1 0 -1 1 30.42 47.11 4.69 o
10 1 0 0 -1 186.89 216.86 10.46 o
10 1 0 0 0 231.18 216.61 10.30 o
10 1 0 0 1 8.96 16.63 2.83 o
10 1 0 1 -1 0.17 4.60 2.02 <
10 1 0 1 0 226.26 229.71 12.09 o
10 1 0 1 1 9.62 8.68 2.23 o
10 1 1 -1 -1 1.51 -0.32 1.13 <
10 1 1 -1 0 4.39 4.75 1.33 o
10 1 1 -1 1 0.99 9.69 1.86 o
10 1 1 0 -1 0.41 1.12 1.29 <
10 1 1 0 0 70.44 52.34 3.78 o
10 1 1 0 1 6.29 4.15 1.16 o
10 1 1 1 -1 6.55 6.38 1.65 o
10 1 1 1 0 6.64 2.66 1.72 <
10 1 1 1 1 0.10 -2.16 1.25 <
10 1 2 -1 -1 4.46 7.47 1.65 o
10 1 2 -1 0 87.68 94.81 4.97 o
10 1 2 -1 1 3.25 5.13 1.32 o
10 1 2 0 -1 37.79 28.10 3.46 o
10 1 2 0 0 113.44 153.18 6.82 o
10 1 2 0 1 17.12 14.20 2.17 o
10 1 2 1 -1 5.12 2.89 1.50 <
10 1 2 1 0 182.00 206.39 8.67 o
10 1 2 1 1 16.43 15.69 2.47 o
10 1 3 -1 -1 1.63 -0.90 1.51 <
10 1 3 -1 0 10.76 9.11 1.77 o
10 1 3 -1 1 0.11 0.23 1.22 <
10 1 3 0 -1 16.26 10.27 2.16 o
10 1 3 0 0 17.45 10.59 2.18 o
10 1 3 0 1 33.59 29.61 3.51 o
10 1 3 1 -1 0.15 1.95 1.87 <
10 1 3 1 0 10.66 17.43 2.99 o
10 1 3 1 1 7.25 4.90 1.83 <
10 1 4 -1 -1 6.36 0.97 1.73 <
10 1 4 -1 0 26.04 23.72 3.08 o
10 1 4 -1 1 33.51 39.62 3.90 o
10 1 4 0 -1 188.71 215.24 10.91 o
10 1 4 0 0 9.45 9.31 2.18 o
10 1 4 0 1 44.31 45.96 4.68 o
10 1 4 1 -1 0.00 -4.24 2.34 <
10 1 4 1 0 83.47 72.24 5.98 o
10 1 4 1 1 2.76 5.51 2.03 <
10 1 5 -1 -1 0.62 6.66 2.50 <
10 1 5 -1 0 0.74 -0.92 2.23 <
10 1 5 -1 1 2.69 -3.12 1.84 <
10 1 5 0 -1 12.30 14.85 3.47 o
10 1 5 0 0 81.87 64.91 6.20 o
10 1 5 0 1 0.61 0.83 1.98 <
10 1 5 1 -1 12.75 19.93 5.10 o
10 1 5 1 0 26.74 17.88 4.34 o
10 1 5 1 1 2.56 8.71 2.76 o
10 1 6 -1 0 23.88 28.88 5.72 o
10 1 6 -1 1 0.18 -7.36 2.86 <
10 1 6 0 1 80.91 60.11 9.13 o
10 1 6 1 0 25.68 12.41 11.05 <
10 1 6 1 1 3.18 -5.44 5.36 <
10 2 0 -1 -1 7.86 12.29 2.45 o
10 2 0 -1 0 20.82 23.05 3.44 o
10 2 0 -1 1 13.54 24.08 3.71 o
10 2 0 0 -1 46.46 51.95 6.68 o
10 2 0 0 0 955.74 882.12 27.24 o
10 2 0 0 1 20.93 23.92 4.55 o
10 2 0 1 -1 3.45 9.36 4.36 <
10 2 0 1 0 41.44 65.51 9.14 o
10 2 0 1 1 7.21 2.03 1.95 <
10 2 1 -1 -1 16.95 16.10 2.15 o
10 2 1 -1 0 252.15 270.15 8.81 o
10 2 1 -1 1 9.14 11.77 1.74 o
10 2 1 0 -1 0.09 0.69 1.43 <
10 2 1 0 0 21.64 19.28 2.48 o
10 2 1 0 1 9.18 10.74 1.98 o
10 2 1 1 -1 0.36 -1.16 2.25 <
10 2 1 1 0 2.20 9.01 2.67 o
10 2 1 1 1 13.95 11.79 2.32 o
10 2 2 -1 -1 7.16 6.19 1.82 o
10 2 2 -1 0 54.13 59.39 4.53 o
10 2 2 -1 1 1.06 -3.79 1.70 <
10 2 2 0 -1 78.21 94.77 5.84 o
10 2 2 0 0 1368.59 1345.98 22.18 o
10 2 2 0 1 12.94 14.93 2.28 o
10 2 2 1 -1 0.40 1.75 2.30 <
10 2 2 1 0 130.37 180.35 8.81 o
10 2 2 1 1 4.38 5.26 1.97 <
10 2 3 -1 -1 3.43 0.50 2.08 <
10 2 3 -1 0 76.47 82.47 5.66 o
10 2 3 -1 1 0.37 1.56 1.42 <
10 2 3 0 -1 128.57 119.03 7.36 o
10 2 3 0 0 1415.39 1444.54 25.68 o
10 2 3 0 1 69.41 68.83 5.44 o
10 2 3 1 -1 3.85 2.38 1.66 <
10 2 3 1 0 3.57 -6.87 2.15 <
10 2 3 1 1 6.71 5.63 1.85 o
10 2 4 -1 -1 4.69 5.45 2.01 <
10 2 4 -1 0 32.97 32.53 3.80 o
10 2 4 -1 1 9.68 9.62 1.95 o
10 2 4 0 -1 20.37 23.54 3.47 o
10 2 4 0 0 765.58 719.40 18.88 o
10 2 4 0 1 48.87 50.87 4.64 o
10 2 4 1 -1 3.64 4.21 1.99 <
10 2 4 1 0 31.31 40.94 4.10 o
10 2 4 1 1 6.71 2.40 1.89 <
10 2 5 -1 -1 23.44 24.25 3.84 o
10 2 5 -1 0 284.63 299.67 11.85 o
10 2 5 -1 1 14.24 13.53 2.60 o
10 2 5 0 -1 52.75 46.98 5.80 o
10 2 5 0 0 667.92 693.65 20.19 o
10 2 5 0 1 78.80 86.77 6.79 o
10 2 5 1 -1 0.12 -4.77 2.56 <
10 2 5 1 0 5.50 11.07 3.48 o
10 2 5 1 1 12.48 11.67 3.06 o
10 2 6 -1 -1 3.09 -5.65 3.26 <
10 2 6 -1 0 16.65 14.57 4.21 o
10 2 6 -1 1 0.33 -2.32 3.11 <
10 2 6 0 -1 96.54 98.26 23.98 o
10 2 6 0 0 962.08 979.40 31.70 o
10 2 6 0 1 1.21 1.97 2.71 <
10 2 6 1 1 3.78 12.00 5.32 <
10 2 7 -1 1 0.41 -0.14 2.06 <
10 3 0 -1 -1 1.06 4.41 2.11 <
10 3 0 -1 0 394.04 413.19 22.56 o
10 3 0 -1 1 77.58 85.53 11.04 o
10 3 0 0 -1 60.49 72.50 9.74 o
10 3 0 0 0 806.74 853.08 33.48 o
10 3 0 0 1 24.67 42.53 7.94 o
10 3 0 1 -1 1.95 -2.02 2.42 <
10 3 0 1 0 50.89 41.45 7.34 o
10 3 0 1 1 0.71 4.44 3.37 <
10 3 1 -1 -1 0.06 -0.90 1.25 <
10 3 1 -1 0 1.97 0.28 1.26 <
10 3 1 -1 1 9.81 8.49 2.07 o
10 3 1 0 -1 2.14 7.45 2.58 <
10 3 1 0 0 521.92 449.80 16.16 o
10 3 1 0 1 40.54 40.98 4.83 o
10 3 1 1 -1 25.75 15.05 3.28 o
10 3 1 1 0 17.03 24.77 4.01 o
10 3 1 1 1 1.11 3.89 2.11 <
10 3 2 -1 -1 33.67 27.75 3.05 o
10 3 2 -1 0 237.44 255.13 9.66 o
10 3 2 -1 1 4.06 2.90 1.94 <
10 3 2 0 -1 17.10 16.72 2.80 o
10 3 2 0 0 15.63 2.31 1.89 <
10 3 2 0 1 0.75 -0.35 1.75 <
10 3 2 1 -1 8.79 13.71 2.95 o
10 3 2 1 0 76.79 85.55 7.26 o
10 3 2 1 1 2.53 5.37 1.98 <
10 3 3 -1 -1 1.33 4.13 1.93 <
10 3 3 -1 0 5.49 3.88 1.65 <
10 3 3 -1 1 18.54 14.10 2.64 o
10 3 3 0 -1 75.55 87.15 6.50 o
10 3 3 0 0 316.73 284.48 11.57 o
10 3 3 0 1 31.88 28.27 3.54 o
10 3 3 1 -1 15.97 8.46 2.71 o
10 3 3 1 0 7.62 11.91 2.76 o
10 3 3 1 1 1.65 -0.08 1.75 <
10 3 4 -1 -1 0.00 0.85 1.78 <
10 3 4 -1 0 185.58 176.91 9.41 o
10 3 4 -1 1 42.76 32.60 3.92 o
10 3 4 0 -1 4.02 4.35 2.39 <
10 3 4 0 0 67.50 71.55 6.40 o
10 3 4 0 1 84.33 84.63 7.34 o
10 3 4 1 -1 2.25 -1.00 3.10 <
10 3 4 1 0 45.52 37.86 6.61 o
10 3 4 1 1 1.21 2.56 2.11 <
10 3 5 -1 -1 0.27 -4.09 2.79 <
10 3 5 -1 0 8.50 8.41 3.23 <
10 3 5 -1 1 3.22 -0.59 2.36 <
10 3 5 0 -1 7.59 -0.07 2.57 <
10 3 5 0 0 492.23 434.85 22.24 o
10 3 5 0 1 27.58 29.66 5.12 o
10 3 5 1 -1 21.75 15.07 5.01 o
10 3 5 1 0 13.23 -1.93 3.81 <
10 3 5 1 1 0.51 14.06 4.06 o
10 3 6 -1 -1 12.76 6.14 4.04 <
10 3 6 -1 0 45.90 44.69 6.77 o
10 3 6 -1 1 0.12 -5.32 3.82 <
10 3 6 0 0 444.96 496.00 50.65 o
10 3 6 0 1 33.11 21.94 5.12 o
10 4 0 -1 -1 2.70 9.34 3.54 <
10 4 0 -1 0 71.36 66.73 8.37 o
10 4 0 -1 1 0.20 1.93 2.12 <
10 4 0 0 -1 16.77 12.34 3.71 o
10 4 0 0 0 1319.42 1124.10 35.22 o
10 4 0 0 1 4.34 6.08 3.57 <
10 4 0 1 -1 4.20 3.78 2.33 <
10 4 0 1 0 256.33 269.19 20.13 o
10 4 0 1 1 8.59 8.51 3.73 <
10 4 1 -1 -1 4.78 5.59 2.27 <
10 4 1 -1 0 22.83 24.56 3.83 o
10 4 1 -1 1 0.12 -1.10 1.79 <
10 4 1 0 -1 0.79 1.36 1.75 <
10 4 1 0 0 122.60 90.33 7.48 o
10 4 1 0 1 1.01 -1.38 2.32 <
10 4 1 1 -1 0.00 -5.68 2.88 <
10 4 1 1 0 43.24 36.11 5.03 o
10 4 1 1 1 18.85 16.18 3.37 o
10 4 2 -1 -1 5.07 10.00 2.73 o
10 4 2 -1 0 48.49 48.81 4.99 o
10 4 2 -1 1 0.86 -1.90 1.96 <
10 4 2 0 -1 112.43 129.65 9.11 o
10 4 2 0 0 44.21 64.06 6.48 o
10 4 2 0 1 16.92 22.59 3.73 o
10 4 2 1 -1 32.24 28.87 4.91 o
10 4 2 1 0 13.95 18.64 3.45 o
10 4 2 1 1 0.00 4.62 2.94 <
10 4 3 -1 -1 4.21 1.95 2.52 <
10 4 3 -1 0 73.73 75.22 6.77 o
10 4 3 -1 1 3.09 -1.59 2.09 <
10 4 3 0 -1 7.22 10.80 2.96 o
10 4 3 0 0 23.58 14.20 3.32 o
10 4 3 0 1 7.07 6.28 2.44 <
10 4 3 1 -1 0.04 -4.99 6.05 <
10 4 3 1 0 88.61 72.35 10.87 o
10 4 3 1 1 14.94 15.08 3.88 o
10 4 4 -1 -1 4.25 2.50 2.78 <
10 4 4 -1 0 27.91 25.95 4.06 o
10 4 4 -1 1 0.70 -0.97 2.08 <
10 4 4 0 -1 46.04 45.79 8.38 o
10 4 4 0 0 1414.77 1276.75 44.96 o
10 4 4 0 1 1.13 2.49 3.54 <
10 4 4 1 -1 0.62 -9.60 6.59 <
10 4 4 1 0 118.99 155.86 26.29 o
10 4 4 1 1 5.29 5.74 4.27 <
10 4 5 -1 -1 4.78 5.35 3.34 <
10 4 5 -1 0 4.03 12.45 3.54 o
10 4 5 -1 1 0.40 -7.07 3.46 <
10 4 5 0 -1 0.03 -4.58 4.65 <
10 4 5 0 0 186.53 198.47 29.64 o
10 4 5 0 1 0.14 -4.38 7.75 <
10 4 6 -1 0 84.48 89.69 14.77 o
10 4 6 -1 1 1.88 -1.96 2.34 <
10 5 0 -1 -1 16.76 14.79 3.90 o
10 5 0 -1 0 77.59 79.42 9.44 o
10 5 0 -1 1 0.17 -7.06 3.40 <
10 5 0 0 -1 233.98 233.84 16.79 o
10 5 0 0 0 1188.03 1146.14 37.09 o
10 5 0 0 1 32.30 31.59 6.56 o
10 5 0 1 -1 0.75 -2.34 3.17 <
10 5 0 1 0 69.62 86.67 14.62 o
10 5 0 1 1 31.47 35.28 10.12 o
10 5 1 -1 -1 7.25 6.94 2.14 o
10 5 1 -1 0 0.00 -2.71 2.06 <
10 5 1 -1 1 1.75 1.74 1.48 <
10 5 1 0 -1 25.45 28.11 4.33 o
10 5 1 0 0 168.04 170.36 10.72 o
10 5 1 0 1 38.41 33.12 4.92 o
10 5 1 1 -1 1.69 -0.56 4.09 <
10 5 1 1 0 5.53 18.88 5.63 o
10 5 1 1 1 5.01 1.39 3.52 <
10 5 2 -1 -1 4.92 8.86 2.78 o
10 5 2 -1 0 5.41 4.48 2.78 <
10 5 2 -1 1 1.61 -7.00 2.93 <
10 5 2 0 -1 94.18 93.36 9.50 o
10 5 2 0 0 471.36 522.67 20.65 o
10 5 2 0 1 260.17 273.37 13.84 o
10 5 2 1 -1 0.47 17.56 8.60 <
10 5 2 1 0 13.61 8.89 5.28 <
10 5 2 1 1 5.09 -1.34 3.08 <
10 5 3 -1 -1 14.25 16.43 4.15 o
10 5 3 -1 0 6.18 6.60 2.52 <
10 5 3 -1 1 0.22 -7.03 3.03 <
10 5 3 0 -1 21.08 25.16 10.81 <
10 5 3 0 0 352.61 345.45 40.32 o
10 5 3 0 1 5.47 -0.87 2.12 <
10 5 4 -1 -1 16.72 25.28 8.13 o
10 5 4 -1 0 73.08 85.81 14.48 o
10 5 4 -1 1 0.01 -4.11 4.39 <
10 6 0 -1 -1 18.21 24.43 6.13 o
10 6 0 -1 0 77.19 73.15 9.21 o
10 6 0 -1 1 12.00 -1.49 2.60 <
10 6 0 0 -1 2.32 2.73 4.06 <
10 6 0 0 0 224.80 253.37 35.54 o
10 6 0 0 1 35.14 37.82 13.27 <
10 6 1 -1 -1 0.03 0.30 2.39 <
10 6 1 -1 0 0.05 -0.04 2.68 <
10 6 1 -1 1 3.22 1.37 2.70 <
10 6 1 0 -1 32.52 15.28 6.64 <
10 6 1 0 0 55.54 18.98 9.48 <
10 6 1 0 1 76.68 57.98 16.61 o
10 6 2 -1 -1 0.37 6.27 2.34 <
10 6 2 -1 0 3.08 -0.90 4.05 <
10 6 2 -1 1 13.59 19.10 4.77 o
10 6 2 0 -1 33.11 22.44 9.46 <
10 6 2 0 0 1025.60 966.90 66.93 o
10 6 2 0 1 57.16 57.43 17.22 o
11 0 0 0 1 86.78 104.53 7.40 o
11 0 0 1 0 43.37 80.56 12.68 o
11 0 0 1 1 12.99 11.18 3.08 o
11 0 1 -1 1 0.31 0.76 1.84 <
11 0 1 0 0 59.60 57.31 7.17 o
11 0 1 0 1 18.51 23.25 3.15 o
11 0 1 1 -1 19.29 5.21 4.15 <
11 0 1 1 0 10.84 9.75 3.04 o
11 0 1 1 1 12.37 13.32 2.78 o
11 0 2 0 1 26.40 33.39 4.29 o
11 0 2 1 0 254.62 319.52 14.89 o
11 0 2 1 1 1.68 6.92 2.16 o
11 0 3 -1 1 11.63 19.51 4.47 o
11 0 3 0 0 291.72 322.02 21.93 o
11 0 3 0 1 173.33 186.02 10.74 o
11 0 3 1 -1 5.48 8.58 5.57 <
11 0 3 1 0 2.73 -1.07 2.10 <
11 0 3 1 1 31.44 30.78 4.89 o
11 0 4 0 1 42.82 43.27 5.41 o
11 0 4 1 0 31.27 62.72 8.09 o
11 0 4 1 1 9.38 13.88 3.39 o
11 0 5 -1 1 1.34 5.65 4.08 <
11 0 5 0 1 1.75 8.60 4.38 <
11 1 0 -1 -1 5.21 10.73 3.57 o
11 1 0 -1 0 50.83 58.27 7.03 o
11 1 0 -1 1 21.19 31.28 4.51 o
11 1 0 0 -1 76.58 78.52 12.21 o
11 1 0 0 0 1153.74 1092.98 36.45 o
11 1 0 0 1 245.21 235.94 16.89 o
11 1 0 1 -1 4.45 6.68 2.99 <
11 1 0 1 0 1.12 -2.60 2.14 <
11 1 0 1 1 0.08 -0.47 2.49 <
11 1 1 -1 -1 11.15 8.84 1.99 o
11 1 1 -1 0 1.29 -3.09 1.38 <
11 1 1 -1 1 0.41 -2.67 1.41 <
11 1 1 0 -1 37.62 53.01 6.57 o
11 1 1 0 0 136.60 84.38 7.20 o
11 1 1 0 1 14.62 16.94 2.94 o
11 1 1 1 -1 6.73 2.34 3.70 <
11 1 1 1 0 0.71 0.76 2.99 <
11 1 1 1 1 19.39 8.42 2.33 o
11 1 2 -1 -1 1.31 -1.73 2.01 <
11 1 2 -1 0 2.31 -1.61 2.03 <
11 1 2 -1 1 4.34 7.12 2.02 o
11 1 2 0 -1 13.47 11.23 2.78 o
11 1 2 0 0 412.67 449.82 17.65 o
11 1 2 0 1 11.13 15.15 2.98 o
11 1 2 1 -1 1.10 3.70 3.20 <
11 1 2 1 0 10.07 12.82 3.45 o
11 1 2 1 1 4.18 4.56 2.49 <
11 1 3 -1 -1 8.20 9.50 3.10 o
11 1 3 -1 0 0.97 -0.27 1.68 <
11 1 3 -1 1 3.00 -2.69 2.04 <
11 1 3 0 -1 1.49 5.95 3.43 <
11 1 3 0 0 1077.34 978.52 23.20 o
11 1 3 0 1 7.49 9.22 2.21 o
11 1 3 1 -1 25.49 5.69 3.29 <
11 1 3 1 0 41.50 43.31 5.93 o
11 1 3 1 1 11.43 6.90 2.13 o
11 1 4 -1 -1 2.07 7.51 2.35 o
11 1 4 -1 0 14.30 14.19 2.95 o
11 1 4 -1 1 8.37 7.76 2.19 o
11 1 4 0 -1 31.50 44.31 6.67 o
11 1 4 0 0 530.10 514.38 20.57 o
11 1 4 0 1 95.41 95.61 7.53 o
11 1 4 1 0 1.58 -4.03 3.51 <
11 1 4 1 1 0.11 -1.58 2.78 <
11 1 5 -1 0 0.87 -6.66 3.52 <
11 1 5 -1 1 0.04 -12.93 4.45 <
11 1 5 0 1 45.97 60.34 8.83 o
11 2 0 -1 -1 2.26 3.57 3.82 <
11 2 0 -1 0 7.00 3.70 2.88 <
11 2 0 -1 1 2.74 7.78 4.88 <
11 2 0 0 -1 268.12 257.59 18.44 o
11 2 0 0 0 1312.77 1266.45 41.24 o
11 2 0 0 1 12.16 10.44 4.11 <
11 2 0 1 -1 10.87 11.79 5.62 <
11 2 0 1 0 4.98 2.75 3.57 <
11 2 0 1 1 4.23 8.12 3.45 <
11 2 1 -1 -1 0.15 -2.01 2.10 <
11 2 1 -1 0 3.54 8.02 2.76 <
11 2 1 -1 1 0.37 1.79 2.22 <
11 2 1 0 -1 4.53 5.64 2.25 <
11 2 1 0 0 4.33 14.24 3.22 o
11 2 1 0 1 33.84 34.34 4.87 o
11 2 1 1 -1 0.08 -1.86 3.41 <
11 2 1 1 0 10.72 9.16 2.86 o
11 2 1 1 1 5.69 4.96 2.45 <
11 2 2 -1 -1 13.05 17.77 3.82 o
11 2 2 -1 0 19.74 13.05 2.40 o
11 2 2 -1 1 9.60 13.34 3.24 o
11 2 2 0 -1 1.75 0.57 2.83 <
11 2 2 0 0 426.15 516.51 19.36 o
11 2 2 0 1 139.46 158.40 9.74 o
11 2 2 1 -1 1.34 -7.31 3.57 <
11 2 2 1 0 126.48 169.42 12.29 o
11 2 2 1 1 13.35 9.63 2.60 o
11 2 3 -1 -1 0.44 0.37 3.05 <
11 2 3 -1 0 2.82 2.58 1.97 <
11 2 3 -1 1 0.84 3.27 2.46 <
11 2 3 0 -1 22.57 19.05 4.24 o
11 2 3 0 0 2.39 2.37 1.90 <
11 2 3 0 1 12.25 11.30 2.36 o
11 2 3 1 -1 0.63 -1.54 4.95 <
11 2 3 1 0 0.02 -8.53 4.06 <
11 2 3 1 1 11.69 12.70 3.26 o
11 2 4 -1 -1 2.37 -5.48 2.40 <
11 2 4 -1 0 0.50 -5.97 2.70 <
11 2 4 -1 1 0.54 -0.02 2.00 <
11 2 4 0 -1 99.17 108.62 13.19 o
11 2 4 0 0 198.01 178.68 14.24 o
11 2 4 0 1 0.01 1.06 2.31 <
11 2 4 1 1 0.51 4.28 4.47 <
11 2 5 -1 0 3.80 -2.05 3.84 <
11 2 5 -1 1 0.08 -1.86 3.17 <
11 2 5 0 1 35.99 29.20 6.40 o
11 3 0 -1 -1 2.75 15.36 5.08 o
11 3 0 -1 0 3.35 2.41 3.47 <
11 3 0 -1 1 17.58 21.57 5.75 o
11 3 0 0 -1 5.03 7.96 2.82 <
11 3 0 0 0 20.74 14.74 5.13 <
11 3 0 0 1 52.95 61.46 9.55 o
11 3 0 1 -1 0.30 -8.29 3.36 <
11 3 0 1 0 3.64 12.55 4.20 <
11 3 0 1 1 13.01 17.49 5.52 o
11 3 1 -1 -1 0.07 1.99 2.15 <
11 3 1 -1 0 18.90 18.80 3.71 o
11 3 1 -1 1 3.55 1.78 2.48 <
11 3 1 0 -1 15.87 17.14 3.52 o
11 3 1 0 0 201.96 188.53 11.70 o
11 3 1 0 1 26.89 25.46 4.13 o
11 3 1 1 -1 1.07 3.63 2.96 <
11 3 1 1 0 18.36 28.53 5.11 o
11 3 1 1 1 0.19 5.97 3.10 <
11 3 2 -1 -1 8.81 9.03 2.93 o
11 3 2 -1 0 3.88 0.21 2.19 <
11 3 2 -1 1 7.32 7.11 2.28 o
11 3 2 0 -1 40.40 45.99 6.14 o
11 3 2 0 0 90.41 84.83 7.34 o
11 3 2 0 1 18.93 20.33 3.84 o
11 3 2 1 -1 0.01 -10.57 5.72 <
11 3 2 1 0 3.20 5.99 4.28 <
11 3 2 1 1 0.47 0.39 2.73 <
11 3 3 -1 -1 3.17 9.59 3.26 <
11 3 3 -1 0 0.51 -2.68 3.06 <
11 3 3 -1 1 0.25 -5.10 2.76 <
11 3 3 0 -1 12.44 13.73 5.56 <
11 3 3 0 0 43.59 44.82 6.41 o
11 3 3 0 1 2.52 0.35 2.68 <
11 3 3 1 0 2.18 4.76 3.00 <
11 3 3 1 1 7.76 5.55 2.95 <
11 3 4 -1 -1 1.91 7.91 3.90 <
11 3 4 -1 0 2.94 2.45 1.79 <
11 3 4 -1 1 9.32 11.06 3.04 o
11 3 4 0 0 198.94 170.40 19.36 o
11 3 4 0 1 21.05 24.21 7.56 o
11 3 5 -1 0 29.01 26.98 10.51 <
11 3 5 -1 1 5.90 5.68 3.29 <
11 4 0 -1 -1 0.12 13.14 5.01 <
11 4 0 -1 0 1.03 1.04 3.27 <
11 4 0 -1 1 4.22 1.10 3.22 <
11 4 0 0 -1 31.50 54.53 10.75 o
11 4 0 0 0 57.16 85.06 11.47 o
11 4 0 0 1 0.16 13.47 5.28 <
11 4 0 1 -1 17.38 9.32 4.23 <
11 4 0 1 0 240.26 314.39 39.27 o
11 4 0 1 1 0.01 10.08 5.71 <
11 4 1 -1 -1 0.10 0.88 2.65 <
11 4 1 -1 0 4.88 3.90 2.39 <
11 4 1 -1 1 0.66 2.26 2.04 <
11 4 1 0 -1 3.56 1.08 3.61 <
11 4 1 0 0 160.40 206.46 13.86 o
11 4 1 0 1 37.22 36.16 5.74 o
11 4 1 1 -1 4.83 -2.23 8.14 <
11 4 1 1 0 3.55 -4.35 4.62 <
11 4 1 1 1 6.07 3.83 3.29 <
11 4 2 -1 -1 9.82 6.83 2.69 <
11 4 2 -1 0 0.87 -1.25 2.47 <
11 4 2 -1 1 10.31 16.12 3.56 o
11 4 2 0 -1 0.71 -17.92 6.07 <
11 4 2 0 0 2.59 12.81 5.02 <
11 4 2 0 1 41.16 44.60 7.10 o
11 4 2 1 0 182.44 174.93 27.77 o
11 4 2 1 1 8.66 1.99 1.92 <
11 4 3 -1 -1 0.22 1.08 4.46 <
11 4 3 -1 0 59.46 63.39 11.90 o
11 4 3 -1 1 5.92 5.85 3.19 <
11 4 3 0 -1 7.15 -1.90 2.72 <
11 4 3 0 0 45.37 26.78 10.99 <
11 4 3 0 1 3.35 17.81 8.83 <
11 4 4 -1 -1 0.53 7.13 4.32 <
11 4 4 -1 0 13.71 6.87 2.29 o
11 4 4 -1 1 2.09 1.62 3.15 <
11 5 0 -1 -1 45.76 45.77 9.87 o
11 5 0 -1 0 103.19 125.38 17.31 o
11 5 0 -1 1 5.01 10.39 2.99 o
11 5 1 -1 -1 0.41 -1.40 4.45 <
11 5 1 -1 0 48.90 44.91 8.45 o
11 5 1 -1 1 0.68 2.83 2.89 <
11 5 1 0 -1 18.55 -0.14 1.41 <
11 5 1 0 0 0.77 -20.75 9.90 <
11 5 1 0 1 7.25 8.91 8.36 <
11 5 2 -1 -1 5.15 10.08 5.60 <
11 5 2 -1 0 0.50 -3.40 5.16 <
11 5 2 -1 1 0.81 -1.34 5.01 <
11 5 2 0 0 39.41 38.24 13.89 <
11 5 2 0 1 4.63 12.53 8.34 <
12 0 0 -1 1 46.56 58.15 15.02 o
12 0 1 0 1 19.15 16.80 3.02 o
12 0 1 1 1 0.68 3.15 5.73 <
12 0 2 -1 1 21.36 24.95 5.50 o
12 0 2 0 1 0.04 -4.24 4.15 <
12 0 2 1 1 8.17 5.76 3.88 <
12 0 3 0 1 68.09 67.80 7.96 o
12 0 4 -1 1 23.66 30.17 9.51 o
12 1 0 -1 0 1.02 0.10 3.79 <
12 1 0 -1 1 0.88 19.73 7.25 <
12 1 0 0 0 52.73 45.44 13.81 o
12 1 0 0 1 36.34 41.75 9.28 o
12 1 0 1 1 0.24 -19.97 9.68 <
12 1 1 -1 0 11.05 9.01 6.84 <
12 1 1 -1 1 3.30 -1.04 2.29 <
12 1 1 0 0 257.49 215.03 31.97 o
12 1 1 0 1 47.15 53.34 7.43 o
12 1 1 1 1 1.18 13.38 5.89 <
12 1 2 -1 -1 5.32 9.04 6.42 <
12 1 2 -1 0 2.19 -1.37 5.52 <
12 1 2 -1 1 16.15 20.19 5.45 o
12 1 2 0 0 0.87 -1.56 2.88 <
12 1 2 0 1 27.48 27.15 7.04 o
12 1 2 1 1 0.09 2.86 3.71 <
12 1 3 -1 0 87.60 112.41 13.66 o
12 1 3 -1 1 0.08 -5.08 4.08 <
12 1 3 0 1 0.20 0.08 5.67 <
12 1 4 -1 1 1.81 1.67 3.25 <
12 2 0 -1 -1 19.16 5.71 5.46 <
12 2 0 -1 0 8.07 22.17 7.16 o
12 2 0 -1 1 3.65 11.58 5.21 <
12 2 0 0 0 902.01 946.74 45.94 o
12 2 0 0 1 0.27 -14.00 4.61 <
12 2 0 1 1 0.15 4.43 5.65 <
12 2 1 -1 -1 1.34 24.05 7.47 o
12 2 1 -1 0 30.81 29.65 5.71 o
12 2 1 -1 1 1.19 2.08 2.45 <
12 2 1 0 0 0.31 -3.78 3.76 <
12 2 1 0 1 15.94 8.23 2.35 o
12 2 1 1 1 0.01 -15.31 5.97 <
12 2 2 -1 -1 2.76 -5.98 5.21 <
12 2 2 -1 0 41.00 41.58 7.19 o
12 2 2 -1 1 46.95 39.83 6.17 o
12 2 2 0 0 99.87 72.81 13.22 o
12 2 2 0 1 0.12 -12.76 4.81 <
12 2 3 -1 0 4.81 11.10 7.24 <
12 2 3 -1 1 0.03 -2.91 3.20 <
12 2 4 -1 1 1.90 -5.25 5.12 <
12 3 0 -1 -1 5.18 16.30 7.64 <
12 3 0 -1 0 135.64 134.18 13.86 o
12 3 0 -1 1 1.08 1.00 2.43 <
12 3 0 0 0 130.50 98.23 19.90 o
12 3 0 0 1 17.86 16.31 6.08 <
12 3 1 -1 -1 8.39 3.08 3.07 <
12 3 1 -1 0 46.91 64.81 8.57 o
12 3 1 -1 1 0.17 2.87 2.23 <
12 3 1 0 1 24.72 31.91 7.14 o
12 3 2 -1 0 12.45 9.15 4.03 <
12 3 2 -1 1 0.60 -10.40 4.38 <
12 3 3 -1 1 2.20 -2.15 4.53 <
12 4 0 -1 0 88.65 114.75 23.02 o
12 4 0 -1 1 13.74 11.41 6.45 <
12 4 1 -1 1 0.28 -1.10 2.17 <
12 4 2 -1 1 19.11 15.94 7.94 <
