#------------------------------------------------------------------------------
#$Date: 2022-01-01 06:16:20 +0200 (Sat, 01 Jan 2022) $
#$Revision: 271664 $
#$URL: file:///home/coder/svn-repositories/cod/cif/2/10/89/2108901.cif $
#------------------------------------------------------------------------------
#
# This file is available in the Crystallography Open Database (COD),
# http://www.crystallography.net/. The original data for this entry
# were provided by IUCr Journals, http://journals.iucr.org/.
#
# The file may be used within the scientific community so long as
# proper attribution is given to the journal article from which the
# data were obtained.
#
data_2108901
loop_
_publ_author_name
'Garkul, Ilia'
'Zadesenets, Andrey'
'Filatov, Evgeny'
'Baidina, Iraida'
'Tkachev, Sergey'
'Samsonenko, Denis'
'Korenev, Sergey'
_publ_section_title
;
 Oxonium <i>trans</i>-bis(oxalato)rhodate and related sodium salts: a rare
 example of crystalline complex acid
;
_journal_issue                   6
_journal_name_full               'Acta Crystallographica Section B'
_journal_page_first              1048
_journal_page_last               1054
_journal_paper_doi               10.1107/S205252062101115X
_journal_volume                  77
_journal_year                    2021
_chemical_formula_moiety         'C4 H11 Na2 O14 Rh'
_chemical_formula_sum            'C4 H11 Na2 O14 Rh'
_chemical_formula_weight         432.02
_space_group_crystal_system      triclinic
_space_group_IT_number           2
_space_group_name_Hall           '-P 1'
_space_group_name_H-M_alt        'P -1'
_atom_sites_solution_hydrogens   difmap
_atom_sites_solution_primary     dual
_audit_creation_date             2021-06-21
_audit_creation_method
;
Olex2 1.2
(compiled 2018.05.29 svn.r3508 for OlexSys, GUI svn.r5506)
;
_cell_angle_alpha                94.20(3)
_cell_angle_beta                 99.40(3)
_cell_angle_gamma                98.10(3)
_cell_formula_units_Z            1
_cell_length_a                   5.5500(11)
_cell_length_b                   6.4400(13)
_cell_length_c                   8.5900(17)
_cell_measurement_reflns_used    3338
_cell_measurement_temperature    150(2)
_cell_measurement_theta_max      31.52
_cell_measurement_theta_min      3.21
_cell_volume                     298.42(11)
_computing_cell_refinement       'Bruker SAINT'
_computing_data_collection       'Bruker APEX2'
_computing_data_reduction        'Bruker SAINT'
_computing_molecular_graphics    'Olex2 (Dolomanov et al., 2009)'
_computing_publication_material  'Olex2 (Dolomanov et al., 2009)'
_computing_structure_refinement  'ShelXL (Sheldrick, 2015)'
_computing_structure_solution    'ShelXT (Sheldrick, 2015)'
_diffrn_ambient_temperature      150(2)
_diffrn_detector                 CCD
_diffrn_detector_area_resol_mean 8.33
_diffrn_detector_type            'Bruker APEXII CCD area detector'
_diffrn_measured_fraction_theta_full 0.995
_diffrn_measured_fraction_theta_max 0.994
_diffrn_measurement_device       '\k-geometry diffractometer'
_diffrn_measurement_device_type  'Bruker APEX diffractometer'
_diffrn_measurement_method       '\f and \w scans'
_diffrn_radiation_monochromator  graphite
_diffrn_radiation_type           MoK\a
_diffrn_radiation_wavelength     0.71073
_diffrn_reflns_av_R_equivalents  0.0233
_diffrn_reflns_av_unetI/netI     0.0315
_diffrn_reflns_Laue_measured_fraction_full 0.995
_diffrn_reflns_Laue_measured_fraction_max 0.994
_diffrn_reflns_limit_h_max       7
_diffrn_reflns_limit_h_min       -8
_diffrn_reflns_limit_k_max       9
_diffrn_reflns_limit_k_min       -6
_diffrn_reflns_limit_l_max       9
_diffrn_reflns_limit_l_min       -12
_diffrn_reflns_number            3654
_diffrn_reflns_point_group_measured_fraction_full 0.995
_diffrn_reflns_point_group_measured_fraction_max 0.994
_diffrn_reflns_theta_full        25.242
_diffrn_reflns_theta_max         31.531
_diffrn_reflns_theta_min         2.415
_diffrn_source                   'sealed tube'
_exptl_absorpt_coefficient_mu    1.585
_exptl_absorpt_correction_T_max  0.7462
_exptl_absorpt_correction_T_min  0.6611
_exptl_absorpt_correction_type   multi-scan
_exptl_absorpt_process_details
'SADABS-2012/1 (Bruker,2012) was used for absorption correction. wR2(int) was 0.0409 before and 0.0312 after correction. The Ratio of minimum to maximum transmission is 0.8860. The \l/2 correction factor is 0.0015.'
_exptl_crystal_colour            'light yellow'
_exptl_crystal_colour_modifier   light
_exptl_crystal_colour_primary    yellow
_exptl_crystal_density_diffrn    2.404
_exptl_crystal_density_method    'not measured'
_exptl_crystal_description       plate
_exptl_crystal_F_000             214
_exptl_crystal_size_max          0.2
_exptl_crystal_size_mid          0.12
_exptl_crystal_size_min          0.06
_refine_diff_density_max         0.814
_refine_diff_density_min         -1.148
_refine_diff_density_rms         0.092
_refine_ls_extinction_method     none
_refine_ls_goodness_of_fit_ref   1.064
_refine_ls_hydrogen_treatment    refxyz
_refine_ls_matrix_type           full
_refine_ls_number_parameters     115
_refine_ls_number_reflns         1984
_refine_ls_number_restraints     6
_refine_ls_restrained_S_all      1.064
_refine_ls_R_factor_all          0.0172
_refine_ls_R_factor_gt           0.0170
_refine_ls_shift/su_max          0.000
_refine_ls_shift/su_mean         0.000
_refine_ls_structure_factor_coef Fsqd
_refine_ls_weighting_details
'w=1/[\s^2^(Fo^2^)+0.2058P] where P=(Fo^2^+2Fc^2^)/3'
_refine_ls_weighting_scheme      calc
_refine_ls_wR_factor_gt          0.0421
_refine_ls_wR_factor_ref         0.0426
_reflns_Friedel_coverage         0.000
_reflns_number_gt                1975
_reflns_number_total             1984
_reflns_threshold_expression     'I > 2\s(I)'
_cod_data_source_file            yh5016sup1.cif
_cod_data_source_block           Na2Rh
_cod_database_code               2108901
_publcif_datablock.id            {ffbded9b-fb91-462b-a3ca-93c3f3fc7256}
_shelx_shelxl_version_number     2017/1
_shelx_space_group_comment
;
The symmetry employed for this shelxl refinement is uniquely defined
by the following loop, which should always be used as a source of
symmetry information in preference to the above space-group names.
They are only intended as comments.
;
_shelx_estimated_absorpt_t_max   0.911
_shelx_estimated_absorpt_t_min   0.742
_olex2_refinement_description
;
1. Fixed Uiso
 At 1.5 times of:
  All O(H,H) groups
2. Restrained distances
 O2W-H2WA = O2W-H2WB
 0.84 with sigma of 0.02
 O3W-H3WA = O3W-H3WB
 0.84 with sigma of 0.02
 O1W-H1WA = O1W-H1W
 0.84 with sigma of 0.02
3. Others
 Fixed Sof: H1W(0.5)
;
_shelx_res_file
;
TITL my_a.res in P-1
    n.res
    created by SHELXL-2017/1 at 13:27:08 on 21-Jun-2021
REM Old TITL my in P1
REM SHELXT solution in P-1
REM R1 0.035, Rweak 0.054, Alpha 0.088, Orientation as input
REM Formula found by SHELXT: C4 O14 Na2 Rh
CELL 0.71073 5.55 6.44 8.59 94.2 99.4 98.1
ZERR 1 0.0011 0.0013 0.0017 0.03 0.03 0.03
LATT 1
SFAC C H Na O Rh
UNIT 4 11 2 14 1
DFIX 0.84 O2W H2Wa O2W H2Wb
DFIX 0.84 O3W H3Wa O3W H3Wb
DFIX 0.84 O1W H1Wa O1W H1W

L.S. 10
PLAN  10
SIZE 0.2 0.12 0.06
TEMP -123(2)
BOND $H
list 4
fmap 2 53
ACTA
MERG 2
OMIT 0 180
REM <olex2.extras>
REM <HklSrc "%.\\n.hkl">
REM </olex2.extras>

WGHT    0.000000    0.205800
FVAR       1.00270
RH1   5    1.000000    0.500000    1.000000    10.50000    0.00469    0.00475 =
         0.00449   -0.00041    0.00005   -0.00056
NA1   3    0.343386    0.275786    0.391339    11.00000    0.01282    0.01731 =
         0.01064   -0.00157    0.00117    0.00001
O1    4    0.821546    0.436684    0.772978    11.00000    0.01031    0.00835 =
         0.00585    0.00048   -0.00073   -0.00047
O2    4    0.846345    0.201361    1.016098    11.00000    0.00971    0.00651 =
         0.00756    0.00050   -0.00009   -0.00159
O2A   4    0.640137   -0.080943    0.858591    11.00000    0.01289    0.00633 =
         0.01277   -0.00096    0.00106   -0.00142
O1W   4    0.699201    0.612538    1.060570    11.00000    0.00666    0.00930 =
         0.01065    0.00047    0.00285    0.00108
H1WA  2    0.688317    0.714792    1.014589    11.00000   -1.50000
PART -1
H1W   2    0.561911    0.548898    1.018955    10.50000   -1.50000
PART 0
O2W   4    0.277342    0.490250    0.615253    11.00000    0.01571    0.01929 =
         0.01399    0.00103    0.00610    0.00263
H2WA  2    0.175612    0.574953    0.608253    11.00000   -1.50000
H2WB  2    0.276129    0.437391    0.701236    11.00000   -1.50000
O1A   4    0.601396    0.163429    0.611752    11.00000    0.04320    0.01159 =
         0.01056   -0.00195   -0.01022   -0.00319
O3W   4   -0.078867    0.109917    0.336190    11.00000    0.01697    0.02670 =
         0.01679    0.00550    0.00388   -0.00128
H3WA  2   -0.150270    0.105145    0.243914    11.00000   -1.50000
H3WB  2   -0.192877    0.059711    0.377259    11.00000   -1.50000
C1    1    0.716699    0.243496    0.740933    11.00000    0.01333    0.00827 =
         0.00794   -0.00039   -0.00069    0.00112
C2    1    0.734587    0.106150    0.881499    11.00000    0.00702    0.00703 =
         0.00826   -0.00012    0.00121    0.00106
HKLF 4




REM  my_a.res in P-1
REM R1 =  0.0170 for    1975 Fo > 4sig(Fo)  and  0.0172 for all    1984 data
REM    115 parameters refined using      6 restraints

END

WGHT      0.0000      0.2059

REM Highest difference peak  0.814,  deepest hole -1.148,  1-sigma level  0.092
Q1    1   1.0387  0.4319  1.0647  11.00000  0.05    0.81
Q2    1   0.9954  0.3989  0.9319  11.00000  0.05    0.61
Q3    1   0.7224  0.1793  0.8160  11.00000  0.05    0.60
Q4    1   0.7968  0.5149  1.0239  11.00000  0.05    0.39
Q5    1   0.8786  0.3156  0.9939  11.00000  0.05    0.37
Q6    1   0.6656  0.0121  0.8957  11.00000  0.05    0.37
Q7    1   0.8851  0.4049  0.8645  11.00000  0.05    0.37
Q8    1   0.8445  0.3408  0.9937  11.00000  0.05    0.35
Q9    1   0.8170  0.5856  1.0554  11.00000  0.05    0.34
Q10   1   0.8287  0.4174  0.9399  11.00000  0.05    0.33
;
_shelx_res_checksum              97735
_shelx_hkl_file
;
  -1   0   0  725.13   25.80
  -1   0   0  712.53   25.80
   1   0   0  725.93   25.80
  -2   0   0  162.28    6.70
   2   0   0  173.58    6.80
  -3   0   0 2644.94   94.49
   3   0   0 2643.44   94.49
  -4   0   0  183.78    8.20
   4   0   0  186.98    8.20
  -5   0   0  165.28    6.60
  -5   0   0  168.78    8.20
   5   0   0  173.48    8.10
  -6   0   0  622.14   24.60
  -6   0   0  632.84   19.90
   6   0   0  603.64   24.40
  -7   0   0  362.76   16.40
  -7   0   0  373.06   13.10
  -8   1   0  275.37   11.20
  -8   1   0  268.17   13.60
  -7   1   0  301.57   14.10
  -7   1   0  314.97   11.70
   6  -1   0  396.46   16.70
  -6   1   0  413.66   17.00
  -6   1   0  408.26   13.90
   5  -1   0  774.02   29.30
  -5   1   0  773.42   29.50
  -5   1   0  783.62   24.10
   4  -1   0  472.65   17.70
  -4   1   0  445.46   17.70
   3  -1   0  983.60   34.00
  -3   1   0  873.11   33.90
  -3   1   0  938.61   34.00
   2  -1   0 2145.39   75.79
  -2   1   0 2020.70   74.99
  -2   1   0 2147.09   76.09
   1  -1   0 2511.85   93.79
   1  -1   0 2720.53   93.79
  -1   1   0 2544.15   93.59
  -1   1   0 2650.73   93.69
   0  -1   0 1631.24   60.59
   0  -1   0 1758.72   60.79
   0   1   0 1664.93   60.69
   0   1   0 1681.33   60.69
  -1  -1   0  752.92   26.30
  -1  -1   0  711.13   26.30
   1   1   0  724.23   26.30
  -2  -1   0  414.06   15.70
   2   1   0  421.26   15.80
  -3  -1   0  501.25   19.00
   3   1   0  504.75   19.10
  -4  -1   0 2176.68   78.99
   4   1   0 2199.78   78.99
  -5  -1   0  108.99    4.80
  -5  -1   0  112.99    6.30
   5   1   0  116.89    6.40
  -6  -1   0  790.02   29.00
  -6  -1   0  697.83   22.90
   6   1   0  721.23   28.70
  -7  -1   0  539.25   18.20
  -7  -1   0  583.24   23.50
  -8   2   0  100.19    6.70
  -8   2   0  115.89    7.90
  -7   2   0  331.77   14.80
  -7   2   0  316.57   12.30
  -6   2   0  424.16   14.70
  -6   2   0  427.46   17.70
   5  -2   0  276.47   11.70
  -5   2   0  282.77   10.00
  -5   2   0  282.87   12.00
   4  -2   0  491.75   18.70
  -4   2   0  495.95   18.90
  -4   2   0  483.65   15.50
   3  -2   0  399.86   14.90
  -3   2   0  358.46   14.80
  -3   2   0  418.46   15.10
   2  -2   0 1116.19   38.60
  -2   2   0 1070.49   38.60
  -2   2   0 1032.00   38.60
   1  -2   0  226.88    8.20
  -1   2   0  217.88    8.30
  -1   2   0  215.18    8.30
   0  -2   0 1080.29   37.80
   0   2   0  985.80   37.70
   0   2   0 1102.29   38.60
  -1  -2   0 5014.20  170.68
   1   2   0 4593.74  169.78
   1   2   0 4574.34  170.38
  -2  -2   0  604.14   22.40
  -3  -2   0  515.45   19.40
   3   2   0  496.25   19.40
  -4  -2   0 1911.41   69.79
   4   2   0 1935.21   69.89
  -5  -2   0  725.03   28.00
   5   2   0  726.23   28.10
  -6  -2   0   32.40    4.10
   6   2   0   32.70    3.90
  -7  -2   0  197.38   10.70
  -7   3   0  398.36   17.40
  -7   3   0  409.46   14.80
  -6   3   0  372.16   15.50
  -6   3   0  358.26   13.00
   5  -3   0  445.36   17.90
  -5   3   0  463.45   15.30
  -5   3   0  481.35   18.40
   4  -3   0  448.06   16.40
  -4   3   0  376.06   16.40
  -4   3   0  438.56   16.70
  -4   3   0  454.15   14.00
   3  -3   0  481.45   17.60
  -3   3   0  436.16   17.60
  -3   3   0  497.25   17.90
   2  -3   0 1397.66   48.80
  -2   3   0 1394.16   48.90
  -2   3   0 1404.76   48.90
  -2   3   0 1242.68   48.80
   1  -3   0 1511.75   55.49
  -1   3   0 1599.94   54.89
  -1   3   0 1488.75   54.89
   0  -3   0 3547.34  121.79
   0   3   0 3097.79  120.59
   0   3   0 3454.45  121.29
  -1  -3   0 1236.98   42.60
   1   3   0 1187.48   42.70
   1   3   0 1112.39   42.60
  -2  -3   0  232.98    9.20
   2   3   0  212.58    9.20
  -3  -3   0  113.79    5.80
   3   3   0  115.29    5.90
  -4  -3   0  521.65   20.60
   4   3   0  523.95   20.60
  -5  -3   0  431.46   18.00
   5   3   0  438.86   18.10
  -6  -3   0   75.09    5.90
   6   3   0   64.69    5.80
  -7  -3   0  338.77   15.80
   7   3   0  341.67   15.90
  -7   4   0  377.86   14.50
  -7   4   0  394.36   16.90
  -6   4   0  737.13   27.60
  -6   4   0  676.03   22.90
  -5   4   0   18.70    2.70
  -5   4   0   21.70    2.80
   4  -4   0  197.78    8.50
  -4   4   0  208.88    7.80
  -4   4   0  214.08    9.00
   3  -4   0 1183.38   40.90
  -3   4   0 1160.48   33.70
  -3   4   0 1022.50   41.00
  -3   4   0 1154.08   41.20
   2  -4   0  181.48    7.10
  -2   4   0  166.58    7.20
  -2   4   0  179.58    7.40
   1  -4   0 2099.89   71.99
  -1   4   0 1865.51   72.09
  -1   4   0 2082.39   72.19
   0  -4   0  696.63   24.50
   0   4   0  691.13   24.70
   0   4   0  610.94   24.50
  -1  -4   0   21.20    2.00
   1   4   0   12.10    1.90
  -2  -4   0  538.15   20.30
   2   4   0  530.55   20.50
  -3  -4   0  275.17   11.70
   3   4   0  278.97   11.80
  -4  -4   0  691.83   26.80
   4   4   0  696.73   27.00
  -5  -4   0  896.21   35.10
   5   4   0  935.51   35.40
  -6  -4   0  251.37   12.30
   6   4   0  256.57   12.60
  -7   5   0  106.09    6.80
  -7   5   0  118.39    7.40
  -7   5   0  117.59    7.40
  -6   5   0   52.99    4.70
  -6   5   0   41.90    4.00
  -6   5   0   45.70    4.30
  -5   5   0  277.07   11.90
  -5   5   0  270.07   11.90
  -5   5   0  270.87   10.30
  -4   5   0  259.67    9.50
  -4   5   0  260.17   11.00
   3  -5   0  661.53   25.00
  -3   5   0  687.93   21.10
  -3   5   0  690.13   25.50
   2  -5   0 1209.68   42.50
  -2   5   0 1211.68   35.00
  -2   5   0 1211.08   42.90
  -2   5   0 1074.59   42.70
   1  -5   0  259.77    9.70
  -1   5   0  243.88   10.00
  -1   5   0  228.98    9.70
   0  -5   0 1008.90   34.40
   0   5   0  823.92   34.30
   0   5   0  985.10   34.60
  -1  -5   0  481.75   18.70
   1   5   0  498.05   19.00
  -2  -5   0   77.99    4.60
   2   5   0   86.09    5.10
  -3  -5   0 1522.95   56.39
   3   5   0 1552.54   56.69
  -4  -5   0  455.55   19.30
   4   5   0  500.85   19.80
   5   5   0  133.99    8.20
   6   5   0  196.18   10.80
  -6   6   0  112.19    7.00
  -6   6   0  114.69    6.60
  -5   6   0  625.74   20.30
  -5   6   0  607.24   24.10
  -4   6   0  450.45   15.00
  -4   6   0  440.16   17.70
  -3   6   0  133.29    5.80
  -3   6   0  137.49    6.80
  -2   6   0  942.41   34.30
  -2   6   0  908.41   27.90
  -1   6   0  487.05   18.90
   0  -6   0   82.99    4.30
   0   6   0   88.99    5.00
  -1  -6   0  387.96   15.80
   1   6   0  425.06   16.40
   2   6   0  522.75   20.80
   3   6   0  198.38    9.80
   4   6   0  289.87   13.50
   5   6   0  148.59    9.10
  -6   7   0  195.78    9.20
  -6   7   0  194.98   10.00
  -5   7   0    8.50    2.70
  -5   7   0   12.10    2.70
  -4   7   0  245.08   10.90
  -4   7   0  238.88    9.40
  -3   7   0  492.75   15.90
  -3   7   0  474.65   19.10
  -2   7   0  131.59    6.80
  -2   7   0  135.19    5.50
  -1   7   0  521.15   20.50
   0   7   0  332.37   14.00
   1   7   0  255.97   11.50
   2   7   0  378.96   16.10
   3   7   0  175.28    9.40
   4   7   0  393.86   17.60
  -5   8   0   20.20    3.30
  -5   8   0   26.40    3.40
  -4   8   0  646.94   20.90
  -4   8   0  630.24   25.00
  -3   8   0  434.16   17.70
  -3   8   0  431.16   14.60
  -2   8   0  201.08    7.50
  -2   8   0  203.48    9.60
  -1   8   0  389.96   16.30
   0   8   0  330.17   14.30
   1   8   0   88.29    6.20
   2   8   0   85.19    6.30
   3   8   0  603.94   24.90
  -3   9   0  477.55   16.10
  -3   9   0  482.85   19.70
  -2   9   0   70.69    5.40
  -1   9   0   50.59    4.70
   0   9   0  243.08   11.60
   1   9   0   71.59    6.00
   1   9  -1  122.09    7.40
   0   9  -1  181.98    9.30
  -1   9  -1  256.67   11.70
  -2   9  -1  161.18    8.30
  -3   9  -1  124.29    6.10
  -3   9  -1  130.99    7.10
   3   8  -1  291.97   13.80
   2   8  -1   67.79    5.60
   1   8  -1   72.69    5.40
   0   8  -1  162.98    8.20
  -1   8  -1  379.66   15.70
  -2   8  -1  269.77    9.70
  -2   8  -1  276.37   11.80
  -3   8  -1  343.87   13.90
  -3   8  -1  315.97   11.70
  -4   8  -1  295.37   12.60
  -4   8  -1  286.97   11.10
  -5   8  -1  122.89    6.70
  -5   8  -1  109.89    6.70
   4   7  -1   14.90    3.30
   3   7  -1  337.57   15.00
   2   7  -1  262.57   11.90
   1   7  -1   67.89    4.80
   0   7  -1  851.11   32.00
  -1   7  -1  546.35   20.90
  -1   7  -1  537.05   16.90
  -2   7  -1  665.03   20.70
  -2   7  -1  665.33   25.30
  -3   7  -1  289.97   10.50
  -3   7  -1  295.67   12.20
  -4   7  -1   19.00    2.70
  -4   7  -1   15.50    2.60
  -5   7  -1  247.38   10.10
  -5   7  -1  245.58   11.10
  -6   7  -1  273.77   12.20
  -6   7  -1  244.68   10.80
   5   6  -1  409.76   18.20
   4   6  -1   87.59    6.40
   3   6  -1  378.26   16.00
   2   6  -1 1141.59   42.50
   1   6  -1  111.49    5.90
   0   6  -1  163.28    7.40
  -1   6  -1 1884.01   55.09
  -1   6  -1 1883.81   67.89
  -2   6  -1   54.69    3.50
  -2   6  -1   53.19    3.20
  -3   6  -1    8.50    1.80
  -3   6  -1    6.40    1.70
  -4   6  -1  758.92   28.60
  -4   6  -1  760.02   24.00
  -5   6  -1  361.86   14.90
  -5   6  -1  356.06   13.00
  -6   6  -1  213.18   10.30
  -6   6  -1  215.28    9.50
   6   5  -1  123.99    8.30
   5   5  -1  317.17   14.60
   4   5  -1  675.23   25.60
  -4  -5   1  618.44   25.10
   3   5  -1   98.39    5.70
  -3  -5   1   85.49    5.10
   2   5  -1  401.56   15.80
  -2  -5   1  388.06   15.40
   1   5  -1  432.06   18.00
   1   5  -1  501.25   18.40
  -1  -5   1  495.85   18.00
   0   5  -1   88.19    4.40
   0   5  -1  100.39    4.80
   0  -5   1   96.09    4.30
  -1   5  -1 1180.68   41.80
   1  -5   1 1124.39   41.30
  -2   5  -1  827.92   32.10
  -2   5  -1  929.61   32.30
  -2   5  -1  891.61   26.60
  -3   5  -1  260.87    8.90
  -3   5  -1  243.98   10.20
  -4   5  -1  732.13   23.10
  -4   5  -1  742.23   27.70
  -5   5  -1  568.14   21.80
  -5   5  -1  568.34   21.80
  -5   5  -1  540.85   18.40
  -6   5  -1   77.39    5.50
  -6   5  -1   75.99    5.30
  -7   5  -1  230.88   11.30
  -7   5  -1  233.98   10.30
   6   4  -1  293.17   14.10
  -6  -4   1  301.87   13.90
   5   4  -1  785.42   30.10
  -5  -4   1  748.83   29.70
   4   4  -1  402.46   16.50
  -4  -4   1  395.16   16.30
   3   4  -1  230.08   10.10
  -3  -4   1  230.08    9.90
   2   4  -1  535.95   20.60
  -2  -4   1  545.65   20.40
   1   4  -1 1143.19   40.00
   1   4  -1 1023.10   39.80
  -1  -4   1 1125.89   39.80
   0   4  -1 1260.97   48.90
   0   4  -1 1425.46   49.00
   0  -4   1 1400.16   48.80
  -1   4  -1  992.00   33.90
  -1   4  -1  889.31   33.70
   1  -4   1  924.21   33.50
  -2   4  -1 2173.58   79.79
  -2   4  -1 2282.97   79.89
   2  -4   1 2255.27   79.49
  -3   4  -1  134.89    5.80
  -3   4  -1  124.39    5.20
  -3   4  -1  132.39    5.80
   3  -4   1  129.29    5.30
  -4   4  -1    2.60    1.50
  -4   4  -1   -1.10    1.40
  -5   4  -1  701.03   22.10
  -5   4  -1  682.83   26.30
  -6   4  -1  364.86   15.40
  -6   4  -1  368.16   13.30
  -7   4  -1   61.29    5.50
  -7   4  -1   65.69    5.60
   7   3  -1  403.36   17.80
  -7  -3   1  384.76   17.60
   6   3  -1  789.82   31.20
  -6  -3   1  790.62   31.10
   5   3  -1  244.08   11.40
  -5  -3   1  251.97   11.40
   4   3  -1  390.76   16.20
  -4  -3   1  402.76   16.10
   3   3  -1  466.55   18.00
  -3  -3   1  457.05   17.80
   2   3  -1   70.59    3.90
  -2  -3   1   71.29    3.70
   1   3  -1 3057.19  102.99
   1   3  -1 2730.23  102.79
  -1  -3   1 2876.81  104.49
   0   3  -1  956.70   34.20
   0  -3   1  942.61   34.10
  -1   3  -1  304.27   11.50
  -1   3  -1  318.87   11.60
   1  -3   1  310.67   11.30
  -2   3  -1  903.31   31.20
  -2   3  -1  830.12   31.10
   2  -3   1  855.41   30.90
  -3   3  -1   34.80    2.50
  -3   3  -1   32.20    2.60
  -3   3  -1   32.10    2.20
   3  -3   1   31.20    2.00
  -4   3  -1  309.77   10.30
  -4   3  -1  264.87   11.70
  -4   3  -1  313.47   12.10
   4  -3   1  307.97   11.70
  -5   3  -1 1255.77   37.80
  -5   3  -1 1244.08   46.10
  -6   3  -1  665.43   22.10
  -6   3  -1  699.13   26.60
  -7   3  -1  120.49    7.60
  -7   3  -1  137.59    7.00
   7   2  -1  106.29    7.20
  -7  -2   1   98.89    7.40
   6   2  -1  399.16   16.80
  -6  -2   1  368.56   16.50
   5   2  -1  426.66   17.70
  -5  -2   1  452.05   17.70
  -5  -2   1  418.06   13.80
   4   2  -1    7.10    1.90
  -4  -2   1    6.90    1.80
   3   2  -1  766.62   28.80
  -3  -2   1  781.42   28.70
   2   2  -1 3167.48  115.09
  -2  -2   1 3295.67  115.09
   1   2  -1  405.26   14.80
   1   2  -1  379.96   14.80
  -1  -2   1  413.76   14.80
   0   2  -1 3570.74  129.79
   0   2  -1 3583.24  130.09
   0  -2   1 3738.23  129.89
  -1   2  -1 1799.92   63.99
  -1   2  -1 1795.12   63.69
   1  -2   1 1728.13   63.39
  -2   2  -1   83.59    3.70
   2  -2   1   83.29    3.50
  -3   2  -1 2696.83   93.99
  -3   2  -1 2430.66   92.49
   3  -2   1 2653.83   92.39
  -4   2  -1  600.04   21.50
  -4   2  -1  499.75   21.10
  -4   2  -1  585.14   17.70
   4  -2   1  571.84   21.10
  -5   2  -1  454.05   14.70
  -5   2  -1  449.66   17.70
   5  -2   1  430.46   17.30
  -6   2  -1  754.82   23.80
  -6   2  -1  739.53   28.90
  -7   2  -1   28.90    4.10
  -7   2  -1   24.50    3.30
   7   1  -1  580.64   24.40
  -7  -1   1  613.74   24.60
  -7  -1   1  600.24   19.60
   6   1  -1  309.87   13.90
  -6  -1   1  307.17   14.00
  -6  -1   1  329.37   11.10
   5   1  -1  703.43   27.30
  -5  -1   1  693.33   21.80
  -5  -1   1  723.33   27.20
   4   1  -1  860.11   31.90
  -4  -1   1  844.02   31.80
   3   1  -1 1023.50   38.30
  -3  -1   1 1071.49   38.30
   2   1  -1 2762.32  100.29
  -2  -1   1 2871.01  101.19
   1   1  -1  346.37   13.40
   1   1  -1  369.96   13.50
  -1  -1   1  387.16   13.50
  -1  -1   1  368.76   13.50
   0   1  -1 1479.45   52.49
   0   1  -1 1449.55   52.39
  -1   1  -1 3027.50  107.29
  -1   1  -1 2946.21  107.09
   1  -1   1 2999.40  106.99
   1  -1   1 3010.10  106.99
  -2   1  -1  208.98    8.30
  -2   1  -1  220.48    8.30
   2  -1   1  217.88    8.30
  -3   1  -1   99.59    4.60
  -3   1  -1   89.59    4.40
   3  -1   1  100.69    4.50
  -4   1  -1 1478.85   53.89
  -4   1  -1 1468.15   44.00
   4  -1   1 1502.05   53.79
  -5   1  -1  258.97   11.10
  -5   1  -1  253.37    9.10
   5  -1   1  252.67   10.90
  -6   1  -1  125.39    7.40
  -6   1  -1  133.39    6.10
  -7   1  -1  438.36   18.70
  -7   1  -1  431.26   15.20
  -8   0   1  220.08   11.90
  -8   0   1  215.58    9.40
  -7   0   1  606.64   24.70
  -7   0   1  606.64   20.10
   6   0  -1  712.83   28.70
  -6   0   1  751.42   28.80
  -6   0   1  754.42   23.40
   5   0  -1  113.99    6.30
  -5   0   1  117.09    6.40
  -5   0   1  115.29    5.20
   4   0  -1  481.75   18.70
  -4   0   1  486.05   18.70
   2   0  -1   10.50    1.40
  -2   0   1    9.80    1.30
   1   0  -1 5771.22  202.58
  -1   0   1 5573.34  202.38
  -1   0   1 5613.84  202.18
   0   0  -1 2028.40   71.99
   0   0  -1 2008.90   72.09
   0   0   1 1970.20   71.99
   0   0   1 2022.20   71.99
  -1   0  -1  460.55   16.60
  -1   0  -1  459.75   16.60
   1   0   1  472.45   16.60
   1   0   1  439.16   16.60
  -2   0  -1 2188.18   79.29
  -2   0  -1 2133.69   79.29
   2   0   1 2348.47   79.29
  -3   0  -1  347.77   13.30
   3   0   1  340.37   13.30
  -4   0  -1 1053.49   38.40
   4   0   1 1030.50   38.30
  -5   0  -1  907.01   27.50
  -5   0  -1  913.31   34.10
   5   0   1  898.11   34.00
  -6   0  -1  297.17   10.40
  -6   0  -1  298.17   13.10
   6   0   1  270.27   12.50
  -7   0  -1  404.86   17.40
  -7   0  -1  379.26   13.70
  -8   1   1   87.49    7.10
  -8   1   1   77.99    5.80
  -7   1   1  195.88    8.50
  -7   1   1  189.08   10.20
   6  -1  -1  670.83   26.30
  -6   1   1  663.23   21.50
  -6   1   1  685.33   26.40
   5  -1  -1  107.49    5.90
  -5   1   1  104.39    5.00
  -5   1   1  109.29    6.00
   4  -1  -1    7.50    1.70
  -4   1   1   10.60    1.80
  -4   1   1   12.10    2.00
   3  -1  -1 1583.74   56.39
  -3   1   1 1547.15   56.39
   2  -1  -1 9999.00  346.47
  -2   1   1 9432.46  345.37
  -2   1   1 9563.04  345.97
   1  -1  -1 1997.10   70.39
   1  -1  -1 1788.72   68.99
  -1   1   1 2001.30   69.49
  -1   1   1 1915.81   69.49
  -1   1   1 1953.50   69.49
   0  -1  -1  849.02   31.10
   0  -1  -1  834.32   30.40
   0   1   1  862.31   30.40
  -1  -1  -1 2307.17   83.79
   1   1   1 2246.88   83.09
   1   1   1 2323.37   83.19
  -2  -1  -1  282.57   11.00
   2   1   1  285.97   11.10
  -3  -1  -1  800.72   29.10
   3   1   1  770.32   29.00
  -4  -1  -1  478.65   18.40
   4   1   1  460.25   18.30
  -5  -1  -1  841.32   26.20
  -5  -1  -1  883.41   33.00
   5   1   1  880.11   32.90
  -6  -1  -1  335.37   11.60
  -6  -1  -1  348.97   15.00
   6   1   1  337.87   14.90
  -7  -1  -1   17.90    3.50
  -8   2   1  118.59    8.70
  -8   2   1  152.58    7.80
  -7   2   1  157.48    8.80
  -7   2   1  146.99    7.50
   6  -2  -1  940.71   35.80
  -6   2   1  947.21   29.50
  -6   2   1  951.50   36.00
   5  -2  -1  354.36   14.40
  -5   2   1  349.57   12.10
  -5   2   1  355.76   14.60
   4  -2  -1   92.39    4.80
  -4   2   1   96.19    5.10
  -4   2   1   88.99    4.20
   3  -2  -1 4531.05  163.88
  -3   2   1 4548.65  162.58
   2  -2  -1 2162.88   73.89
  -2   2   1 1910.21   72.49
  -2   2   1 2029.00   72.59
   1  -2  -1  274.17   10.00
  -1   2   1  264.97   10.00
  -1   2   1  249.58   10.00
   0  -2  -1  465.45   16.80
   0   2   1  464.75   16.90
   0   2   1  436.86   16.80
   1   2   1  404.16   15.20
  -2  -2  -1  806.12   29.00
   2   2   1  767.82   29.00
  -3  -2  -1  730.03   27.20
   3   2   1  724.13   27.20
  -4  -2  -1 1037.60   39.60
   4   2   1 1099.49   39.70
  -5  -2  -1  733.03   27.70
   5   2   1  693.13   27.60
  -6  -2  -1   54.49    5.10
   6   2   1   43.00    4.50
  -7  -2  -1  171.88   10.00
  -8   3   1  400.86   18.00
  -7   3   1   80.89    6.30
  -7   3   1   88.99    5.90
  -6   3   1  269.77   10.60
  -6   3   1  292.97   12.70
   5  -3  -1  921.91   35.00
  -5   3   1  977.60   35.30
  -5   3   1  922.31   29.00
   4  -3  -1    7.10    1.50
  -4   3   1    7.80    1.90
  -4   3   1   10.10    1.90
   3  -3  -1  208.28    7.90
  -3   3   1  192.08    8.00
  -3   3   1  164.38    7.70
   2  -3  -1 2486.45   83.79
  -2   3   1 2163.38   83.69
  -2   3   1 2385.86   85.29
   1  -3  -1  413.86   14.80
  -1   3   1  367.66   14.70
  -1   3   1  397.26   14.80
   0  -3  -1  452.35   16.30
   0   3   1  452.45   16.40
   0   3   1  397.66   16.20
  -1  -3  -1 3489.55  124.59
   1   3   1 3412.86  122.99
  -2  -3  -1  860.11   31.80
   2   3   1  861.21   31.80
  -3  -3  -1  755.02   28.70
   3   3   1  773.12   28.80
  -4  -3  -1  832.72   31.10
   4   3   1  803.42   31.10
  -5  -3  -1   90.19    5.90
   5   3   1   85.99    6.00
  -6  -3  -1  302.97   14.00
   6   3   1  298.87   13.90
  -7   4   1  326.47   12.80
  -7   4   1  336.77   15.00
  -6   4   1   95.09    6.30
  -6   4   1   92.19    5.60
  -5   4   1  320.97   13.80
  -5   4   1  342.97   11.80
   4  -4  -1  690.83   26.60
  -4   4   1  723.13   26.90
  -4   4   1  707.23   22.20
  -4   4   1  727.23   27.00
   3  -4  -1  100.59    4.60
  -3   4   1   95.89    4.80
  -3   4   1   86.99    4.10
  -3   4   1   76.59    4.30
   2  -4  -1 3944.81  133.39
  -2   4   1 3843.52  134.19
  -2   4   1 3362.86  132.19
   1  -4  -1 2150.28   75.29
  -1   4   1 2223.78   75.49
  -1   4   1 1933.21   75.29
   0  -4  -1  121.39    5.50
   0   4   1  121.69    5.70
  -1  -4  -1 1212.98   44.50
   1   4   1 1228.98   44.60
  -2  -4  -1  885.81   33.20
   2   4   1  902.71   33.40
  -3  -4  -1   15.30    2.30
   3   4   1   20.60    2.80
  -4  -4  -1  414.96   17.00
   4   4   1  406.26   17.00
  -5  -4  -1  607.24   24.10
   5   4   1  592.34   24.20
  -6  -4  -1  145.79    8.60
   6   4   1  141.19    8.70
  -7   5   1  106.69    7.30
  -7   5   1   93.39    6.50
  -7   5   1   99.39    7.20
  -6   5   1  145.49    8.20
  -6   5   1  146.59    7.30
  -6   5   1  150.68    8.40
  -5   5   1  302.27   13.00
  -5   5   1  293.67   11.00
  -4   5   1  501.65   16.00
  -4   5   1  478.05   19.20
   3  -5  -1  775.22   28.80
  -3   5   1  764.12   29.10
  -3   5   1  791.32   23.80
   2  -5  -1  335.47   12.70
  -2   5   1  349.27   13.10
  -2   5   1  291.77   12.70
   1  -5  -1  477.95   18.10
  -1   5   1  472.85   18.30
   0  -5  -1  122.99    5.70
   0   5   1  121.19    6.10
  -1  -5  -1    6.40    1.60
   1   5   1    3.80    1.80
  -2  -5  -1 1881.31   68.89
   2   5   1 1912.81   69.09
  -3  -5  -1  664.53   25.70
   3   5   1  663.23   26.00
  -4  -5  -1  143.09    7.70
   4   5   1  142.49    8.00
  -5  -5  -1  707.53   28.20
   5   5   1  711.03   28.50
  -6   6   1  269.87   10.80
  -6   6   1  247.58   12.10
  -5   6   1  264.47   12.10
  -5   6   1  273.67   10.50
  -4   6   1  300.67   13.20
  -4   6   1  325.77   11.30
  -3   6   1  510.75   16.20
  -3   6   1  497.95   19.70
  -2   6   1  383.16   15.30
  -2   6   1  379.66   12.30
   1  -6  -1  354.36   14.80
  -1   6   1  409.86   15.50
   0  -6  -1  243.58   10.40
   0   6   1  257.07   11.00
  -1  -6  -1  750.72   28.80
   1   6   1  777.12   29.20
  -2  -6  -1  878.21   33.80
   2   6   1  917.81   34.30
   3   6   1  370.16   16.00
   4   6   1   91.39    6.70
   5   6   1   68.79    6.20
  -6   7   1  183.78    9.00
  -6   7   1  205.38   10.40
  -5   7   1  155.08    8.50
  -5   7   1  150.48    7.40
  -4   7   1  352.26   15.00
  -4   7   1  356.26   12.60
  -3   7   1  483.85   15.60
  -3   7   1  462.65   19.00
  -2   7   1  232.88    8.00
  -2   7   1  216.58   10.20
  -1   7   1  162.38    8.10
   0   7   1  630.24   24.70
   1   7   1  306.97   13.50
   2   7   1  104.69    6.80
   3   7   1  353.06   15.90
   4   7   1  125.29    8.30
  -5   8   1  380.46   16.40
  -5   8   1  361.46   13.80
  -4   8   1  218.08   10.80
  -4   8   1  233.68    9.20
  -3   8   1  138.19    6.10
  -3   8   1  140.69    7.70
  -2   8   1  385.66   16.20
  -1   8   1  213.78   10.40
   0   8   1  182.18    9.40
   1   8   1  204.68   10.50
   2   8   1  318.87   14.70
  -3   9   1  240.78   11.50
  -2   9   1  138.79    8.00
  -1   9   1  205.38   10.40
   0   9   1   38.70    4.40
   1   9  -2   92.79    6.20
   0   9  -2  418.66   17.30
  -1   9  -2  217.68   10.00
  -2   9  -2   77.39    5.00
  -2   9  -2   76.89    4.40
  -3   9  -2  310.17   13.10
  -3   9  -2  309.37   11.40
   3   8  -2   91.39    6.60
   2   8  -2  348.27   15.20
   1   8  -2  243.48   11.10
   0   8  -2  170.48    8.30
  -1   8  -2  399.46   16.10
  -1   8  -2  404.86   13.20
  -2   8  -2  239.98    8.80
  -2   8  -2  233.88   10.20
  -3   8  -2  127.79    6.60
  -3   8  -2  133.29    6.20
  -4   8  -2  321.47   11.90
  -4   8  -2  303.37   13.00
  -5   8  -2   92.69    5.70
   4   7  -2  147.99    8.70
   3   7  -2   76.39    5.60
   2   7  -2   84.19    5.50
   1   7  -2  573.64   22.30
   0   7  -2  138.39    5.30
   0   7  -2  140.09    6.80
  -1   7  -2  483.95   18.80
  -1   7  -2  489.15   15.50
  -2   7  -2  803.32   30.10
  -2   7  -2  818.52   25.10
  -3   7  -2   17.20    2.50
  -3   7  -2   17.50    2.20
  -4   7  -2  182.18    8.20
  -4   7  -2  173.18    7.70
  -5   7  -2  524.75   18.20
  -5   7  -2  538.95   21.00
  -6   7  -2  182.18    9.00
   5   6  -2  155.78    9.20
   4   6  -2  137.59    8.00
   3   6  -2  211.38   10.00
   2   6  -2  497.65   19.70
   1   6  -2  637.14   24.20
   0   6  -2 1274.97   46.40
  -1   6  -2  418.56   16.00
  -1   6  -2  416.86   13.30
  -2   6  -2   80.09    4.00
  -2   6  -2   81.69    4.30
  -3   6  -2  425.26   14.20
  -3   6  -2  432.96   16.50
  -4   6  -2  236.38    9.10
  -4   6  -2  235.58   10.00
  -5   6  -2  416.16   14.80
  -5   6  -2  428.76   16.90
  -6   6  -2  293.97   12.80
  -6   6  -2  291.27   11.70
   6   5  -2  161.18    9.60
   5   5  -2  653.33   26.30
   4   5  -2  384.96   16.30
   3   5  -2  292.27   12.50
  -3  -5   2  290.87   12.10
   2   5  -2  535.05   20.20
  -2  -5   2  508.65   19.70
   1   5  -2 1028.40   39.80
   1   5  -2 1167.48   40.00
  -1  -5   2 1085.09   39.60
   0   5  -2  397.96   14.90
   0  -5   2  384.36   14.60
  -1   5  -2   11.40    1.30
  -1   5  -2   10.90    1.40
  -2   5  -2  600.34   21.60
  -2   5  -2  561.34   21.50
  -2   5  -2  593.04   18.20
  -3   5  -2  752.12   27.10
  -3   5  -2  779.42   22.90
  -3   5  -2  682.73   27.00
  -4   5  -2  236.08    9.80
  -4   5  -2  231.98    8.90
  -4   5  -2  236.48    9.80
  -5   5  -2  323.77   11.90
  -5   5  -2  328.27   13.50
  -6   5  -2  399.06   16.40
  -6   5  -2  388.26   14.30
  -7   5  -2  135.09    7.70
  -7   5  -2  147.69    8.20
   6   4  -2  262.67   12.90
   5   4  -2  756.72   29.30
  -5  -4   2  734.13   29.00
   4   4  -2  127.69    6.90
  -4  -4   2  118.19    6.40
   3   4  -2   38.70    3.50
  -3  -4   2   31.80    3.00
   2   4  -2  674.33   28.40
   2   4  -2  815.92   28.40
  -2  -4   2  793.52   28.10
   1   4  -2  858.11   33.20
   1   4  -2  960.80   33.30
  -1  -4   2  917.81   33.10
   0   4  -2  304.77   11.00
   0   4  -2  277.97   10.90
   0  -4   2  283.37   10.60
  -1   4  -2 1358.76   49.99
  -1   4  -2 1442.56   50.09
  -2   4  -2 1208.78   41.50
  -2   4  -2 1149.48   34.30
  -2   4  -2 1106.09   41.40
  -3   4  -2  648.64   19.70
  -3   4  -2  660.83   23.40
  -3   4  -2  594.64   23.30
  -4   4  -2  418.46   14.00
  -4   4  -2  429.56   16.40
  -5   4  -2  322.27   11.80
  -5   4  -2  340.47   13.70
  -6   4  -2  491.85   19.80
  -6   4  -2  487.35   16.90
  -7   4  -2   59.49    5.00
  -7   4  -2   70.79    5.70
   7   3  -2  652.53   27.10
  -7  -3   2  668.83   27.10
   6   3  -2   52.09    5.20
  -6  -3   2   64.99    5.40
   5   3  -2  244.28   11.40
  -5  -3   2  247.28   11.20
   4   3  -2 1213.98   44.80
  -4  -3   2 1204.38   44.70
   3   3  -2    2.20    1.50
  -3  -3   2    3.90    1.40
   2   3  -2 1577.94   63.09
   2   3  -2 1845.92   63.29
  -2  -3   2 1853.71   63.19
   1   3  -2 4853.61  183.68
   1   3  -2 5325.97  184.88
  -1  -3   2 5164.58  183.48
   0   3  -2  829.62   29.80
   0   3  -2  862.51   29.80
   0  -3   2  799.62   29.60
  -1   3  -2  714.73   25.60
  -1   3  -2  714.43   25.60
  -2   3  -2  220.68    8.50
  -2   3  -2  227.98    8.50
  -3   3  -2  217.48    8.40
  -3   3  -2  200.58    8.20
  -3   3  -2  207.38    7.40
   3  -3   2  206.18    7.90
  -4   3  -2  621.64   22.60
  -4   3  -2  532.25   22.30
  -4   3  -2  635.74   18.90
   4  -3   2  610.34   22.10
  -5   3  -2  365.06   12.30
  -5   3  -2  340.27   14.30
  -6   3  -2  209.48    8.60
  -6   3  -2  199.08    9.70
  -7   3  -2  333.77   12.90
  -7   3  -2  341.27   15.20
   7   2  -2  409.86   18.30
  -7  -2   2  437.46   18.40
  -7  -2   2  404.06   14.60
   6   2  -2  376.76   16.40
  -6  -2   2  372.56   12.80
  -6  -2   2  385.26   16.40
   5   2  -2   67.29    5.10
  -5  -2   2   69.59    5.00
   4   2  -2  698.53   27.30
  -4  -2   2  742.73   27.30
   3   2  -2 1816.72   65.89
  -3  -2   2 1832.22   65.79
   2   2  -2   44.00    2.80
   2   2  -2   35.60    2.40
  -2  -2   2   46.10    2.70
   1   2  -2 3059.39  117.09
   1   2  -2 3426.26  118.59
  -1  -2   2 3333.87  117.49
   0   2  -2 1546.65   54.79
   0   2  -2 1486.25   54.29
  -2   2  -2 2219.08   77.89
  -2   2  -2 2154.88   77.29
   2  -2   2 2100.89   76.89
  -3   2  -2 2389.76   87.89
  -3   2  -2 2544.25   87.89
   3  -2   2 2453.95   87.69
  -4   2  -2  282.17    9.40
  -4   2  -2  238.48   10.80
  -4   2  -2  291.77   11.20
   4  -2   2  277.37   10.70
  -5   2  -2  953.50   29.40
  -5   2  -2  967.60   35.90
  -6   2  -2  426.16   17.80
  -6   2  -2  434.86   14.80
  -7   2  -2  142.19    7.10
  -7   2  -2  134.59    8.20
   7   1  -2  234.58   11.80
  -7  -1   2  233.88    9.30
  -7  -1   2  228.28   11.70
   6   1  -2  208.18   10.40
  -6  -1   2  214.78   10.30
  -6  -1   2  206.78    8.20
   5   1  -2  153.88    7.80
  -5  -1   2  154.28    7.80
   4   1  -2  752.92   28.40
  -4  -1   2  750.92   28.30
   3   1  -2 1602.34   58.19
  -3  -1   2 1622.44   58.19
   2   1  -2  336.87   13.80
   2   1  -2  394.66   14.00
  -2  -1   2  374.96   13.90
   1   1  -2 1729.43   60.49
   1   1  -2 1633.44   61.09
  -1  -1   2 1727.13   60.99
   0   1  -2 3066.99  108.89
   0   1  -2 3035.60  108.69
  -1   1  -2 1053.29   37.80
  -1   1  -2 1107.49   37.80
   1  -1   2 1017.70   37.60
   1  -1   2 1033.50   37.70
  -2   1  -2  862.61   32.50
  -2   1  -2  915.61   32.50
   2  -1   2  929.61   32.50
  -3   1  -2 3536.25  134.09
  -3   1  -2 3957.30  136.39
   3  -1   2 3827.82  136.09
  -4   1  -2  703.73   25.90
  -4   1  -2  695.23   21.10
   4  -1   2  669.13   25.60
  -5   1  -2    7.80    1.80
  -5   1  -2    1.10    1.60
   5  -1   2    2.20    1.40
  -6   1  -2  419.96   14.40
  -6   1  -2  425.16   17.60
  -7   1  -2  148.39    8.90
  -7   1  -2  154.88    7.20
  -8   0   2  290.77   14.60
  -8   0   2  315.37   12.00
   7   0  -2  194.18   10.20
  -7   0   2  197.08    8.40
  -7   0   2  188.58   10.30
   6   0  -2  468.35   19.60
  -6   0   2  493.75   19.70
  -6   0   2  475.75   16.00
   5   0  -2  930.31   35.10
  -5   0   2  936.71   35.10
   4   0  -2  544.15   20.50
  -4   0   2  518.25   20.40
   3   0  -2  708.03   26.10
  -3   0   2  698.73   26.10
   2   0  -2 2599.24  100.39
  -2   0   2 2975.20  100.59
   1   0  -2 1605.84   55.19
   1   0  -2 1442.16   53.29
  -1   0   2 1413.26   53.99
  -1   0   2 1527.55   53.39
   0   0  -2 1514.15   57.59
   0   0  -2 1592.44   56.99
   0   0   2 1646.14   57.79
   0   0   2 1612.74   57.29
  -1   0  -2  464.35   17.00
  -1   0  -2  453.85   17.00
   1   0   2  482.25   17.00
  -2   0  -2   83.39    4.00
  -2   0  -2   82.49    3.90
   2   0   2   86.99    3.90
  -3   0  -2 1471.15   54.39
   3   0   2 1541.05   54.39
  -4   0  -2  399.56   15.50
   4   0   2  380.76   15.30
  -5   0  -2   73.99    3.80
  -5   0  -2   74.69    5.00
   5   0   2   75.59    4.70
  -6   0  -2  474.65   19.60
  -6   0  -2  473.95   15.60
  -7   0  -2  584.34   23.70
  -7   0  -2  557.44   18.70
  -8   1   2  380.56   17.60
  -8   1   2  398.16   14.70
  -7   1   2  313.87   12.00
  -7   1   2  312.27   14.30
   6  -1  -2  143.49    7.80
  -6   1   2  156.48    6.80
  -6   1   2  144.29    8.00
   5  -1  -2  456.65   17.90
  -5   1   2  443.16   14.70
  -5   1   2  439.56   17.90
   4  -1  -2   37.50    3.30
  -4   1   2   40.10    3.40
   3  -1  -2 1096.29   39.90
  -3   1   2 1092.09   39.90
   2  -1  -2 3803.02  139.89
  -2   1   2 3851.01  138.19
   1  -1  -2   18.90    1.70
   1  -1  -2   22.70    1.80
   1  -1  -2   19.70    1.70
  -1   1   2   20.50    1.70
   0  -1  -2  467.15   17.40
   0  -1  -2  496.05   17.50
   0   1   2  487.25   17.40
   0   1   2  453.85   17.40
  -1  -1  -2 1608.14   56.09
  -1  -1  -2 1446.96   56.09
   1   1   2 1642.54   56.09
   2   1   2  947.81   34.50
  -3  -1  -2  789.82   29.40
   3   1   2  795.22   29.40
  -4  -1  -2 1706.13   62.99
   4   1   2 1756.72   62.99
  -5  -1  -2  551.14   20.70
  -5  -1  -2  485.05   16.00
   5   1   2  511.75   20.40
  -6  -1  -2  143.49    8.20
  -7  -1  -2  320.17   15.00
  -8   2   2  143.29    7.90
  -8   2   2  142.59    9.10
  -7   2   2  228.88   11.50
  -7   2   2  230.98    9.80
   6  -2  -2   40.50    3.90
  -6   2   2   42.80    3.70
  -6   2   2   30.60    3.60
   5  -2  -2  122.59    6.50
  -5   2   2  128.79    5.70
  -5   2   2  122.99    6.70
   4  -2  -2 3148.68  112.69
  -4   2   2 3028.50   91.49
  -4   2   2 3258.77  112.79
   3  -2  -2 1106.99   39.10
  -3   2   2 1033.70   39.00
   2  -2  -2  404.86   15.30
  -2   2   2  406.86   15.40
   1  -2  -2 4551.84  161.58
  -1   2   2 4336.37  160.08
   0  -2  -2    0.40    0.90
   0   2   2    1.10    1.10
  -1  -2  -2  956.40   34.90
   1   2   2  967.00   35.00
  -2  -2  -2 2494.15   89.59
   2   2   2 2506.95   89.59
  -3  -2  -2  431.86   16.90
   3   2   2  432.46   16.90
  -4  -2  -2  904.91   33.90
   4   2   2  899.61   33.90
  -5  -2  -2  124.99    7.00
   5   2   2  120.49    6.90
  -6  -2  -2    4.90    2.50
   6   2   2    5.20    2.40
  -7  -2  -2  391.96   17.60
  -8   3   2  263.57   11.80
  -8   3   2  281.97   13.70
  -7   3   2   50.89    4.80
  -7   3   2   67.79    6.00
  -6   3   2  460.65   15.90
  -6   3   2  468.95   19.20
   5  -3  -2  933.41   35.70
  -5   3   2  964.50   29.50
  -5   3   2  974.50   36.00
   4  -3  -2  706.03   26.60
  -4   3   2  709.13   22.00
  -4   3   2  708.43   26.80
   3  -3  -2  430.26   16.40
  -3   3   2  427.16   16.50
  -3   3   2  421.76   16.50
   2  -3  -2  215.98    8.80
  -2   3   2  214.98    8.90
   1  -3  -2  412.06   15.30
  -1   3   2  389.16   15.30
   0  -3  -2  976.00   35.90
   0   3   2  997.70   36.00
  -1  -3  -2   94.89    4.80
   1   3   2   97.29    4.90
  -2  -3  -2 1768.12   63.49
   2   3   2 1740.63   63.49
  -3  -3  -2 1581.24   58.09
   3   3   2 1608.14   58.29
  -4  -3  -2   19.10    2.90
   4   3   2   22.50    3.00
  -5  -3  -2  364.76   15.90
   5   3   2  377.66   16.00
  -6  -3  -2  654.53   26.50
   6   3   2  652.73   26.40
  -7   4   2  127.49    7.20
  -7   4   2  131.39    8.10
  -6   4   2   84.69    5.90
  -6   4   2   81.49    5.90
  -6   4   2   75.09    5.20
   5  -4  -2  504.45   20.40
  -5   4   2  536.35   20.90
  -5   4   2  529.45   17.30
  -5   4   2  523.55   20.80
   4  -4  -2  151.28    7.10
  -4   4   2  152.08    6.30
  -4   4   2  154.58    7.50
   3  -4  -2  390.46   15.20
  -3   4   2  390.56   15.40
  -3   4   2  388.16   12.60
   2  -4  -2 1071.99   38.20
  -2   4   2 1017.30   38.30
   1  -4  -2  523.35   19.90
  -1   4   2  537.05   20.20
   0  -4  -2 1222.08   44.20
   0   4   2 1201.68   44.20
  -1  -4  -2 1069.59   39.80
   1   4   2 1095.29   39.90
  -2  -4  -2  710.83   26.70
   2   4   2  699.43   26.80
  -3  -4  -2  420.16   17.00
   3   4   2  421.66   17.10
  -4  -4  -2  303.17   13.30
   4   4   2  300.37   13.30
  -5  -4  -2  288.07   13.20
   5   4   2  280.77   13.20
  -6  -4  -2  329.87   15.60
   6   4   2  348.17   15.70
  -7   5   2   83.09    6.10
  -7   5   2   67.29    6.40
  -7   5   2   80.79    6.60
  -6   5   2   62.49    5.70
  -6   5   2   64.19    5.10
  -5   5   2  540.25   18.00
  -5   5   2  540.85   21.60
   4  -5  -2 1147.39   43.60
  -4   5   2 1207.38   35.90
  -4   5   2 1192.88   43.90
   3  -5  -2  458.35   18.30
  -3   5   2  479.75   15.20
  -3   5   2  489.45   18.70
   2  -5  -2  379.66   15.20
  -2   5   2  397.76   15.60
   1  -5  -2  899.51   33.50
  -1   5   2  915.71   33.80
   0  -5  -2  165.78    7.30
   0   5   2  156.28    7.60
  -1  -5  -2  369.86   15.20
   1   5   2  386.06   15.40
  -2  -5  -2  489.95   19.50
   2   5   2  495.15   19.70
  -3  -5  -2  366.96   15.90
   3   5   2  402.36   16.30
  -4  -5  -2  349.96   15.40
   4   5   2  361.16   15.70
  -5  -5  -2   89.59    6.50
   5   5   2  103.79    7.10
  -6   6   2   74.99    6.10
  -6   6   2   74.09    5.60
  -5   6   2  456.15   15.60
  -5   6   2  440.26   18.60
  -4   6   2  932.21   34.60
  -4   6   2  883.91   28.10
  -3   6   2   27.00    3.20
  -3   6   2   36.10    3.00
   2  -6  -2  115.79    5.80
  -2   6   2  120.59    4.80
  -2   6   2  121.59    6.40
   1  -6  -2  269.87   11.60
  -1   6   2  288.37   12.10
   0  -6  -2  390.66   16.00
   0   6   2  410.66   16.50
  -1  -6  -2  660.13   25.80
   1   6   2  682.03   26.20
  -2  -6  -2  510.85   21.10
   2   6   2  553.54   21.60
  -3  -6  -2  503.85   20.70
   3   6   2  520.15   21.20
   4   6   2  114.29    7.60
  -6   7   2  139.49    7.70
  -6   7   2  153.08    8.90
  -5   7   2  105.99    7.00
  -5   7   2   90.99    5.80
  -4   7   2  633.14   24.60
  -4   7   2  598.94   20.00
  -3   7   2  241.28   11.00
  -3   7   2  234.28    8.70
  -2   7   2    1.10    2.00
  -2   7   2    0.80    1.20
  -1   7   2 1175.18   44.00
   0   7   2 1109.69   41.90
   1   7   2   67.19    5.50
   2   7   2  507.25   21.10
   3   7   2  151.08    9.00
  -5   8   2  241.18   10.10
  -5   8   2  244.38   12.10
  -4   8   2  124.89    6.20
  -4   8   2  115.19    7.50
  -3   8   2  366.46   12.50
  -3   8   2  367.96   16.00
  -2   8   2  206.98   10.30
  -1   8   2  232.88   11.30
   0   8   2  399.56   17.20
   1   8   2  118.99    7.60
   2   8   2   87.69    6.90
  -3   9   2  185.88    9.90
  -2   9   2  197.18   10.30
  -1   9   2   35.40    4.50
   0   9   2  304.67   14.40
   1   9  -3  222.98   10.50
   0   9  -3  355.06   14.80
  -1   9  -3   60.59    4.30
  -2   9  -3  123.59    6.00
  -2   9  -3  128.49    6.40
   3   8  -3  244.38   11.80
   2   8  -3  297.67   13.20
   1   8  -3  109.89    6.30
   0   8  -3  340.87   14.00
  -1   8  -3  425.46   17.00
  -1   8  -3  444.36   14.40
  -2   8  -3   54.89    4.00
  -2   8  -3   60.09    3.80
  -3   8  -3  390.66   13.80
  -3   8  -3  390.86   15.30
  -4   8  -3  492.15   19.50
  -4   8  -3  525.35   17.60
   4   7  -3  145.29    8.60
   3   7  -3  232.88   11.10
   2   7  -3  556.84   21.90
   1   7  -3  154.88    7.40
   0   7  -3  354.56   14.10
   0   7  -3  351.56   11.60
  -1   7  -3  681.13   25.60
  -1   7  -3  697.63   21.40
  -2   7  -3   84.99    4.40
  -2   7  -3   91.19    4.60
  -3   7  -3  105.39    5.40
  -3   7  -3  109.39    5.30
  -4   7  -3  365.16   13.40
  -4   7  -3  379.06   14.70
  -5   7  -3  201.28    9.20
  -5   7  -3  212.68    9.20
   5   6  -3  217.28   11.30
   4   6  -3  141.99    8.10
   3   6  -3  168.38    8.50
   2   6  -3  412.86   16.50
   1   6  -3  594.54   22.20
   1   6  -3  576.64   18.00
   0   6  -3  439.46   13.90
   0   6  -3  435.06   16.70
  -1   6  -3  169.28    6.30
  -1   6  -3  170.38    6.90
  -1   6  -3  156.58    7.00
  -2   6  -3  256.67   10.00
  -2   6  -3  249.97    9.10
  -3   6  -3  276.07   10.00
  -3   6  -3  266.67   10.70
  -4   6  -3  650.33   24.10
  -4   6  -3  638.24   20.90
  -5   6  -3  467.65   18.40
  -5   6  -3  471.75   16.30
  -6   6  -3  135.19    7.10
  -6   6  -3  122.09    6.90
  -6   6  -3  130.29    7.00
   6   5  -3   79.59    6.80
   5   5  -3   84.39    6.30
   4   5  -3  685.03   26.90
   3   5  -3  295.57   12.60
   2   5  -3  801.72   29.90
   1   5  -3 1936.41   65.19
   1   5  -3 1703.43   64.99
  -1  -5   3 1785.02   64.59
   0   5  -3    2.20    1.00
   0   5  -3    1.40    0.70
  -1   5  -3  289.47   10.90
  -1   5  -3  285.17   10.80
  -1   5  -3  284.77    9.50
  -2   5  -3 1313.37   46.50
  -2   5  -3 1333.77   38.70
  -2   5  -3 1243.08   46.40
  -3   5  -3  315.17   11.80
  -3   5  -3  293.07   11.70
  -3   5  -3  316.67   10.70
  -4   5  -3  458.45   17.20
  -4   5  -3  436.56   15.00
  -5   5  -3  385.86   13.60
  -5   5  -3  378.76   15.30
  -6   5  -3   84.69    5.60
  -6   5  -3   93.19    5.80
   6   4  -3  542.55   22.80
   5   4  -3  148.49    8.30
   4   4  -3  491.45   19.20
  -4  -4   3  455.15   18.70
   3   4  -3 1747.03   61.09
  -3  -4   3 1608.74   60.69
   2   4  -3  160.38    7.10
   2   4  -3  141.59    6.70
  -2  -4   3  171.28    6.80
   1   4  -3   17.20    1.80
  -1  -4   3   20.40    1.50
   0   4  -3 1338.97   49.20
   0   4  -3 1416.06   49.30
  -1   4  -3  136.49    5.30
  -1   4  -3  134.09    5.20
  -2   4  -3  506.35   18.60
  -2   4  -3  521.35   18.60
  -2   4  -3  505.05   16.00
  -3   4  -3 1168.38   41.00
  -3   4  -3 1147.99   34.20
  -3   4  -3 1092.19   40.90
  -4   4  -3  127.09    5.90
  -4   4  -3  125.79    5.60
  -5   4  -3  479.45   16.20
  -5   4  -3  480.55   18.80
  -6   4  -3  177.28    8.10
  -6   4  -3  174.78    8.70
  -7   4  -3   61.69    5.20
  -7   4  -3   72.19    5.70
   7   3  -3  390.16   17.70
   6   3  -3   91.19    6.60
  -6  -3   3   85.69    6.10
   5   3  -3  219.48   10.40
  -5  -3   3  207.88   10.00
   4   3  -3  191.58    8.80
  -4  -3   3  175.28    8.40
   3   3  -3  813.02   29.10
  -3  -3   3  736.63   28.70
   2   3  -3  491.95   17.90
   2   3  -3  426.76   17.60
  -2  -3   3  496.35   17.80
   1   3  -3  349.77   12.90
  -1  -3   3  333.87   12.60
   0   3  -3 3470.85  121.19
   0   3  -3 3296.77  120.99
  -2   3  -3  147.19    5.90
  -2   3  -3  160.68    6.00
  -3   3  -3 1702.43   52.19
  -3   3  -3 1914.51   63.59
  -3   3  -3 1705.93   63.49
  -4   3  -3  922.81   34.20
  -4   3  -3  933.71   28.40
  -5   3  -3   17.10    2.50
  -5   3  -3   16.50    2.50
  -6   3  -3  392.86   16.80
  -6   3  -3  422.36   14.50
  -7   3  -3  432.26   15.70
  -7   3  -3  433.16   18.40
   7   2  -3  282.27   13.80
  -7  -2   3  276.87   10.60
  -7  -2   3  292.77   13.70
   6   2  -3  136.59    8.10
  -6  -2   3  138.79    7.90
   5   2  -3  117.09    6.80
  -5  -2   3  118.39    6.60
   4   2  -3 1286.47   47.40
  -4  -2   3 1284.67   47.20
   3   2  -3 1830.42   66.29
  -3  -2   3 1840.82   66.19
   2   2  -3 1480.25   58.49
   2   2  -3 1690.43   58.69
  -2  -2   3 1722.33   58.59
   1   2  -3 1867.41   67.49
  -1  -2   3 1863.31   66.89
   0   2  -3   56.19    2.40
   0   2  -3   56.49    2.30
  -2   2  -3  547.45   20.60
  -2   2  -3  591.74   20.70
  -3   2  -3  432.46   14.30
  -3   2  -3  480.05   17.10
   3  -2   3  452.45   16.70
  -4   2  -3  984.20   36.10
  -4   2  -3  999.40   29.70
   4  -2   3  961.40   35.70
  -5   2  -3  126.39    6.70
  -5   2  -3  141.59    6.00
  -6   2  -3  189.58    9.40
  -6   2  -3  188.18    8.10
  -7   2  -3  337.17   15.20
  -7   2  -3  337.97   12.70
   7   1  -3  444.56   19.20
  -7  -1   3  441.06   19.10
  -7  -1   3  448.16   15.40
   6   1  -3  227.28   10.80
  -6  -1   3  211.08   10.60
   5   1  -3  362.86   15.00
  -5  -1   3  346.17   14.70
   4   1  -3 1434.66   52.49
  -4  -1   3 1436.16   52.39
   3   1  -3 1188.88   43.60
  -3  -1   3 1201.98   43.50
   2   1  -3  308.37   12.80
   2   1  -3  357.26   13.00
  -2  -1   3  353.96   12.90
   1   1  -3  588.44   21.20
   1   1  -3  557.94   21.10
  -1  -1   3  585.14   21.10
  -1  -1   3  583.04   21.10
   0   1  -3  792.02   28.10
   0   1  -3  774.42   28.10
   0  -1   3  784.42   27.90
  -1   1  -3 2518.65   89.89
  -1   1  -3 2499.85   89.99
   1  -1   3 2490.15   89.39
  -2   1  -3  985.00   35.20
   2  -1   3  962.00   35.00
  -3   1  -3 1509.25   51.79
  -3   1  -3 1313.97   51.59
   3  -1   3 1477.55   51.59
  -4   1  -3  819.82   24.90
  -4   1  -3  847.72   30.50
   4  -1   3  790.92   30.20
  -5   1  -3  329.37   13.40
  -5   1  -3  302.47   10.90
  -6   1  -3   92.59    6.20
  -6   1  -3   91.19    5.10
  -7   1  -3  345.37   15.80
  -7   1  -3  352.96   12.80
  -8   0   3   17.20    3.50
  -8   0   3   11.20    3.30
   7   0  -3  243.18   11.80
  -7   0   3  233.18   11.70
  -7   0   3  232.08    9.70
   6   0  -3  799.32   30.50
  -6   0   3  767.12   30.30
   5   0  -3   49.30    4.30
  -5   0   3   53.09    4.30
   4   0  -3  504.85   19.80
  -4   0   3  513.95   19.70
   3   0  -3 2423.96   86.99
  -3   0   3 2427.16   86.99
   2   0  -3   33.90    2.50
  -2   0   3   32.90    2.40
   1   0  -3  987.50   37.30
   1   0  -3 1070.29   37.40
  -1   0   3 1050.29   37.30
   0   0  -3 4858.81  171.48
   0   0  -3 4584.64  171.38
   0   0   3 4874.01  171.38
  -1   0  -3 2620.64   95.99
  -1   0  -3 2728.03   97.49
   1   0   3 2749.02   97.29
  -2   0  -3 2488.65   92.39
  -2   0  -3 2602.54   93.59
   2   0   3 2681.43   92.39
  -3   0  -3  138.89    6.00
  -3   0  -3  108.99    5.50
   3   0   3  138.29    5.80
  -4   0  -3  276.57   11.40
   4   0   3  265.57   11.10
  -5   0  -3  350.06   14.60
  -5   0  -3  353.56   11.60
   5   0   3  338.17   14.20
  -6   0  -3  100.39    4.80
  -6   0  -3   89.99    6.30
  -7   0  -3  441.96   19.00
  -7   0  -3  426.76   14.80
  -8   1   3  192.28    9.00
  -8   1   3  175.98   10.50
   7  -1  -3  159.28    8.80
  -7   1   3  143.49    7.40
  -7   1   3  143.59    8.70
   6  -1  -3  887.51   33.90
  -6   1   3  889.91   34.00
  -6   1   3  877.91   27.70
   5  -1  -3  240.98   10.70
  -5   1   3  241.48   10.80
  -4   1   3  222.88    9.70
   3  -1  -3 4618.54  168.98
  -3   1   3 4764.22  170.18
   2  -1  -3  921.01   33.60
  -2   1   3  925.11   33.60
   1  -1  -3   82.79    4.00
   1  -1  -3   90.19    4.10
  -1   1   3   92.49    4.10
   0  -1  -3 2518.35   97.19
   0  -1  -3 2767.32  100.09
   0   1   3 2840.12   97.19
  -1  -1  -3 1842.42   63.69
  -1  -1  -3 1632.94   63.49
   1   1   3 1850.51   63.59
  -2  -1  -3   26.00    2.40
   2   1   3   26.90    2.30
  -3  -1  -3  606.04   22.60
   3   1   3  584.94   22.40
  -4  -1  -3  643.94   24.90
   4   1   3  656.23   24.80
  -5  -1  -3  330.67   13.80
   5   1   3  305.47   13.40
  -6  -1  -3  448.16   18.90
  -7  -1  -3  211.98   11.20
  -8   2   3  320.07   13.20
  -8   2   3  325.17   15.40
  -7   2   3  105.99    7.30
  -7   2   3  100.49    6.20
   6  -2  -3   29.20    3.60
  -6   2   3   41.00    4.30
  -6   2   3   41.40    3.90
   5  -2  -3 1213.38   45.70
  -5   2   3 1246.68   37.40
  -5   2   3 1246.48   45.80
   4  -2  -3  653.43   25.10
  -4   2   3  669.43   25.20
   3  -2  -3   76.19    4.20
  -3   2   3   74.19    4.30
  -3   2   3   75.39    4.30
   2  -2  -3 1946.51   69.69
  -2   2   3 1930.91   69.59
   1  -2  -3   29.80    2.30
  -1   2   3   24.30    2.20
   0  -2  -3  471.05   17.70
   0   2   3  470.75   17.70
  -1  -2  -3 4513.95  161.28
   1   2   3 4464.05  161.38
  -2  -2  -3  498.25   19.20
   2   2   3  503.35   19.10
  -3  -2  -3  926.51   34.50
   3   2   3  928.91   34.50
  -4  -2  -3  983.50   36.50
   4   2   3  962.10   36.50
  -5  -2  -3  117.79    7.10
   5   2   3  125.99    7.00
  -6  -2  -3  204.48   10.60
  -7   3   3  114.39    6.90
  -7   3   3  125.79    8.00
   6  -3  -3  445.76   18.90
  -6   3   3  491.65   16.10
  -6   3   3  458.15   19.20
   5  -3  -3  869.11   33.30
  -5   3   3  900.31   27.50
  -5   3   3  880.61   33.50
   4  -3  -3  483.75   19.70
  -4   3   3  523.95   19.90
  -4   3   3  510.15   19.90
   3  -3  -3  380.56   14.90
  -3   3   3  374.66   14.90
   2  -3  -3  727.23   26.70
  -2   3   3  706.43   26.70
   1  -3  -3 1221.68   45.30
  -1   3   3 1273.07   45.40
   0  -3  -3  550.94   21.10
   0   3   3  568.94   21.20
  -1  -3  -3 2012.00   71.29
   1   3   3 1941.41   71.29
  -2  -3  -3 2317.57   82.09
   2   3   3 2229.98   81.99
  -3  -3  -3   49.10    3.90
   3   3   3   41.40    3.80
  -4  -3  -3  102.59    6.10
   4   3   3   89.99    5.90
  -5  -3  -3  659.73   26.30
   5   3   3  661.63   26.20
  -6  -3  -3  114.29    7.60
  -7   4   3  580.64   23.80
  -7   4   3  567.54   23.70
  -7   4   3  570.14   20.00
  -6   4   3  342.27   13.00
  -6   4   3  354.56   15.60
  -6   4   3  364.36   15.60
   5  -4  -3  140.89    7.30
  -5   4   3  148.39    6.60
  -5   4   3  150.58    7.90
   4  -4  -3  664.13   25.20
  -4   4   3  653.13   20.80
  -4   4   3  660.13   25.40
   3  -4  -3  294.27   12.20
  -3   4   3  301.87   12.40
  -3   4   3  294.17   10.10
   2  -4  -3  161.48    7.30
  -2   4   3  164.68    7.60
   1  -4  -3  875.21   32.70
  -1   4   3  891.71   32.80
   0  -4  -3  699.33   26.10
   0   4   3  686.73   26.10
  -1  -4  -3 1044.80   38.10
   1   4   3 1013.00   38.20
  -2  -4  -3  186.68    8.80
   2   4   3  195.78    9.00
  -3  -4  -3   67.39    4.90
   3   4   3   74.49    5.10
  -4  -4  -3  519.55   21.30
   4   4   3  529.95   21.30
  -5  -4  -3  605.44   24.80
   5   4   3  614.64   24.80
  -6  -4  -3  309.77   14.70
  -7   5   3  154.08    9.50
  -7   5   3  166.98    8.50
  -6   5   3  231.78   10.00
  -6   5   3  241.08   11.60
  -5   5   3   99.49    6.60
  -5   5   3  111.89    5.80
   4  -5  -3  478.15   19.40
  -4   5   3  521.95   16.30
  -4   5   3  480.15   19.70
   3  -5  -3  549.05   22.00
  -3   5   3  587.84   18.10
  -3   5   3  584.54   22.40
   2  -5  -3  176.18    8.00
  -2   5   3  176.28    8.30
   1  -5  -3  806.32   30.10
  -1   5   3  800.92   30.30
   0  -5  -3 1418.26   51.89
   0   5   3 1411.26   51.99
  -1  -5  -3  123.59    6.50
   1   5   3  127.49    6.80
  -2  -5  -3  461.15   18.70
   2   5   3  461.85   18.80
  -3  -5  -3  810.82   31.70
   3   5   3  834.62   31.90
  -4  -5  -3  125.09    7.60
   4   5   3  138.79    8.10
  -5  -5  -3  320.67   14.60
   5   5   3  304.27   14.60
  -6   6   3  377.56   14.30
  -6   6   3  383.06   16.90
  -5   6   3  541.75   22.30
  -5   6   3  550.64   18.50
  -4   6   3  149.19    6.70
  -4   6   3  152.08    8.30
  -3   6   3  657.83   25.40
  -3   6   3  638.04   20.40
   2  -6  -3  287.87   12.00
  -2   6   3  278.57    9.50
  -2   6   3  287.47   12.40
   1  -6  -3   85.39    5.20
  -1   6   3   86.89    5.60
   0  -6  -3  939.41   36.10
   0   6   3  986.40   36.50
  -1  -6  -3  393.06   16.40
   1   6   3  402.26   16.80
  -2  -6  -3  178.18    8.90
   2   6   3  176.08    9.30
  -3  -6  -3  284.17   13.10
   3   6   3  296.17   13.60
   4   6   3  130.89    8.40
  -6   7   3  210.98   11.50
  -6   7   3  221.38    9.80
  -5   7   3  154.98    9.00
  -5   7   3  140.09    7.20
  -4   7   3  217.98   10.90
  -4   7   3  220.98    8.80
  -3   7   3   36.50    3.00
  -3   7   3   31.60    3.80
  -2   7   3  307.97   13.70
  -1   7   3  601.84   24.00
   0   7   3  269.57   12.60
   1   7   3  741.03   29.30
   2   7   3   74.99    6.20
   3   7   3   69.99    6.20
  -4   8   3   79.39    6.30
  -4   8   3   75.29    4.80
  -3   8   3  484.85   20.30
  -2   8   3  429.16   18.30
  -1   8   3  251.37   12.20
   0   8   3  390.76   17.20
   1   8   3  156.98    9.20
   2   8   3  108.09    7.80
  -2   9   3  101.69    7.30
   0   9  -4   64.59    4.40
  -1   9  -4  321.77   11.50
  -1   9  -4  315.37   12.90
  -2   9  -4   79.89    4.80
  -2   9  -4   65.59    3.90
   3   8  -4  229.38   11.20
   2   8  -4  403.86   16.80
   1   8  -4   97.09    5.60
   0   8  -4   77.69    4.10
   0   8  -4   71.49    4.50
  -1   8  -4  111.29    5.30
  -1   8  -4  107.49    5.30
  -2   8  -4  312.47   11.20
  -2   8  -4  296.27   11.90
  -3   8  -4  414.56   16.00
  -3   8  -4  430.86   14.90
  -4   8  -4  226.58    9.60
  -4   8  -4  216.18    9.00
   4   7  -4  145.09    8.40
   3   7  -4  221.48   10.50
   2   7  -4  247.58   11.00
   1   7  -4  396.76   15.80
   0   7  -4  167.88    6.40
   0   7  -4  156.28    7.10
  -1   7  -4  358.76   12.10
  -1   7  -4  348.47   13.60
  -2   7  -4  985.20   36.10
  -2   7  -4 1008.90   30.80
  -3   7  -4  151.48    6.60
  -3   7  -4  168.88    7.20
  -4   7  -4  123.09    6.60
  -4   7  -4  125.29    5.70
  -5   7  -4  261.37   10.80
  -5   7  -4  259.37   10.80
   5   6  -4  314.17   14.60
   4   6  -4  104.29    6.60
   3   6  -4  374.66   15.60
   2   6  -4  636.24   24.40
   1   6  -4  473.85   18.40
   1   6  -4  485.85   15.20
   0   6  -4  223.68    9.10
   0   6  -4  232.58    8.10
  -1   6  -4  179.18    7.30
  -1   6  -4  195.58    7.10
  -1   6  -4  183.98    7.30
  -2   6  -4  304.37   11.50
  -2   6  -4  306.77   11.60
  -2   6  -4  315.17   10.80
  -3   6  -4  371.76   14.10
  -3   6  -4  382.96   13.10
  -4   6  -4   97.09    4.70
  -4   6  -4   91.69    5.30
  -5   6  -4  273.97   11.10
  -5   6  -4  255.87   10.70
  -6   6  -4  326.67   13.90
  -6   6  -4  335.47   13.20
  -6   6  -4  339.47   14.00
   6   5  -4   58.09    5.90
   5   5  -4  468.05   19.80
   4   5  -4  189.28    9.40
   3   5  -4  152.88    7.70
   2   5  -4 1601.54   58.09
   1   5  -4   44.80    2.70
   1   5  -4   47.10    3.10
   1   5  -4   52.79    2.80
   0   5  -4    3.70    1.00
   0   5  -4    2.00    0.80
   0   5  -4    3.60    1.30
  -1   5  -4  988.10   34.60
  -1   5  -4  965.50   29.20
  -1   5  -4  944.01   34.60
  -2   5  -4  673.63   21.00
  -3   5  -4  636.24   23.10
  -3   5  -4  641.94   20.10
  -3   5  -4  619.84   23.10
  -4   5  -4  467.95   17.50
  -4   5  -4  453.05   15.60
  -5   5  -4  261.37   10.50
  -5   5  -4  273.97   11.30
  -6   5  -4  234.68   10.70
  -6   5  -4  243.38   10.30
   6   4  -4  101.79    7.30
   5   4  -4  214.58   10.60
   4   4  -4 1220.18   45.40
   3   4  -4  662.83   24.80
  -3  -4   4  635.24   24.40
   2   4  -4   69.09    3.70
   2   4  -4   77.79    4.30
  -2  -4   4   77.89    3.70
   1   4  -4 1180.18   40.70
   1   4  -4 1067.69   40.50
   0   4  -4  446.96   16.20
   0   4  -4  441.36   16.10
   0   4  -4  435.26   14.10
  -1   4  -4  587.34   18.20
  -2   4  -4 2206.68   64.69
  -3   4  -4  152.68    6.40
  -3   4  -4  169.08    6.60
  -3   4  -4  160.88    6.50
  -4   4  -4  195.18    7.70
  -4   4  -4  189.88    8.10
  -5   4  -4  205.28    9.00
  -5   4  -4  192.98    8.30
  -6   4  -4   44.40    4.30
  -6   4  -4   44.30    4.10
   7   3  -4  234.78   12.40
   6   3  -4  350.96   15.70
   5   3  -4  473.05   19.30
  -5  -3   4  461.25   18.90
   4   3  -4  869.71   32.60
  -4  -3   4  852.51   32.30
   3   3  -4  180.28    8.00
  -3  -3   4  172.48    7.70
   2   3  -4  110.69    5.40
   2   3  -4  131.49    5.70
  -2  -3   4  129.59    5.40
   1   3  -4 1502.35   51.29
   1   3  -4 1369.86   51.19
  -1  -3   4 1416.06   50.89
   0   3  -4  523.15   18.30
   0   3  -4  492.05   18.30
  -2   3  -4  917.21   33.80
  -2   3  -4  926.31   28.40
  -2   3  -4  988.90   33.80
  -3   3  -4  746.03   26.90
  -3   3  -4  759.12   22.80
  -3   3  -4  708.53   26.80
  -4   3  -4   16.60    2.20
  -4   3  -4   20.20    2.20
  -5   3  -4  255.57    9.80
  -5   3  -4  264.77   11.20
  -6   3  -4  924.01   35.60
  -6   3  -4  954.60   29.70
  -7   3  -4  255.27   10.90
  -7   3  -4  267.97   12.40
   7   2  -4  113.39    8.00
  -7  -2   4  115.19    6.20
  -7  -2   4  111.59    7.90
   6   2  -4  445.16   19.10
  -6  -2   4  456.85   18.90
   5   2  -4  139.59    7.50
  -5  -2   4  132.49    7.20
   4   2  -4  196.98    9.10
  -4  -2   4  195.58    8.80
   3   2  -4 1221.48   44.10
  -3  -2   4 1187.18   43.90
   2   2  -4  909.41   36.20
   2   2  -4 1054.69   36.40
  -2  -2   4 1030.80   36.20
   1   2  -4  286.67   11.20
   1   2  -4  311.07   11.30
  -1  -2   4  295.37   11.00
   0   2  -4 1505.85   52.89
   0   2  -4 1440.96   52.69
  -1   2  -4  938.21   34.30
  -1   2  -4  988.30   34.30
  -2   2  -4 1253.27   45.90
  -2   2  -4 1314.37   46.00
  -3   2  -4  890.81   34.10
  -3   2  -4  982.70   34.30
  -3   2  -4  947.91   28.40
  -4   2  -4  164.08    7.30
  -4   2  -4  159.68    6.40
  -5   2  -4  614.14   19.60
  -5   2  -4  605.64   23.50
  -6   2  -4  402.86   14.00
  -6   2  -4  391.76   16.70
  -7   2  -4   83.59    6.40
  -7   2  -4   76.89    5.40
   7   1  -4   14.10    3.40
  -7  -1   4   18.20    3.50
  -7  -1   4   20.10    3.30
   6   1  -4  527.25   21.70
  -6  -1   4  527.05   21.40
   5   1  -4 1293.67   48.10
  -5  -1   4 1291.07   47.80
   4   1  -4  310.27   13.00
  -4  -1   4  309.47   12.70
   3   1  -4 2485.75   89.29
  -3  -1   4 2485.45   89.09
   2   1  -4  849.32   29.70
   2   1  -4  729.03   29.40
  -2  -1   4  841.12   29.50
   1   1  -4   22.10    1.60
   1   1  -4   24.00    1.90
  -1  -1   4   24.00    1.60
   0   1  -4 2401.06   86.99
   0   1  -4 2437.06   87.69
   0  -1   4 2421.16   86.49
  -1   1  -4 1566.94   54.89
  -1   1  -4 1465.85   54.09
   1  -1   4 1523.85   54.29
  -2   1  -4  313.37   11.90
   2  -1   4  310.97   11.70
  -3   1  -4  578.94   21.00
  -3   1  -4  523.35   20.80
   3  -1   4  574.74   20.70
  -4   1  -4  436.46   16.70
  -4   1  -4  438.06   13.80
   4  -1   4  403.56   16.40
  -5   1  -4   55.49    4.40
  -5   1  -4   60.89    3.80
  -6   1  -4  270.67   10.00
  -6   1  -4  259.77   12.20
  -7   1  -4  388.86   17.20
  -7   1  -4  383.66   13.80
   7   0  -4  308.97   14.90
  -7   0   4  333.07   15.00
  -7   0   4  342.67   12.60
   6   0  -4  478.35   19.90
  -6   0   4  487.65   19.90
   5   0  -4 1037.60   39.00
  -5   0   4 1041.00   38.90
   4   0  -4  468.05   18.10
  -4   0   4  448.26   17.90
   3   0  -4  121.19    6.00
  -3   0   4  127.69    5.90
   2   0  -4 1253.77   45.40
  -2   0   4 1253.17   45.30
  -2   0   4 1250.97   45.30
   1   0  -4  790.22   29.80
   1   0  -4  796.72   29.80
   1   0  -4  838.52   29.90
  -1   0   4  859.31   29.80
   0   0  -4   17.40    1.70
   0   0  -4   14.50    1.50
   0   0   4   16.20    1.60
  -1   0  -4 5570.34  214.78
  -1   0  -4 6098.59  216.08
   1   0   4 6322.27  215.18
  -2   0  -4  640.44   25.30
  -2   0  -4  725.93   25.50
   2   0   4  700.83   25.30
  -3   0  -4   23.20    2.40
  -3   0  -4   21.20    1.90
   3   0   4   24.70    2.20
  -4   0  -4  883.21   27.10
  -4   0  -4  930.71   33.60
   4   0   4  882.01   33.30
  -5   0  -4  248.58    8.90
  -5   0  -4  254.17   11.30
  -6   0  -4  439.46   15.00
  -6   0  -4  468.85   19.00
  -7   0  -4  552.74   23.10
  -8   1   4  131.69    7.60
  -8   1   4  134.59    8.80
   7  -1  -4  180.08    9.90
  -7   1   4  179.48    9.90
  -7   1   4  193.68    8.60
   6  -1  -4  334.67   14.60
  -6   1   4  327.77   14.50
   5  -1  -4  293.97   12.70
  -5   1   4  291.67   12.70
   4  -1  -4  431.66   17.30
  -4   1   4  442.26   17.30
   3  -1  -4  364.46   14.60
  -3   1   4  369.56   14.60
  -3   1   4  376.26   14.60
   2  -1  -4 1510.25   54.29
  -2   1   4 1493.05   54.19
   1  -1  -4 3194.98  115.59
  -1   1   4 3292.97  116.89
   0  -1  -4 1932.81   66.49
   0  -1  -4 1685.13   66.39
   0   1   4 1946.41   66.49
  -1  -1  -4  478.75   19.70
  -1  -1  -4  555.44   19.90
   1   1   4  560.04   19.80
  -2  -1  -4 1308.37   48.00
   2   1   4 1334.07   47.90
  -3  -1  -4   80.59    4.70
   3   1   4   79.09    4.40
  -4  -1  -4  121.69    6.50
   4   1   4  122.69    6.30
  -5  -1  -4 1248.18   46.70
  -6  -1  -4  157.58    8.80
  -8   2   4  198.78    9.60
  -8   2   4  191.48   10.90
   7  -2  -4   35.90    4.30
  -7   2   4   29.70    4.00
  -7   2   4   31.90    3.90
   6  -2  -4  538.95   21.90
  -6   2   4  547.75   18.20
  -6   2   4  532.95   21.90
   5  -2  -4 1297.87   48.50
  -5   2   4 1319.07   48.50
   4  -2  -4  313.47   13.10
  -4   2   4  312.57   13.10
  -4   2   4  319.07   13.10
   3  -2  -4  461.65   18.00
  -3   2   4  466.55   18.00
   2  -2  -4 1003.50   37.70
  -2   2   4 1057.29   37.80
   1  -2  -4 1070.89   39.80
  -1   2   4 1112.79   39.80
   0  -2  -4  130.49    6.00
   0   2   4  130.29    6.00
  -1  -2  -4  101.39    5.10
   1   2   4   94.99    4.90
  -2  -2  -4 1351.26   50.09
   2   2   4 1393.56   50.09
  -3  -2  -4  384.36   15.70
   3   2   4  393.16   15.70
  -4  -2  -4  181.18    8.70
   4   2   4  173.28    8.40
  -5  -2  -4  632.74   25.20
  -6  -2  -4  436.56   18.90
  -7   3   4  118.99    7.00
  -7   3   4  123.59    8.10
  -7   3   4  118.49    7.80
   6  -3  -4  683.93   28.00
  -6   3   4  727.63   28.30
  -6   3   4  714.73   23.30
  -6   3   4  742.63   28.40
   5  -3  -4  482.35   19.60
  -5   3   4  498.35   19.80
  -5   3   4  472.45   16.20
  -5   3   4  495.75   19.80
   4  -3  -4   68.39    4.60
  -4   3   4   71.49    4.80
   3  -3  -4  133.69    6.60
  -3   3   4  136.49    6.70
   2  -3  -4  651.43   24.40
  -2   3   4  638.04   24.30
   1  -3  -4  834.22   31.30
  -1   3   4  852.11   31.30
   0  -3  -4  661.13   25.00
   0   3   4  670.93   25.10
  -1  -3  -4 1866.51   67.29
   1   3   4 1846.72   67.19
  -2  -3  -4  822.72   30.40
   2   3   4  788.92   30.30
  -3  -3  -4  299.87   12.60
   3   3   4  279.77   12.40
  -4  -3  -4  265.87   11.90
   4   3   4  251.67   11.60
  -5  -3  -4  430.36   18.40
  -6  -3  -4  327.77   15.40
  -7   4   4  299.47   12.00
  -7   4   4  271.67   13.70
  -6   4   4   60.49    5.70
  -6   4   4   70.89    5.20
   5  -4  -4  705.73   28.30
  -5   4   4  776.92   23.60
  -5   4   4  726.03   28.60
   4  -4  -4  258.77   11.50
  -4   4   4  268.07    9.70
  -4   4   4  265.47   11.70
   3  -4  -4   76.49    4.80
  -3   4   4   80.59    5.00
   2  -4  -4 1625.94   59.69
  -2   4   4 1655.23   59.79
   1  -4  -4 1055.79   39.00
  -1   4   4 1054.29   39.10
   0  -4  -4 1261.67   46.90
   0   4   4 1293.27   47.00
   1   4   4  309.77   13.00
  -2  -4  -4   19.10    2.90
   2   4   4   14.10    2.50
  -3  -4  -4  494.05   20.10
   3   4   4  493.15   20.00
  -4  -4  -4  251.97   11.80
   4   4   4  247.18   11.80
  -5  -4  -4  234.38   11.70
  -7   5   4  298.57   14.60
  -7   5   4  313.57   12.70
  -6   5   4   86.29    6.00
  -6   5   4  104.49    7.20
  -5   5   4  303.77   11.40
  -5   5   4  310.07   13.90
   4  -5  -4  572.24   23.20
  -4   5   4  607.44   19.20
  -4   5   4  600.14   23.50
   3  -5  -4   35.30    3.50
  -3   5   4   38.80    3.00
  -3   5   4   39.60    3.90
   2  -5  -4  508.05   20.20
  -2   5   4  525.05   20.40
   1  -5  -4 1890.51   70.89
  -1   5   4 2017.90   71.19
   0  -5  -4    2.50    1.80
   0   5   4    0.60    1.70
  -1  -5  -4   31.50    3.40
   1   5   4   37.20    3.70
  -2  -5  -4 1134.99   43.10
   2   5   4 1161.28   43.30
  -3  -5  -4  236.78   11.20
   3   5   4  230.08   11.30
  -4  -5  -4  404.96   17.90
   4   5   4  424.96   18.10
  -5  -5  -4  424.76   18.80
  -6   6   4  334.97   13.20
  -6   6   4  353.76   16.00
  -5   6   4   78.29    5.30
  -5   6   4   73.79    6.30
  -4   6   4  316.37   11.40
  -4   6   4  315.67   14.20
  -3   6   4  515.75   20.70
  -3   6   4  502.25   16.40
   2  -6  -4  180.48    8.70
  -2   6   4  180.18    6.70
  -2   6   4  193.48    9.30
   1  -6  -4  612.64   24.20
  -1   6   4  630.44   24.50
   0  -6  -4  453.65   18.40
   0   6   4  454.85   18.80
  -1  -6  -4  252.37   11.70
   1   6   4  257.37   12.00
  -2  -6  -4  536.45   22.10
   2   6   4  549.05   22.40
  -3  -6  -4  408.16   17.90
   3   6   4  426.06   18.30
  -4  -6  -4  113.59    7.60
   4   6   4  115.09    7.90
  -5   7   4  197.98    8.80
  -5   7   4  208.78   11.00
  -4   7   4  128.59    8.10
  -4   7   4  128.49    6.20
  -3   7   4  316.27   13.90
  -3   7   4  288.37   10.50
  -2   7   4  418.36   17.80
  -1   7   4  211.28   10.60
   0   7   4  616.74   25.00
   1   7   4  149.09    8.70
   2   7   4   37.80    4.60
   3   7   4  446.16   19.70
  -4   8   4   49.40    5.40
  -4   8   4   54.19    4.10
  -3   8   4  461.95   19.80
  -2   8   4  328.97   15.00
  -1   8   4  233.58   11.80
   0   8   4  196.28   10.60
   1   8   4   92.59    7.20
   2   8  -5  298.27   13.00
   1   8  -5  163.28    7.70
   0   8  -5   96.99    5.10
   0   8  -5  103.89    5.20
  -1   8  -5  127.69    5.80
  -1   8  -5  140.79    6.30
  -2   8  -5  448.56   15.50
  -3   8  -5  350.06   13.00
   4   7  -5  428.96   18.40
   3   7  -5   20.50    3.10
   2   7  -5  257.27   11.30
   1   7  -5  173.38    7.80
   0   7  -5   26.00    2.30
   0   7  -5   26.30    2.70
  -1   7  -5  922.21   33.70
  -1   7  -5  945.31   28.90
  -2   7  -5  430.76   14.70
  -3   7  -5  100.39    5.60
  -4   7  -5  250.87   10.30
   5   6  -5  134.59    8.40
   4   6  -5  410.36   17.50
   3   6  -5  149.59    7.70
   2   6  -5  124.09    6.40
   1   6  -5  919.01   33.80
   1   6  -5  916.01   27.90
   0   6  -5  695.53   25.40
   0   6  -5  690.13   21.60
  -1   6  -5  150.18    6.30
  -2   6  -5  801.02   25.10
  -3   6  -5  244.68    9.40
  -4   6  -5   47.30    2.80
  -4   6  -5   49.20    4.40
  -5   6  -5  354.96   13.60
  -5   6  -5  367.76   14.30
   6   5  -5  161.88    9.60
   5   5  -5  281.77   13.30
   4   5  -5  543.75   21.90
   3   5  -5  834.92   31.60
   2   5  -5   92.49    5.10
   1   5  -5  319.77   12.50
   1   5  -5  319.57   10.70
   0   5  -5  738.63   22.70
   0   5  -5  738.73   26.80
   0   5  -5  736.53   26.70
  -1   5  -5   47.80    3.20
  -2   5  -5  346.47   11.80
  -3   5  -5  601.04   21.60
  -3   5  -5  589.74   19.30
  -4   5  -5  117.69    5.30
  -4   5  -5  112.49    6.00
  -5   5  -5  173.68    7.80
  -5   5  -5  176.48    8.00
  -6   5  -5  438.36   15.90
  -6   5  -5  433.66   17.50
   6   4  -5  125.79    8.30
   5   4  -5  339.97   15.10
   4   4  -5  939.81   35.70
   3   4  -5  118.39    6.20
   2   4  -5    3.40    1.40
   1   4  -5  439.06   13.40
   1   4  -5  425.46   15.80
   1   4  -5  392.56   15.60
   0   4  -5 1075.39   33.60
   0   4  -5 1102.99   40.20
   0   4  -5 1193.48   40.30
  -1   4  -5  835.02   25.40
  -2   4  -5  373.56   12.40
  -3   4  -5 1054.59   32.30
  -3   4  -5 1045.50   38.10
  -3   4  -5 1075.89   38.10
  -4   4  -5  333.77   11.80
  -4   4  -5  323.57   12.80
  -5   4  -5   20.20    2.60
  -5   4  -5   20.60    3.10
  -6   4  -5  439.26   16.00
  -6   4  -5  453.25   18.20
   7   3  -5  167.48   10.10
   6   3  -5  243.38   12.20
   5   3  -5  802.72   31.10
   4   3  -5  257.97   11.10
  -4  -3   5  239.28   10.60
   3   3  -5  171.98    7.90
  -3  -3   5  168.68    7.40
   2   3  -5  812.92   32.30
   2   3  -5  926.81   32.60
  -2  -3   5  911.61   32.10
   1   3  -5  674.03   20.70
   1   3  -5  717.53   25.00
   1   3  -5  651.73   24.80
   0   3  -5 2387.36   85.99
   0   3  -5 2369.36   70.19
   0   3  -5 2473.15   86.49
  -1   3  -5  881.01   26.60
  -2   3  -5  142.09    5.60
  -2   3  -5  148.69    5.70
  -2   3  -5  144.29    5.70
  -3   3  -5  320.27   11.00
  -3   3  -5  303.97   12.10
  -3   3  -5  338.87   12.30
  -4   3  -5   78.89    4.70
  -4   3  -5   92.99    4.70
  -5   3  -5  185.38    8.60
  -5   3  -5  183.88    7.90
  -6   3  -5  573.84   19.10
  -6   3  -5  542.25   22.20
   7   2  -5  726.93   29.60
   6   2  -5  325.67   14.70
  -6  -2   5  309.07   14.00
   5   2  -5   89.89    6.10
  -5  -2   5   98.09    5.80
   4   2  -5  910.21   34.20
  -4  -2   5  905.41   33.90
   3   2  -5  534.35   20.00
  -3  -2   5  502.25   19.60
   2   2  -5  134.09    5.90
   2   2  -5  115.59    5.50
  -2  -2   5  129.09    5.50
  -2  -2   5  131.29    5.50
   1   2  -5 1204.88   42.20
   1   2  -5 1143.49   42.10
  -1  -2   5 1164.38   41.90
   0   2  -5  514.35   18.20
   0   2  -5  482.55   18.10
  -1   2  -5  550.74   20.80
  -1   2  -5  599.84   20.80
  -2   2  -5  232.98    8.90
  -2   2  -5  230.68    8.00
  -2   2  -5  229.38    8.90
  -3   2  -5   24.40    1.80
  -3   2  -5   24.90    2.20
  -3   2  -5   23.40    2.30
  -4   2  -5 1490.35   45.40
  -4   2  -5 1552.74   55.29
  -5   2  -5  617.34   19.50
  -5   2  -5  582.44   23.20
  -6   2  -5  122.39    6.20
  -6   2  -5  110.69    6.80
   7   1  -5  161.58    9.50
  -7  -1   5  165.88    9.20
   6   1  -5  457.75   19.10
  -6  -1   5  437.26   18.60
   5   1  -5   89.09    5.90
  -5  -1   5   78.69    5.30
   4   1  -5  928.21   34.80
  -4  -1   5  922.51   34.50
   3   1  -5  987.10   36.00
  -3  -1   5  959.50   35.80
   2   1  -5    6.60    1.20
   2   1  -5   13.60    1.80
  -2  -1   5    6.00    1.30
   1   1  -5 1438.66   55.29
   1   1  -5 1591.44   55.49
  -1  -1   5 1604.24   55.29
   0   1  -5 3001.50  113.19
   0   1  -5 3388.46  114.79
   0  -1   5 3130.49  113.39
  -1   1  -5  316.17   12.30
  -1   1  -5  334.27   12.30
   1  -1   5  329.77   12.10
  -2   1  -5  582.54   21.10
   2  -1   5  555.34   20.70
  -3   1  -5 1408.16   49.20
  -3   1  -5 1341.47   40.20
  -3   1  -5 1222.68   49.10
   3  -1   5 1452.35   48.90
  -4   1  -5  364.06   11.90
  -4   1  -5  346.97   14.30
  -5   1  -5  192.58    9.20
  -5   1  -5  196.18    7.60
  -6   1  -5  174.08    9.00
  -6   1  -5  170.88    7.30
   7   0  -5  216.98   11.30
  -7   0   5  205.58   10.80
   6   0  -5  706.13   28.10
  -6   0   5  720.13   28.00
   5   0  -5 1009.90   38.10
  -5   0   5 1010.10   38.00
   4   0  -5   87.19    5.40
  -4   0   5   93.79    5.30
   3   0  -5  517.35   20.40
  -3   0   5  534.65   20.30
  -3   0   5  544.75   20.30
   2   0  -5 1491.65   52.99
  -2   0   5 1432.66   52.69
   1   0  -5  199.58    8.40
   1   0  -5  225.68    8.60
   1   0  -5  195.58    8.40
  -1   0   5  221.08    8.40
   0   0  -5 3344.07  114.99
   0   0  -5 2983.20  113.49
   0   0   5 3244.58  114.29
  -1   0  -5  680.53   24.80
  -1   0  -5  637.04   24.70
   1   0   5  698.23   24.60
  -2   0  -5    4.80    1.00
  -2   0  -5    6.60    1.40
   2   0   5    5.90    1.20
  -3   0  -5  559.94   21.50
   3   0   5  565.84   21.20
  -4   0  -5  149.69    5.90
  -4   0  -5  169.08    7.80
  -5   0  -5  275.97   12.00
  -5   0  -5  253.47    9.20
  -6   0  -5  551.04   22.60
   7  -1  -5  269.67   13.20
  -7   1   5  287.37   13.40
   6  -1  -5  284.47   12.80
  -6   1   5  266.67   12.60
   5  -1  -5  340.27   14.30
  -5   1   5  326.57   14.10
   4  -1  -5   56.09    4.40
  -4   1   5   55.29    4.20
  -4   1   5   58.49    4.30
   3  -1  -5  289.37   11.90
  -3   1   5  279.47   11.70
   2  -1  -5 1016.10   37.20
  -2   1   5 1007.00   37.10
   1  -1  -5 1585.44   57.09
  -1   1   5 1577.44   56.99
   0  -1  -5  690.83   25.90
   0   1   5  710.33   25.90
  -1  -1  -5  595.44   22.70
   1   1   5  613.24   22.50
  -2  -1  -5  254.97   10.40
   2   1   5  240.28   10.10
  -3  -1  -5  184.28    8.40
   3   1   5  178.08    8.00
  -4  -1  -5 1468.85   54.09
  -5  -1  -5  589.64   23.60
  -6  -1  -5  137.69    8.30
   7  -2  -5  186.98   10.00
  -7   2   5  180.08   10.00
  -7   2   5  181.88    8.80
   6  -2  -5   49.10    4.90
  -6   2   5   45.20    4.50
  -6   2   5   42.10    4.40
   5  -2  -5  511.35   21.10
  -5   2   5  536.85   21.20
  -5   2   5  531.15   21.10
   4  -2  -5  683.73   27.10
  -4   2   5  731.73   27.20
   3  -2  -5  221.18    9.80
  -3   2   5  228.58    9.80
   2  -2  -5 2537.85   91.09
  -2   2   5 2529.05   90.99
   1  -2  -5 1446.06   53.29
  -1   2   5 1490.85   53.29
   0  -2  -5   84.39    4.70
   0   2   5   87.59    4.60
  -1  -2  -5  987.40   36.30
   1   2   5  977.30   36.20
  -2  -2  -5  341.37   13.50
   2   2   5  312.67   13.20
  -3  -2  -5  505.75   19.80
   3   2   5  487.25   19.50
  -4  -2  -5  690.73   26.60
   4   2   5  671.03   26.30
  -5  -2  -5  213.58   10.60
  -6  -2  -5   96.09    7.00
  -7   3   5  751.92   30.10
  -7   3   5  753.62   25.00
  -7   3   5  746.83   30.10
   6  -3  -5  202.88   10.30
  -6   3   5  196.18    8.80
  -6   3   5  216.38   10.70
   5  -3  -5  108.09    6.80
  -5   3   5  129.89    7.20
   4  -3  -5 1309.97   49.40
  -4   3   5 1363.26   49.50
   3  -3  -5  304.57   12.90
  -3   3   5  315.47   13.00
   2  -3  -5   59.79    4.10
  -2   3   5   62.49    4.20
   1  -3  -5 1167.48   43.00
  -1   3   5 1169.08   43.00
   0  -3  -5  510.15   20.20
   0   3   5  537.35   20.30
  -1  -3  -5   76.09    4.80
   1   3   5   75.59    4.70
  -2  -3  -5  866.21   32.50
   2   3   5  846.12   32.30
  -3  -3  -5  408.26   16.40
   3   3   5  372.06   16.00
  -4  -3  -5  282.97   12.70
   4   3   5  267.27   12.30
  -5  -3  -5  476.55   20.20
  -7   4   5  203.18    9.60
  -7   4   5  204.38   11.10
  -6   4   5  140.99    7.30
  -6   4   5  140.89    8.50
   5  -4  -5   67.39    5.40
  -5   4   5   85.69    6.00
  -5   4   5   66.99    4.80
   4  -4  -5  247.48   11.40
  -4   4   5  262.17   11.70
   3  -4  -5  657.33   25.60
  -3   4   5  673.33   25.70
   2  -4  -5   52.99    4.20
  -2   4   5   64.69    4.60
   1  -4  -5 1594.74   58.59
  -1   4   5 1615.44   58.69
   0  -4  -5 1640.64   59.99
   0   4   5 1640.24   59.99
  -1  -4  -5    1.50    1.80
   1   4   5    5.40    2.00
  -2  -4  -5  562.14   22.10
   2   4   5  545.75   22.00
  -3  -4  -5 1035.00   38.80
   3   4   5  996.30   38.60
  -4  -4  -5  127.49    7.70
   4   4   5  129.49    7.70
  -5  -4  -5  197.38   10.70
  -7   5   5  183.78   10.70
  -7   5   5  192.38    9.40
  -6   5   5  116.29    7.80
  -6   5   5  101.39    6.60
  -5   5   5  214.38   10.90
  -5   5   5  210.98    8.90
   4  -5  -5  370.86   15.60
  -4   5   5  381.56   16.00
  -4   5   5  357.36   12.90
   3  -5  -5  623.24   25.50
  -3   5   5  675.13   20.80
  -3   5   5  683.93   26.00
   2  -5  -5 1294.67   47.20
  -2   5   5 1275.47   47.30
  -2   5   5 1246.68   37.80
   1  -5  -5  230.08   10.40
  -1   5   5  224.88   10.50
   0  -5  -5  123.39    6.90
   0   5   5  125.79    7.10
  -1  -5  -5  457.45   18.70
   1   5   5  451.85   18.70
  -2  -5  -5   65.89    5.40
   2   5   5   66.49    5.40
   3   5   5  608.64   24.70
  -4  -5  -5  426.36   18.20
   4   5   5  400.86   18.10
  -6   6   5  113.49    8.20
  -6   6   5  116.59    7.00
  -5   6   5   93.39    7.30
  -5   6   5  103.09    6.00
  -4   6   5  533.05   21.70
  -4   6   5  509.45   17.30
   3  -6  -5  598.24   23.20
  -3   6   5  581.24   23.50
  -3   6   5  568.54   18.60
   2  -6  -5   92.99    5.90
  -2   6   5  102.79    6.60
   1  -6  -5   39.20    4.10
  -1   6   5   47.80    4.50
   0  -6  -5  538.65   22.10
   0   6   5  560.64   22.50
  -1  -6  -5  334.87   14.80
   1   6   5  338.87   15.10
  -2  -6  -5  271.47   12.50
   2   6   5  246.08   12.40
  -3  -6  -5  497.45   20.60
   3   6   5  467.75   20.60
  -5   7   5  127.19    8.40
  -5   7   5  106.19    6.50
  -4   7   5  351.26   12.50
  -4   7   5  335.67   15.60
  -3   7   5  239.08   12.00
  -3   7   5  247.18    9.10
  -2   7   5  149.29    8.70
  -1   7   5  486.05   20.50
   0   7   5  428.66   18.60
   1   7   5  250.07   12.40
   2   7   5  270.47   13.40
  -3   8   5  437.56   19.30
  -2   8   5  164.88    9.60
  -1   8   5  220.78   11.70
   0   8   5  118.79    8.20
   2   8  -6  192.88    9.20
   1   8  -6  156.28    7.40
   0   8  -6  101.79    5.40
   0   8  -6   97.09    4.90
  -1   8  -6  351.26   12.70
  -2   8  -6  558.34   18.90
  -3   8  -6  125.09    6.80
   3   7  -6  269.17   12.20
   2   7  -6  262.37   11.40
   1   7  -6   18.20    2.30
   0   7  -6  701.93   22.60
   0   7  -6  715.43   26.10
  -1   7  -6  613.24   20.00
  -2   7  -6   74.39    4.90
  -3   7  -6  128.89    6.70
  -4   7  -6  100.59    6.20
   5   6  -6  236.18   11.90
   4   6  -6  178.28    9.40
   3   6  -6   47.50    4.30
   2   6  -6  153.68    7.40
   1   6  -6  654.93   24.50
   0   6  -6  316.57   11.00
   0   6  -6  310.17   11.90
  -1   6  -6  372.06   12.90
  -2   6  -6  266.47   10.00
  -3   6  -6   74.39    4.90
  -4   6  -6  347.57   12.90
  -5   6  -6  268.17   10.90
  -5   6  -6  258.27   10.40
   5   5  -6  130.99    8.00
   4   5  -6  336.97   14.70
   3   5  -6  254.07   11.30
   2   5  -6  606.64   23.10
   1   5  -6  717.83   26.00
   1   5  -6  684.53   21.80
   0   5  -6  369.36   12.20
   0   5  -6  345.47   13.20
   0   5  -6  366.46   13.40
  -1   5  -6  523.95   17.00
  -2   5  -6  262.67    9.70
  -3   5  -6  256.87    9.70
  -4   5  -6  254.77   10.30
  -4   5  -6  266.47   10.20
  -5   5  -6  352.26   14.20
  -5   5  -6  370.66   13.60
   6   4  -6  350.76   16.20
   5   4  -6  297.57   13.70
   4   4  -6  698.03   27.10
   3   4  -6  288.77   12.20
   2   4  -6  126.69    6.10
   1   4  -6  524.75   19.00
   1   4  -6  479.55   18.80
   1   4  -6  521.35   16.20
   0   4  -6  581.84   20.60
   0   4  -6  554.54   17.90
   0   4  -6  562.04   20.50
  -1   4  -6  176.58    6.80
  -2   4  -6  503.35   16.40
  -3   4  -6  250.57    9.20
  -3   4  -6  231.38    9.30
  -3   4  -6  254.87    9.40
  -4   4  -6  209.78    8.70
  -4   4  -6  209.58    8.60
  -5   4  -6  424.36   14.80
  -5   4  -6  397.86   16.20
  -6   4  -6  166.18    8.10
  -6   4  -6  158.28    8.10
   6   3  -6 1048.90   40.60
   5   3  -6   41.20    4.40
   4   3  -6    5.50    2.20
   3   3  -6 1048.80   38.90
   2   3  -6  134.89    6.30
   2   3  -6  162.48    6.80
  -2  -3   6  147.79    6.10
   1   3  -6  449.66   16.40
   1   3  -6  420.96   16.20
   0   3  -6 1985.70   59.49
   0   3  -6 1977.20   72.19
   0   3  -6 2118.69   72.79
  -1   3  -6  466.55   16.40
  -1   3  -6  441.36   16.30
  -1   3  -6  444.46   14.50
  -2   3  -6  357.16   12.90
  -2   3  -6  334.87   12.80
  -2   3  -6  347.37   11.70
  -3   3  -6  360.96   13.70
  -3   3  -6  355.76   12.20
  -4   3  -6  331.87   11.90
  -4   3  -6  333.47   13.20
  -5   3  -6  477.55   19.10
  -5   3  -6  491.05   16.60
  -6   3  -6  329.77   12.60
  -6   3  -6  324.37   14.10
   7   2  -6  329.67   15.60
   6   2  -6  253.17   12.50
   5   2  -6  184.08    9.40
  -5  -2   6  180.88    9.30
   4   2  -6  175.48    8.60
  -4  -2   6  174.18    8.10
   3   2  -6 1099.89   39.50
  -3  -2   6 1052.39   39.00
  -3  -2   6 1043.20   39.00
   2   2  -6 2312.77   81.19
   2   2  -6 2123.89   80.99
  -2  -2   6 2339.07   80.79
   1   2  -6  180.78    6.90
   1   2  -6  158.68    6.60
  -1  -2   6  154.08    6.30
   0   2  -6  926.01   28.30
   0   2  -6  913.91   33.90
   0   2  -6  929.71   34.00
   0   2  -6  997.20   34.00
  -1   2  -6 1269.47   46.80
  -1   2  -6 1376.66   46.80
  -1   2  -6 1267.77   38.70
  -2   2  -6  184.08    7.80
  -2   2  -6  208.48    7.90
  -2   2  -6  200.38    7.20
  -3   2  -6  522.05   16.80
  -3   2  -6  524.75   19.70
  -4   2  -6 1213.68   36.90
  -4   2  -6 1218.98   44.60
  -5   2  -6   82.29    5.00
  -5   2  -6   96.39    5.60
  -6   2  -6  192.98    8.20
  -6   2  -6  178.48    9.30
   7   1  -6  193.88   10.80
   6   1  -6  324.07   14.60
  -6  -1   6  311.77   14.10
   5   1  -6  549.85   21.90
  -5  -1   6  540.05   21.60
   4   1  -6  282.47   12.30
  -4  -1   6  285.97   12.00
   3   1  -6  306.97   12.60
  -3  -1   6  305.67   12.30
  -3  -1   6  302.27   12.30
   2   1  -6 1012.70   40.50
   2   1  -6 1158.28   40.80
  -2  -1   6 1176.78   40.60
   1   1  -6  298.17   11.10
   1   1  -6  258.37   10.80
  -1  -1   6  281.47   10.70
   0   1  -6   20.90    2.00
   0   1  -6   29.20    2.20
   0  -1   6   24.10    1.60
  -1   1  -6  395.16   12.40
  -1   1  -6  375.86   14.60
  -1   1  -6  407.96   14.70
   1  -1   6  375.56   14.30
  -2   1  -6  907.51   28.00
  -2   1  -6  953.30   34.10
  -3   1  -6  411.06   13.70
  -3   1  -6  435.36   16.50
  -4   1  -6  713.93   27.30
  -4   1  -6  723.83   22.40
  -5   1  -6  448.56   18.20
  -5   1  -6  443.46   14.90
  -6   1  -6   53.19    3.80
  -6   1  -6   48.20    4.60
   7   0  -6  232.98   11.90
  -7   0   6  222.58   11.40
   6   0  -6  524.45   21.10
  -6   0   6  484.95   20.60
   5   0  -6  214.58   10.10
  -5   0   6  197.18    9.60
   4   0  -6   66.89    4.70
  -4   0   6   65.29    4.50
  -4   0   6   66.59    4.50
   3   0  -6  638.94   23.80
  -3   0   6  604.14   23.50
   2   0  -6 1368.16   49.90
  -2   0   6 1372.16   49.70
   1   0  -6  890.81   31.50
   1   0  -6  812.22   31.30
   1   0  -6  807.12   31.30
  -1   0   6  907.21   31.30
   0   0  -6  268.67   10.20
   0   0  -6  224.38    9.90
   0   0   6  262.97    9.90
  -1   0  -6 1712.13   59.49
  -1   0  -6 1536.45   59.29
   1   0   6 1698.83   59.19
  -2   0  -6 1320.97   47.80
   2   0   6 1303.47   47.50
  -3   0  -6   18.50    2.40
  -3   0  -6   23.30    2.10
  -4   0  -6  388.46   15.90
  -4   0  -6  389.76   12.70
  -5   0  -6  501.75   16.70
  -5   0  -6  546.55   21.20
  -6   0  -6   52.19    5.00
   7  -1  -6  302.57   14.50
  -7   1   6  301.57   14.30
  -7   1   6  321.77   14.50
   6  -1  -6  458.35   19.70
  -6   1   6  462.25   19.50
  -6   1   6  487.85   19.70
   5  -1  -6   79.79    5.70
  -5   1   6   76.09    5.40
  -5   1   6   73.49    5.40
   4  -1  -6  477.75   18.80
  -4   1   6  453.45   18.50
   3  -1  -6  971.30   36.10
  -3   1   6  962.70   35.80
   2  -1  -6 1131.79   42.40
  -2   1   6 1178.98   42.30
   1  -1  -6  997.30   36.30
  -1   1   6  972.20   36.10
   0  -1  -6  188.88    8.30
   0   1   6  191.98    8.10
  -1  -1  -6  266.57   10.90
   1   1   6  259.27   10.60
  -2  -1  -6  230.38    9.90
   2   1   6  226.68    9.60
  -3  -1  -6  263.67   11.40
   3   1   6  263.87   11.20
  -4  -1  -6  449.46   18.30
  -5  -1  -6  498.85   20.50
  -6  -1  -6  128.69    8.10
   7  -2  -6   48.00    5.20
  -7   2   6   42.40    4.90
  -7   2   6   39.00    4.90
   6  -2  -6  227.78   11.30
  -6   2   6  216.18   11.10
  -6   2   6  235.28   11.40
   5  -2  -6  388.66   16.50
  -5   2   6  386.76   16.40
   4  -2  -6   37.70    3.90
  -4   2   6   32.70    3.30
   3  -2  -6 1263.97   47.00
  -3   2   6 1283.77   46.90
   2  -2  -6 1157.78   42.30
  -2   2   6 1131.39   42.10
   1  -2  -6    2.60    1.60
  -1   2   6    4.00    1.50
   0  -2  -6  634.74   23.90
   0   2   6  617.74   23.70
  -1  -2  -6  201.68    9.20
   1   2   6  209.58    9.00
  -2  -2  -6  810.92   30.30
   2   2   6  785.32   30.00
  -3  -2  -6 1375.76   50.49
   3   2   6 1351.16   50.29
  -4  -2  -6  221.98   10.70
  -5  -2  -6  321.07   14.60
  -7   3   6  205.18   11.10
  -7   3   6  207.88    9.80
   6  -3  -6   44.40    4.70
  -6   3   6   52.19    5.10
   5  -3  -6  565.44   22.70
  -5   3   6  559.84   22.70
   4  -3  -6  722.53   28.00
  -4   3   6  720.23   28.00
   3  -3  -6  290.27   12.60
  -3   3   6  295.17   12.60
   2  -3  -6  902.21   34.30
  -2   3   6  925.71   34.30
   1  -3  -6  485.55   19.70
  -1   3   6  516.55   19.70
   0   3   6   93.09    5.40
  -1  -3  -6 1405.76   50.59
   1   3   6 1332.37   50.39
  -2  -3  -6  695.33   26.40
   2   3   6  658.63   26.10
  -3  -3  -6  145.49    8.10
   3   3   6  152.78    7.80
  -4  -3  -6  374.96   16.40
  -5  -3  -6   34.00    4.30
  -7   4   6  255.27   11.20
  -7   4   6  254.87   13.00
   6  -4  -6  225.28   12.10
  -6   4   6  232.68   11.70
  -6   4   6  226.78    9.80
   5  -4  -6  219.68   10.90
  -5   4   6  226.68   11.20
   4  -4  -6  525.35   21.20
  -4   4   6  523.95   21.30
   3  -4  -6  150.18    7.80
  -3   4   6  152.88    8.00
   2  -4  -6  433.76   17.80
  -2   4   6  443.96   17.80
   1  -4  -6  767.42   29.80
  -1   4   6  796.52   29.90
   0  -4  -6   69.19    5.00
   0   4   6   75.19    5.20
  -1  -4  -6  386.66   16.20
   1   4   6  378.76   16.00
  -2  -4  -6  689.13   26.90
   2   4   6  671.23   26.70
  -3  -4  -6  212.18   10.70
   3   4   6  207.28   10.30
  -4  -4  -6  120.59    7.80
  -6   5   6  194.68   10.80
  -6   5   6  184.18    8.90
  -5   5   6   31.00    4.30
  -5   5   6   37.50    3.80
   4  -5  -6  268.97   12.40
  -4   5   6  270.77   10.30
  -4   5   6  278.57   12.90
   3  -5  -6  968.30   36.90
  -3   5   6  966.30   37.00
  -3   5   6  973.20   29.70
   2  -5  -6  394.26   16.70
  -2   5   6  402.76   16.80
   1  -5  -6   98.99    6.10
  -1   5   6   94.49    6.20
   0  -5  -6  554.04   22.50
   0   5   6  566.94   22.60
  -1  -5  -6  353.66   15.60
   1   5   6  371.86   15.80
  -2  -5  -6  460.85   19.30
   2   5   6  448.26   19.20
  -3  -5  -6  347.07   15.80
   3   5   6  351.96   15.80
  -4  -5  -6  178.98   10.00
  -6   6   6  291.57   14.50
  -5   6   6  166.78    9.60
  -5   6   6  147.69    7.50
  -4   6   6  569.64   23.60
  -4   6   6  566.74   18.80
   3  -6  -6  721.63   28.90
  -3   6   6  727.33   23.10
  -3   6   6  766.82   29.30
   2  -6  -6   12.00    2.60
  -2   6   6   11.50    3.10
   1  -6  -6  183.48    9.50
  -1   6   6  191.68    9.90
   0  -6  -6  495.25   20.50
   0   6   6  493.15   20.70
  -1  -6  -6  225.88   11.20
   1   6   6  226.38   11.40
  -2  -6  -6  315.37   14.80
   2   6   6  332.17   15.10
  -3  -6  -6  288.37   14.00
   3   6   6  302.27   14.30
  -4   7   6   29.50    4.30
  -4   7   6   28.10    3.20
  -3   7   6  120.19    8.00
  -2   7   6  458.45   19.70
  -1   7   6   54.99    5.50
   0   7   6  334.57   15.50
   1   7   6  640.54   26.40
   1   8  -7  185.78    8.20
   0   8  -7   40.60    3.70
  -1   8  -7  213.18    9.10
   3   7  -7   75.29    5.50
   2   7  -7   43.50    3.80
   1   7  -7  618.14   23.30
   0   7  -7  442.96   15.20
  -1   7  -7  148.99    7.00
  -2   7  -7  367.96   13.50
  -3   7  -7  244.78   10.20
   4   6  -7  221.28   10.80
   3   6  -7   47.00    4.20
   2   6  -7  393.26   15.80
   1   6  -7 1034.50   37.90
   0   6  -7  258.07    9.70
  -1   6  -7   50.19    4.10
  -2   6  -7  234.28    9.40
  -3   6  -7  288.47   11.20
  -4   6  -7   37.60    4.10
   5   5  -7  155.58    9.00
   4   5  -7   49.80    4.60
   3   5  -7  492.35   19.70
   2   5  -7  430.66   17.00
   1   5  -7  211.78    8.80
   0   5  -7  556.44   18.10
  -1   5  -7   33.40    3.00
  -2   5  -7  231.98    9.00
  -3   5  -7  655.63   21.40
  -4   5  -7  300.07   11.60
  -5   5  -7  354.06   13.70
  -5   5  -7  369.46   14.20
   6   4  -7   85.39    7.00
   5   4  -7  363.06   16.10
   4   4  -7  379.46   16.00
   3   4  -7  217.08    9.80
   2   4  -7  723.53   27.20
   1   4  -7  605.84   22.50
   0   4  -7  209.98    7.80
   0   4  -7  202.58    7.70
   0   4  -7  188.58    7.60
  -1   4  -7  655.13   20.70
  -2   4  -7  286.57   10.40
  -3   4  -7  422.96   14.20
  -3   4  -7  399.46   15.20
  -4   4  -7  584.04   21.90
  -4   4  -7  588.04   19.60
  -5   4  -7    6.60    2.50
  -5   4  -7    4.20    1.80
   6   3  -7  412.16   18.30
   5   3  -7  106.29    7.10
   4   3  -7  553.84   22.10
   3   3  -7  236.78   10.50
   2   3  -7  322.77   13.00
   1   3  -7  848.52   30.10
   1   3  -7  791.12   30.00
   0   3  -7  184.98    7.50
   0   3  -7  194.28    7.30
   0   3  -7  197.48    7.60
  -1   3  -7  223.18    9.00
  -1   3  -7  239.78    8.60
  -1   3  -7  250.87    9.10
  -2   3  -7  383.16   12.50
  -2   3  -7  349.27   13.70
  -2   3  -7  375.66   13.80
  -3   3  -7  246.18    9.60
  -3   3  -7  269.37   10.30
  -4   3  -7  295.57   12.00
  -4   3  -7  298.67   11.10
  -5   3  -7  330.37   12.10
  -5   3  -7  312.57   13.30
   7   2  -7  155.38    9.50
   6   2  -7   92.99    7.00
   5   2  -7  112.59    7.10
   4   2  -7  210.98    9.90
   3   2  -7  658.13   25.20
   2   2  -7  533.25   20.00
  -2  -2   7  511.85   19.40
   1   2  -7  693.93   24.30
   1   2  -7  613.04   24.00
   0   2  -7  856.81   32.60
   0   2  -7  938.21   27.40
   0   2  -7  948.61   32.80
   0   2  -7  856.61   32.60
  -1   2  -7   19.20    1.60
  -1   2  -7   18.20    1.70
  -1   2  -7   15.20    1.90
  -2   2  -7  621.64   19.70
  -2   2  -7  628.84   23.20
  -3   2  -7 1064.39   39.00
  -3   2  -7 1066.09   32.50
  -4   2  -7  270.67   11.50
  -4   2  -7  275.77   10.10
  -5   2  -7  279.57   12.10
  -5   2  -7  273.77   10.60
   7   1  -7    3.20    2.90
   6   1  -7  393.16   17.40
   5   1  -7  561.74   22.70
   4   1  -7  363.76   15.10
  -4  -1   7  355.66   14.70
   3   1  -7 1064.49   38.90
  -3  -1   7 1027.00   38.40
   2   1  -7  940.81   34.20
  -2  -1   7  906.11   33.80
   1   1  -7  485.65   17.80
   1   1  -7  436.96   17.50
  -1  -1   7  468.85   17.30
   0   1  -7   30.40    2.60
   0  -1   7   33.70    1.90
  -1   1  -7  327.07   12.80
  -1   1  -7  327.87   10.90
  -2   1  -7  920.31   33.50
  -2   1  -7  895.91   27.60
  -3   1  -7  399.06   15.40
  -3   1  -7  375.06   12.80
  -4   1  -7  211.08    9.50
  -4   1  -7  203.68    7.90
  -5   1  -7  123.49    6.90
  -5   1  -7  111.89    5.50
   7   0  -7  111.59    7.90
   6   0  -7  261.77   12.90
  -6   0   7  276.67   12.70
  -6   0   7  271.87   12.60
   5   0  -7  703.03   27.00
  -5   0   7  667.63   26.60
  -5   0   7  677.53   26.60
   4   0  -7  128.19    7.10
  -4   0   7  124.99    6.60
   3   0  -7  283.37   12.20
  -3   0   7  289.17   11.90
   2   0  -7  910.11   33.50
  -2   0   7  890.21   33.20
   1   0  -7    1.00    0.70
   1   0  -7    2.00    1.30
   1   0  -7    2.80    0.90
  -1   0   7    2.10    1.10
   0   0  -7  412.26   15.00
   0   0  -7  336.97   14.50
   0   0   7  390.36   14.50
  -1   0  -7 1514.35   44.70
  -1   0  -7 1521.55   54.99
   1   0   7 1508.95   54.59
  -2   0  -7  217.68    7.70
  -2   0  -7  220.68    9.50
  -3   0  -7  553.34   21.30
  -3   0  -7  539.35   17.10
  -4   0  -7  333.17   13.80
  -4   0  -7  309.57   10.80
  -5   0  -7  150.18    8.30
   7  -1  -7  171.68   10.30
  -7   1   7  196.88   10.20
  -7   1   7  177.38   10.00
   6  -1  -7    3.90    2.60
  -6   1   7    6.90    2.60
   5  -1  -7  550.74   22.50
  -5   1   7  554.04   22.20
   4  -1  -7  844.22   32.00
  -4   1   7  824.02   31.70
   3  -1  -7   20.20    2.80
  -3   1   7   22.30    2.70
   2  -1  -7 1110.49   40.60
  -2   1   7 1080.89   40.30
   1  -1  -7 1674.43   60.59
  -1   1   7 1662.53   60.39
   0  -1  -7  235.28   10.10
   0   1   7  234.48    9.80
  -1  -1  -7  468.65   17.80
   1   1   7  432.26   17.30
  -2  -1  -7  884.41   31.20
  -2  -1  -7  765.42   24.70
  -3  -1  -7  212.88    9.90
  -4  -1  -7  268.67   12.20
  -5  -1  -7  135.99    8.00
   7  -2  -7   98.89    7.40
  -7   2   7   99.89    7.20
   6  -2  -7  175.28    9.90
  -6   2   7  185.18    9.80
   5  -2  -7  351.66   15.40
  -5   2   7  341.67   15.10
   4  -2  -7 1173.08   43.60
  -4   2   7 1149.39   43.40
   3  -2  -7  500.85   20.00
  -3   2   7  498.15   19.80
   2  -2  -7  104.89    6.00
  -2   2   7  104.69    5.80
   1  -2  -7 1309.47   48.70
  -1   2   7 1340.17   48.60
   0  -2  -7    9.10    2.00
   0   2   7   12.70    2.10
  -1  -2  -7   28.20    3.20
   1   2   7   20.20    2.50
  -2  -2  -7 1666.43   59.49
   2   2   7 1570.34   59.09
  -3  -2  -7  251.47   11.60
  -4  -2  -7   48.10    4.70
  -5  -2  -7  416.36   18.10
  -7   3   7  108.79    7.90
  -7   3   7  122.29    7.70
   6  -3  -7  126.99    8.20
  -6   3   7  136.29    8.30
   5  -3  -7  442.36   19.00
  -5   3   7  455.35   19.00
   4  -3  -7  597.94   24.00
  -4   3   7  601.14   23.90
   3  -3  -7  173.98    8.70
  -3   3   7  167.58    8.50
   2  -3  -7   96.59    5.70
  -2   3   7   86.49    5.50
   1  -3  -7  240.88   10.60
  -1   3   7  224.68   10.40
   0  -3  -7  830.42   32.10
   0   3   7  865.11   32.20
  -1  -3  -7  606.04   23.60
   1   3   7  587.94   23.30
  -2  -3  -7  515.85   20.70
   2   3   7  498.55   20.30
  -3  -3  -7  836.22   32.60
  -4  -3  -7   34.00    4.40
   6  -4  -7  253.87   12.70
  -6   4   7  257.97   13.10
  -6   4   7  272.67   11.10
   5  -4  -7  382.26   16.70
  -5   4   7  373.56   16.70
   4  -4  -7  251.27   12.10
  -4   4   7  259.87   12.20
   3  -4  -7  366.16   15.70
  -3   4   7  371.76   15.80
   2  -4  -7  287.07   12.30
  -2   4   7  253.07   12.00
   1  -4  -7  494.25   20.00
  -1   4   7  497.45   20.00
   0  -4  -7 1023.10   38.40
   0   4   7 1001.90   38.30
  -1  -4  -7  241.78   11.10
   1   4   7  213.68   10.60
  -2  -4  -7  259.27   12.40
   2   4   7  264.07   12.20
  -3  -4  -7  213.68   11.00
  -4  -4  -7   64.69    6.00
  -6   5   7   97.69    6.70
  -6   5   7   94.09    7.60
   5  -5  -7  249.38   12.70
  -5   5   7  256.57   12.80
  -5   5   7  269.07   10.60
   4  -5  -7  395.56   17.20
  -4   5   7  404.06   17.50
   3  -5  -7  282.07   12.80
  -3   5   7  269.77   12.80
   2  -5  -7  199.78    9.80
  -2   5   7  186.88    9.70
   1  -5  -7  228.68   11.00
  -1   5   7  228.78   11.00
   0  -5  -7  343.97   15.60
   0   5   7  367.16   15.70
  -1  -5  -7  361.36   15.90
   1   5   7  356.06   15.80
  -2  -5  -7   84.09    6.60
   2   5   7   94.19    6.50
  -3  -5  -7  297.27   14.20
  -5   6   7  275.37   11.20
  -5   6   7  292.97   14.20
  -4   6   7  652.13   21.30
  -4   6   7  648.14   26.50
   3  -6  -7   22.60    3.40
  -3   6   7   23.40    3.80
  -3   6   7   19.60    2.60
   2  -6  -7  133.79    7.70
  -2   6   7  123.09    7.90
   1  -6  -7  613.34   24.80
  -1   6   7  610.64   24.90
   0  -6  -7  206.98   10.90
   0   6   7  228.78   11.30
  -1  -6  -7  346.97   15.50
   1   6   7  324.87   15.30
  -2  -6  -7  340.87   15.60
   2   6   7  327.07   15.60
  -4   7   7   35.40    4.80
  -3   7   7  278.57   13.70
  -2   7   7  150.78    9.10
  -1   7   7  204.88   11.00
   0   7   7  491.15   21.20
   2   7  -8  144.69    7.20
   1   7  -8  215.78    9.00
   0   7  -8  215.78    9.00
  -1   7  -8  102.39    6.00
  -2   7  -8  188.58    8.70
   4   6  -8  147.69    8.30
   3   6  -8  126.59    7.10
   2   6  -8  512.35   20.00
   1   6  -8  493.95   18.70
   0   6  -8  207.68    8.60
  -1   6  -8  292.57   11.20
  -2   6  -8  385.56   13.90
  -3   6  -8  124.49    6.70
   5   5  -8    5.00    2.80
   4   5  -8  654.83   26.10
   3   5  -8 1027.20   38.70
   2   5  -8   48.30    3.90
   1   5  -8  438.06   16.70
   0   5  -8  284.27   10.50
  -1   5  -8   34.60    3.40
  -2   5  -8  197.68    8.30
  -3   5  -8  292.87   11.30
  -4   5  -8  433.76   15.70
   5   4  -8  155.98    9.00
   4   4  -8  316.87   14.10
   3   4  -8  600.84   23.40
   2   4  -8  128.89    6.40
   1   4  -8   11.70    1.70
   0   4  -8  772.82   26.80
   0   4  -8  694.93   23.20
  -1   4  -8  309.57   11.10
  -2   4  -8  191.78    8.00
  -3   4  -8 1349.07   40.90
  -3   4  -8 1325.67   48.00
  -4   4  -8  186.48    7.90
  -4   4  -8  185.38    8.30
  -5   4  -8   11.70    2.10
   6   3  -8  222.38   11.70
   5   3  -8  186.88    9.90
   4   3  -8  249.68   11.50
   3   3  -8  748.33   28.60
   2   3  -8  394.86   15.70
   1   3  -8  134.99    6.10
   0   3  -8  896.71   27.90
   0   3  -8  915.41   33.00
  -1   3  -8  744.03   23.30
  -1   3  -8  733.83   26.90
  -2   3  -8  245.38    9.00
  -2   3  -8  228.78    9.30
  -3   3  -8  165.98    7.20
  -3   3  -8  169.38    7.30
  -4   3  -8  235.88    9.90
  -4   3  -8  225.38    9.30
  -5   3  -8   73.79    5.10
  -5   3  -8   76.69    4.90
   6   2  -8  153.68    9.30
   5   2  -8  394.36   17.10
   4   2  -8  319.57   13.90
   3   2  -8  409.26   16.60
   2   2  -8  533.75   20.60
   1   2  -8  171.98    7.50
   0   2  -8  121.09    5.50
   0   2  -8  114.69    5.20
  -1   2  -8  689.33   21.40
  -1   2  -8  667.83   25.10
  -2   2  -8  157.08    7.00
  -2   2  -8  159.18    6.60
  -3   2  -8  180.08    7.40
  -3   2  -8  176.88    7.90
  -4   2  -8  646.74   20.80
  -4   2  -8  635.84   24.50
  -5   2  -8  178.08    8.60
  -5   2  -8  164.68    7.60
   6   1  -8  138.59    8.60
   5   1  -8  148.69    8.40
   4   1  -8  697.83   27.30
   3   1  -8  352.16   14.70
   2   1  -8  514.75   20.00
   1   1  -8  181.48    8.00
   0   1  -8  135.79    6.30
  -1   1  -8 1376.56   50.59
  -1   1  -8 1407.26   41.60
  -2   1  -8  740.23   27.70
  -2   1  -8  740.93   23.10
  -3   1  -8  168.38    7.90
  -3   1  -8  170.78    6.90
  -4   1  -8  330.07   13.90
  -4   1  -8  332.47   11.70
  -5   1  -8  245.08   11.30
  -5   1  -8  236.68    9.20
   7   0  -8  155.68    9.70
   6   0  -8  427.46   18.70
   5   0  -8  294.27   13.60
   4   0  -8  633.24   24.90
  -4   0   8  626.24   24.50
   3   0  -8 1021.60   37.80
  -3   0   8  987.70   37.30
   2   0  -8    2.00    1.60
  -2   0   8    2.20    1.30
   1   0  -8  282.87   11.70
  -1   0   8  275.17   11.20
   0   0  -8 1603.64   58.29
  -1   0  -8  155.98    7.30
  -2   0  -8  470.55   14.90
  -2   0  -8  451.25   18.20
  -3   0  -8  168.78    6.60
  -3   0  -8  174.68    8.40
  -4   0  -8   42.90    4.10
  -4   0  -8   37.10    3.00
  -5   0  -8  279.37   12.80
   7  -1  -8  106.69    7.80
   6  -1  -8  176.88   10.00
   5  -1  -8  540.85   22.20
  -5   1   8  531.65   21.70
   4  -1  -8  155.58    8.30
  -4   1   8  144.89    7.80
   3  -1  -8  104.19    6.10
  -3   1   8   93.69    5.50
   2  -1  -8  394.46   15.90
  -2   1   8  383.46   15.60
   1  -1  -8  461.85   18.20
  -1   1   8  455.25   17.90
   0  -1  -8  548.05   20.80
   0   1   8  515.55   20.40
  -1  -1  -8  576.04   22.40
  -2  -1  -8  194.08    9.20
  -3  -1  -8  367.96   15.60
  -4  -1  -8  222.58   10.80
   6  -2  -8  126.49    8.40
  -6   2   8  135.19    8.20
   5  -2  -8  271.77   13.10
  -5   2   8  280.87   12.80
   4  -2  -8  463.45   19.20
  -4   2   8  455.95   18.90
   3  -2  -8  360.26   15.10
  -3   2   8  344.17   14.70
   2  -2  -8  775.22   29.30
  -2   2   8  746.23   28.90
   1  -2  -8  281.17   12.00
  -1   2   8  270.77   11.80
   0  -2  -8  334.37   13.90
   0   2   8  326.97   13.70
  -1  -2  -8  870.01   33.20
  -2  -2  -8  222.08   10.60
  -3  -2  -8  138.89    8.00
  -4  -2  -8  259.07   12.40
   6  -3  -8  179.88   10.30
  -6   3   8  183.58   10.20
   5  -3  -8  377.56   16.80
  -5   3   8  371.06   16.50
   4  -3  -8  641.24   25.10
  -4   3   8  600.84   24.70
   3  -3  -8  220.18   10.60
  -3   3   8  213.08   10.30
   2  -3  -8   43.00    4.10
  -2   3   8   46.40    4.20
   1  -3  -8  285.07   12.30
  -1   3   8  259.97   11.90
   0  -3  -8  694.63   26.90
   0   3   8  682.63   26.70
  -1  -3  -8  297.27   13.10
   1   3   8  277.87   13.10
  -2  -3  -8  244.28   11.80
  -3  -3  -8  178.68    9.70
  -4  -3  -8  270.67   13.20
   6  -4  -8  327.27   15.30
  -6   4   8  313.37   15.20
   5  -4  -8    6.50    2.90
  -5   4   8    9.60    3.10
   4  -4  -8  336.97   15.30
  -4   4   8  338.97   15.20
   3  -4  -8  184.98    9.70
  -3   4   8  189.98    9.60
   2  -4  -8   39.60    4.40
  -2   4   8   33.20    3.80
   1  -4  -8 1003.80   38.00
  -1   4   8  992.60   37.90
   0  -4  -8  618.34   24.60
   0   4   8  605.14   24.40
  -1  -4  -8  296.47   13.40
   1   4   8  275.67   13.30
  -2  -4  -8  265.17   12.90
  -3  -4  -8  120.29    8.00
   5  -5  -8   76.29    6.20
  -5   5   8   65.89    6.20
  -5   5   8   77.69    5.60
   4  -5  -8  154.18    9.10
  -4   5   8  167.48    9.40
   3  -5  -8  741.53   29.30
  -3   5   8  720.73   29.10
   2  -5  -8  252.27   12.50
  -2   5   8  278.77   12.70
   1  -5  -8  172.08    9.30
  -1   5   8  166.98    9.20
   0  -5  -8  843.12   33.70
   0   5   8  878.21   33.70
  -1  -5  -8   68.19    6.00
  -2  -5  -8    6.20    3.00
  -4   6   8   60.99    5.90
  -4   6   8   55.59    4.40
   3  -6  -8  218.98   11.00
  -3   6   8  202.48   11.10
   2  -6  -8  401.26   17.30
  -2   6   8  381.26   17.30
   1  -6  -8   51.69    5.20
  -1   6   8   56.49    5.50
   0  -6  -8  209.58   11.20
   0   6   8  218.78   11.20
  -1  -6  -8  346.17   16.00
   3   6  -9  286.77   12.70
   2   6  -9  251.67   10.90
   1   6  -9   32.00    2.60
   0   6  -9  248.18   10.00
  -1   6  -9  546.45   18.70
  -2   6  -9  106.59    6.30
   4   5  -9  428.36   18.20
   3   5  -9  279.87   12.40
   2   5  -9  317.97   13.10
   1   5  -9  263.07   10.60
   0   5  -9  312.87   11.60
  -1   5  -9  350.26   12.90
  -2   5  -9  134.39    6.80
  -3   5  -9  315.67   12.30
   5   4  -9  478.25   20.40
   4   4  -9  341.37   15.00
   3   4  -9  348.87   14.80
   2   4  -9  206.98    9.30
   1   4  -9  153.78    6.90
   0   4  -9  127.49    6.10
   0   4  -9  126.09    5.50
  -1   4  -9  246.98    9.70
  -2   4  -9  694.33   22.70
  -3   4  -9  164.08    7.40
  -3   4  -9  147.79    6.30
  -4   4  -9   58.89    4.90
  -4   4  -9   60.09    3.60
   5   3  -9  134.69    8.30
   4   3  -9  166.88    8.80
   3   3  -9  173.78    8.60
   2   3  -9  133.09    6.70
   1   3  -9  325.17   13.00
   0   3  -9  324.07   12.60
  -1   3  -9  997.70   31.20
  -1   3  -9 1016.80   36.60
  -2   3  -9  462.65   17.70
  -2   3  -9  481.05   16.10
  -3   3  -9   31.40    2.70
  -3   3  -9   26.00    3.20
  -4   3  -9  218.48    9.50
  -4   3  -9  227.88    9.40
   6   2  -9  469.65   20.40
   5   2  -9  351.06   15.70
   4   2  -9   58.19    5.20
   3   2  -9  648.14   25.30
   2   2  -9  697.13   26.60
   1   2  -9  207.78    9.00
   0   2  -9  840.02   31.10
  -1   2  -9  302.17   12.00
  -1   2  -9  298.17   10.80
  -2   2  -9   79.19    4.50
  -2   2  -9   81.29    4.70
  -3   2  -9  238.58   10.20
  -3   2  -9  240.38    9.40
  -4   2  -9   90.69    5.20
  -4   2  -9   83.79    5.20
   6   1  -9  230.88   12.10
   5   1  -9  748.53   29.80
   4   1  -9  105.49    6.80
   3   1  -9  212.78   10.00
   2   1  -9  719.13   27.50
   1   1  -9   27.50    2.80
   0   1  -9  142.09    6.80
  -1   1  -9  686.13   26.40
  -1   1  -9  715.43   22.10
  -2   1  -9  260.77    9.50
  -2   1  -9  255.87   11.00
  -3   1  -9  138.49    6.30
  -3   1  -9  147.59    7.30
  -4   1  -9  434.26   17.80
  -4   1  -9  439.46   14.90
   6   0  -9  152.08    9.30
   5   0  -9  466.25   19.80
   4   0  -9  409.26   17.50
   3   0  -9   -0.40    1.80
   2   0  -9  348.47   14.60
   1   0  -9 1260.27   46.50
   0   0  -9  152.48    7.50
  -1   0  -9  742.73   28.30
  -2   0  -9  651.73   25.20
  -3   0  -9   32.50    2.80
  -3   0  -9   36.90    3.80
  -4   0  -9  180.68    9.30
   6  -1  -9  354.86   16.50
   5  -1  -9  436.36   19.00
   4  -1  -9  138.79    8.20
   3  -1  -9   70.99    5.50
   2  -1  -9  896.91   34.10
   1  -1  -9  826.02   31.40
   0  -1  -9  180.98    8.70
  -1  -1  -9  143.49    7.60
  -2  -1  -9  312.27   13.60
  -3  -1  -9   89.49    6.20
  -4  -1  -9   30.70    3.90
   6  -2  -9  259.77   13.20
   5  -2  -9   44.00    4.90
   4  -2  -9  216.18   10.70
  -4   2   9  189.68   10.10
   3  -2  -9  572.94   22.50
  -3   2   9  528.55   21.90
   2  -2  -9  149.39    7.90
  -2   2   9  139.99    7.60
   1  -2  -9  456.75   18.80
   0  -2  -9  441.26   18.10
  -1  -2  -9   79.29    5.80
  -2  -2  -9  402.26   17.20
  -3  -2  -9  270.47   12.80
   6  -3  -9  229.48   12.20
   5  -3  -9  349.77   16.30
  -5   3   9  363.96   16.10
   4  -3  -9  203.98   10.70
  -4   3   9  196.18   10.10
   3  -3  -9  334.57   14.70
  -3   3   9  313.97   14.10
   2  -3  -9  296.27   13.00
  -2   3   9  269.47   12.50
   1  -3  -9  441.46   18.50
   0  -3  -9  542.65   22.10
  -1  -3  -9  177.08    9.60
  -2  -3  -9  125.29    7.90
  -3  -3  -9  594.14   24.60
   5  -4  -9  276.47   13.70
  -5   4   9  277.97   13.50
   4  -4  -9   95.39    7.00
  -4   4   9   92.29    6.80
   3  -4  -9   46.60    5.00
  -3   4   9   46.50    4.70
   2  -4  -9  822.12   31.30
  -2   4   9  760.92   30.80
   1  -4  -9  279.87   12.70
  -1   4   9  257.57   12.40
   0  -4  -9  112.09    7.30
  -1  -4  -9  406.86   17.90
  -2  -4  -9  101.59    7.40
   4  -5  -9  140.19    8.70
  -4   5   9  133.79    8.50
   3  -5  -9  377.86   17.40
  -3   5   9  405.26   17.40
   2  -5  -9  287.77   13.60
  -2   5   9  289.77   13.50
   1  -5  -9  464.05   19.90
   0  -5  -9  192.78   10.60
  -1  -5  -9   81.79    6.70
   2  -6  -9  330.27   15.30
  -2   6   9  325.37   15.30
   1  -6  -9  127.69    8.30
   1   6 -10  214.58    8.60
  -1   6 -10  109.59    6.50
   3   5 -10  150.68    8.00
   2   5 -10   47.30    3.80
   1   5 -10  410.06   15.80
  -1   5 -10   37.80    4.00
  -2   5 -10  201.48    9.10
   4   4 -10   98.39    6.70
   3   4 -10  332.47   14.40
   2   4 -10  359.56   14.70
   1   4 -10  141.79    6.60
   0   4 -10  370.96   14.20
  -1   4 -10  555.84   18.80
  -2   4 -10  156.08    7.60
  -3   4 -10  187.68    8.60
   5   3 -10  430.86   18.90
   4   3 -10  229.08   11.20
   3   3 -10   51.69    4.60
   2   3 -10  347.77   14.40
   1   3 -10  155.08    7.30
   0   3 -10  451.15   17.40
  -1   3 -10  616.94   20.00
  -1   3 -10  594.14   22.60
  -2   3 -10    7.10    2.30
  -2   3 -10    6.90    1.40
  -3   3 -10   81.79    4.50
  -3   3 -10   85.99    5.50
   5   2 -10   98.69    7.20
   4   2 -10  182.18    9.70
   3   2 -10  101.09    6.30
   2   2 -10  174.68    8.40
   1   2 -10 1257.47   46.30
   0   2 -10  327.27   13.30
  -1   2 -10   48.90    3.60
  -2   2 -10  486.85   19.00
  -2   2 -10  487.45   16.50
  -3   2 -10  116.09    6.20
  -3   2 -10  117.49    6.10
   5   1 -10  252.87   12.60
   4   1 -10  364.96   16.10
   3   1 -10  377.36   16.00
   2   1 -10  365.76   15.30
   1   1 -10  506.35   20.00
   0   1 -10  213.58    9.60
  -1   1 -10  101.09    5.70
  -2   1 -10  177.38    8.60
  -2   1 -10  184.18    7.60
  -3   1 -10  322.97   11.80
  -3   1 -10  331.37   14.00
   5   0 -10  422.56   18.70
   4   0 -10  185.98    9.90
   3   0 -10   66.69    5.40
   2   0 -10  248.68   11.40
   1   0 -10  306.07   13.20
   0   0 -10  369.36   15.30
  -1   0 -10  156.78    8.00
  -2   0 -10  262.77   11.90
  -3   0 -10  434.76   18.10
   5  -1 -10  167.18    9.80
   4  -1 -10   73.89    6.30
   3  -1 -10  324.57   14.60
   2  -1 -10  576.64   23.10
   1  -1 -10  499.85   20.20
   0  -1 -10  428.76   17.60
  -1  -1 -10  201.78    9.90
  -2  -1 -10  174.28    9.20
  -3  -1 -10  171.48    9.20
   5  -2 -10   94.29    7.50
   4  -2 -10 1077.49   41.60
   3  -2 -10  204.38   10.60
   2  -2 -10  211.78   10.60
   1  -2 -10  628.94   25.10
   0  -2 -10   52.29    4.90
  -1  -2 -10  104.39    6.90
  -2  -2 -10   87.19    6.50
   5  -3 -10   97.29    7.60
   4  -3 -10  412.76   18.40
   3  -3 -10  249.48   12.30
   2  -3 -10   48.20    5.00
   1  -3 -10  387.06   16.80
   0  -3 -10  331.07   15.00
  -1  -3 -10   16.40    3.40
  -2  -3 -10  667.43   27.30
   4  -4 -10  106.09    7.70
   3  -4 -10  587.34   24.50
   2  -4 -10  235.88   11.90
   1  -4 -10  112.39    7.50
   0  -4 -10  476.65   20.50
  -1  -4 -10  246.88   12.50
   3  -5 -10  365.16   16.90
   2  -5 -10  174.48    9.90
   1  -5 -10  118.89    8.00
   1   5 -11  319.97   12.60
   3   4 -11  528.25   21.40
   2   4 -11  125.69    6.70
   1   4 -11   49.50    3.60
   0   4 -11  316.47   12.40
  -1   4 -11  209.28    8.30
   4   3 -11   68.99    5.80
   3   3 -11  408.66   17.30
   2   3 -11  255.57   11.40
   1   3 -11  209.98    9.40
   0   3 -11  643.94   24.40
  -1   3 -11  205.68    8.80
  -2   3 -11   59.39    4.90
  -2   3 -11   58.39    3.70
   4   2 -11   73.29    6.30
   3   2 -11  157.48    8.60
   2   2 -11  781.22   30.00
   1   2 -11  264.17   11.50
   0   2 -11    9.10    2.10
  -1   2 -11  290.67   12.20
  -2   2 -11  130.69    6.70
   5   1 -11  147.69    9.40
   4   1 -11  158.38    9.10
   3   1 -11  318.97   14.30
   2   1 -11  617.44   24.50
   1   1 -11   88.39    5.70
   0   1 -11  106.99    6.10
  -1   1 -11  360.66   15.10
  -2   1 -11  343.07   14.60
   5   0 -11  153.78    9.60
   4   0 -11  515.85   21.80
   3   0 -11  273.07   12.90
   2   0 -11  172.08    9.00
   1   0 -11  415.06   17.30
   0   0 -11   75.39    5.20
  -1   0 -11  202.68    9.90
  -2   0 -11  523.35   21.30
   5  -1 -11   16.40    3.90
   4  -1 -11  176.08   10.00
   3  -1 -11  486.05   20.60
   2  -1 -11   90.09    6.40
   1  -1 -11  212.58   10.50
   0  -1 -11  385.56   16.50
  -1  -1 -11  150.48    8.50
  -2  -1 -11  204.18   10.40
   4  -2 -11  267.77   13.50
   3  -2 -11  442.56   19.10
   2  -2 -11  435.76   18.70
   1  -2 -11   74.99    6.10
   0  -2 -11  351.06   15.60
  -1  -2 -11  175.88    9.80
   4  -3 -11  219.28   11.70
   3  -3 -11  323.07   15.20
   2  -3 -11  185.58   10.30
   1  -3 -11   65.39    5.90
   0  -3 -11   45.60    5.00
   2  -4 -11  114.19    7.90
   2   3 -12  241.18   11.10
   1   3 -12  317.17   13.30
   0   3 -12   80.29    4.70
   3   2 -12  267.57   12.60
   2   2 -12  553.14   22.30
   1   2 -12  265.57   11.80
   0   2 -12   82.79    5.20
  -1   2 -12  147.09    7.40
   3   1 -12  408.26   17.80
   2   1 -12   87.09    6.20
   1   1 -12   93.59    6.20
   0   1 -12  165.88    8.40
  -1   1 -12  104.09    6.40
   3   0 -12   17.70    3.40
   2   0 -12  300.47   13.80
   1   0 -12  207.38   10.30
   0   0 -12  135.29    7.70
  -1   0 -12  539.05   22.10
   3  -1 -12  102.89    7.40
   2  -1 -12  142.49    8.50
   1  -1 -12  422.76   18.10
   0  -1 -12  181.88    9.70
   2  -2 -12   77.29    6.60
   1  -2 -12  285.07   13.50
   0   0   0    0.00    0.00

_computing_structure_solution     'SHELXT 2014/5 (Sheldrick, 2014)'
;
_shelx_hkl_checksum              95863
_olex2_submission_special_instructions 'No special instructions were received'
loop_
_space_group_symop_operation_xyz
'x, y, z'
'-x, -y, -z'
loop_
_atom_site_label
_atom_site_type_symbol
_atom_site_fract_x
_atom_site_fract_y
_atom_site_fract_z
_atom_site_U_iso_or_equiv
_atom_site_adp_type
_atom_site_occupancy
_atom_site_site_symmetry_order
_atom_site_calc_flag
_atom_site_refinement_flags_posn
_atom_site_refinement_flags_adp
_atom_site_refinement_flags_occupancy
_atom_site_disorder_assembly
_atom_site_disorder_group
Rh1 Rh 1.000000 0.500000 1.000000 0.00490(4) Uani 1 2 d S T P . .
Na1 Na 0.34339(11) 0.27579(10) 0.39134(7) 0.01407(12) Uani 1 1 d . . . . .
O1 O 0.82155(18) 0.43668(15) 0.77298(11) 0.00861(17) Uani 1 1 d . . . . .
O2 O 0.84634(17) 0.20136(15) 1.01610(11) 0.00840(17) Uani 1 1 d . . . . .
O2A O 0.64014(18) -0.08094(15) 0.85859(12) 0.01118(18) Uani 1 1 d . . . . .
O1W O 0.69920(17) 0.61254(16) 1.06057(12) 0.00876(17) Uani 1 1 d D . . . .
H1WA H 0.688(4) 0.715(3) 1.015(2) 0.013 Uiso 1 1 d DR . . . .
H1W H 0.562(5) 0.549(6) 1.019(5) 0.013 Uiso 0.5 1 d DR . . A -1
O2W O 0.2773(2) 0.49025(19) 0.61525(14) 0.0160(2) Uani 1 1 d D . . . .
H2WA H 0.176(4) 0.575(3) 0.608(3) 0.024 Uiso 1 1 d DR . . . .
H2WB H 0.276(5) 0.437(4) 0.701(2) 0.024 Uiso 1 1 d DR . . . .
O1A O 0.6014(3) 0.16343(19) 0.61175(14) 0.0244(3) Uani 1 1 d . . . . .
O3W O -0.0789(2) 0.1099(2) 0.33619(15) 0.0203(2) Uani 1 1 d D . . . .
H3WA H -0.150(5) 0.105(4) 0.244(2) 0.031 Uiso 1 1 d DR . . . .
H3WB H -0.193(4) 0.060(4) 0.377(3) 0.031 Uiso 1 1 d DR . . . .
C1 C 0.7167(3) 0.2435(2) 0.74093(16) 0.0103(2) Uani 1 1 d . . . . .
C2 C 0.7346(2) 0.1061(2) 0.88150(15) 0.0075(2) Uani 1 1 d . . . . .
loop_
_atom_site_aniso_label
_atom_site_aniso_U_11
_atom_site_aniso_U_22
_atom_site_aniso_U_33
_atom_site_aniso_U_23
_atom_site_aniso_U_13
_atom_site_aniso_U_12
Rh1 0.00469(6) 0.00475(6) 0.00449(7) -0.00041(4) 0.00005(4) -0.00056(4)
Na1 0.0128(3) 0.0173(3) 0.0106(3) -0.0016(2) 0.0012(2) 0.0000(2)
O1 0.0103(4) 0.0083(4) 0.0058(4) 0.0005(3) -0.0007(3) -0.0005(3)
O2 0.0097(4) 0.0065(4) 0.0076(4) 0.0005(3) -0.0001(3) -0.0016(3)
O2A 0.0129(4) 0.0063(4) 0.0128(4) -0.0010(3) 0.0011(3) -0.0014(3)
O1W 0.0067(4) 0.0093(4) 0.0106(4) 0.0005(3) 0.0028(3) 0.0011(3)
O2W 0.0157(5) 0.0193(5) 0.0140(5) 0.0010(4) 0.0061(4) 0.0026(4)
O1A 0.0432(7) 0.0116(5) 0.0106(5) -0.0019(4) -0.0102(5) -0.0032(5)
O3W 0.0170(5) 0.0267(6) 0.0168(5) 0.0055(5) 0.0039(4) -0.0013(4)
C1 0.0133(5) 0.0083(5) 0.0079(5) -0.0004(4) -0.0007(4) 0.0011(4)
C2 0.0070(5) 0.0070(5) 0.0083(5) -0.0001(4) 0.0012(4) 0.0011(4)
loop_
_atom_type_symbol
_atom_type_description
_atom_type_scat_dispersion_real
_atom_type_scat_dispersion_imag
_atom_type_scat_source
C C 0.0033 0.0016 'International Tables Vol C Tables 4.2.6.8 and 6.1.1.4'
H H 0.0000 0.0000 'International Tables Vol C Tables 4.2.6.8 and 6.1.1.4'
Na Na 0.0362 0.0249 'International Tables Vol C Tables 4.2.6.8 and 6.1.1.4'
O O 0.0106 0.0060 'International Tables Vol C Tables 4.2.6.8 and 6.1.1.4'
Rh Rh -1.1178 0.9187 'International Tables Vol C Tables 4.2.6.8 and 6.1.1.4'
loop_
_geom_angle_atom_site_label_1
_geom_angle_atom_site_label_2
_geom_angle_atom_site_label_3
_geom_angle
_geom_angle_site_symmetry_1
_geom_angle_site_symmetry_3
_geom_angle_publ_flag
O1 Rh1 O1 180.0 . 2_767 ?
O1 Rh1 O1W 89.72(5) . . ?
O1 Rh1 O1W 90.28(5) 2_767 . ?
O1 Rh1 O1W 89.72(5) 2_767 2_767 ?
O1 Rh1 O1W 90.28(5) . 2_767 ?
O2 Rh1 O1 97.36(5) 2_767 . ?
O2 Rh1 O1 82.64(5) . . ?
O2 Rh1 O1 82.64(5) 2_767 2_767 ?
O2 Rh1 O1 97.36(5) . 2_767 ?
O2 Rh1 O2 180.0 2_767 . ?
O2 Rh1 O1W 88.78(5) . 2_767 ?
O2 Rh1 O1W 91.22(5) . . ?
O2 Rh1 O1W 91.22(5) 2_767 2_767 ?
O2 Rh1 O1W 88.78(5) 2_767 . ?
O1W Rh1 O1W 180.0 2_767 . ?
O1 Na1 Na1 78.44(4) 2_666 2_666 ?
O1 Na1 O1A 145.39(4) 2_666 2_656 ?
O2A Na1 Na1 136.52(5) 2_656 2_666 ?
O2A Na1 O1 87.27(4) 2_656 2_666 ?
O2A Na1 O1A 61.11(4) 2_656 2_656 ?
O2W Na1 Na1 45.35(4) . 2_666 ?
O2W Na1 Na1 44.67(4) 2_666 2_666 ?
O2W Na1 O1 78.69(5) 2_666 2_666 ?
O2W Na1 O1 85.03(4) . 2_666 ?
O2W Na1 O2A 92.47(5) 2_666 2_656 ?
O2W Na1 O2A 171.28(5) . 2_656 ?
O2W Na1 O2W 90.02(5) . 2_666 ?
O2W Na1 O1A 125.11(5) . 2_656 ?
O2W Na1 O1A 76.15(5) . . ?
O2W Na1 O1A 113.96(5) 2_666 2_656 ?
O1A Na1 Na1 133.89(4) 2_656 2_666 ?
O1A Na1 Na1 74.00(4) . 2_666 ?
O1A Na1 O1 152.43(5) . 2_666 ?
O1A Na1 O2A 112.48(5) . 2_656 ?
O1A Na1 O2W 81.32(5) . 2_666 ?
O1A Na1 O1A 61.20(5) . 2_656 ?
O3W Na1 Na1 134.80(5) . 2_666 ?
O3W Na1 O1 83.95(5) . 2_666 ?
O3W Na1 O2A 82.91(5) . 2_656 ?
O3W Na1 O2W 162.24(5) . 2_666 ?
O3W Na1 O2W 92.21(6) . . ?
O3W Na1 O1A 116.31(6) . . ?
O3W Na1 O1A 78.79(5) . 2_656 ?
Rh1 O1 Na1 122.51(5) . 2_666 ?
C1 O1 Rh1 112.54(9) . . ?
C1 O1 Na1 119.86(8) . 2_666 ?
C2 O2 Rh1 112.78(9) . . ?
C2 O2A Na1 118.35(9) . 2_656 ?
Rh1 O1W H1WA 105.2(16) . . ?
Rh1 O1W H1W 117(3) . . ?
H1WA O1W H1W 95(4) . . ?
Na1 O2W Na1 89.98(5) . 2_666 ?
Na1 O2W H2WA 122.8(17) . . ?
Na1 O2W H2WA 100.8(17) 2_666 . ?
Na1 O2W H2WB 118.5(17) . . ?
Na1 O2W H2WB 113.4(18) 2_666 . ?
H2WA O2W H2WB 108(2) . . ?
Na1 O1A Na1 118.80(5) . 2_656 ?
C1 O1A Na1 104.44(10) . 2_656 ?
C1 O1A Na1 136.60(10) . . ?
Na1 O3W H3WA 116.3(19) . . ?
Na1 O3W H3WB 143.4(19) . . ?
H3WA O3W H3WB 100(3) . . ?
O1 C1 C2 115.81(11) . . ?
O1A C1 O1 125.71(13) . . ?
O1A C1 C2 118.46(13) . . ?
O2 C2 C1 115.75(11) . . ?
O2A C2 O2 125.11(13) . . ?
O2A C2 C1 119.13(12) . . ?
loop_
_geom_bond_atom_site_label_1
_geom_bond_atom_site_label_2
_geom_bond_distance
_geom_bond_site_symmetry_2
_geom_bond_publ_flag
Rh1 O1 2.0221(11) 2_767 ?
Rh1 O1 2.0221(11) . ?
Rh1 O2 2.0150(11) 2_767 ?
Rh1 O2 2.0151(11) . ?
Rh1 O1W 2.0377(10) 2_767 ?
Rh1 O1W 2.0378(10) . ?
Na1 Na1 3.4033(18) 2_666 ?
Na1 O1 2.5879(13) 2_666 ?
Na1 O2A 2.4277(14) 2_656 ?
Na1 O2W 2.4211(15) 2_666 ?
Na1 O2W 2.3928(15) . ?
Na1 O1A 2.8864(15) 2_656 ?
Na1 O1A 2.4012(15) . ?
Na1 O3W 2.3907(16) . ?
O1 C1 1.2868(17) . ?
O2 C2 1.2854(16) . ?
O2A C2 1.2324(16) . ?
O1W H1WA 0.797(15) . ?
O1W H1W 0.823(19) . ?
O2W H2WA 0.837(16) . ?
O2W H2WB 0.836(16) . ?
O1A C1 1.2239(18) . ?
O3W H3WA 0.823(17) . ?
O3W H3WB 0.813(17) . ?
C1 C2 1.5467(19) . ?

_cod_database_fobs_code 2108901
