#------------------------------------------------------------------------------
#$Date: 2022-03-16 04:56:31 +0200 (Wed, 16 Mar 2022) $
#$Revision: 273718 $
#$URL: file:///home/coder/svn-repositories/cod/cif/2/10/89/2108934.cif $
#------------------------------------------------------------------------------
#
# This file is available in the Crystallography Open Database (COD),
# http://www.crystallography.net/. The original data for this entry
# were provided by IUCr Journals, http://journals.iucr.org/.
#
# The file may be used within the scientific community so long as
# proper attribution is given to the journal article from which the
# data were obtained.
#
data_2108934
loop_
_publ_author_name
'Hasija, Avantika'
'Som, Shubham'
'Chopra, Deepak'
_publ_section_title
;
 Investigation of crystal structures, energetics and isostructurality in
 halogen-substituted phosphoramidates
;
_journal_issue                   2
_journal_name_full               'Acta Crystallographica Section B'
_journal_page_first
;
;
_journal_paper_doi               10.1107/S2052520622000889
_journal_volume                  78
_journal_year                    2022
_chemical_formula_moiety         'C18 H15 Br N O3 P'
_chemical_formula_sum            'C18 H15 Br N O3 P'
_chemical_formula_weight         404.19
_space_group_crystal_system      triclinic
_space_group_IT_number           2
_space_group_name_Hall           '-P 1'
_space_group_name_H-M_alt        'P -1'
_atom_sites_solution_hydrogens   mixed
_atom_sites_solution_primary     dual
_audit_creation_date             2021-05-28
_audit_creation_method
;
Olex2 1.3
(compiled 2020.11.12 svn.r5f609507 for OlexSys, GUI svn.r6272)
;
_cell_angle_alpha                107.9070(10)
_cell_angle_beta                 95.1590(10)
_cell_angle_gamma                118.0100(10)
_cell_formula_units_Z            2
_cell_length_a                   10.06390(10)
_cell_length_b                   10.23060(10)
_cell_length_c                   10.5227(2)
_cell_measurement_reflns_used    4357
_cell_measurement_temperature    100(2)
_cell_measurement_theta_max      30.12
_cell_measurement_theta_min      2.39
_cell_volume                     874.05(2)
_computing_cell_refinement       'Bruker SAINT'
_computing_data_collection       'Bruker APEX2'
_computing_data_reduction        'Bruker SAINT'
_computing_molecular_graphics    'Olex2 1.3 (Dolomanov et al., 2009)'
_computing_publication_material  'Olex2 1.3 (Dolomanov et al., 2009)'
_computing_structure_refinement  'SHELXL 2018/3 (Sheldrick, 2015)'
_computing_structure_solution    'SHELXS-97 (Sheldrick 2008)'
_diffrn_ambient_temperature      100
_diffrn_measured_fraction_theta_full 0.997
_diffrn_measured_fraction_theta_max 0.995
_diffrn_measurement_device_type  'Bruker APEX-II CCD'
_diffrn_measurement_method       '\f and \w scans'
_diffrn_radiation_type           MoK\a
_diffrn_radiation_wavelength     0.71073
_diffrn_reflns_av_R_equivalents  0.0274
_diffrn_reflns_av_unetI/netI     0.0348
_diffrn_reflns_Laue_measured_fraction_full 0.997
_diffrn_reflns_Laue_measured_fraction_max 0.995
_diffrn_reflns_limit_h_max       13
_diffrn_reflns_limit_h_min       -13
_diffrn_reflns_limit_k_max       13
_diffrn_reflns_limit_k_min       -13
_diffrn_reflns_limit_l_max       14
_diffrn_reflns_limit_l_min       -14
_diffrn_reflns_number            11517
_diffrn_reflns_point_group_measured_fraction_full 0.997
_diffrn_reflns_point_group_measured_fraction_max 0.995
_diffrn_reflns_theta_full        25.242
_diffrn_reflns_theta_max         28.698
_diffrn_reflns_theta_min         2.118
_exptl_absorpt_coefficient_mu    2.458
_exptl_absorpt_correction_T_max  0.7460
_exptl_absorpt_correction_T_min  0.6834
_exptl_absorpt_correction_type   multi-scan
_exptl_absorpt_process_details   SADABS-2014/2
_exptl_crystal_colour            colourless
_exptl_crystal_density_diffrn    1.536
_exptl_crystal_description       block
_exptl_crystal_F_000             408
_exptl_crystal_size_max          0.442
_exptl_crystal_size_mid          0.282
_exptl_crystal_size_min          0.179
_refine_diff_density_max         0.476
_refine_diff_density_min         -0.375
_refine_diff_density_rms         0.073
_refine_ls_extinction_method     none
_refine_ls_goodness_of_fit_ref   1.040
_refine_ls_hydrogen_treatment    mixed
_refine_ls_matrix_type           full
_refine_ls_number_parameters     221
_refine_ls_number_reflns         4499
_refine_ls_number_restraints     0
_refine_ls_restrained_S_all      1.040
_refine_ls_R_factor_all          0.0356
_refine_ls_R_factor_gt           0.0287
_refine_ls_shift/su_max          0.000
_refine_ls_shift/su_mean         0.000
_refine_ls_structure_factor_coef Fsqd
_refine_ls_weighting_details
'w=1/[\s^2^(Fo^2^)+(0.0246P)^2^+0.5692P] where P=(Fo^2^+2Fc^2^)/3'
_refine_ls_weighting_scheme      calc
_refine_ls_wR_factor_gt          0.0624
_refine_ls_wR_factor_ref         0.0656
_reflns_Friedel_coverage         0.000
_reflns_number_gt                3938
_reflns_number_total             4499
_reflns_threshold_expression     'I > 2\s(I)'
_cod_data_source_file            aw5064sup1.cif
_cod_data_source_block           3Br
_cod_database_code               2108934
_shelx_shelxl_version_number     2018/3
_shelx_space_group_comment
;
The symmetry employed for this shelxl refinement is uniquely defined
by the following loop, which should always be used as a source of
symmetry information in preference to the above space-group names.
They are only intended as comments.
;
_shelx_estimated_absorpt_t_max   0.667
_shelx_estimated_absorpt_t_min   0.410
_olex2_refinement_description
;
1. Fixed Uiso
 At 1.2 times of:
  All C(H) groups
2.a Aromatic/amide H refined with riding coordinates:
 C10(H10), C11(H11), C12(H12), C2(H2), C3(H3), C4(H4), C16(H16), C15(H15),
 C14(H14), C8(H8), C5(H5), C6(H6), C18(H18), C17(H17)
;
_shelx_res_file
;
TITL TRYF in P-1
    ahp3b.res
    created by SHELXL-2018/3 at 20:42:28 on 28-May-2021
CELL 0.71073 10.0639 10.2306 10.5227 107.907 95.159 118.01
ZERR 2 0.0001 0.0001 0.0002 0.001 0.001 0.001
LATT 1
SFAC C H Br N O P
UNIT 36 30 2 2 6 2

L.S. 10
PLAN  2
SIZE 0.442 0.282 0.179
TEMP -173.15
CONF
MORE -1
BOND $H
fmap 2
acta
REM <olex2.extras>
REM <HklSrc "%.\\AHP3B.hkl">
REM </olex2.extras>

WGHT    0.024600    0.569200
FVAR       0.18069
BR1   3    0.367752    0.274405    0.290642    11.00000    0.01553    0.01388 =
         0.02533    0.00842    0.00819    0.00401
P1    6    1.031841    0.911856    0.290499    11.00000    0.01178    0.01061 =
         0.01062    0.00483    0.00487    0.00598
O1    5    0.964901    0.950815    0.174570    11.00000    0.01923    0.01712 =
         0.01292    0.00733    0.00736    0.01318
O2    5    1.101958    0.822784    0.195754    11.00000    0.01532    0.01482 =
         0.01268    0.00626    0.00619    0.01039
O3    5    1.143017    1.052312    0.418167    11.00000    0.01320    0.01239 =
         0.01308    0.00454    0.00569    0.00527
N1    4    0.887823    0.780022    0.327053    11.00000    0.01318    0.01158 =
         0.01068    0.00350    0.00544    0.00390
C10   1    0.494954    0.324060    0.066866    11.00000    0.01493    0.01250 =
         0.02061    0.00395   -0.00009    0.00457
AFIX  43
H10   2    0.406621    0.220285    0.010049    11.00000   -1.20000
AFIX   0
C11   1    0.607531    0.411262    0.010965    11.00000    0.02030    0.01869 =
         0.01291    0.00308    0.00205    0.00959
AFIX  43
H11   2    0.595484    0.366315   -0.085913    11.00000   -1.20000
AFIX   0
C12   1    0.737662    0.562854    0.093042    11.00000    0.01443    0.01676 =
         0.01562    0.00659    0.00481    0.00726
AFIX  43
H12   2    0.813158    0.620985    0.052526    11.00000   -1.20000
AFIX   0
C7    1    0.756333    0.628788    0.235429    11.00000    0.01028    0.01102 =
         0.01510    0.00528    0.00297    0.00541
C1    1    0.893891    1.042802    0.198056    11.00000    0.01232    0.01211 =
         0.01520    0.00459    0.00467    0.00738
C2    1    0.849377    1.083612    0.317619    11.00000    0.02508    0.02607 =
         0.01528    0.01065    0.00914    0.01836
AFIX  43
H2    2    0.867119    1.051270    0.389720    11.00000   -1.20000
AFIX   0
C3    1    0.777910    1.173271    0.329774    11.00000    0.02914    0.03112 =
         0.02093    0.01104    0.01301    0.02254
AFIX  43
H3    2    0.747575    1.203601    0.411581    11.00000   -1.20000
AFIX   0
C4    1    0.750701    1.218521    0.224143    11.00000    0.02896    0.02866 =
         0.02771    0.01293    0.01113    0.02381
AFIX  43
H4    2    0.701784    1.279591    0.233222    11.00000   -1.20000
AFIX   0
C16   1    1.348239    0.650638    0.357573    11.00000    0.02638    0.02638 =
         0.01719    0.00685    0.00630    0.02122
AFIX  43
H16   2    1.404411    0.611560    0.394890    11.00000   -1.20000
AFIX   0
C15   1    1.427166    0.806469    0.362839    11.00000    0.01764    0.02338 =
         0.01613    0.00175    0.00176    0.01180
AFIX  43
H15   2    1.537464    0.873156    0.402678    11.00000   -1.20000
AFIX   0
C14   1    1.345811    0.865821    0.310120    11.00000    0.01738    0.01508 =
         0.01653    0.00318    0.00476    0.00801
AFIX  43
H14   2    1.399098    0.972344    0.313203    11.00000   -1.20000
AFIX   0
C13   1    1.185027    0.765236    0.253055    11.00000    0.01609    0.01548 =
         0.01182    0.00517    0.00565    0.01065
C9    1    0.515451    0.393349    0.208803    11.00000    0.01112    0.01347 =
         0.02222    0.00968    0.00615    0.00697
C8    1    0.643871    0.543560    0.293978    11.00000    0.01358    0.01360 =
         0.01511    0.00553    0.00455    0.00741
AFIX  43
H8    2    0.655350    0.588016    0.390787    11.00000   -1.20000
AFIX   0
C5    1    0.794981    1.174552    0.104929    11.00000    0.02586    0.02554 =
         0.02208    0.01300    0.00776    0.01723
AFIX  43
H5    2    0.775382    1.204786    0.031834    11.00000   -1.20000
AFIX   0
C6    1    0.867772    1.086651    0.091451    11.00000    0.01884    0.01743 =
         0.01513    0.00658    0.00623    0.01079
AFIX  43
H6    2    0.899068    1.057211    0.010055    11.00000   -1.20000
AFIX   0
C18   1    1.104674    0.609289    0.245328    11.00000    0.01594    0.01770 =
         0.02899    0.01028    0.00669    0.00933
AFIX  43
H18   2    0.994513    0.542270    0.204706    11.00000   -1.20000
AFIX   0
C17   1    1.188107    0.552097    0.298181    11.00000    0.02584    0.02007 =
         0.03041    0.01266    0.00876    0.01499
AFIX  43
H17   2    1.134801    0.444865    0.293433    11.00000   -1.20000
AFIX   0
H1    2    0.880976    0.815517    0.403151    11.00000    0.02333
HKLF 4




REM  TRYF in P-1
REM wR2 = 0.0656, GooF = S = 1.040, Restrained GooF = 1.040 for all data
REM R1 = 0.0287 for 3938 Fo > 4sig(Fo) and 0.0356 for all 4499 data
REM 221 parameters refined using 0 restraints

END

WGHT      0.0246      0.5692

REM Highest difference peak  0.476,  deepest hole -0.375,  1-sigma level  0.073
Q1    1   0.9579  0.8512  0.3150  11.00000  0.05    0.48
Q2    1   1.2619  0.8015  0.2493  11.00000  0.05    0.46
;
_shelx_res_checksum              55297
_shelx_hkl_file
;
   2   0  -1  102.09    1.58
  -2   0   1  100.15    1.55
   4   0  -2   31.76    0.78
   4   0  -2   30.33    1.04
   6   0  -3   13.69    0.65
   6   0  -3   15.81    0.93
   8   0  -4    9.31    0.69
   8   0  -4   10.97    1.10
  10   0  -5    6.87    0.79
  10   0  -5    6.89    1.04
  11   1  -6   21.43    1.22
   9   1  -5   17.95    0.96
   9   1  -5   19.95    1.40
   7   1  -4    1.71    0.30
   7   1  -4    1.82    0.49
   5   1  -3    0.13    0.21
   5   1  -3    0.00    0.09
   3   1  -2   58.17    1.34
   3   1  -2   57.95    1.37
   1   1  -1   90.52    1.30
   1   1  -1   90.67    1.32
   1  -1   0  209.27    2.19
  -1   1   0  206.54    2.28
   3  -1  -1   34.30    0.56
   3  -1  -1   32.06    0.88
   5  -1  -2   52.30    1.49
   5  -1  -2   53.13    1.28
  -5   1   2   54.13    0.87
   7  -1  -3   72.68    1.79
   7  -1  -3   71.17    2.12
  -7   1   3   72.38    1.28
   9  -1  -4   18.90    1.28
   9  -1  -4   16.74    0.99
  -9   1   4   18.00    0.76
  11  -1  -5    0.67    0.39
 -11   1   5    0.70    0.32
  10   2  -6   31.86    1.32
   8   2  -5   19.71    1.35
   8   2  -5   17.76    0.83
   6   2  -4    8.29    0.89
   6   2  -4    9.57    0.48
   4   2  -3   14.32    0.35
   4   2  -3   13.40    0.75
   4   2  -3   14.25    0.79
   2   2  -2  195.25    2.78
   2   2  -2  197.70    2.79
   0   2  -1    1.16    0.13
   2  -2   0   19.84    0.47
  -2   2   0   18.31    0.54
   4  -2  -1   11.53    0.42
   4  -2  -1   11.37    0.57
  -4   2   1   12.02    0.47
   6  -2  -2  109.11    2.40
   6  -2  -2  113.53    2.26
  -6   2   2  112.96    1.87
   8  -2  -3   81.38    2.39
   8  -2  -3   82.24    2.15
  -8   2   3   85.46    1.76
  10  -2  -4   24.99    1.32
  10  -2  -4   29.59    1.63
 -10   2   4   24.00    1.05
  12  -2  -5   12.81    1.26
 -12   2   5   12.66    0.93
   9   3  -6   11.19    0.72
   7   3  -5    2.32    0.33
   7   3  -5    1.89    0.54
   5   3  -4   17.20    1.00
   5   3  -4   19.82    1.07
   5   3  -4   17.43    0.50
   5   3  -4   18.06    0.47
   3   3  -3  122.54    2.39
   3   3  -3  124.56    2.38
  -1  -3   2  123.43    1.40
   1   3  -2  127.84    1.92
   1  -3   1    0.23    0.10
  -1   3  -1    0.19    0.06
  -1   3  -1    0.18    0.07
   3  -3   0  132.07    1.96
   3  -3   0  125.59    1.79
  -3   3   0  132.51    1.97
  -3   3   0  128.62    2.02
   5  -3  -1   15.42    0.78
   5  -3  -1   17.06    0.75
   5  -3  -1   16.24    0.60
  -5   3   1   16.63    0.70
  -5   3   1   17.07    0.66
   7  -3  -2   74.88    2.03
   7  -3  -2   73.88    1.17
   7  -3  -2   75.24    2.00
  -7   3   2   75.55    1.66
   9  -3  -3   47.60    1.87
   9  -3  -3   44.83    1.70
  -9   3   3   45.79    1.42
  11  -3  -4   14.51    1.38
  11  -3  -4   11.57    1.29
 -11   3   4   12.98    0.90
   8   4  -6    0.36    0.21
   8   4  -6    0.73    0.50
   6   4  -5   28.45    1.46
   6   4  -5   29.66    1.50
   6   4  -5   28.95    0.71
   4   4  -4   45.83    1.57
   4   4  -4   46.61    1.59
  -2  -4   3  202.33    2.16
   2   4  -3  208.14    3.13
   2   4  -3  205.33    3.26
   0  -4   2   82.10    0.94
   0   4  -2   81.91    1.31
   0   4  -2   79.52    1.27
   2  -4   1   18.53    0.54
   2  -4   1   19.14    0.66
  -2   4  -1   18.60    0.59
  -2   4  -1   17.94    0.51
   4  -4   0  176.56    2.51
   4  -4   0  175.77    2.61
   4  -4   0  170.12    2.41
  -4   4   0  179.25    2.52
  -4   4   0  173.14    2.71
  -4   4   0  174.20    2.64
   6  -4  -1   43.13    1.13
   6  -4  -1   41.37    1.28
   6  -4  -1   42.61    1.43
  -6   4   1   42.50    1.28
  -6   4   1   42.60    1.21
   8  -4  -2    0.07    0.23
   8  -4  -2    0.04    0.23
   8  -4  -2    0.15    0.13
  -8   4   2    0.14    0.19
  10  -4  -3   10.66    1.13
  10  -4  -3   11.93    1.17
 -10   4   3   10.66    0.79
  12  -4  -4    0.20    0.36
 -12   4   4    0.17    0.33
   7   5  -6    4.02    0.77
   7   5  -6    3.26    0.32
   5   5  -5    1.98    0.50
   5   5  -5    2.07    0.56
   3   5  -4   18.30    0.94
   3   5  -4   18.99    1.01
   1   5  -3    9.30    0.51
   1   5  -3    9.19    0.38
   1  -5   2   19.40    0.63
  -1   5  -2   19.05    0.70
  -1   5  -2   18.48    0.41
   3  -5   1   18.49    0.76
   3  -5   1   16.40    0.62
  -3   5  -1   17.91    0.64
  -3   5  -1   16.52    0.78
  -3   5  -1   18.26    0.70
   5  -5   0  100.58    1.98
   5  -5   0  104.46    1.90
   5  -5   0   98.21    1.79
  -5   5   0  102.00    1.89
  -5   5   0  100.08    2.20
  -5   5   0  101.51    2.00
   7  -5  -1    4.71    0.48
   7  -5  -1    5.60    0.70
   7  -5  -1    5.31    0.60
  -7   5   1    5.36    0.61
   9  -5  -2   28.22    1.37
   9  -5  -2   26.79    0.89
   9  -5  -2   26.20    1.39
  -9   5   2   26.44    1.18
  11  -5  -3    0.36    0.39
  11  -5  -3   -0.12    0.32
 -11   5   3    0.11    0.29
  13  -5  -4    0.46    0.46
   4   6  -5   14.37    1.07
   4   6  -5   14.00    1.02
   2   6  -4    0.23    0.24
   2   6  -4    0.07    0.10
   2   6  -4    0.06    0.17
   0   6  -3    0.80    0.19
   0   6  -3    0.61    0.20
   2  -6   2    9.30    0.42
   2  -6   2   10.78    0.59
  -2   6  -2    9.35    0.60
   4  -6   1   48.27    1.35
   4  -6   1   47.71    1.25
  -4   6  -1   46.16    1.17
  -4   6  -1   50.68    1.34
  -4   6  -1   46.72    1.48
   6  -6   0   40.60    1.20
   6  -6   0   39.88    1.14
   6  -6   0   38.41    1.27
  -6   6   0   39.28    1.18
  -6   6   0   41.45    1.32
   8  -6  -1    5.42    0.66
   8  -6  -1    5.99    0.62
   8  -6  -1    4.72    0.73
  -8   6   1    5.34    0.62
  -8   6   1    4.89    0.65
  10  -6  -2   31.44    1.06
  10  -6  -2   29.64    1.65
  10  -6  -2   32.78    1.57
  12  -6  -3   33.81    1.91
  12  -6  -3   36.21    1.92
   3   7  -5   18.63    0.60
   3   7  -5   17.77    1.15
   1   7  -4   12.72    0.60
  -1   7  -3   13.13    0.70
   3  -7   2    1.53    0.26
  -3   7  -2    1.83    0.24
  -3   7  -2    1.73    0.39
  -3   7  -2    1.66    0.12
  -3   7  -2    1.86    0.12
   5  -7   1   27.20    1.02
   5  -7   1   27.50    1.10
  -5   7  -1   26.30    0.97
  -5   7  -1   27.79    1.26
   7  -7   0    2.53    0.46
   7  -7   0    2.54    0.39
  -7   7   0    1.74    0.35
  -7   7   0    1.90    0.41
   9  -7  -1    5.05    0.64
  -9   7   1    5.17    0.70
  -9   7   1    4.40    0.64
  11  -7  -2   33.93    1.20
 -11   7   2   36.07    1.61
 -13   7   3    8.45    1.06
   4   8  -6    6.36    0.38
   2   8  -5   15.25    1.08
   2   8  -5   15.13    0.68
   0   8  -4  101.24    2.11
   2  -8   3   31.55    0.90
  -2   8  -3   30.68    1.22
   4  -8   2   16.03    0.79
  -4   8  -2   17.64    0.57
  -4   8  -2   17.03    1.00
   6  -8   1    1.42    0.34
   6  -8   1    2.51    0.47
  -6   8  -1    2.22    0.51
  -6   8  -1    1.98    0.39
   8  -8   0   23.92    1.17
  -8   8   0   21.33    1.13
  10  -8  -1    0.77    0.35
 -10   8   1    0.03    0.27
 -10   8   1    0.68    0.42
  12  -8  -2   12.54    0.79
 -12   8   2   15.45    1.36
   3   9  -6   -0.03    0.17
   1   9  -5   17.95    0.87
  -1   9  -4   45.10    1.53
   3  -9   3   26.57    0.99
  -3   9  -3   26.62    1.24
   5  -9   2    1.63    0.37
  -5   9  -2    2.16    0.30
  -5   9  -2    1.24    0.43
   7  -9   1   34.01    1.34
   7  -9   1   33.89    1.45
  -7   9  -1   30.04    1.22
   9  -9   0   10.31    0.97
  -9   9   0   11.03    1.05
  11  -9  -1    0.16    0.31
 -11   9   1    0.30    0.37
  13  -9  -2    4.02    0.59
   2  10  -6    8.11    0.64
   0  10  -5    0.25    0.24
   2 -10   4   50.27    1.37
  -2  10  -4   49.93    1.75
   4 -10   3    2.87    0.45
  -4  10  -3    3.89    0.68
   6 -10   2   21.29    1.11
  -6  10  -2   23.14    1.41
  -6  10  -2   21.97    0.85
   8 -10   1   18.48    1.17
   8 -10   1   19.07    1.10
  -8  10  -1   16.18    0.98
  10 -10   0   37.27    1.68
 -10  10   0   37.27    1.68
  12 -10  -1    0.01    0.32
 -12  10   1   -0.28    0.39
   1  11  -6    8.29    0.82
  -1  11  -5   -0.23    0.25
   3 -11   4    2.29    0.43
  -3  11  -4    2.73    0.60
   5 -11   3    0.18    0.26
  -5  11  -3    0.36    0.35
   7 -11   2   12.53    0.94
  -7  11  -2   11.48    0.69
  -7  11  -2   14.22    1.42
   9 -11   1   18.93    1.28
  -9  11  -1   19.26    1.15
  11 -11   0    7.77    1.03
 -11  11   0    6.42    0.95
   0  12  -6   18.85    1.18
   2 -12   5    3.65    0.53
  -2  12  -5    4.70    0.74
   4 -12   4   25.76    1.25
  -4  12  -4   23.65    1.49
   6 -12   3    1.79    0.48
  -6  12  -3    2.05    0.65
   8 -12   2    2.74    0.62
  -8  12  -2    2.91    0.47
  10 -12   1    0.11    0.43
 -10  12  -1   -0.01    0.34
   3 -13   5    1.12    0.42
  -3  13  -5    1.01    0.52
   5 -13   4   28.25    1.45
  -5  13  -4   27.61    1.73
   7 -13   3   12.56    1.21
  -7  13  -3   12.39    1.42
   9 -13   2    0.27    0.44
  -9  13  -2    0.60    0.35
   8 -13   2    9.00    1.02
  -6  13  -3    8.31    1.18
   6 -13   3   10.05    1.08
  -4  13  -4    0.86    0.49
   4 -13   4    0.63    0.39
  -2  13  -5    9.76    1.17
   2 -13   5    8.09    0.87
 -11  12   0    4.29    0.83
  11 -12   0    4.33    0.85
  -9  12  -1    4.06    0.64
  -7  12  -2    5.18    0.96
   7 -12   2    5.04    0.76
  -5  12  -3    2.42    0.63
   5 -12   3    1.36    0.44
  -3  12  -4   11.05    1.16
   3 -12   4   11.58    0.85
  -1  12  -5   37.54    1.69
 -12  11   1   11.02    1.27
  12 -11  -1   12.06    1.23
 -10  11   0    4.63    0.77
  10 -11   0    5.21    0.87
  -8  11  -1    0.37    0.30
   8 -11   1    0.08    0.31
  -6  11  -2    1.09    0.48
   6 -11   2    0.71    0.34
  -4  11  -3    0.38    0.37
   4 -11   3    0.01    0.23
  -2  11  -4    8.05    0.89
   2 -11   4    9.02    0.75
   0  11  -5   45.79    1.67
   2  11  -6    4.73    0.62
 -11  10   1   17.63    1.29
  11 -10  -1   16.55    1.17
  -9  10   0    9.18    0.95
   9 -10   0    8.98    0.97
  -7  10  -1    8.62    0.78
   7 -10   1    6.95    0.77
  -5  10  -2    3.40    0.67
   5 -10   2    3.17    0.52
  -3  10  -3    5.68    0.74
   3 -10   3    7.01    0.66
  -1  10  -4    0.72    0.32
   1  10  -5   13.72    0.86
   3  10  -6    0.43    0.25
  12  -9  -2   11.66    1.02
 -10   9   1    1.72    0.53
  10  -9  -1    0.85    0.41
  -8   9   0    2.32    0.50
   8  -9   0    2.44    0.52
   8  -9   0    2.49    0.46
  -6   9  -1    0.69    0.28
  -6   9  -1    0.95    0.45
   6  -9   1    0.57    0.28
  -4   9  -2   49.14    1.78
   4  -9   2   46.42    1.45
  -2   9  -3   13.91    0.90
   2  -9   3   17.10    0.73
   0   9  -4    3.84    0.52
   2   9  -5    0.68    0.25
   4   9  -6    4.22    0.41
 -13   8   3    1.41    0.58
 -11   8   2    1.12    0.43
  11  -8  -2    0.55    0.30
  -9   8   1    3.99    0.68
   9  -8  -1    3.10    0.55
  -7   8   0   -0.22    0.20
   7  -8   0    0.06    0.21
   7  -8   0    0.09    0.21
  -5   8  -1   89.99    1.84
  -5   8  -1   92.65    2.48
   5  -8   1   89.32    2.06
  -3   8  -2   31.81    1.31
   3  -8   2   30.46    1.01
  -1   8  -3   28.98    1.12
   1  -8   3   27.80    0.68
   1   8  -4    0.26    0.20
   3   8  -5   28.50    0.88
   3   8  -5   28.33    1.57
   5   8  -6   12.36    0.45
 -12   7   3    0.02    0.37
 -10   7   2    2.43    0.52
  10  -7  -2    2.50    0.46
  -8   7   1    2.33    0.51
  -8   7   1    2.06    0.41
   8  -7  -1    1.91    0.39
  -6   7   0    0.29    0.28
  -6   7   0    0.05    0.20
   6  -7   0    0.32    0.21
   6  -7   0   -0.20    0.13
  -4   7  -1   22.55    1.09
  -4   7  -1   19.97    0.73
   4  -7   1   17.97    0.80
   4  -7   1   21.69    1.38
  -2   7  -2   26.92    1.08
   2  -7   2   30.09    0.84
   0   7  -3   27.86    0.96
   2   7  -4    1.12    0.38
   2   7  -4    1.14    0.22
   4   7  -5   45.39    1.96
   4   7  -5   44.90    0.92
  13  -6  -4    9.62    1.27
  11  -6  -3    3.10    0.71
  11  -6  -3    2.87    0.67
  -9   6   2   11.54    0.84
   9  -6  -2   12.06    0.72
   9  -6  -2   11.06    1.00
   9  -6  -2   13.53    1.06
  -7   6   1   27.88    1.15
  -7   6   1   26.96    1.06
   7  -6  -1   26.87    1.07
   7  -6  -1   29.89    1.11
   7  -6  -1   28.51    1.35
  -5   6   0    0.09    0.15
  -5   6   0    0.12    0.15
  -5   6   0   -0.27    0.19
  -5   6   0   -0.09    0.18
   5  -6   0    0.14    0.15
   5  -6   0    0.02    0.14
   5  -6   0    0.14    0.13
  -3   6  -1   13.53    0.51
  -3   6  -1   13.44    0.76
  -3   6  -1   12.85    0.59
   3  -6   1   13.87    0.61
  -1   6  -2    3.97    0.43
   1  -6   2    2.99    0.36
   1  -6   2    3.11    0.16
   1   6  -3    9.42    0.47
   1   6  -3    9.15    0.55
   3   6  -4    6.71    0.71
   3   6  -4    7.04    0.82
   3   6  -4    5.87    0.30
   5   6  -5   27.72    1.53
  12  -5  -4    0.33    0.46
  12  -5  -4    1.31    0.53
  10  -5  -3    0.16    0.33
  10  -5  -3    0.19    0.31
   8  -5  -2   37.67    1.45
   8  -5  -2   36.77    1.13
   8  -5  -2   36.61    1.57
  -6   5   1   45.43    1.27
  -6   5   1   42.77    1.33
   6  -5  -1   43.77    1.26
   6  -5  -1   47.01    1.57
   6  -5  -1   43.78    1.14
   6  -5  -1   45.89    1.30
  -4   5   0   68.67    1.48
  -4   5   0   68.07    1.58
   4  -5   0   71.04    1.55
   4  -5   0   67.71    1.20
   4  -5   0   72.67    1.47
  -2   5  -1   55.38    0.91
  -2   5  -1   55.34    1.06
  -2   5  -1   54.38    1.36
   2  -5   1   54.48    1.26
   2  -5   1   57.44    1.10
   0   5  -2    1.40    0.20
   0   5  -2    1.48    0.23
   0  -5   2    1.74    0.19
   2   5  -3    3.94    0.46
   2   5  -3    3.24    0.49
   2   5  -3    3.63    0.23
   2   5  -3    3.73    0.24
   4   5  -4   41.10    1.61
   4   5  -4   39.17    1.50
  -4  -5   4   38.41    0.63
   6   5  -5    5.26    0.80
   6   5  -5    5.24    0.32
   6   5  -5    4.53    0.72
  -6  -5   5    5.23    0.27
   8   5  -6   -0.12    0.54
   8   5  -6    0.29    0.22
  -8  -5   6    0.54    0.19
 -13   4   5    0.00    0.35
  13  -4  -5    0.34    0.42
 -11   4   4    0.62    0.35
  11  -4  -4    0.41    0.46
  11  -4  -4    0.07    0.33
  -9   4   3    7.35    0.70
   9  -4  -3    6.24    0.78
   9  -4  -3    8.05    0.91
  -7   4   2   62.80    1.60
   7  -4  -2   62.54    1.79
   7  -4  -2   66.87    1.97
   7  -4  -2   68.18    1.43
  -5   4   1    1.45    0.28
  -5   4   1    1.86    0.29
   5  -4  -1    1.79    0.29
   5  -4  -1    1.30    0.26
  -3   4   0   31.37    0.91
  -3   4   0   30.45    0.83
   3  -4   0   30.96    0.65
   3  -4   0   32.18    0.90
   3  -4   0   31.27    0.83
   1  -4   1   66.49    1.21
   1   4  -2   84.02    1.23
   1   4  -2   86.42    1.56
  -1  -4   2   86.14    1.24
   3   4  -3    1.46    0.37
   3   4  -3    1.45    0.31
   5   4  -4    3.60    0.21
   5   4  -4    2.82    0.54
   5   4  -4    3.21    0.60
   5   4  -4    3.61    0.21
   7   4  -5    0.33    0.40
   7   4  -5    0.42    0.18
   9   4  -6    0.92    0.31
 -12   3   5    6.99    0.80
  12  -3  -5    6.48    0.97
 -10   3   4    1.57    0.36
  10  -3  -4    1.70    0.55
  10  -3  -4    1.56    0.48
  -8   3   3   23.08    0.94
   8  -3  -3   24.24    1.24
   8  -3  -3   21.42    1.13
  -6   3   2    1.21    0.24
  -6   3   2    1.46    0.30
   6  -3  -2    1.79    0.38
   6  -3  -2    1.76    0.23
   6  -3  -2    1.70    0.36
  -4   3   1   24.62    0.79
   4  -3  -1   24.97    0.74
   4  -3  -1   26.14    0.81
  -2   3   0  110.88    1.71
  -2   3   0  113.12    1.63
   2  -3   0  112.49    1.36
   0   3  -1  174.19    2.10
   0  -3   1  176.40    1.88
   2   3  -2   11.02    0.56
   2   3  -2    8.84    0.54
   4   3  -3   42.04    1.42
   4   3  -3   37.08    1.33
   6   3  -4    2.09    0.51
   6   3  -4    2.05    0.25
   6   3  -4    2.66    0.53
   8   3  -5   17.63    1.56
   8   3  -5   17.41    0.79
  10   3  -6    0.70    0.36
 -11   2   5    8.65    0.83
  11  -2  -5    7.38    0.94
  11  -2  -5    9.23    1.20
  -9   2   4   44.06    1.33
   9  -2  -4   44.76    1.89
   9  -2  -4   42.18    1.64
  -7   2   3    2.64    0.33
   7  -2  -3    3.69    0.58
   7  -2  -3    3.21    0.47
  -5   2   2   22.11    0.69
   5  -2  -2   22.45    0.87
   5  -2  -2   21.48    0.90
   5  -2  -2   21.46    0.53
   3  -2  -1   19.67    0.63
   3  -2  -1   21.20    0.57
  -1   2   0    3.47    0.21
   1   2  -1   25.28    0.65
  -1  -2   1   25.31    0.38
   3   2  -2   10.50    0.59
   3   2  -2    9.54    0.58
   5   2  -3   36.24    0.87
   5   2  -3   35.99    1.38
   5   2  -3   36.59    0.82
   5   2  -3   38.65    1.44
   7   2  -4   38.33    1.09
   7   2  -4   37.84    1.67
   9   2  -5   21.90    1.54
   9   2  -5   20.67    0.98
 -12   1   6    8.06    0.84
  12  -1  -6    6.53    0.97
 -10   1   5   44.05    1.35
  10  -1  -5   44.28    1.73
  10  -1  -5   48.84    2.17
  -8   1   4   32.26    0.92
   8  -1  -4   31.57    1.25
   8  -1  -4   32.97    1.54
  -6   1   3    2.73    0.24
   6  -1  -3    2.17    0.35
   6  -1  -3    2.12    0.46
   4  -1  -2   86.52    1.58
   4  -1  -2   87.33    1.80
   2  -1  -1    9.48    0.38
   0  -1   0   26.54    0.38
   0  -1   0   26.84    0.44
   2   1  -1   59.51    1.20
   2   1  -1   58.84    1.20
  -2  -1   1   59.19    1.19
   4   1  -2    0.26    0.18
   4   1  -2    0.23    0.10
   4   1  -2    0.01    0.17
   6   1  -3    6.05    0.73
   6   1  -3    5.88    0.43
   8   1  -4   40.57    1.32
   8   1  -4   41.65    1.86
  10   1  -5   20.62    1.10
  10   1  -5   21.75    2.14
  11   0  -6    7.42    0.93
   9   0  -5   14.69    1.42
   9   0  -5   10.79    0.81
   7   0  -4    3.63    0.63
   7   0  -4    2.30    0.37
   5   0  -3  121.74    2.00
   5   0  -3  122.91    2.52
   3   0  -2  151.11    2.39
   1   0   0    6.29    0.24
   1   0   0    5.98    0.24
  -1   0   0    5.84    0.23
   3   0  -1   90.89    1.69
   5   0  -2    3.98    0.38
   5   0  -2    4.28    0.55
   7   0  -3   15.27    0.76
   7   0  -3   14.53    0.98
   9   0  -4   12.91    0.85
   9   0  -4   13.05    1.31
  11   0  -5    0.81    0.38
  10   1  -6    1.22    0.38
   8   1  -5    0.80    0.41
   8   1  -5    0.28    0.21
   6   1  -4    0.44    0.32
   6   1  -4    0.40    0.16
   4   1  -3   33.00    0.72
   4   1  -3   32.23    1.14
  -2  -1   2  285.16    3.44
   2   1  -2  281.62    3.59
   2   1  -2  287.15    3.47
   0   1  -1    1.93    0.09
   2  -1   0   50.05    0.92
  -2   1   0   50.32    0.85
   4  -1  -1   26.59    0.91
   6  -1  -2   40.99    1.44
   6  -1  -2   40.89    1.22
  -6   1   2   40.25    0.80
   8  -1  -3    0.02    0.18
   8  -1  -3    0.35    0.30
  -8   1   3    0.01    0.12
  10  -1  -4   -0.17    0.35
  10  -1  -4    0.01    0.26
 -10   1   4   -0.08    0.19
  12  -1  -5    0.98    0.52
 -12   1   5    1.66    0.45
   9   2  -6    4.66    0.57
   9   2  -6    3.81    0.77
   7   2  -5   20.83    1.29
   7   2  -5   20.50    0.80
   5   2  -4   18.67    0.57
   5   2  -4   19.55    0.60
   5   2  -4   19.51    1.04
   3   2  -3   24.83    0.94
   3   2  -3   26.11    0.91
   1   2  -2  157.60    2.12
   1   2  -2  157.75    2.16
   1  -2   1   37.06    0.69
  -1   2  -1   36.40    0.66
   3  -2   0    5.07    0.33
   3  -2   0    4.73    0.28
  -3   2   0    4.73    0.31
   5  -2  -1  122.20    2.31
   5  -2  -1  121.38    1.64
   5  -2  -1  118.15    2.20
  -5   2   1  121.44    1.87
   7  -2  -2   43.08    1.54
   7  -2  -2   42.67    1.41
  -7   2   2   41.26    1.08
   9  -2  -3    0.25    0.27
   9  -2  -3    0.01    0.31
  -9   2   3    0.18    0.18
  11  -2  -4    0.28    0.43
  11  -2  -4    0.28    0.30
 -11   2   4   -0.11    0.23
  10   3  -7    1.75    0.41
   8   3  -6   19.36    1.37
   8   3  -6   19.72    0.83
   6   3  -5   19.56    0.62
   6   3  -5   19.84    1.18
   4   3  -4   47.08    1.48
   4   3  -4   47.39    1.54
   2   3  -3    8.58    0.50
   2   3  -3    8.47    0.52
   0   3  -2   11.84    0.40
   2  -3   1   96.33    1.57
  -2   3  -1   94.23    1.41
  -2   3  -1   94.64    1.51
   4  -3   0   44.38    1.01
   4  -3   0   42.95    1.06
  -4   3   0   43.67    1.02
  -4   3   0   43.75    1.12
  -4   3   0   45.50    1.09
   6  -3  -1   69.03    1.75
   6  -3  -1   67.72    1.30
   6  -3  -1   71.00    1.79
  -6   3   1   65.30    1.47
  -6   3   1   68.57    1.61
   8  -3  -2   10.87    0.84
   8  -3  -2   11.32    0.82
  -8   3   2   10.80    0.66
  10  -3  -3   27.33    1.45
  10  -3  -3   31.47    1.65
 -10   3   3   29.22    1.21
  12  -3  -4    9.30    1.12
 -12   3   4    9.30    0.93
   9   4  -7    1.44    0.34
   7   4  -6   42.47    1.95
   7   4  -6   42.63    1.04
   5   4  -5   54.71    1.85
   5   4  -5   51.10    1.83
   3   4  -4   30.32    1.17
   3   4  -4   34.40    1.23
   1   4  -3   27.67    0.84
   1   4  -3   25.79    0.51
   1  -4   2   21.12    0.59
  -1   4  -2   22.14    0.45
   3  -4   1    0.40    0.17
   3  -4   1    0.48    0.20
   3  -4   1    0.69    0.17
  -3   4  -1    1.06    0.22
  -3   4  -1    0.36    0.17
   5  -4   0    6.82    0.46
   5  -4   0    6.82    0.45
  -5   4   0    7.46    0.50
   7  -4  -1    4.16    0.58
   7  -4  -1    3.99    0.41
   7  -4  -1    3.85    0.56
  -7   4   1    3.85    0.51
  -7   4   1    3.20    0.41
   9  -4  -2    0.27    0.29
   9  -4  -2   -0.05    0.26
  -9   4   2    0.59    0.24
  11  -4  -3   42.28    1.92
  11  -4  -3   41.81    2.02
 -11   4   3   46.90    1.67
  13  -4  -4    5.30    0.94
 -13   4   4    4.44    0.74
   8   5  -7    0.68    0.23
   6   5  -6    4.94    0.81
   4   5  -5   12.92    0.90
   4   5  -5   12.16    0.88
   2   5  -4   41.16    1.27
   2   5  -4   42.55    0.70
   2   5  -4   42.89    1.37
   2   5  -4   42.80    0.73
   0  -5   3   86.80    1.13
   0   5  -3   86.97    1.49
   0   5  -3   85.95    1.47
   2  -5   2   84.67    1.63
   2  -5   2   84.31    1.36
  -2   5  -2   82.02    1.72
  -2   5  -2   84.60    1.07
  -2   5  -2   86.60    1.29
   4  -5   1   76.06    1.64
   4  -5   1   74.43    1.53
  -4   5  -1   77.50    1.68
  -4   5  -1   76.12    1.55
   6  -5   0    9.84    0.59
   6  -5   0    9.64    0.88
   6  -5   0    9.46    0.59
  -6   5   0    8.72    0.61
   8  -5  -1   11.86    0.83
   8  -5  -1   10.29    1.03
   8  -5  -1    9.44    0.58
  -8   5   1    9.14    0.67
  10  -5  -2    7.36    0.34
  10  -5  -2    7.42    0.92
  10  -5  -2    9.92    1.12
 -10   5   2    7.64    0.78
  12  -5  -3   11.05    1.37
  12  -5  -3    7.77    1.06
 -12   5   3    8.78    0.96
   3   6  -5    0.01    0.08
   3   6  -5   -0.04    0.09
   3   6  -5    0.33    0.26
   3   6  -5    0.23    0.28
   1   6  -4   21.99    0.85
   1   6  -4   21.81    0.67
   1  -6   3   58.90    1.24
  -1   6  -3   57.60    1.39
  -1   6  -3   58.70    0.99
   3  -6   2   47.71    1.14
   3  -6   2   47.23    1.33
  -3   6  -2   50.18    1.13
  -3   6  -2   48.32    0.96
  -3   6  -2   49.32    1.43
   5  -6   1    9.77    0.58
   5  -6   1   10.57    0.66
  -5   6  -1   11.15    0.62
  -5   6  -1    9.73    0.65
  -5   6  -1   10.40    0.75
   7  -6   0   18.86    0.90
   7  -6   0   22.94    0.97
   7  -6   0   19.96    1.12
  -7   6   0   20.39    1.01
  -7   6   0   20.48    0.92
   9  -6  -1   12.63    1.17
   9  -6  -1   10.58    0.69
   9  -6  -1   13.17    0.95
  11  -6  -2    4.16    0.77
  11  -6  -2    2.97    0.31
  11  -6  -2    3.38    0.75
  13  -6  -3    0.83    0.60
   4   7  -6   12.00    0.39
   2   7  -5   22.97    1.18
   2   7  -5   21.07    0.69
   0   7  -4    4.34    0.46
   2  -7   3   19.51    0.62
  -2   7  -3   18.82    0.88
   4  -7   2   16.45    0.86
   4  -7   2   16.80    0.75
  -4   7  -2   15.46    0.62
  -4   7  -2   14.25    0.87
   6  -7   1   14.43    0.76
   6  -7   1   13.89    0.82
  -6   7  -1   14.36    0.78
  -6   7  -1   13.73    0.95
   8  -7   0   59.33    1.76
  -8   7   0   60.45    1.73
  -8   7   0   59.87    1.85
  10  -7  -1   28.82    1.20
 -10   7   1   34.87    1.49
 -12   7   2    1.16    0.49
   3   8  -6   30.42    0.87
   1   8  -5   14.36    0.71
  -1   8  -4    6.71    0.64
   3  -8   3   17.58    0.75
  -3   8  -3   18.84    1.01
   5  -8   2    4.12    0.51
  -5   8  -2    5.12    0.50
  -5   8  -2    3.56    0.61
   7  -8   1    9.88    0.86
   7  -8   1   11.09    0.74
  -7   8  -1   11.26    0.79
   9  -8   0   45.30    1.63
  -9   8   0   41.34    1.66
  11  -8  -1   15.58    0.95
 -11   8   1   15.36    1.09
 -13   8   2    0.66    0.47
   4   9  -7    6.81    0.46
   2   9  -6   51.03    1.38
   0   9  -5    1.25    0.33
   2  -9   4   28.00    0.89
  -2   9  -4   27.60    1.22
   4  -9   3    1.16    0.28
  -4   9  -3    1.92    0.50
   6  -9   2   17.07    0.95
  -6   9  -2   17.15    0.82
  -6   9  -2   15.62    1.13
   8  -9   1    1.11    0.42
   8  -9   1    0.64    0.32
  -8   9  -1    1.33    0.40
  10  -9   0    5.80    0.77
 -10   9   0    6.53    0.89
  12  -9  -1   -0.12    0.28
   3  10  -7   14.59    0.77
   1  10  -6   17.98    0.94
  -1  10  -5    0.78    0.34
   3 -10   4    0.22    0.21
  -3  10  -4    0.33    0.31
   5 -10   3   35.81    1.38
  -5  10  -3   37.99    1.72
   7 -10   2   34.26    1.42
  -7  10  -2   30.52    1.68
  -7  10  -2   34.01    1.23
   9 -10   1    1.29    0.45
  -9  10  -1    1.59    0.49
  11 -10   0    0.31    0.34
 -11  10   0    0.48    0.44
   2  11  -7   12.68    0.86
   0  11  -6    0.12    0.30
   2 -11   5    0.35    0.23
  -2  11  -5    0.68    0.34
   4 -11   4    5.47    0.66
  -4  11  -4    6.46    0.88
   6 -11   3   16.25    1.03
  -6  11  -3   18.60    1.34
   8 -11   2   11.52    1.03
  -8  11  -2   10.80    0.79
  10 -11   1    1.88    0.63
 -10  11  -1    2.87    0.65
  12 -11   0    8.41    1.08
 -12  11   0    8.03    1.12
  -1  12  -6   -0.30    0.27
   3 -12   5    0.75    0.32
  -3  12  -5    0.19    0.37
   5 -12   4    6.84    0.82
  -5  12  -4    7.26    1.05
   7 -12   3    3.84    0.71
  -7  12  -3    2.24    0.74
   9 -12   2    2.07    0.54
  -9  12  -2    1.60    0.47
  11 -12   1    0.16    0.41
 -11  12  -1    1.00    0.50
   2 -13   6   19.86    1.10
  -2  13  -6   19.25    1.35
   4 -13   5    1.09    0.43
  -4  13  -5    0.80    0.48
   6 -13   4    0.49    0.41
  -6  13  -4    0.36    0.50
   8 -13   3   -0.07    0.33
 -10  13  -2   -0.04    0.38
  -9  13  -1   14.22    0.87
  -7  13  -2   -0.38    0.48
   7 -13   2   -0.02    0.34
  -5  13  -3    0.44    0.46
   5 -13   3    0.78    0.41
  -3  13  -4    7.57    1.02
   3 -13   4    6.29    0.80
 -10  12   0    9.28    1.01
  10 -12   0   10.27    1.21
  -8  12  -1    4.88    0.59
   8 -12   1    5.59    0.81
  -6  12  -2    4.58    0.86
   6 -12   2    3.89    0.63
  -4  12  -3   49.86    2.13
   4 -12   3   48.81    1.77
  -2  12  -4    1.13    0.45
   2 -12   4    0.91    0.36
   0  12  -5   -0.16    0.28
 -11  11   1    3.89    0.80
  11 -11  -1    3.74    0.77
  -9  11   0    0.16    0.34
   9 -11   0    0.90    0.47
  -7  11  -1    1.38    0.36
   7 -11   1    0.08    0.33
  -5  11  -2   16.88    1.26
   5 -11   2   17.94    1.06
  -3  11  -3   52.33    2.01
   3 -11   3   51.33    1.63
  -1  11  -4    2.24    0.53
   1 -11   4    2.81    0.42
   1  11  -5    1.06    0.38
 -12  10   2    2.13    0.72
  12 -10  -2    3.10    0.61
 -10  10   1   -0.11    0.32
  10 -10  -1    0.26    0.38
  -8  10   0    5.02    0.69
   8 -10   0    4.07    0.62
   8 -10   0    6.81    0.89
  -6  10  -1    7.34    0.61
  -6  10  -1    9.22    1.10
   6 -10   1    7.19    0.77
  -4  10  -2   34.20    1.60
   4 -10   2   37.08    1.37
  -2  10  -3   66.73    2.10
   2 -10   3   67.11    1.66
   0  10  -4   14.90    0.93
   2  10  -5   15.28    0.87
 -11   9   2    1.08    0.53
  11  -9  -2    2.74    0.59
  -9   9   1   23.05    1.26
   9  -9  -1   22.00    1.23
  -7   9   0   16.89    0.94
   7  -9   0   15.91    1.01
   7  -9   0   15.12    0.91
  -5   9  -1   38.75    1.07
  -5   9  -1   37.26    1.63
   5  -9   1   37.99    1.38
  -3   9  -2    0.61    0.34
   3  -9   2    1.09    0.29
  -1   9  -3    1.33    0.35
   1  -9   3    1.29    0.24
   1   9  -4   -0.13    0.18
   3   9  -5   28.63    1.01
 -12   8   3    3.25    0.70
  12  -8  -3    3.39    0.49
 -10   8   2    6.93    0.84
 -10   8   2    6.92    0.93
  10  -8  -2    4.65    0.62
  -8   8   1   36.45    1.47
   8  -8  -1   36.40    1.45
  -6   8   0   68.17    1.77
  -6   8   0   66.99    2.20
   6  -8   0   68.79    1.94
   6  -8   0   69.79    1.83
  -4   8  -1   34.85    0.89
  -4   8  -1   32.89    1.41
   4  -8   1   32.55    1.15
  -2   8  -2   12.19    0.79
   2  -8   2   11.01    0.57
   0   8  -3   20.68    0.92
   2   8  -4    0.22    0.19
   2   8  -4    0.48    0.33
   4   8  -5   15.31    0.63
 -13   7   4   -0.29    0.38
 -11   7   3   11.87    1.14
  11  -7  -3   10.67    0.70
  -9   7   2    0.39    0.34
  -9   7   2    0.77    0.32
   9  -7  -2    0.29    0.24
  -7   7   1   28.52    1.11
  -7   7   1   26.32    1.16
   7  -7  -1   28.18    1.07
   7  -7  -1   28.19    1.18
  -5   7   0   26.33    0.98
  -5   7   0   26.30    1.25
   5  -7   0   24.25    1.05
   5  -7   0   26.19    1.01
  -3   7  -1   37.36    1.35
  -3   7  -1   35.08    0.74
   3  -7   1   36.58    1.08
  -1   7  -2   38.40    1.24
   1  -7   2   38.80    0.80
   1   7  -3  119.32    2.11
   3   7  -4   10.41    0.50
   3   7  -4   11.41    1.10
   5   7  -5    0.32    0.15
 -12   6   4    9.09    1.03
  12  -6  -4    9.69    1.27
  12  -6  -4   10.35    1.25
 -10   6   3    6.15    0.76
  10  -6  -3    6.64    0.95
  10  -6  -3    5.01    0.51
  10  -6  -3    4.78    0.76
  -8   6   2    4.56    0.57
  -8   6   2    4.15    0.62
   8  -6  -2    4.38    0.60
   8  -6  -2    5.47    0.76
   8  -6  -2    3.83    0.52
  -6   6   1   21.90    0.88
  -6   6   1   22.81    0.98
   6  -6  -1   21.01    0.83
   6  -6  -1   21.19    0.93
   6  -6  -1   22.31    0.88
  -4   6   0   19.00    0.83
  -4   6   0   16.36    0.91
  -4   6   0   16.44    0.70
   4  -6   0   16.62    0.46
   4  -6   0   17.59    0.74
   4  -6   0   18.02    0.80
  -2   6  -1   44.69    0.81
  -2   6  -1   43.62    1.31
   2  -6   1   45.31    1.04
   0   6  -2   71.08    1.50
   2   6  -3  114.88    1.81
   2   6  -3  116.03    2.35
   2   6  -3  116.35    2.72
   4   6  -4   22.73    1.32
   4   6  -4   22.70    0.61
  -4  -6   4   21.64    0.57
   6   6  -5   19.54    0.58
   8   6  -6    9.49    0.49
  13  -5  -5    0.57    0.53
  11  -5  -4   27.13    1.59
  11  -5  -4   23.97    1.52
   9  -5  -3   76.78    2.33
   9  -5  -3   82.13    1.64
   9  -5  -3   89.39    2.60
  -7   5   2    4.49    0.57
  -7   5   2    3.16    0.45
   7  -5  -2    4.43    0.55
   7  -5  -2    4.92    0.71
   7  -5  -2    4.87    0.53
  -5   5   1   72.04    1.55
  -5   5   1   72.28    1.66
   5  -5  -1   73.36    1.54
   5  -5  -1   71.53    1.64
   5  -5  -1   70.53    1.48
  -3   5   0    7.63    0.55
  -3   5   0    7.72    0.43
  -3   5   0    7.49    0.48
   3  -5   0    7.55    0.26
   3  -5   0    7.77    0.48
   3  -5   0    7.58    0.44
  -1   5  -1    7.43    0.47
   1  -5   1    6.99    0.28
   1  -5   1    7.01    0.41
   1   5  -2   23.11    0.79
   1   5  -2   23.12    0.67
   3   5  -3   26.15    1.20
   3   5  -3   23.60    1.05
   3   5  -3   23.82    0.58
   3   5  -3   24.50    0.58
  -3  -5   3   24.07    0.59
   5   5  -4   18.11    0.54
   5   5  -4   18.57    1.20
   5   5  -4   20.29    1.20
  -5  -5   4   16.66    0.48
   7   5  -5   39.67    1.03
   7   5  -5   40.45    1.98
  -7  -5   5   41.59    0.91
  12  -4  -5    5.50    0.92
 -10   4   4   29.31    1.28
  10  -4  -4   29.84    1.59
  10  -4  -4   26.62    1.45
  -8   4   3    9.05    0.64
   8  -4  -3   10.39    0.97
   8  -4  -3   10.05    0.95
   8  -4  -3   10.17    0.47
  -6   4   2    9.04    0.61
   6  -4  -2   10.71    0.74
   6  -4  -2    9.39    0.52
   6  -4  -2    9.71    0.65
  -4   4   1  178.18    2.68
  -4   4   1  176.66    2.57
   4  -4  -1  176.67    2.52
   4  -4  -1  180.46    2.68
   4  -4  -1  175.11    2.53
  -2   4   0   50.21    1.07
  -2   4   0   50.33    0.99
   2  -4   0   49.38    0.68
   2  -4   0   50.13    1.02
   0   4  -1   31.56    0.80
   0  -4   1   32.00    0.67
   2   4  -2    2.01    0.32
   2   4  -2    3.41    0.45
   2   4  -2    3.16    0.20
  -2  -4   2    2.89    0.19
   4   4  -3   24.71    1.18
   4   4  -3   25.11    1.14
   4   4  -3   24.96    0.52
   4   4  -3   24.74    0.55
  -4  -4   3   25.52    0.57
   6   4  -4   32.99    0.86
   6   4  -4   34.16    1.62
   6   4  -4   32.09    1.55
   8   4  -5   42.80    1.25
   8   4  -5   43.28    2.12
 -11   3   5   -0.23    0.25
  11  -3  -5    0.17    0.32
  11  -3  -5    0.09    0.33
  -9   3   4    6.24    0.63
   9  -3  -4    5.73    0.79
   9  -3  -4    6.06    0.79
  -7   3   3    2.85    0.38
   7  -3  -3    3.93    0.56
   7  -3  -3    4.44    0.62
   7  -3  -3    3.68    0.22
  -5   3   2   42.93    1.15
   5  -3  -2   38.87    1.19
   5  -3  -2   39.85    0.98
   5  -3  -2   39.18    1.25
  -3   3   1  189.85    2.59
   3  -3  -1  188.51    2.58
   3  -3  -1  189.75    2.48
  -1   3   0  127.62    1.71
  -1   3   0  127.92    1.60
   1   3  -1   21.21    0.66
  -1  -3   1   19.46    0.48
   3   3  -2   67.77    1.72
   3   3  -2   67.64    0.90
   3   3  -2   68.03    1.65
   5   3  -3    6.79    0.35
   5   3  -3    6.38    0.74
   5   3  -3    7.47    0.35
   5   3  -3    8.09    0.85
   7   3  -4    1.51    0.28
   7   3  -4    0.99    0.46
   9   3  -5   17.53    0.93
   9   3  -5   19.46    1.50
 -12   2   6    4.39    0.69
  12  -2  -6    7.39    1.01
 -10   2   5    3.98    0.53
  10  -2  -5    4.87    0.85
  10  -2  -5    3.52    0.64
  -8   2   4    0.35    0.20
   8  -2  -4    0.39    0.30
   8  -2  -4    0.12    0.23
  -6   2   3    6.86    0.42
   6  -2  -3    7.14    0.73
   6  -2  -3    5.13    0.56
  -4   2   2   76.55    1.35
   4  -2  -2   75.61    1.26
   4  -2  -2   76.70    1.62
   0  -2   0   56.26    0.92
   2   2  -1   33.82    0.98
   2   2  -1   32.39    0.92
   4   2  -2  118.10    2.43
   4   2  -2  123.92    2.48
   4   2  -2  118.39    1.62
   6   2  -3   82.58    2.34
   6   2  -3   83.08    2.36
   6   2  -3   81.44    1.58
   8   2  -4    5.71    0.87
   8   2  -4    6.06    0.59
  10   2  -5    1.27    0.40
 -11   1   6   26.99    1.18
  11  -1  -6   24.54    1.37
  -9   1   5    1.56    0.31
   9  -1  -5    0.61    0.37
   9  -1  -5    0.78    0.30
  -7   1   4   36.75    0.89
   7  -1  -4   36.12    1.52
   7  -1  -4   33.87    1.23
  -5   1   3   35.75    0.73
   5  -1  -3   36.14    1.06
   5  -1  -3   35.62    1.25
   3  -1  -2   85.03    1.12
   3  -1  -2   87.92    1.63
  -1  -1   0  352.81    3.67
   3   1  -1   47.62    1.22
   3   1  -1   48.64    1.24
   5   1  -2   88.25    2.16
   5   1  -2   83.57    2.08
   5   1  -2   85.27    1.52
   7   1  -3   41.94    1.71
   7   1  -3   42.61    1.26
   9   1  -4    5.82    0.67
   9   1  -4    8.21    1.09
  11   1  -5   12.84    1.01
  10   0  -6   10.70    1.27
  10   0  -6   10.19    1.00
   8   0  -5    9.99    0.70
   8   0  -5   10.12    1.08
   6   0  -4  114.49    2.65
   6   0  -4  115.68    2.12
   4   0  -3  153.21    2.22
   0   0  -1    1.56    0.14
   2   0   0    2.02    0.26
   2   0   0    2.03    0.26
  -2   0   0    2.21    0.26
   4   0  -1   67.19    1.60
   4   0  -1   70.64    1.30
   6   0  -2   56.02    1.76
   6   0  -2   57.23    1.39
   8   0  -3   13.84    0.82
   8   0  -3   14.59    1.29
  10   0  -4    9.41    1.26
  10   0  -4    8.07    0.88
  11   1  -7    0.12    0.33
   9   1  -6   -0.09    0.31
   9   1  -6    0.28    0.24
   7   1  -5   37.59    1.16
   7   1  -5   35.27    1.62
   5   1  -4  113.30    1.84
   5   1  -4  113.14    2.54
   3   1  -3  216.49    3.25
  -1  -1   2   12.60    0.29
  -1  -1   2   13.54    0.36
   1  -1   1  123.68    1.56
  -1   1  -1  123.75    1.55
   3  -1   0    2.96    0.17
   3  -1   0    3.56    0.36
  -3   1   0    3.05    0.27
   5  -1  -1    6.23    0.44
   5  -1  -1    6.18    0.62
  -5   1   1    6.66    0.28
   7  -1  -2    1.15    0.29
   7  -1  -2    1.44    0.42
  -7   1   2    1.43    0.21
   9  -1  -3    0.34    0.33
   9  -1  -3    0.26    0.24
  -9   1   3    0.06    0.17
  11  -1  -4    7.04    0.90
 -11   1   4    8.29    0.74
  10   2  -7    1.62    0.42
   8   2  -6    5.61    0.87
   8   2  -6    6.27    0.59
   6   2  -5   39.04    1.02
   6   2  -5   40.69    1.64
   4   2  -4   59.54    0.97
   4   2  -4   59.29    1.69
   2   2  -3   46.79    1.18
   2   2  -3   47.13    1.07
   0  -2   2  102.47    1.34
   2  -2   1 1000.00   10.99
  -2   2  -1  964.70   10.00
   4  -2   0   23.20    0.81
   4  -2   0   23.00    0.62
  -4   2   0   22.96    0.66
   6  -2  -1    4.32    0.54
   6  -2  -1    4.19    0.50
  -6   2   1    3.35    0.34
   8  -2  -2   15.76    0.94
   8  -2  -2   16.50    1.06
  -8   2   2   17.37    0.74
  10  -2  -3    2.46    0.53
  10  -2  -3    3.18    0.69
 -10   2   3    3.13    0.46
  12  -2  -4    1.54    0.55
 -12   2   4    0.38    0.33
   9   3  -7   21.84    0.99
   7   3  -6    7.94    0.98
   7   3  -6    9.52    0.54
   5   3  -5   11.65    0.47
   5   3  -5    9.97    0.95
   5   3  -5   11.90    0.41
   3   3  -4    6.00    0.57
   3   3  -4    5.06    0.56
  -1  -3   3   87.34    1.12
   1   3  -3   89.19    1.59
   1  -3   2   54.10    0.95
   3  -3   1  421.32    5.03
   3  -3   1  428.32    4.93
  -3   3  -1  431.90    4.93
  -3   3  -1  436.78    5.05
   5  -3   0   61.33    1.26
   5  -3   0   61.66    1.59
   5  -3   0   59.29    1.47
  -5   3   0   60.46    1.33
  -5   3   0   61.33    1.43
   7  -3  -1   67.93    1.92
   7  -3  -1   68.95    1.92
   7  -3  -1   68.34    1.17
  -7   3   1   67.45    1.57
   9  -3  -2   17.10    1.07
   9  -3  -2   18.05    1.18
  -9   3   2   18.18    0.89
  11  -3  -3    0.09    0.30
  11  -3  -3    0.90    0.45
 -11   3   3    0.06    0.25
  13  -3  -4    0.40    0.45
 -13   3   4    0.18    0.38
   8   4  -7   24.68    1.62
   8   4  -7   25.34    0.90
   6   4  -6   48.28    1.94
   6   4  -6   48.23    0.98
   4   4  -5   10.71    0.94
   4   4  -5    8.63    0.80
  -2  -4   4   23.75    0.44
   2   4  -4   21.62    0.86
   2   4  -4   22.76    0.90
   0   4  -3    4.58    0.31
   0   4  -3    3.96    0.27
   2  -4   2   20.12    0.55
   2  -4   2   19.91    0.68
  -2   4  -2   19.63    0.51
  -2   4  -2   20.41    0.60
   4  -4   1   15.70    0.61
   4  -4   1   15.75    0.70
   4  -4   1   14.59    0.63
  -4   4  -1   15.32    0.65
  -4   4  -1   14.95    0.68
   6  -4   0   32.25    0.98
   6  -4   0   32.75    1.24
   6  -4   0   30.46    1.10
  -6   4   0   31.25    1.02
  -6   4   0   31.30    1.08
   8  -4  -1   60.50    1.94
   8  -4  -1   62.80    1.94
   8  -4  -1   55.82    1.23
  -8   4   1   57.80    1.59
  10  -4  -2   18.20    1.25
  10  -4  -2   18.47    1.22
 -10   4   2   18.50    1.00
  12  -4  -3   10.37    1.42
  12  -4  -3   10.68    1.28
 -12   4   3   10.18    0.99
   7   5  -7   18.02    1.62
   7   5  -7   16.53    0.58
   5   5  -6   20.27    1.23
  -3  -5   5   28.86    0.53
   3   5  -5   25.62    1.15
   3   5  -5   28.91    1.20
   1   5  -4   36.92    0.81
   1   5  -4   37.83    1.09
   1  -5   3   32.07    0.80
  -1   5  -3   31.95    0.92
   3  -5   2   11.91    0.52
   3  -5   2   11.51    0.61
  -3   5  -2   11.46    0.66
  -3   5  -2   12.58    0.53
  -3   5  -2   12.59    0.57
   5  -5   1   31.54    0.98
   5  -5   1   31.20    1.05
  -5   5  -1   30.77    0.96
  -5   5  -1   33.40    1.13
  -5   5  -1   33.27    1.07
   7  -5   0    0.18    0.20
   7  -5   0    0.12    0.23
   7  -5   0    0.25    0.19
  -7   5   0    0.25    0.20
  -7   5   0    0.10    0.20
   9  -5  -1  105.72    2.85
   9  -5  -1  105.03    2.72
   9  -5  -1  105.31    1.97
  -9   5   1  101.86    2.37
  11  -5  -2    6.43    0.92
  11  -5  -2    7.63    1.00
 -11   5   2    7.39    0.84
  13  -5  -3    4.13    0.87
 -13   5   3    4.40    0.75
   4   6  -6   14.11    1.00
   2   6  -5   67.51    1.87
   2   6  -5   67.11    1.19
   2   6  -5   69.97    1.81
   0   6  -4  106.12    1.85
   0   6  -4  103.72    1.85
   2  -6   3   35.29    0.79
   2  -6   3   33.23    1.03
  -2   6  -3   34.69    0.62
  -2   6  -3   33.92    1.12
   4  -6   2   16.75    0.83
   4  -6   2   16.96    0.71
   4  -6   2   17.64    0.80
  -4   6  -2   17.33    0.91
  -4   6  -2   16.76    0.67
  -4   6  -2   17.95    0.77
   6  -6   1  197.13    3.14
   6  -6   1  205.58    3.40
  -6   6  -1  214.61    4.28
  -6   6  -1  204.29    3.17
  -6   6  -1  206.80    3.40
   8  -6   0    0.08    0.25
   8  -6   0    0.15    0.23
   8  -6   0    0.07    0.17
  -8   6   0    0.08    0.24
  10  -6  -1    0.10    0.33
  10  -6  -1   -0.30    0.15
  10  -6  -1   -0.14    0.27
  12  -6  -2    0.46    0.45
  12  -6  -2   -0.37    0.37
   3   7  -6    3.70    0.32
   1   7  -5   37.03    1.01
  -1   7  -4   16.54    0.78
   3  -7   3   20.47    0.76
  -3   7  -3   20.85    0.55
  -3   7  -3   21.67    1.00
   5  -7   2   38.62    1.40
   5  -7   2   37.93    1.30
   5  -7   2   37.65    1.21
  -5   7  -2   36.66    1.46
  -5   7  -2   38.30    1.14
   7  -7   1   76.18    1.85
   7  -7   1   76.19    1.97
  -7   7  -1   74.16    1.95
  -7   7  -1   76.71    1.82
   9  -7   0    0.04    0.22
  -9   7   0    0.42    0.32
  -9   7   0    0.13    0.29
  11  -7  -1    2.47    0.43
   4   8  -7   16.24    0.59
   2   8  -6    4.84    0.47
   0   8  -5    0.47    0.22
   2  -8   4    0.59    0.17
  -2   8  -4    0.47    0.25
   4  -8   3    1.08    0.27
  -4   8  -3    1.07    0.36
  -4   8  -3    0.97    0.16
   6  -8   2   91.14    2.30
   6  -8   2   86.87    2.09
  -6   8  -2   89.09    2.57
  -6   8  -2   88.09    1.98
   8  -8   1   11.33    0.85
  -8   8  -1   13.93    0.91
  10  -8   0    3.91    0.59
 -10   8   0    4.20    0.66
 -10   8   0    4.62    0.72
  12  -8  -1   22.76    1.06
 -12   8   1   25.39    1.43
   3   9  -7   29.14    1.00
   1   9  -6    8.26    0.62
  -1   9  -5    8.31    0.77
   3  -9   4   22.78    0.90
  -3   9  -4   21.43    1.14
   5  -9   3    0.99    0.31
  -5   9  -3    0.43    0.32
  -5   9  -3    0.70    0.19
   7  -9   2   31.08    1.30
   7  -9   2   30.29    1.38
  -7   9  -2   30.68    1.21
   9  -9   1    3.96    0.65
  -9   9  -1    3.31    0.61
  11  -9   0    0.12    0.31
 -11   9   0   -0.15    0.36
  13  -9  -1   18.55    1.01
   2  10  -7    6.01    0.63
   0  10  -6   29.25    1.26
   2 -10   5   55.90    1.40
  -2  10  -5   59.10    1.93
   4 -10   4   56.80    1.66
  -4  10  -4   62.15    2.14
   6 -10   3    0.83    0.33
  -6  10  -3    1.23    0.29
  -6  10  -3    1.38    0.52
   8 -10   2   -0.10    0.24
   8 -10   2    0.46    0.35
  -8  10  -2    0.13    0.28
  10 -10   1    5.40    0.80
 -10  10  -1    5.78    0.84
  12 -10   0    1.44    0.45
 -12  10   0    1.40    0.62
   1  11  -7    0.58    0.36
  -1  11  -6    4.38    0.70
   3 -11   5   22.80    1.03
  -3  11  -5   24.05    1.36
   5 -11   4   17.78    1.03
  -5  11  -4   17.90    1.29
   7 -11   3    4.34    0.66
  -7  11  -3    3.35    0.44
  -7  11  -3    2.15    0.65
   9 -11   2    6.01    0.89
  -9  11  -2    5.96    0.76
  11 -11   1    6.38    0.91
 -11  11  -1    7.13    0.98
   0  12  -7    0.11    0.34
   2 -12   6    0.49    0.30
  -2  12  -6    0.48    0.37
   4 -12   5   32.40    1.38
  -4  12  -5   31.66    1.72
   6 -12   4    4.87    0.70
  -6  12  -4    5.82    0.96
   8 -12   3    1.55    0.50
  -8  12  -3    1.31    0.36
  10 -12   2    9.57    1.16
 -10  12  -2   12.47    1.13
   3 -13   6    0.14    0.28
  -3  13  -6    0.44    0.44
   5 -13   5   -0.24    0.27
  -5  13  -5   -0.01    0.44
   7 -13   4    0.35    0.42
  -7  13  -4    0.48    0.55
   9 -13   3    6.96    0.91
  -9  13  -3    6.84    0.66
   8 -13   1    3.49    0.67
  -6  13  -2    2.15    0.70
   6 -13   2    1.97    0.58
  -4  13  -3    1.25    0.58
   4 -13   3    1.01    0.45
  -9  12   0    3.49    0.62
   7 -12   1   14.30    1.08
  -5  12  -2   13.92    1.35
   5 -12   2   13.57    1.00
  -3  12  -3    0.25    0.34
   3 -12   3   -0.09    0.28
  -1  12  -4    7.92    0.98
   1 -12   4    6.54    0.71
 -10  11   1    0.06    0.39
  10 -11  -1    0.15    0.35
  -8  11   0    3.44    0.59
   8 -11   0    3.94    0.66
  -6  11  -1   17.71    0.60
  -6  11  -1   16.12    1.28
   6 -11   1   18.32    1.11
  -4  11  -2   10.84    1.18
   4 -11   2    9.03    0.87
  -2  11  -3   -0.27    0.26
   2 -11   3    0.30    0.24
   0  11  -4    2.97    0.60
   2  11  -5    2.92    0.53
 -11  10   2    4.74    0.86
  11 -10  -2    4.01    0.71
  -9  10   1   -0.14    0.31
   9 -10  -1    0.39    0.36
  -7  10   0   12.04    0.82
   7 -10   0   13.92    0.94
  -5  10  -1   49.47    0.89
  -5  10  -1   53.28    2.08
   5 -10   1   50.15    1.66
  -3  10  -2    1.29    0.42
   3 -10   2    1.45    0.37
  -1  10  -3   12.87    0.92
   1 -10   3   13.80    0.70
   1  10  -4   28.76    1.23
   3  10  -5   10.38    0.71
  12  -9  -3    0.09    0.31
 -10   9   2    4.87    0.82
  10  -9  -2    4.38    0.67
  -8   9   1   10.46    0.98
   8  -9  -1    7.62    0.88
  -6   9   0    6.99    0.67
  -6   9   0    8.22    0.99
   6  -9   0    6.42    0.71
  -4   9  -1    1.51    0.45
   4  -9   1    1.77    0.36
  -2   9  -2    0.43    0.28
   2  -9   2    0.61    0.22
   0   9  -3    3.32    0.50
   2   9  -4   44.62    1.39
   4   9  -5    9.31    0.60
 -11   8   3   18.90    1.22
  11  -8  -3   19.37    1.03
  -9   8   2   16.52    1.09
   9  -8  -2   15.47    0.99
  -7   8   1   37.80    1.42
   7  -8  -1   40.46    1.51
   7  -8  -1   39.11    1.38
  -5   8   0    6.83    0.84
  -5   8   0    5.73    0.55
   5  -8   0    4.85    0.55
  -3   8  -1    3.20    0.52
   3  -8   1    4.01    0.47
  -1   8  -2    0.45    0.25
   1  -8   2    1.11    0.22
   1   8  -3    1.75    0.34
   3   8  -4   24.45    0.90
   5   8  -5    1.23    0.25
 -12   7   4    1.76    0.58
 -10   7   3   12.31    1.05
  10  -7  -3   12.00    0.79
  -8   7   2    8.73    0.79
  -8   7   2    7.02    0.80
   8  -7  -2    7.49    0.74
  -6   7   1   15.20    0.84
  -6   7   1   18.92    1.85
   6  -7  -1   15.95    0.88
   6  -7  -1   14.97    0.79
  -4   7   0   19.27    1.05
  -4   7   0   18.30    0.73
   4  -7   0   18.55    0.87
   4  -7   0   17.42    0.79
  -2   7  -1    2.38    0.42
   2  -7   1    2.05    0.29
   0   7  -2    3.82    0.46
   2   7  -3    0.04    0.31
   2   7  -3    0.12    0.16
   4   7  -4    0.00    0.15
   6   7  -5    1.26    0.23
 -13   6   5   14.57    1.36
  13  -6  -5   15.18    1.67
 -11   6   4   15.02    1.06
  11  -6  -4   14.20    1.37
  11  -6  -4   17.38    1.35
  -9   6   3    9.10    0.84
   9  -6  -3    9.30    0.94
   9  -6  -3    8.85    0.63
   9  -6  -3   10.14    1.13
  -7   6   2   28.38    1.12
  -7   6   2   26.44    1.16
   7  -6  -2   28.30    1.41
   7  -6  -2   28.49    1.11
   7  -6  -2   29.05    1.12
  -5   6   1    6.80    0.74
  -5   6   1    7.88    0.57
   5  -6  -1    8.30    0.54
   5  -6  -1    7.78    0.58
   5  -6  -1    8.45    0.47
  -3   6   0   68.37    1.49
  -3   6   0   66.83    1.33
  -3   6   0   67.47    1.77
   3  -6   0   66.71    1.47
   3  -6   0   66.61    1.55
  -1   6  -1   25.90    0.96
   1  -6   1   28.28    0.68
   1   6  -2   23.95    0.81
   3   6  -3    9.77    0.97
   3   6  -3   10.73    0.49
  -3  -6   3   10.96    0.48
   5   6  -4   34.67    0.86
  -5  -6   4   34.11    0.80
   7   6  -5    2.85    0.34
  -7  -6   5    2.74    0.27
  12  -5  -5    6.38    1.05
  10  -5  -4    4.05    0.77
  10  -5  -4    4.58    0.74
  -8   5   3    5.76    0.62
   8  -5  -3    5.70    0.76
   8  -5  -3    6.03    0.55
   8  -5  -3    5.72    0.72
  -6   5   2   24.06    0.92
  -6   5   2   24.38    1.00
   6  -5  -2   25.90    0.98
   6  -5  -2   25.19    1.18
   6  -5  -2   25.71    0.96
  -4   5   1   38.08    1.09
  -4   5   1   36.66    1.15
   4  -5  -1   37.47    1.04
   4  -5  -1   37.53    0.90
   4  -5  -1   39.39    1.13
  -2   5   0  125.04    2.31
  -2   5   0  125.32    1.95
  -2   5   0  123.19    1.77
   2  -5   0  123.64    1.94
   0   5  -1   48.83    1.17
   0  -5   1   49.32    1.02
   2   5  -2   28.85    1.04
   2   5  -2   29.08    0.77
  -2  -5   2   29.77    0.76
   4   5  -3   11.96    0.46
   4   5  -3   12.26    1.10
   4   5  -3   11.25    0.84
  -4  -5   3   12.26    0.45
   6   5  -4   21.07    1.33
   6   5  -4   23.52    0.75
  -6  -5   4   24.65    0.70
   8   5  -5    2.24    0.68
   8   5  -5    2.42    0.38
   8   5  -5    2.08    0.36
  11  -4  -5   21.55    1.42
  11  -4  -5   24.12    1.57
   9  -4  -4   17.23    1.13
   9  -4  -4   17.95    1.14
   7  -4  -3   97.96    1.81
   7  -4  -3   98.52    2.46
   7  -4  -3  100.55    2.37
  -5   4   2    6.23    0.44
  -5   4   2    6.67    0.49
   5  -4  -2    6.27    0.47
   5  -4  -2    6.23    0.53
   5  -4  -2    5.38    0.59
  -3   4   1   18.36    0.66
   3  -4  -1   17.66    0.54
   3  -4  -1   17.59    0.67
   3  -4  -1   18.46    0.65
  -1   4   0    8.81    0.35
  -1   4   0    8.68    0.26
  -1   4   0    8.47    0.49
   1  -4   0    8.88    0.35
   1   4  -1   11.71    0.47
  -1  -4   1   11.71    0.46
  -1  -4   1   12.20    0.30
   3   4  -2   19.33    0.91
   3   4  -2   20.62    0.54
   3   4  -2   20.52    1.01
   3   4  -2   19.75    0.55
  -3  -4   2   20.11    0.55
   5   4  -3   18.02    0.62
   5   4  -3   19.58    1.13
   5   4  -3   18.45    1.13
  -5  -4   3   19.76    0.61
   7   4  -4   29.82    1.63
   7   4  -4   26.72    0.94
  -7  -4   4   27.28    0.87
   9   4  -5    0.40    0.29
 -12   3   6    3.41    0.66
  12  -3  -6    4.39    0.81
 -10   3   5    1.13    0.37
  10  -3  -5    1.11    0.46
  10  -3  -5    1.49    0.47
  -8   3   4    1.21    0.30
   8  -3  -4    1.84    0.45
   8  -3  -4    2.23    0.49
   6  -3  -3  110.57    1.77
   6  -3  -3  113.62    2.45
   6  -3  -3  105.38    2.35
  -4   3   2   26.46    0.84
  -4   3   2   25.08    0.77
   4  -3  -2   27.63    0.80
   4  -3  -2   26.89    0.87
  -2   3   1   18.82    0.58
   0  -3   0    1.80    0.24
   2   3  -1    2.14    0.36
   2   3  -1    1.45    0.18
   2   3  -1    1.20    0.25
  -2  -3   1    1.28    0.16
   4   3  -2   43.22    0.86
   4   3  -2   41.22    1.42
   4   3  -2   44.44    0.90
   4   3  -2   43.93    1.49
   6   3  -3   32.31    0.94
   6   3  -3   33.03    1.52
   6   3  -3   30.88    1.47
   8   3  -4   16.43    0.83
   8   3  -4   16.74    1.29
  10   3  -5    0.19    0.29
 -11   2   6    0.51    0.27
  11  -2  -6    0.24    0.34
  -9   2   5    8.80    0.63
   9  -2  -5    7.77    0.86
   9  -2  -5   10.36    1.12
  -7   2   4   10.78    0.58
   7  -2  -4    8.85    0.69
   7  -2  -4   10.23    0.94
  -5   2   3  154.32    2.28
   5  -2  -3  151.08    2.76
   5  -2  -3  149.01    1.92
   5  -2  -3  152.20    2.64
  -3   2   2   14.08    0.73
   3  -2  -2   13.81    0.49
  -1   2   1  193.11    2.35
  -1  -2   0  413.15    4.23
  -1  -2   0  427.42    4.52
   3   2  -1  132.38    2.37
   3   2  -1  131.56    1.77
   3   2  -1  128.78    2.41
   5   2  -2    1.15    0.35
   5   2  -2    1.44    0.37
   5   2  -2    1.29    0.22
   7   2  -3   17.01    1.16
   7   2  -3   16.13    0.76
   9   2  -4   -0.18    0.37
   9   2  -4    0.30    0.28
 -10   1   6   11.50    0.73
  10  -1  -6   12.57    1.36
  10  -1  -6    9.27    0.95
  -8   1   5   12.32    0.60
   8  -1  -5   13.89    1.23
   8  -1  -5   11.62    0.81
  -6   1   4   43.18    0.94
   6  -1  -4   42.84    1.53
   6  -1  -4   43.03    1.29
  -4   1   3    0.70    0.13
   4  -1  -3    0.86    0.22
   4  -1  -3    0.88    0.24
   2  -1  -2    4.69    0.24
   0  -1  -1   36.90    0.73
   2   1   0  269.48    3.46
   2   1   0  263.90    3.44
  -2  -1   0  265.79    2.73
   4   1  -1   11.59    0.48
   4   1  -1   13.42    0.73
   4   1  -1   12.20    0.71
   6   1  -2   32.28    1.37
   6   1  -2   32.20    0.99
   8   1  -3    0.06    0.32
   8   1  -3    0.62    0.27
  10   1  -4    4.58    0.91
  10   1  -4    3.96    0.63
  11   0  -7    3.06    0.63
   9   0  -6   30.35    1.30
   9   0  -6   25.93    1.56
   7   0  -5   40.48    1.66
   7   0  -5   45.09    1.35
   5   0  -4    8.92    0.50
   3   0  -3    5.84    0.54
  -1   0   2  228.02    2.64
   1   0   1   19.12    0.48
   1   0   1   17.72    0.44
  -1   0  -1   18.49    0.49
  -1   0  -1   17.65    0.46
  -1   0  -1   19.31    0.46
   3   0   0    8.43    0.49
   3   0   0    7.66    0.47
  -3   0   0    8.56    0.32
   5   0  -1  106.51    2.30
   5   0  -1  100.37    1.85
   7   0  -2   28.72    1.07
   7   0  -2   27.73    1.34
   9   0  -3   15.34    1.40
   9   0  -3   12.84    0.87
  11   0  -4   16.34    1.14
  10   1  -7    3.52    0.59
   8   1  -6   28.25    1.15
   8   1  -6   30.07    1.62
   6   1  -5   13.85    0.94
   6   1  -5   12.37    0.62
   4   1  -4    8.93    0.63
   4   1  -4    8.99    0.42
  -2  -1   3   37.53    0.82
   0  -1   2    0.08    0.08
   0   1  -2    0.05    0.07
   2  -1   1    0.49    0.13
  -2   1  -1    0.69    0.17
  -2   1  -1    0.31    0.13
   4  -1   0    7.21    0.22
   4  -1   0    6.28    0.47
   6  -1  -1    5.30    0.57
   6  -1  -1    5.14    0.66
  -6   1   1    4.24    0.27
   8  -1  -2   11.34    1.06
   8  -1  -2   11.91    0.78
  -8   1   2   11.73    0.54
  10  -1  -3   63.02    2.10
  10  -1  -3   60.80    2.44
 -10   1   3   67.52    1.63
  12  -1  -4   19.93    1.36
 -12   1   4   18.58    1.05
   9   2  -7    4.38    0.84
   9   2  -7    6.12    0.68
   7   2  -6   33.83    1.66
   7   2  -6   32.92    1.06
   5   2  -5   24.27    0.71
   5   2  -5   26.82    1.25
   3   2  -4   59.91    1.41
   3   2  -4   61.79    1.58
   3   2  -4   61.14    0.97
  -1  -2   3  173.52    2.03
   1   2  -3  174.24    2.17
   1  -2   2    2.83    0.24
  -1   2  -2    2.49    0.19
  -1   2  -2    2.55    0.26
   3  -2   1   89.47    1.53
   3  -2   1   89.12    1.45
  -3   2  -1   89.38    1.56
   5  -2   0   20.91    0.85
   5  -2   0   19.81    0.56
   5  -2   0   19.04    0.85
  -5   2   0   20.16    0.66
   7  -2  -1    0.59    0.28
   7  -2  -1    0.44    0.22
  -7   2   1    0.34    0.16
   9  -2  -2    7.47    0.81
   9  -2  -2    6.03    0.83
  -9   2   2    5.88    0.57
  11  -2  -3    2.53    0.68
  11  -2  -3    1.57    0.52
 -11   2   3    1.74    0.42
   8   3  -7    9.58    1.22
   8   3  -7    9.04    0.62
   6   3  -6    0.31    0.14
   6   3  -6    0.94    0.43
   4   3  -5    4.23    0.24
   4   3  -5    3.67    0.51
   4   3  -5    4.56    0.24
   4   3  -5    3.42    0.55
  -2  -3   4   48.71    0.76
   2   3  -4   47.27    0.72
   2   3  -4   47.13    1.29
   0  -3   3  112.44    1.61
   2  -3   2    1.04    0.20
  -2   3  -2    1.05    0.17
  -2   3  -2    0.91    0.19
   4  -3   1   44.50    1.13
   4  -3   1   43.87    1.05
  -4   3  -1   44.35    1.04
  -4   3  -1   44.54    1.13
  -4   3  -1   44.62    1.16
   6  -3   0    7.36    0.59
   6  -3   0    7.14    0.68
   6  -3   0    7.55    0.42
  -6   3   0    7.39    0.48
  -6   3   0    7.05    0.52
   8  -3  -1    6.01    0.72
   8  -3  -1    6.32    0.79
  -8   3   1    6.29    0.60
  10  -3  -2    0.17    0.30
  10  -3  -2   -0.10    0.28
 -10   3   2   -0.30    0.19
  12  -3  -3    0.06    0.35
 -12   3   3   -0.16    0.27
   9   4  -8    0.84    0.31
   7   4  -7   10.95    1.19
   7   4  -7   12.60    0.58
   5   4  -6    0.12    0.09
   5   4  -6   -0.09    0.23
  -3  -4   5   12.82    0.36
   3   4  -5   12.97    0.31
   3   4  -5   13.04    0.73
   3   4  -5   13.05    0.33
   3   4  -5   12.41    0.78
  -1  -4   4   81.52    1.26
   1   4  -4   79.59    1.24
   1   4  -4   80.14    1.64
   1  -4   3    5.83    0.32
  -1   4  -3    5.79    0.38
   3  -4   2    2.91    0.44
   3  -4   2    3.05    0.37
   3  -4   2    3.36    0.32
  -3   4  -2    3.55    0.33
  -3   4  -2    3.48    0.38
   5  -4   1   10.54    0.57
  -5   4  -1   11.07    0.57
  -5   4  -1   10.98    0.60
   7  -4   0   28.31    0.91
   7  -4   0   28.54    1.18
   7  -4   0   27.31    1.22
  -7   4   0   25.51    0.99
  -7   4   0   27.16    1.10
   9  -4  -1    5.58    0.74
   9  -4  -1    5.08    0.25
   9  -4  -1    4.77    0.74
  -9   4   1    4.15    0.53
  11  -4  -2    8.38    1.07
  11  -4  -2   10.91    1.24
 -11   4   2    7.11    0.79
  13  -4  -3    0.30    0.48
 -13   4   3    0.41    0.39
   8   5  -8    2.62    0.35
   6   5  -7   10.90    1.19
   6   5  -7   10.39    0.42
  -4  -5   6   20.27    0.47
   4   5  -6   19.59    0.45
   4   5  -6   21.17    1.10
   4   5  -6   18.22    1.09
   4   5  -6   19.58    0.48
   2   5  -5    7.51    0.69
   2   5  -5    5.99    0.30
   2   5  -5    6.18    0.60
   2   5  -5    5.63    0.29
   0   5  -4    5.97    0.40
   0   5  -4    6.19    0.38
   2  -5   3    3.11    0.35
   2  -5   3    3.85    0.26
  -2   5  -3    4.98    0.52
  -2   5  -3    3.31    0.12
   4  -5   2  126.55    2.37
   4  -5   2  126.41    2.12
   4  -5   2  124.46    2.23
  -4   5  -2  125.53    2.15
  -4   5  -2  124.48    2.26
   6  -5   1   55.22    1.47
   6  -5   1   57.38    1.78
   6  -5   1   56.52    1.35
  -6   5  -1   57.81    1.56
   8  -5   0   36.31    1.56
   8  -5   0   37.56    1.45
   8  -5   0   37.65    1.17
  -8   5   0   35.51    1.28
  -8   5   0   35.98    1.37
  10  -5  -1   10.28    0.46
  10  -5  -1   10.88    1.15
  10  -5  -1   12.72    1.23
 -10   5   1    9.99    0.89
  12  -5  -2   12.71    1.42
  12  -5  -2   13.53    1.47
 -12   5   2   12.15    1.12
   5   6  -7   52.84    3.01
   3   6  -6   36.64    1.46
   3   6  -6   34.28    0.78
   1   6  -5    3.93    0.47
   1   6  -5    3.78    0.36
  -1   6  -4   30.11    0.99
  -1   6  -4   30.47    0.80
   3  -6   3   39.80    1.02
   3  -6   3   39.76    1.22
  -3   6  -3   38.92    0.96
  -3   6  -3   41.76    0.85
  -3   6  -3   40.68    1.32
   5  -6   2   14.60    0.71
   5  -6   2   13.20    0.74
   5  -6   2   12.95    0.76
  -5   6  -2   14.79    0.71
  -5   6  -2   13.15    0.85
  -5   6  -2   12.56    0.84
   7  -6   1   14.48    1.00
   7  -6   1   14.99    0.81
  -7   6  -1   15.39    0.86
   9  -6   0    2.93    0.63
   9  -6   0    2.53    0.41
  -9   6   0    2.29    0.69
  11  -6  -1    0.01    0.35
  11  -6  -1    0.08    0.17
 -11   6   1    0.18    0.29
  13  -6  -2   10.03    1.36
 -13   6   2   11.72    1.17
   4   7  -7   26.53    0.71
   2   7  -6   24.25    0.79
   0   7  -5   13.20    0.67
   2  -7   4   77.93    1.35
  -2   7  -4   74.68    1.86
   4  -7   3   20.62    1.00
   4  -7   3   21.21    0.84
  -4   7  -3   21.69    0.72
  -4   7  -3   22.08    1.09
   6  -7   2    1.23    0.31
   6  -7   2    0.72    0.27
  -6   7  -2    1.18    0.41
  -6   7  -2    1.08    0.30
   8  -7   1    0.35    0.25
  -8   7  -1   -0.14    0.24
  -8   7  -1    0.51    0.32
  10  -7   0    4.13    0.57
  12  -7  -1    0.32    0.21
   3   8  -7    3.20    0.38
   1   8  -6    0.66    0.23
  -1   8  -5   13.65    0.79
   3  -8   4   33.03    1.01
  -3   8  -4   33.16    1.34
   5  -8   3   90.72    2.06
  -5   8  -3   89.38    2.49
  -5   8  -3   92.18    1.78
   7  -8   2    2.74    0.51
   7  -8   2    2.45    0.45
  -7   8  -2    2.03    0.42
   9  -8   1   12.49    0.89
  -9   8  -1   12.63    1.09
  11  -8   0    2.54    0.49
 -11   8   0    2.23    0.89
 -11   8   0    4.24    0.74
 -13   8   1    0.85    0.51
   4   9  -8   -0.06    0.19
   2   9  -7    7.51    0.65
   0   9  -6    3.53    0.52
   2  -9   5   17.05    0.68
  -2   9  -5   16.56    0.97
   4  -9   4  114.49    2.33
  -4   9  -4  113.63    2.85
   6  -9   3    5.91    0.65
  -6   9  -3    5.88    0.57
  -6   9  -3    4.20    0.72
   8  -9   2   12.91    0.95
   8  -9   2   12.57    0.85
  -8   9  -2   13.81    0.92
  10  -9   1   13.87    1.01
 -10   9  -1   15.89    1.14
  12  -9   0    8.41    0.87
 -12   9   0   10.77    1.24
   3  10  -8    4.12    0.51
   1  10  -7   28.92    1.23
  -1  10  -6   12.13    0.88
   3 -10   5    2.05    0.38
  -3  10  -5    1.76    0.49
   5 -10   4    0.53    0.29
  -5  10  -4    0.77    0.42
   7 -10   3   -0.06    0.25
  -7  10  -3   -0.17    0.38
  -7  10  -3    0.21    0.24
   9 -10   2    7.05    0.92
  -9  10  -2    6.61    0.82
  11 -10   1   12.52    1.15
 -11  10  -1   14.74    1.34
   0  11  -7   25.42    1.29
   2 -11   6    9.10    0.62
  -2  11  -6    9.83    1.06
   4 -11   5   12.76    0.84
  -4  11  -5   14.42    1.14
   6 -11   4    6.25    0.75
  -6  11  -4    4.83    0.85
   8 -11   3    4.28    0.66
  -8  11  -3    3.99    0.58
  10 -11   2    0.84    0.47
 -10  11  -2   -0.22    0.34
  12 -11   1   12.83    1.28
 -12  11  -1    9.89    1.18
  -1  12  -7   10.73    1.11
   3 -12   6    3.56    0.55
  -3  12  -6    2.69    0.67
   5 -12   5    7.68    0.84
  -5  12  -5    8.80    1.10
   7 -12   4   14.18    1.06
  -7  12  -4   15.15    1.54
   9 -12   3    6.21    0.83
  -9  12  -3    8.14    0.83
  11 -12   2    0.04    0.44
 -11  12  -2    0.37    0.48
   4 -13   6    0.09    0.30
  -4  13  -6    0.32    0.45
   6 -13   5    5.85    0.82
  -6  13  -5    6.41    1.07
   8 -13   4    6.08    0.85
 -10  13  -3    9.88    0.91
   7 -13   1    7.80    0.99
  -5  13  -2   13.04    1.43
   5 -13   2   12.13    1.13
  -3  13  -3    2.06    0.61
   3 -13   3    1.14    0.46
 -10  12   1    8.86    1.02
  10 -12  -1    8.58    1.14
  -8  12   0    7.75    0.74
   8 -12   0    7.59    0.94
  -6  12  -1   -0.11    0.42
   6 -12   1    0.15    0.34
  -4  12  -2   -0.36    0.29
   4 -12   2   -0.10    0.27
  -2  12  -3    2.21    0.58
   2 -12   3    1.37    0.41
   0  12  -4    3.82    0.67
 -11  11   2    3.71    0.83
  11 -11  -2    3.68    0.77
  -9  11   1   22.74    1.28
   9 -11  -1   24.61    1.47
  -7  11   0    8.08    0.74
   7 -11   0    5.15    0.70
  -5  11  -1    0.81    0.49
   5 -11   1    0.71    0.36
  -3  11  -2   12.24    1.21
   3 -11   2    9.09    0.84
  -1  11  -3    9.63    1.00
   1 -11   3   11.23    0.73
   1  11  -4    2.08    0.49
 -12  10   3    2.07    0.69
  12 -10  -3    3.21    0.67
 -10  10   2   16.35    1.40
  10 -10  -2   13.20    1.23
  -8  10   1   11.58    1.02
   8 -10  -1   14.09    1.24
   8 -10  -1   10.87    1.09
  -6  10   0   36.43    1.77
  -6  10   0   35.60    1.18
   6 -10   0   35.94    1.47
  -4  10  -1    3.04    0.64
   4 -10   1    2.70    0.49
  -2  10  -2   64.80    2.08
   2 -10   2   62.12    1.69
   0  10  -3    4.73    0.64
   2  10  -4    0.43    0.31
 -11   9   3    0.55    0.52
  11  -9  -3   -0.01    0.29
  -9   9   2    4.97    0.75
   9  -9  -2    5.16    0.74
  -7   9   1   16.31    0.96
   7  -9  -1   18.32    1.10
   7  -9  -1   16.62    0.97
  -5   9   0   -0.07    0.18
  -5   9   0    0.72    0.42
   5  -9   0    0.18    0.24
  -3   9  -1   39.51    1.59
   3  -9   1   39.58    1.32
  -1   9  -2   46.04    1.61
   1  -9   2   44.26    1.19
   1   9  -3   10.24    0.75
   3   9  -4    6.69    0.63
 -12   8   4   18.26    1.28
  12  -8  -4   18.74    0.89
 -10   8   3    3.63    0.66
 -10   8   3    2.84    0.60
  10  -8  -3    2.73    0.51
  -8   8   2    0.24    0.30
   8  -8  -2    0.61    0.30
  -6   8   1    4.19    0.57
  -6   8   1    4.74    0.75
   6  -8  -1    3.99    0.58
   6  -8  -1    3.89    0.51
  -4   8   0   -0.13    0.24
  -4   8   0    0.01    0.14
   4  -8   0    0.22    0.17
  -2   8  -1   26.06    1.18
   2  -8   1   24.69    0.91
   0   8  -2   58.02    1.64
   2   8  -3    3.35    0.68
   2   8  -3    3.79    0.49
   4   8  -4   11.49    0.64
   6   8  -5   21.17    0.77
 -11   7   4   24.29    1.33
  11  -7  -4   21.08    0.91
  -9   7   3   14.25    1.00
  -9   7   3   14.40    0.95
   9  -7  -3   13.42    0.84
  -7   7   2   14.78    0.85
  -7   7   2   14.54    0.93
   7  -7  -2   14.19    0.86
  -5   7   1   23.45    1.23
  -5   7   1   21.31    0.91
   5  -7  -1   23.21    0.95
   5  -7  -1   23.58    1.05
  -3   7   0   36.48    0.87
  -3   7   0   36.07    1.38
   3  -7   0   38.34    1.16
  -1   7  -1    0.71    0.26
   1  -7   1    0.81    0.17
   1   7  -2    3.87    0.46
   3   7  -3    2.46    0.35
   3   7  -3    2.78    0.57
   5   7  -4   50.14    1.21
   7   7  -5   14.15    0.62
 -12   6   5   15.81    1.38
  12  -6  -5   16.79    1.54
  12  -6  -5   16.21    1.62
 -10   6   4    3.35    0.56
  10  -6  -4    4.71    0.49
  10  -6  -4    2.95    0.68
  10  -6  -4    4.83    0.76
  -8   6   3   21.71    1.03
  -8   6   3   19.20    1.07
   8  -6  -3   20.36    0.94
   8  -6  -3   19.90    1.25
   8  -6  -3   19.26    1.05
  -6   6   2   88.36    1.91
  -6   6   2   87.94    2.06
   6  -6  -2   87.28    1.86
   6  -6  -2   86.79    2.04
   6  -6  -2   90.40    1.89
  -4   6   1   32.63    1.28
  -4   6   1   33.06    1.03
   4  -6  -1   31.40    0.77
   4  -6  -1   30.15    1.02
   4  -6  -1   32.85    1.11
  -2   6   0   41.08    0.77
  -2   6   0   42.72    0.96
  -2   6   0   41.17    0.74
  -2   6   0   40.95    0.74
  -2   6   0   41.70    1.33
   2  -6   0   43.62    1.09
   0   6  -1   13.40    0.68
   2   6  -2   25.80    0.85
  -2  -6   2   26.06    0.83
   4   6  -3    2.37    0.58
   4   6  -3    1.68    0.27
  -4  -6   3    1.92    0.28
   6   6  -4   22.35    0.78
  -6  -6   4   21.13    0.69
   8   6  -5    1.14    0.29
 -11   5   5    4.07    0.67
  11  -5  -5    5.31    0.89
  11  -5  -5    4.56    0.83
  -9   5   4    0.14    0.22
   9  -5  -4   -0.19    0.13
   9  -5  -4   -0.11    0.30
   9  -5  -4   -0.15    0.22
  -7   5   3   19.16    0.97
  -7   5   3   19.18    0.90
   7  -5  -3   18.51    0.83
   7  -5  -3   20.58    1.00
   7  -5  -3   18.49    1.10
  -5   5   2  114.88    2.08
  -5   5   2  111.08    2.19
   5  -5  -2  113.23    2.04
   5  -5  -2  108.10    2.16
   5  -5  -2  107.56    2.03
  -3   5   1   14.51    0.62
  -3   5   1   15.06    0.68
  -3   5   1   15.53    0.82
   3  -5  -1   16.24    0.70
   3  -5  -1   15.61    0.64
  -1   5   0   67.43    0.93
  -1   5   0   64.95    0.91
  -1   5   0   65.21    1.55
   1  -5   0   66.47    1.19
   1   5  -1   56.96    1.27
  -1  -5   1   55.76    1.22
   3   5  -2  141.16    3.08
   3   5  -2  142.31    2.13
  -3  -5   2  141.91    2.11
   5   5  -3    6.25    0.42
   5   5  -3    6.68    0.90
   5   5  -3    6.41    0.79
  -5  -5   3    5.77    0.37
   7   5  -4   -0.21    0.37
   7   5  -4   -0.06    0.18
  -7  -5   4    0.09    0.15
  12  -4  -6    3.76    0.81
  10  -4  -5    7.00    0.95
  10  -4  -5    6.89    0.90
   8  -4  -4   21.81    1.20
   8  -4  -4   21.18    1.16
   8  -4  -4   20.64    0.65
  -6   4   3    7.13    0.64
  -6   4   3    7.11    0.61
   6  -4  -3    7.95    0.61
   6  -4  -3    8.33    0.84
   6  -4  -3    6.79    0.47
  -4   4   2   18.18    0.68
  -4   4   2   18.22    0.74
   4  -4  -2   18.44    0.73
   4  -4  -2   19.35    0.69
   4  -4  -2   16.69    0.67
  -2   4   1   12.53    0.50
   2  -4  -1   11.72    0.49
   0   4   0    4.14    0.39
   0  -4   0    4.49    0.40
   2   4  -1   77.39    1.39
  -2  -4   1   79.12    1.38
   4   4  -2   92.94    1.59
   4   4  -2   97.37    2.49
   4   4  -2   94.29    2.32
  -4  -4   2   95.66    1.58
   6   4  -3   19.30    1.21
   6   4  -3   19.92    1.27
   6   4  -3   19.36    0.76
  -6  -4   3   19.19    0.71
   8   4  -4   12.29    0.73
   8   4  -4    9.86    1.22
  -8  -4   4   10.28    0.62
  11  -3  -6    7.39    1.01
  11  -3  -6    7.38    1.09
  -9   3   5   81.41    2.03
   9  -3  -5   79.87    2.39
   9  -3  -5   82.40    2.59
   7  -3  -4   81.82    2.18
   7  -3  -4   77.66    1.14
   7  -3  -4   81.09    2.22
  -5   3   3    0.20    0.14
  -5   3   3    0.26    0.16
   5  -3  -3    0.12    0.12
   5  -3  -3    0.29    0.20
   5  -3  -3    0.09    0.19
  -3   3   2   40.98    1.02
  -3   3   2   40.20    0.94
   3  -3  -2   40.36    1.00
  -1   3   1    0.06    0.08
   1   3   0    3.93    0.30
  -1  -3   0    4.44    0.29
   3   3  -1  166.15    3.00
   3   3  -1  165.04    2.89
   3   3  -1  164.19    2.26
   3   3  -1  162.84    2.25
  -3  -3   1  164.18    2.23
   5   3  -2   43.32    1.64
   5   3  -2   43.51    1.09
   5   3  -2   43.44    1.60
   7   3  -3    8.53    0.59
   7   3  -3    9.26    1.05
   7   3  -3    8.89    1.06
   9   3  -4   34.09    1.96
   9   3  -4   36.30    1.40
 -12   2   7    0.10    0.33
  12  -2  -7   -0.11    0.35
 -10   2   6    5.64    0.66
  10  -2  -6    5.85    0.97
  10  -2  -6    6.60    0.90
  -8   2   5   79.59    1.78
   8  -2  -5   78.52    2.40
   8  -2  -5   77.58    2.19
  -6   2   4   42.15    1.09
   6  -2  -4   44.45    1.52
   6  -2  -4   41.17    1.35
   4  -2  -3   32.54    1.05
   4  -2  -3   32.86    0.80
   4  -2  -3   32.41    1.04
  -2   2   2  437.79    4.99
   2  -2  -2  434.97    4.87
   0   2   1   24.83    0.53
   0   2   1   25.97    0.59
   0  -2  -1   24.42    0.68
   2   2   0   16.56    0.71
  -2  -2   0   15.83    0.41
  -2  -2   0   16.01    0.51
   4   2  -1   18.67    0.65
   4   2  -1   17.73    0.90
   4   2  -1   18.86    0.91
   6   2  -2    3.98    0.44
   6   2  -2    2.82    0.58
   6   2  -2    2.99    0.56
   8   2  -3   12.37    0.77
   8   2  -3   11.94    1.20
  10   2  -4   42.21    1.64
 -11   1   7    4.96    0.65
  11  -1  -7    4.88    0.78
  -9   1   6    7.66    0.65
   9  -1  -6    6.10    0.95
   9  -1  -6    6.51    0.76
  -7   1   5   64.92    1.36
   7  -1  -5   64.26    2.09
   7  -1  -5   65.57    1.76
  -5   1   4    5.41    0.31
   5  -1  -4    4.44    0.49
   5  -1  -4    6.04    0.66
   3  -1  -3  123.75    1.63
   1  -1  -2   30.42    0.75
   1   1   1  320.63    3.47
   1   1   1  322.68    3.41
  -1  -1  -1  317.62    3.68
  -1  -1  -1  326.98    3.58
   3   1   0   25.41    0.74
   3   1   0   26.33    0.92
   5   1  -1   12.53    0.80
   5   1  -1   11.57    0.77
   5   1  -1   11.79    0.58
   7   1  -2   23.53    0.97
   7   1  -2   23.11    1.28
   9   1  -3    3.43    0.78
   9   1  -3    3.23    0.54
  11   1  -4   14.82    1.09
  10   0  -7   17.21    1.09
   8   0  -6    2.10    0.41
   8   0  -6    1.14    0.44
   6   0  -5    8.95    0.59
   6   0  -5   10.36    0.97
   4   0  -4    4.85    0.52
   4   0  -4    4.50    0.35
  -2   0   3    1.21    0.19
   2   0  -3    1.27    0.11
   0   0  -2  812.28    9.11
   2   0   1  152.00    1.90
   2   0   1  150.55    2.18
   2   0   1  153.04    1.81
  -2   0  -1  150.79    2.10
  -2   0  -1  149.08    2.00
  -2   0  -1  144.90    2.16
   4   0   0  136.07    2.49
   4   0   0  133.00    2.46
   4   0   0  131.61    2.17
   6   0  -1   41.80    1.25
   6   0  -1   42.98    1.54
   8   0  -2   42.61    1.46
   8   0  -2   42.18    1.81
  10   0  -3    0.40    0.36
  10   0  -3    0.55    0.45
  12   0  -4    0.97    0.46
   9   1  -7   33.68    1.36
   9   1  -7   33.99    1.87
   7   1  -6    1.40    0.45
   7   1  -6    2.01    0.37
   5   1  -5   46.03    1.61
   5   1  -5   49.41    1.18
   3   1  -4   31.68    0.78
  -1  -1   3   85.31    1.09
  -1  -1   3   84.24    1.29
   1  -1   2   43.50    0.85
  -1   1  -2   43.97    0.85
  -1   1  -2   42.80    0.72
  -1   1  -2   44.53    0.92
   3  -1   1   12.46    0.46
   3  -1   1   12.88    0.43
  -3   1  -1   12.94    0.52
   5  -1   0   54.67    1.54
   5  -1   0   55.10    1.41
  -5   1   0   57.43    1.03
   7  -1  -1   69.36    2.09
   7  -1  -1   67.42    1.79
  -7   1   1   65.95    1.28
   9  -1  -2   31.01    1.63
   9  -1  -2   34.05    1.43
  -9   1   2   33.60    1.05
  11  -1  -3    5.37    0.81
 -11   1   3    4.77    0.59
  10   2  -8   23.91    1.22
   8   2  -7   23.71    1.54
   8   2  -7   22.75    0.99
   6   2  -6   25.48    1.34
   6   2  -6   26.97    0.89
   4   2  -5   72.90    1.32
   4   2  -5   73.72    1.97
  -2  -2   4  117.12    1.61
   2   2  -4  117.55    1.64
   2   2  -4  115.20    1.81
   0  -2   3    0.64    0.14
   2  -2   2    3.52    0.33
  -2   2  -2    4.26    0.35
  -2   2  -2    3.59    0.34
   4  -2   1    0.42    0.15
   4  -2   1    0.43    0.14
  -4   2  -1    0.38    0.14
   6  -2   0    9.18    0.64
   6  -2   0    9.18    0.33
   6  -2   0    9.82    0.33
   6  -2   0   10.04    0.70
  -6   2   0    8.33    0.46
   8  -2  -1   30.28    1.44
   8  -2  -1   32.84    1.36
  -8   2   1   31.54    1.02
  10  -2  -2    9.13    0.96
  10  -2  -2    9.12    1.06
 -10   2   2    9.26    0.67
  12  -2  -3   21.08    1.45
 -12   2   3   22.07    1.19
   9   3  -8    4.61    0.59
   7   3  -7    0.42    0.22
   7   3  -7    0.43    0.37
   5   3  -6   31.74    0.84
   5   3  -6   30.52    1.42
  -3  -3   5   54.40    0.97
   3   3  -5   53.41    1.58
   3   3  -5   55.29    0.98
  -1  -3   4  129.69    1.75
   1   3  -4  127.00    1.84
   1   3  -4  124.64    1.81
   1  -3   3  178.29    2.30
  -1   3  -3  180.15    1.93
  -1   3  -3  171.26    2.40
   3  -3   2  197.49    2.78
   3  -3   2  203.81    2.90
  -3   3  -2  202.59    2.87
  -3   3  -2  204.35    2.81
   5  -3   1    9.13    0.48
   5  -3   1    9.79    0.65
  -5   3  -1    9.10    0.51
  -5   3  -1    8.94    0.55
   7  -3   0   -0.20    0.17
   7  -3   0    0.19    0.21
   7  -3   0    0.12    0.11
  -7   3   0   -0.13    0.12
   9  -3  -1    5.42    0.76
   9  -3  -1    4.54    0.72
  -9   3   1    5.24    0.58
  11  -3  -2    1.19    0.54
  11  -3  -2    1.21    0.49
 -11   3   2    0.84    0.34
  13  -3  -3    8.51    1.18
 -13   3   3   10.52    1.08
   8   4  -8   13.39    0.73
   6   4  -7    0.87    0.21
   6   4  -7    0.59    0.39
  -4  -4   6   15.45    0.50
   4   4  -6   15.33    0.49
   4   4  -6   16.04    0.99
   4   4  -6   16.06    0.89
  -2  -4   5   57.62    1.01
   2   4  -5   56.50    1.05
   2   4  -5   57.78    1.56
   0   4  -4   52.48    1.14
   2  -4   3  148.05    2.30
   2  -4   3  153.09    2.04
  -2   4  -3  150.26    2.10
  -2   4  -3  150.08    1.96
   4  -4   2  138.37    2.20
   4  -4   2  140.16    2.33
   4  -4   2  143.49    2.47
  -4   4  -2  142.27    2.42
  -4   4  -2  137.43    2.29
   6  -4   1    3.96    0.42
   6  -4   1    4.13    0.59
  -6   4  -1    3.64    0.42
  -6   4  -1    3.84    0.48
   8  -4   0   -0.25    0.20
   8  -4   0    0.12    0.14
   8  -4   0    0.30    0.26
  -8   4   0   -0.04    0.17
  10  -4  -1   33.12    1.65
  10  -4  -1   33.85    1.69
 -10   4   1   33.65    1.35
  12  -4  -2    0.45    0.39
  12  -4  -2   -0.37    0.33
 -12   4   2    0.13    0.31
   7   5  -8   14.02    1.40
   7   5  -8   13.14    0.60
   5   5  -7    7.67    0.95
   5   5  -7    9.65    0.42
  -3  -5   6    1.85    0.22
   3   5  -6    2.05    0.44
   3   5  -6    1.83    0.23
   3   5  -6    1.50    0.35
   1   5  -5    9.32    0.59
   1   5  -5    9.15    0.46
   1  -5   4    5.11    0.34
  -1   5  -4    5.06    0.48
   3  -5   3   85.18    1.55
  -3   5  -3   83.02    1.59
  -3   5  -3   86.12    1.96
  -3   5  -3   83.45    1.47
   5  -5   2  183.89    2.86
   5  -5   2  187.49    3.03
   5  -5   2  180.04    3.12
  -5   5  -2  187.05    3.01
  -5   5  -2  190.23    3.13
   7  -5   1    5.88    0.55
   7  -5   1    5.99    0.77
  -7   5  -1    5.80    0.65
  -7   5  -1    4.86    0.53
   9  -5   0   70.89    2.34
   9  -5   0   69.75    1.59
  -9   5   0   70.13    1.92
  11  -5  -1   11.67    1.27
 -11   5   1    9.37    0.91
  13  -5  -2    1.85    0.70
 -13   5   2    2.74    0.62
   6   6  -8    5.92    0.35
   4   6  -7    9.60    0.42
   4   6  -7    8.87    0.94
   2   6  -6   17.95    1.00
   2   6  -6   17.59    0.65
   2   6  -6   17.62    0.95
   0   6  -5   41.82    1.17
   0   6  -5   42.83    1.16
   2  -6   4    5.72    0.33
   2  -6   4    6.87    0.48
  -2   6  -4    4.74    0.53
   4  -6   3    4.19    0.48
   4  -6   3    3.96    0.50
   4  -6   3    4.94    0.46
  -4   6  -3    4.57    0.43
  -4   6  -3    5.74    0.55
  -4   6  -3    4.63    0.61
   6  -6   2    5.93    0.60
   6  -6   2    6.29    0.59
  -6   6  -2    5.91    0.57
  -6   6  -2    6.59    0.81
  -6   6  -2    5.21    0.57
   8  -6   1    5.08    0.57
   8  -6   1    4.11    0.72
  -8   6  -1    4.53    0.62
  10  -6   0   55.56    1.50
  10  -6   0   55.43    2.23
 -10   6   0   50.61    1.77
  12  -6  -1   15.83    1.56
 -12   6   1   17.99    1.19
   5   7  -8   17.49    0.55
   3   7  -7   12.86    0.59
   1   7  -6   32.31    1.03
  -1   7  -5   59.61    1.59
   3  -7   4    5.01    0.44
  -3   7  -4    5.82    0.67
   5  -7   3   -0.13    0.13
   5  -7   3    0.23    0.22
   5  -7   3   -0.01    0.21
  -5   7  -3    0.21    0.25
  -5   7  -3   -0.15    0.13
   7  -7   2   30.74    1.26
   7  -7   2   29.52    1.13
  -7   7  -2   30.62    1.25
   9  -7   1    2.01    0.43
  -9   7  -1    3.04    0.57
  11  -7   0   29.57    1.18
   4   8  -8    3.50    0.37
   2   8  -7    0.98    0.28
   0   8  -6   67.99    1.75
   2  -8   5   13.98    0.57
  -2   8  -5   14.16    0.87
   4  -8   4    5.87    0.55
  -4   8  -4    5.14    0.69
  -4   8  -4    6.12    0.25
   6  -8   3    1.35    0.34
   6  -8   3    0.98    0.35
  -6   8  -3    0.41    0.34
  -6   8  -3    1.14    0.30
   8  -8   2  118.42    2.75
   8  -8   2  115.99    2.52
  -8   8  -2  116.46    2.70
  10  -8   1    0.64    0.33
 -10   8  -1    0.26    0.31
 -10   8  -1   -0.23    0.28
  12  -8   0    5.62    0.67
 -12   8   0    3.96    0.74
   3   9  -8    1.01    0.30
   1   9  -7    8.56    0.66
  -1   9  -6   15.77    0.94
   3  -9   5   30.57    1.03
  -3   9  -5   29.58    1.38
   5  -9   4    1.45    0.34
  -5   9  -4    1.26    0.22
  -5   9  -4    1.49    0.45
   7  -9   3   30.18    1.28
   7  -9   3   29.95    1.40
  -7   9  -3   30.52    1.20
  -7   9  -3   32.83    1.68
   9  -9   2   27.22    1.35
  -9   9  -2   26.87    1.35
  11  -9   1   -0.07    0.30
 -11   9  -1    0.11    0.37
  13  -9   0    5.14    0.66
   2  10  -8   13.02    0.84
   0  10  -7    0.77    0.35
   2 -10   6    9.87    0.59
  -2  10  -6    9.14    0.93
   4 -10   5    3.33    0.47
  -4  10  -5    2.43    0.56
   6 -10   4    1.73    0.41
  -6  10  -4    2.17    0.31
  -6  10  -4    2.89    0.69
   8 -10   3   13.48    0.96
   8 -10   3   18.68    1.19
  -8  10  -3   16.33    0.96
  10 -10   2    9.01    1.02
 -10  10  -2    7.79    0.91
  12 -10   1    1.87    0.52
 -12  10  -1    2.17    0.65
   1  11  -8   10.98    0.88
  -1  11  -7    7.36    0.91
   3 -11   6   -0.17    0.18
  -3  11  -6    0.18    0.32
   5 -11   5    6.01    0.71
  -5  11  -5    5.28    0.85
   7 -11   4    0.53    0.31
  -7  11  -4    1.11    0.29
  -7  11  -4    0.24    0.46
   9 -11   3   19.15    1.17
   9 -11   3   16.11    1.19
  -9  11  -3   17.13    1.07
  11 -11   2    0.53    0.41
 -11  11  -2   -0.17    0.36
   2 -12   7   18.18    0.94
  -2  12  -7   18.50    1.29
   4 -12   6   16.41    1.00
  -4  12  -6   16.71    1.31
   6 -12   5    5.90    0.77
  -6  12  -5    6.35    1.03
   8 -12   4    2.21    0.56
  -8  12  -4    1.79    0.37
  10 -12   3    0.01    0.42
 -10  12  -3   -0.16    0.35
   3 -13   7    5.80    0.72
  -3  13  -7    5.73    0.92
   5 -13   6   17.88    1.17
  -5  13  -6   16.37    1.57
   7 -13   5   10.20    1.06
  -7  13  -5   12.24    1.52
   9 -13   4    7.83    0.96
  -9  13  -4    9.06    0.66
   8 -13   0    8.71    1.10
  -6  13  -1    2.81    0.82
   6 -13   1    2.54    0.64
  -4  13  -2    0.36    0.46
   4 -13   2    1.55    0.51
  -9  12   1    1.15    0.47
   9 -12  -1    0.87    0.59
  -7  12   0    1.52    0.31
   7 -12   0    0.69    0.40
  -5  12  -1    0.43    0.45
   5 -12   1    0.57    0.40
  -3  12  -2    4.82    0.83
   3 -12   2    4.14    0.65
  -1  12  -3   28.97    1.58
   1 -12   3   32.67    1.36
 -10  11   2    4.77    0.81
  10 -11  -2    5.91    0.92
  -8  11   1    0.44    0.33
   8 -11  -1    0.27    0.32
  -6  11   0    7.00    0.46
  -6  11   0    9.97    1.24
   6 -11   0    8.39    0.88
  -4  11  -1    7.42    1.02
   4 -11   1    8.16    0.85
  -2  11  -2    7.31    0.92
   2 -11   2    7.16    0.74
   0  11  -3    8.12    0.89
   2  11  -4    4.72    0.68
 -11  10   3   21.93    1.49
  11 -10  -3   24.25    1.36
  -9  10   2    9.39    1.03
   9 -10  -2    9.81    1.08
  -7  10   1   18.64    1.00
   7 -10  -1   19.83    1.13
  -5  10   0   23.69    1.45
  -5  10   0   22.27    0.69
   5 -10   0   22.69    1.15
  -3  10  -1   16.09    1.10
   3 -10   1   14.88    0.89
  -1  10  -2    0.37    0.33
   1 -10   2    0.24    0.22
   1  10  -3    0.77    0.36
   3  10  -4    0.50    0.33
  12  -9  -4    0.58    0.36
 -10   9   3    0.39    0.39
  10  -9  -3    0.42    0.34
  -8   9   2    8.08    0.89
   8  -9  -2    7.34    0.85
  -6   9   1    0.38    0.25
  -6   9   1    0.68    0.40
   6  -9  -1    0.52    0.29
  -4   9   0   38.48    0.79
  -4   9   0   38.81    1.67
  -4   9   0   39.19    0.80
   4  -9   0   36.07    1.33
  -2   9  -1    6.46    0.76
   2  -9   1    5.48    0.56
   0   9  -2    8.14    0.80
   2   9  -3   15.36    0.88
   4   9  -4    1.56    0.35
 -11   8   4    4.56    0.77
  11  -8  -4    5.14    0.67
  -9   8   3    1.94    0.53
   9  -8  -3    1.52    0.43
  -7   8   2    0.40    0.33
   7  -8  -2    0.12    0.27
   7  -8  -2    0.30    0.24
  -5   8   1   31.65    1.49
  -5   8   1   29.30    1.09
   5  -8  -1   28.68    1.14
   5  -8  -1   29.11    1.26
  -3   8   0   31.64    1.38
   3  -8   0   27.64    1.04
  -1   8  -1   28.07    1.20
   1  -8   1   28.63    0.92
   1   8  -2   35.55    1.28
   3   8  -3   29.82    1.09
   5   8  -4    3.77    0.46
 -12   7   5    1.71    0.53
 -10   7   4   18.19    1.13
  10  -7  -4   16.30    0.91
  -8   7   3   11.62    0.81
  -8   7   3   12.23    0.89
   8  -7  -3   11.88    0.81
  -6   7   2   15.63    0.88
   6  -7  -2   16.43    0.84
   6  -7  -2   16.90    0.93
  -4   7   1   11.16    0.84
  -4   7   1    9.11    0.57
   4  -7  -1    9.57    0.67
   4  -7  -1   10.85    0.66
  -2   7   0    0.32    0.24
  -2   7   0    0.31    0.10
  -2   7   0    0.31    0.09
   2  -7   0    0.12    0.14
   0   7  -1    3.48    0.49
   0  -7   1    3.87    0.27
   2   7  -2   26.81    1.00
   4   7  -3   31.21    1.03
  -4  -7   3   31.17    0.97
   6   7  -4    4.69    0.48
 -11   6   5    8.82    0.97
  11  -6  -5    9.13    1.19
  11  -6  -5    8.68    1.08
  -9   6   4   19.23    1.06
   9  -6  -4   21.69    1.38
   9  -6  -4   19.00    0.91
   9  -6  -4   19.69    1.17
  -7   6   3    7.50    0.69
  -7   6   3    7.03    0.74
   7  -6  -3    5.53    0.62
   7  -6  -3    6.80    0.65
  -5   6   2    5.42    0.57
  -5   6   2    5.11    0.68
  -5   6   2    4.69    0.47
   5  -6  -2    4.97    0.47
   5  -6  -2    5.40    0.58
   5  -6  -2    5.28    0.53
  -3   6   1   11.86    0.57
  -3   6   1   11.83    0.79
   3  -6  -1   12.31    0.62
   3  -6  -1   11.84    0.66
  -1   6   0   40.59    1.31
   1  -6   0   42.97    1.02
   1   6  -1    0.35    0.18
   3   6  -2    4.09    0.43
   3   6  -2    4.08    0.68
  -3  -6   2    4.63    0.44
   5   6  -3    9.41    0.55
  -5  -6   3    8.84    0.51
   7   6  -4    4.99    0.51
 -12   5   6    2.64    0.61
  12  -5  -6    2.65    0.69
 -10   5   5    5.18    0.69
  10  -5  -5    4.35    0.79
  10  -5  -5    6.36    0.88
  -8   5   4    2.21    0.41
   8  -5  -4    3.38    0.43
   8  -5  -4    3.12    0.64
   8  -5  -4    2.95    0.54
  -6   5   3    0.70    0.27
  -6   5   3    0.32    0.18
   6  -5  -3    1.02    0.29
   6  -5  -3    0.41    0.25
   6  -5  -3    0.52    0.31
  -4   5   2   25.79    0.93
  -4   5   2   27.60    0.88
   4  -5  -2   25.79    0.96
   4  -5  -2   27.60    0.91
  -2   5   1   77.51    1.81
  -2   5   1   75.89    1.53
  -2   5   1   77.89    1.40
   2  -5  -1   76.60    1.50
   0   5   0    4.71    0.49
   0  -5   0    3.51    0.22
   0  -5   0    3.11    0.37
   2   5  -1    1.93    0.29
  -2  -5   1    2.73    0.35
   4   5  -2    7.26    0.85
   4   5  -2    7.65    0.47
  -4  -5   2    7.55    0.45
   6   5  -3    0.64    0.23
  -6  -5   3    0.58    0.19
   8   5  -4    5.70    0.61
  11  -4  -6    7.01    1.01
  11  -4  -6    6.10    0.95
  -9   4   5   27.36    1.22
   9  -4  -5   28.18    1.50
   9  -4  -5   30.75    1.52
  -7   4   4   45.09    1.37
   7  -4  -4   46.41    1.71
   7  -4  -4   48.55    1.65
   7  -4  -4   45.77    1.18
  -5   4   3    9.27    0.54
  -5   4   3    9.79    0.61
   5  -4  -3    9.14    0.68
   5  -4  -3    9.17    0.54
   5  -4  -3    8.57    0.58
  -3   4   2   15.07    0.64
   3  -4  -2   14.12    0.60
   3  -4  -2   15.61    0.67
  -1   4   1   59.64    1.06
  -1   4   1   58.98    1.05
  -1   4   1   59.81    1.43
  -1   4   1   60.57    1.17
   1  -4  -1   60.35    1.15
   1   4   0   79.84    1.56
  -1  -4   0   80.18    1.53
   3   4  -1    1.19    0.23
   3   4  -1    0.85    0.33
  -3  -4   1    0.86    0.19
   5   4  -2   31.28    0.95
   5   4  -2   28.90    1.44
  -5  -4   2   31.00    0.90
   7   4  -3   17.67    0.85
   7   4  -3   19.39    0.89
  -7  -4   3   19.21    0.81
   9   4  -4    3.79    0.58
   9   4  -4    4.35    0.60
  12  -3  -7   37.60    1.96
  10  -3  -6    9.62    1.06
  10  -3  -6   10.76    1.19
   8  -3  -5   11.01    0.88
   8  -3  -5   12.01    1.10
  -6   3   4   -0.09    0.11
   6  -3  -4    0.08    0.16
   6  -3  -4    0.01    0.18
   6  -3  -4   -0.08    0.10
  -4   3   3    1.13    0.22
  -4   3   3    1.07    0.24
   4  -3  -3    1.38    0.26
  -2   3   2   23.88    0.73
   2  -3  -2   22.61    0.68
   2  -3  -2   23.65    0.75
   0   3   1  150.15    1.79
   0   3   1  153.45    1.94
   0  -3  -1  149.62    2.27
   2   3   0    4.02    0.37
  -2  -3   0    4.59    0.32
   4   3  -1    2.02    0.29
   4   3  -1    2.12    0.31
   4   3  -1    1.74    0.42
  -4  -3   1    2.22    0.29
   6   3  -2    7.87    0.91
   6   3  -2    6.79    0.89
   6   3  -2    8.24    0.55
  -6  -3   2    6.30    0.47
   8   3  -3   37.53    1.93
   8   3  -3   41.32    1.41
  -8  -3   3   37.41    1.26
  10   3  -4    0.45    0.33
 -11   2   7   25.33    1.24
  11  -2  -7   25.10    1.46
  -9   2   6   14.28    0.81
   9  -2  -6   14.35    1.31
   9  -2  -6   14.44    1.03
  -7   2   5    8.24    0.54
   7  -2  -5    7.62    0.75
   7  -2  -5    8.45    0.86
   5  -2  -4   70.17    1.74
   5  -2  -4   67.05    1.15
   5  -2  -4   69.00    1.80
  -3   2   3   12.92    0.51
  -3   2   3   13.24    0.86
   3  -2  -3   13.28    0.52
  -1   2   2   -0.09    0.08
   1  -2  -2    0.06    0.13
   1   2   1   28.81    0.54
  -1  -2  -1   26.79    0.74
   3   2   0   16.03    0.61
   3   2   0   14.79    0.59
   3   2   0   15.93    0.79
  -3  -2   0   15.50    0.58
   5   2  -1   33.06    1.02
   5   2  -1   33.90    1.38
   5   2  -1   31.95    1.34
   7   2  -2   11.94    0.73
   7   2  -2   13.15    1.24
   7   2  -2   11.07    1.13
   9   2  -3   21.49    1.52
   9   2  -3   18.23    1.05
 -10   1   7   19.82    0.98
  10  -1  -7   21.46    1.54
  10  -1  -7   18.73    1.19
  -8   1   6   10.97    0.61
   8  -1  -6    9.76    0.76
   8  -1  -6   10.44    1.08
  -6   1   5    6.82    0.41
   6  -1  -5    7.82    0.59
   6  -1  -5    7.19    0.81
   4  -1  -4  198.03    3.03
   4  -1  -4  194.13    2.05
   4  -1  -4  196.24    2.03
   2  -1  -3    0.68    0.14
   0   1   2   10.68    0.39
   0  -1  -2    9.76    0.44
   2   1   1   74.69    1.50
   2   1   1   74.62    0.99
  -2  -1  -1   74.46    1.37
  -2  -1  -1   74.41    1.37
   4   1   0   10.75    0.69
   4   1   0   10.10    0.54
   6   1  -1   12.74    1.10
   6   1  -1   13.69    0.92
   6   1  -1   11.44    0.66
   8   1  -2   18.07    0.96
   8   1  -2   18.76    1.28
  10   1  -3    8.29    0.93
  10   1  -3    8.52    1.24
  11   0  -8    2.18    0.56
   9   0  -7    3.40    0.59
   9   0  -7    4.51    0.92
   7   0  -6    1.76    0.36
   7   0  -6    1.66    0.48
  -5   0   5   85.43    1.15
   5   0  -5   83.24    2.16
   5   0  -5   84.89    1.79
   3   0  -4  100.14    1.79
  -1   0   3  270.39    3.32
   1   0  -3  271.01    3.09
   1   0  -3  267.33    3.29
   1   0   2   52.65    0.98
   1   0   2   51.15    0.95
   1   0   2   52.15    1.00
  -1   0  -2   51.47    1.00
  -1   0  -2   51.70    1.07
   3   0   1  202.55    3.01
   3   0   1  206.72    2.22
   3   0   1  199.68    2.38
   5   0   0   17.44    0.91
   5   0   0   17.25    0.76
   5   0   0   17.34    0.91
  -5   0   0   18.10    0.42
   7   0  -1    1.07    0.40
   7   0  -1    1.70    0.36
  -7   0   1    1.42    0.19
   9   0  -2   18.90    1.35
   9   0  -2   18.64    1.06
  -9   0   2   19.49    0.71
  11   0  -3    0.49    0.37
 -11   0   3    0.66    0.31
  10   1  -8    0.21    0.32
   8   1  -7    5.30    0.64
   8   1  -7    7.36    1.03
   6   1  -6    6.80    0.81
   6   1  -6    6.51    0.50
   4   1  -5   13.87    0.83
   4   1  -5   14.59    0.62
  -2  -1   4   24.48    0.69
  -2  -1   4   23.91    0.62
   2   1  -4   25.01    0.72
   0  -1   3    9.80    0.42
   0   1  -3    9.17    0.35
   0   1  -3    9.26    0.41
   2  -1   2  171.48    2.35
   2  -1   2  168.57    2.25
  -2   1  -2  173.00    2.33
  -2   1  -2  173.99    2.38
  -2   1  -2  171.25    2.47
   4  -1   1   50.18    0.91
   4  -1   1   50.46    1.32
  -4   1  -1   51.54    1.00
   6  -1   0   26.04    1.04
   6  -1   0   24.24    1.15
  -6   1   0   24.61    0.71
   8  -1  -1   16.05    0.95
   8  -1  -1   13.68    1.02
  -8   1   1   15.92    0.67
  10  -1  -2    0.03    0.29
  10  -1  -2   -0.13    0.27
 -10   1   2    0.04    0.20
  12  -1  -3   -0.04    0.34
 -12   1   3    0.39    0.31
   9   2  -8   10.96    0.82
   7   2  -7   59.10    1.57
   7   2  -7   60.96    2.26
   5   2  -6   13.01    0.92
   5   2  -6   13.62    0.62
  -3  -2   5    0.75    0.17
   3   2  -5    1.19    0.20
  -1  -2   4    1.96    0.25
   1  -2   3    1.01    0.18
   1  -2   3    0.80    0.18
  -1   2  -3    1.06    0.17
  -1   2  -3    0.65    0.17
   3  -2   2   95.16    1.62
   3  -2   2   94.75    1.71
  -3   2  -2   97.80    1.70
  -3   2  -2   97.00    1.74
   5  -2   1   41.25    0.92
   5  -2   1   38.32    1.25
  -5   2  -1   40.18    1.01
   7  -2   0   65.31    1.86
   7  -2   0   62.72    1.96
  -7   2   0   65.16    1.46
   9  -2  -1   27.11    1.47
   9  -2  -1   23.65    1.26
  -9   2   1   24.72    0.98
  11  -2  -2    5.41    0.94
  11  -2  -2    4.14    0.75
 -11   2   2    4.35    0.60
   8   3  -8   10.13    1.22
   8   3  -8   10.64    0.70
   6   3  -7   19.83    1.27
   6   3  -7   19.53    0.77
  -4  -3   6   30.83    0.81
   4   3  -6   29.81    1.31
   4   3  -6   31.13    0.83
  -2  -3   5    2.20    0.25
   2   3  -5    2.21    0.29
   2   3  -5    2.42    0.27
   0  -3   4   58.78    1.17
   0   3  -4   54.48    1.21
   2  -3   3    9.98    0.49
   2  -3   3    9.75    0.40
  -2   3  -3   10.16    0.44
  -2   3  -3   10.01    0.46
  -2   3  -3   10.67    0.54
   4  -3   2   14.67    0.62
   4  -3   2   15.52    0.69
  -4   3  -2   16.46    0.64
  -4   3  -2   16.96    0.73
  -4   3  -2   15.80    0.69
   6  -3   1    2.61    0.31
   6  -3   1    2.90    0.49
  -6   3  -1    3.57    0.47
  -6   3  -1    2.05    0.30
   8  -3   0   24.47    1.24
  -8   3   0   24.73    0.98
  10  -3  -1   35.15    1.67
  10  -3  -1   36.24    1.80
 -10   3   1   34.21    1.31
  12  -3  -2   24.11    1.57
 -12   3   2   26.17    1.32
   7   4  -8   26.34    1.64
   7   4  -8   25.92    0.95
   5   4  -7   27.99    0.83
   5   4  -7   28.35    1.45
  -3  -4   6   29.49    0.75
   3   4  -6   29.60    1.23
   3   4  -6   28.33    0.77
   3   4  -6   28.32    1.03
  -1  -4   5   91.10    1.55
   1   4  -5   89.92    1.59
   1   4  -5   93.43    1.64
   1  -4   4  143.34    2.09
  -1   4  -4  143.22    2.38
   3  -4   3   37.43    1.02
   3  -4   3   36.56    0.93
   3  -4   3   35.50    1.06
  -3   4  -3   37.09    0.95
  -3   4  -3   33.68    0.98
   5  -4   2   74.27    1.64
   5  -4   2   76.88    1.54
   5  -4   2   75.56    1.75
  -5   4  -2   75.95    1.73
  -5   4  -2   76.01    1.61
   7  -4   1    7.83    0.51
   7  -4   1    6.09    0.73
  -7   4  -1    7.56    0.66
  -7   4  -1    6.37    0.63
   9  -4   0    4.57    0.30
   9  -4   0    4.42    0.71
  -9   4   0    5.54    0.64
  11  -4  -1   13.56    1.32
 -11   4   1   15.07    0.98
  13  -4  -2    4.32    0.89
 -13   4   2    3.94    0.70
   8   5  -9    0.53    0.27
   6   5  -8    0.57    0.46
   6   5  -8    0.27    0.18
   4   5  -7    0.52    0.16
   4   5  -7    0.35    0.33
  -2  -5   6    4.06    0.35
   2   5  -6    3.57    0.53
   2   5  -6    4.10    0.39
   2   5  -6    4.16    0.48
   0   5  -5  193.76    2.90
   2  -5   4   49.80    1.22
   2  -5   4   47.27    0.97
  -2   5  -4   46.06    0.61
  -2   5  -4   46.98    0.62
  -2   5  -4   43.39    1.31
   4  -5   3    2.74    0.38
   4  -5   3    2.31    0.39
   4  -5   3    2.81    0.33
  -4   5  -3    2.58    0.37
  -4   5  -3    1.76    0.37
  -4   5  -3    2.66    0.36
   6  -5   2   40.03    1.50
   6  -5   2   37.72    1.30
   6  -5   2   38.28    1.12
   6  -5   2   37.07    1.21
  -6   5  -2   39.68    1.28
  -6   5  -2   37.05    1.15
   8  -5   1   53.91    1.96
   8  -5   1   54.73    1.47
  -8   5  -1   54.49    1.73
  -8   5  -1   53.89    1.60
  10  -5   0    4.14    0.76
  10  -5   0    5.25    0.43
 -10   5   0    4.27    0.60
  12  -5  -1    0.68    0.56
 -12   5   1    1.12    0.41
   7   6  -9    0.98    0.24
   5   6  -8    4.25    0.37
   5   6  -8    3.06    0.65
   3   6  -7    7.02    0.81
   3   6  -7    6.73    0.43
   1   6  -6    2.72    0.43
   1   6  -6    2.91    0.41
   1   6  -6    2.36    0.35
   1  -6   5   92.44    1.15
  -1   6  -5   86.95    1.93
   3  -6   4    8.13    0.46
  -3   6  -4    8.48    0.44
  -3   6  -4    9.20    0.67
  -3   6  -4    8.14    0.36
   5  -6   3    5.52    0.53
   5  -6   3    5.24    0.63
   5  -6   3    5.31    0.56
  -5   6  -3    5.10    0.54
  -5   6  -3    4.90    0.64
   7  -6   2   47.64    1.33
   7  -6   2   45.63    1.47
  -7   6  -2   44.21    1.49
   9  -6   1   13.63    1.33
   9  -6   1   10.87    0.71
  -9   6  -1   11.06    1.05
  -9   6  -1   13.03    0.85
  11  -6   0    4.77    0.92
  11  -6   0    3.22    0.39
 -11   6   0    2.93    0.56
  13  -6  -1    0.18    0.52
 -13   6   1    0.24    0.37
   6   7  -9    1.82    0.25
   4   7  -8   15.77    0.64
   2   7  -7   28.32    0.98
   0   7  -6    1.14    0.28
   2  -7   5   30.65    0.81
  -2   7  -5   28.37    1.18
   4  -7   4    0.17    0.16
  -4   7  -4    0.34    0.16
  -4   7  -4    0.66    0.31
   6  -7   3    8.98    0.63
   6  -7   3   10.74    0.90
   6  -7   3   10.21    0.79
  -6   7  -3    9.78    1.01
  -6   7  -3    8.84    0.64
   8  -7   2   41.09    1.48
  -8   7  -2   40.04    1.51
  10  -7   1   15.36    0.90
 -10   7  -1   15.95    1.11
  12  -7   0    6.77    0.57
   5   8  -9    5.56    0.40
   3   8  -8   24.35    0.92
   1   8  -7   30.81    1.13
  -1   8  -6    0.84    0.31
   3  -8   5   50.26    1.28
  -3   8  -5   49.07    1.71
   5  -8   4   76.44    1.87
  -5   8  -4   76.41    1.59
  -5   8  -4   75.92    2.33
   7  -8   3   11.60    0.77
   7  -8   3    6.69    0.75
  -7   8  -3    7.90    0.76
   9  -8   2    8.01    0.82
  -9   8  -2    8.89    0.95
  11  -8   1    1.47    0.43
 -11   8  -1    1.40    0.53
  13  -8   0    1.17    0.31
   4   9  -9    3.13    0.41
   2   9  -8   33.78    1.24
   0   9  -7   11.28    0.80
   2  -9   6   13.54    0.62
  -2   9  -6   13.79    0.94
   4  -9   5   16.26    0.84
  -4   9  -5   16.12    1.11
   6  -9   4   26.51    1.17
  -6   9  -4   25.77    1.46
  -6   9  -4   25.54    0.97
   8  -9   3    4.78    0.64
   8  -9   3    4.79    0.71
  -8   9  -3    4.71    0.65
  10  -9   2   -0.08    0.27
 -10   9  -2    0.23    0.34
  12  -9   1    0.54    0.34
 -12   9  -1   -0.05    0.45
   3  10  -9    0.35    0.28
   1  10  -8    7.90    0.81
  -1  10  -7    1.11    0.40
   3 -10   6    0.22    0.18
  -3  10  -6    0.35    0.32
   5 -10   5   29.79    1.24
  -5  10  -5   31.96    1.65
   7 -10   4   16.73    1.02
  -7  10  -4   14.90    1.45
  -7  10  -4   16.64    0.85
   9 -10   3    2.46    0.56
  -9  10  -3    3.72    0.64
  11 -10   2    1.56    0.51
 -11  10  -2    2.45    0.64
   0  11  -8    3.15    0.62
   2 -11   7   -0.04    0.19
  -2  11  -7    0.17    0.31
   4 -11   6    3.33    0.53
  -4  11  -6    3.49    0.71
   6 -11   5   21.45    1.19
  -6  11  -5   27.42    1.65
   8 -11   4    1.67    0.48
  -8  11  -4    3.06    0.51
  10 -11   3   12.91    1.25
 -10  11  -3   14.68    1.09
  12 -11   2   13.39    1.26
 -12  11  -2   12.75    1.31
  -1  12  -8   10.04    1.05
   3 -12   7    8.35    0.80
  -3  12  -7   10.79    1.21
   5 -12   6    0.81    0.36
  -5  12  -6    0.76    0.50
   7 -12   5    1.50    0.47
  -7  12  -5    0.93    0.57
   9 -12   4   -0.01    0.30
  -9  12  -4    0.12    0.31
  11 -12   3    8.48    1.12
 -11  12  -3    9.54    1.08
   4 -13   7    0.27    0.33
  -4  13  -7    0.23    0.40
   6 -13   6    0.48    0.38
  -6  13  -6    0.63    0.56
   8 -13   5    5.35    0.84
   7 -13   0    5.79    0.88
  -5  13  -1   17.05    1.64
   5 -13   1   16.16    1.19
  -8  12   1    0.11    0.32
   8 -12  -1    0.82    0.48
  -6  12   0   10.68    1.32
   6 -12   0   10.15    1.03
  -4  12  -1   67.01    2.59
   4 -12   1   60.65    2.07
  -2  12  -2    3.82    0.75
   2 -12   2    7.51    0.84
  -9  11   2   -0.31    0.34
   9 -11  -2   -0.07    0.37
  -7  11   1    3.20    0.51
   7 -11  -1    3.66    0.64
  -5  11   0    7.21    1.02
   5 -11   0    7.40    0.82
  -3  11  -1   25.71    1.50
   3 -11   1   25.39    1.21
  -1  11  -2    5.62    0.80
   1 -11   2    6.71    0.71
   1  11  -3   10.99    1.04
 -10  10   3    3.37    0.72
  10 -10  -3    2.84    0.65
  -8  10   2   31.07    1.44
   8 -10  -2   35.42    1.64
  -6  10   1   31.25    1.73
  -6  10   1   28.47    1.09
   6 -10  -1   23.88    1.23
  -4  10   0    1.63    0.51
   4 -10   0    1.97    0.44
  -2  10  -1    0.16    0.31
   2 -10   1    0.07    0.22
   0  10  -2    4.15    0.64
   0 -10   2    4.68    0.52
   2  10  -3   11.96    0.89
 -11   9   4    4.02    0.83
  11  -9  -4    4.52    0.69
  -9   9   3   15.33    1.11
   9  -9  -3   17.62    1.14
  -7   9   2   18.44    1.04
   7  -9  -2   17.39    1.01
   7  -9  -2   19.30    1.15
  -5   9   1   13.30    0.72
  -5   9   1   14.82    1.13
   5  -9  -1   15.97    0.90
  -3   9   0   -0.08    0.25
   3  -9   0    0.13    0.20
  -1   9  -1   14.75    0.97
   1  -9   1   14.42    0.75
   1   9  -2    0.29    0.26
   3   9  -3    5.70    0.64
 -12   8   5    1.30    0.55
  12  -8  -5    2.01    0.37
 -10   8   4    1.65    0.48
 -10   8   4    0.86    0.47
  10  -8  -4    1.06    0.39
  -8   8   3   14.73    1.02
   8  -8  -3   15.88    1.01
  -6   8   2   59.78    1.74
   6  -8  -2   59.46    1.73
   6  -8  -2   58.84    1.87
  -4   8   1   22.96    1.26
  -4   8   1   23.40    0.86
   4  -8  -1   22.25    1.00
  -2   8   0   24.93    1.22
   2  -8   0   25.23    0.98
   0   8  -1   47.08    1.57
   0  -8   1   47.55    1.14
   2   8  -2    4.63    0.58
   4   8  -3    0.62    0.30
 -11   7   5   14.92    1.10
  11  -7  -5   14.99    0.74
  -9   7   4    0.55    0.38
  -9   7   4    0.24    0.33
   9  -7  -4    0.56    0.29
  -7   7   3    6.37    0.73
  -7   7   3    8.28    0.74
   7  -7  -3    6.24    0.71
  -5   7   2    6.64    0.80
  -5   7   2    7.34    0.69
   5  -7  -2    6.69    0.63
   5  -7  -2    6.53    0.67
  -3   7   1   18.43    1.05
  -3   7   1   20.03    0.70
   3  -7  -1   19.36    0.85
  -1   7   0   96.64    2.27
   1  -7   0   93.16    1.79
   1   7  -1   82.38    1.96
   3   7  -2   11.11    0.69
  -3  -7   2    9.40    0.60
   5   7  -3   13.21    0.72
  -5  -7   3   13.89    0.69
   7   7  -4   15.00    0.78
 -12   6   6   29.56    1.56
  12  -6  -6   30.89    1.92
 -10   6   5   18.76    1.14
  10  -6  -5   20.60    0.80
  10  -6  -5   21.01    1.44
  10  -6  -5   20.88    1.33
  -8   6   4   34.45    1.44
  -8   6   4   33.56    1.33
   8  -6  -4   32.77    1.61
   8  -6  -4   31.73    1.20
   8  -6  -4   32.86    1.40
  -6   6   3    2.24    0.42
  -6   6   3    2.28    0.41
   6  -6  -3    2.04    0.40
   6  -6  -3    1.58    0.34
   6  -6  -3    2.33    0.40
  -4   6   2   17.34    0.79
  -4   6   2   16.69    0.99
   4  -6  -2   16.59    0.77
   4  -6  -2   17.11    0.83
  -2   6   1    1.22    0.20
  -2   6   1    0.99    0.32
  -2   6   1    1.60    0.21
   2  -6  -1    1.27    0.25
   0   6   0   66.20    1.69
   0  -6   0   68.27    1.25
   2   6  -1   31.66    1.06
  -2  -6   1   30.67    1.02
   4   6  -2    3.71    0.45
   4   6  -2    2.96    0.64
  -4  -6   2    3.93    0.44
   6   6  -3   32.92    1.12
  -6  -6   3   34.05    1.05
 -11   5   6    5.94    0.80
  11  -5  -6    6.73    0.99
  11  -5  -6    7.73    1.11
  -9   5   5   39.10    1.48
   9  -5  -5   39.92    1.71
   9  -5  -5   39.69    1.81
   9  -5  -5   39.30    1.04
  -7   5   4    9.69    0.84
  -7   5   4    8.67    0.65
   7  -5  -4   10.38    0.64
   7  -5  -4    9.67    0.88
   7  -5  -4    9.69    1.01
  -5   5   3   42.42    1.31
  -5   5   3   42.32    1.21
   5  -5  -3   42.08    1.18
   5  -5  -3   41.20    1.24
   5  -5  -3   39.98    1.26
   5  -5  -3   40.42    1.52
  -3   5   2   80.69    2.01
  -3   5   2   80.07    1.65
   3  -5  -2   81.98    1.66
   3  -5  -2   80.89    1.76
  -1   5   1    7.72    0.29
  -1   5   1    7.92    0.40
  -1   5   1    6.74    0.54
  -1   5   1    8.27    0.39
   1  -5  -1    7.19    0.41
   1   5   0   20.14    0.81
  -1  -5   0   18.10    0.76
   3   5  -1   25.05    1.28
   3   5  -1   23.91    0.86
  -3  -5   1   25.54    0.86
   5   5  -2    6.01    0.54
   5   5  -2    5.02    0.81
  -5  -5   2    5.09    0.48
   7   5  -3   60.88    1.61
  -7  -5   3   57.90    1.47
 -12   4   7    4.84    0.78
  12  -4  -7    5.95    0.99
 -10   4   6    4.93    0.65
  10  -4  -6    5.92    0.88
  10  -4  -6    6.72    0.96
  -8   4   5    1.24    0.33
   8  -4  -5    1.85    0.50
   8  -4  -5    1.90    0.26
   8  -4  -5    1.08    0.43
  -6   4   4    9.95    0.62
  -6   4   4   11.05    0.70
   6  -4  -4   12.36    0.85
   6  -4  -4   11.23    0.62
   6  -4  -4   11.07    0.75
  -4   4   3  163.95    2.74
  -4   4   3  167.97    2.60
   4  -4  -3  165.81    2.69
   4  -4  -3  171.33    2.58
  -2   4   2   46.97    1.59
  -2   4   2   47.35    1.12
   2  -4  -2   46.22    1.17
   2  -4  -2   44.56    1.07
   0   4   1  101.74    1.96
   0   4   1  100.05    1.35
   0   4   1  101.53    1.37
   0  -4  -1   99.00    1.52
   0  -4  -1  101.85    1.91
   2   4   0    2.36    0.32
  -2  -4   0    2.62    0.34
   4   4  -1  114.71    2.80
   4   4  -1  116.16    2.08
  -4  -4   1  114.99    2.01
   6   4  -2    3.39    0.43
   6   4  -2    2.81    0.67
  -6  -4   2    3.09    0.40
   8   4  -3   20.37    1.02
   8   4  -3   20.59    1.02
  -8  -4   3   21.21    0.95
  11  -3  -7   -0.09    0.34
   9  -3  -6   -0.09    0.25
   9  -3  -6    0.12    0.31
  -7   3   5    1.66    0.33
   7  -3  -5    1.44    0.17
   7  -3  -5    0.99    0.34
   7  -3  -5    2.50    0.52
  -5   3   4   20.44    0.85
  -5   3   4   18.54    0.74
   5  -3  -4   19.69    0.97
   5  -3  -4   18.18    0.88
   5  -3  -4   18.90    0.71
  -3   3   3  147.23    2.26
  -3   3   3  149.96    2.39
   3  -3  -3  148.79    2.35
  -1   3   2   73.35    1.33
   1  -3  -2   72.03    1.31
   1  -3  -2   70.08    1.52
   1   3   1   72.17    1.50
  -1  -3  -1   71.59    1.46
  -1  -3  -1   75.64    1.15
   3   3   0  156.69    2.98
   3   3   0  157.38    2.46
  -3  -3   0  154.94    2.39
   5   3  -1  102.28    2.02
   5   3  -1  106.25    2.71
   5   3  -1  102.55    2.03
  -5  -3   1  104.25    1.97
   7   3  -2    0.32    0.23
  -7  -3   2    0.69    0.26
   9   3  -3    3.59    0.57
  10  -2  -7    0.53    0.37
  10  -2  -7    2.01    0.65
   8  -2  -6   14.01    0.94
   8  -2  -6   14.13    1.07
   6  -2  -5   60.32    1.75
   6  -2  -5   62.21    1.88
  -4   2   4    0.23    0.13
  -4   2   4    0.15    0.17
   4  -2  -4    0.27    0.11
   4  -2  -4    0.23    0.18
  -2   2   3   15.54    0.59
  -2   2   3   14.72    0.54
   2  -2  -3   14.68    0.57
   0   2   2   47.58    0.96
   0   2   2   48.75    0.97
   0  -2  -2   48.18    1.14
   0  -2  -2   49.85    0.96
   2   2   1   15.37    0.72
   2   2   1   15.25    0.62
  -2  -2  -1   15.27    0.60
   4   2   0   63.24    1.46
   4   2   0   60.23    1.44
   4   2   0   64.50    1.80
  -4  -2   0   61.16    1.39
   6   2  -1  106.65    2.23
   6   2  -1  112.91    2.85
   8   2  -2    4.26    0.58
  10   2  -3   10.08    0.99
 -11   1   8    5.57    0.71
  11  -1  -8    4.46    0.78
  -9   1   7   10.01    0.66
   9  -1  -7    5.10    0.82
   9  -1  -7    8.09    0.90
  -7   1   6   46.30    1.19
   7  -1  -6   44.47    1.79
   7  -1  -6   42.66    1.51
   5  -1  -5   29.87    1.08
   5  -1  -5   31.74    1.26
  -3   1   4   15.32    0.52
  -3   1   4   13.17    0.71
   3  -1  -4   12.75    0.64
   3  -1  -4   13.28    0.46
  -1   1   3   19.00    0.70
   1  -1  -3   20.76    0.71
   1  -1  -3   19.59    0.60
   1   1   2    4.61    0.27
   1   1   2    4.55    0.30
  -1  -1  -2    3.78    0.36
   3   1   1    3.70    0.46
   3   1   1    3.36    0.39
   3   1   1    2.64    0.34
  -3  -1  -1    3.10    0.36
   5   1   0   41.13    1.25
   5   1   0   43.58    1.51
   7   1  -1   42.32    1.42
   9   1  -2   13.42    0.94
  11   1  -3   36.39    1.73
 -10   0   8    0.19    0.23
  10   0  -8    0.14    0.31
  -8   0   7    4.17    0.43
   8   0  -7    4.44    0.76
   8   0  -7    4.00    0.60
  -6   0   6   85.06    1.41
   6   0  -6   84.70    2.40
   6   0  -6   82.66    1.94
  -4   0   5   31.78    0.69
   4   0  -5   32.78    1.04
  -2   0   4  145.61    2.28
  -2   0   4  152.67    1.94
   2   0  -4  150.93    1.88
   0   0  -3  234.41    3.08
   0   0  -3  234.91    2.91
   2   0   2   27.58    0.74
   2   0   2   26.62    0.67
   2   0   2   27.11    0.81
  -2   0  -2   26.11    0.82
  -2   0  -2   27.35    0.78
   4   0   1    7.13    0.51
   4   0   1    8.37    0.58
  -4   0  -1    8.02    0.33
   6   0   0    6.77    0.64
  -6   0   0    7.11    0.34
   8   0  -1    0.25    0.23
  -8   0   1    0.06    0.15
  10   0  -2    8.29    0.97
 -10   0   2    8.38    0.59
   9   1  -8    0.66    0.53
   9   1  -8    0.09    0.27
   7   1  -7   16.20    1.19
   7   1  -7   14.96    0.83
   5   1  -6   41.98    1.59
   5   1  -6   42.40    1.22
  -3  -1   5   57.90    1.27
  -3  -1   5   59.70    1.23
   3   1  -5   58.76    1.30
  -1  -1   4   87.55    1.53
   1   1  -4   87.13    1.49
   1   1  -4   86.68    1.13
   1  -1   3  149.07    1.88
   1  -1   3  153.86    2.19
  -1   1  -3  151.98    2.27
  -1   1  -3  154.90    2.15
   3  -1   2   40.67    1.09
   3  -1   2   42.23    0.94
   3  -1   2   43.08    1.02
  -3   1  -2   41.53    1.13
  -3   1  -2   41.51    0.91
   5  -1   1   13.82    0.76
   5  -1   1   13.66    0.41
   5  -1   1   14.08    0.36
  -5   1  -1   14.90    0.55
   7  -1   0    0.06    0.19
  -7   1   0   -0.05    0.11
   9  -1  -1   27.35    1.33
  -9   1   1   27.03    0.98
  11  -1  -2    4.00    0.72
 -11   1   2    4.84    0.59
  10   2  -9    5.21    0.73
   8   2  -8   18.65    0.98
   8   2  -8   19.59    1.45
   6   2  -7    6.97    0.53
   6   2  -7    6.19    0.85
   4   2  -6    3.17    0.37
   4   2  -6    4.11    0.60
  -2  -2   5   22.00    0.69
   2   2  -5   22.16    0.72
   0  -2   4   28.91    0.82
   0   2  -4   32.17    0.81
   0   2  -4   30.41    0.54
   2  -2   3   23.68    0.71
   2  -2   3   23.28    0.76
  -2   2  -3   23.92    0.82
  -2   2  -3   24.19    0.73
  -2   2  -3   25.64    0.77
  -2   2  -3   22.61    0.64
   4  -2   2   31.33    0.94
   4  -2   2   29.87    0.85
  -4   2  -2   30.49    0.95
  -4   2  -2   30.60    0.86
   6  -2   1   22.59    1.04
   6  -2   1   22.68    0.62
  -6   2  -1   21.97    0.79
   8  -2   0   15.09    0.98
  -8   2   0   17.66    0.79
  10  -2  -1   18.72    1.22
 -10   2   1   17.71    0.93
  12  -2  -2    1.30    0.50
 -12   2   2    0.71    0.38
   9   3  -9   33.30    1.35
   7   3  -8    1.83    0.56
   7   3  -8    2.02    0.37
   5   3  -7    4.83    0.76
   5   3  -7    4.58    0.45
  -3  -3   6   17.55    0.63
   3   3  -6   16.70    0.64
   3   3  -6   17.67    0.94
  -1  -3   5   15.65    0.59
   1   3  -5   16.08    0.48
   1   3  -5   15.80    0.64
   1  -3   4   22.76    0.71
   1  -3   4   23.44    0.58
   1  -3   4   22.29    0.77
  -1   3  -4   23.12    0.75
  -1   3  -4   23.23    0.54
   3  -3   3   22.18    0.81
   3  -3   3   22.78    0.77
   3  -3   3   23.08    0.71
  -3   3  -3   22.36    0.80
  -3   3  -3   21.22    0.76
   5  -3   2   51.98    1.27
   5  -3   2   51.48    1.58
   5  -3   2   54.65    1.39
  -5   3  -2   56.78    1.44
  -5   3  -2   54.25    1.30
   7  -3   1   90.23    1.60
   7  -3   1   88.70    2.32
  -7   3  -1   90.08    1.92
   9  -3   0   68.67    2.23
  -9   3   0   61.98    1.72
  11  -3  -1    5.24    0.86
 -11   3   1    4.41    0.60
  13  -3  -2    2.45    0.69
 -13   3   2    1.24    0.49
   8   4  -9   23.13    1.00
   6   4  -8   30.35    1.65
   6   4  -8   31.99    1.03
   4   4  -7   52.85    1.86
   4   4  -7   53.72    1.23
  -2  -4   6  134.40    2.07
   2   4  -6  133.02    2.16
   2   4  -6  134.06    2.22
   0  -4   5    1.90    0.29
   0   4  -5    1.66    0.29
   2  -4   4   15.36    0.66
   2  -4   4   15.79    0.55
  -2   4  -4   15.44    0.70
  -2   4  -4   15.98    0.78
  -2   4  -4   15.55    0.53
   4  -4   3   21.45    0.88
   4  -4   3   22.39    0.77
   4  -4   3   22.39    0.84
  -4   4  -3   21.33    0.86
  -4   4  -3   21.96    0.84
   6  -4   2   10.87    0.79
   6  -4   2   11.08    0.67
   6  -4   2   10.67    0.61
  -6   4  -2   10.07    0.61
  -6   4  -2   11.28    0.70
   8  -4   1   11.66    1.10
   8  -4   1    9.34    0.54
  -8   4  -1   10.16    0.69
  10  -4   0   16.47    1.21
 -10   4   0   16.47    0.97
  12  -4  -1    0.41    0.47
 -12   4   1    0.39    0.35
   7   5  -9    5.82    1.03
   7   5  -9    5.20    0.51
   5   5  -8   17.83    1.26
   5   5  -8   16.37    0.67
   3   5  -7   77.13    1.53
   3   5  -7   74.12    2.15
   1   5  -6   52.77    1.33
   1   5  -6   54.96    1.27
   1  -5   5   16.81    0.45
   1  -5   5   15.87    0.63
  -1   5  -5   15.79    0.77
   3  -5   4  115.65    2.24
   3  -5   4  122.38    2.14
   3  -5   4  120.55    1.99
  -3   5  -4  118.27    2.48
  -3   5  -4  118.44    2.04
  -3   5  -4  117.55    2.31
  -3   5  -4  117.98    1.91
   5  -5   3   25.73    0.91
   5  -5   3   24.19    1.03
   5  -5   3   24.90    0.97
  -5   5  -3   26.95    0.91
  -5   5  -3   25.01    0.96
  -5   5  -3   25.16    1.03
   7  -5   2    7.67    0.87
   7  -5   2    8.16    0.60
  -7   5  -2    9.55    0.85
  -7   5  -2    7.48    0.68
   9  -5   1   21.96    1.34
   9  -5   1   20.16    0.86
  -9   5  -1   22.93    1.10
  11  -5   0    0.94    0.50
 -11   5   0    0.37    0.32
  13  -5  -1    0.34    0.52
 -13   5   1    0.51    0.38
   6   6  -9    7.71    0.51
   4   6  -8    2.34    0.33
   4   6  -8    2.08    0.60
   2   6  -7   40.33    1.15
   2   6  -7   40.72    1.50
   0   6  -6   19.09    0.85
   2  -6   5    9.59    0.44
  -2   6  -5    8.37    0.63
   4  -6   4   67.93    1.55
   4  -6   4   69.13    1.67
  -4   6  -4   68.71    1.47
  -4   6  -4   64.79    1.91
   6  -6   3  102.15    2.26
   6  -6   3  102.94    2.42
   6  -6   3  103.75    2.14
  -6   6  -3  104.61    2.27
  -6   6  -3  105.25    2.70
   8  -6   2    0.74    0.29
  -8   6  -2    0.30    0.27
  -8   6  -2    0.46    0.28
  10  -6   1    0.20    0.22
  10  -6   1    0.44    0.40
 -10   6  -1    0.00    0.23
  12  -6   0    0.25    0.52
 -12   6   0   -0.03    0.32
   5   7  -9   33.07    0.97
   3   7  -8    8.47    0.57
   1   7  -7   15.68    0.80
   1  -7   6    2.93    0.21
  -1   7  -6    1.92    0.39
   3  -7   5   21.10    0.78
  -3   7  -5   20.59    1.06
   5  -7   4   91.58    2.16
   5  -7   4   91.84    2.01
   5  -7   4   92.68    2.32
  -5   7  -4   93.22    1.90
  -5   7  -4   96.31    2.55
   7  -7   3  129.68    2.59
   7  -7   3  128.28    2.76
   7  -7   3  127.73    2.91
  -7   7  -3  125.10    2.68
   9  -7   2    0.51    0.28
  -9   7  -2    0.52    0.38
  11  -7   1    8.60    0.77
 -11   7  -1    9.91    0.99
   4   8  -9   17.65    0.77
   2   8  -8   10.87    0.72
   0   8  -7    6.21    0.66
   2  -8   6   21.10    0.73
  -2   8  -6   21.06    1.10
   4  -8   5    7.73    0.56
  -4   8  -5    8.67    0.91
   6  -8   4   14.30    0.83
   6  -8   4   14.75    0.93
  -6   8  -4   14.09    1.05
  -6   8  -4   12.63    0.75
   8  -8   3    5.60    0.65
   8  -8   3    7.07    0.80
  -8   8  -3    6.59    0.78
  10  -8   2   11.83    1.05
 -10   8  -2   10.86    1.11
  12  -8   1   22.89    1.11
   3   9  -9   16.52    0.88
   1   9  -8    3.00    0.51
  -1   9  -7   32.82    1.39
   3  -9   6   41.04    1.23
  -3   9  -6   42.61    1.71
   5  -9   5   13.21    0.81
  -5   9  -5   15.50    1.14
  -5   9  -5   14.77    0.50
   7  -9   4   -0.27    0.33
   7  -9   4    0.11    0.24
  -7   9  -4    0.08    0.24
  -7   9  -4    0.07    0.30
   9  -9   3    1.36    0.46
  -9   9  -3    1.42    0.45
  11  -9   2    1.61    0.47
 -11   9  -2    2.01    0.60
  13  -9   1    6.49    0.75
   2  10  -9    0.76    0.35
   0  10  -8    0.95    0.36
   2 -10   7   27.41    0.96
  -2  10  -7   26.12    1.36
   4 -10   6   24.65    1.08
  -4  10  -6   22.89    1.37
   6 -10   5    1.46    0.38
  -6  10  -5    1.58    0.26
  -6  10  -5    1.69    0.51
   8 -10   4    6.08    0.75
  -8  10  -4    7.62    0.79
  10 -10   3   31.45    1.56
 -10  10  -3   29.29    1.49
  12 -10   2   -0.26    0.29
 -12  10  -2   -0.47    0.41
   1  11  -9    0.31    0.33
  -1  11  -8    4.79    0.74
   3 -11   7    6.96    0.69
  -3  11  -7    4.88    0.77
   5 -11   6    5.14    0.66
  -5  11  -6    9.46    1.16
   7 -11   5    4.07    0.64
  -7  11  -5    7.29    1.15
  -7  11  -5    4.65    0.44
   9 -11   4   14.60    1.05
  -9  11  -4   15.10    1.00
  11 -11   3   17.36    1.27
 -11  11  -3   18.31    1.29
   2 -12   8    1.24    0.36
  -2  12  -8    0.80    0.46
   4 -12   7    1.67    0.44
  -4  12  -7    2.99    0.69
   6 -12   6    0.78    0.39
  -6  12  -6    1.12    0.57
   8 -12   5    0.21    0.33
  -8  12  -5    0.17    0.23
  10 -12   4    3.05    0.72
 -10  12  -4    1.36    0.47
   3 -13   8    3.35    0.59
  -3  13  -8    3.31    0.79
   5 -13   7    1.85    0.48
  -5  13  -7    2.94    0.78
   7 -13   6    5.38    0.85
  -7  13  -6    4.84    0.99
   9 -13   5    1.98    0.61
  -6  13   0    1.90    0.69
   6 -13   0    1.48    0.54
  -4  13  -1    0.07    0.46
   4 -13   1   -0.74    0.26
  -9  12   2    5.41    0.78
   9 -12  -2    6.59    0.99
  -7  12   1    9.59    0.60
   7 -12  -1    8.85    0.99
  -5  12   0    3.98    0.91
   5 -12   0    3.84    0.66
  -3  12  -1    0.92    0.51
   3 -12   1    0.54    0.37
  -1  12  -2   10.82    1.14
   1 -12   2   11.73    0.99
 -10  11   3    4.73    0.83
  10 -11  -3    2.62    0.70
  -8  11   2   17.19    1.08
   8 -11  -2   14.30    1.35
  -6  11   1    4.84    0.48
   6 -11  -1    4.25    0.68
  -4  11   0    7.95    1.08
   4 -11   0    6.94    0.81
  -2  11  -1    3.06    0.67
   2 -11   1    4.04    0.60
   0  11  -2   17.08    1.20
   0 -11   2   21.12    1.02
 -11  10   4    6.71    1.04
  11 -10  -4    5.39    0.81
  -9  10   3    1.08    0.48
   9 -10  -3    1.55    0.51
  -7  10   2    1.61    0.45
   7 -10  -2    0.94    0.42
   7 -10  -2    1.42    0.45
  -5  10   1   13.74    1.32
  -5  10   1   14.52    0.65
   5 -10  -1   16.37    1.00
  -3  10   0    0.68    0.42
   3 -10   0    0.65    0.30
  -1  10  -1   19.43    1.22
   1 -10   1   19.81    0.97
   1  10  -2   22.01    1.23
   3  10  -3    2.49    0.53
 -10   9   4   11.14    1.24
  10  -9  -4   11.59    1.06
  -8   9   3    2.86    0.58
   8  -9  -3    4.25    0.71
  -6   9   2    0.35    0.27
   6  -9  -2    0.58    0.36
   6  -9  -2   -0.09    0.24
  -4   9   1    6.00    0.40
  -4   9   1    4.96    0.76
  -4   9   1    5.81    0.39
   4  -9  -1    5.30    0.63
  -2   9   0   -0.03    0.28
   2  -9   0    0.09    0.18
   0   9  -1    3.25    0.57
   0  -9   1    3.45    0.43
   2   9  -2    4.10    0.59
   4   9  -3   10.12    0.77
 -11   8   5   16.52    1.20
  11  -8  -5   16.86    0.97
  -9   8   4   14.78    1.10
   9  -8  -4   14.77    0.99
  -7   8   3   12.67    0.90
   7  -8  -3   11.08    0.96
  -5   8   2   18.40    0.90
  -5   8   2   18.06    1.19
   5  -8  -2   20.08    0.98
   5  -8  -2   19.50    1.06
  -3   8   1   45.18    0.90
  -3   8   1   45.41    1.74
   3  -8  -1   45.07    1.41
  -1   8   0   -0.05    0.24
   1  -8   0    0.84    0.25
   1   8  -1    3.08    0.53
   3   8  -2    0.28    0.26
   5   8  -3    2.64    0.46
 -12   7   6    0.22    0.46
 -10   7   5    1.01    0.44
  10  -7  -5    1.12    0.37
  -8   7   4    1.11    0.38
  -8   7   4    0.62    0.38
   8  -7  -4    1.50    0.41
  -6   7   3   27.41    1.18
   6  -7  -3   26.93    1.10
   6  -7  -3   27.38    1.20
  -4   7   2   60.11    1.99
  -4   7   2   60.53    1.54
   4  -7  -2   59.24    1.61
   4  -7  -2   61.91    1.75
  -2   7   1   37.02    0.89
  -2   7   1   36.16    1.41
   2  -7  -1   35.17    1.13
   0   7   0    0.90    0.31
   0  -7   0    1.52    0.26
   2   7  -1    3.14    0.48
  -2  -7   1    3.84    0.49
   4   7  -2   19.74    0.92
  -4  -7   2   17.99    0.85
   6   7  -3    2.06    0.40
 -11   6   6    3.66    0.69
  11  -6  -6    5.70    1.03
  -9   6   5    3.91    0.60
   9  -6  -5    3.00    0.44
   9  -6  -5    3.15    0.69
   9  -6  -5    3.09    0.59
  -7   6   4    4.42    0.56
  -7   6   4    4.05    0.61
   7  -6  -4    3.44    0.50
   7  -6  -4    3.11    0.51
  -5   6   3    7.50    0.63
  -5   6   3    4.77    0.56
   5  -6  -3    5.55    0.57
   5  -6  -3    5.81    0.54
   5  -6  -3    6.27    0.66
  -3   6   2   51.07    1.30
  -3   6   2   50.43    1.67
   3  -6  -2   50.16    1.45
   3  -6  -2   52.16    1.38
  -1   6   1   19.98    0.50
  -1   6   1   20.05    0.49
  -1   6   1   17.76    0.93
   1  -6  -1   19.56    0.74
   1   6   0    9.65    0.66
  -1  -6   0   10.93    0.66
  -1  -6   0   10.49    0.42
   3   6  -1   31.36    1.11
   3   6  -1   30.13    1.52
  -3  -6   1   30.49    1.06
   5   6  -2   38.13    1.25
  -5  -6   2   39.37    1.20
   7   6  -3    0.28    0.26
 -12   5   7    1.45    0.50
  12  -5  -7    0.82    0.57
 -10   5   6    0.95    0.40
  10  -5  -6    0.67    0.46
  10  -5  -6    0.34    0.39
  -8   5   5   29.39    1.24
   8  -5  -5   28.87    1.03
   8  -5  -5   30.75    1.57
   8  -5  -5   28.82    1.39
  -6   5   4   80.56    2.00
  -6   5   4   77.14    1.83
   6  -5  -4   74.43    1.95
   6  -5  -4   78.24    2.27
   6  -5  -4   76.19    1.83
  -4   5   3    6.54    0.48
  -4   5   3    7.48    0.55
  -4   5   3    6.77    0.73
   4  -5  -3    7.48    0.65
   4  -5  -3    6.94    0.50
  -2   5   2   66.43    1.39
  -2   5   2   67.54    1.81
   2  -5  -2   65.09    1.56
   2  -5  -2   64.13    1.44
   0   5   1    3.78    0.48
   0  -5  -1    3.75    0.33
   0  -5  -1    3.56    0.45
   2   5   0   13.33    0.70
  -2  -5   0   12.92    0.66
   4   5  -1   88.14    1.90
   4   5  -1   86.33    2.58
  -4  -5   1   86.15    1.80
   6   5  -2   24.55    1.01
  -6  -5   2   25.83    0.98
   8   5  -3    4.10    0.59
 -11   4   7    1.31    0.48
  11  -4  -7    0.78    0.53
  -9   4   6    8.24    0.82
   9  -4  -6    7.77    1.00
   9  -4  -6    6.87    0.90
  -7   4   5   66.55    1.73
   7  -4  -5   68.52    2.07
   7  -4  -5   62.46    2.04
   7  -4  -5   66.74    1.47
  -5   4   4   35.45    1.20
  -5   4   4   36.11    1.12
   5  -4  -4   36.18    1.40
   5  -4  -4   36.37    1.13
  -3   4   3    2.96    0.37
  -3   4   3    2.10    0.30
   3  -4  -3    1.77    0.31
   3  -4  -3    2.36    0.32
  -1   4   2    1.44    0.22
  -1   4   2    1.34    0.32
  -1   4   2    1.21    0.22
   1  -4  -2    1.79    0.26
   1  -4  -2    2.19    0.34
   1   4   1    6.23    0.48
  -1  -4  -1    5.64    0.52
  -1  -4  -1    6.16    0.30
   3   4   0    2.21    0.35
   3   4   0    2.64    0.48
  -3  -4   0    2.93    0.37
   5   4  -1   42.20    1.28
   5   4  -1   44.19    1.80
  -5  -4   1   43.61    1.24
   7   4  -2    7.37    0.73
  -7  -4   2    7.85    0.70
   9   4  -3    3.66    0.61
 -10   3   7    0.12    0.27
  10  -3  -7   -0.03    0.34
  10  -3  -7    0.30    0.35
  -8   3   6   13.47    0.80
   8  -3  -6   14.75    1.02
   8  -3  -6   15.57    1.08
  -6   3   5   29.83    1.04
   6  -3  -5   29.76    0.87
   6  -3  -5   29.19    1.27
   6  -3  -5   32.75    1.36
  -4   3   4   17.18    0.76
  -4   3   4   17.79    0.71
   4  -3  -4   18.65    0.74
   4  -3  -4   17.10    0.89
  -2   3   3   40.67    1.09
   2  -3  -3   40.87    1.09
   2  -3  -3   42.42    1.03
   0   3   2   12.21    0.51
   0   3   2   11.72    0.45
   0   3   2   11.51    0.62
   0  -3  -2   11.07    0.58
   0  -3  -2   11.79    0.47
   2   3   1   64.11    1.47
  -2  -3  -1   64.36    0.95
  -2  -3  -1   63.62    1.42
   4   3   0    0.42    0.21
   4   3   0    0.30    0.25
  -4  -3   0    0.49    0.20
   6   3  -1    0.93    0.40
   6   3  -1    0.81    0.28
   6   3  -1    1.50    0.37
  -6  -3   1    1.39    0.31
   8   3  -2    2.06    0.48
   8   3  -2    2.01    0.46
  -8  -3   2    2.30    0.44
  10   3  -3    3.99    0.67
  10   3  -3    4.33    0.71
  11  -2  -8    1.63    0.57
   9  -2  -7    7.91    0.94
   9  -2  -7    8.72    1.07
   7  -2  -6   13.68    0.99
   7  -2  -6   12.23    0.86
  -5   2   5   25.94    0.87
   5  -2  -5   25.70    1.09
   5  -2  -5   26.39    0.70
  -3   2   4    3.88    0.40
  -3   2   4    3.59    0.35
   3  -2  -4    3.17    0.33
   3  -2  -4    3.00    0.49
  -1   2   3   28.20    0.82
   1  -2  -3   29.42    0.84
   1  -2  -3   29.87    0.95
   1  -2  -3   29.57    0.79
   1   2   2  129.98    1.78
   1   2   2  130.25    1.90
   1   2   2  128.60    2.47
  -1  -2  -2  129.49    1.83
  -1  -2  -2  125.49    2.13
   3   2   1  183.13    2.85
   3   2   1  180.88    3.16
  -3  -2  -1  176.86    2.76
  -3  -2  -1  183.44    2.07
   5   2   0    3.79    0.48
   5   2   0    3.37    0.45
   5   2   0    4.29    0.66
  -5  -2   0    3.09    0.42
   7   2  -1    4.07    0.74
   7   2  -1    6.20    0.68
  -7  -2   1    5.91    0.62
   9   2  -2    5.76    0.74
  -9  -2   2    6.00    0.72
  10  -1  -8   35.71    1.70
   8  -1  -7   26.28    1.28
   8  -1  -7   27.52    1.54
   6  -1  -6   13.59    0.94
   6  -1  -6   12.43    0.78
  -4   1   5    1.34    0.22
   4  -1  -5    1.90    0.36
   4  -1  -5    1.38    0.16
   4  -1  -5    1.76    0.23
  -2   1   4   87.39    1.49
   2  -1  -4   88.30    1.53
   0   1   3    2.65    0.28
   0  -1  -3    3.41    0.32
   0  -1  -3    3.10    0.37
   2   1   2  208.19    3.09
   2   1   2  208.70    2.57
   2   1   2  213.44    2.72
  -2  -1  -2  217.79    2.65
  -2  -1  -2  206.75    3.02
   4   1   1    4.57    0.50
   4   1   1    3.70    0.50
   4   1   1    4.31    0.49
  -4  -1  -1    3.74    0.44
  -4  -1  -1    3.88    0.23
   6   1   0   10.46    0.71
   6   1   0   11.55    1.04
  -6  -1   0   11.80    0.38
   8   1  -1   23.56    1.17
  10   1  -2   15.56    1.11
  -9   0   8   37.45    1.22
   9   0  -8   37.93    1.95
   9   0  -8   34.53    1.50
  -7   0   7   19.48    0.73
   7   0  -7   18.48    1.21
   7   0  -7   19.16    1.00
  -5   0   6    8.03    0.40
   5   0  -6    8.61    0.86
   5   0  -6    7.30    0.56
  -3   0   5   17.75    0.73
  -3   0   5   17.09    0.53
   3   0  -5   15.63    0.72
  -1   0   4    2.17    0.23
   1   0  -4    1.67    0.21
   1   0  -4    2.09    0.31
   1   0   3    0.57    0.16
   1   0   3    0.75    0.16
   1   0   3    0.73    0.16
  -1   0  -3    0.45    0.14
  -1   0  -3    0.55    0.18
   3   0   2   16.12    0.74
   3   0   2   15.27    0.72
   3   0   2   14.97    0.69
   3   0   2   16.95    0.59
   3   0   2   15.77    0.51
  -3   0  -2   16.08    0.71
  -3   0  -2   14.82    0.52
   5   0   1   33.89    1.20
   5   0   1   35.89    1.33
  -5   0  -1   33.11    0.80
   7   0   0   36.07    1.39
  -7   0   0   37.80    0.94
   9   0  -1    5.53    0.76
  -9   0   1    7.01    0.50
  11   0  -2   14.03    1.28
 -11   0   2   15.95    0.89
  10   1  -9    4.07    0.71
   8   1  -8   11.95    1.35
   8   1  -8   13.64    0.90
   6   1  -7    2.64    0.43
   6   1  -7    2.12    0.55
   4   1  -6   50.98    1.35
  -2  -1   5   59.17    1.31
  -2  -1   5   58.90    1.02
  -2  -1   5   58.87    0.95
   2   1  -5   56.27    1.32
   0  -1   4    2.60    0.13
   0  -1   4    3.08    0.26
   0   1  -4    3.29    0.36
   0   1  -4    3.04    0.29
   2  -1   3    4.97    0.37
   2  -1   3    5.57    0.35
   2  -1   3    5.02    0.33
  -2   1  -3    5.35    0.36
  -2   1  -3    4.89    0.38
  -2   1  -3    4.91    0.47
  -2   1  -3    5.18    0.33
   4  -1   2    1.79    0.36
   4  -1   2    2.82    0.34
   4  -1   2    1.70    0.22
  -4   1  -2    2.05    0.26
   6  -1   1    1.48    0.37
  -6   1  -1    1.20    0.22
   8  -1   0    6.79    0.75
  -8   1   0    8.02    0.53
  10  -1  -1   15.89    1.15
 -10   1   1   18.45    0.91
  12  -1  -2    1.51    0.55
 -12   1   2    1.11    0.44
   9   2  -9    0.21    0.27
   7   2  -8    3.27    0.49
   7   2  -8    2.87    0.67
   5   2  -7    0.62    0.23
   5   2  -7    1.10    0.40
  -3  -2   6   99.00    1.83
  -3  -2   6   98.82    2.05
   3   2  -6   99.05    1.85
  -1  -2   5   87.24    1.64
   1   2  -5   85.14    1.69
   1  -2   4   57.60    1.24
   1  -2   4   59.03    1.10
  -1   2  -4   56.73    1.15
  -1   2  -4   60.13    1.31
  -1   2  -4   57.10    0.83
   3  -2   3   58.99    1.29
   3  -2   3   59.50    1.37
  -3   2  -3   60.77    1.25
  -3   2  -3   59.59    1.47
  -3   2  -3   57.74    1.37
  -3   2  -3   61.16    1.37
   5  -2   2   50.97    1.57
   5  -2   2   50.22    1.25
   5  -2   2   49.57    1.14
  -5   2  -2   49.17    1.21
  -5   2  -2   50.70    1.34
   7  -2   1    0.38    0.29
  -7   2  -1    0.52    0.21
   9  -2   0   10.76    1.04
  -9   2   0   10.68    0.69
  11  -2  -1    0.75    0.45
 -11   2   1    1.26    0.39
   8   3  -9    2.40    0.46
   6   3  -8   27.13    1.51
   6   3  -8   27.84    1.04
   4   3  -7    1.85    0.46
   4   3  -7    2.48    0.35
  -2  -3   6   25.14    0.81
   2   3  -6   25.07    0.85
   0  -3   5    5.76    0.26
   0  -3   5    5.36    0.40
   0   3  -5    5.73    0.17
   0   3  -5    5.27    0.50
   2  -3   4   13.37    0.61
   2  -3   4   14.98    0.55
  -2   3  -4   13.50    0.56
  -2   3  -4   14.56    0.68
   4  -3   3  134.79    2.31
   4  -3   3  136.70    2.16
   4  -3   3  129.98    2.39
  -4   3  -3  135.66    2.24
  -4   3  -3  143.85    2.71
  -4   3  -3  135.09    2.38
   6  -3   2   53.52    1.33
   6  -3   2   59.22    1.81
  -6   3  -2   55.86    1.54
  -6   3  -2   56.36    1.42
   8  -3   1   16.08    1.04
   8  -3   1   14.17    0.47
  -8   3  -1   14.75    0.79
  10  -3   0    0.24    0.31
 -10   3   0   -0.23    0.19
  12  -3  -1    1.00    0.54
 -12   3   1    0.50    0.39
   7   4  -9   19.88    1.48
   7   4  -9   17.84    0.87
   5   4  -8   21.51    1.34
   5   4  -8   19.18    0.81
   3   4  -7    0.27    0.27
   3   4  -7    0.30    0.16
  -1  -4   6   11.65    0.58
   1   4  -6   11.63    0.62
   1   4  -6   11.72    0.46
   1  -4   5   22.44    0.76
   1  -4   5   22.67    0.60
  -1   4  -5   22.82    0.92
   3  -4   4    5.78    0.43
   3  -4   4    4.58    0.48
   3  -4   4    5.73    0.39
  -3   4  -4    6.89    0.63
  -3   4  -4    4.77    0.57
  -3   4  -4    6.16    0.45
  -3   4  -4    5.81    0.41
   5  -4   3   72.50    1.57
   5  -4   3   76.63    1.83
   5  -4   3   73.28    1.68
  -5   4  -3   74.09    1.75
  -5   4  -3   75.06    1.64
   7  -4   2   22.05    0.88
   7  -4   2   21.15    1.17
  -7   4  -2   22.61    0.97
  -7   4  -2   21.96    1.05
   9  -4   1    2.62    0.58
   9  -4   1    3.01    0.32
  -9   4  -1    2.82    0.47
  11  -4   0   27.20    1.62
 -11   4   0   24.99    1.26
  13  -4  -1    3.10    0.84
 -13   4   1    3.47    0.67
   6   5  -9   19.88    0.86
   6   5  -9   19.47    1.43
   4   5  -8   35.20    1.63
   4   5  -8   35.00    1.07
   2   5  -7    3.99    0.44
   0   5  -6    0.32    0.20
   2  -5   5   68.82    1.57
   2  -5   5   66.13    1.30
  -2   5  -5   67.97    0.94
  -2   5  -5   68.69    0.95
  -2   5  -5   66.25    1.77
   4  -5   4    5.53    0.58
   4  -5   4    6.92    0.52
   4  -5   4    6.03    0.45
  -4   5  -4    6.00    0.52
  -4   5  -4    5.95    0.56
  -4   5  -4    6.39    0.70
   6  -5   3    7.56    0.73
   6  -5   3    7.55    0.83
   6  -5   3    8.23    0.60
   6  -5   3    7.48    0.53
  -6   5  -3    7.91    0.72
  -6   5  -3    7.62    0.55
   8  -5   2   12.74    1.00
   8  -5   2   11.78    0.70
  -8   5  -2   10.95    0.75
  -8   5  -2   12.61    0.86
  10  -5   1   10.83    0.57
  10  -5   1   12.40    1.26
 -10   5  -1   11.86    0.87
  12  -5   0   26.64    1.74
 -12   5   0   26.92    1.40
   5   6  -9   48.27    1.29
   5   6  -9   48.31    2.10
   3   6  -8   21.34    1.24
   3   6  -8   22.72    0.88
   1   6  -7    4.62    0.52
   1  -6   6   40.10    0.83
  -1   6  -6   40.29    1.35
   3  -6   5   69.68    1.96
   3  -6   5   66.79    1.45
  -3   6  -5   70.35    1.96
  -3   6  -5   68.56    1.19
   5  -6   4    4.26    0.53
   5  -6   4    5.59    0.68
   5  -6   4    3.61    0.45
  -5   6  -4    3.87    0.62
  -5   6  -4    4.77    0.56
   7  -6   3    1.04    0.35
   7  -6   3    1.17    0.30
   7  -6   3    0.86    0.29
  -7   6  -3    1.69    0.36
  -7   6  -3    0.62    0.29
   9  -6   2    6.11    1.29
   9  -6   2    6.02    0.65
  -9   6  -2    5.86    0.74
  -9   6  -2    5.35    0.66
  11  -6   1   -0.24    0.17
  11  -6   1    0.30    0.40
 -11   6  -1    0.40    0.33
  13  -6   0    4.80    1.01
 -13   6   0    5.93    0.88
   6   7 -10    2.00    0.32
   4   7  -9   10.77    0.64
   2   7  -8    4.15    0.52
   0   7  -7    5.08    0.58
   2  -7   6  164.91    2.44
  -2   7  -6  163.87    3.21
   4  -7   5    6.86    0.52
  -4   7  -5    7.49    0.83
  -4   7  -5    6.55    0.41
   6  -7   4    1.77    0.39
   6  -7   4    2.23    0.46
   6  -7   4    2.32    0.38
  -6   7  -4    1.81    0.50
  -6   7  -4    2.69    0.44
   8  -7   3   10.54    0.91
  -8   7  -3   12.14    1.04
  10  -7   2   14.26    0.90
 -10   7  -2   14.72    1.00
 -10   7  -2   15.63    1.32
  12  -7   1   -0.18    0.19
 -12   7  -1    0.48    0.40
   5   8 -10    0.37    0.23
   3   8  -9    0.35    0.25
   1   8  -8    8.13    0.76
   1  -8   7    1.21    0.20
  -1   8  -7    0.96    0.34
   3  -8   6   33.07    1.05
  -3   8  -6   32.38    1.43
   5  -8   5   41.21    1.36
  -5   8  -5   44.18    1.79
  -5   8  -5   43.00    1.15
   7  -8   4    4.17    0.56
   7  -8   4    1.96    0.44
   7  -8   4    2.32    0.53
  -7   8  -4    2.82    0.48
   9  -8   3   34.04    1.48
  -9   8  -3   34.38    1.51
  11  -8   2    7.64    0.83
 -11   8  -2    7.95    0.98
  13  -8   1    0.43    0.27
   2   9  -9   15.16    0.91
   0   9  -8   18.81    1.07
   2  -9   7    0.63    0.21
  -2   9  -7    0.49    0.33
   4  -9   6   49.55    1.48
  -4   9  -6   53.10    1.98
   6  -9   5    1.62    0.38
  -6   9  -5    2.10    0.57
  -6   9  -5    1.44    0.33
   8  -9   4   16.98    1.02
   8  -9   4   20.07    1.20
  -8   9  -4   18.95    1.05
  10  -9   3   14.70    1.05
 -10   9  -3   15.13    1.29
  12  -9   2    1.16    0.44
 -12   9  -2    1.26    0.58
   1  10  -9   26.21    1.31
  -1  10  -8   16.33    1.10
   3 -10   7    4.75    0.54
  -3  10  -7    3.88    0.68
   5 -10   6   10.52    0.76
  -5  10  -6   10.35    1.16
   7 -10   5   11.30    1.01
  -7  10  -5    8.27    1.12
  -7  10  -5    8.41    0.71
   9 -10   4   19.88    1.30
  -9  10  -4   21.17    1.18
  11 -10   3    1.21    0.48
 -11  10  -3    0.58    0.45
   0  11  -9   16.78    1.15
   2 -11   8    4.96    0.56
  -2  11  -8    4.35    0.71
   4 -11   7    5.14    0.64
  -4  11  -7    4.06    0.78
   6 -11   6   29.51    1.37
  -6  11  -6   32.00    1.82
   8 -11   5   15.04    1.06
  -8  11  -5   14.21    0.85
  10 -11   4    1.13    0.48
 -10  11  -4    0.69    0.42
  12 -11   3    0.62    0.47
 -12  11  -3   -0.19    0.42
  -1  12  -9    0.99    0.48
   3 -12   8    4.85    0.64
  -3  12  -8    5.09    0.85
   5 -12   7   10.55    0.99
  -5  12  -7   13.46    1.44
   7 -12   6   37.42    1.66
  -7  12  -6   37.72    2.12
   9 -12   5    4.54    0.75
  -9  12  -5    3.78    0.57
  11 -12   4    1.48    0.58
 -11  12  -4    0.38    0.45
   4 -13   8   -0.03    0.29
  -4  13  -8    0.21    0.45
   6 -13   7    3.39    0.68
  -6  13  -7    3.31    0.86
   8 -13   6    6.89    0.96
  -8  12   2   26.37    1.23
   6 -12  -1    0.83    0.41
  -4  12   0    3.00    0.76
   4 -12   0    5.05    0.76
  -2  12  -1    3.74    0.78
   2 -12   1    2.43    0.57
  -9  11   3   13.39    1.21
   9 -11  -3   14.98    1.38
  -7  11   2    1.57    0.41
   7 -11  -2    1.95    0.53
  -5  11   1    5.50    0.92
   5 -11  -1    5.44    0.73
  -3  11   0   19.14    1.36
   3 -11   0   17.18    1.07
  -1  11  -1    2.97    0.68
   1 -11   1    3.34    0.54
   1  11  -2    1.72    0.54
 -10  10   4    0.18    0.40
  10 -10  -4   -0.10    0.35
  -8  10   3    0.03    0.30
   8 -10  -3   -0.19    0.30
  -6  10   2    7.09    0.69
   6 -10  -2    7.03    0.81
  -4  10   1   18.04    1.29
   4 -10  -1   16.81    0.99
  -2  10   0   81.47    2.57
   2 -10   0   80.85    2.12
   0  10  -1    7.28    0.87
   0 -10   1    8.38    0.73
   2  10  -2   10.38    1.00
 -11   9   5    1.46    0.63
  11  -9  -5    1.90    0.51
  -9   9   4    0.88    0.47
   9  -9  -4    0.45    0.35
  -7   9   3    1.02    0.41
   7  -9  -3    1.21    0.44
  -5   9   2    9.17    1.05
  -5   9   2   11.74    0.71
   5  -9  -2   12.04    0.84
  -3   9   1   30.45    1.53
   3  -9  -1   29.78    1.21
  -1   9   0   15.50    1.07
   1  -9   0   15.62    0.82
   1   9  -1    7.54    0.83
  -1  -9   1    9.24    0.59
   3   9  -2   22.09    1.16
 -10   8   5    4.37    0.80
  10  -8  -5    4.72    0.67
  -8   8   4   12.80    1.13
   8  -8  -4   13.30    0.95
  -6   8   3   27.13    1.20
   6  -8  -3   27.12    1.28
   6  -8  -3   27.75    1.20
  -4   8   2    9.28    0.98
  -4   8   2    7.96    0.56
   4  -8  -2    9.22    0.80
  -2   8   1    2.72    0.57
   2  -8  -1    2.38    0.41
   0   8   0    3.47    0.59
   0  -8   0    3.11    0.40
   2   8  -1    6.61    0.74
   4   8  -2    8.43    0.79
 -11   7   6    6.33    0.87
  11  -7  -6    7.91    0.56
  -9   7   5    5.19    0.90
  -9   7   5    3.25    0.58
   9  -7  -5    3.31    0.56
  -7   7   4    6.56    0.77
   7  -7  -4    5.32    0.66
  -5   7   3   29.68    1.18
   5  -7  -3   30.12    1.17
   5  -7  -3   28.93    1.23
  -3   7   2    3.55    0.59
  -3   7   2    4.21    0.44
   3  -7  -2    3.59    0.46
  -1   7   1    3.35    0.56
   1  -7  -1    4.01    0.45
   1   7   0   25.99    1.17
  -1  -7   0   27.67    0.83
   3   7  -1    0.73    0.29
  -3  -7   1    1.05    0.31
   5   7  -2   15.60    0.89
  -5  -7   2   15.36    0.82
 -12   6   7    0.84    0.48
  12  -6  -7   -0.21    0.50
 -10   6   6    1.35    0.47
  10  -6  -6    1.93    0.33
  10  -6  -6    1.85    0.62
  -8   6   5   11.14    1.16
  -8   6   5   11.86    0.85
   8  -6  -5   10.92    0.74
   8  -6  -5   11.00    1.04
  -6   6   4   64.52    1.85
  -6   6   4   63.02    1.71
   6  -6  -4   64.38    1.77
   6  -6  -4   62.26    1.78
  -4   6   3   74.23    1.79
  -4   6   3   74.09    2.18
   4  -6  -3   72.83    1.76
   4  -6  -3   72.98    1.86
  -2   6   2    1.36    0.24
  -2   6   2    1.04    0.35
  -2   6   2    0.84    0.21
   2  -6  -2    1.05    0.26
   0   6   1   30.41    1.21
   0  -6  -1   30.02    1.14
   0  -6  -1   29.79    0.91
   2   6   0   53.63    1.56
  -2  -6   0   55.21    1.53
   4   6  -1    7.41    0.68
  -4  -6   1    8.09    0.60
   6   6  -2    0.41    0.27
  -6  -6   2    1.21    0.32
 -11   5   7   29.89    1.51
  11  -5  -7   31.29    3.17
  11  -5  -7   27.80    1.77
  -9   5   6    1.81    0.46
   9  -5  -6    2.07    0.65
   9  -5  -6    1.49    0.26
   9  -5  -6    2.25    0.59
  -7   5   5    3.53    0.56
  -7   5   5    3.63    0.51
   7  -5  -5    3.48    0.48
   7  -5  -5    3.53    0.63
   7  -5  -5    3.99    0.61
  -5   5   4   57.87    1.64
  -5   5   4   61.76    1.57
   5  -5  -4   59.38    1.48
   5  -5  -4   59.26    1.61
   5  -5  -4   61.26    1.93
  -3   5   3   11.45    0.64
  -3   5   3   13.03    0.84
   3  -5  -3   12.39    0.65
   3  -5  -3   12.85    0.71
  -1   5   2   25.36    1.08
  -1   5   2   25.95    0.72
  -1   5   2   25.00    0.81
   1  -5  -2   24.66    0.84
   1   5   1   92.25    2.05
  -1  -5  -1   93.14    1.55
  -1  -5  -1   91.31    1.99
   3   5   0   93.19    2.04
   3   5   0   96.04    2.61
  -3  -5   0   90.57    1.96
   5   5  -1    1.31    0.34
  -5  -5   1    0.79    0.28
   7   5  -2    7.83    0.75
  -7  -5   2    8.24    0.74
 -10   4   7   39.75    1.59
  10  -4  -7   43.14    2.02
  10  -4  -7   42.31    2.01
  -8   4   6   47.43    1.57
   8  -4  -6   46.84    1.02
   8  -4  -6   48.00    1.89
   8  -4  -6   49.57    1.91
  -6   4   5   15.16    0.85
  -6   4   5   14.38    0.77
   6  -4  -5   13.55    0.70
   6  -4  -5   15.29    0.99
   6  -4  -5   14.50    0.90
  -4   4   4    5.93    0.53
  -4   4   4    6.03    0.60
   4  -4  -4    5.66    0.55
   4  -4  -4    5.39    0.47
   4  -4  -4    6.18    0.70
  -2   4   3   11.64    0.73
  -2   4   3   11.57    0.59
   2  -4  -3   10.78    0.56
   2  -4  -3   11.28    0.61
   0   4   2    1.03    0.21
   0   4   2    0.92    0.15
   0   4   2    1.09    0.29
   0  -4  -2    0.75    0.25
   0  -4  -2    1.21    0.21
   2   4   1   62.14    1.56
  -2  -4  -1   60.29    1.50
  -2  -4  -1   60.80    1.06
   4   4   0   10.78    1.03
   4   4   0   11.13    0.68
  -4  -4   0   10.87    0.64
   6   4  -1    5.52    0.64
  -6  -4   1    6.95    0.65
   8   4  -2   16.94    1.01
 -11   3   8    4.52    0.70
  11  -3  -8    3.32    0.73
  -9   3   7   25.38    1.17
   9  -3  -7   24.23    1.50
   9  -3  -7   23.17    1.36
  -7   3   6   72.71    1.81
   7  -3  -6   75.84    2.26
   7  -3  -6   75.62    1.13
   7  -3  -6   75.59    2.29
  -5   3   5   18.25    0.80
  -5   3   5   19.67    0.89
   5  -3  -5   19.63    1.04
   5  -3  -5   19.88    0.76
  -3   3   4   10.91    0.55
  -3   3   4   11.21    0.60
   3  -3  -4   10.74    0.59
   3  -3  -4   10.89    0.53
  -1   3   3   68.87    1.41
   1  -3  -3   68.81    1.63
   1  -3  -3   68.61    1.39
   1  -3  -3   70.17    1.49
   1   3   2   10.87    0.34
   1   3   2   10.86    0.63
   1   3   2   10.78    0.44
  -1  -3  -2   11.47    0.62
  -1  -3  -2   11.26    0.46
   3   3   1  114.39    2.23
   3   3   1  123.47    2.66
  -3  -3  -1  118.39    2.22
  -3  -3  -1  123.01    1.57
   5   3   0   25.62    1.04
   5   3   0   25.02    1.32
  -5  -3   0   26.51    1.01
   7   3  -1    8.87    0.81
   7   3  -1   10.69    0.78
  -7  -3   1   10.01    0.71
   9   3  -2   27.97    1.37
   9   3  -2   28.23    1.36
 -10   2   8    3.20    0.56
  10  -2  -8    3.54    0.75
  -8   2   7    2.71    0.44
   8  -2  -7    2.04    0.53
   8  -2  -7    2.37    0.53
  -6   2   6   44.72    1.27
   6  -2  -6   45.01    1.59
   6  -2  -6   42.91    1.64
  -4   2   5   27.06    0.96
  -4   2   5   25.55    0.86
   4  -2  -5   26.46    0.82
   4  -2  -5   26.29    1.10
  -2   2   4  296.28    3.79
  -2   2   4  303.49    3.95
   2  -2  -4  301.45    3.90
   0   2   3  158.58    2.35
   0   2   3  159.83    2.35
   0  -2  -3  157.77    2.31
   0  -2  -3  161.71    2.44
   0  -2  -3  158.81    2.62
   2   2   2   60.06    1.56
   2   2   2   59.25    0.85
   2   2   2   59.55    1.46
   2   2   2   59.72    1.06
  -2  -2  -2   57.75    1.41
  -2  -2  -2   58.81    1.11
   4   2   1    0.34    0.23
   4   2   1    0.43    0.22
  -4  -2  -1    0.41    0.21
  -4  -2  -1    0.28    0.09
   6   2   0   12.86    0.81
   6   2   0   13.16    1.19
   6   2   0   15.06    0.86
  -6  -2   0   13.73    0.78
   8   2  -1    4.46    0.63
  -8  -2   1    6.39    0.72
  10   2  -2   20.71    1.28
  11  -1  -9    5.33    0.85
   9  -1  -8    0.13    0.29
   9  -1  -8   -0.13    0.32
   7  -1  -7    2.77    0.60
   7  -1  -7    2.46    0.49
  -5   1   6    0.18    0.13
   5  -1  -6    0.26    0.21
  -3   1   5   96.74    1.70
   3  -1  -5   96.98    1.62
   3  -1  -5   99.32    2.10
  -1   1   4   35.86    0.90
  -1   1   4   36.70    0.97
   1  -1  -4   38.50    1.10
   1  -1  -4   35.22    0.94
   1   1   3  147.07    2.20
   1   1   3  153.15    2.33
  -1  -1  -3  156.98    2.51
  -1  -1  -3  150.10    2.27
  -1  -1  -3  153.27    2.19
   3   1   2   37.34    1.22
   3   1   2   39.88    0.85
   3   1   2   40.39    0.67
   3   1   2   38.90    1.20
  -3  -1  -2   39.92    0.89
  -3  -1  -2   38.66    1.14
   5   1   1   75.19    2.09
   5   1   1   73.24    1.87
   5   1   1   75.01    1.89
  -5  -1  -1   75.68    1.27
  -5  -1  -1   75.26    1.83
   7   1   0   49.79    1.64
   7   1   0   47.21    1.92
  -7  -1   0   49.56    1.05
  -7  -1   0   50.39    1.59
   9   1  -1    0.84    0.39
  -9  -1   1    0.75    0.34
  11   1  -2    0.73    0.44
  10   0  -9    6.80    0.90
   8   0  -8    8.95    0.90
   8   0  -8   12.94    1.34
   6   0  -7   33.25    1.29
   6   0  -7   34.62    1.56
  -4   0   6   25.08    0.73
   4   0  -6   23.66    0.99
  -2   0   5   59.66    1.18
   2   0  -5   62.04    1.51
   2   0  -5   61.23    1.13
   0   0   4   45.73    1.06
   0   0   4   46.69    1.00
   0   0  -4   44.42    1.05
   0   0  -4   45.14    1.18
   2   0   3   11.50    0.55
   2   0   3   13.06    0.53
   2   0   3   11.83    0.56
  -2   0  -3   11.75    0.61
  -2   0  -3   13.10    0.52
  -2   0  -3   12.72    0.55
   4   0   2   39.56    1.29
   4   0   2   37.91    1.27
   4   0   2   38.13    0.89
   4   0   2   38.86    0.75
   4   0   2   36.19    1.23
  -4   0  -2   38.87    0.93
  -4   0  -2   38.02    1.22
   6   0   1   97.81    2.30
   6   0   1  101.20    2.56
  -6   0  -1   97.84    1.70
   8   0   0   71.22    2.16
  -8   0   0   74.82    1.57
  10   0  -1    0.65    0.37
 -10   0   1    0.32    0.23
   9   1  -9    6.44    0.77
   7   1  -8   13.18    0.84
   7   1  -8   17.09    1.28
  -5  -1   7   42.15    0.86
   5   1  -7   42.64    1.35
   5   1  -7   40.84    1.64
  -3  -1   6   19.37    0.65
  -3  -1   6   19.29    0.54
   3   1  -6   21.00    0.85
  -1  -1   5   12.19    0.60
  -1  -1   5   11.86    0.45
   1   1  -5   12.50    0.44
   1   1  -5   13.27    0.60
   1   1  -5   11.79    0.63
   1  -1   4    0.78    0.17
   1  -1   4    0.55    0.20
   1  -1   4    0.83    0.15
   1  -1   4    1.00    0.20
  -1   1  -4    0.81    0.23
  -1   1  -4    1.31    0.24
   3  -1   3   17.81    0.71
   3  -1   3   16.88    0.64
   3  -1   3   17.53    0.72
  -3   1  -3   16.60    0.67
  -3   1  -3   18.68    0.65
  -3   1  -3   18.94    0.83
   5  -1   2   10.76    0.72
   5  -1   2   11.26    0.52
   5  -1   2   11.05    0.44
  -5   1  -2   11.39    0.54
   7  -1   1   35.84    1.45
  -7   1  -1   38.82    1.09
   9  -1   0   36.56    1.62
  -9   1   0   33.99    1.17
  11  -1  -1    8.21    1.03
 -11   1   1    7.91    0.79
   8   2  -9    2.29    0.71
   8   2  -9    0.60    0.35
   6   2  -8   42.45    1.39
   6   2  -8   45.01    1.93
   4   2  -7   59.61    1.52
  -2  -2   6   50.84    0.80
  -2  -2   6   47.76    1.24
   2   2  -6   48.97    1.31
   0  -2   5   48.23    0.96
   0  -2   5   48.11    1.24
   0   2  -5   47.42    1.18
   0   2  -5   47.70    1.29
   0   2  -5   48.58    0.94
   2  -2   4   98.82    1.86
   2  -2   4   98.89    1.67
   2  -2   4   97.60    1.76
  -2   2  -4  101.42    1.58
  -2   2  -4   99.87    1.96
  -2   2  -4   98.92    1.81
   4  -2   3    3.48    0.43
   4  -2   3    3.18    0.38
  -4   2  -3    3.45    0.46
  -4   2  -3    3.17    0.36
  -4   2  -3    3.45    0.40
   6  -2   2    4.02    0.37
   6  -2   2    3.87    0.60
  -6   2  -2    4.64    0.47
   8  -2   1    0.38    0.28
  -8   2  -1    0.19    0.20
  10  -2   0    0.68    0.41
 -10   2   0    1.08    0.34
  12  -2  -1   22.56    1.55
 -12   2   1   22.77    1.23
   9   3 -10    0.10    0.29
   7   3  -9    0.24    0.47
   7   3  -9    0.52    0.28
   5   3  -8   21.20    1.29
   5   3  -8   23.66    0.95
   3   3  -7    1.52    0.30
  -1  -3   6    9.37    0.54
  -1  -3   6   10.22    0.30
   1   3  -6    9.08    0.57
   1  -3   5  156.68    2.45
   1  -3   5  157.95    2.21
   1  -3   5  153.87    2.87
  -1   3  -5  153.23    2.71
  -1   3  -5  158.69    2.54
  -1   3  -5  154.43    1.76
  -1   3  -5  153.90    2.12
   3  -3   4  277.49    3.73
   3  -3   4  273.73    3.56
   3  -3   4  268.97    3.85
  -3   3  -4  269.99    4.03
  -3   3  -4  266.75    3.73
   5  -3   3   13.58    0.67
   5  -3   3   14.34    0.75
   5  -3   3   14.08    0.86
  -5   3  -3   14.46    0.69
  -5   3  -3   13.88    0.74
   7  -3   2   19.25    0.73
   7  -3   2   19.94    1.14
  -7   3  -2   19.91    0.89
   9  -3   1    0.53    0.34
  -9   3  -1    0.61    0.27
  11  -3   0   16.05    1.27
 -11   3   0   13.51    0.94
  13  -3  -1   16.13    1.65
 -13   3   1   16.35    1.17
   8   4 -10   19.60    1.02
   6   4  -9    5.17    0.87
   6   4  -9    5.44    0.57
   4   4  -8    0.27    0.19
   4   4  -8    0.26    0.32
   2   4  -7    2.37    0.37
   0  -4   6    4.45    0.24
   0  -4   6    5.47    0.53
   0   4  -6    4.80    0.22
   0   4  -6    4.98    0.53
   2  -4   5   69.64    1.37
   2  -4   5   68.70    1.57
  -2   4  -5   68.93    1.29
  -2   4  -5   66.83    1.60
  -2   4  -5   67.65    1.76
   4  -4   4   15.53    0.68
   4  -4   4   16.25    0.75
   4  -4   4   17.49    0.84
  -4   4  -4   15.20    0.84
  -4   4  -4   15.31    0.66
  -4   4  -4   14.97    0.72
  -4   4  -4   15.49    0.77
   6  -4   3   27.00    1.29
   6  -4   3   26.43    1.08
   6  -4   3   27.02    1.01
  -6   4  -3   26.77    1.01
  -6   4  -3   25.00    1.08
   8  -4   2    0.81    0.24
   8  -4   2    1.35    0.43
  -8   4  -2    0.60    0.25
  10  -4   1   25.21    1.51
 -10   4  -1   24.09    1.19
  12  -4   0    7.45    1.11
 -12   4   0    6.44    0.83
   7   5 -10   24.34    1.05
   5   5  -9    0.93    0.48
   5   5  -9    0.45    0.23
   3   5  -8    0.66    0.36
   3   5  -8    0.92    0.25
   1   5  -7   31.72    1.13
   1  -5   6    2.03    0.23
  -1   5  -6    1.69    0.36
   3  -5   5   34.26    1.17
   3  -5   5   33.41    1.08
   3  -5   5   33.84    0.98
  -3   5  -5   32.66    0.93
  -3   5  -5   34.81    1.35
   5  -5   4   16.88    0.83
   5  -5   4   16.69    0.76
   5  -5   4   17.31    0.91
  -5   5  -4   16.56    1.02
  -5   5  -4   16.17    0.81
   7  -5   3   10.89    1.09
   7  -5   3   10.07    0.74
   7  -5   3   11.99    0.74
  -7   5  -3   11.62    0.73
  -7   5  -3   11.41    0.79
   9  -5   2   38.34    1.23
   9  -5   2   36.75    1.78
  -9   5  -2   37.93    1.44
  11  -5   1   39.80    2.02
 -11   5  -1   36.24    1.56
  13  -5   0   13.51    1.58
 -13   5   0   10.89    1.11
   6   6 -10   13.95    0.78
   4   6  -9    2.37    0.60
   4   6  -9    2.27    0.39
   2   6  -8   20.78    0.91
   2   6  -8   19.65    1.12
   0   6  -7   72.96    1.87
   2  -6   6    1.77    0.26
  -2   6  -6    1.34    0.35
   4  -6   5    2.27    0.39
   4  -6   5    1.84    0.39
   4  -6   5    2.38    0.36
  -4   6  -5    2.33    0.48
  -4   6  -5    1.75    0.30
   6  -6   4   11.11    0.81
   6  -6   4   11.51    0.75
   6  -6   4   11.06    0.68
  -6   6  -4   10.93    0.73
  -6   6  -4   11.30    1.09
   8  -6   3    0.84    0.31
  -8   6  -3    0.94    0.35
  -8   6  -3    0.40    0.26
  10  -6   2   12.81    0.79
 -10   6  -2   15.07    0.98
  12  -6   1   17.93    1.77
 -12   6  -1   15.59    1.12
   5   7 -10    5.73    0.57
   3   7  -9   12.01    0.74
   1   7  -8   40.86    1.39
   1  -7   7   76.81    1.37
  -1   7  -7   76.18    2.08
   3  -7   6    5.82    0.51
  -3   7  -6    6.29    0.75
   5  -7   5   19.05    1.03
   5  -7   5   18.92    0.89
  -5   7  -5   20.82    1.22
  -5   7  -5   21.21    0.88
   7  -7   4    5.55    0.67
   7  -7   4    5.62    0.73
   7  -7   4    5.81    0.64
  -7   7  -4    5.40    0.66
   9  -7   3    0.80    0.33
  -9   7  -3    0.29    0.29
  -9   7  -3    0.32    0.33
  11  -7   2    0.69    0.30
 -11   7  -2    1.14    0.46
 -13   7  -1    1.16    0.52
   4   8 -10    0.32    0.27
   2   8  -9    1.79    0.43
   0   8  -8   60.31    1.87
   2  -8   7    0.21    0.16
  -2   8  -7    0.66    0.34
   4  -8   6    6.35    0.60
  -4   8  -6    6.54    0.83
   6  -8   5    4.02    0.52
  -6   8  -5    3.85    0.48
  -6   8  -5    3.50    0.70
   8  -8   4   36.11    1.52
   8  -8   4   37.94    1.42
   8  -8   4   34.21    1.58
  -8   8  -4   33.62    1.43
  10  -8   3    3.88    0.64
 -10   8  -3    2.48    0.61
  12  -8   2    0.06    0.27
   3   9 -10    9.56    0.75
   1   9  -9    0.29    0.27
   1  -9   8    9.70    0.53
  -1   9  -8    8.77    0.91
   3  -9   7    1.89    0.34
  -3   9  -7    1.55    0.48
   5  -9   6    6.86    0.69
  -5   9  -6    7.66    0.32
  -5   9  -6    5.41    0.83
   7  -9   5   45.22    1.60
  -7   9  -5   43.35    1.46
   9  -9   4   23.28    1.32
  -9   9  -4   21.34    1.22
  11  -9   3   -0.08    0.28
 -11   9  -3    1.12    0.54
  13  -9   2    2.94    0.55
   2  10 -10   20.95    1.15
   0  10  -9    8.13    0.90
   2 -10   8    4.90    0.53
  -2  10  -8    3.88    0.68
   4 -10   7    2.71    0.47
  -4  10  -7    3.09    0.66
   6 -10   6    0.46    0.30
  -6  10  -6    1.06    0.54
  -6  10  -6    1.05    0.21
   8 -10   5    2.46    0.53
  -8  10  -5    1.94    0.43
  10 -10   4    3.91    0.76
 -10  10  -4    2.90    0.63
  12 -10   3    4.92    0.74
 -12  10  -3    6.26    0.97
  -1  11  -9    7.36    0.96
   3 -11   8   12.58    0.81
  -3  11  -8   15.51    1.21
   5 -11   7    6.19    0.73
  -5  11  -7    8.40    1.12
   7 -11   6    0.14    0.30
  -7  11  -6    0.64    0.53
  -7  11  -6    0.31    0.19
   9 -11   5   -0.09    0.28
  -9  11  -5    0.10    0.33
  11 -11   4    0.68    0.41
 -11  11  -4   -0.43    0.35
   2 -12   9    2.65    0.48
  -2  12  -9    2.58    0.69
   4 -12   8   20.82    1.15
  -4  12  -8   17.10    1.59
   6 -12   7    3.05    0.61
  -6  12  -7    2.12    0.73
   8 -12   6    0.19    0.34
 -10  12  -5    7.39    0.90
   5 -13   8   12.27    1.15
  -5  13  -8   12.74    1.48
   7 -13   7    0.84    0.43
  -7  13  -7    0.35    0.61
   9 -13   6    7.59    0.98
  -7  12   2    5.57    0.57
   7 -12  -2    6.00    0.84
  -5  12   1    1.93    0.68
   5 -12  -1    1.26    0.47
  -3  12   0    0.17    0.43
   3 -12   0    0.46    0.34
  -8  11   3    0.52    0.40
   8 -11  -3    0.42    0.45
  -6  11   2   10.80    0.67
   6 -11  -2   11.24    1.08
  -4  11   1    1.45    0.56
   4 -11  -1    1.91    0.49
  -2  11   0   -0.33    0.30
   2 -11   0   -0.12    0.27
   0  11  -1    1.16    0.48
   0 -11   1    0.72    0.35
  -9  10   4   -0.14    0.39
   9 -10  -4    0.56    0.40
  -7  10   3   34.71    1.45
   7 -10  -3   36.07    1.69
   7 -10  -3   36.02    1.65
  -5  10   2   11.03    0.64
  -5  10   2   10.44    1.22
  -5  10   2   11.89    0.66
   5 -10  -2   13.48    0.95
  -3  10   1    6.35    0.90
   3 -10  -1    6.66    0.74
  -1  10   0    6.52    0.89
   1 -10   0    5.17    0.64
   1  10  -1    4.06    0.71
  -1 -10   1    3.59    0.51
 -10   9   5    3.15    0.71
  10  -9  -5    2.69    0.60
  -8   9   4    1.41    0.49
   8  -9  -4    1.45    0.49
  -6   9   3   28.00    1.22
   6  -9  -3   28.71    1.41
   6  -9  -3   25.07    1.24
  -4   9   2   11.16    0.59
  -4   9   2   11.07    1.16
  -4   9   2   13.10    0.62
   4  -9  -2   13.75    0.88
  -2   9   1    1.17    0.46
   2  -9  -1    1.41    0.36
   0   9   0   19.63    1.20
   0  -9   0   21.44    0.96
   2   9  -1   31.28    1.44
   4   9  -2    2.21    0.49
  11  -8  -6    3.24    0.53
  -9   8   5   14.51    1.29
   9  -8  -5   15.16    1.02
  -7   8   4    2.85    0.56
   7  -8  -4    3.74    0.59
  -5   8   3    6.10    0.64
   5  -8  -3    5.93    0.65
   5  -8  -3    5.31    0.70
  -3   8   2    0.23    0.32
  -3   8   2    0.20    0.15
   3  -8  -2    0.00    0.19
  -1   8   1    8.91    0.94
   1  -8  -1    7.68    0.67
   1   8   0   37.91    1.52
  -1  -8   0   40.80    1.16
   3   8  -1   26.25    1.24
   5   8  -2    1.62    0.44
 -10   7   6   11.72    1.07
  10  -7  -6   15.38    0.88
  -8   7   5   26.64    1.36
  -8   7   5   22.66    1.18
   8  -7  -5   23.04    1.15
  -6   7   4    8.32    0.83
   6  -7  -4   10.28    0.91
  -4   7   3    0.39    0.25
  -4   7   3    0.03    0.28
   4  -7  -3    0.58    0.26
   4  -7  -3   -0.02    0.21
  -2   7   2    7.22    0.82
  -2   7   2    6.79    0.46
  -2   7   2    8.05    0.39
   2  -7  -2    7.41    0.66
   0   7   1    3.36    0.56
   0  -7  -1    2.92    0.39
   2   7   0   20.98    1.07
  -2  -7   0   20.18    0.72
  -2  -7   0   18.98    0.97
   4   7  -1   16.74    0.96
  -4  -7   1   16.59    0.90
   6   7  -2    6.06    0.70
 -11   6   7    1.34    0.51
  -9   6   6   33.24    1.46
   9  -6  -6   34.52    1.21
  -7   6   5   15.55    1.00
  -7   6   5   16.92    0.95
   7  -6  -5   16.38    1.11
   7  -6  -5   16.66    0.93
  -5   6   4    4.42    0.58
   5  -6  -4    3.46    0.52
   5  -6  -4    3.62    0.47
  -3   6   3    8.60    0.89
  -3   6   3    9.72    0.60
   3  -6  -3    9.63    0.80
   3  -6  -3    9.38    0.62
  -1   6   2   71.10    1.38
  -1   6   2   76.05    2.06
  -1   6   2   70.93    1.08
   1  -6  -2   73.35    1.64
   1   6   1    0.96    0.33
  -1  -6  -1    1.33    0.34
  -1  -6  -1    1.42    0.25
   3   6   0    0.28    0.32
   3   6   0    0.38    0.27
  -3  -6   0    0.52    0.23
   5   6  -1    0.45    0.29
  -5  -6   1    0.46    0.24
   7   6  -2    3.57    0.57
 -10   5   7    1.57    0.48
  10  -5  -7    1.32    0.54
  10  -5  -7    1.86    0.62
  -8   5   6    6.13    0.72
   8  -5  -6    6.51    0.86
   8  -5  -6    5.83    0.57
   8  -5  -6    5.61    0.87
  -6   5   5    2.56    0.48
  -6   5   5    2.48    0.42
   6  -5  -5    3.00    0.51
   6  -5  -5    2.09    0.52
   6  -5  -5    1.44    0.33
  -4   5   4    5.17    0.56
  -4   5   4    4.89    0.49
   4  -5  -4    5.08    0.57
   4  -5  -4    4.47    0.48
  -2   5   3  144.73    2.44
  -2   5   3  151.84    3.04
   2  -5  -3  146.27    2.53
   2  -5  -3  149.16    2.69
   0   5   2   52.68    1.13
   0   5   2   53.16    1.60
   0   5   2   48.28    0.98
   0  -5  -2   50.16    1.23
   0  -5  -2   49.90    1.50
   2   5   1   18.36    0.92
  -2  -5  -1   19.88    0.92
  -2  -5  -1   19.05    0.63
   4   5   0    0.72    0.27
   4   5   0    0.25    0.32
  -4  -5   0    0.24    0.21
   6   5  -1   24.33    1.12
  -6  -5   1   24.10    1.05
   8   5  -2    4.64    0.66
 -11   4   8   12.71    1.14
  11  -4  -8   12.91    1.41
  -9   4   7    0.49    0.30
   9  -4  -7    0.36    0.38
   9  -4  -7    0.38    0.40
  -7   4   6    0.67    0.27
   7  -4  -6    0.44    0.21
   7  -4  -6    0.46    0.34
   7  -4  -6    0.33    0.33
  -5   4   5    0.03    0.16
  -5   4   5    0.07    0.18
   5  -4  -5    0.26    0.21
   5  -4  -5    0.21    0.27
  -3   4   4    3.70    0.40
  -3   4   4    2.34    0.36
   3  -4  -4    3.34    0.40
   3  -4  -4    3.74    0.45
  -1   4   3   53.79    1.26
  -1   4   3   52.95    1.58
  -1   4   3   53.83    1.25
   1  -4  -3   51.78    1.51
   1  -4  -3   54.70    1.39
   1  -4  -3   51.91    1.27
   1   4   2   43.99    0.75
   1   4   2   47.47    1.43
   1   4   2   47.22    0.77
  -1  -4  -2   45.79    1.07
  -1  -4  -2   46.37    1.37
   3   4   1    0.78    0.35
   3   4   1    1.55    0.34
  -3  -4  -1    1.87    0.36
  -3  -4  -1    1.25    0.18
   5   4   0   26.45    1.10
   5   4   0   22.64    1.36
  -5  -4   0   25.82    1.06
   7   4  -1   13.62    0.92
  -7  -4   1   13.62    0.84
   9   4  -2    2.37    0.59
 -10   3   8   12.43    0.93
  10  -3  -8   12.73    1.30
  10  -3  -8   13.71    1.46
  -8   3   7    1.38    0.34
   8  -3  -7    1.20    0.45
   8  -3  -7    1.44    0.47
  -6   3   6    8.42    0.71
   6  -3  -6    8.08    0.87
   6  -3  -6    6.93    0.44
  -4   3   5   17.90    0.83
  -4   3   5   17.35    0.76
   4  -3  -5   18.00    0.97
   4  -3  -5   18.73    0.78
  -2   3   4    8.99    0.49
  -2   3   4    8.60    0.53
   2  -3  -4    9.19    0.51
   2  -3  -4    8.15    0.53
   0   3   3   86.11    1.59
   0   3   3   89.56    2.00
   0   3   3   89.71    1.72
   0  -3  -3   85.60    1.90
   0  -3  -3   90.51    1.65
   0  -3  -3   89.53    1.76
   2   3   2    3.81    0.48
  -2  -3  -2    3.21    0.41
  -2  -3  -2    2.57    0.28
   4   3   1    2.98    0.54
   4   3   1    2.43    0.40
  -4  -3  -1    3.34    0.27
  -4  -3  -1    3.03    0.45
   6   3   0   43.81    1.89
   6   3   0   46.58    1.54
  -6  -3   0   45.47    1.45
   8   3  -1   18.77    1.11
  -8  -3   1   21.48    1.11
  10   3  -2    2.50    0.58
 -11   2   9   12.94    1.13
  11  -2  -9   16.73    1.53
  -9   2   8    1.86    0.42
   9  -2  -8    2.38    0.60
   9  -2  -8    1.53    0.55
  -7   2   7    1.03    0.28
   7  -2  -7    1.84    0.50
   7  -2  -7    1.06    0.38
  -5   2   6   21.34    0.85
   5  -2  -6   21.17    1.06
   5  -2  -6   21.46    0.68
  -3   2   5   49.31    1.30
  -3   2   5   47.45    1.21
   3  -2  -5   48.88    1.21
   3  -2  -5   49.38    1.50
  -1   2   4   26.12    0.79
  -1   2   4   26.11    0.87
   1  -2  -4   26.97    1.00
   1  -2  -4   26.77    0.88
   1  -2  -4   25.29    0.80
   1   2   3    5.34    0.57
   1   2   3    5.21    0.34
   1   2   3    4.79    0.38
  -1  -2  -3    5.22    0.36
  -1  -2  -3    5.36    0.54
  -1  -2  -3    4.16    0.43
   3   2   2    4.86    0.54
   3   2   2    4.04    0.52
  -3  -2  -2    4.75    0.54
  -3  -2  -2    4.76    0.32
   5   2   1   23.43    1.23
   5   2   1   25.84    1.10
  -5  -2  -1   26.02    0.68
  -5  -2  -1   24.77    1.05
   7   2   0   28.44    1.57
   7   2   0   30.73    1.33
   7   2   0   29.17    1.29
  -7  -2   0   28.10    1.22
   9   2  -1    3.32    0.63
   9   2  -1    2.99    0.59
  -9  -2   1    2.72    0.53
 -10   1   9    2.53    0.52
  10  -1  -9    3.42    0.72
  -8   1   8    9.50    0.68
   8  -1  -8    9.94    1.02
   8  -1  -8   10.96    1.24
  -6   1   7   19.87    0.83
   6  -1  -7   22.00    1.10
   6  -1  -7   22.11    1.23
  -4   1   6  111.87    1.99
   4  -1  -6  114.19    2.44
   4  -1  -6  113.27    1.66
  -2   1   5   25.35    0.86
  -2   1   5   25.73    0.80
   2  -1  -5   25.29    0.80
   2  -1  -5   24.46    0.93
   2  -1  -5   25.68    1.02
   0   1   4   92.78    1.74
   0   1   4   95.50    1.81
   0   1   4   91.61    1.72
   0  -1  -4   94.00    1.64
   0  -1  -4   92.06    1.73
   0  -1  -4   90.00    1.88
   2   1   3    0.39    0.19
   2   1   3    0.34    0.17
   2   1   3    0.46    0.15
   2   1   3    0.35    0.17
  -2  -1  -3    0.54    0.15
  -2  -1  -3    0.82    0.24
   4   1   2    9.76    0.66
   4   1   2    8.95    0.67
  -4  -1  -2    8.25    0.42
  -4  -1  -2    7.83    0.60
   6   1   1    3.93    0.62
   6   1   1    5.25    0.64
   6   1   1    6.21    0.70
  -6  -1  -1    5.78    0.38
  -6  -1  -1    4.29    0.57
   8   1   0    0.48    0.30
  -8  -1   0    0.06    0.16
  -8  -1   0   -0.21    0.21
  10   1  -1    1.10    0.46
 -10  -1   1    1.45    0.35
   9   0  -9    0.72    0.36
   7   0  -8    0.43    0.28
   7   0  -8    0.83    0.43
  -5   0   7   52.73    1.23
   5   0  -7   53.32    1.62
  -3   0   6    0.37    0.13
   3   0  -6    0.46    0.10
   3   0  -6    0.40    0.21
   3   0  -6    0.60    0.11
  -1   0   5   32.65    0.88
  -1   0   5   31.09    0.92
   1   0  -5   30.86    1.01
   1   0  -5   32.22    1.09
   1   0  -5   30.93    0.87
   1   0   4   17.91    0.62
   1   0   4   17.79    0.73
   1   0   4   18.10    0.68
  -1   0  -4   17.66    0.77
  -1   0  -4   18.45    0.64
  -1   0  -4   18.16    0.69
   3   0   3  105.28    1.78
   3   0   3  107.03    2.10
   3   0   3  107.21    2.24
   3   0   3  105.98    1.91
  -3   0  -3  107.26    1.82
  -3   0  -3  107.41    2.16
  -3   0  -3  106.96    1.95
   5   0   2   19.35    0.98
   5   0   2   20.04    1.03
   5   0   2   19.94    0.99
  -5   0  -2   19.09    0.94
  -5   0  -2   18.85    0.69
   7   0   1    0.74    0.33
  -7   0  -1    0.55    0.20
  -7   0  -1    0.65    0.30
   9   0   0    0.05    0.30
  -9   0   0    0.63    0.26
  11   0  -1    0.60    0.41
 -11   0   1    0.75    0.35
   8   1  -9   19.41    1.45
   8   1  -9   17.86    1.10
   6   1  -8   10.11    1.12
   6   1  -8    8.80    0.69
  -4  -1   7   20.63    0.64
   4   1  -7   19.39    0.91
  -2  -1   6    0.02    0.08
  -2  -1   6    0.20    0.18
   2   1  -6   -0.09    0.14
   0  -1   5   27.76    0.85
   0  -1   5   27.14    0.53
   0  -1   5   27.81    0.79
   0   1  -5   27.41    0.94
   0   1  -5   28.17    0.82
   2  -1   4   20.82    0.70
   2  -1   4   20.05    0.74
   2  -1   4   20.52    0.80
   2  -1   4   21.18    0.70
  -2   1  -4   21.85    0.89
  -2   1  -4   21.49    0.78
  -2   1  -4   21.61    0.73
   4  -1   3  121.31    2.04
   4  -1   3  124.81    2.20
   4  -1   3  125.84    2.58
   4  -1   3  121.37    2.40
   4  -1   3  124.79    2.56
  -4   1  -3  121.84    2.07
  -4   1  -3  125.50    2.51
  -4   1  -3  123.67    2.22
   6  -1   2    9.79    0.27
   6  -1   2    8.58    0.81
  -6   1  -2    9.55    0.55
  -6   1  -2   10.44    0.75
   8  -1   1   15.92    1.06
  -8   1  -1   15.66    0.78
  10  -1   0   30.35    1.61
 -10   1   0   29.91    1.21
  12  -1  -1    2.10    0.66
 -12   1   1    2.44    0.55
   9   2 -10   17.34    1.12
   7   2  -9   68.74    1.98
   7   2  -9   70.19    2.62
   5   2  -8    5.29    0.59
   5   2  -8    5.89    0.83
  -3  -2   7   33.23    0.71
   3   2  -7   33.62    1.14
  -1  -2   6   17.51    0.56
  -1  -2   6   16.64    0.75
   1   2  -6   15.57    0.77
   1  -2   5   28.33    0.92
   1  -2   5   27.10    0.81
   1  -2   5   29.85    0.89
  -1   2  -5   29.58    1.09
  -1   2  -5   28.16    0.85
  -1   2  -5   28.69    0.99
   3  -2   4   36.23    0.97
   3  -2   4   37.15    1.06
   3  -2   4   37.54    1.14
  -3   2  -4   38.45    1.12
  -3   2  -4   36.91    1.24
  -3   2  -4   37.15    1.15
  -3   2  -4   36.12    1.00
   5  -2   3   44.43    1.54
   5  -2   3   44.86    1.16
   5  -2   3   44.39    1.27
  -5   2  -3   45.28    1.33
  -5   2  -3   43.50    1.21
  -5   2  -3   46.30    1.50
   7  -2   2    8.70    0.88
   7  -2   2    8.99    0.38
  -7   2  -2    9.02    0.60
   9  -2   1   31.11    1.56
  -9   2  -1   25.52    1.09
  11  -2   0   16.88    1.31
 -11   2   0   14.99    0.97
   8   3 -10   16.76    1.02
   6   3  -9   22.38    1.05
   6   3  -9   22.43    1.49
   4   3  -8   17.77    0.85
  -2  -3   7   98.06    1.29
   2   3  -7   98.98    2.07
   0  -3   6   68.91    1.63
   0  -3   6   69.12    1.25
   0   3  -6   69.80    1.71
   2  -3   5    2.29    0.32
   2  -3   5    3.19    0.33
   2  -3   5    3.74    0.43
  -2   3  -5    2.61    0.25
  -2   3  -5    2.77    0.46
  -2   3  -5    3.08    0.43
  -2   3  -5    3.14    0.36
   4  -3   4    0.35    0.15
   4  -3   4    0.33    0.18
   4  -3   4    0.29    0.19
  -4   3  -4    0.38    0.25
  -4   3  -4    0.50    0.21
  -4   3  -4    0.11    0.15
   6  -3   3    8.44    0.85
   6  -3   3    8.67    0.55
   6  -3   3    9.34    0.63
  -6   3  -3    8.21    0.58
  -6   3  -3    9.09    0.66
   8  -3   2    4.21    0.37
   8  -3   2    4.70    0.76
  -8   3  -2    4.68    0.57
  10  -3   1   28.86    1.62
 -10   3  -1   26.12    1.21
  12  -3   0    7.08    1.07
 -12   3   0    8.33    0.93
   7   4 -10    7.75    0.75
   5   4  -9   -0.29    0.30
   5   4  -9   -0.07    0.18
   3   4  -8    0.87    0.28
  -1  -4   7  106.09    1.40
   1   4  -7  106.15    2.21
   1  -4   6  140.35    2.11
   1  -4   6  142.07    2.43
  -1   4  -6  137.88    2.74
   3  -4   5    1.02    0.27
   3  -4   5    1.02    0.23
   3  -4   5    1.15    0.28
  -3   4  -5    0.81    0.31
  -3   4  -5    1.21    0.29
  -3   4  -5    0.80    0.21
  -3   4  -5    1.40    0.34
   5  -4   4   19.50    0.80
   5  -4   4   19.60    0.87
   5  -4   4   18.38    0.91
  -5   4  -4   18.91    0.82
  -5   4  -4   18.20    0.98
  -5   4  -4   17.80    0.88
   7  -4   3    4.26    0.56
   7  -4   3    4.09    0.66
   7  -4   3    3.96    0.50
  -7   4  -3    3.87    0.51
  -7   4  -3    4.50    0.62
   9  -4   2    7.75    1.00
   9  -4   2    7.57    0.48
  -9   4  -2    7.84    0.76
  11  -4   1   24.01    1.60
 -11   4  -1   25.67    1.31
  13  -4   0    0.33    0.52
 -13   4   0    0.85    0.45
   6   5 -10    0.47    0.28
   6   5 -10    0.89    0.55
   4   5  -9   38.70    1.77
   4   5  -9   33.76    1.19
   2   5  -8    0.36    0.21
   0  -5   7   74.36    1.21
   0   5  -7   69.77    1.86
   2  -5   6   18.75    0.96
   2  -5   6   18.61    0.70
  -2   5  -6   19.82    0.50
  -2   5  -6   19.86    1.00
   4  -5   5   37.78    1.32
   4  -5   5   36.27    1.12
   4  -5   5   37.28    1.23
  -4   5  -5   37.44    1.16
  -4   5  -5   38.74    1.50
   6  -5   4   51.89    1.67
   6  -5   4   54.60    1.46
   6  -5   4   54.79    1.58
  -6   5  -4   52.56    1.47
  -6   5  -4   52.43    1.61
   8  -5   3  135.10    2.69
   8  -5   3  136.94    3.44
  -8   5  -3  138.92    3.03
  -8   5  -3  137.62    2.83
  10  -5   2    2.56    0.38
  10  -5   2    2.90    0.67
 -10   5  -2    3.11    0.56
  12  -5   1    0.39    0.51
 -12   5  -1   -0.06    0.31
   5   6 -10    7.77    0.62
   5   6 -10    7.21    1.06
   3   6  -9   27.34    1.48
   3   6  -9   29.73    1.14
   1   6  -8    0.36    0.24
   1  -6   7    6.96    0.40
  -1   6  -7    6.42    0.68
   3  -6   6    4.49    0.45
  -3   6  -6    4.52    0.31
  -3   6  -6    3.46    0.58
   5  -6   5   24.79    1.16
   5  -6   5   23.68    0.98
   5  -6   5   27.55    1.11
  -5   6  -5   25.37    1.33
  -5   6  -5   24.83    1.00
   7  -6   4   45.38    1.41
   7  -6   4   45.19    1.64
   7  -6   4   45.81    1.53
  -7   6  -4   44.86    1.57
  -7   6  -4   47.00    1.44
   9  -6   3   28.46    1.20
  -9   6  -3   32.79    1.35
  -9   6  -3   31.04    1.45
  11  -6   2    5.02    0.54
 -11   6  -2    4.70    0.70
  13  -6   1    8.43    1.34
 -13   6  -1    6.86    0.91
   4   7 -10   24.54    1.07
   2   7  -9   39.57    1.40
   0   7  -8    7.39    0.78
   2  -7   7    0.79    0.21
  -2   7  -7    0.30    0.29
   4  -7   6   18.99    0.86
  -4   7  -6   18.98    0.69
  -4   7  -6   20.70    1.20
   6  -7   5    3.31    0.48
   6  -7   5    3.23    0.50
   6  -7   5    2.90    0.57
  -6   7  -5    3.09    0.62
  -6   7  -5    2.42    0.43
   8  -7   4    6.47    0.74
   8  -7   4    6.41    0.82
  -8   7  -4    6.06    0.76
  10  -7   3    5.80    0.71
 -10   7  -3    4.99    0.71
 -10   7  -3    4.86    0.76
  12  -7   2    4.91    0.56
 -12   7  -2    3.72    0.69
   3   8 -10   14.37    0.89
   1   8  -9   10.35    0.81
   1  -8   8    0.78    0.20
  -1   8  -8    1.18    0.42
   3  -8   7   31.56    1.08
  -3   8  -7   33.52    1.53
   5  -8   6   34.23    1.28
  -5   8  -6   36.14    1.05
  -5   8  -6   35.76    1.69
   7  -8   5    2.71    0.54
   7  -8   5    0.40    0.38
   7  -8   5    1.83    0.42
  -7   8  -5    2.46    0.49
   9  -8   4   -0.06    0.26
  -9   8  -4    0.64    0.39
  11  -8   3    0.54    0.37
 -11   8  -3   -0.06    0.39
  13  -8   2    3.44    0.51
   2   9 -10   14.39    0.95
   0   9  -9    0.71    0.35
   2  -9   8   26.35    0.97
  -2   9  -8   25.88    1.39
   4  -9   7   37.01    1.30
  -4   9  -7   38.37    1.77
   6  -9   6    9.98    0.90
  -6   9  -6   11.24    1.25
  -6   9  -6    9.13    0.62
   8  -9   5    0.27    0.27
   8  -9   5    0.21    0.29
  -8   9  -5    0.46    0.31
  10  -9   4   11.93    1.14
 -10   9  -4   13.20    1.20
  12  -9   3    1.57    0.47
 -12   9  -3    1.88    0.66
   1  10 -10    0.76    0.40
   1 -10   9    0.69    0.24
  -1  10  -9    0.41    0.37
   3 -10   8    5.05    0.57
  -3  10  -8    6.02    0.92
   5 -10   7   25.74    1.20
  -5  10  -7   26.24    1.58
   7 -10   6    2.60    0.52
  -7  10  -6    2.59    0.70
  -7  10  -6    1.91    0.40
   9 -10   5    0.74    0.43
  -9  10  -5    1.28    0.46
  11 -10   4   12.37    1.22
 -11  10  -4   10.12    1.20
   0  11 -10    8.76    1.00
   2 -11   9    1.77    0.39
  -2  11  -9    1.12    0.45
   4 -11   8    0.44    0.30
  -4  11  -8    0.50    0.43
   6 -11   7    1.57    0.44
  -6  11  -7    1.72    0.61
   8 -11   6    0.36    0.35
  -8  11  -6    0.74    0.34
  10 -11   5    6.34    0.93
 -10  11  -5    5.85    0.81
   3 -12   9    4.67    0.63
  -3  12  -9    7.46    1.11
   5 -12   8    0.33    0.33
  -5  12  -8    1.99    0.66
   7 -12   7    0.19    0.32
  -7  12  -7    0.00    0.50
   9 -12   6    0.71    0.42
  -9  12  -6    0.39    0.31
   6 -13   8   -0.01    0.34
  -6  13  -8    0.04    0.50
   8 -13   7   30.60    1.64
   6 -12  -2    9.06    1.03
  -4  12   1   18.87    1.71
   4 -12  -1   15.80    1.14
  -2  12   0    5.74    0.94
   2 -12   0    4.62    0.72
  -9  11   4    3.04    0.71
   9 -11  -4    3.42    0.75
  -7  11   3    1.90    0.46
   7 -11  -3    0.62    0.40
  -5  11   2    0.20    0.49
   5 -11  -2    1.00    0.41
  -3  11   1    3.06    0.75
   3 -11  -1    3.45    0.62
  -1  11   0    0.08    0.39
   1 -11   0    0.27    0.29
 -10  10   5    7.42    1.04
  10 -10  -5    6.74    0.93
  -8  10   4   42.38    1.76
   8 -10  -4   41.47    1.86
  -6  10   3   30.43    1.25
   6 -10  -3   32.60    1.49
  -4  10   2    1.66    0.63
   4 -10  -2    1.76    0.44
  -2  10   1    9.37    1.11
   2 -10  -1    6.34    0.71
   0  10   0    0.21    0.33
   0 -10   0   -0.20    0.23
   2  10  -1    4.10    0.71
  -9   9   5   20.80    1.36
   9  -9  -5   21.68    1.29
  -7   9   4    9.48    0.95
   7  -9  -4    6.89    0.88
  -5   9   3   20.37    0.97
   5  -9  -3   21.35    1.14
  -3   9   2   19.61    1.31
   3  -9  -2   19.27    1.03
  -1   9   1   30.00    1.50
   1  -9  -1   28.04    1.16
   1   9   0    0.04    0.30
  -1  -9   0    0.01    0.23
   3   9  -1    1.00    0.42
  10  -8  -6    2.60    0.53
  -8   8   5    4.52    0.78
   8  -8  -5    5.67    0.76
  -6   8   4    6.98    0.77
   6  -8  -4    7.92    0.88
   6  -8  -4    6.63    0.72
  -4   8   3    6.32    0.86
  -4   8   3    6.38    0.61
   4  -8  -3    7.03    0.72
  -2   8   2   63.76    2.14
  -2   8   2   62.45    1.14
   2  -8  -2   61.92    1.74
   0   8   1   65.67    2.13
   0  -8  -1   63.86    1.65
   2   8   0    5.49    0.73
  -2  -8   0    6.57    0.59
   4   8  -1    5.59    0.72
 -11   7   7   17.19    1.27
  -9   7   6   -0.06    0.28
   9  -7  -6    0.32    0.29
  -7   7   5    1.76    0.47
   7  -7  -5    1.36    0.39
  -5   7   4   13.89    0.86
   5  -7  -4   12.30    0.80
   5  -7  -4   13.46    0.89
  -3   7   3    7.94    0.56
  -3   7   3    9.03    0.97
   3  -7  -3    6.72    0.65
  -1   7   2   69.53    2.14
   1  -7  -2   70.88    1.74
   1   7   1   47.59    1.67
  -1  -7  -1   47.01    1.60
  -1  -7  -1   45.91    1.27
   3   7   0   13.11    0.90
  -3  -7   0   12.60    0.84
   5   7  -1   24.20    1.19
 -10   6   7    8.93    0.96
  10  -6  -7    8.36    0.58
  -8   6   6   14.03    0.94
   8  -6  -6   13.35    0.83
  -6   6   5   19.67    0.98
  -6   6   5   20.39    1.08
   6  -6  -5   20.15    1.03
  -4   6   4   48.84    1.50
   4  -6  -4   49.82    1.59
   4  -6  -4   47.90    1.45
  -2   6   3   13.44    0.95
  -2   6   3   14.00    0.66
  -2   6   3   13.37    0.65
   2  -6  -3   12.42    0.71
   0   6   2   14.34    0.90
   0  -6  -2   14.61    0.87
   0  -6  -2   13.05    0.67
   2   6   1    1.49    0.38
  -2  -6  -1    1.54    0.27
  -2  -6  -1    1.82    0.42
   4   6   0    8.15    0.81
  -4  -6   0    9.03    0.80
   6   6  -1   19.46    1.08
 -11   5   8    5.50    0.87
  11  -5  -8    5.79    1.03
  -9   5   7   10.20    0.96
   9  -5  -7    9.18    1.14
   9  -5  -7   10.99    0.52
   9  -5  -7    8.79    1.02
  -7   5   6    1.16    0.35
   7  -5  -6    1.26    0.33
   7  -5  -6    0.52    0.36
   7  -5  -6    1.28    0.42
  -5   5   5   14.24    0.79
  -5   5   5   13.17    0.83
   5  -5  -5   14.46    0.83
  -3   5   4  115.79    2.30
  -3   5   4  116.54    2.76
   3  -5  -4  118.12    2.42
   3  -5  -4  115.30    2.27
  -1   5   3    4.79    0.50
  -1   5   3    4.81    0.43
  -1   5   3    3.02    0.51
   1  -5  -3    4.10    0.55
   1  -5  -3    4.04    0.44
   1   5   2   16.64    0.92
  -1  -5  -2   16.25    0.88
  -1  -5  -2   15.50    0.66
   3   5   1    6.45    0.81
   3   5   1    5.63    0.66
  -3  -5  -1    6.20    0.38
  -3  -5  -1    5.20    0.61
   5   5   0    1.99    0.46
  -5  -5   0    2.67    0.45
   7   5  -1   13.49    0.94
 -10   4   8    0.69    0.38
  10  -4  -8    0.51    0.48
  10  -4  -8    0.79    0.52
  -8   4   7    4.37    0.60
   8  -4  -7    4.30    0.74
   8  -4  -7    4.61    0.78
   8  -4  -7    4.46    0.35
  -6   4   6    0.66    0.28
   6  -4  -6    0.86    0.41
   6  -4  -6    0.33    0.20
  -4   4   5   63.03    1.57
  -4   4   5   64.54    1.70
   4  -4  -5   60.57    1.62
   4  -4  -5   63.86    1.99
  -2   4   4   44.03    1.26
  -2   4   4   44.33    1.54
   2  -4  -4   45.20    1.25
   2  -4  -4   45.90    1.34
   0   4   3    5.93    0.38
   0   4   3    4.79    0.58
   0   4   3    5.79    0.43
   0  -4  -3    4.86    0.58
   0  -4  -3    6.45    0.45
   2   4   2   13.21    0.80
  -2  -4  -2   13.63    0.78
  -2  -4  -2   12.56    0.56
   4   4   1  129.79    3.19
   4   4   1  128.07    2.68
  -4  -4  -1  131.51    1.94
  -4  -4  -1  129.21    2.60
   6   4   0    3.35    0.57
  -6  -4   0    4.74    0.62
   8   4  -1    0.27    0.34
 -11   3   9    2.91    0.63
  11  -3  -9    3.43    0.81
  -9   3   8   16.12    1.00
   9  -3  -8   16.96    1.23
   9  -3  -8   15.67    1.49
  -7   3   7    0.61    0.27
   7  -3  -7    0.52    0.31
   7  -3  -7    0.47    0.35
   7  -3  -7    0.50    0.12
  -5   3   6    0.01    0.16
  -5   3   6    0.06    0.24
   5  -3  -6    0.57    0.28
   5  -3  -6   -0.15    0.13
  -3   3   5   52.90    1.34
  -3   3   5   54.38    1.46
   3  -3  -5   54.60    1.42
   3  -3  -5   52.77    1.68
  -1   3   4   13.09    0.63
  -1   3   4   10.95    0.74
   1  -3  -4   12.28    0.66
   1  -3  -4   11.15    0.70
   1  -3  -4   13.30    0.62
   1   3   3    8.00    0.41
   1   3   3    8.25    0.63
   1   3   3    8.15    0.48
  -1  -3  -3    8.80    0.62
  -1  -3  -3    8.06    0.47
  -1  -3  -3    8.09    0.58
   3   3   2   87.93    2.08
   3   3   2   86.00    2.26
  -3  -3  -2   86.44    1.99
  -3  -3  -2   89.08    1.58
   5   3   1   48.69    1.88
   5   3   1   46.56    1.56
  -5  -3  -1   48.82    1.05
  -5  -3  -1   46.25    1.49
   7   3   0    5.61    0.71
  -7  -3   0    7.34    0.77
   9   3  -1    3.70    0.67
 -10   2   9   10.15    0.96
  10  -2  -9   10.89    1.21
  -8   2   8   38.67    1.37
   8  -2  -8   33.92    1.75
   8  -2  -8   36.65    1.69
  -6   2   7   43.16    1.32
   6  -2  -7   42.25    1.63
  -4   2   6   13.34    0.67
  -4   2   6   14.43    0.76
   4  -2  -6   15.37    0.66
   4  -2  -6   13.38    0.86
  -2   2   5    0.02    0.12
  -2   2   5    0.25    0.16
   2  -2  -5    0.06    0.12
   2  -2  -5   -0.09    0.07
   2  -2  -5    0.11    0.19
   0   2   4    3.04    0.54
   0   2   4    2.46    0.34
   0   2   4    1.78    0.28
   0  -2  -4    2.08    0.37
   0  -2  -4    1.96    0.30
   0  -2  -4    2.02    0.31
   2   2   3    0.23    0.18
   2   2   3    0.12    0.14
   2   2   3    0.26    0.21
   2   2   3    0.08    0.11
  -2  -2  -3    0.11    0.16
  -2  -2  -3    0.04    0.12
   4   2   2   52.53    1.60
   4   2   2   52.84    1.75
  -4  -2  -2   53.16    1.16
  -4  -2  -2   50.49    1.52
   6   2   1    9.87    1.02
   6   2   1    9.12    0.85
  -6  -2  -1    9.80    0.49
  -6  -2  -1    9.68    0.74
   8   2   0    9.77    0.98
   8   2   0   11.25    1.07
  -8  -2   0   10.69    0.96
  -8  -2   0    9.45    0.55
  10   2  -1   14.17    1.13
  10   2  -1   15.41    1.40
  -9   1   9   16.82    0.96
   9  -1  -9   16.33    1.19
   9  -1  -9   15.83    1.74
  -7   1   8   14.14    0.78
   7  -1  -8   14.90    1.01
   7  -1  -8   15.37    1.16
  -5   1   7   79.48    1.72
   5  -1  -7   78.31    2.12
  -3   1   6   18.95    0.81
  -3   1   6   19.67    0.75
   3  -1  -6   18.61    0.69
   3  -1  -6   18.58    0.95
  -1   1   5    1.68    0.26
  -1   1   5    1.71    0.29
   1  -1  -5    1.56    0.27
   1  -1  -5    1.28    0.31
   1   1   4   19.36    0.78
   1   1   4   18.85    0.71
  -1  -1  -4   20.14    0.87
  -1  -1  -4   22.61    0.82
  -1  -1  -4   21.04    0.74
   3   1   3    2.48    0.27
   3   1   3    1.76    0.28
   3   1   3    2.81    0.45
   3   1   3    2.09    0.41
  -3  -1  -3    1.82    0.36
  -3  -1  -3    2.22    0.29
   5   1   2   18.73    1.05
   5   1   2   15.92    0.92
  -5  -1  -2   18.84    0.96
  -5  -1  -2   16.89    0.66
   7   1   1    0.03    0.24
   7   1   1    0.52    0.32
   7   1   1    0.06    0.34
  -7  -1  -1    0.14    0.17
  -7  -1  -1    0.04    0.22
   9   1   0   11.36    1.12
   9   1   0   10.65    1.11
  -9  -1   0    8.33    0.96
  -9  -1   0    9.55    0.64
  11   1  -1   10.47    1.19
  11   1  -1   10.30    1.14
 -11  -1   1   12.13    0.85
 -10   0  10    0.60    0.31
  10   0 -10    1.07    0.46
  -8   0   9    2.08    0.40
   8   0  -9    1.81    0.50
   8   0  -9    1.38    0.58
  -6   0   8    3.65    0.43
   6   0  -8    3.30    0.55
   6   0  -8    1.68    0.48
  -4   0   7   29.81    0.91
   4   0  -7   28.83    1.20
  -2   0   6   79.77    1.55
  -2   0   6   81.35    1.69
   2   0  -6   82.79    1.82
   2   0  -6   79.24    1.92
   2   0  -6   78.65    1.48
   0   0   5   86.61    1.62
   0   0   5   85.22    1.69
   0   0  -5   87.73    1.89
   0   0  -5   88.38    1.72
   2   0   4  115.53    2.14
   2   0   4  118.26    2.10
   2   0   4  120.28    2.05
  -2   0  -4  116.44    2.31
  -2   0  -4  120.37    2.15
  -2   0  -4  118.88    2.02
   4   0   3   27.26    1.11
   4   0   3   29.65    0.91
   4   0   3   28.57    0.79
   4   0   3   30.14    1.19
  -4   0  -3   29.62    0.91
  -4   0  -3   27.82    1.14
  -4   0  -3   29.36    1.02
   6   0   2    7.74    0.80
   6   0   2    7.63    0.79
   6   0   2    9.23    0.96
  -6   0  -2    8.53    0.52
  -6   0  -2    7.31    0.76
   8   0   1   -0.08    0.25
  -8   0  -1   -0.13    0.23
  -8   0  -1    0.42    0.22
  10   0   0    5.94    0.86
 -10   0   0    6.78    0.90
 -10   0   0    6.00    0.66
   9   1 -10    0.19    0.31
   7   1  -9    1.17    0.52
   7   1  -9    1.50    0.42
  -5  -1   8    3.75    0.37
   5   1  -8    3.46    0.54
  -3  -1   7    8.49    0.45
   3   1  -7    8.05    0.62
  -1  -1   6   50.49    1.14
   1   1  -6   50.18    1.34
   1   1  -6   49.45    1.43
   1   1  -6   48.81    1.08
   1  -1   5  139.71    2.31
   1  -1   5  140.13    2.42
   1  -1   5  139.98    2.21
   1  -1   5  134.39    1.92
  -1   1  -5  139.81    2.32
  -1   1  -5  136.08    2.51
   3  -1   4   25.01    0.93
   3  -1   4   25.07    0.86
   3  -1   4   24.95    0.90
  -3   1  -4   26.23    1.04
  -3   1  -4   24.67    0.85
  -3   1  -4   26.12    0.93
   5  -1   3   23.71    1.14
   5  -1   3   25.02    0.78
   5  -1   3   24.63    1.16
   5  -1   3   24.78    0.88
  -5   1  -3   24.96    0.88
  -5   1  -3   24.34    1.12
   7  -1   2   32.53    1.44
  -7   1  -2   33.14    1.10
  -7   1  -2   32.53    1.39
   9  -1   1   16.16    1.14
  -9   1  -1   13.70    0.81
  11  -1   0    5.90    0.90
 -11   1   0    5.09    0.68
   8   2 -10    8.92    0.91
   6   2  -9    3.36    0.52
   6   2  -9    2.14    0.63
  -4  -2   8   38.37    0.88
   4   2  -8   37.80    1.33
  -2  -2   7    2.52    0.27
   2   2  -7    2.80    0.43
   0  -2   6    5.43    0.37
   0   2  -6    5.64    0.35
   0   2  -6    5.45    0.54
   0   2  -6    4.68    0.55
   2  -2   5   20.00    0.83
   2  -2   5   20.53    0.74
   2  -2   5   19.90    0.78
  -2   2  -5   21.65    0.93
  -2   2  -5   19.11    0.78
   4  -2   4    0.60    0.23
   4  -2   4    0.81    0.23
   4  -2   4    0.44    0.26
  -4   2  -4    0.71    0.25
  -4   2  -4    0.68    0.29
  -4   2  -4    0.58    0.20
   6  -2   3   23.57    0.82
   6  -2   3   25.12    1.24
   6  -2   3   24.14    0.93
  -6   2  -3   22.51    0.92
  -6   2  -3   23.90    1.15
   8  -2   2   53.72    1.98
  -8   2  -2   55.24    1.58
  10  -2   1   21.49    1.40
 -10   2  -1   21.14    1.07
  12  -2   0    0.52    0.48
 -12   2   0    0.40    0.35
   7   3 -10    0.17    0.29
   7   3 -10   -0.11    0.39
   5   3  -9   19.71    0.98
   5   3  -9   21.74    1.38
  -3  -3   8    9.41    0.54
   3   3  -8    9.45    0.65
  -1  -3   7   17.91    0.59
   1   3  -7   17.77    0.87
   1  -3   6   10.76    0.61
   1  -3   6   10.50    0.51
  -1   3  -6   11.41    0.51
  -1   3  -6   10.61    0.71
  -1   3  -6   11.66    0.66
   3  -3   5    0.67    0.24
   3  -3   5    0.69    0.20
   3  -3   5    0.90    0.25
  -3   3  -5    0.63    0.24
  -3   3  -5    0.47    0.23
  -3   3  -5    0.31    0.18
   5  -3   4    0.89    0.22
   5  -3   4    0.72    0.30
   5  -3   4    0.94    0.28
   5  -3   4    0.81    0.33
   5  -3   4    0.82    0.26
  -5   3  -4    1.00    0.30
  -5   3  -4    0.29    0.27
  -5   3  -4    0.68    0.23
   7  -3   3   20.82    1.19
   7  -3   3   21.55    0.85
  -7   3  -3   20.68    0.96
   9  -3   2   55.78    2.16
  -9   3  -2   50.62    1.65
  11  -3   1   14.12    1.42
 -11   3  -1   13.34    0.96
   6   4 -10    1.56    0.39
   6   4 -10    1.33    0.63
   4   4  -9   78.27    2.50
   4   4  -9   77.64    1.94
   2   4  -8   73.14    1.84
   0  -4   7   26.23    0.75
   0   4  -7   27.96    1.13
   2  -4   6    0.20    0.18
   2  -4   6    0.26    0.14
   2  -4   6    0.55    0.20
  -2   4  -6   -0.07    0.19
  -2   4  -6    0.27    0.15
   4  -4   5   66.81    1.56
   4  -4   5   65.48    1.66
   4  -4   5   68.44    1.79
  -4   4  -5   64.71    1.87
  -4   4  -5   69.70    2.06
  -4   4  -5   68.51    1.75
  -4   4  -5   65.99    1.68
   6  -4   4    1.61    0.44
   6  -4   4    1.41    0.32
   6  -4   4    1.43    0.38
  -6   4  -4    1.09    0.40
  -6   4  -4    1.24    0.30
  -6   4  -4    1.11    0.31
   8  -4   3    0.76    0.25
   8  -4   3    0.20    0.32
  -8   4  -3    0.16    0.23
  10  -4   2    3.61    0.74
 -10   4  -2    5.09    0.70
  12  -4   1    3.37    0.85
 -12   4  -1    1.98    0.55
   7   5 -11    3.12    0.54
   5   5 -10    1.08    0.58
   5   5 -10    1.95    0.41
   3   5  -9   44.21    1.44
  -1  -5   8   18.45    0.52
   1   5  -8   18.47    0.94
   1  -5   7    9.36    0.49
  -1   5  -7    8.90    0.71
   3  -5   6   71.95    1.74
   3  -5   6   70.88    1.59
   3  -5   6   74.13    1.87
  -3   5  -6   72.41    2.08
  -3   5  -6   71.52    1.51
   5  -5   5   47.12    1.47
   5  -5   5   49.53    1.62
   5  -5   5   50.61    1.41
  -5   5  -5   50.02    1.81
  -5   5  -5   50.21    1.51
  -5   5  -5   50.02    1.70
   7  -5   4   10.49    0.72
   7  -5   4   10.17    0.78
  -7   5  -4   10.54    0.78
  -7   5  -4    9.83    0.70
   9  -5   3    1.43    0.36
   9  -5   3    0.19    0.39
  -9   5  -3    0.55    0.30
  11  -5   2    4.10    0.86
 -11   5  -2    3.18    0.59
  13  -5   1    4.35    0.94
 -13   5  -1    4.20    0.76
   6   6 -11   12.14    0.84
   4   6 -10    0.60    0.29
   4   6 -10    0.92    0.49
   2   6  -9    0.96    0.33
   0  -6   8    0.48    0.15
   0   6  -8    0.16    0.23
   2  -6   7    0.06    0.14
  -2   6  -7   -0.01    0.21
   4  -6   6   28.76    1.04
  -4   6  -6   28.14    1.35
  -4   6  -6   26.22    0.94
   6  -6   5   47.30    1.70
   6  -6   5   45.37    1.42
   6  -6   5   46.28    1.55
  -6   6  -5   45.05    1.50
   8  -6   4   21.19    1.07
   8  -6   4   18.90    1.09
  -8   6  -4   20.15    1.13
  -8   6  -4   18.40    0.98
  10  -6   3    1.43    0.37
 -10   6  -3    1.39    0.44
 -12   6  -2    2.06    0.54
   5   7 -11   23.71    1.08
   3   7 -10    4.59    0.61
   1   7  -9    1.12    0.36
   1  -7   8   21.70    0.77
  -1   7  -8   23.99    1.20
   3  -7   7    8.78    0.58
  -3   7  -7   10.11    0.99
   5  -7   6   21.78    0.99
  -5   7  -6   21.88    0.92
  -5   7  -6   21.91    1.30
   7  -7   5   52.02    1.73
   7  -7   5   49.43    1.57
   7  -7   5   48.97    1.83
  -7   7  -5   49.52    1.66
   9  -7   4    8.03    0.87
  -9   7  -4    6.82    0.83
  11  -7   3    4.08    0.59
 -11   7  -3    4.30    0.67
 -13   7  -2    9.66    1.09
   4   8 -11   12.53    0.86
   2   8 -10    9.00    0.87
   0   8  -9   11.48    1.03
   2  -8   8   21.94    0.87
  -2   8  -8   23.00    1.28
   4  -8   7    2.80    0.42
  -4   8  -7    3.10    0.64
   6  -8   6    1.15    0.33
  -6   8  -6    2.00    0.40
  -6   8  -6    1.76    0.54
   8  -8   5    2.48    0.52
   8  -8   5    3.21    0.66
  -8   8  -5    2.44    0.51
  10  -8   4    3.96    0.64
 -10   8  -4    3.30    0.67
  12  -8   3   14.73    0.98
   3   9 -11    4.77    0.66
   1   9 -10    3.14    0.58
   1  -9   9   29.71    1.00
  -1   9  -9   27.63    1.42
   3  -9   8   13.90    0.77
  -3   9  -8   13.87    1.29
   5  -9   7   14.48    0.89
  -5   9  -7   16.55    1.25
   7  -9   6   10.50    0.93
  -7   9  -6   12.53    0.80
   9  -9   5    2.27    0.57
  -9   9  -5    2.06    0.53
  11  -9   4    1.32    0.45
 -11   9  -4    0.74    0.49
   0  10 -10    0.94    0.47
   2 -10   9   20.46    0.93
  -2  10  -9   18.45    1.28
   4 -10   8    1.45    0.37
  -4  10  -8    0.72    0.45
   6 -10   7   10.02    0.96
  -6  10  -7    8.30    1.12
   8 -10   6   18.48    1.13
  -8  10  -6   18.12    1.02
  10 -10   5    9.86    1.13
 -10  10  -5    8.07    0.95
  12 -10   4    1.39    0.48
 -12  10  -4    0.89    0.58
   1 -11  10    3.15    0.47
  -1  11 -10    2.54    0.62
   3 -11   9    4.62    0.59
  -3  11  -9    3.72    0.79
   5 -11   8    0.21    0.31
  -5  11  -8    0.26    0.43
   7 -11   7   10.50    1.04
  -7  11  -7    7.07    1.13
   9 -11   6   14.96    1.37
  -9  11  -6   14.08    0.96
  11 -11   5    3.69    0.75
 -11  11  -5    2.30    0.64
   2 -12  10    3.59    0.55
  -2  12 -10    2.83    0.70
   4 -12   9    4.68    0.70
  -4  12  -9    3.83    0.83
   6 -12   8    3.41    0.64
  -6  12  -8    1.78    0.69
   8 -12   7    1.30    0.46
 -10  12  -6    1.83    0.51
   7 -13   8    5.88    0.89
  -7  13  -8    5.52    1.13
   5 -12  -2    1.47    0.55
  -3  12   1    5.16    0.95
   3 -12  -1    5.86    0.86
  -8  11   4   16.06    1.12
   8 -11  -4   14.89    1.42
  -6  11   3    1.29    0.34
  -6  11   3    1.42    0.38
   6 -11  -3    1.35    0.48
  -4  11   2    3.59    0.84
   4 -11  -2    3.63    0.65
  -2  11   1    8.19    1.10
   2 -11  -1    8.78    0.92
   0  11   0   17.25    1.33
   0 -11   0   16.89    1.04
  -9  10   5    0.47    0.44
   9 -10  -5    0.23    0.37
  -7  10   4    0.39    0.39
   7 -10  -4   -0.14    0.33
  -5  10   3   10.32    0.66
  -5  10   3    8.64    0.62
   5 -10  -3    8.90    0.94
  -3  10   2    0.54    0.43
   3 -10  -2    0.06    0.28
  -1  10   1    9.71    1.10
   1 -10  -1   10.98    0.95
   1  10   0    5.12    0.83
  -1 -10   0    7.85    0.76
 -10   9   6   21.99    1.50
  10  -9  -6   18.81    1.22
  -8   9   5    0.61    0.41
   8  -9  -5    0.30    0.39
  -6   9   4    0.08    0.27
   6  -9  -4    0.04    0.29
   6  -9  -4    0.44    0.34
  -4   9   3    7.18    0.60
  -4   9   3    6.23    0.95
  -4   9   3    5.90    0.56
   4  -9  -3    7.25    0.81
  -2   9   2    0.73    0.41
   2  -9  -2    0.66    0.30
   0   9   1   -0.30    0.28
   0  -9  -1    0.05    0.23
   2   9   0    0.86    0.42
  -2  -9   0   -0.01    0.21
  -9   8   6    9.35    1.11
   9  -8  -6    9.14    0.97
  -7   8   5    0.03    0.33
   7  -8  -5    0.19    0.32
  -5   8   4   35.05    1.35
   5  -8  -4   35.90    1.52
   5  -8  -4   34.08    1.38
  -3   8   3   24.75    0.87
  -3   8   3   26.42    1.47
   3  -8  -3   25.74    1.16
  -1   8   2    0.50    0.35
   1  -8  -2    0.18    0.21
   1   8   1    2.98    0.60
  -1  -8  -1    4.15    0.51
   3   8   0   -0.30    0.28
   5   8  -1    0.19    0.32
 -10   7   7    3.67    0.72
  10  -7  -7    1.93    0.46
  -8   7   6    3.54    0.66
   8  -7  -6    2.95    0.55
  -6   7   5    7.10    0.82
   6  -7  -5    7.02    0.82
  -4   7   4  148.95    2.85
   4  -7  -4  149.01    2.94
   4  -7  -4  147.85    3.11
  -2   7   3   25.56    1.37
  -2   7   3   25.38    0.82
  -2   7   3   25.35    0.96
   2  -7  -3   23.95    1.04
   0   7   2    2.71    0.56
   0  -7  -2    2.10    0.37
   2   7   1   26.39    1.31
  -2  -7  -1   26.24    0.96
  -2  -7  -1   26.14    1.24
   4   7   0   20.27    1.15
  -4  -7   0   20.82    1.10
   6   7  -1   -0.14    0.31
 -11   6   8    1.91    0.63
  -9   6   7    9.26    0.95
   9  -6  -7    8.13    0.73
  -7   6   6   14.12    0.90
  -7   6   6   13.47    0.96
   7  -6  -6   13.60    0.88
  -5   6   5   -0.17    0.19
   5  -6  -5    0.32    0.24
  -3   6   4   48.18    1.82
  -3   6   4   47.08    1.41
   3  -6  -4   47.11    1.56
   3  -6  -4   46.98    1.45
  -1   6   3    0.24    0.15
  -1   6   3    0.01    0.23
  -1   6   3    0.40    0.20
   1  -6  -3    0.18    0.18
   1   6   2    5.42    0.69
  -1  -6  -2    6.58    0.50
  -1  -6  -2    7.33    0.77
   3   6   1   13.01    0.89
  -3  -6  -1   13.12    0.86
  -3  -6  -1   13.02    0.64
   5   6   0   25.69    1.29
  -5  -6   0   28.07    1.25
   7   6  -1    0.47    0.39
 -10   5   8    0.31    0.38
  10  -5  -8   -0.23    0.34
  10  -5  -8    0.61    0.52
  -8   5   7   10.46    0.95
   8  -5  -7   10.26    1.08
   8  -5  -7   12.21    0.72
   8  -5  -7   12.39    1.27
  -6   5   6   66.10    1.82
  -6   5   6   61.85    1.90
   6  -5  -6   65.96    1.80
  -4   5   5   11.47    0.68
  -4   5   5   12.18    0.78
   4  -5  -5   13.95    0.83
   4  -5  -5   11.91    0.70
  -2   5   4    6.60    0.59
  -2   5   4    6.25    0.75
   2  -5  -4    5.82    0.56
   2  -5  -4    5.49    0.63
   0   5   3    4.65    0.62
   0   5   3    6.12    0.43
   0   5   3    5.88    0.34
   0  -5  -3    6.19    0.58
   0  -5  -3    4.92    0.65
   2   5   2   15.97    0.95
  -2  -5  -2   17.51    0.95
  -2  -5  -2   17.81    0.73
   4   5   1   48.79    1.66
  -4  -5  -1   49.62    1.61
  -4  -5  -1   49.17    1.17
   6   5   0   39.87    1.59
  -6  -5   0   42.48    1.54
   8   5  -1    9.73    0.99
 -11   4   9    0.10    0.36
  11  -4  -9   -0.34    0.42
  -9   4   8    0.12    0.26
   9  -4  -8    0.34    0.44
   9  -4  -8    0.03    0.35
  -7   4   7   42.49    1.49
   7  -4  -7   41.60    1.75
   7  -4  -7   37.93    1.77
   7  -4  -7   40.37    1.18
  -5   4   6   60.68    1.64
  -5   4   6   61.39    1.78
   5  -4  -6   61.29    1.63
  -3   4   5    0.21    0.19
  -3   4   5    0.80    0.27
   3  -4  -5    0.75    0.26
   3  -4  -5    0.84    0.24
  -1   4   4   55.63    1.38
  -1   4   4   54.70    1.73
  -1   4   4   55.31    1.38
   1  -4  -4   53.82    1.50
   1  -4  -4   54.87    1.67
   1  -4  -4   54.43    1.42
   1   4   3   19.81    0.69
   1   4   3   19.98    0.53
   1   4   3   20.34    1.02
  -1  -4  -3   20.19    0.79
  -1  -4  -3   19.25    0.98
   3   4   2    1.61    0.45
   3   4   2    1.80    0.43
  -3  -4  -2    1.81    0.40
  -3  -4  -2    1.36    0.26
   5   4   1   10.54    0.81
  -5  -4  -1   10.42    0.53
  -5  -4  -1   10.48    0.76
   7   4   0    1.09    0.43
  -7  -4   0    0.95    0.39
   9   4  -1    8.15    0.96
 -10   3   9    0.14    0.31
  10  -3  -9    0.88    0.49
  -8   3   8    2.47    0.46
   8  -3  -8    3.16    0.66
   8  -3  -8    3.30    0.66
  -6   3   7   32.14    1.20
   6  -3  -7   31.15    0.98
   6  -3  -7   33.14    1.54
  -4   3   6   44.93    1.43
  -4   3   6   45.65    1.32
   4  -3  -6   44.94    1.31
   4  -3  -6   47.07    1.68
  -2   3   5   13.18    0.64
  -2   3   5   11.63    0.66
   2  -3  -5   12.47    0.64
   2  -3  -5   12.83    0.70
   0   3   4  102.00    2.04
   0   3   4  102.35    1.92
   0   3   4   99.81    2.32
   0  -3  -4  102.07    2.28
   0  -3  -4  104.93    2.10
   0  -3  -4  101.32    1.94
   2   3   3   57.98    0.91
   2   3   3   58.86    1.18
   2   3   3   56.43    1.68
  -2  -3  -3   54.52    1.60
  -2  -3  -3   57.50    1.34
   4   3   2    7.79    0.78
   4   3   2    9.16    0.95
  -4  -3  -2    8.16    0.48
  -4  -3  -2    8.59    0.81
   6   3   1    9.62    0.92
  -6  -3  -1    8.46    0.80
  -6  -3  -1    9.06    0.52
   8   3   0    2.56    0.57
  -8  -3   0    3.38    0.62
  -9   2   9    2.37    0.49
   9  -2  -9    2.05    0.68
   9  -2  -9    2.73    0.65
  -7   2   8    2.58    0.44
   7  -2  -8    3.09    0.65
   7  -2  -8    2.78    0.63
  -5   2   7    1.16    0.29
   5  -2  -7    0.67    0.19
   5  -2  -7    0.54    0.33
  -3   2   6   32.29    1.06
  -3   2   6   31.70    1.12
   3  -2  -6   33.04    1.32
   3  -2  -6   32.35    1.05
  -1   2   5    6.20    0.54
  -1   2   5    6.93    0.46
   1  -2  -5    7.38    0.68
   1  -2  -5    6.83    0.47
   1  -2  -5    7.58    0.63
   1   2   4   31.40    1.04
   1   2   4   30.97    1.21
   1   2   4   31.50    0.95
  -1  -2  -4   32.07    0.97
  -1  -2  -4   33.68    1.21
  -1  -2  -4   32.15    1.05
   3   2   3   54.96    1.69
   3   2   3   54.95    0.84
   3   2   3   54.36    1.64
   3   2   3   55.14    1.12
  -3  -2  -3   53.91    1.60
  -3  -2  -3   54.56    1.28
   5   2   2   14.41    1.01
   5   2   2   15.47    0.94
  -5  -2  -2   16.83    0.68
  -5  -2  -2   17.16    0.94
   7   2   1   23.18    1.23
  -7  -2  -1   23.46    1.20
  -7  -2  -1   22.30    0.84
   9   2   0    8.73    0.99
  -9  -2   0    8.61    0.63
 -10   1  10   12.70    0.93
  10  -1 -10   14.91    1.40
  -8   1   9   17.75    0.94
   8  -1  -9   18.69    1.67
   8  -1  -9   19.23    1.25
  -6   1   8    0.82    0.26
   6  -1  -8    0.61    0.34
  -4   1   7   19.77    0.81
   4  -1  -7   19.45    1.05
   4  -1  -7   20.98    0.66
  -2   1   6    1.28    0.26
  -2   1   6    1.12    0.27
   2  -1  -6    0.56    0.27
   2  -1  -6    1.20    0.27
   2  -1  -6    0.87    0.27
   0   1   5    7.76    0.51
   0   1   5    8.79    0.54
   0   1   5    7.42    0.46
   0  -1  -5    8.11    0.49
   0  -1  -5    7.73    0.51
   0  -1  -5    8.25    0.61
   2   1   4   91.29    1.76
   2   1   4   96.46    1.93
   2   1   4   93.75    1.99
   2   1   4   92.57    2.18
  -2  -1  -4   93.21    1.79
  -2  -1  -4   96.37    2.13
   4   1   3    2.21    0.28
   4   1   3    1.83    0.44
   4   1   3    2.00    0.19
   4   1   3    2.72    0.48
  -4  -1  -3    1.74    0.38
  -4  -1  -3    1.87    0.29
   6   1   2   27.90    1.30
   6   1   2   26.77    1.37
  -6  -1  -2   27.35    1.26
  -6  -1  -2   28.04    0.94
   8   1   1   50.30    1.91
   8   1   1   49.88    1.92
  -8  -1  -1   49.95    1.39
  -8  -1  -1   51.67    1.87
  10   1   0    8.98    1.05
  10   1   0    7.09    0.94
 -10  -1   0    9.26    0.80
  -9   0  10   11.07    0.80
   9   0 -10   10.79    1.17
  -7   0   9    9.55    0.65
   7   0  -9   10.03    0.99
   7   0  -9    8.48    1.10
  -5   0   8    1.90    0.33
   5   0  -8    2.29    0.47
  -3   0   7   39.08    1.10
   3   0  -7   43.99    1.48
   3   0  -7   40.22    0.86
  -1   0   6   24.81    0.83
  -1   0   6   25.10    0.90
   1   0  -6   25.07    0.86
   1   0  -6   24.33    0.98
   1   0  -6   24.60    1.05
   1   0   5    1.72    0.28
   1   0   5    1.58    0.26
   1   0   5    1.67    0.30
   1   0   5    1.64    0.33
  -1   0  -5    1.52    0.34
  -1   0  -5    1.46    0.28
  -1   0  -5    1.14    0.23
   3   0   4    0.12    0.21
   3   0   4    0.03    0.16
   3   0   4    0.10    0.15
   3   0   4    0.12    0.19
  -3   0  -4    0.09    0.15
  -3   0  -4   -0.19    0.15
  -3   0  -4   -0.08    0.12
   5   0   3    6.01    0.31
   5   0   3    7.03    0.75
   5   0   3    4.65    0.63
   5   0   3    7.07    0.43
  -5   0  -3    6.34    0.73
  -5   0  -3    6.60    0.56
   7   0   2   41.53    1.69
   7   0   2   40.69    1.65
  -7   0  -2   40.58    1.22
  -7   0  -2   39.67    1.58
   9   0   1   12.22    1.18
   9   0   1   12.17    1.18
  -9   0  -1   11.56    0.75
  -9   0  -1   12.43    1.19
  11   0   0    5.40    0.88
  11   0   0    6.16    0.95
 -11   0   0    6.66    0.76
  -8  -1  10    1.49    0.35
   8   1 -10    1.69    0.48
  -6  -1   9    6.05    0.54
   6   1  -9    6.11    0.95
   6   1  -9    4.93    0.65
  -4  -1   8   38.97    1.07
   4   1  -8   39.05    1.42
  -2  -1   7   40.03    1.05
   2   1  -7   39.00    0.74
   2   1  -7   39.39    1.36
   0  -1   6   14.20    0.62
   0  -1   6   15.78    0.69
   0  -1   6   15.00    0.43
   0   1  -6   14.35    0.65
   0   1  -6   13.85    0.74
   0   1  -6   14.76    0.82
   2  -1   5   41.25    1.08
   2  -1   5   38.74    1.21
   2  -1   5   39.35    1.04
   2  -1   5   41.74    1.17
  -2   1  -5   37.83    1.16
  -2   1  -5   39.66    1.32
  -2   1  -5   40.67    1.10
   4  -1   4   63.46    1.58
   4  -1   4   62.67    1.46
   4  -1   4   63.77    1.69
   4  -1   4   61.39    1.84
  -4   1  -4   63.32    1.83
  -4   1  -4   63.50    1.60
  -4   1  -4   62.82    1.49
   6  -1   3   12.30    0.90
   6  -1   3   10.84    0.46
   6  -1   3   11.80    0.89
  -6   1  -3   11.94    0.87
  -6   1  -3   11.17    0.64
   8  -1   2    2.50    0.59
  -8   1  -2    1.71    0.48
  -8   1  -2    2.89    0.44
  10  -1   1    0.53    0.40
 -10   1  -1    0.54    0.42
 -10   1  -1    1.24    0.37
  12  -1   0    1.62    0.63
 -12   1   0    2.17    0.53
   7   2 -10    0.81    0.38
   7   2 -10    0.59    0.48
  -5  -2   9    1.92    0.28
   5   2  -9    1.62    0.42
  -3  -2   8   41.83    1.03
   3   2  -8   41.96    1.43
  -1  -2   7    7.99    0.45
   1   2  -7    7.54    0.27
   1   2  -7    7.44    0.26
   1   2  -7    8.07    0.78
   1  -2   6    6.07    0.42
   1  -2   6    6.22    0.59
   1  -2   6    5.91    0.53
  -1   2  -6    5.71    0.49
  -1   2  -6    5.27    0.60
  -1   2  -6    5.86    0.58
   3  -2   5   29.91    1.03
   3  -2   5   31.63    0.97
   3  -2   5   30.36    1.12
  -3   2  -5   31.09    0.98
  -3   2  -5   32.60    1.10
  -3   2  -5   31.96    1.24
   5  -2   4   76.50    1.73
   5  -2   4   76.95    2.19
   5  -2   4   79.72    2.19
   5  -2   4   78.86    1.87
  -5   2  -4   80.63    2.16
  -5   2  -4   75.50    1.89
  -5   2  -4   78.53    1.78
   7  -2   3    0.84    0.20
   7  -2   3    0.93    0.42
  -7   2  -3    0.99    0.30
  -7   2  -3    1.09    0.39
   9  -2   2    3.15    0.64
  -9   2  -2    3.61    0.69
  -9   2  -2    3.66    0.54
  11  -2   1    2.82    0.72
 -11   2  -1    0.93    0.39
   8   3 -11    1.08    0.41
   6   3 -10   29.35    1.31
   6   3 -10   31.37    1.79
   4   3  -9    0.74    0.28
  -2  -3   8   45.93    1.03
   2   3  -8   42.04    1.44
   0  -3   7    1.09    0.21
   0   3  -7    1.04    0.16
   0   3  -7    1.00    0.13
   0   3  -7    1.09    0.32
   2  -3   6    1.10    0.23
   2  -3   6    1.63    0.33
   2  -3   6    0.87    0.23
  -2   3  -6    1.44    0.30
  -2   3  -6    1.27    0.36
  -2   3  -6    0.98    0.33
   4  -3   5   28.38    1.13
   4  -3   5   28.97    1.06
   4  -3   5   31.56    1.02
  -4   3  -5   31.37    1.29
  -4   3  -5   32.49    1.05
  -4   3  -5   28.88    1.10
   6  -3   4  107.75    2.80
   6  -3   4  102.17    2.72
   6  -3   4  104.78    2.15
   6  -3   4  106.90    2.34
  -6   3  -4  107.70    2.26
  -6   3  -4  106.06    2.41
  -6   3  -4  106.38    2.64
   8  -3   3   18.00    1.19
   8  -3   3   17.65    0.71
  -8   3  -3   13.99    0.86
  10  -3   2    1.62    0.58
 -10   3  -2    1.62    0.43
  12  -3   1   25.67    1.73
 -12   3  -1   25.07    1.38
   7   4 -11   28.87    1.35
   5   4 -10   31.62    1.74
   5   4 -10   30.32    1.27
   3   4  -9    1.76    0.40
  -1  -4   8    0.30    0.13
   1   4  -8    0.17    0.21
   1  -4   7    3.51    0.37
  -1   4  -7    4.57    0.25
  -1   4  -7    4.53    0.61
   3  -4   6    1.35    0.28
   3  -4   6    1.61    0.33
   3  -4   6    1.03    0.31
  -3   4  -6    1.64    0.42
  -3   4  -6    2.07    0.35
   5  -4   5   26.09    0.97
   5  -4   5   28.43    1.09
   5  -4   5   25.47    1.13
  -5   4  -5   27.45    1.13
  -5   4  -5   26.87    1.02
  -5   4  -5   28.24    1.30
   7  -4   4   25.13    1.14
   7  -4   4   21.36    0.97
   7  -4   4   24.49    1.37
  -7   4  -4   21.82    1.01
  -7   4  -4   23.58    1.29
  -7   4  -4   20.62    1.08
   9  -4   3    2.84    0.38
   9  -4   3    1.77    0.55
  -9   4  -3    1.51    0.41
  11  -4   2   15.53    1.59
 -11   4  -2   13.84    1.02
   6   5 -11   28.73    1.30
   4   5 -10   36.85    1.82
   4   5 -10   35.12    1.35
   2   5  -9   18.06    0.96
   0  -5   8   42.22    1.04
   0   5  -8   42.22    1.52
   2  -5   7   55.58    1.37
  -2   5  -7   56.16    1.84
  -2   5  -7   53.38    1.02
   4  -5   6    0.08    0.18
   4  -5   6   -0.02    0.16
   4  -5   6    0.06    0.22
  -4   5  -6    0.22    0.27
  -4   5  -6    0.17    0.20
   6  -5   5    2.87    0.51
   6  -5   5    2.38    0.37
   6  -5   5    3.09    0.49
  -6   5  -5    2.50    0.41
  -6   5  -5    3.41    0.53
   8  -5   4    0.05    0.21
   8  -5   4    0.22    0.26
  -8   5  -4    0.38    0.31
  -8   5  -4    0.68    0.30
  10  -5   3    0.50    0.45
  10  -5   3    0.08    0.20
 -10   5  -3    0.41    0.34
  12  -5   2   22.28    1.70
 -12   5  -2   20.47    1.30
   5   6 -11   13.29    0.89
   5   6 -11   13.03    1.39
   3   6 -10    1.66    0.55
   3   6 -10    2.07    0.44
   1   6  -9    4.15    0.59
   1  -6   8   47.23    1.18
  -1   6  -8   42.40    1.63
   3  -6   7   58.13    1.50
  -3   6  -7   59.04    1.98
  -3   6  -7   57.85    1.18
   5  -6   6    1.35    0.32
   5  -6   6    1.67    0.39
   5  -6   6    1.70    0.45
  -5   6  -6    1.65    0.36
  -5   6  -6    2.18    0.53
   7  -6   5    2.83    0.51
   7  -6   5    1.97    0.48
  -7   6  -5    2.87    0.53
   9  -6   4    2.40    0.47
  -9   6  -4    2.48    0.50
  -9   6  -4    1.73    0.52
  11  -6   3   -0.14    0.20
 -11   6  -3   -0.03    0.31
 -13   6  -2    7.34    0.97
   4   7 -11    0.47    0.29
   2   7 -10    1.71    0.45
   0  -7   9    0.54    0.18
   0   7  -9    0.06    0.28
   2  -7   8  103.97    2.05
  -2   7  -8  103.13    2.70
   4  -7   7   12.86    0.75
  -4   7  -7   13.52    1.02
  -4   7  -7   12.82    0.60
   6  -7   6   28.50    1.39
   6  -7   6   27.82    1.27
   6  -7   6   28.08    1.17
  -6   7  -6   27.51    1.51
  -6   7  -6   25.84    1.13
   8  -7   5    9.67    0.93
   8  -7   5    7.85    0.92
  -8   7  -5    8.98    0.91
  10  -7   4   28.44    1.31
 -10   7  -4   28.48    1.51
 -10   7  -4   29.68    1.39
  12  -7   3    0.68    0.32
 -12   7  -3    0.29    0.40
   3   8 -11    3.20    0.58
   1   8 -10   19.53    1.16
   1  -8   9    1.11    0.27
  -1   8  -9    1.38    0.43
   3  -8   8    0.27    0.21
  -3   8  -8    0.31    0.31
   5  -8   7    3.76    0.53
  -5   8  -7    3.89    0.43
  -5   8  -7    3.40    0.71
   7  -8   6   16.84    1.07
   7  -8   6   18.24    1.01
  -7   8  -6   17.81    0.99
   9  -8   5   23.94    1.30
  -9   8  -5   23.64    1.32
  11  -8   4   17.21    1.09
 -11   8  -4   20.81    1.38
   2   9 -11   24.45    1.31
   0   9 -10   28.03    1.48
   2  -9   9    6.48    0.61
  -2   9  -9    6.68    0.88
   4  -9   8    4.66    0.57
  -4   9  -8    5.47    0.88
   6  -9   7    4.24    0.61
  -6   9  -7    3.47    0.77
  -6   9  -7    4.50    0.49
   8  -9   6    4.25    0.64
   8  -9   6    4.11    0.70
  -8   9  -6    4.06    0.62
  10  -9   5   12.72    1.19
 -10   9  -5   14.28    1.28
  12  -9   4    0.79    0.42
 -12   9  -4    1.46    0.63
   1  10 -11   15.59    1.15
   1 -10  10    2.19    0.41
  -1  10 -10    2.68    0.62
   3 -10   9    3.96    0.56
  -3  10  -9    3.78    0.77
   5 -10   8   12.71    0.89
  -5  10  -8   16.46    1.53
   7 -10   7    4.37    0.67
  -7  10  -7    3.58    0.49
   9 -10   6    3.16    0.72
  -9  10  -6    1.47    0.47
  11 -10   5    0.25    0.39
 -11  10  -5   -0.37    0.35
   2 -11  10    0.43    0.29
  -2  11 -10    0.08    0.37
   4 -11   9   10.56    0.95
  -4  11  -9    7.53    1.07
   6 -11   8   25.07    1.31
  -6  11  -8   29.76    1.86
   8 -11   7    7.52    0.89
  -8  11  -7    8.71    0.74
  10 -11   6    1.49    0.59
 -10  11  -6    0.82    0.44
   3 -12  10    0.62    0.36
  -3  12 -10   -0.13    0.42
   5 -12   9   17.29    1.13
  -5  12  -9   17.43    1.67
   7 -12   8   26.79    1.46
  -7  12  -8   29.89    2.02
   9 -12   7    1.02    0.46
  -9  12  -7    0.30    0.37
  -7  11   4    0.24    0.37
   5 -11  -3   12.33    1.14
  -3  11   2   12.14    1.44
   3 -11  -2   11.82    1.10
  -1  11   1   10.41    1.21
   1 -11  -1   10.18    1.00
  -8  10   5   16.50    1.18
   8 -10  -5   17.26    1.27
  -6  10   4    2.86    0.54
   6 -10  -4    3.33    0.64
  -4  10   3    1.67    0.60
   4 -10  -3    3.31    0.62
  -2  10   2   20.11    1.43
   2 -10  -2   18.51    1.11
   0  10   1   10.52    1.22
   0 -10  -1    9.24    0.89
   2  10   0    7.18    0.94
  -2 -10   0   10.65    0.93
  -9   9   6    4.86    0.84
   9  -9  -6    5.12    0.80
  -7   9   5    9.94    1.01
   7  -9  -5   14.53    1.28
  -5   9   4    3.31    0.52
   5  -9  -4    4.08    0.63
  -3   9   3    4.12    0.81
   3  -9  -3    6.02    0.72
  -1   9   2    3.94    0.78
   1  -9  -2    2.39    0.45
   1   9   1    0.67    0.42
  -1  -9  -1    0.37    0.28
   3   9   0   11.05    1.09
  -3  -9   0   13.46    0.84
  10  -8  -7    0.20    0.32
  -8   8   6   29.96    1.52
   8  -8  -6   25.54    1.37
  -6   8   5   26.20    1.29
   6  -8  -5   25.94    1.35
  -4   8   4    4.06    0.54
   4  -8  -4    5.42    0.69
  -2   8   3    0.73    0.42
   2  -8  -3    0.85    0.32
   0   8   2    7.95    0.95
   0  -8  -2    7.66    0.71
   2   8   1   -0.18    0.29
  -2  -8  -1    0.02    0.22
   4   8   0    4.03    0.66
  -9   7   7    0.98    0.46
   9  -7  -7   -0.15    0.27
  -7   7   6   18.13    1.15
   7  -7  -6   22.61    1.20
  -5   7   5   11.08    0.95
   5  -7  -5   12.26    0.90
   5  -7  -5   11.88    0.83
  -3   7   4   23.21    0.99
  -3   7   4   23.75    1.00
  -3   7   4   23.97    1.37
   3  -7  -4   22.56    1.09
  -1   7   3   23.41    1.31
  -1   7   3   23.77    0.75
   1  -7  -3   23.02    1.04
   1   7   2   38.45    1.62
  -1  -7  -2   38.99    1.29
  -1  -7  -2   40.05    1.59
   3   7   1    1.79    0.47
  -3  -7  -1    1.36    0.45
  -3  -7  -1    2.20    0.37
   5   7   0    0.27    0.34
 -10   6   8   13.70    1.26
  -8   6   7    0.04    0.29
   8  -6  -7    0.01    0.24
  -6   6   6   29.01    1.33
  -6   6   6   28.35    1.36
   6  -6  -6   28.54    1.28
  -4   6   5   14.11    0.86
   4  -6  -5   14.78    0.85
   4  -6  -5   15.05    0.93
  -2   6   4    2.88    0.40
  -2   6   4    2.89    0.59
  -2   6   4    2.29    0.37
   2  -6  -4    4.11    0.54
   0   6   3   50.33    1.00
   0   6   3   53.05    1.85
   0  -6  -3   51.66    1.77
   0  -6  -3   50.57    1.47
   2   6   2   26.53    1.29
  -2  -6  -2   27.73    1.01
  -2  -6  -2   26.92    1.25
   4   6   1   10.21    0.97
  -4  -6  -1    8.41    0.85
  -4  -6  -1    9.31    0.59
   6   6   0    1.14    0.44
  -9   5   8   22.49    1.26
   9  -5  -8   23.03    1.53
   9  -5  -8   25.24    1.63
  -7   5   7    0.90    0.37
   7  -5  -7    0.96    0.31
   7  -5  -7    1.45    0.44
  -5   5   6    1.22    0.39
  -5   5   6    1.17    0.33
   5  -5  -6    1.08    0.34
  -3   5   5    5.59    0.60
   3  -5  -5    5.65    0.66
   3  -5  -5    6.48    0.63
  -1   5   4    0.50    0.22
  -1   5   4    0.01    0.15
  -1   5   4    0.16    0.28
   1  -5  -4    0.27    0.21
   1  -5  -4    0.07    0.23
   1   5   3   64.44    1.97
   1   5   3   63.13    0.96
  -1  -5  -3   67.70    1.94
  -1  -5  -3   62.90    1.57
   3   5   2   68.33    2.07
   3   5   2   72.82    2.40
  -3  -5  -2   70.53    2.01
  -3  -5  -2   72.14    1.62
   5   5   1    1.36    0.42
  -5  -5  -1    1.68    0.31
  -5  -5  -1    2.34    0.50
   7   5   0   13.88    1.06
 -10   4   9   15.86    1.12
  10  -4  -9   15.61    1.55
  -8   4   8   17.82    1.05
   8  -4  -8   17.78    1.31
   8  -4  -8   18.24    1.33
  -6   4   7    6.90    0.71
   6  -4  -7    6.60    0.63
   6  -4  -7    6.44    0.86
  -4   4   6    5.35    0.56
  -4   4   6    6.98    0.73
   4  -4  -6    5.44    0.60
  -2   4   5   27.23    1.29
  -2   4   5   24.52    0.99
   2  -4  -5   24.55    1.04
   2  -4  -5   22.89    0.94
   0   4   4    1.43    0.31
   0   4   4    1.09    0.25
   0   4   4    0.92    0.33
   0  -4  -4    0.70    0.23
   0  -4  -4    1.44    0.40
   2   4   3   10.10    0.78
  -2  -4  -3    8.14    0.80
  -2  -4  -3    9.51    0.57
   4   4   2    1.78    0.43
   4   4   2    0.91    0.43
  -4  -4  -2    1.45    0.41
  -4  -4  -2    1.15    0.26
   6   4   1   13.53    0.96
  -6  -4  -1   14.23    0.69
  -6  -4  -1   13.22    0.92
   8   4   0    9.69    0.98
  -9   3   9   13.95    0.98
   9  -3  -9   13.73    1.44
   9  -3  -9   14.46    1.39
  -7   3   8   17.18    0.96
   7  -3  -8   18.60    1.25
   7  -3  -8   17.58    1.23
  -5   3   7   16.50    0.88
   5  -3  -7   20.23    1.19
   5  -3  -7   19.48    0.84
  -3   3   6   41.51    1.37
  -3   3   6   43.08    1.28
   3  -3  -6   44.98    1.66
   3  -3  -6   44.05    1.33
  -1   3   5   71.25    1.55
  -1   3   5   70.39    2.01
  -1   3   5   67.49    1.65
   1  -3  -5   71.84    1.63
   1  -3  -5   68.90    1.92
   1  -3  -5   67.76    1.71
   1   3   4   28.39    0.89
   1   3   4   28.89    1.00
   1   3   4   27.14    1.21
  -1  -3  -4   27.76    1.18
  -1  -3  -4   28.44    0.98
   3   3   3    2.55    0.50
   3   3   3    3.63    0.55
  -3  -3  -3    2.75    0.37
  -3  -3  -3    3.17    0.52
   5   3   2    2.80    0.59
   5   3   2    3.33    0.58
  -5  -3  -2    3.03    0.55
  -5  -3  -2    2.40    0.35
   7   3   1   12.59    1.14
  -7  -3  -1   12.27    0.92
  -7  -3  -1   12.86    0.69
   9   3   0    3.35    0.67
 -10   2  10   -0.13    0.26
  10  -2 -10    0.00    0.37
  -8   2   9    0.12    0.23
   8  -2  -9    0.51    0.38
   8  -2  -9    0.28    0.36
  -6   2   8   20.08    0.95
   6  -2  -8   19.69    1.18
  -4   2   7    0.63    0.22
   4  -2  -7    0.20    0.17
   4  -2  -7    0.47    0.30
  -2   2   6   86.51    1.82
  -2   2   6   90.10    2.00
   2  -2  -6   88.09    2.29
   2  -2  -6   91.12    1.80
   2  -2  -6   89.93    1.95
   2  -2  -6   89.65    2.18
   0   2   5   28.57    1.08
   0   2   5   30.12    1.02
   0   2   5   29.85    0.92
   0  -2  -5   28.99    1.03
   0  -2  -5   29.26    0.99
   0  -2  -5   26.38    1.13
   2   2   4   23.65    1.05
   2   2   4   22.79    0.79
   2   2   4   22.41    1.08
   2   2   4   22.47    0.88
  -2  -2  -4   23.08    0.86
  -2  -2  -4   22.05    1.08
  -2  -2  -4   23.12    1.05
   4   2   3   35.71    1.49
   4   2   3   37.71    1.46
  -4  -2  -3   39.22    1.43
  -4  -2  -3   36.50    1.09
   6   2   2   29.46    1.39
   6   2   2   31.06    1.57
  -6  -2  -2   30.21    1.35
  -6  -2  -2   30.77    1.02
   8   2   1    0.96    0.43
  -8  -2  -1    1.83    0.37
  -8  -2  -1    1.28    0.44
  10   2   0    0.44    0.38
 -10  -2   0    1.15    0.36
  -9   1  10    9.28    0.90
   9  -1 -10    9.43    1.11
  -7   1   9    6.07    0.64
   7  -1  -9    7.43    0.91
   7  -1  -9    7.56    1.06
  -5   1   8    0.94    0.26
   5  -1  -8    1.32    0.40
  -3   1   7   35.26    1.11
   3  -1  -7   34.46    1.03
   3  -1  -7   32.91    1.38
  -1   1   6   15.82    0.76
  -1   1   6   15.94    0.71
   1  -1  -6   15.16    0.73
   1  -1  -6   15.11    0.66
   1  -1  -6   13.39    0.80
   1  -1  -6   14.65    0.88
   1   1   5   33.01    1.13
   1   1   5   32.79    1.05
   1   1   5   34.07    0.96
   1   1   5   31.74    1.26
  -1  -1  -5   31.54    1.01
  -1  -1  -5   34.55    1.12
  -1  -1  -5   33.61    1.25
   3   1   4    5.68    0.48
   3   1   4    5.53    0.67
   3   1   4    5.98    0.55
   3   1   4    5.09    0.60
  -3  -1  -4    6.77    0.65
  -3  -1  -4    5.16    0.47
  -3  -1  -4    4.67    0.60
   5   1   3   57.53    1.91
   5   1   3   58.72    1.90
  -5  -1  -3   58.01    1.83
  -5  -1  -3   58.95    1.45
   7   1   2   18.97    1.18
   7   1   2   19.54    1.31
  -7  -1  -2   19.77    0.87
  -7  -1  -2   18.70    1.15
   9   1   1    5.55    0.84
  -9  -1  -1    4.57    0.57
  -9  -1  -1    3.66    0.69
  -8   0  10   25.99    1.15
   8   0 -10   27.65    1.49
  -6   0   9   55.68    1.53
   6   0  -9   57.17    1.95
  -4   0   8   11.32    0.63
   4   0  -8   10.83    0.82
  -2   0   7    6.27    0.46
   2   0  -7    6.12    0.44
   2   0  -7    7.84    0.79
   0   0   6    0.23    0.15
   0   0   6    0.40    0.18
   0   0   6    0.40    0.19
   0   0  -6    0.44    0.25
   0   0  -6    0.38    0.18
   0   0  -6    0.14    0.18
   0   0  -6    0.01    0.18
   2   0   5    2.67    0.36
   2   0   5    3.16    0.46
   2   0   5    2.98    0.39
   2   0   5    2.75    0.33
   2   0   5    3.24    0.53
  -2   0  -5    3.08    0.43
  -2   0  -5    2.88    0.49
  -2   0  -5    3.60    0.40
   4   0   4   30.30    1.21
   4   0   4   29.11    1.02
   4   0   4   26.39    1.23
   4   0   4   28.33    0.91
  -4   0  -4   26.78    1.20
  -4   0  -4   30.01    1.59
  -4   0  -4   27.51    0.98
   6   0   3   74.46    2.27
   6   0   3   74.59    2.24
  -6   0  -3   74.20    1.73
  -6   0  -3   71.77    2.15
   8   0   2    6.74    0.86
   8   0   2    9.51    1.07
  -8   0  -2    9.88    1.03
  -8   0  -2    6.65    0.63
  10   0   1   18.51    1.34
  10   0   1   19.70    1.39
 -10   0  -1   17.29    1.01
  -9  -1  11    0.38    0.29
   9   1 -11    0.20    0.36
  -7  -1  10   18.53    0.88
   7   1 -10   17.17    1.14
   7   1 -10   16.95    1.57
  -5  -1   9   39.48    1.19
   5   1  -9   42.45    1.62
  -3  -1   8   48.13    1.25
   3   1  -8   47.18    1.60
  -1  -1   7   52.30    1.29
  -1  -1   7   53.05    1.50
   1   1  -7   53.70    1.25
   1   1  -7   51.66    1.63
   1  -1   6   18.18    0.87
   1  -1   6   19.44    0.82
   1  -1   6   19.13    0.77
   1  -1   6   20.12    0.64
  -1   1  -6   20.45    1.02
  -1   1  -6   19.33    0.83
  -1   1  -6   21.69    0.98
   3  -1   5   13.85    0.77
   3  -1   5   13.94    0.71
   3  -1   5   12.43    0.59
   3  -1   5   13.49    0.70
   3  -1   5   13.19    0.85
  -3   1  -5   13.54    0.82
  -3   1  -5   14.35    0.75
  -3   1  -5   13.88    0.69
   5  -1   4   23.49    1.19
   5  -1   4   25.01    1.16
   5  -1   4   25.69    1.00
   5  -1   4   25.94    0.89
  -5   1  -4   24.46    1.22
  -5   1  -4   23.48    0.94
   7  -1   3    5.87    0.80
   7  -1   3    3.59    0.66
  -7   1  -3    5.26    0.75
  -7   1  -3    5.45    0.59
   9  -1   2   -0.16    0.29
   9  -1   2   -0.27    0.29
  -9   1  -2    0.13    0.34
  -9   1  -2    0.23    0.25
  11  -1   1    4.08    0.86
 -11   1  -1    4.26    0.67
  -8  -2  11    1.85    0.40
   8   2 -11    1.57    0.51
  -6  -2  10   10.60    0.62
   6   2 -10    9.06    1.12
   6   2 -10    8.31    0.89
  -4  -2   9    8.82    0.53
   4   2  -9    8.55    0.81
  -2  -2   8   47.23    1.18
   2   2  -8   46.99    1.56
   0  -2   7   37.56    1.07
   0   2  -7   39.67    1.04
   0   2  -7   37.40    1.41
   2  -2   6   70.88    1.77
   2  -2   6   66.95    1.53
   2  -2   6   68.34    1.65
  -2   2  -6   68.45    1.86
  -2   2  -6   68.45    1.59
  -2   2  -6   70.52    1.67
  -2   2  -6   68.88    1.96
   4  -2   5   47.24    1.23
   4  -2   5   43.87    1.41
   4  -2   5   48.50    1.38
   4  -2   5   43.30    1.61
  -4   2  -5   47.58    1.62
  -4   2  -5   46.25    1.32
  -4   2  -5   44.96    1.42
   6  -2   4    2.27    0.53
   6  -2   4    1.07    0.26
   6  -2   4    1.47    0.34
   6  -2   4    0.63    0.33
  -6   2  -4    1.35    0.32
  -6   2  -4    1.49    0.45
   8  -2   3    1.19    0.44
   8  -2   3    2.36    0.59
  -8   2  -3    0.96    0.41
  -8   2  -3    1.93    0.42
  10  -2   2    1.02    0.52
 -10   2  -2    1.80    0.56
 -10   2  -2    1.69    0.45
  12  -2   1    7.76    1.13
 -12   2  -1    7.42    0.91
   7   3 -11   -0.11    0.27
   5   3 -10    4.40    0.82
   5   3 -10    4.43    0.62
  -3  -3   9   25.84    0.82
   3   3  -9   25.75    1.17
  -1  -3   8    0.20    0.13
   1   3  -8    0.28    0.25
   1  -3   7   19.11    0.77
   1  -3   7   18.90    0.90
  -1   3  -7   20.54    0.76
  -1   3  -7   19.62    1.03
   3  -3   6  189.69    2.98
   3  -3   6  194.49    3.36
   3  -3   6  186.17    3.14
  -3   3  -6  184.38    3.14
  -3   3  -6  188.65    3.48
  -3   3  -6  187.51    2.90
   5  -3   5    8.89    0.69
   5  -3   5    9.30    0.94
   5  -3   5    9.01    0.63
  -5   3  -5    7.77    0.83
  -5   3  -5    8.87    0.78
  -5   3  -5    8.57    0.61
   7  -3   4   44.09    1.85
   7  -3   4   43.74    1.31
   7  -3   4   45.65    1.46
   7  -3   4   43.78    1.84
  -7   3  -4   44.35    1.47
  -7   3  -4   43.22    1.74
   9  -3   3   25.68    1.54
  -9   3  -3   24.74    1.45
  -9   3  -3   28.79    1.28
  11  -3   2   11.14    1.30
 -11   3  -2    8.98    0.90
 -11   3  -2   13.20    1.34
   6   4 -11    0.02    0.31
   4   4 -10    4.72    0.65
  -2  -4   9   23.15    0.76
   2   4  -9   23.05    1.13
   0  -4   8    0.53    0.18
   0   4  -8    0.92    0.33
   2  -4   7   11.89    0.74
   2  -4   7   12.37    0.65
  -2   4  -7   11.36    0.59
  -2   4  -7   11.40    0.86
   4  -4   6   36.55    1.16
   4  -4   6   35.11    1.24
   4  -4   6   31.34    1.27
  -4   4  -6   33.93    1.48
  -4   4  -6   33.05    1.21
   6  -4   5    9.03    0.87
   6  -4   5   10.23    0.87
  -6   4  -5    8.88    0.82
  -6   4  -5    7.97    0.88
  -6   4  -5   10.06    0.70
   8  -4   4    7.20    0.66
   8  -4   4    6.55    0.91
  -8   4  -4    7.58    0.76
  -8   4  -4   10.50    1.14
  10  -4   3   46.21    1.23
 -10   4  -3   46.00    1.72
  12  -4   2    3.24    0.85
 -12   4  -2    3.11    0.64
   5   5 -11    0.29    0.47
   5   5 -11    0.80    0.36
   3   5 -10   10.23    0.80
  -1  -5   9    9.58    0.50
   1   5  -9    9.93    0.80
   1  -5   8   26.57    0.91
  -1   5  -8   24.88    1.23
   3  -5   7   -0.01    0.16
  -3   5  -7    0.16    0.17
  -3   5  -7    0.28    0.28
   5  -5   6    0.44    0.22
   5  -5   6    0.12    0.22
   5  -5   6    1.05    0.32
  -5   5  -6    0.78    0.29
  -5   5  -6    0.61    0.38
   7  -5   5    4.65    0.67
   7  -5   5    3.93    0.56
  -7   5  -5    4.10    0.55
  -7   5  -5    5.18    0.68
   9  -5   4    3.91    0.55
  -9   5  -4    3.39    0.56
  11  -5   3   20.98    1.58
 -11   5  -3   19.77    1.24
   4   6 -11    0.28    0.30
   4   6 -11    0.76    0.54
   2   6 -10   30.18    1.34
   0  -6   9    4.53    0.44
   0   6  -9    4.50    0.64
   2  -6   8   11.16    0.64
  -2   6  -8   11.33    0.91
   4  -6   7    7.83    0.70
  -4   6  -7    7.19    0.53
  -4   6  -7    7.34    0.91
   6  -6   6   21.31    1.18
   6  -6   6   22.60    1.03
   6  -6   6   21.02    1.10
  -6   6  -6   22.25    1.09
   8  -6   5    6.07    0.73
  -8   6  -5    6.28    0.78
  -8   6  -5    6.12    0.68
  10  -6   4    0.70    0.30
 -10   6  -4    1.83    0.49
 -12   6  -3    2.82    0.64
   3   7 -11    3.77    0.61
   1   7 -10    9.38    0.93
   1  -7   9   23.12    0.90
  -1   7  -9   24.88    1.32
   3  -7   8   10.45    0.67
  -3   7  -8   11.66    1.16
   5  -7   7   21.79    1.03
  -5   7  -7   21.57    0.93
  -5   7  -7   21.31    1.33
   7  -7   6   10.04    0.75
   7  -7   6   10.50    1.09
   7  -7   6    8.66    0.87
  -7   7  -6    9.00    0.86
   9  -7   5    0.48    0.32
  -9   7  -5    0.14    0.33
  11  -7   4    0.39    0.31
 -11   7  -4    0.08    0.37
   2   8 -11    0.31    0.33
   0  -8  10   13.46    0.68
   0   8 -10   14.34    1.05
   2  -8   9    0.27    0.20
  -2   8  -9    0.32    0.33
   4  -8   8   12.53    0.79
  -4   8  -8   12.14    1.19
   6  -8   7    1.71    0.42
  -6   8  -7    1.34    0.52
  -6   8  -7    2.30    0.43
   8  -8   6   14.36    1.04
  -8   8  -6   14.36    1.00
  10  -8   5    3.83    0.71
 -10   8  -5    4.17    0.78
  12  -8   4    1.10    0.38
   1   9 -11    0.30    0.36
   1  -9  10    4.79    0.54
  -1   9 -10    3.72    0.70
   3  -9   9    1.27    0.34
  -3   9  -9    1.11    0.50
   5  -9   8    4.23    0.59
  -5   9  -8    3.48    0.76
   7  -9   7    5.56    0.72
  -7   9  -7    5.14    0.62
   9  -9   6    3.34    0.65
  -9   9  -6    3.15    0.60
  11  -9   5    0.28    0.37
 -11   9  -5    0.33    0.45
   0  10 -11    2.09    0.57
   2 -10  10   22.28    1.05
  -2  10 -10   23.54    1.48
   4 -10   9    4.10    0.58
  -4  10  -9    4.60    0.86
   6 -10   8    0.47    0.34
  -6  10  -8    0.52    0.51
   8 -10   7   -0.15    0.26
  -8  10  -7   -0.26    0.25
  10 -10   6    0.14    0.40
 -10  10  -6   -0.03    0.35
   1 -11  11    8.55    0.80
  -1  11 -11    8.44    1.07
   3 -11  10   17.89    1.04
  -3  11 -10   16.55    1.54
   5 -11   9    0.85    0.37
  -5  11  -9    0.67    0.55
   7 -11   8    0.56    0.39
  -7  11  -8    1.17    0.75
  -9  11  -7    1.68    0.48
  11 -11   6    4.73    0.90
 -11  11  -6    2.25    0.59
   4 -12  10   11.80    1.07
  -4  12 -10    9.41    1.22
   6 -12   9    0.98    0.44
  -6  12  -9    0.01    0.49
   8 -12   8    1.78    0.55
  -6  11   4   18.31    0.95
   6 -11  -4   18.33    1.27
  -4  11   3    2.95    0.82
   4 -11  -3    2.70    0.63
  -2  11   2    1.23    0.62
   2 -11  -2    0.21    0.37
  -7  10   5   10.49    1.04
   7 -10  -5   11.53    1.26
  -5  10   4    7.36    0.69
   5 -10  -4    8.12    0.91
  -3  10   3   11.80    1.33
   3 -10  -3   12.06    1.10
  -1  10   2   14.92    1.45
   1 -10  -2   14.45    1.01
   1  10   1   17.45    1.34
  -1 -10  -1   18.78    1.10
  -8   9   6    0.33    0.43
   8  -9  -6    0.32    0.38
  -6   9   5    9.97    0.94
   6  -9  -5   12.11    1.18
  -4   9   4    0.04    0.23
   4  -9  -4    0.22    0.31
  -2   9   3    0.20    0.38
   2  -9  -3    0.02    0.27
   0   9   2   16.06    1.26
   0  -9  -2   17.41    1.02
   2   9   1   31.23    1.63
  -2  -9  -1   29.72    1.28
  -9   8   7   17.64    1.52
   9  -8  -7   18.58    1.16
  -7   8   6   -0.02    0.33
   7  -8  -6   -0.02    0.30
  -5   8   5    0.14    0.26
   5  -8  -5    0.03    0.31
   5  -8  -5    0.08    0.28
  -3   8   4   32.77    1.09
  -3   8   4   29.50    1.63
   3  -8  -4   29.92    1.33
  -1   8   3    0.16    0.39
   1  -8  -3    0.16    0.25
   1   8   2   20.24    1.31
  -1  -8  -2   20.38    1.03
   3   8   1   12.77    1.20
  -3  -8  -1   12.09    0.80
 -10   7   8    9.52    1.05
  10  -7  -8    9.23    0.78
  -8   7   7   16.28    1.19
   8  -7  -7   17.41    1.07
  -6   7   6    0.01    0.29
   6  -7  -6    0.91    0.38
  -4   7   5    0.62    0.31
   4  -7  -5    0.38    0.33
   4  -7  -5    0.52    0.28
  -2   7   4   16.96    0.75
  -2   7   4   18.19    1.24
   2  -7  -4   17.19    0.96
   0   7   3    1.69    0.50
   0  -7  -3    0.59    0.28
   2   7   2    1.12    0.45
  -2  -7  -2    1.53    0.37
  -2  -7  -2    1.55    0.47
   4   7   1    2.55    0.56
  -4  -7  -1    2.56    0.44
  -9   6   8   26.48    1.44
   9  -6  -8   24.87    1.06
  -7   6   7   20.48    1.14
  -7   6   7   19.67    1.20
   7  -6  -7   22.95    1.14
  -5   6   6    0.39    0.27
   5  -6  -6    0.33    0.30
  -3   6   5    8.70    0.79
   3  -6  -5   10.13    0.93
   3  -6  -5    7.81    0.74
  -1   6   4   26.99    1.41
  -1   6   4   25.62    1.01
  -1   6   4   27.25    0.90
   1  -6  -4   26.41    1.10
   1   6   3    0.93    0.38
  -1  -6  -3    2.15    0.50
  -1  -6  -3    1.73    0.36
   3   6   2    6.38    0.81
  -3  -6  -2    8.33    0.61
  -3  -6  -2    8.89    0.92
   5   6   1    1.05    0.46
  -5  -6  -1    1.34    0.34
   7   6   0    1.97    0.53
 -10   5   9    0.59    0.46
  10  -5  -9    0.93    0.99
  -8   5   8    6.01    0.77
   8  -5  -8    5.92    0.60
   8  -5  -8    5.31    0.91
  -6   5   7   -0.04    0.24
  -6   5   7    0.07    0.25
   6  -5  -7    0.01    0.20
  -4   5   6    0.53    0.28
   4  -5  -6    0.63    0.29
  -2   5   5  125.78    2.52
  -2   5   5  129.85    3.14
   2  -5  -5  129.32    2.76
   2  -5  -5  131.65    2.59
   0   5   4    3.61    0.39
   0   5   4    3.81    0.63
   0   5   4    4.45    0.48
   0  -5  -4    4.85    0.71
   0  -5  -4    3.85    0.49
   2   5   3   25.28    1.27
  -2  -5  -3   24.20    0.98
  -2  -5  -3   24.45    1.21
   4   5   2   15.45    1.04
  -4  -5  -2   16.04    1.01
  -4  -5  -2   13.90    0.74
   6   5   1   24.08    1.33
  -6  -5  -1   24.64    2.27
  -6  -5  -1   23.06    0.96
  -9   4   9    1.75    0.48
   9  -4  -9    1.93    0.67
   9  -4  -9    1.78    0.66
  -7   4   8    5.50    0.71
   7  -4  -8    4.20    0.50
   7  -4  -8    4.97    0.85
  -5   4   7   13.64    0.84
  -5   4   7   11.96    0.84
   5  -4  -7   12.90    0.79
  -3   4   6    0.29    0.22
  -3   4   6   -0.12    0.15
   3  -4  -6    0.15    0.22
   3  -4  -6   -0.07    0.16
  -1   4   5   64.97    1.66
  -1   4   5   64.84    1.65
  -1   4   5   68.01    2.08
   1  -4  -5   68.10    1.83
   1  -4  -5   70.83    2.05
   1  -4  -5   67.15    1.69
   1   4   4    6.58    0.78
   1   4   4    6.04    0.40
   1   4   4    6.25    0.56
  -1  -4  -4    8.74    0.89
  -1  -4  -4    5.69    0.55
   3   4   3    6.03    0.81
   3   4   3    8.22    0.87
  -3  -4  -3    5.84    0.56
  -3  -4  -3    6.34    0.73
   5   4   2   11.95    0.95
  -5  -4  -2   11.67    0.68
  -5  -4  -2   13.12    0.93
   7   4   1    6.61    0.84
  -7  -4  -1    8.19    0.70
 -10   3  10   11.69    1.12
  10  -3 -10    9.85    1.25
  -8   3   9    3.41    0.58
   8  -3  -9    5.07    0.86
   8  -3  -9    6.33    0.96
  -6   3   8   18.17    0.99
   6  -3  -8   17.00    1.19
   6  -3  -8   17.21    0.76
  -4   3   7   33.76    1.21
  -4   3   7   34.34    1.33
   4  -3  -7   32.72    1.20
   4  -3  -7   34.22    1.54
  -2   3   6    3.64    0.45
  -2   3   6    2.92    0.46
   2  -3  -6    4.43    0.55
   2  -3  -6    3.32    0.43
   2  -3  -6    3.21    0.66
   0   3   5   10.26    0.79
   0   3   5   10.72    0.63
   0   3   5   10.93    0.70
   0  -3  -5    8.46    0.58
   0  -3  -5   10.42    0.79
   0  -3  -5   11.38    0.71
   2   3   4    2.36    0.47
   2   3   4    3.00    0.33
   2   3   4    2.52    0.35
   2   3   4    3.44    0.57
  -2  -3  -4    2.70    0.40
  -2  -3  -4    3.80    0.59
   4   3   3   17.76    1.08
   4   3   3   20.93    1.22
  -4  -3  -3   19.55    0.83
  -4  -3  -3   19.96    1.08
   6   3   2   15.44    1.07
  -6  -3  -2   14.54    0.75
  -6  -3  -2   14.49    1.00
   8   3   1   15.92    1.18
  -8  -3  -1   14.85    0.83
  -9   2  10    0.69    0.34
   9  -2 -10    0.29    0.42
  -7   2   9    2.51    0.46
   7  -2  -9    2.57    0.59
   7  -2  -9    1.08    0.44
  -5   2   8   11.19    0.74
   5  -2  -8   10.64    1.08
   5  -2  -8   11.64    0.58
  -3   2   7   37.87    1.23
  -3   2   7   38.84    1.35
   3  -2  -7   39.89    1.59
   3  -2  -7   39.79    1.25
  -1   2   6    5.32    0.56
  -1   2   6    5.83    0.54
   1  -2  -6    5.10    0.49
   1  -2  -6    5.70    0.58
   1  -2  -6    5.28    0.65
   1   2   5   64.63    1.66
   1   2   5   63.59    1.91
   1   2   5   60.35    1.51
  -1  -2  -5   62.92    1.66
  -1  -2  -5   65.79    1.87
  -1  -2  -5   63.71    1.56
   3   2   4   12.34    0.85
   3   2   4   11.14    0.50
   3   2   4   13.42    0.92
   3   2   4   12.91    0.64
  -3  -2  -4   11.44    0.81
  -3  -2  -4   11.63    0.65
   5   2   3   13.40    1.00
   5   2   3   12.81    0.93
  -5  -2  -3   11.91    0.67
  -5  -2  -3   13.12    0.92
   7   2   2    3.47    0.66
  -7  -2  -2    4.27    0.69
  -7  -2  -2    4.36    0.52
   9   2   1    1.74    0.58
  -9  -2  -1    1.73    0.42
  -8   1  10    1.32    0.38
   8  -1 -10    1.23    0.58
   8  -1 -10    0.22    0.38
  -6   1   9    2.13    0.40
   6  -1  -9    2.42    0.54
  -4   1   8   85.77    1.97
   4  -1  -8   93.03    1.66
   4  -1  -8   89.28    2.47
  -2   1   7   17.24    0.78
  -2   1   7   16.93    0.85
   2  -1  -7   17.09    0.79
   2  -1  -7   17.24    1.01
   0   1   6   50.93    1.43
   0   1   6   51.70    1.44
   0   1   6   50.39    1.33
   0  -1  -6   52.84    1.65
   0  -1  -6   53.50    1.34
   0  -1  -6   49.89    1.42
   2   1   5  121.99    2.72
   2   1   5  123.66    2.27
   2   1   5  125.57    2.45
   2   1   5  125.80    2.46
  -2  -1  -5  122.93    2.41
  -2  -1  -5  117.70    2.64
  -2  -1  -5  123.96    2.30
   4   1   4   12.88    0.54
   4   1   4   12.80    0.88
   4   1   4   16.39    1.00
   4   1   4   12.97    0.65
  -4  -1  -4   14.97    0.93
  -4  -1  -4   12.46    0.69
   6   1   3    1.51    0.51
   6   1   3    0.64    0.36
  -6  -1  -3    1.24    0.43
  -6  -1  -3    0.37    0.21
   8   1   2    5.32    0.84
  -8  -1  -2    6.50    0.88
  -8  -1  -2    5.31    0.61
  10   1   1   -0.25    0.32
 -10  -1  -1   -0.10    0.27
  -9   0  11    6.59    0.75
   9   0 -11    8.43    1.11
  -7   0  10    1.55    0.38
   7   0 -10    1.55    0.54
   7   0 -10    2.46    0.59
  -5   0   9    1.86    0.35
   5   0  -9    1.88    0.47
  -3   0   8   -0.05    0.13
   3   0  -8   -0.07    0.21
   3   0  -8   -0.03    0.11
  -1   0   7   -0.16    0.14
  -1   0   7   -0.25    0.12
   1   0  -7    0.17    0.24
   1   0  -7    0.36    0.19
   1   0   6   27.32    0.94
   1   0   6   27.79    0.89
   1   0   6   29.39    1.14
   1   0   6   26.94    1.01
  -1   0  -6   26.77    1.16
  -1   0  -6   29.98    1.08
  -1   0  -6   29.13    0.98
   3   0   5   83.27    1.81
   3   0   5   86.36    1.98
   3   0   5   87.16    2.00
  -3   0  -5   84.36    2.20
  -3   0  -5   81.46    1.81
  -3   0  -5   81.57    1.94
   5   0   4    5.46    0.53
   5   0   4    5.81    0.71
   5   0   4    5.10    0.71
   5   0   4    5.39    0.39
  -5   0  -4    5.98    0.58
  -5   0  -4    5.74    0.73
   7   0   3    9.05    1.00
  -7   0  -3   10.66    1.08
  -7   0  -3   11.11    0.71
   9   0   2    8.09    1.00
   9   0   2   12.97    1.34
  -9   0  -2   11.61    0.80
  -9   0  -2    9.36    1.08
  11   0   1    4.07    0.84
  11   0   1    3.10    0.73
 -11   0  -1    5.53    0.75
  -8  -1  11    9.09    0.84
   8   1 -11   10.55    1.15
  -6  -1  10   11.94    0.73
   6   1 -10   11.25    1.20
   6   1 -10   12.51    0.97
  -4  -1   9    3.96    0.45
   4   1  -9    4.47    0.64
  -2  -1   8    7.16    0.50
   2   1  -8    8.68    0.83
   2   1  -8    8.35    0.39
   0  -1   7    4.48    0.45
   0  -1   7    5.64    0.56
   0   1  -7    5.88    0.73
   0   1  -7    4.68    0.49
   2  -1   6   26.25    1.08
   2  -1   6   28.80    1.05
   2  -1   6   26.84    0.89
   2  -1   6   27.56    0.96
  -2   1  -6   27.74    1.19
  -2   1  -6   26.13    1.03
  -2   1  -6   25.88    0.94
   4  -1   5   48.75    1.38
   4  -1   5   48.17    1.51
   4  -1   5   49.67    1.51
   4  -1   5   52.47    1.81
  -4   1  -5   49.32    1.52
  -4   1  -5   49.37    1.41
  -4   1  -5   53.19    1.76
   6  -1   4    1.73    0.48
   6  -1   4    1.05    0.24
   6  -1   4    1.84    0.34
  -6   1  -4    1.12    0.41
  -6   1  -4    1.05    0.29
   8  -1   3   34.85    1.70
   8  -1   3   33.53    1.67
  -8   1  -3   35.47    1.67
  -8   1  -3   34.85    1.32
  10  -1   2   29.41    1.73
  10  -1   2   30.77    1.76
 -10   1  -2   29.34    1.66
 -10   1  -2   31.67    1.40
  -7  -2  11   25.46    1.07
   7   2 -11   24.30    1.37
  -5  -2  10    6.07    0.57
   5   2 -10    6.52    0.80
  -3  -2   9   14.72    0.70
   3   2  -9   16.16    0.97
  -1  -2   8  100.60    1.94
   1   2  -8  100.58    1.51
   1   2  -8   96.21    2.41
   1  -2   7   17.13    0.77
   1  -2   7   18.49    0.85
   1  -2   7   17.65    0.90
  -1   2  -7   18.50    0.82
  -1   2  -7   18.02    1.03
   3  -2   6   23.54    0.91
   3  -2   6   24.67    1.00
   3  -2   6   23.29    1.06
  -3   2  -6   24.79    0.94
  -3   2  -6   25.28    1.04
  -3   2  -6   24.35    1.16
   5  -2   5    6.01    0.76
   5  -2   5    7.48    0.65
   5  -2   5    5.64    0.64
  -5   2  -5    5.61    0.57
  -5   2  -5    5.13    0.71
  -5   2  -5    5.20    0.63
   7  -2   4    1.91    0.33
   7  -2   4    2.39    0.59
   7  -2   4    1.70    0.34
   7  -2   4    1.52    0.49
  -7   2  -4    2.85    0.62
  -7   2  -4    2.12    0.43
   9  -2   3   26.58    1.58
   9  -2   3   26.50    1.58
  -9   2  -3   27.04    1.53
  -9   2  -3   25.59    1.21
  11  -2   2   18.33    1.71
  11  -2   2   19.99    1.55
 -11   2  -2   18.02    1.14
  -6  -3  11    6.41    0.59
   6   3 -11    6.44    0.78
   6   3 -11    4.92    0.99
  -4  -3  10   15.96    0.72
   4   3 -10   15.18    0.98
  -2  -3   9   41.84    1.15
   2   3  -9   41.63    1.55
   0  -3   8   58.28    1.43
   0   3  -8   59.12    1.06
   0   3  -8   60.55    1.90
   2  -3   7   39.00    1.27
   2  -3   7   35.17    1.30
   2  -3   7   39.05    1.18
  -2   3  -7   36.18    1.49
  -2   3  -7   38.05    1.19
   4  -3   6    1.89    0.40
   4  -3   6    1.79    0.32
   4  -3   6    2.02    0.38
  -4   3  -6    2.09    0.41
  -4   3  -6    1.63    0.34
  -4   3  -6    1.38    0.42
   6  -3   5   68.57    1.77
   6  -3   5   70.12    2.27
   6  -3   5   67.53    1.92
  -6   3  -5   65.47    1.79
  -6   3  -5   66.19    2.18
  -6   3  -5   66.66    1.96
   8  -3   4    0.41    0.22
   8  -3   4    0.11    0.35
   8  -3   4    0.71    0.40
  -8   3  -4    0.19    0.33
  -8   3  -4    0.42    0.28
  10  -3   3    7.14    1.01
 -10   3  -3    8.95    1.13
 -10   3  -3    8.90    0.93
  12  -3   2    1.74    0.68
 -12   3  -2    2.28    0.59
   5   4 -11    1.66    0.60
   5   4 -11    1.65    0.45
  -3  -4  10    0.57    0.21
   3   4 -10    0.49    0.30
  -1  -4   9   18.90    0.76
   1   4  -9   17.44    1.04
   1  -4   8   48.08    1.31
  -1   4  -8   47.35    0.96
  -1   4  -8   47.01    1.72
   3  -4   7    0.92    0.26
   3  -4   7    0.82    0.33
   3  -4   7    1.27    0.34
  -3   4  -7    1.18    0.29
  -3   4  -7    0.70    0.38
   5  -4   6   37.24    1.43
   5  -4   6   35.33    1.21
  -5   4  -6   36.50    1.25
  -5   4  -6   36.27    1.36
   7  -4   5   12.51    0.79
   7  -4   5   11.16    0.82
  -7   4  -5   12.60    0.89
  -7   4  -5   11.86    0.80
   9  -4   4    7.08    1.08
   9  -4   4    7.21    0.63
  -9   4  -4    7.53    0.82
  -9   4  -4    6.57    0.93
  11  -4   3    4.16    0.87
 -11   4  -3    3.60    0.88
 -11   4  -3    4.65    0.73
   6   5 -12    3.80    0.66
   4   5 -11   20.28    1.15
   4   5 -11   22.37    1.53
  -2  -5  10    3.62    0.39
   2   5 -10    4.55    0.67
   0  -5   9   21.48    0.83
   0   5  -9   21.39    1.17
   2  -5   8    4.28    0.47
  -2   5  -8    3.25    0.59
  -2   5  -8    4.65    0.33
   4  -5   7    0.69    0.32
   4  -5   7    0.17    0.19
   4  -5   7    0.33    0.23
  -4   5  -7    0.20    0.30
  -4   5  -7    0.77    0.28
   6  -5   6   33.66    1.45
   6  -5   6   33.57    1.35
  -6   5  -6   31.91    1.34
   8  -5   5  118.21    2.64
  -8   5  -5  112.54    2.67
  -8   5  -5  117.68    2.94
  10  -5   4    8.21    0.71
 -10   5  -4    8.17    0.90
  12  -5   3    3.54    0.92
 -12   5  -3    4.03    0.77
   5   6 -12   16.75    1.09
   3   6 -11   22.05    1.22
   3   6 -11   23.42    1.52
  -1  -6  10    7.20    0.49
   1   6 -10    6.44    0.81
   1  -6   9    0.43    0.20
  -1   6  -9    0.03    0.24
   3  -6   8    5.68    0.57
  -3   6  -8    6.56    0.42
  -3   6  -8    6.83    0.87
   5  -6   7    2.26    0.43
   5  -6   7    2.14    0.49
  -5   6  -7    1.65    0.54
  -5   6  -7    1.92    0.40
   7  -6   6    6.07    0.72
   7  -6   6    5.24    0.80
  -7   6  -6    6.67    0.79
   9  -6   5   19.38    1.08
  -9   6  -5   18.69    1.10
  -9   6  -5   17.79    1.18
  11  -6   4    0.64    0.33
 -11   6  -4    1.01    0.45
   4   7 -12   24.90    1.32
   2   7 -11   15.01    1.05
   0  -7  10   28.59    1.00
   0   7 -10   28.20    1.44
   2  -7   9   20.29    0.92
  -2   7  -9   21.24    1.29
   4  -7   8   13.20    0.81
  -4   7  -8   13.03    0.62
  -4   7  -8   12.17    1.20
   6  -7   7    1.17    0.39
   6  -7   7    0.96    0.31
  -6   7  -7    0.33    0.25
   8  -7   6    1.29    0.43
  -8   7  -6    0.36    0.31
  10  -7   5    0.01    0.27
 -10   7  -5    0.30    0.38
  12  -7   4    0.35    0.30
 -12   7  -4   -0.05    0.35
   3   8 -12    0.83    0.42
   1   8 -11    2.55    0.58
   1  -8  10    0.46    0.23
  -1   8 -10    0.07    0.30
   3  -8   9   37.86    1.35
  -3   8  -9   42.40    1.91
   5  -8   8    8.22    0.80
  -5   8  -8    9.22    0.56
  -5   8  -8    7.94    1.05
   7  -8   7    1.48    0.45
   7  -8   7    1.65    0.43
  -7   8  -7    1.93    0.47
   9  -8   6    3.56    0.66
  -9   8  -6    3.22    0.64
  11  -8   5   10.18    1.00
 -11   8  -5   10.82    1.17
   2   9 -12    0.03    0.32
   0  -9  11    2.13    0.39
   0   9 -11    0.75    0.42
   2  -9  10   10.16    0.72
  -2   9 -10   11.62    1.25
   4  -9   9   34.75    1.38
  -4   9  -9   35.87    1.83
   6  -9   8   13.11    0.94
  -6   9  -8   12.90    1.40
  -6   9  -8   11.68    0.67
   8  -9   7    9.22    1.04
   8  -9   7   10.82    1.01
  -8   9  -7    9.77    0.92
  10  -9   6   11.51    1.18
 -10   9  -6   11.06    1.15
  12  -9   5    7.24    0.91
 -12   9  -5    8.29    1.15
   1 -10  11   11.21    0.78
  -1  10 -11   12.28    1.29
   3 -10  10    3.21    0.53
  -3  10 -10    2.12    0.63
   5 -10   9    0.82    0.35
  -5  10  -9    1.22    0.57
   7 -10   8    0.00    0.29
  -7  10  -8    0.02    0.23
   9 -10   7    5.14    0.84
  -9  10  -7    5.87    0.80
  11 -10   6    6.23    0.92
 -11  10  -6    4.82    0.85
   2 -11  11    2.11    0.47
  -2  11 -11    1.89    0.62
   4 -11  10    0.39    0.35
  -4  11 -10    0.39    0.44
   6 -11   9   10.06    0.99
  -6  11  -9   13.74    1.53
   8 -11   8    5.00    0.80
  -8  11  -8    4.76    0.56
  10 -11   7    0.84    0.51
 -10  11  -7    1.76    0.55
   5 -12  10    4.19    0.75
  -5  12 -10    3.24    0.83
   7 -12   9    4.19    0.76
  -7  12  -9    4.40    0.99
   5 -11  -4    0.16    0.37
  -3  11   3    0.01    0.50
   3 -11  -3   -0.06    0.36
  -8  10   6   13.98    1.24
   8 -10  -6   16.28    1.47
  -6  10   5    4.62    0.65
   4 -10  -4    6.58    0.85
  -2  10   3   13.09    1.40
   2 -10  -3   11.07    1.05
   0  10   2    4.83    0.92
   0 -10  -2    3.92    0.67
  -9   9   7   13.09    1.35
   9  -9  -7   12.33    1.19
  -7   9   6    2.47    0.63
   7  -9  -6    0.69    0.51
  -5   9   5   14.74    0.94
   5  -9  -5   13.49    1.02
  -3   9   4   33.39    1.84
   3  -9  -4   32.12    1.47
  -1   9   3   35.47    1.85
   1  -9  -3   30.30    1.39
   1   9   2    7.89    1.05
  -1  -9  -2    7.57    0.82
   3   9   1    2.07    0.56
  -3  -9  -1    1.59    0.45
  -8   8   7    0.15    0.38
   8  -8  -7    0.43    0.36
  -6   8   6    3.68    0.64
   6  -8  -6    4.27    0.71
  -4   8   5    5.11    0.63
  -4   8   5    4.38    0.60
   4  -8  -5    4.85    0.68
  -2   8   4   12.40    1.28
  -2   8   4   14.06    0.54
   2  -8  -4   14.38    0.96
   0   8   3   24.03    1.46
   0  -8  -3   23.51    1.16
   2   8   2   10.48    1.14
  -2  -8  -2   10.03    0.91
   4   8   1    3.57    0.74
  -4  -8  -1    2.50    0.50
   9  -7  -8    2.47    0.55
  -7   7   7   10.06    1.04
   7  -7  -7    8.50    0.89
  -5   7   6   43.84    1.63
   5  -7  -6   43.98    1.74
  -3   7   5    7.37    0.69
  -3   7   5    7.31    0.72
   3  -7  -5    7.17    0.74
  -1   7   4    3.23    0.27
  -1   7   4    3.55    0.69
   1  -7  -4    2.82    0.48
   1   7   3   12.07    1.18
  -1  -7  -3   12.87    1.18
  -1  -7  -3   10.56    0.77
   3   7   2    7.78    0.96
  -3  -7  -2    6.95    0.72
  -3  -7  -2    6.93    0.91
   5   7   1    9.82    1.04
  -5  -7  -1   14.06    0.87
 -10   6   9    4.59    0.84
  -8   6   8   -0.02    0.30
   8  -6  -8    0.29    0.32
  -6   6   7   33.44    1.51
   6  -6  -7   34.53    1.44
  -4   6   6   26.29    1.21
   4  -6  -6   26.18    1.27
   4  -6  -6   23.81    1.32
  -2   6   5   16.10    0.84
  -2   6   5   17.45    1.22
   2  -6  -5   17.89    0.97
   0   6   4    0.75    0.38
   0   6   4    1.25    0.29
   0   6   4    1.33    0.20
   0  -6  -4    1.79    0.51
   0  -6  -4    1.92    0.41
   2   6   3    3.72    0.67
  -2  -6  -3    3.10    0.47
  -2  -6  -3    2.55    0.56
   4   6   2   -0.18    0.31
  -4  -6  -2    0.27    0.34
  -4  -6  -2    0.41    0.23
   6   6   1   10.91    1.09
  -6  -6  -1   10.04    0.76
  -9   5   9    1.32    0.49
   9  -5  -9    0.87    0.51
  -7   5   8    1.34    0.45
   7  -5  -8    1.23    0.34
  -5   5   7   25.32    1.15
  -5   5   7   25.53    1.27
   5  -5  -7   26.11    1.19
  -3   5   6   37.45    1.38
   3  -5  -6   37.07    1.32
   3  -5  -6   39.41    1.48
  -1   5   5   35.14    1.18
  -1   5   5   35.50    1.30
  -1   5   5   36.19    1.62
   1  -5  -5   35.31    1.53
   1  -5  -5   34.14    1.26
   1   5   4   61.97    1.32
   1   5   4   59.48    2.04
  -1  -5  -4   54.98    1.90
  -1  -5  -4   58.68    1.66
   3   5   3   13.55    1.01
  -3  -5  -3   13.07    0.77
  -3  -5  -3   13.71    0.99
   5   5   2    9.45    1.02
  -5  -5  -2    9.61    0.99
  -5  -5  -2    9.08    0.67
   7   5   1    0.47    0.41
  -7  -5  -1    0.01    0.24
 -10   4  10    0.20    0.39
  10  -4 -10    0.33    0.49
  -8   4   9    8.02    0.90
   8  -4  -9    7.86    1.06
   8  -4  -9    8.14    1.16
  -6   4   8    0.22    0.27
   6  -4  -8    0.27    0.23
  -4   4   7   11.20    0.74
  -4   4   7   11.28    0.82
   4  -4  -7    9.37    0.84
  -2   4   6    0.16    0.21
   2  -4  -6    0.55    0.28
   2  -4  -6    0.18    0.20
   0   4   5   18.79    0.83
   0   4   5   20.62    0.96
   0   4   5   20.10    1.17
   0  -4  -5   19.96    0.93
   0  -4  -5   19.26    1.10
   2   4   4   14.50    1.00
   2   4   4   14.48    0.59
   2   4   4   14.47    1.01
  -2  -4  -4   14.24    0.78
  -2  -4  -4   13.53    0.94
   4   4   3   38.23    1.62
   4   4   3   34.31    2.44
  -4  -4  -3   36.56    1.53
  -4  -4  -3   33.91    1.20
   6   4   2    5.38    0.79
  -6  -4  -2    5.90    0.80
  -6  -4  -2    5.41    0.58
   8   4   1    5.89    0.88
  -8  -4  -1    5.79    0.66
  -9   3  10    9.76    1.00
   9  -3 -10   10.43    1.29
  -7   3   9   23.58    1.20
   7  -3  -9   24.19    1.52
  -5   3   8    3.63    0.54
   5  -3  -8    3.56    0.48
   5  -3  -8    4.65    0.76
  -3   3   7    0.88    0.30
  -3   3   7    1.18    0.32
   3  -3  -7    1.53    0.36
  -1   3   6    7.72    0.69
  -1   3   6    8.02    0.70
   1  -3  -6    8.50    0.61
   1  -3  -6    7.83    0.83
   1  -3  -6    8.18    0.72
   1   3   5   10.84    0.69
   1   3   5   11.20    0.64
   1   3   5    9.79    0.94
  -1  -3  -5    9.77    0.64
  -1  -3  -5   11.13    0.85
   3   3   4   34.29    0.89
   3   3   4   36.44    1.54
   3   3   4   35.84    1.53
  -3  -3  -4   37.04    1.21
  -3  -3  -4   34.17    1.44
   5   3   3   24.21    1.62
   5   3   3   26.07    1.38
  -5  -3  -3   26.65    1.04
  -5  -3  -3   25.57    1.31
   7   3   2    4.67    0.77
  -7  -3  -2    5.90    0.82
  -7  -3  -2    7.28    0.68
   9   3   1   11.90    1.26
  -9  -3  -1   13.63    0.90
  -8   2  10   13.39    0.94
   8  -2 -10   11.39    1.24
   8  -2 -10   11.31    1.49
  -6   2   9    9.47    0.85
   6  -2  -9    8.49    1.01
  -4   2   8    1.06    0.29
   4  -2  -8    0.65    0.40
   4  -2  -8    0.42    0.21
  -2   2   7   34.67    1.27
  -2   2   7   32.38    1.15
   2  -2  -7   33.43    1.48
   2  -2  -7   35.38    1.22
   0   2   6    4.08    0.49
   0   2   6    4.75    0.68
   0   2   6    4.70    0.57
   0  -2  -6    4.03    0.59
   0  -2  -6    3.55    0.44
   0  -2  -6    4.92    0.58
   2   2   5    2.26    0.48
   2   2   5    1.94    0.37
   2   2   5    2.63    0.39
   2   2   5    1.37    0.36
  -2  -2  -5    2.20    0.62
  -2  -2  -5    2.32    0.46
  -2  -2  -5    2.67    0.41
   4   2   4    7.62    0.86
   4   2   4    8.42    0.45
   4   2   4    8.70    0.94
  -4  -2  -4    9.71    0.63
  -4  -2  -4    9.67    0.92
   6   2   3    4.48    0.74
  -6  -2  -3    5.16    0.75
  -6  -2  -3    5.45    0.58
   8   2   2    9.55    1.10
  -8  -2  -2   11.24    0.78
  -8  -2  -2   10.01    1.07
  -9   1  11   14.18    1.02
   9  -1 -11   19.46    1.45
  -7   1  10    7.73    0.77
   7  -1 -10    7.76    0.98
   7  -1 -10    7.43    1.09
  -5   1   9   15.09    0.85
   5  -1  -9   14.51    1.05
  -3   1   8   19.46    0.90
   3  -1  -8   21.09    0.86
   3  -1  -8   20.86    1.20
  -1   1   7   79.02    1.80
  -1   1   7   74.19    1.87
   1  -1  -7   80.80    1.88
   1  -1  -7   78.00    2.23
   1   1   6   10.27    0.71
   1   1   6   11.24    0.84
   1   1   6   11.26    0.67
   1   1   6    9.98    0.64
  -1  -1  -6   11.13    0.96
  -1  -1  -6   10.35    0.63
  -1  -1  -6   11.41    0.71
   3   1   5    3.61    0.56
   3   1   5    3.68    0.43
   3   1   5    3.56    0.47
   3   1   5    3.50    0.60
  -3  -1  -5    3.57    0.61
  -3  -1  -5    3.26    0.43
  -3  -1  -5    4.40    0.63
   5   1   4    7.15    0.85
   5   1   4    7.98    0.45
   5   1   4    9.31    0.99
  -5  -1  -4    8.19    0.61
  -5  -1  -4    9.11    0.92
   7   1   3   15.18    1.14
  -7  -1  -3   14.38    0.84
  -7  -1  -3   13.22    1.18
   9   1   2    7.44    1.04
  -9  -1  -2    8.67    0.84
  -8   0  11    0.19    0.29
   8   0 -11    0.10    0.39
  -6   0  10    1.74    0.37
   6   0 -10    1.07    0.45
  -4   0   9    0.21    0.20
   4   0  -9    0.19    0.26
  -2   0   8    9.23    0.61
   2   0  -8   10.17    0.98
   2   0  -8    8.62    0.55
   0   0   7   34.03    1.20
   0   0   7   32.71    1.19
   0   0   7   34.06    1.12
   0   0  -7   34.28    1.42
   0   0  -7   35.36    1.19
   2   0   6    7.34    0.82
   2   0   6    7.72    0.68
   2   0   6    6.84    0.71
   2   0   6    5.74    0.56
  -2   0  -6    5.57    0.60
  -2   0  -6    7.06    0.77
  -2   0  -6    7.03    0.53
   4   0   5    7.09    0.74
   4   0   5    9.32    0.93
   4   0   5   10.15    0.67
   4   0   5    7.44    0.54
  -4   0  -5    8.05    1.00
  -4   0  -5    9.02    0.62
  -4   0  -5    9.98    0.97
   6   0   4   48.16    1.88
   6   0   4   49.92    1.93
   6   0   4   49.16    1.17
  -6   0  -4   47.80    1.47
  -6   0  -4   51.04    1.87
   8   0   3    5.51    0.83
  -8   0  -3    5.67    0.65
  -8   0  -3    5.75    0.86
  10   0   2    2.03    0.60
 -10   0  -2    1.90    0.48
  -7  -1  11    2.59    0.48
   7   1 -11    2.00    0.55
  -5  -1  10    4.41    0.53
   5   1 -10    4.23    0.68
  -3  -1   9    1.61    0.32
   3   1  -9    1.46    0.41
  -1  -1   8   20.32    0.87
   1   1  -8   21.08    1.13
   1   1  -8   21.22    0.83
   1  -1   7   38.68    1.27
   1  -1   7   35.81    1.16
   1  -1   7   38.32    1.37
  -1   1  -7   39.20    1.27
  -1   1  -7   42.85    1.58
   3  -1   6    1.64    0.35
   3  -1   6    1.33    0.34
   3  -1   6    1.55    0.33
   3  -1   6    1.89    0.44
  -3   1  -6    1.58    0.45
  -3   1  -6    1.92    0.36
  -3   1  -6    2.12    0.41
   5  -1   5    2.83    0.40
   5  -1   5    3.22    0.61
   5  -1   5    2.37    0.49
   5  -1   5    2.48    0.44
  -5   1  -5    2.63    0.43
  -5   1  -5    2.82    0.59
   7  -1   4   41.51    0.79
   7  -1   4   41.53    1.83
  -7   1  -4   42.65    1.46
  -7   1  -4   41.08    1.80
   9  -1   3   15.12    1.42
  -9   1  -3   12.48    0.89
  -9   1  -3   13.13    1.28
  11  -1   2    0.46    0.48
  11  -1   2    0.62    0.49
 -11   1  -2    0.04    0.31
  -6  -2  11   12.44    0.77
   6   2 -11    9.54    1.01
   6   2 -11   11.49    1.31
  -4  -2  10   61.90    1.59
   4   2 -10   60.49    2.01
  -2  -2   9    0.48    0.21
   2   2  -9   -0.32    0.19
   0  -2   8   26.28    0.98
   0   2  -8   27.18    1.29
   0   2  -8   26.39    0.92
   2  -2   7    7.37    0.55
   2  -2   7    7.37    0.68
   2  -2   7    6.66    0.70
  -2   2  -7    6.73    0.63
  -2   2  -7    6.21    0.76
   4  -2   6    0.87    0.31
   4  -2   6    0.94    0.29
   4  -2   6    0.70    0.37
  -4   2  -6    1.46    0.38
  -4   2  -6    0.14    0.24
  -4   2  -6    0.67    0.25
   6  -2   5   18.73    0.87
   6  -2   5   20.55    1.26
   6  -2   5   19.77    1.02
  -6   2  -5   18.92    0.96
  -6   2  -5   19.31    1.22
   8  -2   4   23.16    1.46
   8  -2   4   22.57    1.41
   8  -2   4   22.50    0.64
  -8   2  -4   22.94    1.14
  -8   2  -4   22.03    1.38
  10  -2   3    2.96    0.69
  10  -2   3    3.30    0.77
 -10   2  -3    4.59    0.87
 -10   2  -3    3.25    0.58
  -7  -3  12    0.12    0.25
   7   3 -12    0.12    0.34
  -5  -3  11   24.23    0.98
   5   3 -11   24.62    1.33
  -3  -3  10   43.20    1.26
   3   3 -10   40.22    1.62
  -1  -3   9   26.83    0.97
   1   3  -9   26.70    1.30
   1  -3   8   19.98    0.86
  -1   3  -8   19.07    1.12
  -1   3  -8   19.24    0.80
   3  -3   7    4.52    0.55
   3  -3   7    5.05    0.64
   3  -3   7    5.25    0.55
  -3   3  -7    5.03    0.73
  -3   3  -7    5.73    0.62
   5  -3   6   22.23    1.10
   5  -3   6   22.79    1.05
  -5   3  -6   24.32    1.03
  -5   3  -6   21.78    1.22
  -5   3  -6   22.57    1.11
   7  -3   5    7.55    0.70
   7  -3   5    5.89    0.84
  -7   3  -5    6.71    0.71
   9  -3   4    3.84    0.78
   9  -3   4    3.98    0.36
   9  -3   4    3.10    0.75
  -9   3  -4    4.38    0.85
  -9   3  -4    2.14    0.49
  11  -3   3    0.52    0.50
  11  -3   3    0.20    0.51
 -11   3  -3   -0.09    0.30
 -11   3  -3    0.04    0.46
   6   4 -12    2.26    0.53
  -4  -4  11   13.35    0.70
   4   4 -11   13.35    0.97
  -2  -4  10   23.76    0.91
   2   4 -10   22.20    1.21
   0  -4   9   58.54    1.49
   0   4  -9   60.02    1.99
   2  -4   8    4.14    0.49
  -2   4  -8    4.61    0.69
  -2   4  -8    4.49    0.48
   4  -4   7   57.62    1.72
   4  -4   7   58.21    1.84
   4  -4   7   56.28    1.57
  -4   4  -7   59.67    1.72
  -4   4  -7   57.39    2.07
   6  -4   6    0.15    0.23
   6  -4   6    0.40    0.31
  -6   4  -6    0.20    0.24
  -6   4  -6    0.13    0.24
   8  -4   5    7.17    0.74
  -8   4  -5    5.38    0.68
  10  -4   4    5.20    0.44
  10  -4   4    5.85    1.03
  10  -4   4    4.78    0.90
 -10   4  -4    5.63    1.00
 -10   4  -4    4.42    0.70
  12  -4   3   -0.09    0.49
  12  -4   3   -0.13    0.49
 -12   4  -3    0.52    0.45
   5   5 -12    1.05    0.40
  -3  -5  11    2.50    0.38
   3   5 -11    1.96    0.48
  -1  -5  10    1.88    0.33
   1   5 -10    1.45    0.44
   1  -5   9   12.49    0.70
  -1   5  -9   12.77    0.98
   3  -5   8   32.54    1.19
  -3   5  -8   32.69    1.56
  -3   5  -8   34.74    1.12
   5  -5   7   50.02    1.55
   5  -5   7   48.91    1.66
   5  -5   7   51.69    1.81
  -5   5  -7   50.13    1.62
   7  -5   6    7.16    0.75
   7  -5   6    5.85    0.79
  -7   5  -6    7.50    0.86
  -7   5  -6    7.27    0.74
   9  -5   5    3.28    0.54
  -9   5  -5    2.50    0.53
  11  -5   4    9.94    0.55
 -11   5  -4    9.93    1.02
   4   6 -12    0.06    0.33
  -2  -6  11    2.20    0.35
   2   6 -11    1.48    0.46
   0  -6  10    2.32    0.37
   0   6 -10    2.75    0.57
   2  -6   9    2.12    0.38
  -2   6  -9    3.43    0.64
   4  -6   8    9.30    0.70
  -4   6  -8    8.83    0.61
  -4   6  -8   11.04    1.17
   6  -6   7   21.68    1.25
   6  -6   7   22.33    1.07
   6  -6   7   22.44    1.16
  -6   6  -7   22.11    1.13
   8  -6   6   15.12    1.00
  -8   6  -6   16.98    1.12
  10  -6   5   22.52    1.16
 -10   6  -5   27.30    1.39
 -12   6  -4   10.05    1.09
   3   7 -12    2.42    0.56
  -1  -7  11   22.45    0.92
   1   7 -11   22.81    1.33
   1  -7  10   23.57    0.99
  -1   7 -10   24.71    1.41
   3  -7   9    6.83    0.67
  -3   7  -9    7.90    0.99
   5  -7   8    1.74    0.40
  -5   7  -8    1.53    0.37
  -5   7  -8    2.26    0.63
   7  -7   7    7.61    0.77
   7  -7   7    6.07    0.77
   7  -7   7    5.58    0.81
  -7   7  -7    7.52    0.79
   9  -7   6    1.35    0.41
  -9   7  -6    0.86    0.46
  11  -7   5    4.90    0.66
   2   8 -12    6.87    0.93
   0  -8  11   15.10    0.80
   0   8 -11   13.32    1.26
   2  -8  10    0.24    0.23
  -2   8 -10    0.19    0.35
   4  -8   9    4.31    0.60
  -4   8  -9    3.62    0.74
   6  -8   8    5.40    0.70
  -6   8  -8    5.79    0.64
   8  -8   7    7.19    0.91
  -8   8  -7    7.37    0.84
  10  -8   6    0.08    0.33
 -10   8  -6    0.14    0.37
  12  -8   5    8.37    0.90
 -12   8  -5    8.26    1.16
   1   9 -12    4.62    0.80
   1  -9  11   15.55    0.88
  -1   9 -11   13.86    1.35
   3  -9  10   -0.02    0.21
  -3   9 -10   -0.10    0.36
   5  -9   9    6.21    0.72
  -5   9  -9    5.44    0.93
   7  -9   8   12.94    0.96
  -7   9  -8   13.15    0.87
   9  -9   7   11.63    1.19
  -9   9  -7   15.88    1.10
  11  -9   6    1.21    0.49
 -11   9  -6    0.99    0.51
   0 -10  12    1.52    0.41
   0  10 -12    0.54    0.40
   2 -10  11    1.79    0.44
  -2  10 -11    1.95    0.64
   4 -10  10    0.30    0.28
  -4  10 -10    0.19    0.43
   6 -10   9   13.41    1.01
  -6  10  -9   10.12    1.29
   8 -10   8   15.33    1.10
  -8  10  -8   13.18    0.90
  10 -10   7   13.24    1.36
 -10  10  -7   11.00    1.11
   3 -11  11    3.15    0.60
  -3  11 -11    2.56    0.76
   5 -11  10    0.74    0.41
  -5  11 -10    1.04    0.61
   7 -11   9    0.98    0.45
  -9  11  -8    1.37    0.46
   6 -12  10    0.49    0.41
  -6  12 -10    1.04    0.62
  -7  10   6    3.83    0.68
   7 -10  -6    3.68    0.83
  -5  10   5    8.74    0.78
   5 -10  -5    7.94    0.94
  -3  10   4    2.86    0.82
   3 -10  -4    3.14    0.65
  -1  10   3    5.31    0.94
   1 -10  -3    6.96    0.87
  -8   9   7    1.35    0.55
   8  -9  -7    0.97    0.47
  -6   9   6   13.44    1.00
   6  -9  -6   13.95    1.31
  -4   9   5   13.91    0.82
   4  -9  -5   14.79    1.07
  -2   9   4    0.97    0.52
   2  -9  -4    0.91    0.40
   0   9   3    1.33    0.61
   0  -9  -3    1.00    0.42
   2   9   2    7.24    1.00
  -2  -9  -2    7.96    0.85
  -9   8   8    0.65    0.52
   9  -8  -8    0.10    0.35
  -7   8   7   -0.12    0.34
   7  -8  -7    0.21    0.35
  -5   8   6   16.56    1.04
   5  -8  -6   16.16    1.18
  -3   8   5   32.11    1.18
   3  -8  -5   33.88    1.47
  -1   8   4   11.23    1.24
   1  -8  -4    9.97    0.91
   1   8   3    5.19    0.88
  -1  -8  -3    4.40    0.63
   3   8   2   11.55    1.22
  -3  -8  -2   12.60    0.92
  -8   7   8   10.09    1.17
   8  -7  -8   10.76    1.07
  -6   7   7   -0.25    0.28
   6  -7  -7    0.05    0.31
  -4   7   6   17.01    0.99
   4  -7  -6   16.68    1.12
   4  -7  -6   17.74    1.05
  -2   7   5    9.35    0.63
  -2   7   5    9.71    1.13
   2  -7  -5   10.80    0.97
   0   7   4    3.92    0.74
   0  -7  -4    3.59    0.55
   2   7   3   29.90    1.60
  -2  -7  -3   31.43    1.57
  -2  -7  -3   31.95    1.32
   4   7   2   32.58    1.69
  -4  -7  -2   31.94    1.33
  -9   6   9   16.34    1.21
   9  -6  -9   16.28    0.87
  -7   6   8   15.98    1.17
   7  -6  -8   16.35    1.03
  -5   6   7    0.50    0.34
   5  -6  -7    0.70    0.38
  -3   6   6    3.12    0.52
   3  -6  -6    3.23    0.53
   3  -6  -6    3.08    0.57
  -1   6   5    1.40    0.32
  -1   6   5    2.61    0.63
   1  -6  -5    1.68    0.40
   1   6   4    3.14    0.66
  -1  -6  -4    2.57    0.61
  -1  -6  -4    2.43    0.46
   3   6   3   14.26    1.29
  -3  -6  -3   13.82    1.27
  -3  -6  -3   14.03    0.87
   5   6   2   15.13    1.18
  -5  -6  -2   18.59    1.00
  -8   5   9   12.45    1.13
   8  -5  -9   14.83    0.81
   8  -5  -9   12.23    1.33
  -6   5   8   13.95    1.05
  -6   5   8   16.31    1.01
   6  -5  -8   15.18    0.96
  -4   5   7    7.45    0.79
   4  -5  -7    5.24    0.67
  -2   5   6    0.45    0.28
  -2   5   6    1.03    0.32
   2  -5  -6    0.53    0.27
   2  -5  -6    0.23    0.27
   0   5   5   42.67    1.79
   0   5   5   37.47    1.14
   0  -5  -5   36.72    1.35
   0  -5  -5   43.16    1.73
   2   5   4   -0.10    0.36
   2   5   4    0.58    0.41
  -2  -5  -4    0.73    0.30
  -2  -5  -4    0.98    0.43
   4   5   3    3.36    0.66
  -4  -5  -3    3.85    0.54
  -4  -5  -3    5.18    0.81
   6   5   2   10.73    1.11
  -6  -5  -2    8.20    0.77
  -9   4  10    0.12    0.39
   9  -4 -10   -0.55    0.40
  -7   4   9   17.07    1.06
   7  -4  -9   15.19    0.78
  -5   4   8   22.38    1.10
  -5   4   8   21.62    1.19
   5  -4  -8   21.20    1.05
  -3   4   7    9.57    0.86
   3  -4  -7    8.44    0.81
  -1   4   6   37.39    1.43
  -1   4   6   41.75    1.38
   1  -4  -6   42.25    1.68
   1  -4  -6   44.02    1.42
   1  -4  -6   41.68    1.48
   1   4   5   10.61    0.61
   1   4   5   11.62    1.11
   1   4   5   11.67    0.72
  -1  -4  -5   12.16    0.93
  -1  -4  -5   10.16    0.70
   3   4   4    2.13    0.53
   3   4   4    2.25    0.55
  -3  -4  -4    2.18    0.52
  -3  -4  -4    2.96    0.46
   5   4   3    1.06    0.44
  -5  -4  -3    0.83    0.42
  -5  -4  -3    1.58    0.38
   7   4   2    0.94    0.45
  -7  -4  -2    0.54    0.31
  -8   3  10    1.64    0.48
   8  -3 -10    2.63    0.72
  -6   3   9    2.03    0.46
   6  -3  -9    3.99    0.79
   6  -3  -9    2.43    0.38
  -4   3   8   14.05    0.92
  -4   3   8   15.11    0.89
   4  -3  -8   13.78    0.82
  -2   3   7   16.70    0.93
  -2   3   7   15.30    0.85
   2  -3  -7   14.02    0.86
   0   3   6   89.27    2.23
   0   3   6   91.11    2.55
   0   3   6   90.98    2.09
   0  -3  -6   92.08    2.10
   0  -3  -6   94.40    2.49
   0  -3  -6   95.84    2.25
   2   3   5    1.89    0.44
   2   3   5    1.51    0.29
   2   3   5    1.99    0.37
   2   3   5    1.15    0.42
  -2  -3  -5    1.29    0.31
  -2  -3  -5    1.74    0.45
   4   3   4    8.78    0.98
   4   3   4   10.10    1.11
  -4  -3  -4    6.30    0.80
  -4  -3  -4    7.96    0.72
   6   3   3   24.60    1.44
  -6  -3  -3   25.49    1.09
  -6  -3  -3   23.33    1.33
   8   3   2    7.15    1.01
  -8  -3  -2    7.13    0.74
  -9   2  11    2.99    0.62
   9  -2 -11    3.78    0.81
  -7   2  10    0.30    0.29
   7  -2 -10    0.38    0.41
  -5   2   9    2.49    0.47
   5  -2  -9    2.87    0.38
   5  -2  -9    2.44    0.57
  -3   2   8   34.47    1.35
  -3   2   8   32.54    1.21
   3  -2  -8   32.60    1.53
   3  -2  -8   32.08    1.19
  -1   2   7   19.00    0.96
  -1   2   7   17.12    0.84
  -1   2   7   20.03    0.98
   1  -2  -7   18.38    0.84
   1  -2  -7   17.96    0.92
   1   2   6   27.23    1.07
   1   2   6   28.26    1.17
   1   2   6   27.76    1.36
  -1  -2  -6   28.76    1.10
  -1  -2  -6   27.25    1.30
  -1  -2  -6   29.07    1.20
   3   2   5    1.23    0.39
   3   2   5    2.27    0.34
   3   2   5    1.03    0.29
   3   2   5    1.79    0.47
  -3  -2  -5    1.38    0.33
  -3  -2  -5    1.71    0.48
   5   2   4   23.01    1.32
   5   2   4   21.82    1.33
  -5  -2  -4   24.17    1.04
  -5  -2  -4   21.76    1.25
   7   2   3   31.63    1.64
  -7  -2  -3   32.27    1.27
  -7  -2  -3   30.89    1.56
   9   2   2   15.34    1.48
  -9  -2  -2   15.02    0.98
  -8   1  11    6.10    0.77
   8  -1 -11    6.45    1.01
  -6   1  10   12.74    0.86
   6  -1 -10   13.60    1.29
  -4   1   9   50.35    1.56
   4  -1  -9   50.42    1.23
   4  -1  -9   50.32    1.95
  -2   1   8   19.21    0.91
  -2   1   8   20.34    1.01
   2  -1  -8   19.97    0.92
   2  -1  -8   19.01    1.17
   0   1   7    0.70    0.27
   0   1   7    1.33    0.35
   0   1   7    0.92    0.29
   0   1   7    0.96    0.30
   0  -1  -7    1.14    0.28
   0  -1  -7    0.73    0.28
   2   1   6    8.95    0.68
   2   1   6    9.09    0.67
   2   1   6    8.15    0.69
   2   1   6    8.56    0.90
  -2  -1  -6    9.07    0.80
  -2  -1  -6   10.49    1.00
  -2  -1  -6    7.72    0.68
   4   1   5    1.25    0.31
   4   1   5    0.81    0.36
   4   1   5    1.82    0.51
   4   1   5    1.46    0.30
  -4  -1  -5    0.29    0.23
  -4  -1  -5    1.65    0.44
   6   1   4   24.21    1.40
   6   1   4   23.17    1.39
  -6  -1  -4   23.08    1.31
  -6  -1  -4   20.90    1.02
   8   1   3   19.34    1.38
  -8  -1  -3   18.45    1.00
  -8  -1  -3   18.40    1.30
  10   1   2    3.44    0.82
 -10  -1  -2    3.35    0.61
  -7   0  11    0.58    0.32
   7   0 -11    0.51    0.41
  -5   0  10    4.23    0.56
   5   0 -10    4.02    0.71
  -3   0   9   64.38    1.71
   3   0  -9   63.64    1.34
   3   0  -9   59.65    2.07
  -1   0   8   24.52    1.08
  -1   0   8   26.04    1.03
   1   0  -8   26.12    1.32
   1   0  -8   25.83    1.02
   1   0   7    2.18    0.43
   1   0   7    2.21    0.39
   1   0   7    2.47    0.37
  -1   0  -7    2.75    0.44
  -1   0  -7    2.15    0.37
   3   0   6   37.20    1.32
   3   0   6   36.82    1.59
   3   0   6   35.25    1.23
   3   0   6   36.44    1.35
  -3   0  -6   37.16    1.53
  -3   0  -6   37.01    1.35
  -3   0  -6   34.17    1.21
   5   0   5   11.79    0.62
   5   0   5    9.64    1.03
   5   0   5    9.85    0.68
   5   0   5   11.26    1.03
  -5   0  -5    9.66    0.68
  -5   0  -5   10.41    1.00
   7   0   4   24.98    1.47
  -7   0  -4   23.47    1.10
  -7   0  -4   23.28    1.38
   9   0   3    0.08    0.41
  -9   0  -3    0.64    0.32
  -9   0  -3    0.20    0.39
  -8  -1  12    0.12    0.28
   8   1 -12    0.39    0.39
  -6  -1  11   -0.05    0.21
   6   1 -11    0.05    0.33
  -4  -1  10   11.11    0.72
   4   1 -10   11.44    1.11
  -2  -1   9   28.65    1.08
   2   1  -9   29.28    1.40
   2   1  -9   28.03    0.80
   0  -1   8    0.10    0.20
   0  -1   8    0.45    0.23
   0  -1   8    0.48    0.25
   0   1  -8    0.84    0.39
   0   1  -8    0.14    0.19
   2  -1   7   10.10    0.64
   2  -1   7   10.89    0.77
   2  -1   7   10.29    0.69
  -2   1  -7   10.60    0.72
  -2   1  -7   12.01    0.69
   4  -1   6  151.25    3.45
   4  -1   6  153.65    2.86
   4  -1   6  157.00    3.03
   4  -1   6  148.03    3.00
  -4   1  -6  157.00    3.08
  -4   1  -6  150.92    3.34
  -4   1  -6  150.82    2.86
   6  -1   5   14.51    0.93
   6  -1   5   14.57    1.12
   6  -1   5   12.15    0.67
  -6   1  -5   14.23    1.05
  -6   1  -5   14.10    0.86
   8  -1   4    0.62    0.40
  -8   1  -4    0.13    0.25
  -8   1  -4    0.63    0.42
  10  -1   3    0.55    0.45
 -10   1  -3    0.19    0.32
  -7  -2  12    0.94    0.36
   7   2 -12    1.70    0.54
  -5  -2  11    7.04    0.68
   5   2 -11    5.49    0.82
  -3  -2  10    2.09    0.38
   3   2 -10    1.96    0.50
  -1  -2   9    3.45    0.44
   1   2  -9    4.09    0.66
   1   2  -9    4.36    0.37
   1  -2   8    0.30    0.26
   1  -2   8    0.50    0.27
   1  -2   8    0.39    0.23
  -1   2  -8    0.09    0.25
  -1   2  -8    1.05    0.29
   3  -2   7   24.03    1.16
   3  -2   7   23.42    1.05
   3  -2   7   22.22    0.95
  -3   2  -7   21.65    1.03
  -3   2  -7   24.58    1.00
   5  -2   6   99.36    2.43
   5  -2   6  101.12    2.85
   5  -2   6  104.99    2.31
  -5   2  -6  106.79    2.54
  -5   2  -6  103.92    2.81
  -5   2  -6  104.97    2.34
   7  -2   5    1.55    0.33
   7  -2   5    2.24    0.58
  -7   2  -5    1.38    0.37
  -7   2  -5    2.30    0.58
   9  -2   4   11.89    1.36
  -9   2  -4    9.87    1.21
  -9   2  -4    8.94    0.92
  11  -2   3    4.98    0.90
  11  -2   3    5.99    1.04
 -11   2  -3    5.45    0.82
  -6  -3  12   19.66    0.99
   6   3 -12   19.91    1.29
  -4  -3  11    4.74    0.55
   4   3 -11    3.36    0.61
  -2  -3  10   10.61    0.66
   2   3 -10   11.57    1.09
   0  -3   9    1.14    0.29
   0   3  -9    0.90    0.42
   0   3  -9    0.72    0.18
   2  -3   8   11.54    0.70
   2  -3   8   10.92    0.81
   2  -3   8   12.20    0.78
  -2   3  -8   12.44    0.96
  -2   3  -8   11.14    0.70
   4  -3   7   10.65    0.69
   4  -3   7   11.50    1.03
   4  -3   7    9.51    0.82
  -4   3  -7   10.44    0.91
   6  -3   6   16.70    1.01
   6  -3   6   17.93    0.95
  -6   3  -6   17.73    0.97
  -6   3  -6   18.22    1.08
   8  -3   5    7.15    0.65
   8  -3   5    6.16    0.94
  -8   3  -5    5.68    0.73
  -8   3  -5    4.06    0.80
  10  -3   4   13.98    1.50
  10  -3   4   13.43    1.45
 -10   3  -4   13.33    1.18
 -10   3  -4   12.38    1.34
  -5  -4  12   22.72    1.01
   5   4 -12   21.39    1.31
  -3  -4  11    6.68    0.62
   3   4 -11    6.61    0.85
  -1  -4  10    0.76    0.26
   1   4 -10    1.10    0.43
   1  -4   9   21.45    0.95
  -1   4  -9   22.89    1.29
  -1   4  -9   23.28    0.70
   3  -4   8   12.74    0.76
   3  -4   8   13.75    1.05
   3  -4   8   14.02    0.85
  -3   4  -8   14.07    0.82
  -3   4  -8   12.94    1.04
   5  -4   7   24.86    1.17
   5  -4   7   21.69    1.19
   5  -4   7   22.81    1.03
  -5   4  -7   23.87    1.15
   7  -4   6   -0.04    0.19
  -7   4  -6   -0.16    0.24
  -7   4  -6    0.14    0.26
   9  -4   5    1.92    0.39
  -9   4  -5    2.61    0.54
  11  -4   4   10.56    1.36
  11  -4   4   11.19    1.43
 -11   4  -4   10.88    1.12
  -4  -5  12    8.94    0.65
   4   5 -12    8.48    0.96
  -2  -5  11   13.88    0.75
   2   5 -11   14.77    1.08
   0  -5  10   13.00    0.74
   0   5 -10   14.63    1.07
   2  -5   9   44.76    1.43
  -2   5  -9   49.59    1.96
  -2   5  -9   46.40    1.07
   4  -5   8    7.44    0.72
   4  -5   8    6.48    0.72
  -4   5  -8    6.58    0.67
  -4   5  -8    5.73    0.86
   6  -5   7    4.60    0.64
   6  -5   7    5.86    0.78
  -6   5  -7    5.94    0.78
   8  -5   6   11.48    0.99
  -8   5  -6    9.27    0.90
  -8   5  -6    9.48    1.01
  10  -5   5    0.02    0.24
 -10   5  -5    0.39    0.36
 -12   5  -4    4.86    0.83
  -3  -6  12    0.15    0.20
   3   6 -12   -0.15    0.27
  -1  -6  11   11.81    0.71
   1   6 -11   15.30    1.11
   1  -6  10   11.68    0.74
  -1   6 -10    9.65    1.03
   3  -6   9   36.05    1.32
  -3   6  -9   32.84    1.67
  -3   6  -9   36.08    0.97
   5  -6   8    3.11    0.51
   5  -6   8    3.03    0.56
  -5   6  -8    2.54    0.45
   7  -6   7   13.02    0.95
  -7   6  -7   13.13    0.96
   9  -6   6   10.40    0.99
  -9   6  -6   10.07    1.06
  11  -6   5   -0.15    0.25
 -11   6  -5   -0.20    0.32
  -2  -7  12    1.17    0.31
   2   7 -12    1.39    0.51
   0  -7  11    2.67    0.43
   0   7 -11    2.97    0.65
   2  -7  10   34.80    1.29
  -2   7 -10   34.13    1.71
   4  -7   9    0.48    0.28
  -4   7  -9    0.86    0.25
  -4   7  -9    0.80    0.44
   6  -7   8    7.35    0.85
   6  -7   8    7.91    0.80
  -6   7  -8    8.25    0.78
   8  -7   7   27.31    1.39
  -8   7  -7   24.71    1.34
  10  -7   6   14.81    1.07
 -10   7  -6   15.29    1.35
  12  -7   5    0.72    0.37
  -1  -8  12    9.73    0.69
   1   8 -12   10.78    1.15
   1  -8  11    2.13    0.44
  -1   8 -11    2.25    0.61
   3  -8  10    0.07    0.23
  -3   8 -10    0.34    0.40
   5  -8   9    1.27    0.40
  -5   8  -9    2.88    0.38
  -5   8  -9    2.56    0.68
   7  -8   8    0.29    0.32
   7  -8   8    0.66    0.36
  -7   8  -8    1.29    0.41
   9  -8   7    6.16    0.85
  -9   8  -7    6.10    0.86
  11  -8   6    8.81    0.98
 -11   8  -6    9.18    1.16
   0  -9  12    8.09    0.77
   0   9 -12    7.66    1.01
   2  -9  11   11.55    0.83
  -2   9 -11   13.12    1.35
   4  -9  10   16.18    1.02
  -4   9 -10   18.03    1.43
   6  -9   9    6.58    0.80
  -6   9  -9    7.25    1.28
  -6   9  -9    7.41    0.61
   8  -9   8    2.95    0.66
  -8   9  -8    2.41    0.53
  10  -9   7    3.78    0.77
 -10   9  -7    5.20    0.89
   1 -10  12    1.81    0.43
  -1  10 -12    2.57    0.68
   3 -10  11   10.26    0.96
  -3  10 -11   10.63    1.29
   5 -10  10   30.82    1.47
  -5  10 -10   33.78    2.02
   7 -10   9    5.48    0.79
  -7  10  -9    4.69    0.51
   9 -10   8    0.18    0.41
  -9  10  -8   -0.09    0.33
   4 -11  11    1.52    0.48
  -4  11 -11    3.18    0.83
   6 -11  10   21.59    1.33
  -6  11 -10   22.69    1.77
   8 -11   9    8.02    0.98
  -8  11  -9    7.00    0.63
  -6  10   6    1.50    0.50
  -6  10   6    0.65    0.42
   6 -10  -6    1.72    0.64
   4 -10  -5   -0.34    0.30
  -2  10   4    0.10    0.51
   2 -10  -4   -0.19    0.33
  -7   9   7   10.01    1.11
   7  -9  -7   12.45    1.30
  -5   9   6    4.98    0.72
  -5   9   6    3.90    0.60
  -3   9   5    0.07    0.21
   3  -9  -5    0.17    0.34
  -1   9   4    0.41    0.49
   1  -9  -4   -0.19    0.30
   1   9   3    2.61    0.73
  -1  -9  -3    2.97    0.60
  -8   8   8   22.54    1.47
   8  -8  -8   22.65    1.32
  -6   8   7   14.20    1.23
   6  -8  -7   15.34    1.33
  -4   8   6    0.85    0.37
  -4   8   6    0.74    0.35
   4  -8  -6    0.93    0.40
  -2   8   5    0.22    0.20
  -2   8   5   -0.02    0.37
   2  -8  -5    0.25    0.30
   0   8   4    4.43    0.82
   0  -8  -4    5.51    0.71
   2   8   3    1.94    0.61
  -2  -8  -3    1.53    0.45
  -7   7   8   12.22    1.25
   7  -7  -8   10.24    1.00
  -5   7   7    3.50    0.62
   5  -7  -7    2.82    0.61
  -3   7   6   15.22    0.91
   3  -7  -6   14.12    0.97
  -1   7   5   16.19    0.65
  -1   7   5   16.38    1.29
   1  -7  -5   14.73    0.99
   1   7   4   36.17    1.80
  -1  -7  -4   36.56    1.74
  -1  -7  -4   34.19    1.46
   3   7   3    6.54    0.98
  -3  -7  -3    5.15    0.70
   8  -6  -9    3.20    0.55
  -6   6   8   -0.14    0.30
   6  -6  -8    0.25    0.31
  -4   6   7    0.47    0.32
   4  -6  -7    0.04    0.31
  -2   6   6    7.21    0.72
   2  -6  -6    8.02    0.80
   0   6   5   19.00    0.66
   0   6   5   18.31    1.29
   0  -6  -5   20.59    1.30
   0  -6  -5   19.20    1.04
   2   6   4    6.99    0.96
  -2  -6  -4    5.49    0.81
  -2  -6  -4    5.57    0.67
   4   6   3   11.73    1.20
  -4  -6  -3   10.45    0.91
   6   6   2    0.57    0.42
  -6  -6  -2    0.29    0.31
  -9   5  10   16.80    1.44
  -7   5   9    0.08    0.33
   7  -5  -9    0.36    0.29
  -5   5   8   18.67    1.14
   5  -5  -8   16.87    1.04
  -3   5   7   14.08    0.91
   3  -5  -7   10.95    0.96
  -1   5   6    0.38    0.53
  -1   5   6    0.09    0.20
   1  -5  -6    0.26    0.32
   1  -5  -6    0.00    0.21
   1   5   5    5.31    0.83
   1   5   5    5.16    0.36
  -1  -5  -5    5.54    0.65
  -1  -5  -5    4.43    0.74
   3   5   4   22.25    1.37
  -3  -5  -4   22.77    1.09
  -3  -5  -4   24.70    1.40
   5   5   3    6.49    0.91
  -5  -5  -3    4.55    0.89
  -5  -5  -3    5.14    0.65
   7   5   2    7.39    1.03
  -7  -5  -2    8.37    0.84
  -8   4  10    9.36    1.01
  -6   4   9    0.33    0.32
   6  -4  -9    0.00    0.21
  -4   4   8   24.48    1.24
  -4   4   8   22.92    1.11
   4  -4  -8   21.10    1.12
  -2   4   7   24.22    1.14
  -2   4   7   18.60    1.02
   2  -4  -7   22.32    1.12
   2  -4  -7   20.28    1.00
   0   4   6    1.98    0.38
   0   4   6    2.28    0.55
   0  -4  -6    2.37    0.53
   0  -4  -6    1.97    0.40
   2   4   5    0.63    0.38
   2   4   5    0.55    0.39
   2   4   5    0.76    0.19
  -2  -4  -5    0.91    0.32
  -2  -4  -5    0.28    0.34
   4   4   4    0.05    0.31
  -4  -4  -4   -0.49    0.22
  -4  -4  -4   -0.22    0.20
   6   4   3    2.32    0.64
  -6  -4  -3    1.80    0.54
  -6  -4  -3    2.10    0.47
   8   4   2   10.09    1.23
  -8  -4  -2   10.87    0.97
  -9   3  11    1.53    0.54
   9  -3 -11    1.66    0.70
  -7   3  10   -0.13    0.28
   7  -3 -10    0.35    0.43
  -5   3   9   22.56    1.14
   5  -3  -9   22.54    1.02
  -3   3   8   52.67    1.75
  -3   3   8   53.84    1.64
   3  -3  -8   52.06    1.65
  -1   3   7   21.99    1.06
  -1   3   7   20.30    1.02
   1  -3  -7   21.19    0.98
   1  -3  -7   22.23    1.10
   1   3   6   48.27    1.89
   1   3   6   49.03    1.59
   1   3   6   50.20    1.47
  -1  -3  -6   49.05    2.21
  -1  -3  -6   49.89    1.86
  -1  -3  -6   50.62    1.55
   3   3   5   28.16    1.07
   3   3   5   29.39    0.75
   3   3   5   29.86    1.52
   3   3   5   31.08    1.49
  -3  -3  -5   28.15    1.16
  -3  -3  -5   29.01    1.44
   5   3   4    8.74    1.01
  -5  -3  -4    9.24    0.82
  -5  -3  -4    9.46    1.04
   7   3   3   -0.21    0.39
  -7  -3  -3    0.45    0.31
  -8   2  11   14.57    1.09
   8  -2 -11   16.00    1.57
  -6   2  10   -0.06    0.24
   6  -2 -10    0.39    0.43
  -4   2   9    0.69    0.32
   4  -2  -9    0.82    0.27
   4  -2  -9    0.61    0.41
  -2   2   8   20.41    0.97
  -2   2   8   20.86    1.04
   2  -2  -8   19.47    1.00
   0   2   7    7.37    0.72
   0   2   7    7.60    0.80
   0  -2  -7    7.37    0.73
   0  -2  -7    8.05    0.74
   2   2   6   49.05    1.59
   2   2   6   50.79    1.70
   2   2   6   51.38    1.93
   2   2   6   48.64    1.44
  -2  -2  -6   50.20    1.84
  -2  -2  -6   48.62    1.51
  -2  -2  -6   51.62    1.71
   4   2   5   35.30    1.66
   4   2   5   37.70    1.67
   4   2   5   38.35    0.85
   4   2   5   34.53    1.10
  -4  -2  -5   36.52    1.33
  -4  -2  -5   39.15    1.68
   6   2   4   16.69    1.22
  -6  -2  -4   17.54    1.23
  -6  -2  -4   16.53    0.94
   8   2   3    0.76    0.46
  -8  -2  -3    0.41    0.35
  -7   1  11   15.24    1.02
   7  -1 -11   15.80    1.25
  -5   1  10   37.11    1.43
   5  -1 -10   41.48    1.85
  -3   1   9    9.36    0.70
   3  -1  -9    9.91    1.03
   3  -1  -9    9.78    0.64
  -1   1   8    0.10    0.23
  -1   1   8   -0.09    0.20
   1  -1  -8    0.12    0.21
   1   1   7    0.11    0.21
   1   1   7    0.08    0.24
   1   1   7    0.14    0.23
  -1  -1  -7    0.03    0.21
  -1  -1  -7    0.20    0.22
   3   1   6   21.57    1.24
   3   1   6   19.94    0.90
   3   1   6   22.04    1.13
   3   1   6   21.09    1.03
  -3  -1  -6   20.58    1.08
  -3  -1  -6   20.83    1.22
  -3  -1  -6   21.62    1.00
   5   1   5   26.37    1.38
   5   1   5   25.79    0.72
   5   1   5   26.23    1.46
  -5  -1  -5   24.92    1.39
  -5  -1  -5   25.10    1.12
   7   1   4   13.09    1.34
  -7  -1  -4   14.84    0.90
  -7  -1  -4    9.82    1.10
   9   1   3    1.05    0.50
  -9  -1  -3    2.09    0.49
  -8   0  12    4.23    0.68
   8   0 -12    3.08    0.73
  -6   0  11   22.27    1.15
   6   0 -11   22.53    1.44
  -4   0  10   12.04    0.79
   4   0 -10   12.78    1.21
  -2   0   9    0.16    0.20
   2   0  -9    0.42    0.33
   2   0  -9    0.44    0.24
   0   0   8   37.12    1.27
   0   0   8   39.79    1.41
   0   0   8   38.78    1.50
   0   0   8   38.36    1.39
   0   0  -8   35.35    1.59
   0   0  -8   39.22    1.35
   2   0   7   13.07    0.79
   2   0   7   15.04    0.92
  -2   0  -7   13.63    0.80
  -2   0  -7   13.64    0.85
   4   0   6    0.64    0.29
   4   0   6    0.45    0.36
   4   0   6    0.42    0.24
   4   0   6    0.53    0.30
  -4   0  -6    1.14    0.36
  -4   0  -6    0.01    0.29
  -4   0  -6    0.34    0.25
   6   0   5   25.71    0.75
   6   0   5   22.88    1.43
   6   0   5   27.46    1.46
  -6   0  -5   25.23    1.43
  -6   0  -5   26.57    1.18
   8   0   4    6.83    1.02
  -8   0  -4    4.92    0.65
  -8   0  -4    4.58    0.86
  10   0   3   13.38    1.45
 -10   0  -3   12.52    1.12
  -7  -1  12    7.16    0.79
   7   1 -12    6.87    0.96
  -5  -1  11   19.79    1.02
   5   1 -11   19.01    1.28
  -3  -1  10    4.66    0.57
   3   1 -10    4.96    0.75
  -1  -1   9   27.67    1.09
   1   1  -9   25.99    1.35
   1   1  -9   26.29    0.99
   1  -1   8  105.22    2.56
   1  -1   8  110.85    2.30
   1  -1   8  108.96    2.44
  -1   1  -8  110.16    2.86
  -1   1  -8  108.15    2.38
   3  -1   7   10.00    0.84
   3  -1   7    9.22    0.89
  -3   1  -7    8.71    0.80
  -3   1  -7    9.63    0.68
   5  -1   6    2.69    0.53
   5  -1   6    2.78    0.44
   5  -1   6    3.72    0.56
   5  -1   6    3.79    0.73
  -5   1  -6    2.59    0.52
  -5   1  -6    3.77    0.57
  -5   1  -6    3.95    0.71
   7  -1   5    4.28    0.40
   7  -1   5    6.33    0.95
  -7   1  -5    3.97    0.57
  -7   1  -5    4.71    0.80
   9  -1   4    0.72    0.52
  -9   1  -4    0.44    0.48
  -9   1  -4    0.75    0.39
  11  -1   3    2.01    0.73
 -11   1  -3    2.66    0.61
  -6  -2  12    0.85    0.34
   6   2 -12    0.70    0.41
  -4  -2  11    2.21    0.40
   4   2 -11    2.65    0.60
  -2  -2  10    0.27    0.21
   2   2 -10    0.39    0.34
   0  -2   9   14.25    0.80
   0   2  -9   12.88    0.97
   0   2  -9   12.16    0.69
   2  -2   8   36.17    1.35
   2  -2   8   33.67    1.21
   2  -2   8   34.62    1.42
  -2   2  -8   33.00    1.27
  -2   2  -8   32.57    1.55
   4  -2   7    9.47    0.89
   4  -2   7   11.75    0.79
  -4   2  -7   10.11    0.70
  -4   2  -7   10.09    0.88
   6  -2   6    0.67    0.45
   6  -2   6    0.24    0.24
  -6   2  -6    0.28    0.25
  -6   2  -6    0.12    0.29
  -6   2  -6    0.25    0.39
   8  -2   5   13.01    0.60
   8  -2   5   14.46    1.41
  -8   2  -5   13.61    0.95
  -8   2  -5   12.17    1.26
  10  -2   4    2.03    0.65
 -10   2  -4    3.08    0.77
 -10   2  -4    1.50    0.47
  -5  -3  12    1.17    0.35
   5   3 -12    0.88    0.44
  -3  -3  11    3.50    0.50
   3   3 -11    3.87    0.67
  -1  -3  10    7.91    0.68
   1   3 -10    8.56    0.95
   1  -3   9    1.93    0.39
  -1   3  -9    2.22    0.37
  -1   3  -9    1.52    0.47
   3  -3   8   29.39    1.15
   3  -3   8   30.01    1.25
   3  -3   8   28.50    1.33
  -3   3  -8   30.31    1.23
   5  -3   7    1.39    0.41
   5  -3   7    1.00    0.33
  -5   3  -7    0.68    0.31
  -5   3  -7    1.12    0.32
   7  -3   6   23.93    1.09
  -7   3  -6   26.34    1.25
  -7   3  -6   24.51    1.52
   9  -3   5   25.98    0.87
   9  -3   5   27.18    1.72
  -9   3  -5   26.33    1.36
  -9   3  -5   26.33    1.66
  11  -3   4   26.48    1.82
 -11   3  -4   27.57    1.49
  -4  -4  12    5.52    0.61
   4   4 -12    5.14    0.81
  -2  -4  11   22.39    0.99
   2   4 -11   23.92    1.35
   0  -4  10    0.26    0.22
   0   4 -10    0.55    0.35
   2  -4   9    5.61    0.59
  -2   4  -9    7.10    0.93
  -2   4  -9    6.03    0.58
   4  -4   8    1.64    0.46
   4  -4   8    1.33    0.39
   4  -4   8    0.90    0.29
  -4   4  -8    0.92    0.32
   6  -4   7    5.46    0.76
   6  -4   7    6.06    0.73
  -6   4  -7    6.91    0.81
   8  -4   6    8.59    0.82
  -8   4  -6    8.50    0.85
  -8   4  -6    8.35    1.07
  10  -4   5   11.00    0.62
 -10   4  -5   11.57    1.10
  -5  -5  13    1.18    0.36
   5   5 -13    0.81    0.44
  -3  -5  12   18.64    0.93
   3   5 -12   19.07    1.26
  -1  -5  11   33.47    1.21
   1   5 -11   35.59    1.71
   1  -5  10   16.39    0.88
  -1   5 -10   16.57    1.18
   3  -5   9    0.46    0.26
  -3   5  -9    0.59    0.44
  -3   5  -9    1.02    0.29
   5  -5   8    8.28    0.88
   5  -5   8    8.73    0.82
   5  -5   8    4.93    0.73
  -5   5  -8    6.36    0.76
   7  -5   7    1.03    0.37
  -7   5  -7    0.74    0.39
   9  -5   6    0.06    0.25
  -9   5  -6    0.15    0.37
  -9   5  -6   -0.17    0.26
  11  -5   5    0.05    0.22
 -11   5  -5    0.19    0.36
  -4  -6  13    0.00    0.22
   4   6 -13    0.31    0.36
  -2  -6  12   10.97    0.73
   2   6 -12   11.29    1.16
   0  -6  11    0.52    0.26
   0   6 -11    0.45    0.39
   2  -6  10    9.82    0.72
  -2   6 -10    7.46    0.95
   4  -6   9    3.67    0.55
  -4   6  -9    5.20    0.57
  -4   6  -9    5.00    0.84
   6  -6   8   13.14    0.89
   6  -6   8   12.67    1.10
   6  -6   8   11.35    1.14
  -6   6  -8   13.33    0.93
   8  -6   7    0.93    0.38
  -8   6  -7    0.55    0.39
  10  -6   6    0.59    0.35
 -10   6  -6    0.00    0.42
 -12   6  -5   -0.05    0.39
  -3  -7  13    0.21    0.25
   3   7 -13   -0.05    0.32
  -1  -7  12    1.07    0.34
   1   7 -12    1.41    0.53
   1  -7  11    0.78    0.32
  -1   7 -11    1.06    0.47
   3  -7  10   10.61    0.79
  -3   7 -10    9.91    1.16
   5  -7   9   46.70    1.66
  -5   7  -9   42.88    2.09
  -5   7  -9   43.51    1.41
   7  -7   8   16.36    1.12
  -7   7  -8   17.33    1.08
   9  -7   7    0.07    0.31
  -9   7  -7    0.10    0.38
  11  -7   6    0.03    0.31
 -11   7  -6    0.30    0.48
   0  -8  12    0.06    0.25
   0   8 -12    0.22    0.41
   2  -8  11    9.35    0.85
  -2   8 -11    8.13    1.08
   4  -8  10    5.68    0.71
  -4   8 -10    6.02    0.96
   6  -8   9    7.26    0.82
  -6   8  -9    9.20    0.81
   8  -8   8    5.12    0.79
  -8   8  -8    3.76    0.65
  10  -8   7    0.25    0.33
 -10   8  -7    0.33    0.47
   1  -9  12    9.89    0.90
  -1   9 -12    8.77    1.14
   3  -9  11    6.22    0.74
  -3   9 -11    6.22    1.01
   5  -9  10    0.99    0.39
  -5   9 -10    0.34    0.48
   7  -9   9    0.23    0.33
  -7   9  -9    0.18    0.30
   9  -9   8    0.06    0.36
  -9   9  -8    0.51    0.41
  11  -9   7    0.60    0.43
 -11   9  -7    0.37    0.54
   2 -10  12    9.75    0.94
  -2  10 -12   13.29    1.43
   4 -10  11    0.46    0.36
  -4  10 -11    0.48    0.56
   6 -10  10    0.64    0.41
  -6  10 -10    0.64    0.59
   8 -10   9    0.52    0.36
  -8  10  -9    0.51    0.37
  10 -10   8    1.24    0.57
 -10  10  -8    0.34    0.42
   5 -11  11    0.99    0.44
  -5  11 -11    0.72    0.59
   7 -11  10    0.48    0.40
   3 -10  -5    3.16    0.70
  -6   9   7    2.69    0.64
   6  -9  -7    2.41    0.66
  -4   9   6    0.16    0.29
   4  -9  -6    0.57    0.39
  -2   9   5    1.17    0.98
   2  -9  -5    2.20    0.56
   0   9   4    2.55    0.77
   0  -9  -4    2.36    0.59
  -7   8   8    0.05    0.41
   7  -8  -8   -0.04    0.34
  -5   8   7    0.38    0.37
   5  -8  -7    0.32    0.38
  -3   8   6    5.89    0.66
   3  -8  -6    6.26    0.78
  -1   8   5    5.04    0.92
   1  -8  -5    5.12    0.73
   1   8   4   11.64    1.34
  -1  -8  -4    9.49    0.98
   3   8   3    9.12    1.18
  -3  -8  -3    8.70    0.94
  -8   7   9    5.64    0.96
   8  -7  -9    3.69    0.65
  -6   7   8    2.48    0.61
   6  -7  -8    2.37    0.57
  -4   7   7   18.29    1.11
  -4   7   7   17.82    1.09
   4  -7  -7   18.97    1.23
  -2   7   6   14.86    0.84
   2  -7  -6   13.93    0.98
   0   7   5   18.31    1.37
   0  -7  -5   15.55    1.03
   2   7   4   -0.16    0.40
  -2  -7  -4    0.32    0.42
  -2  -7  -4   -0.17    0.25
   4   7   3    3.45    0.79
  -4  -7  -3    1.97    0.50
  -7   6   9    1.27    0.52
   7  -6  -9    2.29    0.52
  -5   6   8    6.42    0.84
   5  -6  -8    6.53    0.83
  -3   6   7    7.53    0.83
  -3   6   7    7.90    0.81
   3  -6  -7    8.17    0.95
  -1   6   6   33.45    1.20
   1  -6  -6   33.79    1.42
   1   6   5   -0.05    0.35
  -1  -6  -5    0.57    0.40
  -1  -6  -5    0.07    0.25
   3   6   4    3.34    0.74
  -3  -6  -4    2.74    0.51
  -3  -6  -4    4.65    0.82
   5   6   3    9.90    1.20
  -5  -6  -3    8.14    0.86
  -8   5  10    0.72    0.44
   8  -5 -10    0.55    0.29
  -6   5   9    2.64    0.63
   6  -5  -9    2.42    0.51
  -4   5   8   -0.05    0.25
   4  -5  -8   -0.01    0.27
  -2   5   7   10.03    0.90
  -2   5   7    8.05    0.80
   2  -5  -7    6.24    0.77
   2  -5  -7    6.50    0.73
   0   5   6    1.41    0.32
   0   5   6    1.69    0.56
   0  -5  -6    1.49    0.51
   0  -5  -6    1.99    0.43
   2   5   5   14.62    1.36
  -2  -5  -5   13.52    0.89
  -2  -5  -5   14.02    1.27
   4   5   4   16.88    1.27
  -4  -5  -4   14.10    1.31
  -4  -5  -4   13.71    0.92
   6   5   3   36.56    1.91
  -6  -5  -3   36.10    1.48
  -7   4  10   15.44    1.10
   7  -4 -10   14.46    0.78
  -5   4   9    4.52    0.69
  -5   4   9    4.77    0.66
   5  -4  -9    4.12    0.58
  -3   4   8    0.02    0.24
   3  -4  -8    0.13    0.28
  -1   4   7    3.02    0.52
   1  -4  -7    2.58    0.51
   1  -4  -7    2.07    0.42
   1   4   6    0.23    0.39
   1   4   6    0.28    0.22
  -1  -4  -6   -0.24    0.23
  -1  -4  -6    0.08    0.21
   3   4   5    9.02    1.03
  -3  -4  -5    7.96    0.77
  -3  -4  -5    8.17    1.01
   5   4   4   27.03    1.59
  -5  -4  -4   27.37    1.54
  -5  -4  -4   27.23    1.24
   7   4   3    9.76    1.19
  -7  -4  -3   10.11    0.95
  -8   3  11    6.13    0.84
   8  -3 -11    4.46    0.92
  -6   3  10   42.35    1.66
   6  -3 -10   43.41    1.26
  -4   3   9   12.53    0.87
  -4   3   9   12.99    1.11
   4  -3  -9   12.55    0.84
  -2   3   8    0.51    0.32
   2  -3  -8    0.42    0.29
   0   3   7    4.82    0.73
   0   3   7    4.56    0.57
   0  -3  -7    4.92    0.60
   0  -3  -7    6.91    0.80
   2   3   6    7.35    0.85
   2   3   6    8.25    0.59
   2   3   6   10.09    1.11
  -2  -3  -6    7.95    0.98
  -2  -3  -6    7.42    0.72
   4   3   5    0.91    0.47
  -4  -3  -5    0.37    0.26
  -4  -3  -5    0.22    0.34
   6   3   4    3.70    0.74
  -6  -3  -4    4.99    0.67
  -6  -3  -4    5.85    0.93
   8   3   3    0.41    0.44
  -8  -3  -3    0.46    0.35
  -7   2  11   13.11    1.12
   7  -2 -11   14.17    1.45
  -5   2  10    7.04    0.78
   5  -2 -10    6.48    0.92
   5  -2 -10    6.38    0.57
  -3   2   9   10.15    0.88
  -3   2   9    7.53    0.82
   3  -2  -9    7.78    0.75
  -1   2   8    3.60    0.50
  -1   2   8    4.51    0.62
  -1   2   8    5.57    0.69
   1  -2  -8    3.63    0.56
   1   2   7   25.02    1.15
   1   2   7   22.71    1.05
   1   2   7   25.25    1.21
  -1  -2  -7   23.71    1.15
  -1  -2  -7   24.10    1.09
   3   2   6   14.43    1.13
   3   2   6   14.73    0.76
   3   2   6   15.48    1.04
  -3  -2  -6   14.24    0.86
  -3  -2  -6   15.44    1.09
   5   2   5    1.93    0.55
   5   2   5    0.72    0.58
  -5  -2  -5    0.73    0.42
  -5  -2  -5    0.65    0.29
   7   2   4    0.31    0.41
  -7  -2  -4    0.11    0.28
  -7  -2  -4    0.09    0.41
   9   2   3    1.77    0.67
  -9  -2  -3    1.63    0.48
  -8   1  12    6.32    0.88
   8  -1 -12    8.06    1.13
  -6   1  11    3.93    0.63
   6  -1 -11    3.33    0.74
  -4   1  10   12.18    0.84
   4  -1 -10   14.41    1.14
   4  -1 -10   12.22    0.63
  -2   1   9   -0.06    0.24
  -2   1   9    0.27    0.27
   2  -1  -9    0.27    0.22
   2  -1  -9    0.74    0.40
   0   1   8   37.43    1.41
   0   1   8   38.07    1.51
   0   1   8   38.71    1.32
   0  -1  -8   38.50    1.43
   2   1   7   73.10    1.92
   2   1   7   73.85    2.07
  -2  -1  -7   69.13    1.86
  -2  -1  -7   71.12    2.03
   4   1   6    4.07    0.78
   4   1   6    3.70    0.63
   4   1   6    4.09    0.49
  -4  -1  -6    3.46    0.50
  -4  -1  -6    4.64    0.72
   6   1   5   -0.21    0.33
  -6  -1  -5    0.34    0.26
  -6  -1  -5    0.32    0.37
   8   1   4   11.19    1.29
  -8  -1  -4   10.52    1.22
  -8  -1  -4   10.05    0.95
  -7   0  12    9.84    0.99
   7   0 -12    8.48    1.11
  -5   0  11    1.32    0.38
   5   0 -11    2.30    0.61
  -3   0  10    4.22    0.57
   3   0 -10    4.13    0.73
   3   0 -10    5.24    0.47
  -1   0   9    0.22    0.24
  -1   0   9    0.17    0.21
   1   0  -9    0.17    0.18
   1   0  -9    0.45    0.31
   1   0   8   54.20    1.58
   1   0   8   56.54    1.84
   1   0   8   55.81    1.72
  -1   0  -8   55.75    1.72
   3   0   7   68.89    1.89
   3   0   7   70.18    2.05
  -3   0  -7   70.39    1.90
  -3   0  -7   70.02    2.03
   5   0   6    0.64    0.26
   5   0   6    0.85    0.44
   5   0   6    0.44    0.32
  -5   0  -6    0.65    0.46
  -5   0  -6    0.81    0.32
   7   0   5    9.07    1.12
  -7   0  -5    7.69    0.98
  -7   0  -5    8.89    0.87
   9   0   4   23.06    1.65
  -9   0  -4   25.04    1.33
  -6  -1  12   15.79    1.00
   6   1 -12   17.13    1.29
  -4  -1  11    1.57    0.40
   4   1 -11    2.14    0.58
  -2  -1  10   29.70    1.21
   2   1 -10   35.59    1.66
   2   1 -10   28.84    0.87
   0  -1   9   17.47    0.99
   0  -1   9   20.38    0.97
   0  -1   9   18.51    1.02
   0   1  -9   17.54    0.90
   0   1  -9   19.90    1.24
   2  -1   8    0.67    0.31
   2  -1   8    0.55    0.29
   2  -1   8    0.18    0.23
  -2   1  -8    1.71    0.40
   4  -1   7   10.98    0.85
   4  -1   7   10.89    0.76
  -4   1  -7    9.68    0.73
  -4   1  -7    7.57    0.81
   6  -1   6    0.07    0.22
   6  -1   6   -0.31    0.35
  -6   1  -6   -0.06    0.24
  -6   1  -6    0.11    0.34
   8  -1   5   13.60    1.41
  -8   1  -5   12.54    1.32
  -8   1  -5   13.39    0.96
  10  -1   4    7.22    1.17
 -10   1  -4    5.57    0.83
  -5  -2  12    0.18    0.24
   5   2 -12    0.39    0.39
  -3  -2  11   15.83    0.89
   3   2 -11   13.38    1.08
  -1  -2  10  112.37    2.42
   1   2 -10  112.15    3.05
   1   2 -10  112.19    1.89
   1  -2   9   36.95    1.31
   1  -2   9   35.66    1.40
  -1   2  -9   34.82    1.64
  -1   2  -9   35.01    1.28
   3  -2   8    5.17    0.65
   3  -2   8    4.69    0.68
   3  -2   8    4.78    0.55
  -3   2  -8    4.53    0.61
   5  -2   7    0.88    0.45
   5  -2   7    0.33    0.28
  -5   2  -7    1.03    0.38
  -5   2  -7    0.39    0.25
   7  -2   6    0.07    0.20
   7  -2   6   -0.13    0.39
  -7   2  -6    0.07    0.28
  -7   2  -6    0.23    0.33
   9  -2   5   16.95    1.63
  -9   2  -5   17.78    1.15
  -9   2  -5   17.62    1.64
  11  -2   4    6.38    1.12
 -11   2  -4    4.88    0.80
  -6  -3  13   -0.02    0.27
   6   3 -13   -0.28    0.29
  -4  -3  12    0.62    0.30
   4   3 -12    0.91    0.42
  -2  -3  11   14.85    0.85
   2   3 -11   15.40    1.16
   0  -3  10   19.45    0.96
   0   3 -10   19.06    0.68
   0   3 -10   20.01    1.28
   2  -3   9   15.45    0.87
   2  -3   9   15.77    0.95
  -2   3  -9   15.39    1.14
  -2   3  -9   16.72    0.89
   4  -3   8    4.70    0.70
   4  -3   8    5.13    0.61
   4  -3   8    5.57    0.70
  -4   3  -8    4.52    0.65
   6  -3   7  116.81    2.66
  -6   3  -7  114.27    2.65
  -6   3  -7  114.34    2.89
   8  -3   6    0.34    0.27
  -8   3  -6    0.12    0.30
  10  -3   5    0.38    0.51
 -10   3  -5    0.38    0.38
  -5  -4  13    0.68    0.35
   5   4 -13    0.43    0.45
  -3  -4  12    2.44    0.44
   3   4 -12    1.19    0.46
  -1  -4  11    1.91    0.38
   1   4 -11    1.47    0.48
   1  -4  10   10.98    0.76
  -1   4 -10   11.36    0.54
  -1   4 -10   10.82    1.14
   3  -4   9    1.62    0.45
   3  -4   9    0.59    0.29
  -3   4  -9    0.49    0.30
  -3   4  -9    1.74    0.54
   5  -4   8   37.15    1.52
   5  -4   8   40.03    1.68
  -5   4  -8   39.63    1.55
   7  -4   7   42.63    1.60
  -7   4  -7   41.57    1.58
  -7   4  -7   42.74    1.76
   9  -4   6    8.34    0.79
  -9   4  -6    8.37    0.88
 -11   4  -5    5.55    0.80
  -4  -5  13    9.89    0.85
   4   5 -13    8.44    1.05
  -2  -5  12    6.82    0.69
   2   5 -12    5.94    0.90
   0  -5  11    1.24    0.33
   0   5 -11    1.12    0.50
   2  -5  10    3.30    0.51
  -2   5 -10    3.08    0.35
  -2   5 -10    3.41    0.74
   4  -5   9    5.27    0.64
   4  -5   9    5.39    0.72
  -4   5  -9    6.32    0.69
   6  -5   8    8.44    0.91
  -6   5  -8    6.91    0.81
   8  -5   7   15.72    1.02
  -8   5  -7   13.54    1.26
  10  -5   6    4.78    0.64
 -10   5  -6    6.61    0.89
  -3  -6  13   15.44    0.91
   3   6 -13   14.21    1.34
  -1  -6  12    7.26    0.72
   1   6 -12    7.84    1.02
   1  -6  11    1.23    0.35
  -1   6 -11    3.09    0.68
   3  -6  10   19.08    1.04
  -3   6 -10   19.64    1.39
  -3   6 -10   20.25    0.74
   5  -6   9    0.81    0.39
   5  -6   9    0.41    0.29
  -5   6  -9    0.22    0.27
   7  -6   8    1.14    0.42
  -7   6  -8    2.15    0.55
   9  -6   7    0.70    0.39
  -9   6  -7    1.47    0.52
  11  -6   6    1.02    0.39
  -2  -7  13    0.74    0.34
   2   7 -13    0.68    0.45
   0  -7  12   14.31    0.90
   0   7 -12   14.39    1.38
   2  -7  11    8.48    0.84
  -2   7 -11    8.20    1.06
   4  -7  10   21.23    1.14
  -4   7 -10   22.82    1.55
  -4   7 -10   21.24    0.80
   6  -7   9    0.63    0.33
   6  -7   9    0.54    0.38
  -6   7  -9    0.43    0.31
   8  -7   8    1.27    0.44
  -8   7  -8    0.86    0.45
  10  -7   7    4.82    0.77
 -10   7  -7    5.90    0.97
  -1  -8  13    0.59    0.33
   1   8 -13   -0.05    0.37
   1  -8  12    4.57    0.62
  -1   8 -12    5.23    0.92
   3  -8  11   16.28    1.01
  -3   8 -11   17.72    1.63
   5  -8  10    6.21    0.77
  -5   8 -10    6.15    0.52
  -5   8 -10    5.69    0.97
   7  -8   9    1.00    0.41
   7  -8   9    0.38    0.41
  -7   8  -9    0.43    0.35
   9  -8   8   13.23    1.22
  -9   8  -8   16.98    1.43
  11  -8   7   25.06    1.45
 -11   8  -7   27.50    1.64
   2  -9  12    0.23    0.27
  -2   9 -12    0.10    0.43
   4  -9  11    7.78    0.86
  -4   9 -11   11.34    1.37
   6  -9  10   -0.04    0.34
  -6   9 -10    0.29    0.24
   8  -9   9    1.54    0.56
  -8   9  -9    1.20    0.45
  10  -9   8   14.22    1.30
 -10   9  -8   14.14    1.29
   3 -10  12    0.53    0.34
  -3  10 -12    0.81    0.55
   5 -10  11    2.28    0.56
  -5  10 -11    1.87    0.70
   7 -10  10    2.00    0.54
  -7  10 -10    2.83    0.41
   9 -10   9    0.43    0.48
  -9  10  -9    0.15    0.41
  -5   9   7    0.13    0.38
  -5   9   7   -0.35    0.32
   5  -9  -7    0.45    0.50
  -3   9   6   10.84    0.71
   3  -9  -6   11.96    1.13
  -1   9   5   23.54    1.74
   1  -9  -5   21.99    1.36
  -6   8   8    4.78    0.82
   6  -8  -8    4.47    0.77
  -4   8   7    1.90    0.48
   4  -8  -7    2.04    0.60
  -2   8   6    2.96    0.41
   2  -8  -6    3.41    0.66
   0   8   5    1.65    0.71
   0  -8  -5    1.91    0.54
   2   8   4    0.24    0.49
  -2  -8  -4    0.35    0.38
  -7   7   9    4.90    0.85
   7  -7  -9    3.42    0.71
  -5   7   8    9.30    0.99
   5  -7  -8   10.99    1.12
  -3   7   7   10.79    0.94
   3  -7  -7    8.89    1.00
   3  -7  -7    8.40    1.20
  -1   7   6    1.86    0.34
   1  -7  -6    1.53    0.46
   1   7   5    1.74    0.64
  -1  -7  -5    0.57    0.42
  -1  -7  -5    1.52    0.45
   3   7   4    0.48    0.49
  -3  -7  -4    0.66    0.38
  -6   6   9   23.94    1.41
   6  -6  -9   22.67    1.30
  -4   6   8    5.25    0.72
   4  -6  -8    4.38    0.69
  -2   6   7   15.58    0.95
   2  -6  -7   14.10    0.97
   2  -6  -7   13.96    1.20
   0   6   6    0.45    0.23
   0   6   6    0.82    0.51
   0  -6  -6   -0.15    0.37
   0  -6  -6    0.17    0.30
   2   6   5   10.59    1.24
  -2  -6  -5    9.84    1.18
  -2  -6  -5   10.70    0.98
   4   6   4    0.50    0.47
  -4  -6  -4    0.30    0.31
  -7   5  10    0.55    0.42
   7  -5 -10    0.30    0.33
  -5   5   9    8.54    0.98
   5  -5  -9    7.96    0.85
  -3   5   8   11.02    1.01
  -3   5   8   11.53    1.05
   3  -5  -8   12.27    1.14
  -1   5   7    6.32    0.70
   1  -5  -7    6.13    0.77
   1  -5  -7    6.43    0.77
   1   5   6   34.65    1.03
   1   5   6   29.75    1.69
  -1  -5  -6   36.21    1.77
  -1  -5  -6   35.42    1.45
   3   5   5   11.45    1.25
  -3  -5  -5   11.74    0.87
  -3  -5  -5    9.45    1.10
   5   5   4    3.77    0.80
  -5  -5  -4    4.06    0.64
  -8   4  11    7.46    0.98
  -6   4  10    0.22    0.35
   6  -4 -10    0.64    0.33
  -4   4   9    1.75    0.49
   4  -4  -9    1.53    0.43
  -2   4   8    0.58    0.34
  -2   4   8    0.50    0.32
   2  -4  -8    0.78    0.37
   0   4   7    9.28    0.80
   0  -4  -7    8.52    0.84
   0  -4  -7    8.56    0.93
   2   4   6   11.59    0.60
   2   4   6   11.94    1.16
   2   4   6   12.36    1.26
  -2  -4  -6   13.09    0.89
  -2  -4  -6   13.52    1.32
   4   4   5    7.76    1.07
  -4  -4  -5   10.07    0.91
  -4  -4  -5    8.68    1.08
   6   4   4    1.68    0.62
  -6  -4  -4    2.54    0.54
  -7   3  11    3.01    0.69
  -5   3  10    6.11    0.77
   5  -3 -10    5.39    0.65
  -3   3   9   21.24    1.18
  -3   3   9   18.36    1.03
   3  -3  -9   21.55    1.14
  -1   3   8   14.19    0.93
   1  -3  -8   16.84    1.02
   1   3   7   11.26    1.06
   1   3   7   11.33    0.77
  -1  -3  -7   12.42    0.84
  -1  -3  -7   11.32    1.00
   3   3   6    3.89    0.73
   3   3   6    6.25    0.93
   3   3   6    6.46    0.53
  -3  -3  -6    8.47    1.06
  -3  -3  -6    5.67    0.70
   5   3   5    2.92    0.71
  -5  -3  -5    5.48    0.87
  -5  -3  -5    3.28    0.55
   7   3   4    4.89    0.89
  -7  -3  -4    4.63    0.68
  -6   2  11    0.37    0.37
   6  -2 -11    0.63    0.49
  -4   2  10    0.62    0.33
   4  -2 -10    1.15    0.34
  -2   2   9   47.44    1.69
  -2   2   9   44.27    1.52
   2  -2  -9   44.14    1.58
   0   2   8   17.38    0.99
   0   2   8   16.21    1.05
   0  -2  -8   17.70    1.04
   2   2   7    2.70    0.45
  -2  -2  -7    1.64    0.40
  -2  -2  -7    2.39    0.51
   4   2   6    0.34    0.38
   4   2   6    0.61    0.23
   4   2   6    0.25    0.36
  -4  -2  -6    0.19    0.27
  -4  -2  -6    0.42    0.43
   6   2   5   -0.06    0.42
  -6  -2  -5    0.10    0.38
  -6  -2  -5    0.08    0.27
   8   2   4    1.96    0.67
  -8  -2  -4    0.32    0.32
  -7   1  12    0.87    0.43
   7  -1 -12    0.52    0.47
  -5   1  11    0.51    0.35
   5  -1 -11    0.98    0.49
  -3   1  10    7.20    0.75
   3  -1 -10    6.76    0.93
   3  -1 -10    6.78    0.64
  -1   1   9   61.45    1.78
  -1   1   9   63.03    1.94
   1  -1  -9   59.76    1.82
   1   1   8    4.82    0.63
   1   1   8    3.13    0.57
  -1  -1  -8    3.89    0.61
  -1  -1  -8    3.88    0.65
   3   1   7   11.63    0.77
  -3  -1  -7   10.54    0.96
  -3  -1  -7   10.32    0.77
   5   1   6    6.77    0.48
   5   1   6    7.80    1.06
   5   1   6    5.84    0.81
  -5  -1  -6    7.85    0.80
  -5  -1  -6    5.66    0.85
   7   1   5   14.37    1.43
  -7  -1  -5   13.90    0.97
  -7  -1  -5   17.28    1.57
   9   1   4    0.48    0.53
  -9  -1  -4    0.93    0.44
  -6   0  12    3.67    0.63
   6   0 -12    2.98    0.74
  -4   0  11    3.45    0.58
   4   0 -11    2.70    0.68
  -2   0  10   10.34    0.89
   2   0 -10    8.91    1.06
   2   0 -10    9.67    0.67
   0   0   9    5.81    0.75
   0   0   9    6.62    0.70
   0   0   9    6.32    0.72
   0   0  -9    5.96    0.70
   2   0   8    1.69    0.42
   2   0   8    2.22    0.50
  -2   0  -8    4.15    0.63
  -2   0  -8    2.52    0.46
   4   0   7   26.35    1.14
  -4   0  -7   26.56    1.21
  -4   0  -7   24.99    1.28
   6   0   6   28.97    1.57
   6   0   6   29.56    0.95
   6   0   6   29.59    1.69
  -6   0  -6   28.07    1.30
  -6   0  -6   28.14    1.61
   8   0   5   10.72    1.34
  -8   0  -5    7.59    1.06
  -8   0  -5    8.33    0.94
  10   0   4    2.77    0.80
 -10   0  -4    1.67    0.53
  -5  -1  12    8.72    0.87
   5   1 -12   10.23    1.17
  -3  -1  11   18.05    1.00
   3   1 -11   18.58    1.32
  -1  -1  10   13.00    0.84
   1   1 -10   15.65    1.18
   1   1 -10   13.50    0.77
   1  -1   9    2.39    0.48
   1  -1   9    1.74    0.46
   1  -1   9    2.38    0.45
  -1   1  -9    3.19    0.51
   3  -1   8    1.51    0.41
   3  -1   8    1.21    0.41
  -3   1  -8    2.07    0.46
   5  -1   7    5.57    0.63
  -5   1  -7    6.13    0.72
  -5   1  -7    6.12    0.79
   7  -1   6   15.58    0.72
   7  -1   6   14.47    1.45
  -7   1  -6   17.05    1.53
  -7   1  -6   15.48    1.03
   9  -1   5    8.55    1.26
  -9   1  -5    8.21    0.92
  -9   1  -5    7.87    1.13
  -6  -2  13    2.82    0.58
   6   2 -13    1.72    0.60
  -4  -2  12   34.18    1.41
   4   2 -12   38.57    1.87
  -2  -2  11   14.39    0.88
   2   2 -11   12.62    1.25
   0  -2  10    7.42    0.73
   0   2 -10    8.34    0.61
   0   2 -10    8.02    1.01
   2  -2   9    8.53    0.78
   2  -2   9    9.04    0.90
   2  -2   9    8.00    0.88
  -2   2  -9    7.93    0.80
   4  -2   8    0.23    0.24
   4  -2   8   -0.19    0.22
  -4   2  -8    0.09    0.26
   6  -2   7    4.04    0.57
  -6   2  -7    3.03    0.57
  -6   2  -7    4.35    0.63
   8  -2   6    5.98    0.55
   8  -2   6    6.05    1.03
  -8   2  -6    4.70    0.70
  10  -2   5    2.53    0.85
 -10   2  -5    2.94    0.66
  -5  -3  13    7.96    0.84
   5   3 -13    7.07    1.01
  -3  -3  12   16.40    0.95
   3   3 -12   14.52    1.36
  -1  -3  11    1.55    0.38
   1   3 -11    1.49    0.49
   1  -3  10   17.97    0.98
  -1   3 -10   19.06    0.90
  -1   3 -10   19.55    1.32
   3  -3   9   17.86    1.14
   3  -3   9   18.65    0.98
   3  -3   9   19.12    1.08
  -3   3  -9   19.23    1.06
   5  -3   8    4.91    0.69
  -5   3  -8    4.60    0.69
   7  -3   7    3.51    0.56
  -7   3  -7    3.55    0.65
  -7   3  -7    5.35    0.73
   9  -3   6    1.49    0.33
  -9   3  -6    1.52    0.49
  11  -3   5    0.60    0.65
 -11   3  -5    0.91    0.47
  -4  -4  13    0.81    0.35
   4   4 -13    0.92    0.47
  -2  -4  12    1.28    0.38
   2   4 -12    2.39    0.65
   0  -4  11    2.33    0.45
   0   4 -11    4.76    0.82
   2  -4  10   14.07    0.89
  -2   4 -10   16.70    1.27
  -2   4 -10   13.95    0.78
   4  -4   9   43.39    1.80
   4  -4   9   44.90    1.55
   4  -4   9   43.42    1.68
  -4   4  -9   44.25    1.61
   6  -4   8    0.32    0.31
  -6   4  -8    0.21    0.28
   8  -4   7    4.49    0.63
  -8   4  -7    5.55    0.84
  -8   4  -7    5.88    0.77
  10  -4   6   -0.01    0.22
 -10   4  -6    0.44    0.39
  -3  -5  13    0.26    0.27
   3   5 -13    0.04    0.35
  -1  -5  12    2.01    0.44
   1   5 -12    2.80    0.66
   1  -5  11    1.26    0.38
  -1   5 -11    1.09    0.50
   3  -5  10   21.45    1.10
  -3   5 -10   21.13    1.45
  -3   5 -10   19.25    0.93
   5  -5   9    9.99    0.98
   5  -5   9    8.28    0.81
  -5   5  -9    9.59    0.95
   7  -5   8    0.25    0.32
  -7   5  -8    0.82    0.42
   9  -5   7    9.07    0.94
  -9   5  -7    8.72    1.09
  11  -5   6    7.08    0.63
 -11   5  -6    7.12    0.97
  -2  -6  13    4.91    0.65
   2   6 -13    4.81    0.82
   0  -6  12    3.14    0.53
   0   6 -12    2.45    0.68
   2  -6  11    0.69    0.31
  -2   6 -11    0.66    0.47
   4  -6  10    6.31    0.77
  -4   6 -10    5.29    1.44
  -4   6 -10    5.89    0.61
   6  -6   9    3.58    0.64
  -6   6  -9    3.47    0.60
   8  -6   8    2.66    0.56
  -8   6  -8    3.74    0.73
  10  -6   7   12.14    1.10
 -10   6  -7   11.38    1.24
  -1  -7  13   24.33    1.19
   1   7 -13   25.34    1.63
   1  -7  12   32.87    1.39
  -1   7 -12   31.40    1.79
   3  -7  11    0.57    0.36
  -3   7 -11    1.37    0.56
   5  -7  10    2.90    0.57
  -5   7 -10    2.51    0.45
   7  -7   9    5.72    0.83
  -7   7  -9    5.11    0.72
   9  -7   8    5.35    0.79
  -9   7  -8    6.46    0.92
  11  -7   7    1.47    0.45
 -11   7  -7    1.99    0.70
   0  -8  13   10.82    1.00
   0   8 -13    7.78    1.11
   2  -8  12    4.58    0.66
  -2   8 -12    5.62    1.00
   4  -8  11    1.40    0.45
  -4   8 -11    1.05    0.57
   6  -8  10    6.22    0.79
  -6   8 -10    6.33    0.69
   8  -8   9    4.93    0.83
  -8   8  -9    4.12    0.72
  10  -8   8    0.42    0.41
 -10   8  -8    0.22    0.39
   1  -9  13    3.26    0.60
  -1   9 -13    4.20    0.87
   3  -9  12    0.20    0.33
  -3   9 -12   -0.21    0.43
   5  -9  11    2.65    0.61
  -5   9 -11    3.51    0.88
   7  -9  10   21.68    1.30
  -7   9 -10   18.86    1.03
   9  -9   9   12.00    1.29
  -9   9  -9    8.85    1.02
   4 -10  12   12.62    1.16
  -4  10 -12   16.43    1.75
   6 -10  11    3.04    0.67
  -8  10 -10   16.19    0.97
   2  -9  -6    5.90    0.82
  -5   8   8    7.90    0.92
  -5   8   8    8.42    0.99
   5  -8  -8    8.20    1.04
  -3   8   7    6.93    0.74
   1  -8  -6    9.14    1.01
   1   8   5    8.30    1.17
  -1  -8  -5    6.36    0.85
  -6   7   9    2.99    0.72
   6  -7  -9    3.89    0.75
  -4   7   8    0.56    0.35
  -4   7   8    0.18    0.33
   4  -7  -8    0.29    0.39
  -2   7   7   -0.01    0.29
   2  -7  -7   -0.24    0.27
   0   7   6    0.01    0.42
   0  -7  -6   -0.27    0.29
   2   7   5   21.44    1.59
  -2  -7  -5   24.56    1.34
  -7   6  10   14.60    1.44
   7  -6 -10   15.35    1.08
  -5   6   9    1.51    0.52
   5  -6  -9    1.81    0.58
  -3   6   8    0.46    0.33
  -3   6   8    0.20    0.32
   3  -6  -8    0.21    0.33
  -1   6   7    0.12    0.27
   1  -6  -7   -0.37    0.22
   1   6   6    0.33    0.44
  -1  -6  -6   -0.16    0.39
  -1  -6  -6   -0.25    0.25
   3   6   5   13.32    1.47
  -3  -6  -5   11.38    1.02
  -6   5  10    2.44    0.64
   6  -5 -10    3.11    0.62
  -4   5   9   11.57    1.11
   4  -5  -9   13.77    1.19
  -2   5   8   15.14    1.00
   2  -5  -8   17.54    1.17
   0   5   7   31.40    1.21
   0  -5  -7   24.01    1.26
   2   5   6   10.10    1.22
  -2  -5  -6    8.68    0.88
  -2  -5  -6   12.38    1.34
   4   5   5    0.86    0.52
  -4  -5  -5    0.09    0.32
  -7   4  11    0.75    0.46
   7  -4 -11    0.64    0.34
  -5   4  10    0.71    0.42
   5  -4 -10   -0.02    0.29
  -3   4   9   13.29    1.17
   3  -4  -9   11.21    1.03
  -1   4   8   35.04    1.44
   1  -4  -8   33.31    1.54
   1   4   7   15.81    1.56
   1   4   7   17.76    0.92
  -1  -4  -7   19.23    1.09
   3   4   6    6.08    0.98
  -3  -4  -6    3.44    0.59
  -3  -4  -6    4.50    0.83
   5   4   5    4.07    0.85
  -5  -4  -5    3.81    0.66
  -5  -4  -5    4.33    1.03
  -6   3  11   14.59    1.08
   6  -3 -11   14.24    0.72
  -4   3  10    0.00    0.30
  -4   3  10    0.09    0.36
   4  -3 -10    0.03    0.27
  -2   3   9    1.18    0.41
  -2   3   9    0.70    0.36
   2  -3  -9    0.82    0.37
   0   3   8   25.23    1.19
   0  -3  -8   23.14    1.16
   0  -3  -8   24.21    1.26
   2   3   7    6.60    0.66
  -2  -3  -7    8.82    0.87
   4   3   6    2.77    0.72
  -4  -3  -6    5.39    0.92
  -4  -3  -6    4.91    0.69
   6   3   5   15.57    1.55
  -6  -3  -5   14.98    1.03
  -6  -3  -5   16.45    1.96
  -7   2  12    1.83    0.56
   7  -2 -12    1.34    0.67
  -5   2  11   12.42    1.11
   5  -2 -11   11.33    0.64
  -3   2  10   12.20    1.71
  -3   2  10   10.34    0.92
   3  -2 -10   11.65    0.83
  -1   2   9    6.34    0.80
  -1   2   9    6.06    0.74
   1  -2  -9    5.68    0.72
   1   2   8   -0.25    0.22
  -1  -2  -8   -0.18    0.24
  -1  -2  -8    0.14    0.25
   3   2   7    1.26    0.34
   3   2   7    0.82    0.52
  -3  -2  -7    0.56    0.32
   5   2   6    7.32    1.04
  -5  -2  -6    6.30    0.75
  -5  -2  -6    7.38    1.02
   7   2   5   35.18    2.00
  -7  -2  -5   32.70    1.48
  -6   1  12    3.31    0.64
   6  -1 -12    3.96    0.84
  -4   1  11   49.05    1.74
   4  -1 -11   49.07    1.27
   4  -1 -11   47.36    2.15
  -2   1  10   12.63    1.59
  -2   1  10   11.98    0.84
   2  -1 -10   12.60    0.84
   0   1   9    4.89    0.66
   0   1   9    6.62    0.86
   0  -1  -9    6.18    0.75
   2   1   8   11.83    0.84
  -2  -1  -8   13.17    0.95
  -2  -1  -8   12.22    0.84
   4   1   7    7.60    0.70
   4   1   7    5.70    0.99
  -4  -1  -7    8.54    0.86
   6   1   6   -0.26    0.41
  -6  -1  -6    0.20    0.28
  -6  -1  -6   -0.45    0.38
   8   1   5   15.77    1.64
  -8  -1  -5   16.31    1.10
  -5   0  12    4.29    0.67
   5   0 -12    4.27    0.86
  -3   0  11   26.21    1.25
   3   0 -11   28.32    1.67
   3   0 -11   25.66    0.88
  -1   0  10    9.56    0.87
   1   0 -10    7.75    0.76
   1   0   9    4.94    0.71
   1   0   9    5.48    0.69
  -1   0  -9    4.87    0.68
   3   0   8    8.20    0.82
  -3   0  -8    9.84    0.89
  -3   0  -8    8.79    0.89
   5   0   7   24.12    1.07
  -5   0  -7   22.94    1.20
   7   0   6   -0.18    0.39
  -7   0  -6   -0.48    0.32
  -7   0  -6    0.34    0.33
   9   0   5   -0.20    0.45
  -9   0  -5    0.27    0.36
  -6  -1  13    0.49    0.37
   6   1 -13    0.35    0.46
  -4  -1  12   14.39    0.97
   4   1 -12   15.54    1.48
  -2  -1  11    2.93    0.51
   2   1 -11    4.77    0.86
   2   1 -11    2.88    0.35
   0  -1  10    1.71    0.42
   0   1 -10    1.71    0.40
   2  -1   9    6.58    0.84
   2  -1   9    7.52    0.80
  -2   1  -9    7.51    0.82
   4  -1   8   22.06    1.12
  -4   1  -8   19.91    1.07
  -4   1  -8   17.45    1.11
   6  -1   7    9.83    0.72
  -6   1  -7    9.89    0.92
   8  -1   6    1.10    0.57
  -8   1  -6    0.98    0.57
  -8   1  -6    1.19    0.45
  10  -1   5    6.08    1.15
 -10   1  -5    6.43    0.90
  -5  -2  13    7.43    0.86
   5   2 -13    7.62    1.07
  -3  -2  12    1.72    0.41
   3   2 -12    3.47    0.76
  -1  -2  11    2.87    0.52
   1   2 -11    3.49    0.37
   1   2 -11    2.67    0.64
   1  -2  10    2.21    0.46
  -1   2 -10    2.39    0.46
   3  -2   9   22.58    1.30
   3  -2   9   24.89    1.24
  -3   2  -9   26.89    1.30
   5  -2   8   51.68    1.77
  -5   2  -8   52.65    1.93
  -5   2  -8   50.05    1.72
   7  -2   7    0.26    0.28
  -7   2  -7    0.16    0.30
  -9   2  -6    9.81    1.01
  -4  -3  13   17.26    1.06
   4   3 -13   19.16    1.43
  -2  -3  12    1.61    0.41
   2   3 -12    1.45    0.53
   0  -3  11   19.12    1.04
   0   3 -11   19.57    0.71
   0   3 -11   20.79    1.41
   2  -3  10    2.04    0.43
  -2   3 -10    3.21    0.51
   4  -3   9    0.21    0.36
   4  -3   9   -0.17    0.24
  -4   3  -9   -0.02    0.26
   6  -3   8    2.85    0.53
  -6   3  -8    3.12    0.65
   8  -3   7    0.11    0.28
  -8   3  -7    0.10    0.31
 -10   3  -6    1.68    0.53
  -3  -4  13    2.40    0.48
   3   4 -13    1.57    0.58
  -1  -4  12   18.03    1.03
   1   4 -12   17.70    1.33
   1  -4  11   20.67    1.09
  -1   4 -11   18.95    1.39
  -1   4 -11   19.01    0.70
   3  -4  10   11.25    0.82
  -3   4 -10    9.63    0.88
   5  -4   9    0.22    0.30
  -5   4  -9    0.36    0.32
   7  -4   8   -0.10    0.27
  -7   4  -8    0.51    0.39
   9  -4   7    1.01    0.39
  -9   4  -7    0.77    0.42
  -2  -5  13    0.95    0.36
   2   5 -13    1.44    0.58
   0  -5  12   14.96    0.95
   0   5 -12   13.36    1.37
   2  -5  11    9.09    0.86
  -2   5 -11    8.88    0.50
  -2   5 -11   10.28    1.19
   4  -5  10    8.36    0.88
  -4   5 -10    6.32    0.73
   6  -5   9   22.03    1.28
  -6   5  -9   22.77    1.30
   8  -5   8   24.23    1.32
  -8   5  -8   23.18    1.45
  10  -5   7    0.46    0.34
  -1  -6  13    2.82    0.53
   1   6 -13    3.92    0.82
   1  -6  12    3.38    0.58
  -1   6 -12    4.24    0.85
   3  -6  11    6.87    0.80
  -3   6 -11    8.55    1.16
  -3   6 -11    5.98    0.49
   5  -6  10    1.94    0.50
  -5   6 -10    1.62    0.42
   7  -6   9   28.50    1.51
  -7   6  -9   30.93    1.53
   9  -6   8   28.21    1.46
  -9   6  -8   31.75    1.70
   0  -7  13    3.60    0.62
   0   7 -13    5.18    0.92
   2  -7  12   -0.08    0.25
  -2   7 -12   -0.15    0.41
   4  -7  11    7.70    0.87
  -4   7 -11    7.66    1.13
  -4   7 -11    7.78    0.51
   6  -7  10    0.00    0.29
  -6   7 -10    0.01    0.29
   8  -7   9   10.73    1.13
  -8   7  -9    9.58    1.06
  10  -7   8    3.37    0.67
 -10   7  -8    3.07    0.77
   1  -8  13    0.64    0.35
  -1   8 -13    0.73    0.56
   3  -8  12    1.66    0.46
  -3   8 -12    1.52    0.63
   5  -8  11   10.48    1.00
  -5   8 -11    9.03    0.54
  -7   8 -10    0.00    0.32
   9  -8   9   -0.06    0.35
  -9   8  -9   -0.03    0.41
   2  -9  13    1.94    0.53
  -2   9 -13    2.17    0.72
   4  -9  12   11.52    1.11
  -4   9 -12   13.03    1.55
   6  -9  11   15.61    1.15
   8  -9  10   -0.33    0.39
  -8   9 -10   -0.25    0.31
   5 -10  12   19.17    1.30
  -5  10 -12   21.15    2.00
   7 -10  11    5.46    0.85
  -4   8   8    5.25    0.77
   4  -8  -8    4.38    0.84
  -2   8   7    2.26    0.41
   2  -8  -7    2.76    0.65
   0   8   6    9.72    1.80
   0  -8  -6   11.30    1.16
  -5   7   9    1.19    0.54
   5  -7  -9    2.48    0.71
  -3   7   8    0.43    0.35
   3  -7  -8    0.72    0.44
  -1   7   7    2.52    0.41
   1  -7  -7    1.31    0.47
   1   7   6   13.53    1.50
  -1  -7  -6   17.55    1.19
  -6   6  10    3.05    0.76
   6  -6 -10    2.55    0.59
  -4   6   9    2.36    0.60
  -4   6   9    2.06    0.55
   4  -6  -9    2.16    0.60
  -2   6   8    0.20    0.30
   2  -6  -8   -0.12    0.35
   0   6   7   16.95    0.82
   0  -6  -7   17.97    1.15
   2   6   6    0.26    0.49
  -2  -6  -6    0.37    0.58
  -2  -6  -6   -0.12    0.33
   4   6   5    2.19    0.73
  -4  -6  -5    2.64    0.61
  -5   5  10   18.69    1.28
   5  -5 -10   15.70    1.11
  -3   5   9    2.98    0.62
  -3   5   9    2.91    0.60
   3  -5  -9    2.81    0.64
  -1   5   8    4.00    0.61
   1  -5  -8    2.74    0.63
   1  -5  -8    3.51    0.63
   1   5   7   -0.02    0.22
  -1  -5  -7    0.34    0.35
   3   5   6    1.83    0.68
  -3  -5  -6    1.34    0.45
  -3  -5  -6    1.82    0.67
   5   5   5    0.23    0.46
  -5  -5  -5    0.03    0.36
  -6   4  11    4.57    0.78
   6  -4 -11    4.54    0.64
  -4   4  10   14.77    1.30
   4  -4 -10   14.19    1.02
  -2   4   9    4.64    0.70
   2  -4  -9    4.01    0.67
   0   4   8    3.00    0.53
   0  -4  -8    2.89    0.57
   0  -4  -8    2.73    0.60
   2   4   7    3.81    0.48
  -2  -4  -7    3.28    0.60
   4   4   6    7.70    1.13
  -4  -4  -6    7.08    1.04
  -4  -4  -6    5.70    0.79
   6   4   5    0.83    0.53
  -6  -4  -5    0.57    0.40
  -5   3  11    8.09    0.91
   5  -3 -11    8.61    0.83
  -3   3  10   17.23    1.14
   3  -3 -10   15.49    1.04
  -1   3   9    7.19    0.83
   1  -3  -9    9.93    1.00
   1   3   8    2.06    0.45
  -1  -3  -8    3.97    0.66
  -1  -3  -8    2.99    0.57
   3   3   7   18.94    0.84
   3   3   7   19.04    1.44
  -3  -3  -7   18.61    1.12
   5   3   6    9.77    1.23
  -5  -3  -6    6.88    1.01
  -5  -3  -6    9.28    0.98
   7   3   5    0.19    0.53
  -7  -3  -5    0.75    0.47
  -6   2  12    0.76    0.44
  -4   2  11    0.56    0.40
   4  -2 -11    0.16    0.25
  -2   2  10    3.65    0.65
  -2   2  10    2.77    0.59
   2  -2 -10    2.34    0.51
   0   2   9    1.00    0.41
   0  -2  -9    0.49    0.34
   2   2   8   12.44    0.86
  -2  -2  -8   10.77    0.93
  -2  -2  -8   12.75    1.13
   4   2   7   35.72    1.14
   4   2   7   35.94    1.94
  -4  -2  -7   35.72    1.49
   6   2   6   12.59    1.40
  -6  -2  -6   11.19    1.31
  -6  -2  -6    8.79    0.90
   8   2   5    0.22    0.53
  -8  -2  -5    0.34    0.41
  -5   1  12   10.96    1.05
   5  -1 -12    8.07    1.11
  -3   1  11    0.74    0.37
   3  -1 -11    1.23    0.35
  -1   1  10   12.33    0.88
  -1   1  10   13.36    1.00
  -1   1  10   14.00    1.19
   1  -1 -10   12.25    0.91
   1   1   9    2.31    0.50
  -1  -1  -9    1.11    0.40
   3   1   8   10.81    0.80
  -3  -1  -8    8.67    0.97
  -3  -1  -8   11.16    0.95
   5   1   7    9.79    1.25
   5   1   7    8.33    0.59
  -5  -1  -7    8.04    0.86
   7   1   6    2.44    0.77
  -7  -1  -6    3.74    0.63
  -7  -1  -6    3.11    0.80
  -6   0  13   13.81    1.24
   6   0 -13   12.19    1.45
  -4   0  12    3.78    0.66
   4   0 -12    3.33    0.76
  -2   0  11    0.74    0.35
   2   0 -11   -0.01    0.24
   0   0  10   49.89    1.80
   0   0  10   46.55    1.62
   0   0 -10   48.74    1.71
   2   0   9   26.36    1.29
  -2   0  -9   27.81    1.36
   4   0   8    2.04    0.47
  -4   0  -8    2.03    0.48
  -4   0  -8    1.94    0.52
   6   0   7    2.62    0.41
  -6   0  -7    2.76    0.55
   8   0   6    0.48    0.51
  -8   0  -6    0.46    0.37
  -8   0  -6   -0.32    0.47
  -5  -1  13    0.55    0.41
   5   1 -13    0.29    0.43
  -3  -1  12    0.01    0.26
   3   1 -12    0.31    0.42
  -1  -1  11    1.20    0.40
   1   1 -11    2.21    0.43
   1  -1  10   44.89    1.69
   1  -1  10   40.74    1.51
  -1   1 -10   40.76    1.56
   3  -1   9    4.79    0.67
  -3   1  -9    6.61    0.83
   5  -1   8   12.48    0.88
  -5   1  -8   13.50    1.11
  -5   1  -8    9.56    1.05
   7  -1   7    5.03    0.54
  -7   1  -7    3.85    0.68
   9  -1   6    0.32    0.59
  -9   1  -6    0.92    0.46
  -4  -2  13    3.00    0.59
   4   2 -13    3.66    0.81
  -2  -2  12    0.22    0.30
   2   2 -12    0.19    0.42
   0  -2  11   11.37    0.97
   0   2 -11   12.37    1.33
   0   2 -11   12.71    0.77
   2  -2  10    3.34    0.54
   2  -2  10    2.85    0.58
  -2   2 -10    3.16    0.57
   4  -2   9    9.53    0.93
  -4   2  -9   10.29    1.04
   6  -2   8   14.29    0.96
  -6   2  -8   14.68    1.02
  -6   2  -8   13.87    1.24
   8  -2   7   16.05    0.82
  -8   2  -7   15.74    1.12
 -10   2  -6    1.84    0.60
  -3  -3  13    5.88    0.74
   3   3 -13    9.15    1.16
  -1  -3  12    2.17    0.48
   1   3 -12    2.33    0.67
   1  -3  11    2.28    0.51
  -1   3 -11    0.53    0.44
  -1   3 -11    1.74    0.40
   3  -3  10    0.37    0.31
   3  -3  10    0.99    0.33
  -3   3 -10    0.88    0.36
   5  -3   9   10.94    1.03
  -5   3  -9   12.15    1.16
   7  -3   8   12.24    0.91
  -7   3  -8   15.09    1.39
   9  -3   7    5.89    0.61
  -9   3  -7    5.45    0.82
  -2  -4  13   20.49    1.14
   2   4 -13   20.45    1.49
   0  -4  12    4.54    0.65
   0   4 -12    5.01    0.92
   2  -4  11    0.11    0.27
  -2   4 -11    0.35    0.26
   4  -4  10   12.10    1.14
   4  -4  10    9.43    0.91
  -4   4 -10    9.27    0.95
   6  -4   9    0.01    0.29
  -6   4  -9   -0.01    0.32
   8  -4   8    2.44    0.52
  -8   4  -8    3.12    0.69
  10  -4   7    1.21    0.36
 -10   4  -7    1.37    0.52
  -1  -5  13    4.61    0.67
   1   5 -13    6.44    1.02
   1  -5  12    1.18    0.40
  -1   5 -12    1.74    0.62
   3  -5  11    3.77    0.62
  -3   5 -11    4.91    0.59
   5  -5  10    9.81    1.03
  -5   5 -10   10.35    1.00
   7  -5   9    2.48    0.57
  -7   5  -9    3.14    0.70
   9  -5   8    1.11    0.43
  -9   5  -8    1.51    0.62
   0  -6  13    1.69    0.46
   0   6 -13    1.09    0.58
   2  -6  12    0.28    0.32
  -2   6 -12    0.24    0.45
   4  -6  11   10.70    0.99
  -4   6 -11   12.11    0.77
   6  -6  10    9.31    1.05
  -6   6 -10    8.04    0.91
   8  -6   9    1.72    0.52
  -8   6  -9    0.81    0.46
  10  -6   8    7.52    0.92
 -10   6  -8    8.37    1.13
   1  -7  13    0.86    0.37
  -1   7 -13    0.13    0.48
   3  -7  12   -0.23    0.28
  -3   7 -12    0.49    0.49
   5  -7  11   23.22    1.31
  -5   7 -11   26.16    1.13
   7  -7  10    3.39    0.73
  -7   7 -10    5.39    0.79
   9  -7   9    0.24    0.37
  -9   7  -9    0.28    0.40
   2  -8  13    8.73    0.97
  -2   8 -13    9.43    1.29
   4  -8  12    0.48    0.38
  -4   8 -12    0.86    0.60
   6  -8  11   12.89    1.26
  -6   8 -11    9.41    0.82
   8  -8  10    1.27    0.54
  -8   8 -10    1.54    0.54
   5  -9  12    3.46    0.68
  -7   9 -11    0.20    0.33
  -4   7   9   10.73    1.11
   4  -7  -9   10.91    1.23
  -2   7   8    9.96    0.89
   0  -7  -7   15.71    1.16
  -5   6  10    4.57    0.82
   5  -6 -10    2.41    0.60
  -3   6   9    8.30    0.94
   3  -6  -9    6.17    0.94
  -1   6   8   10.20    0.89
   1  -6  -8   11.95    1.15
  -1  -6  -7    1.56    0.51
   3   6   6   11.70    1.51
  -3  -6  -6   10.17    1.09
  -6   5  11    2.82    0.71
   6  -5 -11    1.67    0.50
  -4   5  10    0.61    0.44
   4  -5 -10    0.34    0.38
  -2   5   9    0.95    0.41
   2  -5  -9    1.66    0.54
   0   5   8    2.67    0.51
   0  -5  -8    2.60    0.61
  -2  -5  -7    3.26    0.65
   4   5   6   19.74    1.81
  -4  -5  -6   16.27    1.17
  -5   4  11    7.86    1.59
   5  -4 -11    4.76    0.70
  -3   4  10    1.28    0.50
  -3   4  10    1.18    0.46
   3  -4 -10    1.53    0.50
  -1   4   9   -0.03    0.28
   1  -4  -9    0.71    0.40
   1   4   8    4.04    0.58
  -1  -4  -8    3.51    0.61
   3   4   7   -0.06    0.47
  -3  -4  -7    0.33    0.31
   5   4   6   16.05    1.63
  -5  -4  -6   15.55    1.12
  -6   3  12   27.96    1.53
   4  -3 -11    7.28    0.84
  -2   3  10    5.83    0.81
  -2   3  10    6.79    0.87
   2  -3 -10    5.82    0.79
   0   3   9   23.77    1.24
   0  -3  -9   22.34    1.33
   2   3   8    9.95    0.87
  -2  -3  -8   10.11    0.96
   4   3   7   -0.20    0.42
  -4  -3  -7   -0.02    0.30
   6   3   6    1.07    0.61
  -6  -3  -6    0.41    0.39
  -5   2  12    1.81    0.54
  -3   2  11    2.88    0.59
   3  -2 -11    2.15    0.49
  -1   2  10    3.65    0.65
   1  -2 -10    2.00    0.51
   1   2   9   22.24    1.19
  -1  -2  -9   19.54    1.23
   3   2   8    8.60    0.80
  -3  -2  -8    7.55    0.83
   5   2   7    6.32    1.10
  -5  -2  -7    3.26    0.62
   7   2   6    2.05    0.73
  -7  -2  -6    2.17    0.60
  -4   1  12    0.96    0.45
  -2   1  11    1.61    0.47
   2  -1 -11    2.16    0.49
   0   1  10    5.26    0.76
   0  -1 -10    3.29    0.59
   2   1   9   36.08    1.50
  -2  -1  -9   35.04    1.60
   4   1   8   15.70    0.93
  -4  -1  -8   15.04    1.03
   6   1   7    0.26    0.53
  -6  -1  -7    1.29    0.45
   8   1   6    7.60    1.22
  -8  -1  -6    6.49    0.91
  -5   0  13    0.90    0.47
   5   0 -13    0.95    0.55
  -3   0  12   18.71    1.15
   3   0 -12   21.39    0.79
  -1   0  11    3.09    0.61
   1   0 -11    3.16    0.55
   1   0  10    8.11    0.91
  -1   0 -10    8.60    0.94
   3   0   9    8.73    0.91
  -3   0  -9    9.54    1.02
   5   0   8    1.30    0.37
  -5   0  -8    2.79    0.59
  -7   0  -7    1.36    0.49
  -4  -1  13    2.85    0.61
   4   1 -13    3.45    0.81
  -2  -1  12   24.86    1.28
   2   1 -12   24.21    0.81
   2   1 -12   24.50    1.64
   0  -1  11   10.24    0.93
   0   1 -11    8.09    0.81
   2  -1  10    3.51    0.64
  -2   1 -10    5.10    0.73
   4  -1   9    4.97    0.69
  -4   1  -9    4.03    0.74
   6  -1   8    2.36    0.48
  -6   1  -8    1.92    0.52
  -8   1  -7    0.04    0.40
  -3  -2  13    1.05    0.43
   3   2 -13    1.79    0.64
  -1  -2  12   26.97    1.32
   1   2 -12   30.44    1.82
   1   2 -12   27.14    0.83
  -1   2 -11   10.64    0.93
   3  -2  10   30.48    1.46
  -3   2 -10   32.86    1.53
   5  -2   9    2.65    0.56
  -5   2  -9    2.24    0.56
   7  -2   8    8.41    0.85
  -7   2  -8    9.93    1.06
  -9   2  -7    0.42    0.43
  -2  -3  13    8.96    0.93
   2   3 -13   10.35    1.31
   0  -3  12    0.32    0.31
   0   3 -12    0.25    0.48
   0   3 -12    0.10    0.17
   2  -3  11    8.70    0.85
  -2   3 -11    8.84    0.88
   4  -3  10    4.79    0.76
  -4   3 -10    5.15    0.76
   6  -3   9   22.79    1.26
  -6   3  -9   24.18    1.43
   8  -3   8    3.69    0.60
  -8   3  -8    2.22    0.60
  -3  -4  14    1.26    0.48
   3   4 -14    1.82    0.66
  -1  -4  13    3.96    0.66
   1   4 -13    4.89    0.96
   1  -4  12    4.67    0.69
  -1   4 -12    3.27    0.39
  -1   4 -12    4.19    0.86
   3  -4  11    3.19    0.56
  -3   4 -11    2.09    0.46
   5  -4  10   21.37    1.28
  -5   4 -10   20.72    1.26
   7  -4   9   10.68    1.07
  -7   4  -9    9.97    1.11
   9  -4   8    1.18    0.43
  -2  -5  14    4.59    0.73
   2   5 -14    4.25    0.88
   0  -5  13   12.83    1.11
   0   5 -13   11.37    1.32
   2  -5  12   21.50    1.22
  -2   5 -12   24.77    1.72
   4  -5  11    1.71    0.46
  -4   5 -11    1.50    0.46
   6  -5  10    0.80    0.43
  -6   5 -10    0.82    0.46
   8  -5   9    1.70    0.50
  -8   5  -9    0.98    0.53
  -1  -6  14    3.13    0.58
   1   6 -14    1.96    0.71
   1  -6  13   17.90    1.15
  -1   6 -13   22.06    1.65
   3  -6  12   12.03    1.05
   5  -6  11    0.63    0.38
  -5   6 -11   -0.08    0.29
   7  -6  10    2.33    0.60
  -7   6 -10    0.29    0.35
   9  -6   9    1.10    0.51
  -9   6  -9    0.17    0.46
   2  -7  13   16.00    1.13
  -2   7 -13   14.98    1.61
   4  -7  12   11.45    1.16
  -6   7 -11    2.47    0.55
   8  -7  10   13.33    1.30
  -8   7 -10   12.55    1.21
   3  -8  13    7.92    0.94
  -3   8 -13    7.75    1.29
   5  -8  12   -0.57    0.28
  -7   8 -11    0.29    0.38
  -1   7   8    3.92    0.53
   1  -7  -8    3.09    0.71
  -4   6  10    1.46    0.55
  -4   6  10    2.20    0.59
   4  -6 -10    0.65    0.42
  -2   6   9   14.59    1.04
   2  -6  -9   15.57    1.44
   0   6   8    2.90    0.47
   0  -6  -8    4.01    0.73
  -2  -6  -7   17.38    1.24
  -5   5  11    1.50    0.56
   5  -5 -11    0.81    0.43
  -3   5  10    0.50    0.41
   3  -5 -10    0.93    0.45
  -1   5   9    0.30    0.34
   1  -5  -9    0.21    0.36
   1   5   8   14.13    0.81
  -1  -5  -8   14.36    1.08
   3   5   7    3.95    0.94
  -3  -5  -7    5.79    0.87
  -4   4  11    2.25    0.67
   4  -4 -11    3.85    0.67
  -2   4  10    6.36    0.87
   2  -4 -10    5.66    0.85
   0   4   9    0.31    0.34
   0  -4  -9    0.62    0.43
   2   4   8   17.52    0.90
  -2  -4  -8   17.33    1.17
   4   4   7   -0.03    0.46
  -4  -4  -7    0.34    0.39
   5  -3 -12    0.19    0.31
  -3   3  11   11.64    1.18
  -3   3  11    9.59    1.08
   3  -3 -11   10.72    1.06
  -1   3  10   14.68    1.07
   1  -3 -10   15.62    1.34
   1   3   9    1.36    0.43
  -1  -3  -9    1.48    0.52
   3   3   8    1.80    0.39
  -3  -3  -8    1.72    0.50
   5   3   7    5.45    1.06
  -5  -3  -7    4.80    0.75
  -4   2  12    1.32    0.49
   4  -2 -12    1.18    0.39
  -2   2  11    8.97    1.00
  -2   2  11    6.96    0.94
   2  -2 -11    6.36    0.82
   0   2  10    3.39    0.63
   0  -2 -10    5.87    0.86
   2   2   9    2.38    0.52
  -2  -2  -9    1.86    0.52
   4   2   8    3.37    0.52
  -4  -2  -8    4.41    0.73
   6   2   7    5.26    1.05
  -6  -2  -7    5.45    0.80
  -5   1  13    1.35    0.50
  -3   1  12    4.87    0.73
   3  -1 -12    4.60    0.61
  -1   1  11   14.45    1.24
   1  -1 -11   13.93    1.00
   1   1  10   -0.03    0.29
  -1  -1 -10    0.43    0.38
   3   1   9    0.19    0.28
  -3  -1  -9    0.09    0.34
   5   1   8    2.10    0.43
  -5  -1  -8    1.74    0.53
   7   1   7   10.90    1.67
  -7  -1  -7    7.81    0.98
  -4   0  13    0.26    0.39
  -2   0  12    3.33    0.61
   2   0 -12    3.50    0.52
   0   0  11    2.50    0.59
   0   0 -11    4.32    0.69
   2   0  10    0.56    0.41
  -2   0 -10    0.87    0.41
   4   0   9    3.99    0.62
  -4   0  -9    4.71    0.78
   6   0   8   22.14    0.99
  -6   0  -8   19.31    1.25
  -8   0  -7    3.72    0.71
  -3  -1  13    3.25    0.64
   3   1 -13    3.68    0.88
  -1  -1  12    0.56    0.35
   1   1 -12    0.86    0.34
   1  -1  11    1.15    0.43
  -1   1 -11    0.99    0.40
   3  -1  10   -0.17    0.28
  -3   1 -10    0.34    0.34
   5  -1   9    1.05    0.38
  -5   1  -9    0.16    0.40
   7  -1   8    6.40    0.65
  -7   1  -8    6.62    0.92
  -2  -2  13    6.92    0.85
   2   2 -13    7.15    1.09
   0  -2  12    3.37    0.62
   0   2 -12    3.37    0.51
   2  -2  11   25.88    1.41
  -2   2 -11   24.21    1.28
   4  -2  10    0.06    0.33
  -4   2 -10    1.42    0.49
   6  -2   9    2.18    0.50
  -6   2  -9    1.90    0.60
   8  -2   8    1.59    0.39
  -8   2  -8    2.59    0.63
  -3  -3  14    0.37    0.38
   3   3 -14    0.96    0.61
  -1  -3  13    0.23    0.35
   1   3 -13    1.13    0.61
   1  -3  12    7.20    0.84
  -1   3 -12    7.51    0.71
   3  -3  11    4.68    0.79
  -3   3 -11    4.23    0.70
   5  -3  10    3.73    0.69
  -5   3 -10    3.57    0.70
   7  -3   9    1.53    0.51
  -7   3  -9    1.34    0.55
   9  -3   8    4.31    0.58
  -9   3  -8    6.39    1.06
  -2  -4  14    3.55    0.66
   2   4 -14    2.17    0.71
   0  -4  13    1.94    0.53
   0   4 -13    1.88    0.70
   2  -4  12   12.93    1.13
  -2   4 -12   11.49    0.77
   4  -4  11   12.82    1.25
  -4   4 -11   11.41    1.08
   6  -4  10    3.87    0.72
  -6   4 -10    3.64    0.71
   8  -4   9   19.16    1.21
  -8   4  -9   22.18    1.48
  -1  -5  14   17.82    1.18
   1   5 -14   14.81    1.59
   1  -5  13    2.00    0.52
  -1   5 -13    2.93    0.80
   3  -5  12    4.78    0.73
  -3   5 -12    3.90    0.53
   5  -5  11    0.37    0.39
  -5   5 -11    0.32    0.37
   7  -5  10   -0.02    0.36
  -7   5 -10    0.79    0.49
   9  -5   9    9.84    1.01
  -9   5  -9    8.01    1.14
   0  -6  14    8.46    0.95
   0   6 -14    7.93    1.22
   2  -6  13    1.45    0.47
  -2   6 -13    0.11    0.51
   4  -6  12    2.60    0.58
  -4   6 -12    2.60    0.47
   6  -6  11    8.05    1.04
  -6   6 -11    8.05    0.90
   8  -6  10    0.83    0.49
  -8   6 -10    0.91    0.51
   3  -7  13    0.32    0.35
   5  -7  12    4.14    0.77
  -5   7 -12    3.35    0.54
   7  -7  11   12.44    1.29
  -7   7 -11   11.41    1.13
   4  -8  13    1.72    0.57
  -6   8 -12   17.60    0.94
  -1   6   9    6.41    0.76
  -2   5  10    8.47    1.01
   2  -5 -10   10.85    1.19
   0   5   9   20.97    1.15
  -2  -5  -8    0.51    0.43
  -3   4  11    3.94    0.81
  -3   4  11    1.95    0.63
   3  -4 -11    3.64    0.72
   1  -4 -10   20.03    1.36
   1   4   9    5.58    0.72
  -3  -4  -8    4.86    0.80
   4  -3 -12    4.30    0.71
  -2   3  11    2.19    0.59
   2  -3 -11    1.64    0.49
   0   3  10   11.57    1.09
   0  -3 -10   13.57    1.30
   2   3   9    0.29    0.32
  -4  -3  -8    4.00    0.70
   3  -2 -12   13.28    0.97
  -1   2  11    0.52    0.42
   1  -2 -11    0.75    0.41
   1   2  10    0.41    0.37
  -1  -2 -10   -0.09    0.33
   3   2   9   16.82    1.03
  -3  -2  -9   17.86    1.17
  -5  -2  -8   -0.48    0.27
  -4   1  13    6.76    0.92
   2  -1 -12    7.81    0.86
   0   1  11    6.18    0.86
   0  -1 -11    4.91    0.76
   2   1  10   23.68    1.30
  -2  -1 -10   22.29    1.40
   4   1   9    7.53    0.81
  -4  -1  -9    7.01    0.87
  -6  -1  -8    2.65    0.62
  -3   0  13    2.55    0.60
  -1   0  12    6.85    0.85
   1   0 -12    5.72    0.76
   1   0  11    4.19    0.70
  -1   0 -11    3.71    0.66
   3   0  10   19.04    1.18
  -3   0 -10   16.20    1.21
   5   0   9    7.68    0.80
  -5   0  -9    8.55    1.52
  -7   0  -8    2.78    0.66
  -2  -1  13    0.10    0.33
   0  -1  12   -0.49    0.26
   0   1 -12    0.14    0.30
   2  -1  11    0.73    0.41
  -2   1 -11    1.37    0.48
   4  -1  10    3.17    0.61
  -4   1 -10    3.64    0.75
   6  -1   9    4.50    0.66
  -8   1  -8    0.72    0.47
  -3  -2  14    4.80    0.78
   3   2 -14    4.29    0.94
  -1  -2  13   12.41    1.13
   1  -2  12    0.90    0.42
  -1   2 -12    0.90    0.41
   3  -2  11    0.42    0.39
  -3   2 -11    0.05    0.32
   5  -2  10    5.02    0.76
  -5   2 -10    5.29    0.90
   7  -2   9    0.13    0.33
  -2  -3  14    6.14    0.85
   2   3 -14    5.58    1.03
   0  -3  13   19.62    1.23
   2  -3  12    0.35    0.34
  -2   3 -12   -0.35    0.27
   4  -3  11    0.76    0.45
  -4   3 -11    1.42    0.51
   6  -3  10    1.83    0.54
  -6   3 -10    1.95    0.60
   8  -3   9    0.28    0.37
  -1  -4  14    8.47    1.01
   1   4 -14    8.05    1.19
   1  -4  13    3.36    0.63
   3  -4  12    1.89    0.54
  -3   4 -12    2.44    0.55
   5  -4  11    5.47    0.86
  -5   4 -11    4.51    0.77
   7  -4  10    2.98    0.65
  -7   4 -10    5.33    0.89
   0  -5  14    6.91    0.90
   0   5 -14    5.58    1.06
   2  -5  13    0.25    0.35
  -4   5 -12    4.03    0.66
   6  -5  11   14.20    1.33
  -6   5 -11   12.81    1.25
   8  -5  10   10.17    1.11
  -8   5 -10   11.02    1.33
   1  -6  14    2.89    0.66
  -1   6 -14    2.57    0.78
   3  -6  13    0.85    0.42
  -5   6 -12    0.40    0.37
   7  -6  11    7.16    0.99
  -7   6 -11    7.14    0.96
   4  -7  13   12.18    1.22
  -6   7 -12    0.43    0.37
  -1   5  10   -0.27    0.31
   1  -5 -10    0.12    0.43
  -2   4  11    3.27    0.68
   2  -4 -11    3.80    0.78
   0   4  10    0.88    0.43
   0  -4 -10    1.50    0.58
   2   4   9    4.62    0.59
  -2  -4  -9    6.23    0.94
  -3   3  12    0.01    0.38
  -3   3  12   -0.01    0.39
   3  -3 -12    0.04    0.36
  -1   3  11    0.23    0.35
   1  -3 -11   -0.19    0.33
   1   3  10    0.77    0.41
  -1  -3 -10    1.13    0.54
   3   3   9   12.77    0.83
  -3  -3  -9   12.87    1.17
  -2   2  12   -0.18    0.38
   2  -2 -12    0.47    0.38
   0   2  11    6.12    0.87
   0  -2 -11    6.15    0.90
   2   2  10    0.59    0.41
  -2  -2 -10   -0.12    0.42
   4   2   9   25.13    1.13
  -4  -2  -9   23.85    1.42
  -3   1  13   -0.15    0.45
   3  -1 -13    0.15    0.30
  -1   1  12    5.83    0.88
   1  -1 -12    7.29    0.91
   1   1  11    9.61    1.06
  -1  -1 -11    7.89    0.97
   3   1  10    0.24    0.34
  -3  -1 -10   -0.25    0.38
   5   1   9    1.34    0.40
  -5  -1  -9    1.40    0.50
  -2   0  13    0.41    0.42
   2   0 -13    0.29    0.31
   0   0  12    7.44    0.93
   0   0 -12    6.95    0.87
  -2   0 -11    9.08    1.06
   4   0  10    7.12    0.86
  -4   0 -10    7.87    1.06
   6   0   9   -0.06    0.29
  -6   0  -9    0.24    0.45
  -1  -1  13    1.47    0.49
   1   1 -13    0.60    0.31
   1  -1  12    5.91    0.87
  -1   1 -12    6.67    0.88
   3  -1  11    0.43    0.41
  -3   1 -11    0.27    0.37
   5  -1  10    1.81    0.51
  -5   1 -10    3.31    0.73
   7  -1   9    6.98    0.74
  -2  -2  14    0.42    0.41
   0  -2  13    6.22    0.83
   0   2 -13    7.77    0.75
   2  -2  12    0.71    0.40
  -2   2 -12    0.32    0.36
   4  -2  11    5.87    0.86
  -4   2 -11    7.05    0.96
   6  -2  10    1.39    0.50
  -6   2 -10    3.45    0.78
  -1  -3  14    0.31    0.36
   1  -3  13    0.10    0.35
  -1   3 -13   -0.19    0.25
   3  -3  12    2.57    0.66
  -3   3 -12    1.69    0.49
   5  -3  11    1.75    0.59
  -5   3 -11    1.90    0.59
   7  -3  10    0.37    0.40
  -7   3 -10    0.90    0.51
   0  -4  14   -0.27    0.32
   2  -4  13   10.55    1.09
  -2   4 -13    7.35    0.69
   4  -4  12   10.27    1.13
  -4   4 -12   13.23    1.19
   6  -4  11    0.11    0.36
  -6   4 -11   -0.40    0.34
   1  -5  14   -0.20    0.32
   3  -5  13    4.56    0.74
  -3   5 -13    3.67    0.52
   5  -5  12    9.06    1.11
  -5   5 -12   10.92    1.08
   7  -5  11    0.15    0.45
  -7   5 -11   -0.08    0.40
   4  -6  13    4.50    0.80
  -4   6 -13    5.42    0.62
   6  -6  12    1.68    0.62
  -6   6 -12    1.56    0.55
   0   3  11   10.85    1.10
   0  -3 -11   12.29    1.29
   2   3  10   11.22    0.98
  -1   2  12    1.61    0.59
   1  -2 -12    2.53    0.66
   1   2  11   11.50    1.10
  -1  -2 -11   15.93    1.44
   3   2  10    0.88    0.40
   2  -1 -13    2.47    0.56
   0   1  12    0.42    0.42
   0  -1 -12    0.02    0.35
   2   1  11   16.30    1.17
  -2  -1 -11   11.09    1.19
   4   1  10    0.59    0.39
   1   0 -13   20.73    1.18
   1   0  12    1.38    0.54
  -1   0 -12    1.41    0.52
   3   0  11   -0.01    0.35
  -3   0 -11    0.02    0.42
   5   0  10    0.81    0.41
   0   1 -13    6.76    0.80
   2  -1  12    0.58    0.45
  -2   1 -12    2.41    0.64
   4  -1  11    7.77    0.95
  -4   1 -11    7.04    0.98
   6  -1  10    2.14    0.54
  -1   2 -13    0.66    0.40
   3  -2  12   24.06    1.47
  -3   2 -12   24.36    1.43
   5  -2  11   17.33    1.25
  -5   2 -11   18.42    1.61
  -2   3 -13    2.70    0.59
   4  -3  12    1.60    0.60
  -4   3 -12    3.07    0.67
   6  -3  11   13.19    1.23
  -6   3 -11   13.71    1.39
  -3   4 -13    0.23    0.36
   5  -4  12    0.28    0.45
  -5   4 -12   -0.15    0.38
  -4   5 -13    1.03    0.45
   1   1  12    0.11    0.34
  -1  -1 -12    0.08    0.40
   3   1  11    2.00    0.55
  -3  -1 -11    0.44    0.49
   2   0  12    3.37    0.74
  -2   0 -12    2.51    0.69
   1  -1  13    5.15    0.89
  -1   1 -13    2.80    0.62
   3  -1  12    2.06    0.60
  -3   1 -12    1.94    0.57
   2  -2  13   14.10    1.43
  -2   2 -13   11.91    1.14
   4  -2  12    0.21    0.41
  -4   2 -12   -0.52    0.33
   3  -3  13    0.09    0.45
  -3   3 -13    0.56    0.42
   0   0   0    0.00    0.00
;
_shelx_hkl_checksum              25161
_olex2_submission_special_instructions 'No special instructions were received'
loop_
_space_group_symop_operation_xyz
'x, y, z'
'-x, -y, -z'
loop_
_atom_site_label
_atom_site_type_symbol
_atom_site_fract_x
_atom_site_fract_y
_atom_site_fract_z
_atom_site_U_iso_or_equiv
_atom_site_adp_type
_atom_site_occupancy
_atom_site_site_symmetry_order
_atom_site_calc_flag
_atom_site_refinement_flags_posn
_atom_site_refinement_flags_adp
_atom_site_refinement_flags_occupancy
_atom_site_disorder_assembly
_atom_site_disorder_group
Br1 Br 0.36775(2) 0.27440(2) 0.29064(2) 0.01957(6) Uani 1 1 d . . . . .
P1 P 1.03184(5) 0.91186(5) 0.29050(5) 0.01065(10) Uani 1 1 d . . . . .
O1 O 0.96490(15) 0.95082(15) 0.17457(13) 0.0142(3) Uani 1 1 d . . . . .
O2 O 1.10196(15) 0.82278(15) 0.19575(13) 0.0127(3) Uani 1 1 d . . . . .
O3 O 1.14302(14) 1.05231(15) 0.41817(13) 0.0135(3) Uani 1 1 d . . . . .
N1 N 0.88782(18) 0.78002(18) 0.32705(17) 0.0131(3) Uani 1 1 d . . . . .
C10 C 0.4950(2) 0.3241(2) 0.0669(2) 0.0183(4) Uani 1 1 d . . . . .
H10 H 0.406621 0.220285 0.010049 0.022 Uiso 1 1 calc R U . . .
C11 C 0.6075(2) 0.4113(2) 0.0110(2) 0.0187(4) Uani 1 1 d . . . . .
H11 H 0.595484 0.366315 -0.085913 0.022 Uiso 1 1 calc R U . . .
C12 C 0.7377(2) 0.5629(2) 0.09304(19) 0.0159(4) Uani 1 1 d . . . . .
H12 H 0.813158 0.620985 0.052526 0.019 Uiso 1 1 calc R U . . .
C7 C 0.7563(2) 0.6288(2) 0.23543(18) 0.0122(3) Uani 1 1 d . . . . .
C1 C 0.8939(2) 1.0428(2) 0.19806(19) 0.0129(3) Uani 1 1 d . . . . .
C2 C 0.8494(2) 1.0836(2) 0.3176(2) 0.0189(4) Uani 1 1 d . . . . .
H2 H 0.867119 1.051270 0.389720 0.023 Uiso 1 1 calc R U . . .
C3 C 0.7779(3) 1.1733(3) 0.3298(2) 0.0233(4) Uani 1 1 d . . . . .
H3 H 0.747575 1.203601 0.411581 0.028 Uiso 1 1 calc R U . . .
C4 C 0.7507(3) 1.2185(3) 0.2241(2) 0.0238(4) Uani 1 1 d . . . . .
H4 H 0.701784 1.279591 0.233222 0.029 Uiso 1 1 calc R U . . .
C16 C 1.3482(2) 0.6506(2) 0.3576(2) 0.0204(4) Uani 1 1 d . . . . .
H16 H 1.404411 0.611560 0.394890 0.025 Uiso 1 1 calc R U . . .
C15 C 1.4272(2) 0.8065(2) 0.3628(2) 0.0205(4) Uani 1 1 d . . . . .
H15 H 1.537464 0.873156 0.402678 0.025 Uiso 1 1 calc R U . . .
C14 C 1.3458(2) 0.8658(2) 0.31012(19) 0.0174(4) Uani 1 1 d . . . . .
H14 H 1.399098 0.972344 0.313203 0.021 Uiso 1 1 calc R U . . .
C13 C 1.1850(2) 0.7652(2) 0.25305(18) 0.0133(3) Uani 1 1 d . . . . .
C9 C 0.5155(2) 0.3933(2) 0.2088(2) 0.0145(4) Uani 1 1 d . . . . .
C8 C 0.6439(2) 0.5436(2) 0.29398(19) 0.0140(4) Uani 1 1 d . . . . .
H8 H 0.655350 0.588016 0.390787 0.017 Uiso 1 1 calc R U . . .
C5 C 0.7950(2) 1.1746(3) 0.1049(2) 0.0217(4) Uani 1 1 d . . . . .
H5 H 0.775382 1.204786 0.031834 0.026 Uiso 1 1 calc R U . . .
C6 C 0.8678(2) 1.0867(2) 0.09145(19) 0.0164(4) Uani 1 1 d . . . . .
H6 H 0.899068 1.057211 0.010055 0.020 Uiso 1 1 calc R U . . .
C18 C 1.1047(2) 0.6093(2) 0.2453(2) 0.0203(4) Uani 1 1 d . . . . .
H18 H 0.994513 0.542270 0.204706 0.024 Uiso 1 1 calc R U . . .
C17 C 1.1881(3) 0.5521(3) 0.2982(2) 0.0233(4) Uani 1 1 d . . . . .
H17 H 1.134801 0.444865 0.293433 0.028 Uiso 1 1 calc R U . . .
H1 H 0.881(3) 0.816(3) 0.403(3) 0.023(6) Uiso 1 1 d . . . . .
loop_
_atom_site_aniso_label
_atom_site_aniso_U_11
_atom_site_aniso_U_22
_atom_site_aniso_U_33
_atom_site_aniso_U_23
_atom_site_aniso_U_13
_atom_site_aniso_U_12
Br1 0.01553(10) 0.01388(10) 0.02533(11) 0.00842(8) 0.00819(8) 0.00401(7)
P1 0.0118(2) 0.0106(2) 0.0106(2) 0.00483(17) 0.00487(17) 0.00598(17)
O1 0.0192(7) 0.0171(6) 0.0129(6) 0.0073(5) 0.0074(5) 0.0132(5)
O2 0.0153(6) 0.0148(6) 0.0127(6) 0.0063(5) 0.0062(5) 0.0104(5)
O3 0.0132(6) 0.0124(6) 0.0131(6) 0.0045(5) 0.0057(5) 0.0053(5)
N1 0.0132(7) 0.0116(7) 0.0107(7) 0.0035(6) 0.0054(6) 0.0039(6)
C10 0.0149(9) 0.0125(9) 0.0206(10) 0.0039(7) -0.0001(7) 0.0046(7)
C11 0.0203(10) 0.0187(9) 0.0129(9) 0.0031(7) 0.0021(7) 0.0096(8)
C12 0.0144(9) 0.0168(9) 0.0156(9) 0.0066(7) 0.0048(7) 0.0073(7)
C7 0.0103(8) 0.0110(8) 0.0151(9) 0.0053(7) 0.0030(7) 0.0054(7)
C1 0.0123(8) 0.0121(8) 0.0152(9) 0.0046(7) 0.0047(7) 0.0074(7)
C2 0.0251(10) 0.0261(10) 0.0153(9) 0.0107(8) 0.0091(8) 0.0184(9)
C3 0.0291(11) 0.0311(11) 0.0209(10) 0.0110(9) 0.0130(9) 0.0225(10)
C4 0.0290(11) 0.0287(11) 0.0277(11) 0.0129(9) 0.0111(9) 0.0238(10)
C16 0.0264(10) 0.0264(10) 0.0172(9) 0.0069(8) 0.0063(8) 0.0212(9)
C15 0.0176(9) 0.0234(10) 0.0161(9) 0.0017(8) 0.0018(7) 0.0118(8)
C14 0.0174(9) 0.0151(9) 0.0165(9) 0.0032(7) 0.0048(7) 0.0080(8)
C13 0.0161(9) 0.0155(9) 0.0118(8) 0.0052(7) 0.0057(7) 0.0107(7)
C9 0.0111(8) 0.0135(8) 0.0222(9) 0.0097(7) 0.0061(7) 0.0070(7)
C8 0.0136(8) 0.0136(8) 0.0151(9) 0.0055(7) 0.0046(7) 0.0074(7)
C5 0.0259(11) 0.0255(10) 0.0221(10) 0.0130(8) 0.0078(8) 0.0172(9)
C6 0.0188(9) 0.0174(9) 0.0151(9) 0.0066(7) 0.0062(7) 0.0108(8)
C18 0.0159(9) 0.0177(9) 0.0290(11) 0.0103(8) 0.0067(8) 0.0093(8)
C17 0.0258(11) 0.0201(10) 0.0304(11) 0.0127(9) 0.0088(9) 0.0150(9)
loop_
_atom_type_symbol
_atom_type_description
_atom_type_scat_dispersion_real
_atom_type_scat_dispersion_imag
_atom_type_scat_source
C C 0.0033 0.0016 'International Tables Vol C Tables 4.2.6.8 and 6.1.1.4'
H H 0.0000 0.0000 'International Tables Vol C Tables 4.2.6.8 and 6.1.1.4'
Br Br -0.2901 2.4595 'International Tables Vol C Tables 4.2.6.8 and 6.1.1.4'
N N 0.0061 0.0033 'International Tables Vol C Tables 4.2.6.8 and 6.1.1.4'
O O 0.0106 0.0060 'International Tables Vol C Tables 4.2.6.8 and 6.1.1.4'
P P 0.1023 0.0942 'International Tables Vol C Tables 4.2.6.8 and 6.1.1.4'
loop_
_geom_angle_atom_site_label_1
_geom_angle_atom_site_label_2
_geom_angle_atom_site_label_3
_geom_angle
_geom_angle_site_symmetry_1
_geom_angle_site_symmetry_3
_geom_angle_publ_flag
O1 P1 N1 109.84(8) . . ?
O2 P1 O1 95.64(7) . . ?
O2 P1 N1 108.37(8) . . ?
O3 P1 O1 115.40(7) . . ?
O3 P1 O2 116.24(7) . . ?
O3 P1 N1 110.39(8) . . ?
C1 O1 P1 124.04(11) . . ?
C13 O2 P1 119.61(11) . . ?
P1 N1 H1 113.6(18) . . ?
C7 N1 P1 128.84(13) . . ?
C7 N1 H1 115.8(18) . . ?
C11 C10 H10 121.1 . . ?
C11 C10 C9 117.83(17) . . ?
C9 C10 H10 121.1 . . ?
C10 C11 H11 119.2 . . ?
C10 C11 C12 121.66(18) . . ?
C12 C11 H11 119.2 . . ?
C11 C12 H12 120.3 . . ?
C11 C12 C7 119.35(18) . . ?
C7 C12 H12 120.3 . . ?
C12 C7 N1 122.95(16) . . ?
C12 C7 C8 120.01(17) . . ?
C8 C7 N1 117.03(16) . . ?
C2 C1 O1 122.93(17) . . ?
C6 C1 O1 115.18(16) . . ?
C6 C1 C2 121.87(17) . . ?
C1 C2 H2 120.8 . . ?
C1 C2 C3 118.39(18) . . ?
C3 C2 H2 120.8 . . ?
C2 C3 H3 119.7 . . ?
C4 C3 C2 120.66(19) . . ?
C4 C3 H3 119.7 . . ?
C3 C4 H4 120.1 . . ?
C3 C4 C5 119.74(19) . . ?
C5 C4 H4 120.1 . . ?
C15 C16 H16 119.9 . . ?
C17 C16 H16 119.9 . . ?
C17 C16 C15 120.16(19) . . ?
C16 C15 H15 119.8 . . ?
C16 C15 C14 120.44(19) . . ?
C14 C15 H15 119.8 . . ?
C15 C14 H14 120.9 . . ?
C13 C14 C15 118.16(18) . . ?
C13 C14 H14 120.9 . . ?
C14 C13 O2 118.59(16) . . ?
C18 C13 O2 119.09(16) . . ?
C18 C13 C14 122.27(18) . . ?
C10 C9 Br1 119.11(14) . . ?
C8 C9 Br1 118.64(14) . . ?
C8 C9 C10 122.18(17) . . ?
C7 C8 H8 120.5 . . ?
C9 C8 C7 118.97(17) . . ?
C9 C8 H8 120.5 . . ?
C4 C5 H5 119.8 . . ?
C4 C5 C6 120.46(19) . . ?
C6 C5 H5 119.8 . . ?
C1 C6 C5 118.87(18) . . ?
C1 C6 H6 120.6 . . ?
C5 C6 H6 120.6 . . ?
C13 C18 H18 120.7 . . ?
C13 C18 C17 118.69(18) . . ?
C17 C18 H18 120.7 . . ?
C16 C17 C18 120.26(19) . . ?
C16 C17 H17 119.9 . . ?
C18 C17 H17 119.9 . . ?
loop_
_geom_bond_atom_site_label_1
_geom_bond_atom_site_label_2
_geom_bond_distance
_geom_bond_site_symmetry_2
_geom_bond_publ_flag
Br1 C9 1.8994(18) . ?
P1 O1 1.5825(13) . ?
P1 O2 1.5793(13) . ?
P1 O3 1.4676(13) . ?
P1 N1 1.6282(16) . ?
O1 C1 1.406(2) . ?
O2 C13 1.414(2) . ?
N1 C7 1.416(2) . ?
N1 H1 0.80(2) . ?
C10 H10 0.9500 . ?
C10 C11 1.385(3) . ?
C10 C9 1.390(3) . ?
C11 H11 0.9500 . ?
C11 C12 1.390(3) . ?
C12 H12 0.9500 . ?
C12 C7 1.394(3) . ?
C7 C8 1.396(2) . ?
C1 C2 1.383(3) . ?
C1 C6 1.377(3) . ?
C2 H2 0.9500 . ?
C2 C3 1.393(3) . ?
C3 H3 0.9500 . ?
C3 C4 1.380(3) . ?
C4 H4 0.9500 . ?
C4 C5 1.384(3) . ?
C16 H16 0.9500 . ?
C16 C15 1.387(3) . ?
C16 C17 1.382(3) . ?
C15 H15 0.9500 . ?
C15 C14 1.393(3) . ?
C14 H14 0.9500 . ?
C14 C13 1.385(3) . ?
C13 C18 1.379(3) . ?
C9 C8 1.384(2) . ?
C8 H8 0.9500 . ?
C5 H5 0.9500 . ?
C5 C6 1.387(3) . ?
C6 H6 0.9500 . ?
C18 H18 0.9500 . ?
C18 C17 1.391(3) . ?
C17 H17 0.9500 . ?
loop_
_geom_torsion_atom_site_label_1
_geom_torsion_atom_site_label_2
_geom_torsion_atom_site_label_3
_geom_torsion_atom_site_label_4
_geom_torsion
_geom_torsion_site_symmetry_1
_geom_torsion_site_symmetry_2
_geom_torsion_site_symmetry_3
_geom_torsion_site_symmetry_4
_geom_torsion_publ_flag
Br1 C9 C8 C7 177.35(13) . . . . ?
P1 O1 C1 C2 -12.3(2) . . . . ?
P1 O1 C1 C6 169.28(13) . . . . ?
P1 O2 C13 C14 -91.04(18) . . . . ?
P1 O2 C13 C18 91.54(18) . . . . ?
P1 N1 C7 C12 5.4(3) . . . . ?
P1 N1 C7 C8 -175.83(14) . . . . ?
O1 P1 O2 C13 177.60(13) . . . . ?
O1 P1 N1 C7 51.57(18) . . . . ?
O1 C1 C2 C3 -179.11(18) . . . . ?
O1 C1 C6 C5 178.59(17) . . . . ?
O2 P1 O1 C1 -175.51(13) . . . . ?
O2 P1 N1 C7 -51.72(18) . . . . ?
O2 C13 C18 C17 178.07(17) . . . . ?
O3 P1 O1 C1 -52.92(16) . . . . ?
O3 P1 O2 C13 55.65(15) . . . . ?
O3 P1 N1 C7 179.93(15) . . . . ?
N1 P1 O1 C1 72.64(15) . . . . ?
N1 P1 O2 C13 -69.31(14) . . . . ?
N1 C7 C8 C9 -178.35(16) . . . . ?
C10 C11 C12 C7 0.4(3) . . . . ?
C10 C9 C8 C7 0.3(3) . . . . ?
C11 C10 C9 Br1 -177.72(14) . . . . ?
C11 C10 C9 C8 -0.7(3) . . . . ?
C11 C12 C7 N1 177.93(17) . . . . ?
C11 C12 C7 C8 -0.8(3) . . . . ?
C12 C7 C8 C9 0.5(3) . . . . ?
C1 C2 C3 C4 0.7(3) . . . . ?
C2 C1 C6 C5 0.1(3) . . . . ?
C2 C3 C4 C5 -0.1(3) . . . . ?
C3 C4 C5 C6 -0.6(3) . . . . ?
C4 C5 C6 C1 0.6(3) . . . . ?
C16 C15 C14 C13 0.1(3) . . . . ?
C15 C16 C17 C18 -1.0(3) . . . . ?
C15 C14 C13 O2 -178.26(16) . . . . ?
C15 C14 C13 C18 -0.9(3) . . . . ?
C14 C13 C18 C17 0.7(3) . . . . ?
C13 C18 C17 C16 0.3(3) . . . . ?
C9 C10 C11 C12 0.3(3) . . . . ?
C6 C1 C2 C3 -0.8(3) . . . . ?
C17 C16 C15 C14 0.8(3) . . . . ?

_cod_database_fobs_code 2108934
