#------------------------------------------------------------------------------
#$Date: 2022-01-01 06:19:30 +0200 (Sat, 01 Jan 2022) $
#$Revision: 271667 $
#$URL: file:///home/coder/svn-repositories/cod/cif/2/10/89/2108911.cif $
#------------------------------------------------------------------------------
#
# This file is available in the Crystallography Open Database (COD),
# http://www.crystallography.net/. The original data for this entry
# were provided by IUCr Journals, http://journals.iucr.org/.
#
# The file may be used within the scientific community so long as
# proper attribution is given to the journal article from which the
# data were obtained.
#
data_2108911
loop_
_publ_author_name
'Rejnhardt, Piotr'
'Drozd, Marek'
'Daszkiewicz, Marek'
_publ_section_title
;
 Low-temperature phase transition and high-pressure phase stability of
 1<i>H</i>-pyrazole-1-carboxamidine nitrate
;
_journal_issue                   6
_journal_name_full               'Acta Crystallographica Section B'
_journal_page_first              996
_journal_page_last               1002
_journal_paper_doi               10.1107/S2052520621010970
_journal_volume                  77
_journal_year                    2021
_chemical_formula_moiety         'C4 H7 N4, N O3'
_chemical_formula_sum            'C4 H7 N5 O3'
_chemical_formula_weight         173.15
_space_group_crystal_system      monoclinic
_space_group_IT_number           14
_space_group_name_Hall           '-P 2ybc'
_space_group_name_H-M_alt        'P 1 21/c 1'
_atom_sites_solution_hydrogens   geom
_atom_sites_solution_primary     direct
_audit_creation_date             2021-05-04
_audit_creation_method
;
Olex2 1.2
(compiled 2018.05.29 svn.r3508 for OlexSys, GUI svn.r5506)
;
_cell_angle_alpha                90
_cell_angle_beta                 99.11(2)
_cell_angle_gamma                90
_cell_formula_units_Z            4
_cell_length_a                   5.0993(14)
_cell_length_b                   10.252(8)
_cell_length_c                   13.845(3)
_cell_measurement_reflns_used    457
_cell_measurement_temperature    293(2)
_cell_measurement_theta_max      19.2600
_cell_measurement_theta_min      2.9780
_cell_volume                     714.7(6)
_computing_cell_refinement       'CrysAlisPro 1.171.39.46 (Rigaku OD, 2018)'
_computing_data_collection       'CrysAlisPro 1.171.39.46 (Rigaku OD, 2018)'
_computing_data_reduction        'CrysAlisPro 1.171.39.46 (Rigaku OD, 2018)'
_computing_molecular_graphics    'Olex2 (Dolomanov et al., 2009)'
_computing_publication_material  'Olex2 (Dolomanov et al., 2009)'
_computing_structure_refinement  'ShelXL (Sheldrick, 2015)'
_computing_structure_solution    'ShelXS (Sheldrick, 2008)'
_diffrn_ambient_temperature      293(2)
_diffrn_detector                 'CCD plate'
_diffrn_detector_area_resol_mean 8.2214
_diffrn_detector_type            'Sapphire2, large Be window'
_diffrn_measured_fraction_theta_full 0.410
_diffrn_measured_fraction_theta_max 0.410
_diffrn_measurement_details
;
List of Runs (angles in degrees, time in seconds):

  # Type    Start    End  Width  t~exp~   \w     \q     \k     \f   Frames
--------------------------------------------------------------------------
  1  \w    -20.00  32.00   0.50   40.00    --   25.00   0.00   0.00  104
  2  \w    -20.00  36.00   0.50   40.00    --   25.00   0.00 180.00  112
  3  \w     -3.00  47.00   0.50   40.00    --   25.00 -40.00-170.00  100
  4  \w     -3.00  47.00   0.50   40.00    --   25.00 -40.00  10.00  100
  5  \w      8.00  65.00   0.50   40.00    --   25.00 -82.00  30.00  114
  6  \w      8.00  65.00   0.50   40.00    --   25.00 -82.00-150.00  114
  7  \w     32.50  89.00   0.50   40.00    --   25.00-135.00-122.00  113
  8  \w     32.00  89.00   0.50   40.00    --   25.00-135.00  58.00  114
  9  \w     25.00  47.00   0.50   40.00    --  -25.00-135.00  58.00   44
 10  \w     25.00  47.00   0.50   40.00    --  -25.00-135.00-122.00   44
 11  \w      0.00  23.00   0.50   40.00    --  -25.00 -82.00-150.00   46
 12  \w      0.00  23.00   0.50   40.00    --  -25.00 -82.00  30.00   46
 13  \w    -19.00  17.00   0.50   40.00    --  -25.00 -40.00  10.00   72
 14  \w    -19.00  17.00   0.50   40.00    --  -25.00 -40.00-170.00   72
 15  \w    -33.00  22.00   0.50   40.00    --  -25.00   0.00 180.00  110
 16  \w    -33.00  22.00   0.50   40.00    --  -25.00   0.00   0.00  110
;
_diffrn_measurement_device       'four-circle diffractometer'
_diffrn_measurement_device_type  'Xcalibur, Sapphire2, large Be window'
_diffrn_measurement_method       '\w scans'
_diffrn_orient_matrix_type
'CrysAlisPro convention (1999,Acta A55,543-557)'
_diffrn_orient_matrix_UB_11      0.0623681000
_diffrn_orient_matrix_UB_12      -0.0608795000
_diffrn_orient_matrix_UB_13      -0.0044288000
_diffrn_orient_matrix_UB_21      0.0009251000
_diffrn_orient_matrix_UB_22      -0.0123865000
_diffrn_orient_matrix_UB_23      0.0504891000
_diffrn_orient_matrix_UB_31      -0.1263844000
_diffrn_orient_matrix_UB_32      -0.0304423000
_diffrn_orient_matrix_UB_33      -0.0111163000
_diffrn_radiation_monochromator  graphite
_diffrn_radiation_probe          x-ray
_diffrn_radiation_type           MoK\a
_diffrn_radiation_wavelength     0.71073
_diffrn_reflns_av_R_equivalents  0.0515
_diffrn_reflns_av_unetI/netI     0.0304
_diffrn_reflns_Laue_measured_fraction_full 0.410
_diffrn_reflns_Laue_measured_fraction_max 0.410
_diffrn_reflns_limit_h_max       5
_diffrn_reflns_limit_h_min       -5
_diffrn_reflns_limit_k_max       6
_diffrn_reflns_limit_k_min       -6
_diffrn_reflns_limit_l_max       16
_diffrn_reflns_limit_l_min       -16
_diffrn_reflns_number            3803
_diffrn_reflns_point_group_measured_fraction_full 0.410
_diffrn_reflns_point_group_measured_fraction_max 0.410
_diffrn_reflns_theta_full        25.040
_diffrn_reflns_theta_max         25.040
_diffrn_reflns_theta_min         2.980
_diffrn_source                   'fine-focus sealed X-ray tube'
_diffrn_source_type              'Enhance (Mo) X-ray Source'
_exptl_absorpt_coefficient_mu    0.138
_exptl_absorpt_correction_T_max  1.00000
_exptl_absorpt_correction_T_min  0.36099
_exptl_absorpt_correction_type   multi-scan
_exptl_absorpt_process_details
;
CrysAlisPro 1.171.39.46 (Rigaku Oxford Diffraction, 2018)
Empirical absorption correction using spherical harmonics,
 implemented in SCALE3 ABSPACK scaling algorithm.
;
_exptl_crystal_colour            colourless
_exptl_crystal_density_diffrn    1.609
_exptl_crystal_description       prism
_exptl_crystal_F_000             360
_refine_diff_density_max         0.144
_refine_diff_density_min         -0.124
_refine_diff_density_rms         0.037
_refine_ls_extinction_method     none
_refine_ls_goodness_of_fit_ref   1.087
_refine_ls_hydrogen_treatment    constr
_refine_ls_matrix_type           full
_refine_ls_number_parameters     109
_refine_ls_number_reflns         516
_refine_ls_number_restraints     6
_refine_ls_restrained_S_all      1.086
_refine_ls_R_factor_all          0.1027
_refine_ls_R_factor_gt           0.0503
_refine_ls_shift/su_max          0.000
_refine_ls_shift/su_mean         0.000
_refine_ls_structure_factor_coef Fsqd
_refine_ls_weighting_details
'w=1/[\s^2^(Fo^2^)+(0.0810P)^2^+0.4842P] where P=(Fo^2^+2Fc^2^)/3'
_refine_ls_weighting_scheme      calc
_refine_ls_wR_factor_gt          0.1288
_refine_ls_wR_factor_ref         0.1647
_reflns_Friedel_coverage         0.000
_reflns_number_gt                309
_reflns_number_total             516
_reflns_threshold_expression     'I > 2\s(I)'
_cod_data_source_file            xk5086sup1.cif
_cod_data_source_block           0.28GPa
_cod_original_cell_volume        714.6(6)
_cod_database_code               2108911
_shelx_shelxl_version_number     2018/3
_chemical_oxdiff_formula         C4N4NO3H7
_shelx_space_group_comment
;
The symmetry employed for this shelxl refinement is uniquely defined
by the following loop, which should always be used as a source of
symmetry information in preference to the above space-group names.
They are only intended as comments.
;
_reflns_odcompleteness_completeness 40.76
_reflns_odcompleteness_iscentric 1
_reflns_odcompleteness_theta     24.99
_olex2_refinement_description
;
1. Fixed Uiso
 At 1.2 times of:
  All C(H) groups, All N(H,H) groups
2. Uiso/Uaniso restraints and constraints
Uanis(C1) \\sim Ueq: with sigma of 0.01 and sigma for terminal atoms of 0.02
3.a Aromatic/amide H refined with riding coordinates:
 C1(H1), C2(H2), C3(H3)
3.b X=CH2 refined with riding coordinates:
 N3(H3A,H3B), N4(H4A,H4B)
;
_shelx_res_file
;
TITL monoclinic in P21/c #14
    monoclinic.res
    created by SHELXL-2018/3 at 16:29:36 on 04-May-2021
REM reset to P21/c #14
CELL 0.71073 5.099329 10.251924 13.844522 90 99.1114 90
ZERR 4 0.001397 0.007954 0.003267 0 0.0204 0
LATT 1
SYMM -X,0.5+Y,0.5-Z
SFAC C H N O
UNIT 16 28 20 12
ISOR 0.01 0.02 C1

L.S. 99
PLAN  20
BOND
htab
fmap 2 53
acta
OMIT -3 2 7
OMIT -1 3 9
OMIT -1 2 16
OMIT 2 4 7
REM <olex2.extras>
REM <HklSrc "%.\\monoclinic.hkl">
REM </olex2.extras>

WGHT    0.081000    0.484200
FVAR       2.01468
C1    1    0.108690    0.786946    0.538987    11.00000    0.05050    0.06065 =
         0.07229   -0.00252   -0.00073    0.01617
AFIX  43
H1    2   -0.042950    0.825867    0.504837    11.00000   -1.20000
AFIX   0
C2    1    0.326915    0.859019    0.586734    11.00000    0.06076    0.05353 =
         0.06381    0.00332    0.00643   -0.00112
AFIX  43
H2    2    0.348969    0.949081    0.588558    11.00000   -1.20000
AFIX   0
C3    1    0.492144    0.769256    0.628117    11.00000    0.04855    0.05967 =
         0.06029    0.00071    0.00263   -0.01201
AFIX  43
H3    2    0.656783    0.785196    0.665791    11.00000   -1.20000
AFIX   0
C4    1    0.474985    0.520293    0.628941    11.00000    0.03698    0.06674 =
         0.05446    0.00734    0.00941    0.00219
N1    3    0.381449    0.647146    0.606551    11.00000    0.03325    0.04876 =
         0.06283   -0.01098    0.00612   -0.01016
N2    3    0.138183    0.661756    0.546914    11.00000    0.04202    0.04756 =
         0.06938   -0.00217   -0.00934    0.00459
N3    3    0.336308    0.423830    0.591506    11.00000    0.04893    0.06257 =
         0.08138   -0.00159   -0.01402    0.00077
AFIX  93
H3A   2    0.393695    0.345506    0.602543    11.00000   -1.20000
H3B   2    0.185523    0.437189    0.555258    11.00000   -1.20000
AFIX   0
N4    3    0.706392    0.508088    0.684883    11.00000    0.05087    0.04782 =
         0.07420   -0.00627   -0.01402   -0.00012
AFIX  93
H4A   2    0.772735    0.431844    0.698181    11.00000   -1.20000
H4B   2    0.791860    0.576327    0.708286    11.00000   -1.20000
AFIX   0
N5    3    0.250882    0.644501    0.824910    11.00000    0.03791    0.10439 =
         0.06216    0.00244    0.00204    0.00282
O1    4    0.483466    0.673451    0.857939    11.00000    0.04072    0.05571 =
         0.09253   -0.00689   -0.00827   -0.00770
O2    4    0.163732    0.536519    0.824167    11.00000    0.06365    0.12143 =
         0.13305    0.00738   -0.01895   -0.02507
O3    4    0.088393    0.736325    0.793550    11.00000    0.04672    0.08595 =
         0.08343    0.01117    0.00065    0.00532
HKLF 4




REM  monoclinic in P21/c #14
REM wR2 = 0.1647, GooF = S = 1.087, Restrained GooF = 1.086 for all data
REM R1 = 0.0503 for 309 Fo > 4sig(Fo) and 0.1027 for all 516 data
REM 109 parameters refined using 6 restraints

END

WGHT      0.0813      0.4796

REM Instructions for potential hydrogen bonds
EQIV $1 -x+1, y+1/2, -z+3/2
HTAB C2 O1_$1
EQIV $2 x+1, y, z
HTAB C3 O3_$2
EQIV $3 -x+1, y-1/2, -z+3/2
HTAB N3 O1_$3
EQIV $4 -x, -y+1, -z+1
HTAB N3 N2_$4
HTAB N4 O3_$3
HTAB N4 O2_$2
HTAB N4 O3_$2

REM Highest difference peak  0.144,  deepest hole -0.124,  1-sigma level  0.037
Q1    1  -0.0680  0.6697  0.7597  11.00000  0.05    0.14
Q2    1   0.2341  0.6048  0.7405  11.00000  0.05    0.14
Q3    1   0.5554  0.8010  0.7400  11.00000  0.05    0.13
Q4    1   0.5926  0.4309  0.7593  11.00000  0.05    0.12
Q5    1   0.4151  0.5211  0.5153  11.00000  0.05    0.11
Q6    1   0.2827  0.4201  0.7545  11.00000  0.05    0.11
Q7    1   0.1577  0.7269  0.4276  11.00000  0.05    0.11
Q8    1   0.7263  0.3597  0.5929  11.00000  0.05    0.11
Q9    1   0.9101  0.4777  0.7850  11.00000  0.05    0.11
Q10   1   0.8653  0.8285  0.7490  11.00000  0.05    0.11
Q11   1   0.1236  0.8055  0.6606  11.00000  0.05    0.11
Q12   1   0.2844  0.9445  0.6687  11.00000  0.05    0.10
Q13   1   0.3202  0.3901  0.4842  11.00000  0.05    0.10
Q14   1  -0.0768  0.5131  0.7972  11.00000  0.05    0.10
Q15   1  -0.1161  0.7494  0.8001  11.00000  0.05    0.10
Q16   1   0.5153  0.5150  0.7385  11.00000  0.05    0.10
Q17   1  -0.0109  0.8512  0.7937  11.00000  0.05    0.10
Q18   1   0.6123  0.6648  0.8482  11.00000  0.05    0.09
Q19   1   0.3442  0.3818  0.6857  11.00000  0.05    0.09
Q20   1   0.1398  0.5272  0.9387  11.00000  0.05    0.09
;
_shelx_res_checksum              46239
_shelx_hkl_file
;
   0   0  -2 1108.77 37.4970  16
   0   0   2 1151.51 37.2836   1
   0   0  -2 1102.94 37.2949   2
   0   0   2 1162.96 37.3138  15
   0   0  -2 1090.70 38.1506   3
   0   0   2 1112.72 31.3535   6
   0   0  -2 1104.70 31.2715   6
   0   0   3 9.98236 8.61892   1
   0   0  -3-3.03240 7.19002   2
   0   0   3-7.76980 8.25750  15
   0   0   3-4.05890 6.18051  14
   0   0  -3-1.07207 6.28605  16
   0   0   3-12.7168 6.96980   4
   0   0  -3 7.38103 8.44448   3
   0   0  -3 2.44221 4.96871   6
   0   0  -4 22715.1 241.166  16
   0   0  -4 23116.9 207.236  13
   0   0  -4 22802.8 242.349   3
   0   0   4 23113.5 236.220  15
   0   0  -4 22942.8 239.864   2
   0   0   4 23262.5 258.686  14
   0   0   4 23313.4 209.489   4
   0   0  -4 22734.6 203.874   6
   0   0   4 22428.9 234.851   1
   0   0  -5 16.1309 11.0664  13
   0   0   5 13.3470 10.9742   4
   0   0   5 12.3322 13.1871   1
   0   0  -5-2.16065 10.9810   2
   0   0  -5-0.87382 10.1895  16
   0   0   5-12.2077 15.3343  14
   0   0  -5-0.71187 10.5827   6
   0   0   5 8.70519 12.6792  15
   0   0  -5 23.0411 13.6451   3
   0   0  -5-9.26287 6.54127  12
   0   0   6 901.318 49.3773  11
   0   0  -6 954.048 53.6986   6
   0   0   6 928.606 61.4769   1
   0   0   6 894.624 65.1639  14
   0   0  -6 842.698 32.8791  12
   0   0   6 803.932 30.5952  10
   0   0  -6 891.417 61.8572   3
   0   0   6 914.555 60.0286  15
   0   0   6 938.045 54.9441   4
   0   0  -6 867.930 51.0232  13
   0   0  -6 873.438 59.8917   2
   0   0  -6 984.519 64.3518  16
   0   0  -7-3.21766 8.85975  12
   0   0  -7-34.1892 18.8982  13
   0   0  -7-9.50663 18.9407  16
   0   0  -7-12.2905 20.7203   6
   0   0  -7-25.6561 20.4112   2
   0   0   7-16.5203 19.2844  14
   0   0   7-39.8546 21.0136  11
   0   0   7-47.8545 23.4214   4
   0   0   7-29.7924 22.6114  15
   0   0  -7-19.6458 21.1869   3
   0   0   7-19.6856 19.7418   1
   0   0  -8 816.591 69.2420  16
   0   0  -8 837.762 59.8090  13
   0   0  -8 791.790 67.0366   2
   0   0  -8 891.661 62.9318   6
   0   0   8 950.284 66.3287   4
   0   0   8 820.082 66.9559   1
   0   0  -8 801.988 71.2050   3
   0   0   8 839.592 67.5808  15
   0   0   8 819.106 71.0169  14
   0   0   8 852.280 58.2867  11
   0   0  -9 23.4715 25.7925   6
   0   0  -9-21.8998 25.1187   2
   0   0   9-20.3628 24.3763  15
   0   0   9-12.6162 20.7062  11
   0   0   9 11.6387 21.7135   4
   0   0   9-11.0337 21.0300  14
   0   0  -9-42.7997 28.6238  16
   0   0   9 30.6241 25.5375   1
   0   0  -9 50.9551 24.7802  13
   0   0  -9-4.34076 23.0972   3
   0   0 -10 172.099 39.4365   6
   0   0 -10 161.267 42.8024  16
   0   0  10 240.345 45.3746   4
   0   0  10 130.547 37.3523  15
   0   0  10 222.667 41.3055  11
   0   0 -10 210.758 45.5476   2
   0   0 -10 144.219 42.9879   3
   0   0  10 88.8832 33.6768  14
   0   0 -10 179.818 40.2352  13
   0   0  10 154.712 39.1548   1
   0   0 -11-7.61076 30.4072  16
   0   0  11-29.0725 36.0049  15
   0   0  11-28.0792 28.3518  14
   0   0 -11 21.2014 30.0938   2
   0   0 -11-18.3184 32.2526   3
   0   0 -11-1.36426 29.4739  13
   0   0 -11 40.0724 40.1354   6
   0   0  11 11.5391 35.1895   1
   0   0  11 58.6004 31.2054  11
   0   0 -12 143.295 48.2387   2
   0   0  12 76.6536 46.6747  15
   0   0  12 80.2792 50.1573   1
   0   0 -12 11.0770 40.4635  13
   0   0 -12 113.852 47.1002  16
   0   0 -12 149.168 53.7006   3
   0   0  12 107.539 43.1184  14
   0   0  12 200.581 47.6551  11
   0   0  13 6.86665 36.9784   1
   0   0  13-61.1354 37.8581  14
   0   0  13-9.27595 38.6816  15
   0   0 -13-1.88884 47.2619  13
   0   0 -13-84.3600 47.2758   2
   0   0 -13-27.6549 43.6790  16
   0   0 -13-111.705 54.2882   3
   0   0 -14 131.573 64.8045   2
   0   0 -14 105.423 58.5035  16
   0   0  14 82.0455 55.2732  14
   0   0  14 78.2440 57.3444  15
   0   0 -14-6.19805 59.6566   3
   0   0  14 63.1159 56.8118   1
   0   0 -15 4.11623 52.4550   3
   0   0  15 26.1361 53.9244  15
   0   0 -15-25.5532 56.8492  16
   0   0  15-40.4981 55.3585  14
   0   0 -15-0.15409 56.6217   2
   0   0  15 19.6846 49.9500   1
   0   0  16-17.3712 61.5897  15
   0   0 -16-69.9277 79.7511  16
   0   0  16 20.5588 57.8873   1
   0   0 -16-10.4297 65.1189   2
   0   0  16 46.0450 65.7494  14
   0  -1   2 255.850 21.8215  15
   0   1  -2 281.672 23.1837  16
   0   1  -2 298.185 24.6396  13
   0  -1   3 327.579 28.4655   1
   0   1  -3 374.446 30.1747  16
   0  -1   3 337.072 27.4888   4
   0  -1   3 348.515 29.2153  14
   0   1  -3 376.870 28.4613  13
   0   1  -3 354.418 28.4911   3
   0   1  -3 347.664 29.0520   2
   0  -1   3 345.407 28.6523  15
   0  -1   4 25083.4 241.330   4
   0   1  -4 25333.0 266.319  16
   0  -1  -4 24954.4 277.705  16
   0   1   4 25384.7 274.762   1
   0  -1   4 25342.7 261.176   1
   0  -1   4 24727.4 267.480  14
   0   1  -4 24617.2 256.316   3
   0  -1   4 24201.7 210.199   5
   0  -1  -4 25303.2 291.611   3
   0   1  -4 24805.8 266.641   2
   0  -1  -4 24524.1 302.967   2
   0  -1   4 25112.0 260.725  15
   0   1  -4 25711.2 247.114  13
   0   1   4 25134.2 262.216  15
   0   1  -4 25105.7 202.897   6
   0  -1   5 2209.41 87.0265  15
   0  -1   5 2140.51 88.1616  14
   0  -1  -5 2379.30 96.4017   2
   0   1   5 2081.70 81.8148  15
   0  -1   5 2153.46 77.5410   4
   0   1   5 2193.24 87.0638   1
   0   1  -5 2165.33 78.8905  13
   0   1  -5 2094.91 86.0647  16
   0  -1  -5 2101.29 86.5242  16
   0  -1   5 2160.60 85.6310   1
   0   1  -5 2112.33 86.7135   2
   0   1  -5 2011.93 82.2589   3
   0  -1  -5 2225.33 95.0075   3
   0  -1   5 1895.58 58.3330   5
   0   1  -5 2075.84 65.8474   6
   0   1  -6 182.078 27.5512  13
   0   1   6 160.436 27.7102   1
   0  -1  -6 121.363 20.3253   8
   0  -1   6 109.368 14.9843   5
   0  -1  -6 153.344 28.9133  16
   0  -1   6 168.518 29.3868   1
   0  -1  -6 172.223 31.6083   3
   0  -1   6 177.675 27.3859   4
   0  -1  -6 168.526 29.9038   2
   0  -1   6 145.283 28.3976  14
   0   1  -6 200.227 31.8357  16
   0   1   6 171.731 28.3620  15
   0  -1   6 199.012 32.0088  15
   0   1  -6 176.358 30.8663   3
   0   1  -6 214.069 33.6118   2
   0   1  -6 174.521 22.7207   6
   0   1  -7 299.340 41.4396   2
   0  -1   7 321.806 43.3926   1
   0   1  -7 284.148 40.4681  16
   0  -1  -7 320.429 27.2991   8
   0   1   7 275.228 38.1243   1
   0   1   7 251.401 35.6695  15
   0  -1  -7 268.828 39.8628  16
   0  -1   7 304.135 38.6430   4
   0   1  -7 280.318 40.3759   3
   0  -1   7 286.705 41.0036  15
   0  -1   7 319.864 43.6228  14
   0  -1   7 242.726 23.9922   5
   0   1  -7 291.116 37.3355  13
   0  -1  -7 309.004 44.4385   3
   0  -1  -7 306.494 42.2048   2
   0   1  -7 286.305 33.4032   6
   0   1  -8 43.0035 25.8971  16
   0   1  -8 41.9550 28.6931   2
   0   1  -8 38.3677 21.8174   6
   0   1   8 35.3204 24.3122  15
   0  -1  -8 96.7418 17.1850   8
   0  -1  -8 44.3354 26.3630  16
   0  -1   8 15.3867 23.9198  15
   0  -1  -8 23.8496 23.6637   2
   0   1   8 13.7744 20.2607   1
   0  -1   8 61.0552 28.7561   1
   0   1  -8 84.9219 31.2471   3
   0  -1   8 20.6452 12.7257   5
   0  -1   8 15.7138 20.6332  14
   0  -1   8-9.09970 19.8207   4
   0   1  -8 52.0839 23.6487  13
   0  -1  -8 25.6915 29.4735   3
   0   1  -9 407.287 55.2834   2
   0  -1  -9 499.098 32.3259   8
   0   1  -9 503.364 62.4455   3
   0   1  -9 467.716 48.1415   6
   0  -1  -9 437.765 50.0264  13
   0  -1   9 529.059 55.6564   4
   0  -1   9 482.369 60.4765  15
   0  -1  -9 501.687 62.7735   2
   0   1  -9 430.462 57.3630  16
   0   1   9 436.738 59.7432  14
   0  -1   9 470.330 61.3299   1
   0   1  -9 478.602 52.5796  13
   0  -1  -9 549.404 69.4033   3
   0  -1  -9 327.540 52.0048  16
   0  -1   9 492.669 63.9112  14
   0   1   9 420.592 54.4699  15
   0   1   9 454.465 57.9469   1
   0  -1  10 299.653 53.6040  15
   0  -1 -10 261.265 44.1012  13
   0  -1 -10 316.786 60.4883   3
   0  -1 -10 313.011 58.5980   2
   0   1 -10 332.072 57.8681   3
   0  -1  10 362.364 58.8220   1
   0  -1  10 357.238 60.0091  14
   0   1 -10 381.280 51.4558  13
   0  -1  10 293.724 45.9075   4
   0   1  10 277.249 55.9475  14
   0  -1 -10 375.504 60.6441  16
   0   1 -10 300.448 54.6717   2
   0   1  10 322.034 54.1784  15
   0   1 -10 305.696 54.4379  16
   0   1  10 344.076 58.8321   1
   0   1 -10 308.274 41.6764   6
   0   1 -11-21.1495 37.5199   3
   0   1 -11 15.4554 33.3582   2
   0   1  11 57.9470 39.8478   1
   0  -1  11-29.4775 37.8338  15
   0  -1  11-2.03232 33.2145   1
   0  -1 -11-72.8604 45.7280  16
   0   1 -11-9.29390 32.1629   6
   0  -1  11-0.93833 30.7913   4
   0  -1 -11 53.2408 42.8561   2
   0   1  11 3.42044 32.5318  11
   0   1  11 5.89554 35.3125  15
   0  -1 -11-9.75075 35.3093  13
   0   1 -11 47.5658 36.5611  13
   0   1 -11 1.60671 32.6903  16
   0  -1  11 26.4635 33.1878  14
   0   1  11-20.1146 34.0974  14
   0  -1 -11 66.6526 42.0628   3
   0   1 -12 38.7930 39.7850   2
   0  -1  12 13.0301 34.0790  14
   0   1  12 13.6842 44.5652  15
   0   1  12-15.7000 37.3360  14
   0  -1  12 4.88010 36.8443   1
   0   1  12 10.5599 37.8480   1
   0   1 -12 48.4745 41.3759  16
   0  -1 -12-62.2079 48.9102   3
   0   1 -12-40.3714 37.4349  13
   0  -1 -12 6.11670 46.2300  13
   0  -1  12-35.4312 35.8588   4
   0  -1 -12 40.4337 46.8258  16
   0   1 -12 0.18908 46.7099   3
   0  -1  12-16.2964 38.5946  15
   0   1  12 3.78534 37.0827  11
   0  -1 -12 9.18646 38.8681   2
   0   1  13 93.1538 64.6029  15
   0  -1  13 103.350 58.0882   1
   0   1 -13 48.0759 55.9488  13
   0  -1  13 74.3556 57.2593  15
   0  -1 -13 30.9142 53.9082  13
   0  -1  13 86.9049 49.4581   4
   0   1 -13 105.400 49.8159  16
   0  -1 -13 47.6593 56.3076   2
   0   1  13 32.4832 51.6394  14
   0  -1 -13 146.268 70.1974  16
   0   1 -13 56.6147 43.7570   2
   0   1  13 84.1909 69.5568   1
   0  -1  13 198.665 58.6769  14
   0   1 -13 44.7090 55.4470   3
   0   1  14 93.0710 78.2697  14
   0  -1  14-1.06535 43.7307   1
   0  -1  14-4.32471 40.9984  14
   0   1 -14 11.5526 57.0934   3
   0   1 -14-47.9969 47.1570  16
   0  -1  14 9.04528 45.2753  15
   0   1  14-5.33042 60.4064  15
   0  -1 -14 96.9357 80.4881  16
   0   1 -14 23.8351 45.1244   2
   0   1 -14-31.0657 51.0936  13
   0  -1  15 58.5215 56.1883  14
   0   1 -15-47.5498 57.7784   2
   0   1 -15-7.13300 53.8148   3
   0  -1  15-9.85593 51.7730  15
   0  -1  15-6.01941 54.6723   1
   0   1 -15-86.3283 59.7555  16
   0  -1  16-44.9763 54.1990  14
   0   1 -16-4.43671 62.4389   3
   0  -1  16 5.83652 62.1271  15
   0  -1  16-6.66686 61.7814   1
   0   1 -16-109.315 69.4769  16
   0   1 -16 96.1458 58.1468   2
   0   2  -4 528.567 47.6207   2
   0  -2   4 482.968 44.8579   1
   0  -2   5 3813.03 128.606  15
   0   2  -5 3860.02 130.492  16
   0   2  -5 3937.17 128.021   3
   0  -2   5 3699.08 127.792   1
   0   2  -5 3840.86 130.682   2
   0  -2   5 4052.34 129.878   4
   0   2  -5 3567.26 123.140  13
   0   2  -6 104.168 31.2785   3
   0  -2   6 128.695 34.4662  14
   0  -2   6 193.540 39.3463  15
   0   2  -6 118.422 28.8842   6
   0  -2   6 163.897 33.2642   5
   0   2  -6 138.725 32.9626  16
   0  -2   6 167.220 34.7513   4
   0  -2   6 161.229 37.4337   1
   0   2  -6 107.480 29.3323  13
   0   2  -6 133.151 33.6099   2
   0   2  -7 1415.10 69.5980   6
   0   2  -7 1548.43 89.0538  13
   0   2  -7 1367.05 87.4961  16
   0  -2   7 1373.20 85.9792   1
   0  -2   7 1427.72 93.7070  14
   0   2  -7 1486.92 88.8455   3
   0  -2   7 1514.05 83.7330   4
   0  -2   7 1461.74 89.7188  15
   0  -2   7 1276.18 67.6494   5
   0   2  -7 1412.93 89.3020   2
   0   2  -8 165.237 36.5837   3
   0   2  -8 146.851 35.2961  16
   0  -2   8 130.087 34.9027  14
   0   2  -8 217.284 40.7245  13
   0  -2   8 121.465 23.4915   5
   0  -2   8 90.5717 28.1054   4
   0   2  -8 164.589 31.0302   6
   0  -2   8 137.219 38.1978  15
   0   2  -8 113.708 32.9430   2
   0  -2   8 136.477 36.3753   1
   0   2  -9 297.189 50.9852   3
   0   2  -9 358.770 43.0017   6
   0  -2   9 370.059 58.2214   1
   0   2  -9 334.634 54.9769   2
   0  -2   9 348.712 56.1912  15
   0  -2   9 404.693 54.4965   4
   0   2  -9 296.757 47.7927  13
   0  -2   9 284.213 34.6057   5
   0   2  -9 270.058 49.6434  16
   0  -2   9 323.689 53.9760  14
   0  -2  10 157.143 48.0869  15
   0   2 -10 117.314 43.5423   2
   0  -2  10 122.765 36.9503   4
   0   2 -10 104.588 40.0609   3
   0   2 -10 117.832 41.8798  16
   0   2 -10 155.842 36.9895   6
   0  -2  10 106.987 43.1812   1
   0  -2  10 168.335 47.4308  14
   0   2 -10 92.1191 35.7988  13
   0  -2  11-14.9573 36.1414   4
   0   2 -11 32.3256 31.9635  13
   0   2 -11-92.7523 44.1725  16
   0  -2  11-51.6480 43.1701  15
   0   2 -11 3.08085 34.3686   3
   0  -2  11-90.8422 48.8604   1
   0  -2  11-43.5400 39.0163  14
   0   2 -11-10.5479 34.9905   2
   0  -2  12 228.469 63.2600  14
   0   2 -12 262.233 62.5924   2
   0   2 -12 201.309 59.9372  16
   0  -2  12 349.783 64.9296   4
   0  -2  12 151.576 59.0508  15
   0   2 -12 5.73878 56.9974   3
   0   2 -12 18.2657 56.0727  13
   0  -2  12 145.980 63.5257   1
   0   2 -13 0.11280 48.8423  16
   0  -2  13 152.724 61.4472  14
   0  -2  13 6.24694 46.6582  15
   0   2 -13 3.32673 48.2166   2
   0   2 -13 12.0978 40.4126  13
   0  -2  13 91.3334 61.0591   4
   0   2 -13 1.55081 47.5706   3
   0  -2  13 18.0189 79.6743   1
   0   2 -14 4.35977 56.9295   3
   0  -2  14 5.52702 55.6697  15
   0   2 -14 94.5895 57.1532  16
   0   2 -14-30.4740 47.2771   2
   0  -2  14 103.787 54.2124   4
   0  -2  14-2.60986 54.9757   1
   0  -2  14 127.912 62.7677  14
   0  -2  15 25.7338 57.8656  14
   0  -2  15 26.6752 72.3967  15
   0   2 -15 138.146 67.4619  16
   0  -2  15 11.6329 68.1867   1
   0   2 -15 17.4294 62.2709   3
   0   2 -15 27.6350 50.1846   2
   0   2 -16 57.9788 57.3052  16
   0  -2  16-45.3914 62.2213  14
   0  -2  16-9.05151 53.0838  15
   0  -2  16-3.51329 54.8787   1
   0  -3   8 391.342 54.8871   4
   0   3  -8 384.834 58.1560   3
   0   3  -8 449.177 63.7052   2
   0  -3   8 411.847 60.2351   1
   0   3  -9 15.0164 23.2802   6
   0   3  -9 54.7421 37.5719   2
   0  -3   9 31.6462 22.7789   5
   0  -3   9 50.8835 33.9630   1
   0  -3   9-48.3946 32.4209   4
   0   3  -9 131.943 47.6820   3
   0  -3  10 80.8718 44.4176  15
   0   3 -10 60.1082 40.2524   2
   0   3 -10 14.1771 24.2007   6
   0   3 -10 45.3975 34.5358  16
   0  -3  10-2.03325 32.7350   4
   0  -3  10-36.0307 39.0604   1
   0   3 -10 2.29984 32.3919   3
   0   3 -11-4.69586 38.3886   2
   0  -3  11 14.3292 41.8513   4
   0   3 -11 47.3225 37.9259  16
   0  -3  11-46.4201 45.0170   1
   0   3 -11 0.09361 36.1993   3
   0  -3  11-5.16747 42.1660  15
   0   3 -12 24.5057 37.8299  16
   0   3 -12 1.87683 41.2318   3
   0  -3  12 4.21204 50.3155   1
   0  -3  12 89.8462 52.2501   4
   0   3 -12 61.9542 47.1287   2
   0   3 -13-23.6650 51.0920   2
   0  -3  13-3.82531 61.9647   1
   0   3 -13-0.57448 41.2982   3
   0   3 -14-31.7344 58.2589   2
   0  -3  14 24.3130 62.8428   1
  -1   0  14 7.95677 53.5721   1
   1   0 -14-52.0042 58.8015   2
  -1   0  14 30.5105 69.8749  15
   1   0 -14-11.8810 80.8311  13
  -1   0  14-45.0486 60.6666  14
   1   0 -14 13.8269 74.6224  16
   1   0 -13-11.5226 43.5599   2
  -1   0  13-6.22888 43.2748  14
   1   0 -13-137.129 81.2133  16
  -1   0  13 15.1323 56.7634  15
  -1   0  13-2.37237 47.3149   1
   1   0 -13-64.3964 75.8749  13
  -1   0  12-1.20173 38.6878   1
   1   0 -12-2.00283 45.6264  13
   1   0 -12 19.6249 42.7068  16
   1   0 -12 84.2008 48.2205   2
  -1   0  12 5.38917 42.6363  15
  -1   0  12-20.9744 37.7425  14
   1   0 -11-31.2159 35.9403   2
   1   0 -11-2.86853 36.4204  16
   1   0 -11-2.33192 36.1622  13
  -1   0  11 16.9830 35.9517  15
  -1   0  11-10.7456 33.9033   1
  -1   0  11-3.70834 29.5746  14
   1   0 -11-13.1511 29.3297  12
  -1   0  10 274.907 52.0995  15
   1   0 -10 251.923 48.2695  13
  -1   0  10 229.461 48.0767   1
  -1   0  10 244.339 33.8712  11
   1   0 -10 147.738 42.3522  16
   1   0 -10 228.817 37.3187  12
   1   0 -10 295.036 53.5231   2
  -1   0  10 231.763 48.0376  14
   1   0  -9-0.61704 25.3988  16
  -1   0   9 17.6994 27.5617   4
   1   0  -9-6.74845 26.0513  13
  -1   0   9-5.11127 23.1784   1
  -1   0   9-6.75494 24.4231  15
  -1   0   9 37.5049 23.9815  14
   1   0  -9 13.0823 24.7215   2
  -1   0   8 7800.05 204.801  15
   1   0  -8 8309.84 219.416  16
  -1   0   8 7809.05 203.623   1
  -1   0   8 8773.95 220.775   4
   1   0  -8 8965.31 226.171   2
  -1   0   7-18.7286 19.1660  15
  -1   0   7-50.1285 24.9591   4
  -1   0   7-18.3914 20.5650   1
   1   0  -7-20.0369 22.6220   2
  -1   0   7-11.4778 12.1137   7
   1   0  -7-23.2203 22.7683  16
   1   0  -6 459.641 47.0154   2
  -1   0   6 454.709 45.0050  15
  -1   0   6 416.103 43.9906   4
  -1   0   6 411.744 42.9925   1
   1   0  -6 465.664 47.1717  16
  -1   0   5 13.9398 14.3281  15
  -1   0   5 13.5039 13.4392   1
   1   0  -5 7.80468 11.4129  16
  -1   0   5-7.98503 13.3711   4
   1   0  -5-20.6880 16.1117   2
   1   0  -4 169894. 748.119   2
  -1   0   4 169789. 731.926   4
   1   0  -4 170363. 709.285  16
  -1   0   4 169164. 696.192  15
  -1   0   3-17.2559 8.75153  15
  -1   0   3 4.71817 7.70186   5
   1   0  -3-5.47154 7.10320  16
  -1   0   3 15.4332 9.75303   4
  -1   0   2 37.6002 15.1637   5
  -1   0   0 7099.99 128.430   8
  -1   0   0 7335.91 133.063   7
   1   0   0 7881.54 136.200  10
   1   0   1 0.42684 8.13737  10
   1   0   1 15.9843 9.19613  11
  -1   0  -1 8.93265 10.7986   7
  -1   0  -1 22.6598 9.44389   6
  -1   0  -1 15.1516 8.61656   8
   1   0   2 109.790 17.5845  11
  -1   0  -2 101.691 17.1028   7
  -1   0  -2 107.660 19.1529   6
  -1   0  -2 95.2107 15.9331   8
   1   0   2 107.390 16.6101  10
   1   0   2 89.2588 17.4313  14
  -1   0  -2 105.826 18.3463   3
  -1   0  -3-5.52982 11.1315   6
  -1   0  -3 4.92456 9.32923   7
   1   0   3 9.23128 8.16081  10
  -1   0  -3-5.20714 8.00166   2
  -1   0  -3-0.62313 8.27389  16
   1   0   3-11.2918 10.5917  11
  -1   0  -3 1.57010 10.3346   3
  -1   0  -3-0.73079 8.07090   8
   1   0   3-4.93608 9.71544  15
   1   0   3 14.2723 10.4768  14
   1   0   3 11.1437 9.05924   1
  -1   0  -4 2398.96 84.0079  16
   1   0   4 2314.09 96.3505  14
  -1   0  -4 2357.84 76.0797   8
  -1   0  -4 2303.36 79.3933   2
  -1   0  -4 2262.64 87.3547   6
   1   0   4 2438.48 82.5165  10
   1   0   4 2373.19 82.2275  15
  -1   0  -4 2339.68 92.8695   3
   1   0   4 2205.07 50.1224   4
   1   0   4 2271.97 85.4975  11
  -1   0  -4 2310.66 75.6889   7
   1   0   4 2036.17 41.1553   5
   1   0   4 2237.05 76.4125   1
  -1   0  -5-23.0238 16.4749   8
   1   0   5-1.73154 13.8838  14
   1   0   5 12.1738 16.2610  15
  -1   0  -5 0.90842 13.0349  16
   1   0   5-11.2036 14.8766   1
   1   0   5-21.2316 15.8074  10
  -1   0  -5-4.03600 13.9970   2
   1   0   5-6.64352 11.1656   4
  -1   0  -5 9.83691 17.7955   6
   1   0   5-15.1961 18.1823  11
  -1   0  -5-8.71661 17.5145   3
  -1   0  -5 1.89285 11.7940   7
  -1   0  -6 3236.98 116.818  16
  -1   0  -6 3230.33 117.228   2
   1   0   6 3340.48 120.182  11
  -1   0  -6 3319.12 133.143   3
   1   0   6 3376.18 118.464  15
   1   0   6 3248.58 133.474  14
   1   0   6 3256.92 115.740   1
  -1   0  -6 3411.57 121.878   6
   1   0   6 3494.79 86.3874   4
  -1   0  -6 3484.02 100.257   7
   1   0   7 1.91546 15.6008   9
  -1   0  -7-11.7701 23.6555   3
   1   0   7-8.55701 16.1020   4
  -1   0  -7 23.1887 21.5315  16
  -1   0  -7-7.36253 14.8209  13
  -1   0  -7-0.19973 18.9491   2
   1   0   7 3.71286 19.4493  15
   1   0   7-34.6187 24.1432   1
  -1   0  -7-12.4791 23.0923   6
   1   0   7 17.4760 22.5486  14
  -1   0  -7-2.89402 14.4967   7
   1   0   7-11.4835 21.6095  11
   1   0   8 1053.90 79.0924  11
   1   0   8 1118.37 81.2463   1
  -1   0  -8 947.068 76.0392  16
   1   0   8 1028.95 88.1952  14
  -1   0  -8 1010.18 64.0969  13
  -1   0  -8 1057.39 60.2726   7
   1   0   8 1155.63 63.1486   9
  -1   0  -8 1027.54 79.2431   6
  -1   0  -8 1012.01 85.9223   3
   1   0   8 1003.46 63.0795   4
  -1   0  -8 971.751 77.0022   2
   1   0   8 1055.85 79.6012  15
   1   0   9-8.02705 24.1578   4
  -1   0  -9-24.2479 28.2614   2
  -1   0  -9 39.4612 22.7604   7
   1   0   9-19.7752 29.1704  11
  -1   0  -9-24.8646 23.6773  13
   1   0   9 35.8175 32.1256   1
  -1   0  -9-25.9922 33.3407   3
  -1   0  -9-1.86965 27.8532   6
   1   0   9 8.89636 28.3184  15
  -1   0  -9 44.0043 31.7133  16
   1   0   9-19.4453 28.1186  14
  -1   0 -10 634.950 71.7334   6
   1   0  10 693.579 76.5117   1
   1   0  10 884.043 91.1313   4
  -1   0 -10 593.154 70.9858   2
  -1   0 -10 626.932 79.3439   3
  -1   0 -10 544.858 58.5253  13
  -1   0 -10 633.518 74.6767  16
   1   0  10 580.585 71.9101  15
   1   0  10 627.810 73.6058  11
   1   0  10 654.209 81.1243  14
   1   0  11-13.3677 34.9153   1
  -1   0 -11 22.1607 37.2940  16
   1   0  11 5.29057 39.7300  15
  -1   0 -11-38.0328 34.3651   2
   1   0  11-14.5316 35.1097  14
  -1   0 -11-51.0012 39.5830   3
  -1   0 -11-73.6799 40.8307   6
   1   0  11-15.5452 34.2314  11
   1   0  12-5.84839 36.5126   1
  -1   0 -12-7.52329 41.4422   2
  -1   0 -12-24.0973 39.9590  16
   1   0  12 52.5693 39.8118  14
   1   0  12-60.6912 46.6543  15
  -1   0 -12 29.6538 42.2319   3
  -1   0 -12 12.9321 38.1480   6
   1   0  12-67.7319 48.4398  11
   1   0  13 6.78366 45.5108  15
   1   0  13-13.6666 43.3129   1
   1   0  13 3.10596 35.8008  14
  -1   0 -13-48.9474 50.3037   6
  -1   0 -13 41.6415 51.7672  16
  -1   0 -13-48.6804 42.6616   2
  -1   0 -13-126.370 57.5763   3
   1   0  14 61.5851 62.3843  15
  -1   0 -14 57.4456 52.8439   3
   1   0  14 93.3546 56.4993  14
  -1   0 -14 50.7492 46.1957   2
   1   0  14 16.3041 47.2116   1
  -1   0 -14 80.8044 56.4728  16
   1   0  15-1.01795 51.2949   1
   1   0  15-14.6768 58.8331  15
  -1   0 -15 0.91182 50.3519   3
   1   0  15 3.81217 48.1666  14
  -1   0 -15-97.9751 72.4888  16
  -1   0 -15 33.0866 54.6458   2
   1   1 -16 7.41693 89.3115  13
   1   1 -16-136.658 77.6700   2
  -1  -1  16-130.044 64.7931  14
  -1  -1  16-0.16481 77.4306   1
   1   1 -16 18.3886 79.5097  16
  -1  -1  16 3.41517 67.2450  15
  -1  -1  15 39.5754 72.3932  15
  -1  -1  15 24.8085 46.0995  14
   1   1 -15-8.65495 58.4558  16
   1   1 -15-56.7743 66.1537  13
  -1  -1  15 31.8573 62.2054   1
   1   1 -15 78.1975 61.4599   2
   1   1 -14 33.6854 48.0120   2
  -1  -1  14 35.0766 39.9223  14
  -1  -1  14 78.6973 64.2539  15
   1   1 -14 113.087 59.4014  16
  -1  -1  14 34.0828 56.8062   1
   1   1 -14 35.4061 59.9270  13
  -1  -1  13 15.9401 53.1600   1
   1   1 -13 103.127 55.6331   2
   1   1 -13 42.4894 41.1337   3
   1   1 -13-1.60180 46.0000  13
  -1  -1  13 71.5222 43.0125  14
   1   1 -13 87.8497 47.1378  16
  -1  -1  13 6.97218 44.9810  15
  -1  -1  13 135.985 53.9751   4
  -1  -1  12-56.3355 42.3518  14
   1   1 -12 11.5578 35.1295  16
  -1  -1  12-23.5483 44.6918  15
   1   1 -12 5.08956 34.5772   3
   1   1 -12-2.10423 38.4298  13
  -1  -1  12 29.6336 44.0541   1
   1   1 -12-0.46453 35.2975   2
  -1  -1  12 31.1463 37.8707   4
   1   1 -11-0.24509 30.9626   2
   1   1 -11 117.151 38.4948  12
  -1  -1  11 95.4045 42.6551   4
   1   1 -11 0.50064 33.0628  13
  -1  -1  11-21.7491 35.0368  15
  -1  -1  11 4.41735 32.0293   1
   1   1 -11 8.23203 39.5007   3
   1   1 -11 43.7540 37.8439  16
  -1  -1  11-10.0049 29.3437  14
   1   1 -10 57.8729 31.2478   3
  -1  -1  10 2.64508 29.5710  15
  -1  -1  10 72.6385 33.6447  14
   1   1 -10 78.7000 36.3650  13
   1   1 -10 5.52295 28.4936  16
  -1  -1  10-26.3358 29.8803   4
  -1  -1  10 36.1320 31.5571   1
   1   1 -10 50.4510 25.5634  12
   1   1 -10 80.2388 37.4344   2
  -1  -1   9 98.3538 35.5514   5
  -1  -1   9 56.7208 32.0462  15
   1   1  -9 68.1761 29.6202   2
   1   1  -9 75.6683 31.8445  16
   1   1  -9 22.7828 19.2474  12
   1   1  -9 87.5256 31.4973  13
   1   1  -9 101.569 34.7551   3
  -1  -1   9 46.0747 28.5172   1
  -1  -1   9 36.3712 25.2945   4
  -1  -1   9 54.6679 28.4978  14
   1   1  -8 4839.63 165.648  16
   1   1  -8 4663.67 154.004  13
  -1  -1   8 4288.68 152.250  14
  -1  -1   8 4646.41 150.198   5
   1   1  -8 4819.81 153.631   3
  -1  -1   8 4569.44 159.547  15
  -1  -1   8 5025.64 163.873   4
   1   1  -8 4505.55 158.259   2
  -1  -1   8 4531.65 155.318   1
   1   1  -8 4417.41 131.483  12
   1   1  -7 11.7236 18.5513  16
   1   1  -7 7.81855 20.5303  13
   1   1  -7 32.9910 17.0913  12
  -1  -1   7 48.4721 21.7756   4
   1   1  -7 7.54831 17.9944   2
  -1  -1   7 6.40390 14.8406   5
   1   1  -7 19.7780 18.1616   3
  -1  -1   7 13.8242 15.4967  14
  -1  -1   7 3.83306 19.8177  15
  -1  -1   7 28.6478 19.7948   1
   1   1  -6 26.6851 14.0738   3
   1   1  -6 30.2467 9.21790   9
  -1  -1   6 25.7954 14.2836   5
  -1  -1   6 27.3696 15.3650  14
   1   1  -6 47.9278 18.5529  13
  -1  -1   6 35.4779 19.7295  15
   1   1  -6 27.9603 18.0882   2
   1   1  -6 38.4008 20.0725  16
  -1  -1   6 29.9224 8.18206   7
   1   1  -6 45.2544 16.0285  12
  -1  -1   6 16.6510 16.2284   1
  -1  -1   6 40.3599 19.8571   4
   1   1  -5 49.2643 14.1246   3
   1   1  -5 53.0256 17.4378   2
  -1  -1   5 46.6381 9.64847   7
  -1  -1   5 46.4304 17.2313   1
  -1  -1   5 22.7236 14.5231  15
   1   1  -5 57.0807 19.3646  13
  -1  -1   5 34.2551 16.7581   4
   1   1  -5 32.3648 8.58307   9
  -1  -1   5 50.0370 16.7727   5
   1   1  -5 45.4526 16.7618  16
  -1  -1   5 68.5201 17.0122  14
  -1  -1   4 3021.11 90.3282   1
   1   1  -4 3001.09 73.7316   3
  -1  -1   4 3017.25 92.8711   5
  -1  -1   4 2997.89 67.7640   8
  -1  -1   4 2960.53 88.6107  15
  -1  -1   4 2849.22 73.8714  14
   1   1  -4 2987.78 90.5511  16
   1   1  -4 2870.49 92.4963  13
  -1  -1   4 2892.38 68.1034   7
  -1  -1   4 2991.52 96.6108   4
   1   1  -4 2974.34 89.9948   2
   1   1  -3 8565.93 131.773  16
  -1  -1   3 8155.38 96.7140  14
   1   1  -3 8523.80 132.057   2
  -1  -1   3 8226.84 120.053   7
  -1  -1   3 8794.87 150.311   5
   1   1  -3 8243.00 113.013   3
  -1  -1   3 8554.09 131.780   1
   1   1  -3 8177.18 143.843  13
  -1  -1   3 8233.05 127.177  15
  -1  -1   3 8328.59 113.514   8
  -1  -1   3 8286.09 146.492   4
  -1  -1   2 961.850 36.8547   1
  -1  -1   2 933.689 47.6915   5
  -1  -1   2 892.834 34.6282  15
  -1  -1   2 930.543 45.1024   4
  -1  -1   2 942.690 27.6775   6
   1   1  -2 948.551 44.3175  13
   1   1  -2 972.024 27.5041  11
  -1  -1   2 959.803 43.2471   7
   1   1  -2 951.065 36.4258  16
  -1  -1   2 941.029 40.1637   8
   1   1  -2 997.224 37.5039   2
  -1  -1   1 58.8161 12.1019   8
  -1  -1   1 71.6005 13.9664   5
  -1  -1   1 62.6094 12.1589   4
   1   1  -1 73.6243 11.8872  13
  -1  -1   1 73.6126 13.1723   7
  -1  -1   1 70.5310 8.26553   2
   1   1  -1 66.7203 9.61278  11
  -1  -1   1 75.1997 10.7451   6
  -1  -1   1 68.0945 8.09107  15
   1   1  -1 71.6946 7.57603   2
   1   1  -1 52.1614 7.19971   1
   1   1  -1 71.3881 8.06426  16
  -1  -1   1 76.1436 8.48486   1
  -1  -1   0 24839.8 228.290   7
   1   1   0 24420.5 152.840   3
   1   1   0 24582.0 156.766  14
  -1  -1   0 24372.1 215.075   8
  -1  -1   0 24315.2 215.966   5
  -1  -1   0 24443.4 146.341   3
  -1  -1   0 24339.8 200.059   6
   1   1   0 24450.8 162.105  13
  -1  -1   0 24264.8 162.720   4
  -1  -1  -1 6413.43 116.274   8
  -1  -1  -1 6635.00 101.058   3
  -1  -1  -1 6799.18 109.955   5
   1   1   1 6651.60 106.991  14
   1   1   1 6359.09 103.980  12
  -1  -1  -1 6647.13 118.254   6
   1   1   2 389.173 21.0642  15
  -1  -1  -2 351.121 24.4757   5
  -1  -1  -2 362.227 29.6633   3
   1   1   2 374.510 31.1218  14
   1   1   2 377.040 25.0935  12
  -1  -1  -2 389.474 21.1549  16
  -1  -1  -2 401.229 33.0157   7
  -1  -1  -2 358.760 31.8175   6
  -1  -1  -2 388.742 21.4511   2
  -1  -1  -2 359.091 29.5725   8
   1   1   2 384.971 20.5168   1
   1   1   3-11.1318 8.21266  15
   1   1   3 0.69584 6.97416   1
  -1  -1  -3 2.80341 10.5359   6
  -1  -1  -3-12.1342 12.3584   7
  -1  -1  -3-2.04027 10.9216   3
  -1  -1  -3-7.57614 6.92216   5
   1   1   3-5.56280 8.39857  14
  -1  -1  -3-8.42405 8.57667   2
   1   1   3 13.8024 11.0321   9
   1   1   3-2.41818 5.78034  12
  -1  -1  -3-2.30661 7.08076  16
  -1  -1  -3-5.50359 9.15392   8
  -1  -1  -4 1493.54 33.0379  13
  -1  -1  -4 1738.68 71.7192   7
   1   1   4 1771.66 83.5125  14
  -1   1  -4 1355.01 76.6666   6
  -1  -1  -4 1668.39 77.5097   3
   1   1   4 1654.60 61.7426   1
  -1   1  -4 1628.11 92.4549   3
  -1  -1  -4 1599.96 63.3079  16
   1  -1   4 1417.28 79.1647   1
  -1  -1  -4 1495.00 39.5360   5
   1  -1   4 1698.27 96.3863  14
  -1  -1  -4 1632.91 76.8146   6
   1   1   4 1743.42 68.4156   9
  -1   1  -4 1588.57 87.2138   2
  -1  -1  -4 1669.49 65.7958   8
   1   1   4 1711.60 64.1077  15
  -1  -1  -4 1619.76 63.3129   2
  -1  -1  -5 334.081 34.5268   7
  -1   1  -5 316.365 40.3424   2
  -1  -1  -5 259.054 18.9116  13
  -1   1  -5 323.755 43.3858   3
  -1  -1  -5 272.207 35.5246   6
   1   1   5 281.136 31.0605   1
   1   1   5 271.111 30.7575  15
   1   1   5 279.820 34.5068  11
  -1  -1  -5 282.259 31.5987  16
  -1  -1  -5 238.000 35.2407   3
   1  -1   5 314.497 43.8789  14
   1  -1   5 286.698 39.0486   1
   1   1   5 290.320 40.0921  14
  -1   1  -5 326.922 40.5271   6
  -1  -1  -5 289.026 29.7326   8
  -1  -1  -5 309.849 32.5955   2
   1   1   5 303.888 31.4825   9
   1  -1   5 308.172 32.4214   4
  -1  -1  -6 306.582 31.4313   8
   1   1   6 309.009 39.7463  11
   1   1   6 318.901 37.6844  15
   1   1   6 291.336 43.2463  14
  -1  -1  -6 304.443 34.3887   7
  -1  -1  -6 321.505 43.4291   3
  -1   1  -6 349.663 43.3154   6
   1   1   6 314.240 36.5076   1
   1  -1   6 385.806 47.6448  15
  -1   1  -6 337.365 48.4675   3
   1   1   6 296.888 32.3947  10
   1   1   6 341.958 36.6308   9
   1  -1   6 288.545 44.1664  14
  -1   1  -6 317.919 43.0000  16
  -1   1  -6 384.614 35.5370   7
  -1  -1  -6 265.879 22.4128  13
  -1  -1  -6 335.390 43.1103   6
  -1  -1  -6 320.073 37.7903   2
   1  -1   6 327.054 32.1061   4
  -1  -1  -6 318.414 37.8815  16
   1  -1   6 350.489 42.5854   1
  -1   1  -6 302.275 41.3723   2
   1   1   7-21.7688 16.4134  10
   1   1   7-29.6869 23.9089  15
  -1  -1  -7-15.1688 21.7034   6
   1  -1   7 24.3482 17.6597   4
  -1   1  -7 16.9755 15.2433   7
   1  -1   7-28.5957 24.2285  14
   1  -1   7 18.9612 22.8301   1
  -1  -1  -7 20.1476 20.1391  16
  -1  -1  -7-0.94023 21.3364   3
  -1  -1  -7 1.45140 16.3897   7
   1   1   7 48.8405 24.8697  11
   1  -1   7 6.08322 23.3721  15
  -1  -1  -7-20.4938 14.1826  13
  -1   1  -7 35.4773 27.9655   3
  -1   1  -7 1.03745 19.9914   2
  -1  -1  -7-15.1201 17.7074   2
   1   1   7-0.70645 17.5095   9
   1   1   7 0.39151 18.6789   1
   1  -1   7 26.3021 9.36453   5
  -1   1  -7 9.71846 22.8591  16
  -1   1  -7 5.82459 21.8995   6
   1   1   7 17.7918 21.8478  14
  -1  -1  -7 21.4226 17.0870   8
   1   1   8 314.250 43.8117   1
  -1  -1  -8 309.404 32.5643  13
   1   1   8 332.553 47.1400  11
   1   1   8 352.831 38.2910  10
  -1   1  -8 323.103 51.5896  16
   1   1   8 305.959 52.0169  14
   1  -1   8 307.869 54.0257  14
  -1   1  -8 374.777 58.8123   3
  -1   1  -8 369.050 50.2069   6
   1   1   8 365.750 49.6591  15
  -1  -1  -8 299.586 47.8486   6
  -1  -1  -8 290.497 48.9901   3
   1  -1   8 310.011 49.0596   1
  -1  -1  -8 351.187 37.9236   8
  -1   1  -8 329.080 50.2410   2
  -1  -1  -8 339.358 47.8464  16
   1  -1   8 363.911 53.2267  15
  -1  -1  -8 318.193 45.6604   2
   1  -1   8 364.639 41.0651   4
  -1   1  -8 345.741 34.5219   7
   1   1   9 228.298 42.3096   1
   1  -1   9 569.544 76.6128  14
  -1  -1  -9 214.413 43.4494   2
   1   1   9 239.169 51.0740  14
  -1  -1  -9 212.509 45.4820   6
  -1  -1  -9 193.117 31.7235  13
   1   1   9 195.177 33.9480  10
   1  -1   9 451.623 72.8700  15
   1   1   9 234.281 45.7507  15
   1   1   9 196.393 40.3287  11
  -1  -1  -9 196.956 45.7130   3
  -1  -1  -9 269.380 35.2763   8
  -1  -1  -9 208.829 43.4392  16
   1  -1   9 368.713 48.3183   4
   1  -1   9 322.036 57.1407   1
  -1  -1 -10-28.8396 34.1483   6
   1   1  10 67.5751 41.1297  15
  -1  -1 -10-2.39374 25.2980  13
  -1   1 -10-1.23604 32.7148   3
  -1   1 -10 69.1018 39.8931   6
  -1   1 -10 26.6194 34.3747   2
  -1  -1 -10 7.63152 32.3473  16
   1  -1  10 76.1301 45.6003   1
   1   1  10 6.53507 27.5541  11
  -1  -1 -10 12.8303 31.4316   3
   1  -1  10-32.6998 38.5530  15
   1  -1  10 49.7049 37.3102  14
   1   1  10 44.0675 34.7058  14
   1  -1  10 33.9469 27.0187   4
   1   1  10 62.2574 36.5127   1
  -1  -1 -10 70.1362 34.9890   2
  -1   1 -10 43.9084 36.2205  16
  -1   1 -11 11.4013 34.1194  16
  -1  -1 -11 75.6977 40.2989   2
   1   1  11-18.8848 35.3240   1
  -1  -1 -11-35.8206 37.8802  16
  -1  -1 -11-29.5664 43.9408   6
  -1  -1 -11-54.6586 43.3739   3
  -1   1 -11-28.7577 35.1138   2
   1  -1  11-49.6729 44.4800  15
   1  -1  11 78.0671 46.2818  14
   1   1  11 26.3329 33.6910  14
  -1   1 -11-19.1112 41.5612   3
   1  -1  11 44.8734 41.0730   1
  -1   1 -11 1.13984 32.5777   6
   1   1  11-48.9387 36.1732  11
   1   1  11 4.77233 40.1241  15
  -1   1 -12 192.633 59.3811  16
  -1   1 -12 137.432 49.3647   6
  -1  -1 -12 191.315 58.3353   2
   1   1  12 60.4840 46.1314  15
   1   1  12 193.537 58.3389  14
  -1  -1 -12 133.190 54.0915  16
  -1  -1 -12 192.211 61.6437   3
   1  -1  12 126.259 53.1107  14
   1  -1  12 26.9034 59.4146  15
  -1   1 -12 102.679 50.9180   2
   1   1  12 197.999 54.2101   1
  -1   1 -12 107.814 51.1928   3
   1  -1  12 23.4560 52.9730   1
   1   1  12 95.2043 46.2898  11
  -1  -1 -12 303.410 72.2971   6
  -1  -1 -13-30.3444 49.3008   6
   1   1  13 18.5042 47.8081  15
   1   1  13-12.2019 39.5022  14
  -1  -1 -13 31.7087 58.7319  16
  -1   1 -13 47.3938 49.5008  16
  -1  -1 -13-5.54446 43.4498   2
   1   1  13 14.6457 45.0267  11
   1   1  13 1.21925 42.0018   1
  -1   1 -13-15.8061 39.5354   6
   1  -1  13 11.0735 45.2186   1
  -1   1 -13-34.5181 47.4073   2
   1  -1  13-8.46494 47.6203  15
  -1  -1 -13 17.0072 45.8493   3
  -1   1 -13-53.9194 47.9199   3
   1  -1  13-28.4824 42.5565  14
   1   1  14 10.3778 54.3614  15
   1  -1  14-27.5498 52.3740  14
  -1  -1 -14 149.419 67.6994   3
  -1   1 -14 94.9160 57.5591   2
  -1   1 -14 22.1289 56.0325   3
  -1  -1 -14 73.8719 69.8920  16
   1  -1  14-15.2724 53.1864  15
   1  -1  14-26.4366 50.5229   1
   1   1  14-7.99283 48.1394   1
  -1  -1 -14-34.1517 58.1134   2
   1   1  14 80.7494 55.4620  14
  -1   1 -14 41.8215 53.6196  16
  -1  -1 -15 40.9553 54.8976   2
  -1   1 -15-7.54219 50.0711   2
   1  -1  15-1.88848 71.3213  15
  -1   1 -15-2.48955 64.1584   3
   1   1  15-31.0872 70.8427  15
   1   1  15 5.07294 51.3297  14
  -1  -1 -15-26.9607 80.3635   3
   1  -1  15 33.8693 60.5635   1
  -1   1 -15-54.5599 53.3432  16
   1  -1  15-11.6258 47.9526  14
  -1  -1 -15-74.4684 80.9156  16
  -1  -2  16 421.137 117.196  14
  -1  -2  15 38.9340 52.6793  14
  -1  -2  15 100.023 76.2295   4
  -1  -2  14-59.3157 52.2294   4
   1   2 -14 25.3940 46.6749   2
   1   2 -14-3.87503 48.5275  16
   1   2 -14-7.33603 53.9173  13
   1   2 -14-22.9494 51.8786   3
  -1  -2  14 41.9152 40.0271  14
  -1  -2  14-16.5881 51.4343   1
  -1  -2  14-6.03570 57.3689  15
  -1  -2  13-1.86148 37.3492  14
   1   2 -13-81.8891 51.0777  16
   1   2 -13 50.2146 51.8172   3
  -1  -2  13 14.7263 48.6860   1
  -1  -2  13-4.78731 50.4072  15
   1   2 -13 94.0589 51.0364   2
   1   2 -13 18.4120 44.8119  13
  -1  -2  13 47.4562 45.4934   4
  -1  -2  12-19.2160 41.4330   1
  -1  -2  12-1.90756 39.8989  15
   1   2 -12-72.1152 47.3117   2
   1   2 -12 12.4093 34.5090  13
   1   2 -12-17.0507 37.5711   3
  -1  -2  12 35.0539 38.1268   4
  -1  -2  12-56.6465 39.9621  14
   1   2 -12 10.7069 36.1830  16
  -1  -2  11 123.251 44.5678   4
   1   2 -11 37.0371 43.6508  13
  -1  -2  11 151.423 46.1634  15
   1   2 -11 150.862 48.0556  16
   1   2 -11 197.847 53.7254   2
  -1  -2  11 165.110 54.1788   1
   1   2 -11 111.169 44.5084   3
  -1  -2  11 221.710 51.7106  14
   1   2 -10 12.5924 30.5746  13
   1   2 -10 28.7692 33.8179   2
  -1  -2  10-61.5858 49.1097  15
  -1  -2  10-26.4711 34.0190   4
  -1  -2  10 36.5752 32.7198  14
   1   2 -10 7.70973 27.5425   3
   1   2 -10-27.5911 33.4724  16
  -1  -2  10 20.0828 33.9804   1
  -1  -2  10 0.31382 23.3382   5
   1   2  -9 897.537 81.3062  16
  -1  -2   9 772.339 63.4951   5
   1   2  -9 855.182 70.7333   3
  -1  -2   9 910.870 84.9754   1
  -1  -2   9 789.446 78.3017  15
  -1  -2   9 951.249 82.5674   4
  -1  -2   9 760.381 71.4249  14
   1   2  -9 861.776 77.3547  13
   1   2  -9 902.132 81.7802   2
   1   2  -8 16.9744 20.5443   3
   1   2  -8-14.5679 21.8081  16
  -1  -2   8 32.4681 27.7043   4
   1   2  -8 1.60064 22.7410  13
   1   2  -8 15.2761 20.1345  12
  -1  -2   8 4.17275 24.1530   1
   1   2  -8 6.16491 21.8400   2
  -1  -2   8-12.5440 25.9735  15
  -1  -2   8-79.8990 27.8699   5
  -1  -2   8-20.6669 21.0408  14
   1   2  -7 14.1239 16.7454  12
  -1  -2   7 8.03860 15.6821  14
   1   2  -7-14.2427 20.2288  16
  -1  -2   7-2.69868 20.9753   4
   1   2  -7 46.4578 22.9288   3
   1   2  -7 0.79270 9.84766  10
   1   2  -7 3.11789 19.8295   2
   1   2  -7 10.9312 20.6387  13
  -1  -2   7 31.1696 26.5547   1
  -1  -2   7 42.0706 26.8589  15
  -1  -2   7 12.4413 18.9363   5
  -1  -2   7-5.01867 10.8079   8
  -1  -2   6 88.3856 21.2029  14
   1   2  -6 111.891 29.9092  13
  -1  -2   6 155.451 33.3268  15
   1   2  -6 160.801 29.9777  12
  -1  -2   6 197.169 36.4992   1
   1   2  -6 126.928 25.7357   3
   1   2  -6 147.524 30.3840   2
   1   2  -6 161.239 33.2225  16
  -1  -2   6 134.071 30.4008   5
  -1  -2   6 131.788 33.9466   4
  -1  -2   6 160.257 19.2011   8
  -1  -2   5 2503.61 95.5771  15
   1   2  -5 2669.46 101.070  12
   1   2  -5 2578.69 102.102  13
  -1  -2   5 2611.80 102.714   5
   1   2  -5 2603.82 80.0221   3
  -1  -2   5 2618.65 87.4439  14
  -1  -2   5 2461.39 96.6838   1
   1   2  -5 2624.38 97.9948  16
  -1  -2   5 2648.46 68.8158   8
  -1  -2   5 2703.24 106.640   4
   1   2  -5 2552.19 98.5372   2
  -1  -2   4 1443.89 74.5145   5
   1   2  -4 1474.16 72.1793  13
  -1  -2   4 1435.82 66.0838  15
   1   2  -4 1557.12 52.1953   3
   1   2  -4 1599.49 75.0422  12
  -1  -2   4 1500.33 67.9120   1
  -1  -2   4 1553.29 55.9280   8
  -1  -2   4 1509.70 76.2662   4
   1   2  -4 1549.12 69.1229  16
   1   2  -4 1554.53 69.5338   2
   1   2  -3 4322.40 102.657   2
  -1  -2   3 4586.84 106.901   7
   1   2  -3 4319.97 65.2258   6
   1   2  -3 4397.31 71.5698   3
  -1  -2   3 4252.19 102.229  15
   1   2  -3 4175.39 111.023  13
  -1  -2   3 4366.34 97.6140   8
   1   2  -3 4183.81 116.841  12
   1   2  -3 4295.08 101.584   9
  -1  -2   3 4204.79 99.3763   1
  -1  -2   3 4841.66 132.080   5
   1   2  -3 4270.07 102.136  16
  -1  -2   3 4252.29 115.402   4
  -1  -2   2 2072.70 72.1999   7
   1   2  -2 2131.85 63.5866   2
  -1  -2   2 2018.52 69.1250   8
   1   2  -2 2009.64 73.5041  13
  -1  -2   2 2103.14 63.0288   1
   1   2  -2 2110.80 80.2723  12
  -1  -2   2 2185.53 87.4206   5
   1   2  -2 1992.19 68.1212   9
  -1  -2   2 2068.29 74.4356   4
   1   2  -1 1292.61 56.2319   9
  -1  -2   1 1274.35 58.6552   7
   1   2  -1 1332.44 62.0778  12
   1   2  -1 1402.52 59.2935  13
  -1  -2   1 1528.96 72.7099   5
  -1  -2   1 1288.70 56.5678   8
  -1  -2   1 1349.37 56.7890   4
   1   2   0 1498.97 64.5315  12
  -1  -2   0 1444.57 64.6094   7
  -1  -2   0 1422.82 63.0937   6
  -1  -2   0 1440.54 61.9462   8
   1   2   0 1446.41 61.1944   9
  -1  -2   0 1641.76 73.6399   5
   1   2   1 2858.63 89.1908   9
  -1  -2  -1 3067.01 94.3144   5
  -1  -2  -1 2947.78 94.3880   7
  -1  -2  -1 2954.17 92.2480   6
  -1  -2  -1 2770.96 88.1687   8
  -1  -2  -2 453.889 36.1343   5
  -1  -2  -2 401.271 38.0847   7
  -1  -2  -2 313.305 32.5407   3
  -1  -2  -2 407.581 38.4976   6
   1   2   2 414.134 36.1637   9
  -1  -2  -2 381.100 35.1421   8
  -1  -2  -3 2573.16 74.1274  16
  -1  -2  -3 2789.12 82.3105   5
   1   2   3 2523.28 68.9781  15
  -1  -2  -3 2618.11 97.9980   6
  -1  -2  -3 2775.71 99.8379   3
   1   2   3 2600.14 93.2937   9
  -1  -2  -3 2542.04 94.1405   7
  -1  -2  -3 2508.12 90.0189   8
   1   2   4 4672.90 107.417  15
  -1  -2  -4 4672.16 139.146   6
  -1  -2  -4 4760.27 136.282   7
  -1  -2  -4 4836.17 139.942   3
  -1  -2  -4 4873.94 104.201   5
  -1  -2  -4 4661.95 114.244  16
   1   2   4 5135.58 140.015   9
  -1  -2  -4 4728.67 127.387   8
  -1  -2  -5 1013.11 62.3794  16
   1   2   5 1032.79 59.3711  15
  -1  -2  -5 1049.34 73.7275   3
  -1  -2  -5 1108.26 47.6527   5
  -1  -2  -5 1096.23 66.8773   8
  -1  -2  -5 1105.49 76.3728   6
  -1  -2  -6 1388.97 88.4286   3
   1   2   6 1326.75 71.9721  15
  -1  -2  -6 1387.47 47.7902   5
  -1  -2  -6 1383.02 89.3481   6
  -1  -2  -6 1299.43 76.3982  16
  -1  -2  -6 1519.02 78.8866   8
   1   2   7 385.931 57.2466  14
  -1  -2  -7 348.478 52.3478   3
  -1  -2  -7 360.988 53.4372   6
  -1  -2  -7 344.822 45.8436  16
  -1  -2  -7 178.140 48.6830   2
   1   2   7 393.699 46.5871  15
  -1  -2  -7 469.519 47.4370   8
   1   2   8 1486.73 92.4159  15
   1  -2   8 1134.75 101.134   1
  -1  -2  -8 1247.91 62.0201  13
  -1   2  -8 1077.72 112.907   3
  -1  -2  -8 1430.75 105.910   3
  -1  -2  -8 1746.90 116.315   6
  -1  -2  -8 774.270 95.7000   2
   1   2   8 1053.90 89.4186   1
  -1  -2  -8 1550.17 81.3773   8
   1   2   8 1430.94 110.964  14
   1  -2   8 1112.48 84.7926   4
  -1  -2  -8 1366.82 94.2365  16
  -1  -2  -9 106.172 34.0888   8
   1  -2   9 52.3219 36.5128  14
  -1  -2  -9 9.54730 30.8846  16
  -1   2  -9 16.2581 35.1585   6
   1   2   9 75.6462 34.7239  15
  -1   2  -9 92.4146 45.6531   3
   1   2   9 85.3625 41.3112  14
  -1  -2  -9 72.2814 27.7875  13
  -1  -2  -9 62.9491 37.2809   2
   1  -2   9 69.0545 40.2697   1
   1  -2   9 76.2361 36.8310   4
  -1   2  -9 6.97830 35.6468   2
  -1  -2  -9 63.8048 40.2765   6
  -1  -2  -9 54.3245 33.7495   3
   1  -2  10 296.771 69.5071  14
  -1  -2 -10 41.4697 46.2124   2
   1   2  10 201.993 52.5992  15
   1  -2  10 224.834 50.3694   4
   1   2  10 244.604 60.8382  14
  -1  -2 -10 224.992 63.2534   6
  -1  -2 -10 166.482 54.5931   3
  -1   2 -10 248.699 58.8098   6
   1   2  10 163.807 48.7889  11
   1  -2  10 171.076 57.5800   1
   1   2  10 185.491 38.6075  10
  -1   2 -10 201.482 61.8363   2
  -1   2 -10 235.740 61.1111   3
  -1  -2 -10 214.852 57.4756  16
  -1  -2 -10 38.4963 32.5406   8
   1  -2  11 220.509 83.5878   1
   1   2  11 515.663 76.7575  11
   1  -2  11 326.853 79.0166  14
   1  -2  11 370.896 67.1656   4
   1   2  11 489.320 85.5234  14
  -1   2 -11 487.800 74.0318   6
  -1  -2 -11 536.772 86.9236  16
  -1   2 -11 507.486 90.3438   3
  -1   2 -11 477.148 85.2760   2
  -1  -2 -11 537.298 83.4724   3
   1   2  11 689.605 89.1185  15
  -1   2 -12 211.032 73.5646   2
  -1   2 -12 156.324 50.6590   6
   1   2  12 239.607 70.0794  14
   1  -2  12 75.1940 63.7563   1
   1   2  12 337.321 74.9714  15
   1   2  12 201.782 66.8209  11
  -1  -2 -12 180.842 69.9282  16
  -1   2 -12 210.104 71.1487   3
   1  -2  12 239.022 73.9628  14
  -1  -2 -12 132.569 56.1620   3
   1  -2  13 7.65734 62.5994   1
   1   2  13-89.2100 65.0948  14
   1   2  13 67.1331 71.4381  11
   1   2  13-119.477 68.6153  15
  -1   2 -13-2.29668 52.9327   3
  -1   2 -13 5.22064 60.1850   2
  -1  -2 -13-67.9721 70.1381  16
   1   2  14-88.2792 71.8766  14
  -1  -3  15-7.11533 59.3888  15
  -1  -3  15 38.9457 55.7076   4
   1   3 -15 139.784 66.1106  16
   1   3 -15-7.32651 48.9342   2
   1   3 -15-26.2243 50.5528  13
   1   3 -15 0.75053 59.3688   3
  -1  -3  15 5.67618 57.8093   1
   1   3 -14 68.4614 52.7122   2
  -1  -3  14-17.2764 50.5280  15
   1   3 -14 16.7559 52.2728  13
   1   3 -14 11.4445 47.6532   3
   1   3 -14 152.957 64.7168  16
  -1  -3  14-2.43347 51.7685   1
  -1  -3  14-59.5058 55.6943   4
  -1  -3  13-0.23773 52.7195   1
   1   3 -13 6.53214 47.5240  13
   1   3 -13 35.4651 52.4838   3
  -1  -3  13-0.11647 50.5254  15
   1   3 -13 0.46159 47.7718   2
  -1  -3  13 118.268 59.1703  14
   1   3 -13 63.0844 50.0177  16
  -1  -3  13 14.9714 42.9171   4
  -1  -3  12 123.552 53.4556   4
   1   3 -12 9.88537 40.5879  13
   1   3 -12-2.73765 39.2911   2
   1   3 -12 10.9967 34.5130   3
  -1  -3  12 23.6692 50.9243  15
   1   3 -12 143.847 55.5612  16
  -1  -3  12 29.8106 41.9004  14
  -1  -3  12 1.74570 46.4455   1
  -1  -3  11 86.2655 59.2585   1
   1   3 -11 105.432 47.8370  16
  -1  -3  11 136.639 51.0972  14
   1   3 -11 13.3500 51.4609  13
  -1  -3  11 112.716 60.1631  15
   1   3 -11 80.4006 46.4684   2
   1   3 -11 14.3237 42.6769   3
  -1  -3  11 126.733 49.6100   4
  -1  -3  11 110.540 37.4369   5
  -1  -3  10 31.9978 25.7346  14
  -1  -3  10 33.1634 25.5564   5
   1   3 -10 13.3012 32.6166  13
  -1  -3  10 38.5062 36.3321   1
   1   3 -10-1.41828 33.6783  16
   1   3 -10 81.8451 39.9194   2
   1   3 -10 67.9416 33.1492   3
  -1  -3  10 66.3689 39.8013   4
  -1  -3  10-18.8673 40.3170  15
  -1  -3   9 615.702 73.9625  15
   1   3  -9 706.039 76.7291   2
  -1  -3   8 356.094 27.4487   8
  -1  -3   8 338.908 53.2690  15
   1   3  -8 323.195 50.3628  13
  -1  -3   8 367.831 57.2114   1
  -1  -3   8 356.820 50.7476   5
   1   3  -8 343.395 51.4311  16
   1   3  -8 335.249 24.3663   6
   1   3  -8 329.959 44.1647   3
  -1  -3   8 488.750 63.1012   4
   1   3  -8 426.573 58.6881   2
  -1  -3   7 2408.25 117.473  15
   1   3  -7 2134.26 52.6783   6
   1   3  -7 2635.60 105.119   3
   1   3  -7 2478.43 119.228  16
   1   3  -7 2426.63 119.652  13
  -1  -3   7 2311.99 116.351   5
  -1  -3   7 2466.64 122.179   1
  -1  -3   7 2546.49 77.1480   8
  -1  -3   7 2552.60 129.417   4
   1   3  -7 2599.52 124.031   2
   1   3  -6 156.731 34.1488  13
  -1  -3   6 185.725 37.7104  15
  -1  -3   6 209.621 40.7743   4
  -1  -3   6 186.320 35.5265   1
  -1  -3   6 189.111 26.9060   8
   1   3  -6 155.480 32.2685  16
   1   3  -6 175.032 28.6903   3
   1   3  -6 165.100 35.1018   2
  -1  -3   6 212.892 41.7513   5
   1   3  -5 570.490 56.0807   2
   1   3  -5 509.035 51.2838  16
  -1  -3   5 456.776 51.7264  15
   1   3  -5 588.448 44.5311   3
  -1  -3   5 620.885 67.6120   5
   1   3  -5 552.610 56.3883  13
  -1  -3   5 672.868 49.8519   8
  -1  -3   5 535.816 56.3892   1
  -1  -3   5 673.299 68.1157   4
  -1  -3   4 0.17772 14.5760   8
  -1  -3   4-23.3625 20.8939   4
  -1  -3   4 32.6065 23.9629   1
   1   3  -4 4.98968 14.4038   2
   1   3  -4-13.4583 19.1540  13
   1   3  -3 4437.13 141.561  13
  -1  -3   3 4481.04 170.442   5
  -1  -3   3 4457.65 158.857   4
   1   4 -14 3.54320 50.3308   2
  -1  -4  14 21.4961 68.4311   1
  -1  -4  13 53.2602 50.1792   4
   1   4 -13 81.6629 57.7402   2
  -1  -4  13-40.5056 57.2076   1
  -1  -4  12-59.9082 58.6996   1
   1   4 -12-79.8031 53.1885   2
  -1  -4  12-53.5904 54.2113   4
  -1  -4  11 26.6469 43.7036   4
   1   4 -11-54.5174 38.9650  13
   1   4 -11-34.2226 37.8596   2
   1   4 -11-10.9807 34.6076   3
  -1  -4  11-30.4718 34.2895   5
  -1  -4  11-14.9165 44.3213   1
  -1  -4  10 320.368 65.1545   4
  -1  -4  10 308.596 64.1952   1
   1   4 -10 419.749 69.4840   2
   1   4 -10 246.728 59.4077   3
  -1  -4  10 421.092 61.0724   5
  -1  -4   9-0.43819 35.1988   1
  -1  -4   9-23.8797 34.7730   4
   1   4  -9 8.41181 27.7150  13
   1   4  -9 42.3060 28.0251   3
   1   4  -9 30.3567 35.5828   2
  -1  -4   9 8.55781 31.3486   5
  -1  -4   8 60.6054 35.5428   1
   1   4  -8 121.308 40.6504  13
  -1  -4   8 32.9317 34.9155   4
   1   4  -8 13.8534 22.0660   3
   1   4  -8 70.6286 31.8709   2
  -1  -4   8 111.113 43.5795   5
  -2   0  -2 8114.67 231.634   7
  -2   0  -2 8850.84 229.054   6
  -2   0  -3 78.7116 36.8554   7
  -2   0  -3 112.900 37.1752   6
  -2   0  -3 109.483 34.8173   3
  -2   0  -4 3426.10 109.639   2
  -2   0  -4 3621.62 138.953   7
   2   0   4 3573.10 108.909   1
  -2   0  -4 3411.25 135.108   3
   2   0   4 3424.87 156.093  14
  -2   0  -4 3397.96 140.243   6
  -2   0  -5 4.65844 20.3082   7
   2   0   5 5.04033 21.9556  14
   2   0   5 21.7977 9.38830   4
   2   0   5 2.23880 16.6971   1
  -2   0  -5-24.5343 25.3441   6
   2   0   5-20.8995 26.5450  11
  -2   0  -5-9.88425 25.6404   3
  -2   0  -5-13.3096 18.3279   2
  -2   0  -6 1412.77 82.7732   2
  -2   0  -6 1345.87 85.7643   7
   2   0   6 1456.09 106.037  14
  -2   0  -6 1498.23 102.496   3
  -2   0  -6 1454.47 98.8521   6
   2   0   6 1427.72 98.0996  11
   2   0   6 1459.27 46.6080   4
   2   0   6 1502.20 81.8425   1
   2   0   7-5.34333 25.0637   1
  -2   0  -7-19.4814 27.6295   7
   2   0   7-8.05555 27.4312  14
  -2   0  -7 27.9442 29.5822   6
   2   0   7 25.0011 35.4958  11
  -2   0  -7-8.16154 25.0711   2
  -2   0  -7 11.0294 29.2483   3
   2   0   8-15.3293 30.8070  14
   2   0   8 21.9858 31.1618   1
  -2   0  -8 5.88705 35.3146   6
  -2   0  -8-62.5740 31.6716   7
  -2   0  -8 24.6607 28.3110   2
  -2   0  -8 24.2247 32.6005   3
  -2   0  -9-23.0124 29.6723   7
   2   0   9 33.5273 37.3307  14
  -2   0  -9-47.8228 43.7339   6
  -2   0  -9-46.7044 36.0250   2
  -2   0  -9-2.35641 36.3341   3
   2   0   9-18.5279 28.7025   9
   2   0   9 40.9019 38.2717   1
  -2   0 -10 437.928 72.9984   6
  -2   0 -10 460.792 68.8128   2
  -2   0 -10 474.249 78.7607   3
   2   0  10 535.155 85.4036  14
   2   0  10 441.106 67.3647   1
  -2   0 -11-48.1985 50.0662   6
   2   0  11 28.7813 40.5799   1
   2   0  11-134.815 53.4201  14
  -2   0 -11-9.13752 37.1685   2
  -2   0 -11-17.4539 42.6196   3
   2   0  12 96.5524 54.4882   1
   2   0  12 197.550 67.5595  14
  -2   0 -12 193.775 67.0699   6
  -2   0 -12 108.849 61.1555   3
  -2   0 -12 152.804 53.0055   2
   2   0  13-2.84125 48.9784   1
   2   0  13 98.5250 63.3478  14
  -2   0 -13 117.064 66.5805   6
  -2   0 -13 40.9916 52.8017   2
  -2   0 -13 106.559 63.9691   3
   2   0  14 477.694 105.529  14
  -2   0 -14 586.124 108.242   6
  -2   0 -14 287.612 82.1524   2
  -2   0 -14 546.820 113.747   3
   2   0  14 334.564 80.7426   1
   2   1 -14 62.6860 54.0253   2
  -2  -1  14 24.4734 52.8063  15
   2   1 -14-30.5804 106.047  13
   2   1 -14-54.8115 58.1719  16
  -2  -1  13 15.2570 49.1762  15
  -2  -1  13 23.3202 32.2137  14
   2   1 -13 57.8206 61.3284   2
   2   1 -13 29.9223 52.1078  13
   2   1 -13 14.2673 45.9133  16
  -2  -1  13-13.0855 59.4476   1
   2   1 -12 229.408 60.5051  16
   2   1 -12 303.688 79.0318   2
  -2  -1  12 326.404 78.6576  15
  -2  -1  12 239.757 57.0870  14
  -2  -1  12 198.029 75.8094   1
   2   1 -12 24.4423 63.6507  13
   2   1 -12 171.874 76.1619  12
  -2  -1  11 221.751 59.2938   1
   2   1 -11 163.803 51.9706  13
   2   1 -11-2.78016 34.4768  12
   2   1 -11 134.318 46.7830  16
  -2  -1  11 143.161 44.4917  14
   2   1 -11 192.872 60.4758   2
  -2  -1  11 88.8263 50.0069  15
  -2  -1  11 147.786 55.9734   4
   2   1 -10 56.6118 34.6643  16
  -2  -1  10 78.2107 39.5901  15
   2   1 -10 137.482 42.4901  12
   2   1 -10 74.7452 38.2754  13
  -2  -1  10 132.237 49.1655   1
  -2  -1  10 78.0103 34.1599  14
   2   1 -10 154.503 50.7984   2
  -2  -1  10 129.107 46.2010   4
  -2  -1   9 32.5164 33.2293   4
   2   1  -9 35.4010 30.9976   2
  -2  -1   9 38.3410 32.3781  15
  -2  -1   9 25.1564 21.8325  14
  -2  -1   9 5.34196 19.8765   7
   2   1  -9 27.6189 30.1300  13
  -2  -1   9 32.9412 32.3771   1
   2   1  -9 31.9978 28.7723  16
   2   1  -8 1241.70 86.9626  16
  -2  -1   8 1304.51 89.8351  15
   2   1  -8 1189.85 88.0975  13
  -2  -1   8 1104.28 104.951   5
  -2  -1   8 1254.24 65.9471   7
  -2  -1   8 1166.12 76.0427  14
   2   1  -8 1445.15 102.089   2
  -2  -1   8 1351.90 97.9431   4
  -2  -1   8 1428.72 99.1618   1
   2   1  -7 2256.93 107.579  16
  -2  -1   7 2399.08 112.254  15
   2   1  -7 2263.02 112.807  13
  -2  -1   7 2208.21 116.674   4
  -2  -1   7 2914.79 146.058   5
  -2  -1   7 2247.95 88.5700   7
   2   1  -7 2560.05 126.763   2
  -2  -1   7 2533.62 120.442   1
   2   1  -6 548.008 51.2639  16
  -2  -1   6 545.241 48.4256   7
  -2  -1   6 509.597 60.7673   5
  -2  -1   6 548.562 53.8115  15
   2   1  -6 479.290 56.2881   2
  -2  -1   6 577.861 60.2479   1
  -2  -1   6 586.930 59.5281   4
  -2  -1   5 76.2138 23.3444  15
  -2  -1   5 65.1945 22.3574   7
  -2  -1   5 41.1947 10.6810   6
   2   1  -5 37.6787 16.5107  16
  -2  -1   5 40.6219 21.3648   5
  -2  -1   5 18.6811 18.3778   4
   2   1  -5-6.78466 20.8799   2
   2   1  -4 2338.05 84.0660  16
  -2  -1   4 2289.05 95.3231   7
  -2  -1   4 2412.75 105.048   4
  -2  -1   4 2370.20 63.4241   6
  -2  -1   4 2565.39 113.230   5
  -2  -1   4 2535.24 89.6979  15
  -2  -1   4 2153.23 101.643   8
  -2  -1   3 1381.67 59.1180  15
   2   1  -3 1247.04 53.9827  16
  -2  -1   3 1265.66 78.2468   5
  -2  -1   3 1304.08 52.5409   6
   2   1  -3 1406.62 75.9773  10
  -2  -1   3 1361.86 75.5143   8
  -2  -1   3 1298.74 71.5412   7
  -2  -1   3 1274.27 72.1795   4
   2   1  -2 30.6804 10.3734  16
  -2  -1   2 40.2508 12.5681  15
  -2  -1   2 15.6461 13.3442   7
  -2  -1   2 30.4938 13.0443   6
  -2  -1   2 31.0561 17.3944   5
   2   1  -2 40.3489 18.0323  10
  -2  -1   2 12.7764 13.6641   8
  -2  -1   2 28.4114 15.3333   4
  -2  -1   1 439.526 39.3215   6
  -2  -1   1 445.798 44.3810   5
   2   1  -1 441.111 42.9240  10
  -2  -1   1 383.900 40.5448   7
  -2  -1   1 406.690 41.1830   8
  -2  -1   1 286.707 31.2728   4
  -2  -1   0 3215.95 104.523   6
  -2  -1   0 3174.17 84.1208   3
  -2  -1   0 3138.37 113.941   5
   2   1   0 3203.29 103.108  11
   2   1   0 3005.49 110.168  10
  -2  -1   0 3306.01 116.219   7
  -2  -1   0 3073.73 107.738   8
  -2  -1  -1 462.926 44.7025   6
  -2  -1  -1 494.973 45.3031   5
  -2  -1  -1 483.711 38.3318   3
   2   1   1 450.669 42.5977  11
   2   1   1 408.944 41.9160  10
  -2  -1  -1 501.640 48.4105   7
  -2  -1  -1 438.702 44.0709   8
  -2  -1  -2-11.5735 19.2045   7
  -2  -1  -2-17.4228 20.9608   6
   2   1   2-2.90106 17.4784  11
  -2  -1  -2-32.0003 18.6514   5
   2   1   2-35.5021 22.2438  10
  -2  -1  -2-31.4706 11.1838   2
  -2  -1  -2-9.93708 16.8973   3
   2   1   2-10.9584 15.0283  14
   2   1   2-10.8564 8.75976   1
  -2  -1  -2-21.0150 17.7478   8
  -2  -1  -3 572.038 55.2691   7
  -2  -1  -3 548.354 56.5114   6
  -2  -1  -3 512.098 47.6845   3
  -2  -1  -3 289.488 42.7472   5
   2   1   3 494.920 51.2106  11
   2   1   3 477.800 49.4622  10
   2   1   3 568.914 33.4060   1
  -2  -1  -3 501.676 50.6082   8
  -2  -1  -3 515.364 32.4700   2
   2   1   3 525.435 51.2273  14
  -2  -1  -4 2234.47 106.922   7
   2   1   4 2148.76 107.870  14
  -2  -1  -4 2192.63 109.689   6
  -2  -1  -4 2138.50 101.560   3
   2   1   4 2199.80 73.3343   1
   2   1   4 2096.54 103.791  11
   2   1   4 2116.95 99.8659  10
  -2  -1  -4 2137.08 100.620   8
  -2  -1  -4 2124.14 74.0287   2
  -2  -1  -5 53.1684 28.1642   7
   2   1   5 75.1720 28.4369  14
  -2  -1  -5 34.9930 27.1232   6
  -2  -1  -5 42.0708 19.1325   2
   2   1   5 31.2066 22.5131  11
   2   1   5 21.7817 19.4638  10
   2   1   5 35.1329 13.5682  12
  -2  -1  -5 57.0925 24.5636   3
  -2  -1  -5 78.3389 27.6484   8
   2   1   5 46.4163 18.3097   1
  -2  -1  -6-4.73278 19.9847  16
   2   1   6 60.7890 27.8480  15
  -2  -1  -6 94.2173 35.8563   3
  -2  -1  -6 54.0786 32.0133   6
   2   1   6 15.3708 23.7055  14
  -2  -1  -6 51.5887 24.9439   2
   2   1   6 3.95427 11.9873  12
   2   1   6 31.0165 25.9453  11
   2   1   6 53.7085 27.3948  10
   2   1   6 27.3408 20.8159   1
  -2  -1  -6 52.8527 29.8510   7
  -2  -1  -6 47.8764 28.3507   8
  -2  -1  -7 882.665 83.5895   3
  -2  -1  -7 760.430 65.2682  16
  -2  -1  -7 865.039 72.4856   7
   2   1   7 874.764 69.3700  15
  -2  -1  -7 909.362 84.9707   6
   2   1   7 844.639 84.6438  14
   2   1   7 836.053 78.9577  11
   2   1   7 913.324 73.8095  10
   2   1   7 804.296 67.1231   9
  -2  -1  -7 868.542 72.3490   8
  -2  -1  -7 799.054 65.9697   2
   2   1   7 852.428 66.7260   1
  -2  -1  -8 428.947 58.5475  16
  -2  -1  -8 520.473 61.0848   7
   2   1   8 437.070 58.1367  15
   2   1   8 398.684 65.4981  14
   2  -1   8 409.293 64.5592   1
  -2   1  -8 257.694 53.3217   2
  -2  -1  -8 483.038 67.2483   6
  -2   1  -8 381.949 71.4521   6
   2   1   8 456.883 65.6535  11
   2   1   8 426.237 58.4302  10
  -2  -1  -8 407.176 63.2884   3
   2   1   8 534.720 61.4907   9
  -2   1  -8 354.747 73.7450   3
  -2  -1  -8 605.941 70.3867   8
  -2  -1  -8 433.667 54.4943   2
   2   1   8 485.314 58.3273   1
  -2  -1  -9-11.8707 31.9533  16
   2   1   9-17.9022 31.0526   1
   2   1   9-71.7931 41.0579  15
   2  -1   9-43.0864 43.5687  14
  -2  -1  -9 18.1509 30.1714   2
  -2  -1  -9 38.8973 37.6967   6
  -2   1  -9-42.8276 50.4479   6
   2   1   9-52.1394 41.1808  11
   2   1   9-24.0121 34.4706  14
  -2  -1  -9 16.3962 36.9713   3
  -2  -1  -9-9.30533 31.8374   7
   2  -1   9 5.19930 38.6684   1
  -2   1  -9-2.26746 38.7614   2
  -2   1  -9 31.4378 44.5707   3
   2   1   9-27.8846 34.7123   9
  -2   1  -9-37.2586 38.9084   7
  -2   1 -10 93.1406 56.9027   6
   2   1  10 139.586 52.8701  14
   2  -1  10 85.1576 49.9146  14
   2   1  10 176.587 50.4006  15
   2   1  10 98.2408 43.1386  11
  -2  -1 -10 171.557 53.8046   3
  -2  -1 -10 138.825 45.8655  16
  -2  -1 -10 137.818 48.6185   6
  -2   1 -10 37.5971 47.0205   2
  -2   1 -10 47.9330 50.1193   3
   2  -1  10 128.480 56.0733   1
   2   1  10 131.478 44.5853   1
  -2  -1 -10 101.530 43.1673   2
  -2  -1 -11-9.84466 38.9755  16
   2  -1  11 17.5598 47.5521   1
   2   1  11-11.8107 41.3106  14
   2  -1  11-120.459 63.9097  14
   2   1  11 49.0968 43.1975  15
  -2  -1 -11 43.4869 43.1690   6
  -2   1 -11 12.9885 53.6246   6
  -2  -1 -11 59.0690 48.8214   3
  -2  -1 -11 25.9562 36.9883   2
   2   1  11-5.20287 40.1292  11
   2   1  11 32.8453 37.0900   1
  -2   1 -11 78.2130 66.7826   3
  -2  -1 -12 10.0758 42.9293  16
   2   1  12 72.4485 61.9088  15
   2   1  12 69.0055 56.4979  14
   2  -1  12 8.37343 43.2119  14
  -2  -1 -12 24.6548 43.9145   6
  -2  -1 -12 38.3516 46.4282   3
   2   1  12 57.7898 49.6066   1
   2   1  12 26.9828 46.2380  11
  -2   1 -12 139.595 78.6694   3
  -2  -1 -12-19.9913 42.7053   2
  -2  -1 -13 11.2458 54.6657  16
  -2  -1 -13 0.28000 53.5948   2
   2   1  13-18.0296 132.265  15
  -2  -1 -13 31.3369 58.3041   6
   2   1  13-200.781 70.4537  14
   2   1  13-1.70871 47.3885   1
  -2  -1 -13 57.5584 57.4152   3
   2   1  13 128.014 75.8409  11
  -2  -1 -14 21.8897 73.3656   2
  -2  -1 -14-113.322 80.7862  16
   2   1  14 42.5667 64.7685  15
   2   1  14 41.1895 55.7273   1
   2   1  14 87.8214 66.9592  14
  -2  -1 -14-78.7281 61.4614   3
  -2  -1 -14 25.6628 61.0621   6
   2   2 -16-14.2638 60.5010  16
   2   2 -16 43.0730 98.0794  13
  -2  -2  16 7.85352 69.5067  15
   2   2 -15 28.0236 56.4721   2
  -2  -2  15-7.96288 65.7058   1
   2   2 -15 23.6977 55.6731  16
   2   2 -15-12.1331 68.9179  13
  -2  -2  15 82.1621 82.2008  15
   2   2 -14-20.6380 48.2411   2
  -2  -2  14 52.6702 54.3753  15
   2   2 -14 10.3760 53.1473  13
   2   2 -14 4.64153 44.9310  16
  -2  -2  14 40.5424 49.1952   1
  -2  -2  14-108.190 58.6215   4
  -2  -2  13 7.91829 45.3841   4
  -2  -2  13 128.203 61.2264  15
   2   2 -13 105.752 55.2037   2
   2   2 -13 18.4919 59.4049  13
  -2  -2  13 7.31632 50.6001   1
   2   2 -13 47.6760 46.0120  16
  -2  -2  11-44.3054 45.9949  15
   2   2 -11 12.5209 33.4745   2
  -2  -2  11 8.55049 31.9326  14
   2   2 -11-31.8463 35.9920  13
  -2  -2  11-27.8735 42.3202   4
   2   2 -11-26.3719 34.2543  12
  -2  -2  11 9.02127 43.5307   5
  -2  -2  11 6.25940 37.6978   1
   2   2 -11 15.3176 33.6971  16
   2   2 -10 23.3085 30.2027  16
  -2  -2  10-29.2657 28.5108  14
   2   2 -10 49.5161 37.1354  13
  -2  -2  10-63.0182 40.9600  15
   2   2 -10 13.8638 29.3632  12
  -2  -2  10 59.0836 36.5926   5
   2   2 -10 28.1303 32.3881   2
  -2  -2  10 44.5797 35.2754   1
  -2  -2  10 107.766 46.8947   4
   2   2  -9 217.198 44.9030  16
  -2  -2   9 218.513 50.9738   4
  -2  -2   9 274.947 53.2555  15
  -2  -2   9 198.814 37.4039  14
   2   2  -9 247.390 50.2619  13
   2   2  -9 220.365 45.8785  12
  -2  -2   9 212.618 46.3482   5
   2   2  -9 204.066 44.8169   2
  -2  -2   9 208.447 44.8368   1
  -2  -2   8 280.302 51.9448   4
   2   2  -8 262.861 45.2074  16
  -2  -2   8 242.987 31.8682   7
  -2  -2   8 245.720 45.9492  15
   2   2  -8 266.867 38.2178   9
   2   2  -8 222.866 40.3179   2
   2   2  -8 281.406 49.2023  13
   2   2  -8 270.700 48.2307  12
  -2  -2   8 247.360 46.1050   5
  -2  -2   8 220.574 34.0623  14
  -2  -2   8 218.107 40.5066   1
  -2  -2   7 198.657 37.1757   1
   2   2  -7 174.724 34.9358  16
  -2  -2   7 209.617 39.1654  15
  -2  -2   7 158.154 25.6507  14
  -2  -2   7 263.092 48.6594   4
  -2  -2   7 169.177 28.4504   7
   2   2  -7 151.367 36.3094  12
   2   2  -7 192.833 37.4700   2
   2   2  -7 184.781 39.2080  13
  -2  -2   7 204.734 41.5459   5
   2   2  -7 144.864 26.8186   9
  -2  -2   6 176.814 32.4055   1
  -2  -2   6 137.022 34.6398   4
  -2  -2   6 164.928 28.6315   7
  -2  -2   6 146.901 20.7293  14
   2   2  -6 156.294 30.6036   2
   2   2  -6 151.681 31.6936  13
  -2  -2   6 193.345 33.9603  15
   2   2  -6 193.927 38.7456  12
   2   2  -6 166.736 30.6864  16
   2   2  -6 66.1862 29.0523  10
  -2  -2   6 172.741 38.2813   5
   2   2  -6 150.028 27.1345   9
  -2  -2   6 163.235 28.4906   8
  -2  -2   5 173.649 27.6351   1
  -2  -2   5 215.273 37.3684   4
  -2  -2   5 184.494 30.4050  15
  -2  -2   5 192.121 31.8408   7
  -2  -2   5 171.132 18.8151  14
   2   2  -5 242.423 37.2685  13
   2   2  -5 223.163 38.8947  12
   2   2  -5 112.512 31.4805  10
   2   2  -5 194.552 30.7158   9
  -2  -2   5 210.392 38.4279   5
   2   2  -5 181.543 28.4900  16
   2   2  -5 204.926 30.9123   2
  -2  -2   5 193.744 29.8048   8
  -2  -2   4 771.153 60.4687   7
  -2  -2   4 705.890 46.8127  15
   2   2  -4 712.839 46.4779  16
  -2  -2   4 677.406 33.7685   6
   2   2  -4 787.606 58.5067  13
  -2  -2   4 803.569 67.4055   5
   2   2  -4 737.744 63.8744  12
  -2  -2   4 742.902 55.0884   8
   2   2  -4 726.987 47.4507   2
  -2  -2   4 762.720 59.7812   4
  -2  -2   4 649.787 43.6175   1
   2   2  -3 110.518 17.4239  16
  -2  -2   3 107.817 24.1126   4
  -2  -2   3 85.9652 16.5618  15
  -2  -2   3 107.259 27.8268   7
  -2  -2   3 80.2483 15.5855   6
   2   2  -3 128.001 25.7389  13
   2   2  -3 120.208 26.3406  12
   2   2  -3 143.205 19.9121  11
  -2  -2   3 91.0421 17.3389   1
   2   2  -3 87.0582 23.0798  10
  -2  -2   3 87.6867 25.8111   5
   2   2  -3 100.911 17.2722   2
  -2  -2   3 100.240 23.9905   8
  -2  -2   2 86.8390 23.6674   8
   2   2  -2 55.9018 10.4706  16
  -2  -2   2 74.1482 20.0570   4
  -2  -2   2 90.8226 14.5101  15
  -2  -2   2 99.5610 26.0363   7
   2   2  -2 79.1618 19.7614  13
   2   2  -2 81.5803 22.6557  12
  -2  -2   2 60.8520 15.8448   6
   2   2  -2 93.9729 18.9475  11
   2   2  -2 55.5172 21.3016  10
   2   2  -2 19.9487 10.3800   2
  -2  -2   2 96.3205 24.9960   5
  -2  -2   1 261.554 37.4245   7
  -2  -2   1 215.152 16.7852   3
  -2  -2   1 243.613 30.2155   6
   2   2  -1 217.957 28.1774  13
   2   2  -1 237.072 34.5357  12
   2   2  -1 246.681 29.0577  11
  -2  -2   1 223.549 33.1118   5
  -2  -2   1 232.581 33.2762   8
  -2  -2   1 213.378 26.6433   4
  -2  -2   0 7498.32 186.568   7
  -2  -2   0 7039.50 157.409   6
  -2  -2   0 6718.59 114.405   3
   2   2   0 6472.70 123.299  13
   2   2   0 7002.85 167.253  12
   2   2   0 6737.13 148.606  11
  -2  -2   0 7206.35 171.504   5
   2   2   0 6754.71 123.665  14
  -2  -2   0 6820.90 165.332   8
  -2  -2   0 6324.93 123.205   4
  -2  -2  -1 1079.33 74.0609   7
   2   2   1 1048.00 64.8924  12
   2   2   1 986.868 55.4953  14
  -2  -2  -1 969.681 63.2575   6
  -2  -2  -1 958.912 51.4723   3
   2   2   1 998.806 46.1468  13
   2   2   1 966.819 61.0688  11
  -2  -2  -1 1003.77 63.4894   5
  -2  -2  -1 924.438 63.5891   8
  -2  -2  -1 899.421 41.3086   4
  -2  -2  -2 3307.04 132.231   7
  -2  -2  -2 3119.48 119.665   6
  -2  -2  -2 3019.22 99.9824   3
   2   2   2 3091.54 107.811  12
   2   2   2 3046.11 115.256  11
  -2  -2  -2 3184.30 108.552   5
   2   2   2 3071.90 117.664   9
   2   2   2 3068.16 106.027  14
  -2  -2  -2 3150.95 74.1886   4
  -2  -2  -2 3076.91 117.612   8
   2   2   3 3054.37 115.612  14
  -2  -2  -3 3066.62 123.948   6
  -2  -2  -3 3070.58 109.743   3
   2   2   3 3127.62 105.122  12
   2   2   3 3018.81 120.277  11
  -2  -2  -3 2992.39 101.060   5
  -2  -2  -3 3246.51 129.653   7
   2   2   3 3086.88 119.864   9
  -2  -2  -3 3056.96 118.498   8
   2   2   3 3129.56 74.5110  15
  -2  -2  -4 1683.00 64.8872  16
  -2  -2  -4 2032.41 105.855   7
   2   2   4 1781.80 64.9521  15
  -2  -2  -4 1913.90 103.678   6
   2   2   4 1919.83 102.042  14
  -2  -2  -4 1877.59 94.7141   3
   2   2   4 1922.01 82.0098  12
   2   2   4 1863.32 100.028  11
  -2  -2  -4 1821.43 76.8076   5
   2   2   4 1810.53 94.8377  10
   2   2   4 1904.79 97.9334   9
  -2  -2  -4 1855.96 95.2851   8
  -2  -2  -5 244.502 40.3580   8
  -2  -2  -5 266.089 43.1346   7
   2   2   5 267.614 44.1509  14
  -2  -2  -5 315.756 45.4989   3
  -2  -2  -5 315.080 48.4630   6
  -2  -2  -5 263.238 31.9746   5
   2   2   5 240.106 42.9038  11
   2   2   5 290.313 33.6150  15
   2   2   5 245.191 39.8376  10
  -2  -2  -5 231.588 28.6955  16
   2   2   5 310.866 45.7612   9
  -2  -2  -5 264.563 48.1935   2
   2   2   5 293.009 35.3083   1
  -2  -2  -6 466.442 55.7338   7
   2   2   6 421.850 44.4788  15
  -2  -2  -6 486.185 62.1449   6
  -2  -2  -6 387.208 52.6891   3
   2   2   6 470.670 59.1489  11
   2   2   6 417.564 50.0097  10
   2   2   6 438.957 58.4020  14
   2   2   6 470.493 56.4444   9
  -2  -2  -6 406.419 50.1988   2
  -2  -2  -6 432.541 51.4701   8
   2   2   6 461.249 45.0722   1
  -2  -2  -6 338.342 39.5622  16
  -2  -2  -7 1418.20 95.5011   7
   2   2   7 1443.15 84.0984  15
   2   2   7 1397.49 107.666  14
  -2  -2  -7 1467.14 106.763   6
  -2  -2  -7 1324.57 99.6513   3
   2   2   7 1363.09 99.2091  11
  -2  -2  -7 1182.90 75.2222  16
   2   2   7 1270.42 84.4215  10
   2   2   7 1465.50 95.5349   9
  -2  -2  -7 1377.66 94.8161   2
  -2  -2  -7 1493.68 90.3164   8
   2   2   7 1318.56 79.2718   1
  -2  -2  -8 900.064 73.7352  16
  -2  -2  -8 1135.43 91.3553   7
   2   2   8 959.098 75.5497  15
   2   2   8 1000.97 98.5518  14
  -2  -2  -8 1147.03 101.880   6
  -2  -2  -8 1005.31 92.6478   3
   2   2   8 1037.16 92.6419  11
   2   2   8 939.426 75.4500  10
   2   2   8 1190.90 93.3079   9
  -2  -2  -8 908.149 86.5327   2
  -2  -2  -8 1019.62 80.4396   8
   2   2   8 940.017 76.0919   1
  -2  -2  -9 100.744 43.9659   2
  -2  -2  -9 67.4123 34.9816  16
   2   2   9 57.0530 39.2862  15
   2   2   9 97.4150 45.6646  14
   2   2   9 29.9976 33.3395   1
  -2  -2  -9 34.6926 38.5862   6
  -2  -2  -9 132.612 51.4214   3
   2   2   9 84.5009 45.8947  11
  -2  -2  -9 52.6302 34.8033   7
   2   2   9 45.4643 33.5759  10
   2   2   9 37.5792 42.7901   9
  -2  -2  -9 79.7535 42.0151   8
  -2  -2 -10 25.2900 44.3457   2
   2   2  10 4.30337 35.3047  15
   2   2  10 37.0031 44.9392  14
   2   2  10 55.2800 37.5960   1
  -2  -2 -10 37.8594 43.3456   6
  -2  -2 -10 103.907 49.3066   3
   2   2  10 57.5726 42.6110  11
  -2  -2 -10 8.96334 35.9633  16
   2   2  10 33.9223 41.6406  10
  -2  -2 -10-96.7774 56.9748   8
  -2  -2 -11-41.2565 57.7528   2
  -2  -2 -11 52.0574 46.0380  16
   2   2  11-15.1542 45.6758  15
   2   2  11 67.0291 51.4796  14
  -2  -2 -11 3.81955 46.2791   6
  -2  -2 -11 9.88223 43.3289   3
   2   2  11 43.8112 39.8127  11
  -2  -2 -12 87.7906 58.5952  16
   2   2  12 14.6125 52.0653  15
   2   2  12 22.2332 51.1984  14
  -2  -2 -12-64.2897 60.6714   6
  -2  -2 -12-37.9326 61.4294   3
   2   2  12-161.583 59.4392  11
   2   2  13-5.17754 68.0712  15
  -2  -2 -13-72.9259 56.7429   6
  -2  -2 -13-72.6088 56.7288   3
   2   2  13 85.6115 69.8641  11
  -2  -2 -13 44.4200 70.6919  16
   2   2  13-9.00205 53.7868  14
   2   2  14 28.1887 67.1730  14
  -2  -2 -14 4.56800 43.9849   6
  -2  -2 -14 41.8154 58.9663   3
   2   2  14-41.9058 84.1032  11
  -2  -3  15 19.1831 53.8621   4
   2   3 -15 30.1444 50.3598  16
  -2  -3  15 62.7651 65.9201  15
   2   3 -15-15.0702 63.2263  13
   2   3 -15 149.325 69.0430   2
  -2  -3  15 67.3800 65.3507   1
  -2  -3  14 109.174 65.1303   4
   2   3 -14 85.2197 56.7468  16
  -2  -3  14 2.73905 55.4735  15
   2   3 -14-11.7626 49.4006   2
   2   3 -14-13.4690 52.9275  13
  -2  -3  14 12.5959 50.5056   1
  -2  -3  13 93.9352 58.2895   4
   2   3 -13 76.9634 50.7466  16
  -2  -3  13 123.537 62.8494  15
   2   3 -13 17.9441 41.4433   2
   2   3 -13 5.63298 43.3647  13
  -2  -3  13 38.6588 54.8582   1
  -2  -3  12 4.78460 42.4068   1
  -2  -3  12 78.5679 56.0119   4
   2   3 -12 31.1159 43.1912  16
  -2  -3  12 27.4251 48.2603  15
   2   3 -12 122.973 50.3069   2
  -2  -3  12-4.36676 38.6619   5
   2   3 -12 1.10447 48.6417  13
   2   3 -11 267.073 59.5412  16
  -2  -3  11 387.907 74.7774   4
  -2  -3  11 195.921 63.8462   1
   2   3 -11 338.571 64.6603  13
   2   3 -11 378.161 66.5231   2
   2   3 -11 369.052 63.5227  12
  -2  -3  11 312.758 59.2909   5
  -2  -3  11 218.728 64.7544  15
   2   3 -10-57.2890 39.9225  16
  -2  -3  10-30.6178 42.5295   4
  -2  -3  10-41.4086 33.7445  14
  -2  -3  10-58.5056 43.7702   1
   2   3 -10-41.2965 38.0331  13
  -2  -3  10-56.7063 43.3577  15
   2   3 -10-47.4820 36.1876   2
   2   3 -10-1.35959 27.3680  12
  -2  -3  10-45.2489 35.3187   5
   2   3  -9 70.7754 33.9516  16
  -2  -3   9 41.9742 36.1686   4
  -2  -3   9 74.3662 39.1221  15
   2   3  -9 69.8829 39.0336  13
   2   3  -9 123.795 33.7065   3
   2   3  -9 93.7789 38.9042   2
   2   3  -9 102.683 35.9519  12
  -2  -3   9 191.587 54.7699   1
  -2  -3   9 104.420 41.1376   5
   2   3  -8 48.6408 31.3462  16
  -2  -3   8 2.22053 30.9793   4
  -2  -3   8-15.1964 29.6388  15
   2   3  -8 33.3996 33.9506  13
   2   3  -8-9.57199 19.2036   3
   2   3  -8-11.1528 25.9624  12
   2   3  -8-10.9707 28.5188   2
  -2  -3   8 34.3942 29.3826   1
   2   3  -8 14.4572 19.7111  10
  -2  -3   8-15.7405 27.0473   5
  -2  -3   8 51.5159 22.0402   8
  -2  -3   7 1001.44 76.9457   1
  -2  -3   7 919.117 72.9872  15
   2   3  -7 703.782 58.1470   3
   2   3  -7 944.087 80.8679  13
   2   3  -7 960.880 82.9344  12
  -2  -3   7 1017.95 88.4131   5
   2   3  -7 924.635 73.2230  16
  -2  -3   7 1015.41 64.5765   8
  -2  -3   7 1045.11 88.5067   4
   2   3  -7 948.895 74.5551   2
  -2  -3   6 63.7357 23.7482   8
  -2  -3   6 62.5741 29.2234   1
   2   3  -6 114.241 31.0134  16
  -2  -3   6 78.1560 28.1217  15
  -2  -3   6 53.4974 33.5089   4
   2   3  -6 73.4931 29.6578  13
   2   3  -6 118.032 34.1133  12
  -2  -3   6 70.9403 23.7150   7
   2   3  -6 88.9094 27.3887   2
   2   3  -6 14.8512 28.6136  10
  -2  -3   6 35.5423 23.6893   5
   2   3  -6 58.7988 25.5836   9
   2   3  -5 2692.68 105.444  16
  -2  -3   5 2603.07 104.282   7
   2   3  -5 2730.93 119.218  13
   2   3  -5 2774.36 130.522  12
  -2  -3   5 2911.58 134.107   5
  -2  -3   5 2696.37 105.776  15
  -2  -3   5 2741.25 103.902   1
   2   3  -5 2653.84 105.641   9
  -2  -3   5 2937.25 110.872   8
  -2  -3   5 2845.11 127.856   4
   2   3  -5 2783.80 105.735   2
  -2  -3   4-13.3071 18.0744   8
  -2  -3   4 15.1151 18.7360   7
  -2  -3   4 49.6399 25.1888   4
  -2  -3   4-9.36380 18.3252   1
   2   3  -4 10.7240 21.5044  13
   2   3  -4-17.1997 20.6634  12
   2   3  -4 1.56859 11.3514  11
   2   3  -4 5.07879 14.1333  16
   2   3  -4 10.0145 14.1280   2
   2   3  -4-17.4266 16.6160   9
  -2  -3   4 16.4082 23.0633   5
  -2  -3   4 8.66100 18.6032  15
  -2  -3   3 112.793 26.4459   8
  -2  -3   3 102.740 25.7906   7
  -2  -3   3 134.304 29.0521   4
   2   3  -3 107.659 25.3565  13
  -2  -3   3 150.428 21.9269   1
   2   3  -3 153.639 34.2938  12
   2   3  -3 146.735 22.3036   2
   2   3  -3 101.405 24.4811   9
  -2  -3   3 98.7084 29.0952   5
  -2  -3   2 102.957 25.8696   7
  -2  -3   2 142.993 28.7570   4
  -2  -3   2 46.6258 16.9208   6
   2   3  -2 142.889 30.0914  13
  -2  -3   2 123.316 18.0237   1
   2   3  -2 174.156 34.0717  12
   2   3  -2 153.023 18.9153   2
   2   3  -2 123.768 28.4566   9
  -2  -3   2 162.796 35.6561   5
  -2  -3   2 148.103 29.3073   8
  -2  -3   1 2315.88 48.8047   1
   2   3  -1 2220.40 55.6560  14
  -2  -3   1 2654.56 101.159   6
   2   3  -1 2355.98 95.4186  13
   2   3  -1 2420.99 110.802  12
  -2  -3   1 2472.56 113.629   5
   2   3  -1 2484.43 107.577   9
  -2  -3   1 2573.21 113.861   7
  -2  -3   1 2379.03 104.267   8
  -2  -3   1 2286.02 87.5280   4
   2   3  -1 2326.05 51.4590   2
  -2  -3   0 354.993 45.9348   7
   2   3   0 358.206 30.2771  14
  -2  -3   0 377.769 43.4225   6
   2   3   0 354.510 45.1242  12
  -2  -3   0 373.132 45.5199   5
   2   3   0 362.624 46.2149   9
  -2  -3   0 318.910 42.2509   8
  -2  -3   0 394.800 36.4566   4
  -2  -3  -1 45.4476 21.5589   8
  -2  -3  -1 54.9462 22.7700   7
   2   3   1 26.9167 12.3443  14
  -2  -3  -1 14.2085 14.2543   4
  -2  -3  -1 58.8184 21.3186   6
   2   3   1 54.2195 21.0671  12
   2   3   1 36.5259 20.5852   9
  -2  -3  -1 47.9424 20.8113   5
  -2  -3  -2 393.820 48.9205   7
   2   3   2 356.374 17.9983  15
   2   3   2 414.220 42.7573  14
  -2  -3  -2 405.518 49.0709   6
   2   3   2 415.318 45.9268  12
  -2  -3  -2 416.617 44.7928   5
   2   3   2 448.129 50.6895   9
  -2  -3  -2 388.043 46.0023   8
  -2  -3  -2 342.367 26.0213   4
  -2  -3  -3 22.1125 23.6015   8
  -2  -3  -3 7.70873 9.11026  16
   2   3   3 6.95144 10.0782  15
  -2  -3  -3 9.76027 22.5840   7
  -2  -3  -3-2.00104 9.10895   4
   2   3   3 5.59781 17.0064  14
  -2  -3  -3 24.4257 23.1531   6
  -2  -3  -3 24.3527 22.5736   3
   2   3   3 11.1084 22.8437   9
  -2  -3  -3 21.3904 19.3775   5
  -2  -3  -4 1179.15 86.9416   7
   2   3   4 1100.68 49.7583  15
   2   3   4 1170.74 82.3113  14
  -2  -3  -4 1370.29 90.7437   3
  -2  -3  -4 1202.00 87.1380   6
  -2  -3  -4 1306.64 74.0190   5
   2   3   4 1223.20 85.8280   9
  -2  -3  -4 887.829 43.7420  16
  -2  -3  -4 1207.16 83.2664   8
  -2  -3  -5 51.2594 28.6318   8
  -2  -3  -5 44.9760 18.3350  16
  -2  -3  -5 93.1913 34.4709   7
   2   3   5 44.3544 17.2512  15
   2   3   5 56.8889 25.9590  14
  -2  -3  -5 63.2266 30.9681   6
  -2  -3  -5 71.2339 30.5088   3
  -2  -3  -5 62.5508 23.4724   5
   2   3   5 106.710 35.0974   9
  -2  -3  -6 66.4153 34.3592   8
  -2  -3  -6 86.2672 24.5755  16
  -2  -3  -6 103.897 37.0602   7
   2   3   6 132.964 39.7202  14
  -2  -3  -6 107.724 39.1740   6
  -2  -3  -6 137.475 42.0849   3
  -2  -3  -6 179.937 33.5563   5
   2   3   6 165.023 42.8574   9
   2   3   6 90.0187 25.0112  15
  -2  -3  -7 430.772 48.3399  16
   2   3   7 526.545 73.4569  14
  -2  -3  -7 366.652 60.5690   7
   2   3   7 520.650 52.9945  15
  -2  -3  -7 513.757 72.5625   6
  -2  -3  -7 588.557 74.8779   3
   2   3   7 528.365 70.9735  11
  -2  -3  -7 636.102 74.8382   8
  -2  -3  -8-0.89651 39.0404   8
  -2  -3  -8-31.1768 29.5775  16
   2   3   8-61.2453 49.7821  15
   2   3   8-3.81459 35.4667  14
  -2  -3  -8-34.5466 42.2879   6
  -2  -3  -8 33.9941 34.1549   3
   2   3   8-9.15240 38.6650  11
  -2  -3  -9 128.781 47.4150   8
  -2  -3  -9 188.531 52.1550  16
   2   3   9 158.764 58.6518  14
  -2  -3  -9 193.480 62.5230   6
   2   3   9 146.847 48.5406  15
  -2  -3  -9 160.939 50.6710   3
   2   3   9 146.756 52.4248  11
   2   3   9 172.477 45.7955  10
  -2  -3 -10 17.4812 45.1924  16
   2   3  10-8.98262 46.2994  15
  -2  -3 -10 14.5502 40.8952   3
   2   3  10 82.2506 52.8483  14
  -2  -3 -10 105.353 61.5807   6
   2   3  10 80.2881 54.5180  11
   2   3  10 50.9375 46.4420  10
  -2  -3 -10 18.7525 52.2248   8
  -2  -3 -11 650.667 110.970   6
   2   3  11 730.692 115.556  15
  -2  -3 -11 516.632 94.0325   3
   2   3  12 113.005 70.6379  14
   2   3  12 91.6867 70.1009  11
   2   3  13 111.308 78.5472  14
  -2  -4  15-7.00299 57.4407   4
   2   4 -15-4.89306 49.1756  16
  -2  -4  15-30.1823 68.3747  15
   2   4 -15-57.0651 55.0532   2
   2   4 -15 24.4770 53.6079  13
  -2  -4  15 38.7223 63.6599   1
  -2  -4  14-31.1258 58.9277   4
   2   4 -14 83.6013 56.5424  16
  -2  -4  14 24.3238 63.1784   1
  -2  -4  14 26.7905 62.8226  15
   2   4 -14 37.8042 48.4758   2
   2   4 -14 6.00030 50.9743  13
  -2  -4  13 20.8600 59.5747  15
  -2  -4  13-11.8733 56.7173   4
  -2  -4  13 8.72450 55.6561   1
   2   4 -13 6.86628 43.6958   2
   2   4 -13 3.64286 47.7698  13
   2   4 -13 44.1571 51.5822  16
   2   4 -12 97.2587 50.9463  16
  -2  -4  12 42.8321 50.5052   4
   2   4 -12 9.62272 62.0084  13
   2   4 -12 90.2381 53.5270   2
  -2  -4  12 33.8890 58.7669   1
  -2  -4  12 23.1240 49.5930  15
  -2  -4  12 48.3282 43.4773   5
   2   4 -11-102.021 44.3650  16
  -2  -4  11-11.0974 47.7811   4
   2   4 -11 85.4332 54.7840  13
   2   4 -11-15.4449 38.1153   2
  -2  -4  11 3.09209 53.3390   1
  -2  -4  11 58.2650 45.8855   5
  -2  -4  11-48.2899 53.2025  15
   2   4 -10-17.0432 33.8085  16
  -2  -4  10 79.8183 49.8485   4
  -2  -4  10 25.8802 38.9509  15
   2   4 -10 69.7219 47.0482  13
   2   4 -10-41.2551 40.2932   2
  -2  -4  10 73.8302 40.8968   5
  -2  -4  10 15.0160 41.6607   1
   2   4  -9 109.021 43.9699  13
   2   4  -9 169.279 44.8406  16
  -2  -4   9 227.814 58.2034   1
  -2  -4   9 130.343 54.1747   4
  -2  -4   9 128.347 46.4070  15
   2   4  -9 187.898 49.7445   2
  -2  -4   9 152.122 47.6437   5
  -2  -4   8-46.7200 28.9816   8
   2   4  -8-2.76693 28.5419  16
  -2  -4   8-46.7910 36.2841  15
   2   4  -8-30.1589 34.5851  13
  -2  -4   8 59.9853 40.2536   1
   2   4  -8 7.87809 25.3749  10
   2   4  -8-10.9759 30.2198   2
  -2  -4   8-17.1240 36.8208   4
  -2  -4   8 13.8953 31.9484   5
  -2  -4   7-19.0570 24.8101   8
   2   4  -7 20.3690 23.6897  16
  -2  -4   7 40.0334 36.6546   4
   2   4  -7 51.5680 32.5977  13
   2   4  -7 77.4480 31.0301   2
  -2  -4   7 23.4597 32.1833   5
  -2  -4   7 36.1295 30.8212   1
  -2  -4   6 935.684 73.2898   1
   2   4  -6 813.780 42.1800   3
   2   4  -6 849.480 78.8542  13
   2   4  -6 841.184 83.0108  12
  -2  -4   6 902.571 91.7531   5
  -2  -4   6 963.184 72.2497   8
  -2  -4   6 958.021 87.7445   4
   2   4  -6 830.852 68.5322   2
  -2  -4   5 537.016 54.2844   1
   2   4  -5 424.649 25.5690   3
   2   4  -5 543.269 61.3053  13
   2   4  -5 454.906 58.6164  12
  -2  -4   5 546.398 68.4889   5
  -2  -4   5 538.809 54.8479   8
  -2  -4   5 553.966 66.0878   4
   2   4  -5 538.562 53.1124   2
  -2  -4   4 105.611 30.1738   8
  -2  -4   4 149.408 39.2408   4
   2   4  -4 105.189 33.6769  13
   2   4  -4 77.3558 29.7146  12
  -2  -4   4 114.275 27.2385   1
   2   4  -4 82.3947 10.5816   3
   2   4  -4 86.3416 24.0710   2
  -2  -4   4 104.305 36.4142   5
  -2  -4   3 75.4462 28.4508   8
  -2  -4   3 85.8056 31.9334   4
   2   4  -3 49.9932 23.8847  13
   2   4  -3 91.7449 30.2288  12
  -2  -4   3 77.3892 22.1089   1
   2   4  -3 25.6100 15.1487   2
  -2  -4   3 69.1934 31.6171   5
   2   4  -2 490.604 39.4853   2
  -2  -4   2 284.573 43.0682   7
  -2  -4   2 523.561 40.5781   1
  -2  -4   2 447.934 61.3335   5
   2   4  -2 515.555 59.5142   9
  -2  -4   2 480.841 53.6634   8
  -2  -4   2 492.582 53.0431   4
  -2  -4   1 131.170 32.5939   8
  -2  -4   1 91.5637 28.8471   7
  -2  -4   1 163.309 35.4618   4
   2   4  -1 134.345 35.6733   9
  -2  -4   1 155.207 38.9351   5
  -2  -4   0 1101.88 86.9401   7
  -2  -4   0 1090.96 86.1139   5
   2   4   0 1290.04 91.0434   9
  -2  -4   0 1076.36 79.8464   8
  -2  -4   0 821.713 59.7872   4
  -2  -4  -1 20.4827 24.2094   8
  -2  -4  -1 28.5953 26.0172   7
   2   4   1 43.0135 27.7131   9
  -2  -4  -1 5.66578 22.2819   5
  -2  -4  -2 95.1020 36.6510   8
  -2  -4  -2 29.6602 28.3610   7
   2   4   2 61.9260 30.0316   9
  -2  -4  -2 64.8969 28.7930   5
  -2  -4  -3 277.960 51.3349   8
  -2  -4  -3 213.093 44.9848   7
  -2  -4  -3 138.972 43.2123   6
  -2  -4  -3 246.232 46.0059   5
  -2  -4  -4 831.290 94.0055   6
  -2  -4  -4 1085.22 86.8844   5
  -2  -4  -4 991.667 94.5982   8
  -2  -4  -5-64.6314 44.7780   8
  -2  -4  -5-41.3338 29.6287  16
   2   4   5 44.5481 26.2833  15
  -2  -4  -5 42.9178 30.2570   6
  -2  -4  -5-18.6359 28.6051   5
  -2  -4  -6 48.1765 41.7356   8
  -2  -4  -6 56.8807 33.3692  16
   2   4   6 56.7134 30.8195  15
   2   4   6 93.1534 46.8053  14
  -2  -4  -6 40.2583 37.0601   6
  -2  -4  -6 93.7690 38.8211   5
  -2  -4  -7 38.7093 34.1128  16
   2   4   7 41.4642 37.6162  15
   2   4   7-1.55341 45.2729  14
  -2  -4  -7-15.2559 45.3793   6
  -2  -5  13-26.5473 55.7919   4
  -2  -5  12 127.562 60.3718   4
   2   5 -12 10.6383 55.3458  13
   2   5 -12 70.8203 59.3150   2
  -2  -5  12 54.4513 66.1707   1
  -2  -5  11-63.2829 58.8447   4
  -2  -5  11 6.50807 63.8838   1
   2   5 -11-17.2287 49.6196   2
   2   5 -11 76.2587 53.5879  13
  -2  -5  11 10.4932 42.0818   5
  -2  -5  10 49.4589 60.9735   4
   2   5 -10 83.5889 51.0136  13
   2   5 -10 3.57223 43.3350   2
  -2  -5  10 29.3428 57.7273   1
  -2  -5  10-11.3286 45.9407   5
  -2  -5   9-46.7153 62.7082   1
  -2  -5   9-8.92142 51.7536   4
   2   5  -9 81.5843 41.3465  13
   2   5  -9 38.2621 38.8769   2
  -2  -5   9 61.1962 45.5509   5
  -2  -5   8 62.9013 36.2606   8
  -2  -5   8-16.3241 46.9979   4
  -2  -5   8 11.3993 46.5137   1
   2   5  -8 108.632 48.7832  13
   2   5  -8 47.4962 43.2587   2
  -2  -5   8-59.7082 57.7493   5
  -2  -5   7-67.4828 49.7714   8
  -2  -5   7 103.501 49.7220   1
  -2  -5   7 16.6929 51.0511   4
   2   5  -7 86.9367 43.4913   2
  -2  -5   7 84.4282 62.7438   5
  -2  -5   6 151.482 63.8461   5
  -3  -1   4 337.014 62.2477   7
  -3  -1   4 403.640 74.2176   5
  -3  -1   3 330.040 56.0978   7
  -3  -1   3 285.498 59.8791   5
  -3  -1   2-8.85693 23.6259   7
  -3  -1   2 8.46713 21.8805   6
  -3  -1   2 10.2966 30.3950   5
  -3  -1   1 1143.94 92.0921   7
  -3  -1   1 1123.45 82.9398   6
   3   1  -1 1213.81 95.5710  10
  -3  -1   1 1138.43 93.8145   8
  -3  -1   0 2281.49 130.820   7
  -3  -1   0 2234.23 121.434   6
  -3  -1   0 1984.43 108.274   3
   3   1   0 2385.54 130.444  10
  -3  -1   0 2257.07 127.002   8
  -3  -1  -1-7.92785 29.9558   7
  -3  -1  -1-53.5857 31.2538   6
   3   1   1 7.81394 26.3477  10
  -3  -1  -1-22.1747 27.9558   3
  -3  -1  -1 24.3915 27.4757   8
   3   1   2 216.018 22.6167   1
  -3  -1  -2 168.638 46.7415   7
  -3  -1  -2 310.754 49.1307   3
  -3  -1  -2 296.628 53.6378   6
   3   1   2 237.809 45.6876  10
  -3  -1  -2 226.902 46.6884   8
  -3  -1  -2 245.247 22.8175   2
  -3  -1  -3 2622.49 149.960   7
   3   1   3 2509.53 75.1275   1
  -3  -1  -3 2567.15 144.887   6
  -3  -1  -3 2551.91 127.348   3
   3   1   3 2603.03 144.712  10
  -3  -1  -3 2400.82 138.221   8
  -3  -1  -3 2503.48 77.2575   2
   3   1   4 367.292 37.2388   1
  -3  -1  -4 403.233 66.1610   7
  -3  -1  -4 284.486 56.2092   6
   3   1   4 269.856 52.4729  11
  -3  -1  -4 289.046 33.7351   2
   3   1   4 400.540 63.3471  10
  -3  -1  -4 287.770 50.2153   3
  -3  -1  -4 322.716 60.2845   8
  -3  -1  -5 232.021 51.4625   7
  -3  -1  -5 174.620 48.4629   6
  -3  -1  -5 219.284 37.3004   2
   3   1   5 168.528 48.6966  11
   3   1   5 173.505 47.3309  10
  -3  -1  -5 174.571 44.9069   3
  -3  -1  -5 109.385 43.1657   8
  -3  -1  -6 513.606 76.9198   7
   3   1   6 280.640 62.0334  14
  -3  -1  -6 467.219 76.7767   6
   3   1   6 391.375 66.9523  11
  -3  -1  -6 425.784 68.4869   3
  -3  -1  -6 414.386 53.2158   2
  -3  -1  -7 61.4698 45.4143   7
   3   1   7 8.59089 36.9541  14
  -3  -1  -7 81.1459 38.0764   2
  -3  -1  -7 117.550 54.4997   6
   3   1   7 65.4159 48.2494  11
  -3  -1  -7 50.7727 41.2390   3
  -3  -1  -8 76.5838 50.6222   7
   3   1   8 4.02425 39.4581  14
  -3  -1  -8-0.74214 42.4833   6
  -3  -1  -8 42.0189 44.6629   3
   3   1   8-34.6061 46.5500   9
  -3  -1  -9 55.6907 49.4640   7
  -3  -1  -9-61.6066 50.7962   6
  -3  -1  -9 25.7032 40.9482   3
   3   1   9-36.3905 46.3978   9
   3   1  10 11.5666 49.5695  14
  -3  -1 -10 10.4133 51.8522   6
  -3  -1 -10 90.6830 55.0534   3
   3   1  11 89.3749 60.3053  14
  -3  -1 -11 26.7886 54.4860   6
  -3  -1 -11 33.9772 52.3086   3
   3   1  12 252.325 81.8470  14
  -3  -1 -12 162.872 78.0833   6
  -3  -1 -12 188.939 70.8856   3
   3   2 -13 234.896 64.5221  16
   3   2 -13 6.65578 71.5172  13
   3   2 -12 16.0985 40.1370  16
  -3  -2  12 7.44919 53.1754  15
   3   2 -12 44.7792 47.9609  13
   3   2 -12-50.6201 56.5169  12
  -3  -2  12-58.4158 49.3403   4
  -3  -2  11 7.26008 49.4581  15
   3   2 -11-30.4499 42.4375  13
   3   2 -11-7.66277 37.5424  12
   3   2 -11-62.2197 46.8125  16
  -3  -2  11 21.0445 46.8224   4
   3   2 -10 19.1634 37.0292  16
  -3  -2  10-22.8014 50.7133  15
   3   2 -10 48.1216 45.0033  13
   3   2 -10 31.2367 37.7517  12
  -3  -2  10-14.6047 41.4824   4
   3   2  -9 49.3413 38.1120  16
  -3  -2   9 17.3715 40.6905  15
  -3  -2   9 28.9297 32.0553   7
   3   2  -9 71.8259 44.4140  13
   3   2  -9 56.6681 38.2808  12
  -3  -2   9 62.6636 51.4683   5
   3   2  -9-9.28408 29.9499   9
  -3  -2   9 87.8320 47.9553   4
  -3  -2   8 318.560 60.4569   4
   3   2  -8 189.078 45.5077  16
  -3  -2   8 312.264 58.8286  15
  -3  -2   8 311.708 54.3503   7
   3   2  -8 252.292 53.6630  13
   3   2  -8 218.679 52.2732  12
  -3  -2   8 397.332 74.7318   5
   3   2  -7 259.081 44.6955  16
  -3  -2   7 354.278 56.4049  15
   3   2  -7 318.129 55.8047  13
  -3  -2   7 466.599 79.4229   5
  -3  -2   6 46.4358 30.6633   4
   3   2  -6 6.05391 20.7336  16
  -3  -2   6 22.6061 28.1238  15
  -3  -2   6 28.2460 34.6425   7
   3   2  -6 34.3784 29.1712  13
  -3  -2   6 7.63443 13.3977   6
  -3  -2   6 20.3932 28.9795   5
  -3  -2   5 7.47988 27.4130   4
   3   2  -5 17.1461 18.6855  16
  -3  -2   5 0.11620 18.8650  15
  -3  -2   5 21.9581 29.1603   7
   3   2  -5 11.1723 24.3183  13
  -3  -2   5 0.56228 19.0567   6
  -3  -2   5 37.3570 30.8370   5
   3   2  -5 0.93487 32.9364  10
  -3  -2   5 35.7745 30.5359   8
   3   2  -4 1232.76 59.8752  16
  -3  -2   4 1532.28 102.365   7
  -3  -2   4 1388.01 65.3526  15
  -3  -2   4 1630.97 78.1064   6
   3   2  -4 1436.91 88.0961  13
  -3  -2   4 1503.47 108.119   5
  -3  -2   4 1606.20 102.855   8
  -3  -2   4 1560.97 99.1086   4
   3   2  -3 230.993 25.7826  16
  -3  -2   3 197.431 23.8506  15
  -3  -2   3 261.451 46.5981   7
   3   2  -3 247.716 38.6653  13
  -3  -2   3 245.908 36.4053   6
  -3  -2   3 241.615 48.3099   5
   3   2  -3 232.025 44.3324  10
  -3  -2   3 221.800 43.3274   8
  -3  -2   3 251.972 42.3359   4
   3   2  -2 487.698 28.8506  16
  -3  -2   2 619.548 66.0321   7
  -3  -2   2 544.880 31.0139  15
  -3  -2   2 592.020 53.6877   6
   3   2  -2 561.932 51.3341  13
  -3  -2   2 507.344 29.1036   3
  -3  -2   2 560.945 65.4691   5
   3   2  -2 578.234 63.4171  10
  -3  -2   2 557.354 62.3838   8
  -3  -2   2 446.605 50.7361   4
  -3  -2   1 2514.31 131.677   7
  -3  -2   1 2515.95 111.116   6
   3   2  -1 2526.09 99.1967  13
  -3  -2   1 2371.22 71.0036   3
  -3  -2   1 2577.40 130.998   5
   3   2  -1 2550.06 125.771  10
  -3  -2   1 2594.20 126.143   8
  -3  -2   0 562.163 58.1463   6
   3   2   0 534.346 44.6682  13
  -3  -2   0 576.457 42.6079   3
  -3  -2   0 526.995 63.3274   5
   3   2   0 559.459 59.3860  11
  -3  -2   0 560.452 65.0510   7
   3   2   0 483.012 59.8519  10
  -3  -2   0 562.109 64.2229   8
  -3  -2  -1 188.814 45.2365   7
   3   2   1 192.846 28.2719  13
  -3  -2  -1 160.517 37.4607   6
   3   2   1 194.862 43.3179  11
  -3  -2  -1 194.593 41.0010   5
   3   2   1 200.477 43.1882  10
  -3  -2  -1 189.848 30.3735   3
  -3  -2  -1 167.539 41.8657   8
  -3  -2  -2 52.1352 36.0428   7
   3   2   2 16.6303 16.1989  13
   3   2   2 9.70845 21.7537  12
  -3  -2  -2 6.74891 28.7045   6
   3   2   2 42.3511 31.4887  11
  -3  -2  -2 68.7191 32.2932   5
   3   2   2 68.5626 31.4454  10
  -3  -2  -2 24.2635 20.1119   3
  -3  -2  -2 22.5959 29.6057   8
  -3  -2  -3 1530.93 112.787   7
   3   2   3 1594.02 111.575  14
  -3  -2  -3 1263.14 96.4011   6
  -3  -2  -3 1289.27 84.4976   3
   3   2   3 1384.89 88.1023  12
  -3  -2  -3 1344.68 98.9827   5
   3   2   3 1263.32 95.4881  11
   3   2   3 1374.53 99.5459  10
  -3  -2  -3 1399.83 101.871   8
  -3  -2  -4 939.107 94.5051   7
   3   2   4 922.635 84.7771  14
  -3  -2  -4 858.434 86.2072   6
  -3  -2  -4 896.838 76.1919   3
   3   2   4 895.190 70.9171  12
   3   2   4 909.147 85.0597  11
   3   2   4 842.155 80.5402  10
  -3  -2  -4 855.216 81.5165   8
  -3  -2  -5 19.0395 36.0112   7
   3   2   5 22.7233 30.8100  14
  -3  -2  -5 30.1538 37.8496   6
   3   2   5-17.7426 22.5346  12
   3   2   5-6.33216 33.6653  11
  -3  -2  -5-51.7411 33.4902   3
   3   2   5 31.5124 34.0887  10
   3   2   5 14.8802 34.4135   9
  -3  -2  -5-10.0490 30.3525   8
  -3  -2  -6 25.7051 37.0173   7
   3   2   6 44.4134 34.8506  14
  -3  -2  -6 79.4572 38.9189   6
   3   2   6-10.2673 39.1079  11
  -3  -2  -6 2.75183 29.8458   3
   3   2   6 61.9383 35.8457  10
   3   2   6-20.0724 37.5263   9
  -3  -2  -6 49.8471 37.0048   8
  -3  -2  -7 3.05802 37.4224   7
   3   2   7-37.3657 40.4369  14
  -3  -2  -7 28.1344 42.5843   6
   3   2   7-57.9680 43.9469  11
  -3  -2  -7 20.0336 33.9605   3
   3   2   7 51.8773 36.8205  10
   3   2   7-2.33494 34.3610   9
  -3  -2  -7-7.68859 40.2975   8
  -3  -2  -8 1.98386 40.2149   7
   3   2   8 1.40605 35.3434  14
  -3  -2  -8-20.1194 45.3744   6
   3   2   8 135.200 50.6953  11
  -3  -2  -8 61.4116 41.1137   3
   3   2   8 98.0684 43.2228  10
   3   2   8 122.497 48.1962   9
  -3  -2  -8 57.5441 42.3012   8
  -3  -2  -9 70.9000 49.8843   7
   3   2   9 61.3532 45.7432  14
  -3  -2  -9 84.5053 58.3891   6
  -3  -2  -9 55.3280 45.4886   3
   3   2   9 10.6750 45.5968  11
   3   2   9 56.9134 48.7949  10
   3   2   9-30.0763 44.5909   9
  -3  -2  -9 4.99493 47.0711   8
   3   2  10 64.6371 52.0333  14
  -3  -2 -10 0.48405 45.2236   6
  -3  -2 -10 14.7278 43.8947   3
   3   2  10 86.6815 53.3915  11
   3   2  11 112.646 60.7937  14
  -3  -2 -11 252.043 76.9940   6
  -3  -2 -11 46.1085 48.3017   3
   3   2  11 101.415 62.0367  11
   3   2  12 33.3145 62.6683  14
  -3  -2 -12-3.79993 63.5740   6
  -3  -2 -12 95.4996 58.2203   3
   3   2  12 69.5389 62.2825  11
   3   3 -14-133.227 80.6866   2
   3   3 -14 123.879 67.0024  16
  -3  -3  14 3.19439 64.8509  15
   3   3 -14-20.1344 68.0005  13
  -3  -3  14 18.2508 55.8079   4
   3   3 -13 173.516 77.7539   2
   3   3 -13 84.4404 53.4768  16
  -3  -3  13-50.3041 77.7285  15
  -3  -3  13-159.590 69.2589   1
   3   3 -13 6.86698 54.7132  13
   3   3 -13 144.132 82.2844  12
  -3  -3  13-122.313 70.9323   4
  -3  -3  12-26.5535 54.5343   4
   3   3 -12-59.0202 50.8986  16
   3   3 -12-9.66677 44.7292   2
  -3  -3  12-29.3792 67.5674  15
  -3  -3  12-44.7507 48.3931   1
   3   3 -12 10.7258 47.4440  13
   3   3 -12 81.5112 50.6664  12
  -3  -3  12-54.4906 55.5907   5
  -3  -3  11 160.203 64.0577   4
   3   3 -11 7.24437 38.3109  16
   3   3 -11 23.5671 38.4831   2
  -3  -3  11 144.783 59.7037  15
  -3  -3  11 40.0435 41.9571   1
   3   3 -11 140.802 60.7340  13
   3   3 -11 118.884 54.7088  12
  -3  -3  11 78.6356 56.4485   5
  -3  -3  10 43.4512 42.3231   4
   3   3 -10 29.9644 37.9446  16
   3   3 -10-29.0395 38.9429   2
  -3  -3  10 37.0694 42.0195  15
   3   3 -10 57.8040 46.2465  13
  -3  -3  10-82.0626 45.2062   1
   3   3 -10-30.5205 41.2131  12
  -3  -3  10-0.98514 38.2519   5
  -3  -3   9 172.731 54.3725   4
   3   3  -9 111.939 34.6147  16
  -3  -3   9 125.842 43.7553   7
   3   3  -9 194.537 51.9285   2
  -3  -3   9 129.605 46.4320  15
   3   3  -9 222.924 57.0225  13
  -3  -3   9 198.359 52.2777   1
   3   3  -9 243.702 57.8291  12
  -3  -3   9 194.382 55.9827   5
  -3  -3   8-32.0396 38.4564   4
   3   3  -8-9.88470 31.2429  16
   3   3  -8 51.7963 31.8694   2
  -3  -3   8 59.8041 32.7783   7
  -3  -3   8-21.8798 31.6222  15
   3   3  -8 44.3489 36.8069  13
  -3  -3   8 10.8016 29.5984   1
   3   3  -8-50.8229 41.3628  12
  -3  -3   8 23.8413 38.5219   5
   3   3  -8 43.9207 34.5943   9
   3   3  -6 38.5726 26.1069  16
  -3  -3   6 51.4515 34.2025   4
   3   3  -6 25.0727 25.8015   2
  -3  -3   6 36.0685 29.8399  15
  -3  -3   6 62.6875 34.4828   7
  -3  -3   6 44.9293 32.1843   1
   3   3  -6-2.38536 32.8734  13
   3   3  -6 10.7565 29.7864  12
   3   3  -6 0.12261 26.9664  10
  -3  -3   6-53.3837 44.2407   5
   3   3  -6 45.5813 32.1182   9
  -3  -3   6-13.8047 30.1979   8
   3   3  -5 93.7788 36.4126   2
   3   3  -5 144.871 30.6443  16
  -3  -3   5 108.693 36.2629   4
  -3  -3   5 131.534 32.2477  15
  -3  -3   5 126.618 39.6225   7
   3   3  -5 63.8140 31.2106  13
   3   3  -5 115.615 39.5606  12
   3   3  -5 0.92291 41.8688  10
  -3  -3   5 45.0629 31.1206   5
   3   3  -5 111.913 35.1323   9
  -3  -3   5 184.670 42.8616   8
   3   3  -4 49.4806 23.4504  16
  -3  -3   4 35.6555 27.9950   4
  -3  -3   4 64.0570 26.5196  15
  -3  -3   4 42.6451 23.8480   6
   3   3  -4 47.5350 27.1681  13
   3   3  -4 45.6398 32.1487  12
   3   3  -4-0.87514 29.8882  10
  -3  -3   4 61.0864 34.2267   5
   3   3  -4 54.6889 30.2611   9
  -3  -3   4 21.8231 31.9781   7
  -3  -3   4 40.6270 32.5473   8
  -3  -3   3 12.8612 24.1347   4
  -3  -3   3-6.81412 29.2322   7
   3   3  -3-15.2496 24.7637  13
  -3  -3   3 11.2716 19.7544   6
   3   3  -3-32.1585 30.4138  12
   3   3  -3-38.6834 26.9067  11
   3   3  -3 30.7341 28.4540  10
  -3  -3   3 19.6814 26.2116   5
   3   3  -3-3.68692 28.8172   9
  -3  -3   3 2.26641 26.8629   8
  -3  -3   2 14.4960 21.5123   4
  -3  -3   2 24.5156 30.2352   7
   3   3  -2 42.7081 26.6652  13
  -3  -3   2-5.30619 22.8756   6
   3   3  -2 9.99746 23.4903  12
   3   3  -2-9.33312 24.3813  11
   3   3  -2 15.1054 27.4254  10
  -3  -3   2-3.61901 26.7321   5
   3   3  -2 31.3702 30.1861   9
  -3  -3   2-29.5633 27.8251   8
  -3  -3   1 7.81900 20.1187   4
  -3  -3   1 39.0899 31.6828   7
   3   3  -1 29.8518 20.6381  13
  -3  -3   1 52.8718 26.9250   6
   3   3  -1 23.7137 25.4568  12
   3   3  -1-13.0076 27.1808  11
   3   3  -1 84.2257 34.6330  10
  -3  -3   1 11.2500 26.0466   5
   3   3  -1 10.1679 25.5378   9
  -3  -3   1 25.1127 31.1042   8
  -3  -3   0 562.856 68.7844   7
  -3  -3   0 545.237 59.1584   6
   3   3   0 559.394 50.5694  13
   3   3   0 533.759 63.5649  12
   3   3   0 513.729 57.4031  11
  -3  -3   0 500.541 60.5159   5
   3   3   0 609.468 69.1132  10
  -3  -3   0 428.315 43.3625   3
   3   3   0 561.824 64.6688   9
  -3  -3   0 541.665 65.2543   8
  -3  -3   0 586.088 51.1909   4
  -3  -3  -1 81.2819 38.2362   7
   3   3   1 47.0881 24.7913  14
  -3  -3  -1 41.4730 28.0750   6
  -3  -3  -1-3.56270 21.3477   3
   3   3   1 55.5036 33.1223  12
   3   3   1 40.9678 30.9715  11
   3   3   1 76.4843 36.6038  10
  -3  -3  -1 83.0208 34.4884   5
   3   3   1 31.8995 28.7277   9
  -3  -3  -1 106.122 29.1371   4
  -3  -3  -1 25.0855 29.7789   8
  -3  -3  -2 314.659 58.3791   7
   3   3   2 265.368 40.0626  14
  -3  -3  -2 263.412 49.5402   6
   3   3   2 309.199 49.1028  12
  -3  -3  -2 296.420 41.0104   3
   3   3   2 296.269 49.5210  11
   3   3   2 303.390 53.0246  10
  -3  -3  -2 315.657 51.1020   5
   3   3   2 322.543 54.1147   9
  -3  -3  -2 209.979 45.8516   8
  -3  -3  -3 679.619 78.8183   7
   3   3   3 563.669 59.8041  14
  -3  -3  -3 628.828 72.8919   6
  -3  -3  -3 518.662 54.8367   3
   3   3   3 627.997 65.3102  12
   3   3   3 524.289 66.2139  11
  -3  -3  -3 504.158 58.0663   5
   3   3   3 603.804 70.5699  10
   3   3   3 778.735 79.8421   9
  -3  -3  -3 650.160 73.2292   8
  -3  -3  -4 302.118 57.1827   7
   3   3   4 350.273 54.8882  14
  -3  -3  -4 367.866 53.8248   3
  -3  -3  -4 361.408 62.5722   6
   3   3   4 381.371 50.8941  12
  -3  -3  -4 372.434 53.7224   5
   3   3   4 423.603 66.2748  11
   3   3   4 314.688 55.5919  10
   3   3   4 385.403 60.3764   9
  -3  -3  -4 325.438 56.3445   8
  -3  -3  -5 1216.18 105.874   7
   3   3   5 1125.16 95.4394  14
  -3  -3  -5 1034.49 99.2933   6
  -3  -3  -5 1095.15 88.8201   3
  -3  -3  -5 1232.69 94.3551   5
   3   3   5 1130.49 100.372  11
   3   3   5 1072.46 94.9401  10
   3   3   5 1234.78 101.552   9
  -3  -3  -5 1138.58 98.6132   8
  -3  -3  -6 97.6063 49.8969   7
   3   3   6 62.0775 39.4955  14
  -3  -3  -6 72.2085 47.2460   6
  -3  -3  -6 34.2789 37.1993   3
   3   3   6 60.6064 47.2584  11
   3   3   6-1.43834 32.7119  10
   3   3   6 166.377 52.1097   9
  -3  -3  -6 46.3657 44.1684   8
  -3  -3  -7 1672.82 125.709   7
   3   3   7 1762.37 131.865  14
  -3  -3  -7 1664.69 133.674   6
  -3  -3  -7 1703.07 126.276   3
   3   3   7 1749.11 134.837  11
   3   3   7 1629.82 119.460  10
   3   3   7 1700.30 122.643   9
  -3  -3  -7 1739.55 125.898   8
  -3  -3  -8 290.762 60.4476   7
   3   3   8 199.034 58.4531  14
  -3  -3  -8 368.455 76.8819   6
  -3  -3  -8 251.681 60.3777   3
   3   3   8 224.955 63.4164  11
   3   3   8 262.944 54.3214  10
   3   3   8 247.891 56.0596   9
  -3  -3  -8 246.158 61.2712   8
  -3  -3  -9 185.324 62.4179   7
   3   3   9 160.796 55.0566  14
  -3  -3  -9 166.148 62.6484   6
  -3  -3  -9 135.505 56.2026   3
   3   3   9 153.270 62.1323  11
   3   3   9 150.340 53.7769  10
   3   3   9 211.134 62.1254   9
  -3  -3  -9 108.311 54.6357   8
   3   3  10-73.5763 55.3472  14
  -3  -3 -10 26.3794 56.2270   6
  -3  -3 -10-80.8823 56.2652   3
   3   3  10 61.8690 59.7393  11
   3   3  10-38.6171 51.5238  10
  -3  -3 -10-28.9133 66.4679   8
   3   3  11 183.599 75.8754  14
  -3  -3 -11 265.396 82.6137   6
  -3  -3 -11 297.628 84.4230   3
   3   3  11 162.179 71.7815  11
   3   3  12 46.9688 70.0477  14
  -3  -3 -12-109.388 85.1275   6
  -3  -3 -12 17.2568 52.9160   3
   3   3  12 23.9151 59.6243  11
  -3  -4  14-12.5836 60.5962   4
   3   4 -14 22.5861 51.7165  16
   3   4 -14 32.4172 54.8649   2
  -3  -4  14 51.2576 67.6114  15
   3   4 -14 0.98216 54.0982  13
  -3  -4  14 7.76347 59.1027   1
  -3  -4  13 14.7720 58.3467   4
   3   4 -13 59.2753 51.4121  16
   3   4 -13 3.92761 46.0789   2
  -3  -4  13-23.1166 68.0341  15
   3   4 -13-11.9403 61.1076  13
  -3  -4  13-127.479 59.8769   1
  -3  -4  13-3.28600 51.8530   5
  -3  -4  12 39.9257 54.2517   4
   3   4 -12-30.9346 45.7789  16
  -3  -4  12 60.3208 64.3589  15
   3   4 -12-39.7568 42.3212   2
   3   4 -12 2.87285 47.6653  13
   3   4 -12-19.7239 41.0898  12
  -3  -4  12-45.5073 46.5020   1
  -3  -4  12-76.4726 46.2465   5
  -3  -4  11 25.1616 48.9529   4
  -3  -4  11 60.7695 46.1464  15
   3   4 -11-56.2300 42.3473   2
   3   4 -11-30.6041 43.5668  13
   3   4 -11-5.85381 36.2278  12
   3   4 -11-102.490 45.6215  16
  -3  -4  11-18.6819 37.1886   1
  -3  -4  11 4.67978 41.5702   5
   3   4 -10 1.75305 34.3328  16
  -3  -4  10 40.1420 46.1123   4
  -3  -4  10 20.8411 42.2052  15
   3   4 -10 15.6319 33.3699   2
   3   4 -10 72.4261 47.2483  13
   3   4 -10 23.9753 37.7115  12
  -3  -4  10 9.68596 41.5614   5
  -3  -4  10 32.1131 33.2666   1
   3   4  -9-46.4136 36.7464  16
  -3  -4   9-69.2816 51.0061   4
  -3  -4   9-52.9563 45.7009  15
   3   4  -9-28.9374 35.9417   2
   3   4  -9-19.4408 41.3693  13
   3   4  -9 61.5711 39.8978  12
  -3  -4   9 17.0430 44.1783   5
  -3  -4   9-21.0566 33.2967   1
   3   4  -8 32.7863 33.3576  16
  -3  -4   8-8.09547 40.6115   4
  -3  -4   8 1.66067 36.8525  15
   3   4  -8 80.6509 31.5343   2
   3   4  -8 23.4728 37.3565  13
   3   4  -8-20.2857 39.8225  12
   3   4  -8-0.06497 30.9439  10
  -3  -4   8 18.2703 38.4639   5
  -3  -4   8 17.6400 29.5695   1
  -3  -4   8 49.6952 35.6215   8
   3   4  -7 97.6022 37.8732  16
  -3  -4   7 39.8807 28.2462   7
  -3  -4   7 56.2786 38.3008   4
  -3  -4   7 112.233 46.6861  15
   3   4  -7 108.052 34.4678   2
   3   4  -7 62.5806 37.8157  13
   3   4  -7 62.1031 42.9234  12
   3   4  -7 17.0112 35.5879  10
  -3  -4   7 54.1953 41.3663   5
   3   4  -7 81.4389 37.0590   9
  -3  -4   7 66.3577 26.6075   1
  -3  -4   7 12.9420 33.5920   8
  -3  -4   6 74.2120 36.0155   7
  -3  -4   6 35.0454 39.1109   4
   3   4  -6 49.5897 25.1715   2
   3   4  -6 34.0050 34.7851  13
   3   4  -6 89.1458 41.9227  12
   3   4  -6-0.06701 36.8743  10
  -3  -4   6 48.7096 41.0004   5
   3   4  -6 84.1304 36.3600   9
  -3  -4   6 59.7514 29.0514   1
  -3  -4   6 56.1999 36.4280   8
  -3  -4   5 17.2586 27.5994   7
  -3  -4   5-35.7151 33.5657   4
   3   4  -5-14.4189 21.0618   2
   3   4  -5-28.9363 33.8940  13
   3   4  -5-15.7422 29.4870  12
   3   4  -5-4.45663 29.0502  10
  -3  -4   5-7.16724 20.8112   1
  -3  -4   5-29.0570 35.6669   5
   3   4  -5 8.46564 27.4123   9
  -3  -4   5-7.34409 31.6413   8
  -3  -4   4 1402.44 103.726   7
   3   4  -4 1299.10 94.9651  13
   3   4  -4 1318.65 105.712  12
   3   4  -4 1295.70 74.9419  11
  -3  -4   4 1411.06 111.375   5
   3   4  -4 1385.54 99.2593   9
   3   4  -4 1290.42 69.9825   2
  -3  -4   4 1360.36 100.017   8
  -3  -4   4 1351.43 95.6237   4
  -3  -4   4 956.982 59.7024   1
  -3  -4   3 42.8089 34.5930   8
  -3  -4   3 53.9164 35.8685   7
  -3  -4   3 1.05414 26.7536   4
   3   4  -3 4.02771 28.6061  13
   3   4  -3-23.3722 30.7564  12
   3   4  -3 21.6863 23.6243  11
  -3  -4   3 59.5963 36.7212   5
   3   4  -3 25.5653 28.9787   9
  -3  -4   2 320.290 53.3014   8
  -3  -4   2 303.046 55.7228   7
  -3  -4   2 317.668 47.8458   4
  -3  -4   2 194.250 41.3954   6
   3   4  -2 286.619 46.7912  13
   3   4  -2 321.570 55.3307  12
   3   4  -2 281.884 43.2237  11
   3   4  -2 299.818 52.4354   9
  -3  -4   2 283.837 53.6082   5
  -3  -4   1 53.0696 31.1567   8
  -3  -4   1 121.909 41.2959   7
  -3  -4   1 63.4970 28.2415   4
  -3  -4   1 100.132 34.5841   6
   3   4  -1 66.6282 33.1817  12
   3   4  -1 113.950 34.4567  11
   3   4  -1 87.4115 33.9609   9
  -3  -4   1 56.7282 31.5649   5
  -3  -4   0 841.724 84.9901   7
   3   4   0 808.352 79.3474  12
  -3  -4   0 925.338 84.9257   6
   3   4   0 840.198 73.5187  11
  -3  -4   0 787.494 76.1084   5
   3   4   0 836.065 80.1932   9
  -3  -4   0 758.532 75.7373   8
  -3  -4   0 781.837 58.8503   4
  -3  -4  -1 81.5687 33.5836   8
  -3  -4  -1 62.6779 23.7443   4
  -3  -4  -1 61.8074 33.2038   7
   3   4   1 126.849 31.5525  14
  -3  -4  -1 50.7000 29.3942   6
   3   4   1 98.1533 34.8305  12
   3   4   1 69.8276 34.2536  11
  -3  -4  -1 73.7290 31.8570   5
   3   4   1 58.0473 32.0587   9
  -3  -4  -2 47.7110 33.1389   8
  -3  -4  -2 72.2458 25.9363   4
  -3  -4  -2 62.8594 38.1151   7
   3   4   2-5.86256 21.7013  14
  -3  -4  -2 48.7471 35.9179   6
   3   4   2 34.0748 28.9746  12
   3   4   2 48.3962 35.2854  11
  -3  -4  -2 43.1306 29.1373   5
   3   4   2 51.3251 34.4639   9
  -3  -4  -3 12.7342 30.6487   8
  -3  -4  -3 66.8260 41.7398   7
   3   4   3 50.9532 27.9533  14
  -3  -4  -3 87.4196 43.2398   6
   3   4   3 10.8021 33.2341  11
  -3  -4  -3 34.3989 29.5028   5
   3   4   3 70.0247 40.1442   9
  -3  -4  -4 260.784 56.7806   8
  -3  -4  -4 248.414 57.1757   7
   3   4   4 191.068 43.5231  14
  -3  -4  -4 242.981 58.6526   6
   3   4   4 211.090 51.0346  11
  -3  -4  -4 329.986 58.4547   5
   3   4   4 265.035 55.9183   9
  -3  -4  -5 114.046 52.9924   8
  -3  -4  -5 100.805 51.1202   7
   3   4   5 69.7691 39.8172  14
  -3  -4  -5 56.2946 47.2219   6
   3   4   5 112.228 50.5137  11
   3   4   5 135.789 54.2612  10
  -3  -4  -5 78.9862 41.5098   5
   3   4   5 81.8438 43.3119   9
  -3  -4  -6 192.667 61.0095   8
  -3  -4  -6 195.278 54.7495   7
   3   4   6 209.285 55.1652  14
  -3  -4  -6 204.127 63.2825   6
   3   4   6 197.409 59.8850  11
   3   4   6 217.056 61.9661  10
   3   4   6 270.540 60.7394   9
  -3  -4  -7 190.175 61.0148   7
   3   4   7 194.922 57.2378  14
  -3  -4  -7 205.112 62.9189   6
   3   4   7 225.269 65.0963  11
   3   4   7 221.872 62.4088  10
   3   4   7 289.856 69.9618   9
  -3  -4  -7 255.206 74.1808   8
   3   4   8 484.362 90.0756  14
  -3  -4  -8 386.842 84.3967   6
   3   4   8 619.846 104.499  11
   3   4   8 526.042 88.7982  10
  -3  -4  -8 332.555 81.1551   8
   3   4   9 136.120 67.8260  14
  -3  -4  -9 159.666 68.3228   6
   3   4   9 131.056 74.5220  11
   3   4   9 71.4870 45.7573  10
  -3  -4  -9-61.2211 58.3564   8
   3   4  10 60.2787 78.5795  14
  -3  -4 -10 4.49095 61.1511   6
   3   4  10 166.501 84.1578  11
  -3  -4 -11-16.7713 49.6408   6
   3   4  11-50.9545 83.5935  11
  -3  -5  13-25.2617 73.0802   4
   3   5 -13 63.4812 55.2353   2
   3   5 -13-111.877 66.2722  13
  -3  -5  13 39.0086 51.3976   5
  -3  -5  13-39.5228 66.5664   1
  -3  -5  12-8.60357 59.8672   4
   3   5 -12-1.70903 48.6720   2
   3   5 -12 26.8485 61.7578  13
  -3  -5  12 37.4463 53.6821   5
  -3  -5  12 80.6366 63.2173   1
  -3  -5  11 30.5777 45.0589   1
  -3  -5  11 42.2831 65.2973   4
   3   5 -11 12.7674 37.8838   2
  -3  -5  11-6.15922 47.4642   5
  -3  -5  10 43.5372 56.3001   4
  -3  -5  10-17.3102 43.8839   1
   3   5 -10 63.5696 43.0227   2
   3   5 -10 68.1453 50.0355  13
  -3  -5  10-55.7094 63.2155   5
  -3  -5   9 78.2287 55.6709   4
  -3  -5   9 18.5491 37.8964   1
   3   5  -9 85.0141 48.4723  13
   3   5  -9 35.1942 35.0491   2
  -3  -5   9 53.4851 48.9116   5
  -3  -5   8 493.559 85.6720   4
  -3  -5   8 397.680 63.1596   1
   3   5  -8 417.458 72.3999  13
   3   5  -8 416.823 61.5849   2
   3   5  -8 152.179 69.1435  10
  -3  -5   8 501.975 91.3171   5
  -3  -5   8 552.825 75.9063   8
  -3  -5   7 81.0020 48.0461   8
  -3  -5   7 6.60970 41.9317   4
   3   5  -7 69.7225 44.9611  13
  -3  -5   7-9.40306 34.9727   1
   3   5  -7 29.1087 27.5208   2
   3   5  -7-11.7025 38.2273  12
   3   5  -7-0.53415 36.7440  10
  -3  -5   7-2.52754 43.0682   5
  -3  -5   6 420.536 70.2722   8
  -3  -5   6 359.280 69.0813   4
   3   5  -6 317.638 65.3126  13
   3   5  -6 286.673 46.9742   2
   3   5  -6 287.656 64.1323  12
  -3  -5   6 304.162 47.9390   1
  -3  -5   6 337.595 72.0034   5
  -3  -5   5 58.6462 39.3006   8
  -3  -5   5 24.6079 37.0335   4
   3   5  -5 47.3106 40.8074  13
   3   5  -5 23.0974 33.5305  12
  -3  -5   5 2.88304 24.0136   1
  -3  -5   5-6.19998 39.4050   5
  -3  -5   4 347.192 60.3147   8
  -3  -5   4 237.934 51.9955   7
  -3  -5   4 369.363 60.0717   4
   3   5  -4 278.900 51.8109  13
   3   5  -4 396.899 67.9288  12
  -3  -5   4 321.305 63.3592   5
  -3  -5   3 460.289 70.4072   7
   3   5  -3 501.941 72.7988  12
   3   5  -3 480.169 54.6486  11
  -3  -5   3 464.869 74.3869   5
   3   5  -3 560.401 75.9961   9
  -3  -5   3 512.825 69.4453   8
  -3  -5   3 590.789 69.2034   4
  -3  -5   2 83.3631 40.7805   8
  -3  -5   2 69.9247 40.5696   7
  -3  -5   2 70.8271 34.4874   4
  -3  -5   2 23.9036 30.9135   5
   3   5  -2 63.2409 42.1544   9
  -3  -5   1 268.429 55.7444   8
  -3  -5   1 213.973 51.8963   7
  -3  -5   1 224.822 43.3496   4
  -3  -5   1 247.879 54.8490   5
   3   5  -1 231.346 54.9662   9
  -3  -5   0 225.320 51.6803   8
  -3  -5   0 228.388 54.5027   7
  -3  -5   0 178.959 37.6477   4
  -3  -5   0 246.578 53.7440   5
   3   5   0 231.645 54.4994   9
  -3  -5  -1 61.1653 35.2593   8
  -3  -5  -1 76.1388 43.9028   7
  -3  -5  -1 43.3704 27.7560   4
  -3  -5  -1 57.5549 42.4538   5
   3   5   1 14.1321 34.3131   9
  -3  -5  -2 1894.15 137.286   7
   3   5   2 1823.53 105.616  14
  -3  -5  -2 1722.00 123.344   5
   3   5   2 2265.07 148.571   9
  -3  -5  -2 1725.82 128.202   8
  -3  -5  -3 65.0919 39.5210   8
  -3  -5  -3-6.79867 42.1245   7
   3   5   3 32.7571 28.2405  14
  -3  -5  -3-33.6574 44.0830   5
   3   5   3 102.962 49.4933   9
  -3  -5  -4-2.60277 48.1219   8
  -3  -5  -4 57.0651 43.2360   7
   3   5   4 51.0174 37.5283  14
  -3  -5  -4-22.3462 36.2300   6
  -3  -5  -4-11.8556 44.5723   5
  -3  -5  -5 100.765 65.7020   8
   3   5   5 342.205 75.6909  14
   3   5   6 1438.24 164.752  11
  -3  -6   9 1.19231 71.7552   5
  -3  -6   8 80.6660 88.4205   5
  -3  -6   7 59.7943 80.6397   5
  -4  -2   5 338.684 102.041   7
  -4  -2   4-14.1086 56.2203   7
   4   2  -4 22.2497 33.6053  13
  -4  -2   4-28.4753 58.8206   6
  -4  -2   4 117.418 65.5257   5
  -4  -2   3 22.5879 44.0978   7
   4   2  -3 106.113 43.0088  13
  -4  -2   3 29.1992 39.9412   6
  -4  -2   3 19.0702 44.9114   5
  -4  -2   2 18.2838 39.4297   7
   4   2  -2-4.11180 31.0952  13
  -4  -2   2-21.8733 40.3764   6
  -4  -2   2 12.4152 41.2711   8
  -4  -2   1 391.576 73.9008   7
   4   2  -1 433.575 64.0420  13
  -4  -2   1 396.948 64.6751   6
   4   2  -1 542.892 84.1493  10
  -4  -2   1 507.951 82.8373   8
  -4  -2   0 49.0593 35.7464   6
   4   2   0 146.607 59.2066  10
  -4  -2   0 153.760 55.7635   8
  -4  -2  -1 3.75145 46.8893   7
  -4  -2  -1-40.1988 46.5762   6
   4   2   1-68.4492 50.3404  10
  -4  -2  -1-32.0436 29.1859   3
  -4  -2  -1-40.7751 49.5921   8
  -4  -2  -2 15.0313 53.0963   7
   4   2   2 49.3022 43.8120  12
  -4  -2  -2 65.8669 54.2775   6
  -4  -2  -2 33.1125 31.3374   3
   4   2   2-3.62616 37.5227  10
  -4  -2  -2 56.1710 45.5758   8
  -4  -2  -3 72.2313 53.4001   7
   4   2   3-9.63035 40.5732  12
  -4  -2  -3 9.19258 46.3216   6
  -4  -2  -3 74.5934 37.0195   3
   4   2   3 28.8425 38.2836  10
  -4  -2  -3 114.960 55.2940   8
  -4  -2  -4 322.026 82.7338   7
   4   2   4 291.281 59.8398  12
  -4  -2  -4 268.860 77.9947   6
  -4  -2  -4 254.805 59.0509   3
   4   2   4 183.968 57.9256  10
  -4  -2  -4 248.711 71.7936   8
  -4  -2  -5-5.46412 56.8857   7
  -4  -2  -5-47.6183 60.8926   6
  -4  -2  -5 23.3567 42.7367   3
   4   2   5 6.08666 52.6289   9
  -4  -2  -5 39.5316 51.2558   8
  -4  -2  -6 67.2327 58.4200   7
  -4  -2  -6 149.737 68.3454   6
  -4  -2  -6 6.80451 51.8634   3
   4   2   6 115.256 59.7910   9
  -4  -2  -7 231.116 70.3156   7
  -4  -2  -7 137.784 62.4268   6
  -4  -2  -7 154.386 70.8174   3
   4   2   7 213.461 70.4972   9
  -4  -2  -8 46.1632 59.4715   7
  -4  -2  -8 106.456 72.8267   6
  -4  -2  -8-14.7215 58.7384   3
   4   2   8 67.5612 53.0438   9
  -4  -2  -9-84.0337 71.0064   7
  -4  -2  -9-3.36520 58.9531   6
  -4  -2  -9-51.9979 72.7438   3
   4   2   9-143.888 70.7769   9
  -4  -2 -10-72.5689 77.3460   6
  -4  -2 -10 139.894 100.988   3
   4   3 -11-0.99799 63.6220  13
   4   3 -11-13.4028 38.7791  12
   4   3 -10-3.13643 63.8905  13
   4   3 -10-87.4837 50.2702  12
  -4  -3  10-15.1557 62.1753   5
  -4  -3  10-52.2022 49.4349   4
   4   3  -9-33.8374 57.6844  13
   4   3  -9-66.1968 52.5381  12
  -4  -3   9 31.8340 59.6698   5
  -4  -3   9-14.2768 42.7774   4
  -4  -3   8 65.6154 41.6302   7
   4   3  -8-35.4073 47.0518  13
   4   3  -8-56.0362 51.4123  12
  -4  -3   8-2.26974 49.7674   5
   4   3  -8-14.5147 34.9304   9
  -4  -3   8 30.6797 43.2258   4
  -4  -3   7-37.8316 50.4936   7
   4   3  -7-5.04687 39.2016  13
   4   3  -7 104.152 55.9161  12
  -4  -3   7-28.7741 43.1043   5
   4   3  -7-36.7494 38.2294   9
  -4  -3   7-23.1637 40.7819   4
  -4  -3   6 86.2608 54.0216   7
   4   3  -6-29.9548 45.3585  13
   4   3  -6 63.6129 47.1954  12
  -4  -3   6 36.8044 42.5643   5
   4   3  -6-32.1712 39.5852   9
  -4  -3   6 32.0860 35.2259   4
  -4  -3   5-9.26400 45.1416   7
   4   3  -5 46.4973 39.4733  13
   4   3  -5 24.3377 38.9067  12
  -4  -3   5 63.0607 47.6058   5
   4   3  -5-4.63030 44.7968  10
   4   3  -5-35.0971 38.0435   9
  -4  -3   5 18.7376 42.3082   8
  -4  -3   5-1.68599 34.5107   4
  -4  -3   4 153.289 57.0141   7
   4   3  -4 71.8718 42.0091  13
  -4  -3   4 40.6907 32.3306   6
   4   3  -4 92.9614 47.6442  12
  -4  -3   4 68.1769 42.1529   5
   4   3  -4-0.09455 46.9938  10
   4   3  -4 125.239 52.6025   9
  -4  -3   4 82.9059 50.3270   8
  -4  -3   3 361.900 75.7328   7
   4   3  -3 271.123 55.4013  13
  -4  -3   3 360.157 64.6940   6
   4   3  -3 334.013 64.3682  12
  -4  -3   3 336.014 69.9942   5
   4   3  -3 283.810 67.1012  10
   4   3  -3 370.513 66.4094   9
  -4  -3   3 299.272 68.3294   8
  -4  -3   2 132.695 52.6013   7
   4   3  -2 76.1187 40.0517  13
  -4  -3   2 172.815 51.5348   6
   4   3  -2 142.886 47.7065  12
  -4  -3   2 110.664 50.2822   5
   4   3  -2 118.666 54.0593  10
   4   3  -2 55.0554 35.0869   9
  -4  -3   2 201.848 61.2931   8
  -4  -3   1 370.843 74.3562   7
   4   3  -1 472.953 63.6864  13
  -4  -3   1 441.220 69.3270   6
   4   3  -1 420.688 72.4100  12
  -4  -3   1 405.207 75.8310   5
   4   3  -1 434.416 74.4246  10
   4   3  -1 392.794 64.1046   9
  -4  -3   1 442.177 75.0502   8
  -4  -3   0 563.160 84.4646   7
  -4  -3   0 506.418 73.9274   6
   4   3   0 451.040 72.7098  12
  -4  -3   0 503.874 79.0155   5
   4   3   0 478.933 75.8094  10
   4   3   0 459.365 73.8856   9
  -4  -3   0 454.441 76.4370   8
  -4  -3  -1 1672.62 138.284   7
  -4  -3  -1 1375.64 111.927   6
   4   3   1 1632.98 125.084  12
  -4  -3  -1 1545.84 133.639   5
   4   3   1 1537.30 120.688  11
   4   3   1 1526.66 123.967  10
   4   3   1 1522.25 120.978   9
  -4  -3  -1 1464.39 121.505   8
  -4  -3  -2-10.6871 42.9529   7
  -4  -3  -2-15.5004 39.9437   6
   4   3   2-1.07765 35.5206  12
   4   3   2-63.3306 44.9430  11
  -4  -3  -2-38.6529 45.9790   5
   4   3   2 17.3028 37.1905  10
   4   3   2 0.09681 42.1794   9
  -4  -3  -2-0.77912 37.8319   8
  -4  -3  -3 1844.48 148.343   7
  -4  -3  -3 1767.29 137.370   6
  -4  -3  -3 1520.49 105.497   3
   4   3   3 1735.78 125.645  12
   4   3   3 1716.19 133.379  11
   4   3   3 1770.87 138.361  10
   4   3   3 1851.77 142.514   9
  -4  -3  -3 1602.50 130.370   8
  -4  -3  -4 49.5264 52.2729   7
  -4  -3  -4 53.5700 47.4408   6
   4   3   4 43.5104 35.5381  12
  -4  -3  -4 72.6676 39.6843   3
   4   3   4 27.8033 41.4889  11
   4   3   4 64.9695 43.5017  10
   4   3   4 89.0204 50.1831   9
  -4  -3  -4 63.6830 44.1210   8
  -4  -3  -5 211.398 67.7489   7
  -4  -3  -5 185.767 62.9980   6
  -4  -3  -5 186.758 52.6896   3
   4   3   5 247.044 68.3383  11
   4   3   5 171.838 62.8907  10
   4   3   5 139.439 54.9305   9
  -4  -3  -5 220.330 67.2188   8
  -4  -3  -6 111.873 59.9651   7
   4   3   6 115.846 61.1339  14
  -4  -3  -6 23.9235 45.3513   6
  -4  -3  -6-17.6747 37.1341   3
   4   3   6-132.443 63.1773  11
   4   3   6 67.7938 52.8872  10
   4   3   6-107.300 54.4024   9
  -4  -3  -6 31.0948 46.5004   8
  -4  -3  -7 268.151 71.5990   7
   4   3   7 203.554 64.6486  14
  -4  -3  -7 207.805 70.5903   6
  -4  -3  -7 269.143 70.5267   3
   4   3   7 325.046 81.6783  11
   4   3   7 292.155 73.4903  10
   4   3   7 357.708 80.1768   9
  -4  -3  -7 378.040 87.6540   8
  -4  -3  -8 34.9669 51.4904   7
   4   3   8-10.7771 51.8201  14
  -4  -3  -8 28.9796 55.0610   6
  -4  -3  -8 86.1727 56.7102   3
   4   3   8 151.084 72.1092  11
   4   3   8 7.54072 51.1559  10
   4   3   8 95.5507 65.5206   9
  -4  -3  -8 123.215 67.4526   8
  -4  -3  -9-29.2912 55.0466   7
   4   3   9 167.741 70.7420  14
  -4  -3  -9 14.4051 55.5497   6
  -4  -3  -9 29.9235 56.1075   3
   4   3   9 65.0088 68.0522  11
   4   3   9-15.7159 54.1956   9
  -4  -3  -9 146.052 83.7543   8
   4   4 -12 67.7091 59.2658  13
   4   4 -12-56.9027 52.3530  12
  -4  -4  12 45.9348 62.1011   4
   4   4 -11 122.373 61.9362  13
   4   4 -11 45.8542 49.2383  12
  -4  -4  11 152.554 75.3163   5
  -4  -4  11 53.7853 61.1176   4
  -4  -4  10-13.0403 54.0668   4
   4   4 -10 65.1928 59.6059  13
   4   4 -10 55.6242 52.5509  12
  -4  -4  10 99.7202 66.5153   5
  -4  -4   9-39.6823 50.6277   4
   4   4  -9-45.0132 51.0854  13
   4   4  -9 37.1778 54.9802  12
  -4  -4   9-47.6728 48.5876   5
  -4  -4   8 407.471 76.7465   4
  -4  -4   8 375.096 71.8160   7
   4   4  -8 334.530 66.6025  13
   4   4  -8 459.592 88.2417  12
  -4  -4   8 302.297 75.8588   5
   4   4  -8 340.399 65.8626   9
  -4  -4   8 414.457 83.1132   8
  -4  -4   7-50.4531 48.3355   4
  -4  -4   7 129.338 53.0027   7
   4   4  -7 37.4386 39.4559  13
   4   4  -7 12.7513 38.3871  12
  -4  -4   7 85.1769 49.2748   5
   4   4  -7 2.32376 44.4834  10
   4   4  -7 96.5374 47.6246   9
  -4  -4   7 54.4177 51.2006   8
  -4  -4   6 211.096 56.1154   4
  -4  -4   6 189.660 53.9233   7
   4   4  -6 105.902 45.7259  13
   4   4  -6 109.059 49.3902  12
  -4  -4   6 195.102 60.6817   5
   4   4  -6 0.48154 56.7523  10
   4   4  -6 88.1614 39.7786   9
  -4  -4   6 241.543 69.3242   8
  -4  -4   5 32.3438 37.5320   4
  -4  -4   5 47.9758 48.0902   7
   4   4  -5 64.1559 47.1247  13
   4   4  -5-17.1155 38.6477  12
   4   4  -5-0.37328 40.4066  10
  -4  -4   5 20.1759 40.8939   5
   4   4  -5 3.46028 34.2896   9
  -4  -4   5-82.0679 52.7421   8
  -4  -4   4 83.8298 42.2608   4
  -4  -4   4 140.677 52.7670   7
   4   4  -4 24.8322 36.7985  13
   4   4  -4 108.940 46.7124  12
   4   4  -4 0.36875 47.2486  10
  -4  -4   4 12.3289 36.7791   5
   4   4  -4 94.6541 44.9862   9
  -4  -4   4 124.743 51.5598   8
  -4  -4   3-19.7460 35.2508   4
  -4  -4   3-27.9676 46.9721   7
  -4  -4   3-35.8541 33.7795   6
   4   4  -3-65.3460 43.5795  13
   4   4  -3-117.562 60.8378  12
   4   4  -3-25.2554 42.0885  10
  -4  -4   3-7.80862 41.8971   5
  -4  -4   3 15.2343 46.3084   8
  -4  -4   2-9.17245 40.9826   7
  -4  -4   2-63.4937 42.5602   6
   4   4  -2 22.1563 33.8948  13
   4   4  -2 16.6881 34.6782  12
   4   4  -2-36.2818 40.6148  11
   4   4  -2 24.3765 41.0946  10
  -4  -4   2-33.1102 35.5765   5
   4   4  -2 2.53970 34.4627   9
  -4  -4   2 11.0386 40.4320   8
  -4  -4   2 123.719 50.6239   4
  -4  -4   1 43.0222 43.5856   7
  -4  -4   1-7.94851 36.4742   6
   4   4  -1 5.53219 36.7199  12
   4   4  -1 0.07541 35.5203  11
   4   4  -1-9.66964 40.9934  10
  -4  -4   1 19.6849 36.1387   5
   4   4  -1-54.7637 40.5606   9
  -4  -4   1-48.6380 43.8370   4
  -4  -4   1 1.97588 38.7759   8
  -4  -4   0 78.8719 45.0515   7
  -4  -4   0 109.236 43.2087   6
   4   4   0 142.887 47.8245  12
   4   4   0 95.2807 39.6219  11
   4   4   0 163.944 55.6952  10
  -4  -4   0 42.9844 37.7992   5
   4   4   0 129.756 48.2124   9
  -4  -4   0 72.4110 43.5284   8
  -4  -4  -1 128.852 53.6228   7
  -4  -4  -1 49.8964 44.0853   6
   4   4   1 15.7403 33.9340  12
   4   4   1-40.7724 44.0600  11
   4   4   1-9.75414 41.3364  10
  -4  -4  -1-23.4470 40.2653   5
   4   4   1 30.2763 39.5261   9
  -4  -4  -1 91.2316 49.9548   8
  -4  -4  -2 503.005 80.3941   7
  -4  -4  -2 575.052 81.7015   6
   4   4   2 496.673 74.2835  12
  -4  -4  -2 522.501 82.0290   5
   4   4   2 556.246 78.9377  11
   4   4   2 472.194 78.7040  10
   4   4   2 617.389 89.6451   9
  -4  -4  -2 520.813 82.6212   8
  -4  -4  -3 231.419 69.8736   7
  -4  -4  -3 91.8514 48.1205   6
   4   4   3 165.577 46.3967  12
   4   4   3 187.470 56.3469  11
   4   4   3 127.067 48.5441  10
  -4  -4  -3 201.922 58.5356   5
   4   4   3 218.320 63.2791   9
  -4  -4  -3 179.079 54.5106   8
  -4  -4  -4 225.118 47.9176   7
  -4  -4  -4 387.509 74.6803   6
   4   4   4 482.256 81.7889  11
  -4  -4  -4 444.893 87.4161   5
   4   4   4 471.824 80.8362  10
   4   4   4 458.333 82.1009   9
  -4  -4  -4 462.628 80.2036   8
  -4  -4  -5 402.235 77.8843   7
  -4  -4  -5 426.954 79.5745   6
  -4  -4  -5 142.669 51.4663   3
   4   4   5 338.566 76.6390  11
   4   4   5 367.134 73.2568  10
   4   4   5 516.345 88.6213   9
  -4  -4  -5 436.381 84.5518   8
  -4  -4  -6 121.174 63.2572   7
  -4  -4  -6 27.9401 52.1548   6
  -4  -4  -6 64.8654 42.7825   3
   4   4   6 43.6934 49.6067  11
   4   4   6 139.447 58.0429  10
   4   4   6 43.7583 51.9469   9
  -4  -4  -6 235.075 70.7458   8
  -4  -4  -7 262.434 75.0542   7
   4   4   7 270.540 74.3304  14
  -4  -4  -7 243.817 76.2950   6
  -4  -4  -7 124.807 56.7540   3
   4   4   7 298.940 82.6171  11
   4   4   7 311.877 77.3413  10
   4   4   7 209.722 68.5426   9
  -4  -4  -7 336.667 87.1743   8
  -4  -4  -8 4.21524 55.0152   7
   4   4   8-6.44107 48.5337  14
  -4  -4  -8-58.4505 71.0999   6
   4   4   8-187.350 79.5229  11
   4   4   8-45.9338 53.9458  10
   4   4   8 58.1160 56.7349   9
  -4  -4  -8-44.9449 59.9778   8
  -4  -4  -9 93.9969 55.4755   7
   4   4   9-91.2254 71.1084  14
  -4  -4  -9 52.8066 64.8238   6
   4   4   9 208.249 90.5691  11
   4   4   9 72.5896 66.8992  10
  -4  -4  -9 168.639 95.1292   8
  -4  -5  11 22.2872 55.4967   4
   4   5 -11-13.0459 49.9768  13
   4   5 -11-0.85390 44.2924  12
  -4  -5  11-32.8209 63.8044   5
  -4  -5  10-63.1291 61.2278   4
   4   5 -10-14.0424 46.9588  13
   4   5 -10 113.933 63.2357  12
  -4  -5  10-77.3911 62.2917   5
  -4  -5   9-24.5337 55.9086   4
   4   5  -9-54.6442 47.8779  13
  -4  -5   9 10.6618 58.9277   5
  -4  -5   8 115.096 56.3947   4
   4   5  -8-95.3144 55.0118  13
   4   5  -8 57.6076 53.5711  12
   4   5  -8 6.52196 43.9938  10
  -4  -5   8-53.2544 55.1967   5
  -4  -5   7 32.8271 42.6354   4
  -4  -5   7 32.3393 48.2131   7
   4   5  -7 72.8279 48.5526  13
   4   5  -7 45.5548 52.2476  12
   4   5  -7 1.91312 51.2635  10
  -4  -5   7 85.5072 60.9742   5
   4   5  -7 150.398 53.4814   9
  -4  -5   7 50.1534 53.7323   8
  -4  -5   6 150.518 53.8262   4
  -4  -5   6 102.145 49.9179   7
   4   5  -6 176.790 61.1021  13
   4   5  -6 28.5399 42.1370  12
   4   5  -6 3.84191 63.8574  10
  -4  -5   6 119.318 54.8884   5
   4   5  -6 244.572 64.6453   9
  -4  -5   6 85.4864 56.0815   8
  -4  -5   5 23.9363 35.9994   4
  -4  -5   5 88.3287 50.6033   7
   4   5  -5 46.8175 44.1468  13
   4   5  -5 44.9650 44.8055  12
   4   5  -5-14.1467 43.3929  10
  -4  -5   5-10.4594 41.9507   5
   4   5  -5 40.2457 43.0487   9
  -4  -5   5 56.5522 46.6700   8
  -4  -5   4 147.503 51.3574   4
  -4  -5   4 225.367 65.3247   7
   4   5  -4 171.791 51.0737  13
   4   5  -4 226.454 62.3173  12
   4   5  -4 270.001 66.9909  10
  -4  -5   4 181.649 59.0015   5
   4   5  -4 165.011 52.2567   9
  -4  -5   4 160.194 61.3861   8
  -4  -5   3 51.4391 35.2648   4
  -4  -5   3 25.6978 41.1315   7
   4   5  -3 27.7875 32.9057  13
   4   5  -3-11.2238 36.7380  12
   4   5  -3 35.7455 48.0441  10
  -4  -5   3 86.5681 50.8917   5
   4   5  -3-26.9527 41.8264   9
  -4  -5   3 13.2440 46.1587   8
  -4  -5   2 1853.59 146.014   7
   4   5  -2 1745.05 137.798  12
   4   5  -2 1841.12 124.144  11
  -4  -5   2 1691.47 138.746   5
   4   5  -2 1751.56 140.194  10
   4   5  -2 1779.01 134.251   9
  -4  -5   2 1813.82 138.473   8
  -4  -5   2 1750.58 117.643   4
  -4  -5   1 11.0937 41.8958   7
  -4  -5   1 34.3695 38.7798   6
   4   5  -1 169.096 57.0783  12
   4   5  -1 82.0144 41.9373  11
   4   5  -1 76.5664 51.6320  10
  -4  -5   1 14.4204 41.9680   5
   4   5  -1 53.1120 39.9392   9
  -4  -5   1 36.2002 44.5335   8
  -4  -5   0 41.4131 43.9369   7
  -4  -5   0-16.0783 40.7551   6
   4   5   0-21.9979 36.5710  12
   4   5   0-35.8175 45.1973  11
   4   5   0-20.4362 47.6544  10
  -4  -5   0 38.7567 40.8889   5
   4   5   0 37.4038 45.3420   9
  -4  -5   0 53.3179 43.3803   8
  -4  -5  -1 239.318 66.5100   7
  -4  -5  -1 220.763 70.2533   6
   4   5   1 226.953 57.9227  11
   4   5   1 234.337 62.1874  10
  -4  -5  -1 225.683 60.7570   5
   4   5   1 208.850 57.6469   9
  -4  -5  -1 252.598 64.5256   8
  -4  -5  -2 1580.26 140.568   7
  -4  -5  -2 1674.42 148.722   6
   4   5   2 1403.15 121.205  11
  -4  -5  -2 1633.27 139.782   5
   4   5   2 1464.65 132.276  10
   4   5   2 1259.11 119.629   9
  -4  -5  -2 1342.09 123.022   8
  -4  -5  -3-36.6654 55.1621   7
  -4  -5  -3 62.4836 51.9442   6
   4   5   3-5.30470 49.3751  11
   4   5   3-30.9967 53.1247  10
  -4  -5  -3-144.570 67.0461   5
   4   5   3-23.2459 55.7243   9
  -4  -5  -3-78.8280 49.5828   8
  -4  -5  -4 34.2133 52.3150   7
  -4  -5  -4-106.807 65.4149   6
   4   5   4 94.7943 59.5217  11
   4   5   4-52.0431 59.9117  10
  -4  -5  -4-7.88199 52.4840   5
   4   5   4-22.6041 49.2860   9
  -4  -5  -4 73.1608 56.9732   8
  -4  -5  -5 69.7800 55.9248   7
  -4  -5  -5 38.1707 48.7570   6
   4   5   5-6.55301 58.2254  11
   4   5   5 47.1582 58.9852  10
   4   5   5-6.65671 48.1831   9
  -4  -5  -5 77.7112 62.0130   8
  -4  -5  -6 0.45847 47.1691   7
  -4  -5  -6-4.57297 52.9300   6
   4   5   6 131.748 66.8473  11
   4   5   6 72.3069 69.5789  10
   4   5   6-35.0557 60.5725   9
  -4  -5  -6 22.6605 62.8859   8
  -4  -5  -7 0.19331 58.0505   6
   4   5   7-2.66249 67.4482  11
   4   5   7-37.5522 68.9384  10
  -4  -5  -7-170.424 84.5639   8
  -4  -5  -8-148.666 83.0676   6
   4   5   8-107.801 85.5486  11
  -4  -6  10-72.3889 76.9805   4
   4   6 -10 10.6333 48.3574  13
  -4  -6  10 139.310 91.8286   5
  -4  -6   9 40.2345 60.1504   4
   4   6  -9 23.7045 47.1213  13
  -4  -6   9 110.003 63.4403   5
  -4  -6   8 93.7015 65.3600   4
   4   6  -8-15.4270 42.7644  13
  -4  -6   8 17.2541 59.1765   5
  -4  -6   7-64.3668 54.5404   4
   4   6  -7-14.2643 64.7206  10
  -4  -6   7 85.3221 67.4368   5
  -4  -6   7 44.8377 62.8688   8
  -4  -6   6 236.269 66.2537   4
   4   6  -6-4.98672 60.9991  10
  -4  -6   6 234.629 78.1371   5
  -4  -6   6 164.061 65.7104   8
  -4  -6   5 120.941 50.7844   4
   4   6  -5 6.63151 61.9843  10
  -4  -6   5 50.6041 46.5234   5
  -4  -6   5 91.7775 60.0116   8
  -4  -6   4 47.3695 50.3011   8
  -4  -6   4 89.0895 46.6952   4
   4   6  -4 10.9610 46.9919  10
  -4  -6   4 100.472 56.9102   5
  -4  -6   3 202.400 66.8896   8
  -4  -6   3 132.393 58.4979   7
  -4  -6   3 110.026 47.1005   4
   4   6  -3 177.043 64.1499  10
  -4  -6   3 185.623 62.8765   5
  -4  -6   2 273.125 76.5297   8
  -4  -6   2 297.389 75.5123   7
  -4  -6   2 330.462 69.1474   4
   4   6  -2 318.135 77.7562  10
  -4  -6   2 249.196 66.3415   5
   4   6  -2 407.359 82.3428   9
  -4  -6   1 5.72735 44.9224   8
  -4  -6   1 84.4524 53.5758   7
   4   6  -1 19.8122 43.6546  11
   4   6  -1 114.204 62.6215  10
  -4  -6   1-21.7338 42.5572   5
   4   6  -1-44.6926 54.8057   9
  -4  -6   0-28.4626 50.7781   8
  -4  -6   0 94.8349 52.4294   7
   4   6   0 33.1300 44.0582  11
   4   6   0 88.6462 55.3039  10
  -4  -6   0 2.91179 47.8915   5
   4   6   0 31.4930 47.6297   9
  -4  -6  -1 66.9575 64.7103   8
  -4  -6  -1-4.37546 38.4852   7
   4   6   1 14.5371 44.2348  11
   4   6   1-0.41144 50.6468  10
  -4  -6  -1-102.373 65.8010   5
  -4  -6  -2 53.9407 59.5663   8
  -4  -6  -2 28.8045 40.9576   7
   4   6   2 156.428 63.0560  11
   4   6   2 85.4118 67.4183  10
  -4  -6  -3-86.3699 73.0387   8
   4   6   3-10.0246 55.7383  11
  -5  -3   0-5.16016 72.7199   7
   5   3   0 37.5510 57.3957   9
  -5  -3  -1 171.764 88.3407   7
   5   3   1 79.4854 67.7529   9
  -5  -3  -2-83.6527 98.2107   7
   5   3   2-12.2176 75.0514   9
  -5  -3  -3 172.535 100.439   7
   5   3   3 189.329 116.299   9
  -5  -3  -4 5.45494 91.1212   7
   5   3   4 215.260 112.404   9
  -5  -3  -5-41.1003 88.0534   7
   5   3   5 52.2536 84.7104   9
   5   4  -8-60.0412 78.4992  12
  -5  -4   8 32.2013 76.9591   5
   5   4  -7-23.7272 68.5688  12
  -5  -4   7-95.7212 80.7101   5
  -5  -4   6 55.3866 77.8325   7
   5   4  -6 24.1062 52.8484  12
  -5  -4   6 35.6968 61.7091   5
   5   4  -6 97.3802 61.5498   9
  -5  -4   5 132.818 99.3937   7
   5   4  -5-40.2144 59.2073  12
  -5  -4   5 12.2855 60.0268   5
   5   4  -5-66.7941 69.1739   9
  -5  -4   4 164.115 89.9433   7
   5   4  -4 174.531 68.1155  12
  -5  -4   4 83.8778 65.5849   5
   5   4  -4 92.5873 63.8024  10
   5   4  -4-17.8166 50.7307   9
  -5  -4   4 106.515 74.2701   8
  -5  -4   3 66.8764 62.3247   7
   5   4  -3 30.8398 47.4296  12
  -5  -4   3 202.063 79.1313   5
   5   4  -3 28.5094 53.0480  10
   5   4  -3 27.5012 52.3491   9
  -5  -4   3 217.208 79.4548   8
  -5  -4   2 942.511 128.852   7
   5   4  -2 516.942 95.5501  12
  -5  -4   2 642.902 117.745   5
   5   4  -2 804.817 120.026  10
   5   4  -2 472.641 83.4184   9
  -5  -4   2 462.739 94.5684   8
  -5  -4   1 124.918 69.7826   7
  -5  -4   1 103.240 72.8612   6
   5   4  -1 211.569 76.6256  12
  -5  -4   1 174.099 80.0900   5
   5   4  -1 160.327 63.8704  10
   5   4  -1 165.105 61.0840   9
  -5  -4   1 219.372 75.2178   8
  -5  -4   0 316.735 84.2267   7
  -5  -4   0 158.214 67.8081   6
   5   4   0 254.909 80.2738  12
  -5  -4   0 350.233 92.8074   5
   5   4   0 229.466 72.9285  10
   5   4   0 201.393 67.4926   9
  -5  -4   0 406.187 100.784   8
  -5  -4  -1 284.495 83.3495   7
  -5  -4  -1 234.325 80.7316   6
   5   4   1 182.193 78.7726  12
   5   4   1 244.566 77.5570  10
   5   4   1 454.893 100.260   9
  -5  -4  -1 312.483 95.7888   8
  -5  -4  -2 110.030 74.9461   7
  -5  -4  -2 65.8230 55.2308   6
   5   4   2 131.010 62.7884  12
   5   4   2 54.8580 58.8877  10
   5   4   2 162.334 76.8221   9
  -5  -4  -2 79.4596 62.3187   8
  -5  -4  -3 186.492 75.7113   7
  -5  -4  -3 146.237 66.4921   6
   5   4   3 137.384 70.6052  10
   5   4   3 157.310 80.8437   9
  -5  -4  -3 134.597 71.0133   8
  -5  -4  -4 128.292 75.5308   7
  -5  -4  -4-77.7103 62.2250   6
   5   4   4-100.615 65.8504  10
   5   4   4-34.5483 67.8781   9
  -5  -4  -4-19.3077 57.7851   8
  -5  -4  -5-158.457 85.8695   7
  -5  -4  -5 7.00698 60.2153   6
   5   4   5-2.34524 55.6135  10
   5   4   5-43.8715 75.2470   9
  -5  -4  -5 16.9817 63.0689   8
   5   5  -8-22.6546 61.6190  13
   5   5  -8-9.57850 58.7480  12
  -5  -5   8 9.53496 61.1189   5
  -5  -5   8 115.172 56.4485   4
  -5  -5   7 37.2054 58.9490   7
   5   5  -7-17.0472 59.7446  13
   5   5  -7-76.6416 60.4188  12
  -5  -5   7 48.5742 59.9087   5
  -5  -5   7 87.3666 75.2409   8
  -5  -5   7-69.2240 52.1917   4
  -5  -5   6 556.652 109.645   7
   5   5  -6 590.735 114.825  13
   5   5  -6 279.993 75.6062  12
  -5  -5   6 523.165 108.243   5
   5   5  -6 547.520 99.8205   9
  -5  -5   6 650.031 120.926   8
  -5  -5   5 36.3351 66.5830   7
   5   5  -5-64.4049 51.3951  12
  -5  -5   5-1.88162 53.4111   5
   5   5  -5 33.4576 56.0112  10
   5   5  -5-6.93042 50.0343   9
  -5  -5   5-28.1362 60.4027   8
  -5  -5   4-1.23782 62.6292   7
   5   5  -4 80.7400 53.8375  12
  -5  -5   4 32.4407 59.6574   5
   5   5  -4-27.9405 59.0044  10
   5   5  -4-69.7192 60.9689   9
  -5  -5   4-17.8322 57.0891   8
  -5  -5   3-3.37041 54.9377   7
   5   5  -3 105.834 57.5560  12
  -5  -5   3 1.15276 46.9890   5
   5   5  -3 59.7448 59.2000  10
   5   5  -3 71.7327 58.0666   9
  -5  -5   3 149.156 71.1487   8
  -5  -5   2 345.455 89.9027   7
   5   5  -2 415.261 86.7015  12
  -5  -5   2 317.968 83.6773   5
   5   5  -2 404.819 85.7314  10
   5   5  -2 361.698 78.4143   9
  -5  -5   2 406.682 95.2380   8
  -5  -5   1-79.0628 65.2248   7
   5   5  -1 6.90416 49.4168  12
  -5  -5   1 47.6573 58.7930   5
   5   5  -1 79.2827 62.6550  10
   5   5  -1 96.4799 60.8623   9
  -5  -5   1 2.80094 53.2046   8
  -5  -5   0 134.288 68.7154   7
  -5  -5   0 119.402 93.9945   6
   5   5   0-69.9080 60.6928  12
  -5  -5   0 41.4937 58.6489   5
   5   5   0 28.3426 56.4976  10
   5   5   0 218.999 73.0031   9
  -5  -5   0 55.5488 55.0205   8
  -5  -5  -1 105.201 71.7146   7
  -5  -5  -1-41.5967 73.4327   6
   5   5   1-92.5649 68.3990  12
  -5  -5  -1-4.40947 66.8126   5
   5   5   1 48.0672 62.4641  10
   5   5   1 24.2875 60.9268   9
  -5  -5  -1 157.469 76.8262   8
  -5  -5  -2-11.3705 57.8693   7
  -5  -5  -2-75.2877 70.0931   6
   5   5   2-56.8270 51.4290  11
  -5  -5  -2-177.434 106.881   5
   5   5   2-23.1683 61.7923  10
   5   5   2-242.111 92.9506   9
  -5  -5  -2 16.9708 54.9831   8
  -5  -5  -3-69.9218 65.4366   7
  -5  -5  -3 53.9807 65.1686   6
   5   5   3 28.9531 57.0163  11
   5   5   3 28.9634 54.9068  10
   5   5   3-104.992 68.5164   9
  -5  -5  -3 126.758 64.0402   8
  -5  -5  -4 45.9636 58.3742   7
  -5  -5  -4 92.0307 78.4385   6
   5   5   4 350.652 102.236  11
   5   5   4 274.294 102.281  10
   5   5   4 7.24942 60.7485   9
  -5  -5  -4-94.1364 72.8493   8
  -5  -6   6-168.872 80.0645   7
   5   6  -6 17.9175 49.2447  12
  -5  -6   6-101.286 68.8583   5
   5   6  -6-1.07087 63.2752  10
  -5  -6   6 138.636 73.0242   8
  -5  -6   6 56.3659 61.7015   4
  -5  -6   5 16.8903 54.3289   7
   5   6  -5-131.089 67.5247  12
   5   6  -5-11.4397 58.9289  10
  -5  -6   5-20.1277 53.7129   5
   5   6  -5-50.0821 56.6148   9
  -5  -6   5 78.3910 64.6528   8
  -5  -6   4 7.30843 61.7939   7
   5   6  -4-47.1627 53.7571  12
   5   6  -4 3.64127 57.9002  10
  -5  -6   4-35.1902 54.7730   5
   5   6  -4 31.9769 52.5837   9
  -5  -6   4-0.14899 56.9425   8
  -5  -6   3 18.4954 51.7996   7
   5   6  -3-43.8911 62.7389  10
  -5  -6   3 121.496 66.6985   5
   5   6  -3 3.15243 50.2469   9
  -5  -6   3 32.3971 55.4394   8
  -5  -6   2 35.8192 51.5819   7
   5   6  -2 123.794 71.0617  10
  -5  -6   2 71.8705 59.2040   5
   5   6  -2 44.9955 54.5373   9
  -5  -6   2 1.53887 53.9707   8
  -5  -6   1-70.1045 66.2994   7
   5   6  -1 34.7477 54.5427  10
  -5  -6   1 3.46713 58.5383   5
   5   6  -1 124.784 62.1841   9
  -5  -6   1 25.5821 59.2994   8
  -5  -6   0 50.5630 58.4494   7
   5   6   0 10.9110 57.2222  10
  -5  -6   0 5.92583 56.2039   5
   5   6   0-43.8588 57.8466   9
  -5  -6   0-50.6569 61.8056   8
  -5  -6  -1-9.40097 60.7615   7
   5   6   1 18.7882 54.0981  11
   5   6   1-30.4222 68.6941  10
  -5  -6  -1-14.7019 81.5559   5
   5   6   1-25.6173 53.1741   9
  -5  -6  -1 45.7542 62.5744   8
  -5  -6  -2 94.6213 72.9313   7
   5   6   2-0.81610 57.7601  11
   5   6   2 48.3512 67.9695  10
   5   6   2-7.09180 62.1200   9
  -5  -6  -2 86.5185 61.8358   8
   0   0   0    0.00    0.00   0

TITL monoclinic in P2(1)/c
REM P2(1)/c (#14 in standard setting)
CELL 0.71073   5.099329  10.251924  13.844522  90.0000  99.1114  90.0000
ZERR    4.00   0.001397   0.007954   0.003267   0.0000   0.0204   0.0000
LATT  1
SYMM -x, y+1/2,-z+1/2
SFAC C H N O
UNIT 16.00 28.00 20.00 12.00
TREF
HKLF 4
END
;
_shelx_hkl_checksum              84536
_olex2_submission_special_instructions 'No special instructions were received'
_oxdiff_exptl_absorpt_empirical_details
;
Empirical correction (ABSPACK) includes:
- Absorption correction using spherical harmonics
- Frame scaling
;
_oxdiff_exptl_absorpt_empirical_full_max 2.274
_oxdiff_exptl_absorpt_empirical_full_min 0.784
loop_
_space_group_symop_operation_xyz
'x, y, z'
'-x, y+1/2, -z+1/2'
'-x, -y, -z'
'x, -y-1/2, z-1/2'
loop_
_atom_site_label
_atom_site_type_symbol
_atom_site_fract_x
_atom_site_fract_y
_atom_site_fract_z
_atom_site_U_iso_or_equiv
_atom_site_adp_type
_atom_site_occupancy
_atom_site_site_symmetry_order
_atom_site_calc_flag
_atom_site_refinement_flags_posn
_atom_site_refinement_flags_adp
_atom_site_refinement_flags_occupancy
_atom_site_disorder_assembly
_atom_site_disorder_group
C1 C 0.1087(15) 0.7869(13) 0.5390(6) 0.062(4) Uani 1 1 d . U . . .
H1 H -0.042950 0.825867 0.504837 0.075 Uiso 1 1 calc R . . . .
C2 C 0.3269(15) 0.8590(13) 0.5867(5) 0.060(5) Uani 1 1 d . . . . .
H2 H 0.348969 0.949081 0.588558 0.072 Uiso 1 1 calc R . . . .
C3 C 0.4921(18) 0.7693(16) 0.6281(5) 0.057(5) Uani 1 1 d . . . . .
H3 H 0.656783 0.785196 0.665791 0.068 Uiso 1 1 calc R . . . .
C4 C 0.4750(17) 0.5203(16) 0.6289(5) 0.052(6) Uani 1 1 d . . . . .
N1 N 0.3814(14) 0.6471(13) 0.6066(4) 0.048(5) Uani 1 1 d . . . . .
N2 N 0.1382(10) 0.6618(11) 0.5469(5) 0.055(4) Uani 1 1 d . . . . .
N3 N 0.3363(12) 0.4238(10) 0.5915(4) 0.067(4) Uani 1 1 d . . . . .
H3A H 0.393695 0.345506 0.602543 0.080 Uiso 1 1 calc R . . . .
H3B H 0.185523 0.437189 0.555258 0.080 Uiso 1 1 calc R . . . .
N4 N 0.7064(9) 0.5081(8) 0.6849(3) 0.060(3) Uani 1 1 d . . . . .
H4A H 0.772735 0.431844 0.698181 0.072 Uiso 1 1 calc R . . . .
H4B H 0.791860 0.576327 0.708286 0.072 Uiso 1 1 calc R . . . .
N5 N 0.2509(16) 0.6445(18) 0.8249(5) 0.069(5) Uani 1 1 d . . . . .
O1 O 0.4835(8) 0.6735(6) 0.8579(3) 0.065(3) Uani 1 1 d . . . . .
O2 O 0.1637(18) 0.5365(15) 0.8242(5) 0.110(6) Uani 1 1 d . . . . .
O3 O 0.0884(10) 0.7363(9) 0.7935(3) 0.073(3) Uani 1 1 d . . . . .
loop_
_atom_site_aniso_label
_atom_site_aniso_U_11
_atom_site_aniso_U_22
_atom_site_aniso_U_33
_atom_site_aniso_U_23
_atom_site_aniso_U_13
_atom_site_aniso_U_12
C1 0.051(4) 0.061(11) 0.072(4) -0.003(6) -0.001(3) 0.016(5)
C2 0.061(7) 0.05(2) 0.064(4) 0.003(6) 0.006(4) -0.001(5)
C3 0.049(6) 0.06(2) 0.060(4) 0.001(6) 0.003(4) -0.012(5)
C4 0.037(6) 0.07(2) 0.054(4) 0.007(6) 0.009(4) 0.002(5)
N1 0.033(5) 0.05(2) 0.063(3) -0.011(6) 0.006(3) -0.010(4)
N2 0.042(4) 0.048(15) 0.069(4) -0.002(6) -0.009(3) 0.005(4)
N3 0.049(5) 0.063(16) 0.081(4) -0.002(5) -0.014(3) 0.001(4)
N4 0.051(4) 0.048(12) 0.074(3) -0.006(4) -0.014(3) 0.000(3)
N5 0.038(6) 0.10(2) 0.062(4) 0.002(5) 0.002(3) 0.003(5)
O1 0.041(3) 0.056(11) 0.093(3) -0.007(3) -0.008(2) -0.008(2)
O2 0.064(5) 0.12(2) 0.133(6) 0.007(7) -0.019(3) -0.025(6)
O3 0.047(4) 0.086(13) 0.083(3) 0.011(4) 0.001(2) 0.005(3)
loop_
_atom_type_symbol
_atom_type_description
_atom_type_scat_dispersion_real
_atom_type_scat_dispersion_imag
_atom_type_scat_source
C C 0.0033 0.0016 'International Tables Vol C Tables 4.2.6.8 and 6.1.1.4'
H H 0.0000 0.0000 'International Tables Vol C Tables 4.2.6.8 and 6.1.1.4'
N N 0.0061 0.0033 'International Tables Vol C Tables 4.2.6.8 and 6.1.1.4'
O O 0.0106 0.0060 'International Tables Vol C Tables 4.2.6.8 and 6.1.1.4'
loop_
_geom_angle_atom_site_label_1
_geom_angle_atom_site_label_2
_geom_angle_atom_site_label_3
_geom_angle
_geom_angle_site_symmetry_1
_geom_angle_site_symmetry_3
_geom_angle_publ_flag
N2 C1 C2 114.0(8) . . ?
C3 C2 C1 103.9(13) . . ?
C2 C3 N1 109.1(9) . . ?
N3 C4 N1 118.8(9) . . ?
N3 C4 N4 123.7(14) . . ?
N4 C4 N1 117.5(14) . . ?
C3 N1 C4 132.6(12) . . ?
N2 N1 C3 109.1(13) . . ?
N2 N1 C4 118.2(11) . . ?
C1 N2 N1 103.8(9) . . ?
O1 N5 O3 118.6(16) . . ?
O2 N5 O1 124.0(18) . . ?
O2 N5 O3 117.3(10) . . ?
loop_
_geom_bond_atom_site_label_1
_geom_bond_atom_site_label_2
_geom_bond_distance
_geom_bond_site_symmetry_2
_geom_bond_publ_flag
C1 C2 1.410(16) . ?
C1 N2 1.295(13) . ?
C2 C3 1.316(18) . ?
C3 N1 1.386(18) . ?
C4 N1 1.403(17) . ?
C4 N3 1.277(16) . ?
C4 N4 1.311(9) . ?
N1 N2 1.385(10) . ?
N5 O1 1.238(8) . ?
N5 O2 1.19(2) . ?
N5 O3 1.283(18) . ?

_cod_database_fobs_code 2108911
