#------------------------------------------------------------------------------
#$Date: 2019-11-23 07:38:08 +0200 (Sat, 23 Nov 2019) $
#$Revision: 232449 $
#$URL: file:///home/coder/svn-repositories/cod/cif/2/10/85/2108555.cif $
#------------------------------------------------------------------------------
#
# This file is available in the Crystallography Open Database (COD),
# http://www.crystallography.net/. The original data for this entry
# were provided by IUCr Journals, http://journals.iucr.org/.
#
# The file may be used within the scientific community so long as
# proper attribution is given to the journal article from which the
# data were obtained.
#
data_2108555
loop_
_publ_author_name
'Shvanskaya, Larisa'
'Yakubovich, Olga'
'Krikunova, Polina'
'Ovchenkov, Evgeny'
'Vasiliev, Alexander'
_publ_section_title
;
 Chain caesium borophosphates with B:P ratio 1:2: synthesis, structure
 relationships and low-temperature thermodynamic properties
;
_journal_issue                   6
_journal_name_full               'Acta Crystallographica Section B'
_journal_page_first
;
;
_journal_paper_doi               10.1107/S2052520619013763
_journal_volume                  75
_journal_year                    2019
_chemical_formula_moiety         'Cs, Mn, B O8 P2, O H'
_chemical_formula_sum            'B Cs H Mn O9 P2'
_chemical_formula_weight         405.61
_chemical_name_common            'Caesium manganese borophosphate hydroxide'
_chemical_name_systematic
;         
Caesium manganese (III) Borodiphosphate Hydroxide
;
_space_group_crystal_system      monoclinic
_space_group_IT_number           14
_space_group_name_Hall           '-P 2ybc'
_space_group_name_H-M_alt        'P 1 21/c 1'
_atom_sites_solution_hydrogens   difmap
_atom_sites_solution_primary     direct
_atom_sites_solution_secondary   difmap
_audit_creation_method           SHELXL-2014/7
_cell_angle_alpha                90
_cell_angle_beta                 100.141(2)
_cell_angle_gamma                90
_cell_formula_units_Z            4
_cell_length_a                   9.1494(3)
_cell_length_b                   8.6991(2)
_cell_length_c                   9.6413(3)
_cell_measurement_reflns_used    5939
_cell_measurement_temperature    293(2)
_cell_measurement_theta_max      31.6600
_cell_measurement_theta_min      3.1700
_cell_volume                     755.38(4)
_computing_cell_refinement
;
CrysAlisPro, Agilent Technologies,
Version 1.171.37.35 (release 13-08-2014 CrysAlis171 .NET)
(compiled Aug 13 2014,18:06:01)
;
_computing_data_collection
;
CrysAlisPro, Agilent Technologies,
Version 1.171.37.35 (release 13-08-2014 CrysAlis171 .NET)
(compiled Aug 13 2014,18:06:01)
;
_computing_data_reduction
;
CrysAlisPro, Agilent Technologies,
Version 1.171.37.35 (release 13-08-2014 CrysAlis171 .NET)
(compiled Aug 13 2014,18:06:01)
;
_computing_molecular_graphics    'DIMOND (Brandenburg, 2006)'
_computing_structure_refinement  'SHELXL-2014/7 (Sheldrick, 2014)'
_computing_structure_solution    'SHELXS-2014/7 (Sheldrick, 2014)'
_diffrn_ambient_temperature      293(2)
_diffrn_detector_area_resol_mean 16.0630
_diffrn_measured_fraction_theta_full 0.999
_diffrn_measured_fraction_theta_max 1.000
_diffrn_measurement_device_type  'Xcalibur, Sapphire3'
_diffrn_measurement_method       \w
_diffrn_radiation_type           MoK\a
_diffrn_radiation_wavelength     0.71073
_diffrn_reflns_av_R_equivalents  0.0505
_diffrn_reflns_av_unetI/netI     0.0317
_diffrn_reflns_Laue_measured_fraction_full 0.999
_diffrn_reflns_Laue_measured_fraction_max 1.000
_diffrn_reflns_limit_h_max       12
_diffrn_reflns_limit_h_min       -12
_diffrn_reflns_limit_k_max       12
_diffrn_reflns_limit_k_min       -12
_diffrn_reflns_limit_l_max       13
_diffrn_reflns_limit_l_min       -13
_diffrn_reflns_number            14159
_diffrn_reflns_point_group_measured_fraction_full 0.999
_diffrn_reflns_point_group_measured_fraction_max 1.000
_diffrn_reflns_theta_full        25.242
_diffrn_reflns_theta_max         29.988
_diffrn_reflns_theta_min         3.177
_diffrn_source                   'Enhance (Mo) X-ray Source'
_exptl_absorpt_coefficient_mu    6.947
_exptl_absorpt_correction_T_max  0.682
_exptl_absorpt_correction_T_min  0.631
_exptl_absorpt_correction_type   gaussian
_exptl_absorpt_process_details
;
CrysAlisPro, Agilent Technologies,
Version 1.171.37.35 (release 13-08-2014 CrysAlis171 .NET)
(compiled Aug 13 2014,18:06:01)
Numerical absorption correction based on gaussian integration over
   a multifaceted crystal model
Empirical absorption correction using spherical harmonics,
 implemented in SCALE3 ABSPACK scaling algorithm.
;
_exptl_crystal_colour            purple
_exptl_crystal_density_diffrn    3.567
_exptl_crystal_description       ambiguous
_exptl_crystal_F_000             752
_exptl_crystal_size_max          0.090
_exptl_crystal_size_mid          0.080
_exptl_crystal_size_min          0.070
_refine_diff_density_max         1.023
_refine_diff_density_min         -1.153
_refine_diff_density_rms         0.158
_refine_ls_extinction_method     none
_refine_ls_goodness_of_fit_ref   1.161
_refine_ls_hydrogen_treatment    refall
_refine_ls_matrix_type           full
_refine_ls_number_parameters     131
_refine_ls_number_reflns         2203
_refine_ls_number_restraints     1
_refine_ls_restrained_S_all      1.161
_refine_ls_R_factor_all          0.0353
_refine_ls_R_factor_gt           0.0294
_refine_ls_shift/su_max          0.000
_refine_ls_shift/su_mean         0.000
_refine_ls_structure_factor_coef Fsqd
_refine_ls_weighting_details
'w=1/[\s^2^(Fo^2^)+(0.0129P)^2^+1.6434P] where P=(Fo^2^+2Fc^2^)/3'
_refine_ls_weighting_scheme      calc
_refine_ls_wR_factor_gt          0.0532
_refine_ls_wR_factor_ref         0.0551
_reflns_Friedel_coverage         0.000
_reflns_number_gt                1998
_reflns_number_total             2203
_reflns_threshold_expression     'I > 2\s(I)'
_cod_data_source_file            je5022sup1.cif
_cod_data_source_block           III
_cod_original_sg_symbol_H-M      'P 21/c'
_cod_original_formula_sum        'B1 Cs1 H1 Mn1 O9 P2'
_cod_database_code               2108555
_shelx_shelxl_version_number     2014/7
_shelx_space_group_comment
;
The symmetry employed for this shelxl refinement is uniquely defined
by the following loop, which should always be used as a source of
symmetry information in preference to the above space-group names.
They are only intended as comments.
;
_shelx_estimated_absorpt_t_min   0.574
_shelx_estimated_absorpt_t_max   0.642
_shelx_res_file
;

    shelx.res created by SHELXL-2014/7


TITL shelxt_a.res in P2(1)/c
CELL  0.71073   9.1494   8.6991   9.64127  90.000  100.141   90.000
ZERR     4.00   0.0003   0.0002   0.0003    0.000    0.002    0.000
LATT   1
SYMM  - X, 1/2 + Y, 1/2 - Z
SFAC  O    P    MN CS  B   H
UNIT  36 8 4 4 4 4
FMAP   2
PLAN   30
ACTA
HTAB
HTAB
HTAB O9 O9_$1
EQIV $1 -x+1, -y, -z
BOND $H
L.S.  5
SIZE 0.09 0.08 0.07
OMIT -3 60
WGHT    0.012900    1.643400
FVAR       2.18434
CS1   4    0.203053    0.391241    0.048508    11.00000    0.02185    0.01692 =
         0.01733    0.00437    0.00173    0.00185
MN    3    0.207594    0.651943    0.428221    11.00000    0.00473    0.00775 =
         0.00595   -0.00025    0.00112   -0.00123
P1    2    0.071962   -0.064580    0.198745    11.00000    0.00388    0.00674 =
         0.00564    0.00006    0.00050    0.00071
P2    2    0.582104    0.242073    0.294213    11.00000    0.00443    0.00552 =
         0.00666   -0.00043    0.00068   -0.00051
B     5    0.345718    0.052407    0.192843    11.00000    0.00515    0.00522 =
         0.01152   -0.00025   -0.00034   -0.00227
O1    1    0.637169    0.232310    0.452331    11.00000    0.01226    0.01182 =
         0.00624    0.00001   -0.00083   -0.00338
O2    1    0.190446    0.066643    0.212785    11.00000    0.00600    0.00953 =
         0.01375   -0.00059    0.00174   -0.00101
O3    1   -0.080266    0.009376    0.182416    11.00000    0.00562    0.01391 =
         0.01197    0.00395    0.00209    0.00403
O4    1    0.417616    0.188842    0.267722    11.00000    0.00391    0.00896 =
         0.01536   -0.00465    0.00068   -0.00088
O5    1    0.088034   -0.162314    0.069842    11.00000    0.01341    0.01181 =
         0.01088   -0.00485    0.00720   -0.00331
O6    1    0.094686   -0.156397    0.333317    11.00000    0.01173    0.01113 =
         0.00757    0.00354    0.00238    0.00280
O7    1    0.418281   -0.089284    0.258672    11.00000    0.00813    0.00691 =
         0.01079   -0.00071   -0.00116    0.00229
O8    1    0.666880    0.137630    0.210900    11.00000    0.01294    0.00944 =
         0.01216    0.00170    0.00711    0.00093
O9    1    0.346106    0.055146    0.042465    11.00000    0.01246    0.01605 =
         0.00819    0.00117    0.00067   -0.00222
DFIX 0.89 0.01 O9 H
H     6    0.430995    0.075228    0.014780    11.00000    0.05148
HKLF 4

REM  shelxt_a.res in P2(1)/c
REM R1 =  0.0294 for    1998 Fo > 4sig(Fo)  and  0.0353 for all    2203 data
REM    131 parameters refined using      1 restraints

END

WGHT      0.0131      1.6427

REM Instructions for potential hydrogen bonds
HTAB O9 O9_$1

REM Highest difference peak  1.023,  deepest hole -1.153,  1-sigma level  0.158
Q1    1   0.2825  0.3951  0.0358  11.00000  0.05    1.02
Q2    1   0.4598 -0.0910  0.2188  11.00000  0.05    0.71
Q3    1   0.2555  0.3267 -0.0159  11.00000  0.05    0.63
Q4    1   0.0860 -0.1146  0.2545  11.00000  0.05    0.62
Q5    1   0.1625  0.3400 -0.0030  11.00000  0.05    0.62
Q6    1   0.0725 -0.1155  0.0227  11.00000  0.05    0.57
Q7    1   0.1343 -0.1811  0.0463  11.00000  0.05    0.56
Q8    1   0.6262  0.2062  0.1655  11.00000  0.05    0.55
Q9    1   0.1145 -0.1412  0.1390  11.00000  0.05    0.54
Q10   1   0.5915  0.3142  0.4445  11.00000  0.05    0.54
Q11   1   0.0868  0.3711  0.0786  11.00000  0.05    0.54
Q12   1  -0.0220 -0.2329  0.0640  11.00000  0.05    0.53
Q13   1   0.3553  0.3156  0.0228  11.00000  0.05    0.52
Q14   1  -0.1281  0.0698  0.1591  11.00000  0.05    0.52
Q15   1   0.2160  0.4232 -0.0504  11.00000  0.05    0.52
Q16   1   0.6924  0.2316  0.2268  11.00000  0.05    0.52
Q17   1   0.1779 -0.0371  0.2063  11.00000  0.05    0.51
Q18   1   0.4986  0.2133  0.2754  11.00000  0.05    0.50
Q19   1   0.1750  0.0137  0.3716  11.00000  0.05    0.49
Q20   1   0.6368  0.1637  0.2659  11.00000  0.05    0.49
Q21   1   0.3032  0.3791  0.1625  11.00000  0.05    0.48
Q22   1   0.7249  0.1297  0.2659  11.00000  0.05    0.48
Q23   1  -0.0897 -0.0476  0.1272  11.00000  0.05    0.48
Q24   1   0.3613 -0.1237  0.2241  11.00000  0.05    0.48
Q25   1   0.0510 -0.1086  0.3457  11.00000  0.05    0.48
Q26   1   0.1237 -0.2115  0.3777  11.00000  0.05    0.48
Q27   1   0.5483 -0.0711  0.1772  11.00000  0.05    0.47
Q28   1   0.7023  0.2651  0.4120  11.00000  0.05    0.47
Q29   1   0.6418  0.1568  0.3702  11.00000  0.05    0.47
Q30   1  -0.0088 -0.0435  0.1814  11.00000  0.05    0.47
;
_shelx_res_checksum              87162
_shelx_hkl_file
;
   0   0  -2 10393.7 520.503   6
   0   0   2 12827.4 578.821   3
   0   0   2 11915.6 545.985   9
   0   0   2 13119.2 566.839   6
   0   0  -2 12465.7 556.263   2
   0   0   2 11994.1 540.412   2
   0   0  -2 11044.0 532.650   3
   0   0  -2 11682.8 546.818   9
   0   0   3 34.2270 153.028   2
   0   0  -3 57.3560 129.291   3
   0   0  -3 196.729 186.919   6
   0   0   3-87.3160 142.116   9
   0   0  -4 92276.2 2508.28   3
   0   0   4 90583.3 2466.96   9
   0   0   4 92152.7 2472.91   2
   0   0  -4 92246.2 2510.94   6
   0   0   5 89.1607 72.6754   4
   0   0  -5 204.112 228.176   3
   0   0   5-24.4040 184.547   2
   0   0  -5 78.1710 186.906   6
   0   0   5 363.055 209.157   9
   0   0   6 34064.2 1593.66   2
   0   0   6 31793.5 899.945   4
   0   0  -6 33446.0 1616.57   6
   0   0   6 35372.1 1642.43   9
   0   0  -6 36644.7 1679.88   3
   0   0   6 34314.3 874.054   4
   0   0   7-226.521 232.547   9
   0   0   7-47.9972 45.3652   4
   0   0  -7 259.847 314.832   6
   0   0  -7-114.143 192.066   3
   0   0   7-76.0113 60.9233   4
   0   0   7 181.552 206.153   2
   0   0  -8 170718. 4926.08   3
   0   0   8 173801. 4899.05   9
   0   0  -8 170047. 4899.81   6
   0   0   8 173337. 4862.57   2
   0   0  -9 395.261 366.299   6
   0   0   9 98.1330 227.294   9
   0   0   9 142.517 304.662   2
   0   0  -9 418.006 315.343   3
   0   0 -10 14229.5 1378.26   6
   0   0 -10 13831.3 1372.11   3
   0   0  10 12936.6 1313.70   9
   0   0  10 10616.1 1189.43   2
   0   0  11 12.0720 309.218   9
   0   0 -11 654.245 451.065   6
   0   0  11 125.483 302.707   2
   0   0 -12 25168.3 2070.72   6
   0   0  12 21839.4 1903.53   2
   0   0  12 21875.6 1915.85   9
   0   0  13 31.9920 335.926   2
   0   0 -13 22.7418 355.018   6
   0   0  13 225.147 536.167   9
   0   0 -14 713.937 512.804   6
   0   0  14 1237.04 650.212   9
   0   1   1 3854.76 202.364   4
   0  -1  -1 3196.38 212.790   3
   0  -1   1 4366.25 225.532   3
   0   1   1 3363.40 252.293   9
   0  -1   1 4333.38 234.851   8
   0  -1  -1 3854.82 267.731   2
   0   1   1 4134.34 280.776   7
   0  -1  -1 3834.82 275.408   9
   0   1  -1 3871.55 221.734   8
   0   1  -1 3534.14 266.691   5
   0  -1   1 3819.55 270.306   5
   0   1  -1 4077.84 220.883   3
   0   1   1 4009.02 237.916   3
   0  -1  -1 3676.42 205.022   4
   0  -1   1 4076.51 258.384   6
   0   1  -1 3504.09 245.947   6
   0  -1   2 49323.8 1034.47   8
   0   1   2 45141.4 1298.66   2
   0   1  -2 40749.4 1215.28   6
   0  -1  -2 42321.2 1218.81   3
   0   1  -2 42651.3 1186.36   3
   0  -1   2 48178.1 1241.84   3
   0   1   2 45878.2 935.964   4
   0  -1   2 45408.1 1188.71   2
   0   1  -2 43031.6 990.450   8
   0   1   2 41655.3 1247.10   9
   0  -1  -2 42201.3 934.192   4
   0   1  -2 40571.7 1276.16   5
   0  -1   2 47183.4 1268.55   6
   0  -1  -2 41902.2 1241.54   7
   0   1  -3 74094.2 1464.56   8
   0   1   3 69349.7 1947.24   9
   0  -1  -3 73482.6 1959.20   7
   0  -1  -3 63641.3 1397.45   4
   0   1   3 77073.2 2041.05   2
   0   1  -3 71176.7 2046.89   5
   0  -1   3 76293.0 1903.27   2
   0  -1  -3 73258.1 2019.10   6
   0   1   3 75988.2 1397.21   4
   0  -1  -3 72549.9 1958.13   3
   0   1  -3 73595.9 1927.12   3
   0  -1   3 78247.3 1495.53   8
   0   1  -3 71670.0 1935.58   6
   0   1  -4 86904.4 2390.96   3
   0  -1  -4 84933.2 2417.09   3
   0   1   4 82938.4 2396.72   9
   0   1  -4 85656.4 2388.71   6
   0  -1   4 84882.0 2316.99   2
   0  -1   4 85886.6 2392.21   9
   0   1   4 87276.6 2474.48   2
   0  -1  -4 93803.0 1804.70   8
   0  -1  -4 86278.3 2479.93   6
   0  -1   4 83715.4 1693.67   8
   0  -1  -5 6496.41 319.312   8
   0  -1  -5 6037.82 631.236   3
   0  -1  -5 7258.40 686.891   6
   0   1  -5 6449.55 616.182   3
   0  -1   5 5694.28 567.343   2
   0   1   5 7435.38 681.536   2
   0   1   5 6682.34 641.019   9
   0  -1   5 5753.78 594.108   9
   0   1  -5 6065.42 599.171   6
   0  -1   6 12499.3 916.717   2
   0  -1   6 12163.1 939.430   9
   0  -1  -6 14420.0 1061.32   6
   0   1  -6 13770.9 992.935   3
   0   1   6 14382.0 1023.42   9
   0  -1  -6 10882.9 395.991   8
   0  -1  -6 12208.0 970.976   3
   0  -1   6 13423.0 628.558   4
   0   1   6 12793.1 988.932   2
   0   1  -6 13780.7 998.275   6
   0  -1  -7 4448.38 646.454   3
   0   1  -7 5105.64 671.014   3
   0  -1   7 4650.20 631.465   2
   0   1   7 4718.89 649.747   9
   0  -1   7 5106.55 388.946   4
   0   1   7 4767.88 656.120   2
   0   1  -7 4848.78 651.611   6
   0  -1  -7 5775.66 754.395   6
   0  -1   7 3780.05 592.729   9
   0  -1  -8 11465.7 1112.37   6
   0   1  -8 13791.0 1176.45   6
   0   1   8 11420.2 1083.88   9
   0  -1   8 10814.6 1015.35   2
   0   1  -8 12255.6 1109.32   3
   0   1   8 10540.9 1044.92   2
   0  -1   8 14388.0 1197.52   9
   0  -1  -8 12755.9 1168.85   3
   0  -1  -9 12826.3 1249.84   3
   0   1  -9 11440.2 1165.39   3
   0   1  -9 9828.82 1063.16   6
   0  -1  -9 11332.9 1201.67   6
   0  -1   9 12345.5 1205.68   9
   0   1   9 11636.3 1168.34   2
   0  -1   9 10858.5 1084.90   2
   0   1   9 13768.9 1259.85   9
   0  -1  10 3435.83 711.580   9
   0   1  10 4246.35 763.084   9
   0  -1  10 4824.22 804.690   2
   0   1 -10 5320.25 856.549   3
   0   1 -10 4458.19 785.542   6
   0   1  10 3751.25 741.705   2
   0  -1 -10 4473.89 814.812   6
   0  -1 -10 3830.76 745.855   3
   0   1  11 17686.6 1637.86   2
   0   1  11 18987.9 1680.51   9
   0   1 -11 19743.8 1742.85   3
   0  -1  11 18513.1 1668.77   9
   0   1 -11 19593.5 1715.01   6
   0  -1  11 17480.6 1574.73   2
   0  -1 -11 19226.5 1723.87   6
   0   1 -12 4326.19 886.821   6
   0  -1  12 4036.19 853.711   2
   0  -1  12 6623.72 1093.41   9
   0   1  12 5355.75 945.757   9
   0  -1 -12 4760.34 919.553   6
   0   1 -13 910.060 533.431   6
   0  -1  13 2236.61 687.336   2
   0  -1  13 850.659 472.454   9
   0   1  13 1151.42 539.112   9
   0  -1 -13 1376.11 493.835   6
   0  -1  14-556.139 461.245   2
   0  -1 -14 825.858 559.563   6
   0   1 -14-524.360 455.935   6
   0   2   0 1207.51 193.250   7
   0  -2   0 645.784 152.025   4
   0  -2   0 772.534 159.775   7
   0   2   0 1071.08 205.881   5
   0  -2   0 906.730 163.905   1
   0   2  -1 3157.50 249.541   7
   0   2   1 2247.40 287.708   9
   0  -2   1 2242.23 221.372   7
   0  -2  -1 2524.66 286.075   7
   0   2  -1 2173.17 274.797   5
   0  -2  -1 2315.17 245.432   4
   0   2   1 2592.91 207.034   3
   0  -2   1 2893.40 188.213   3
   0   2   1 2080.81 277.014   1
   0   2  -1 2659.78 179.920   3
   0  -2  -2 523.342 192.744   7
   0   2  -2 515.042 192.984   6
   0  -2  -2 248.927 129.951   3
   0  -2   2 489.578 131.246   3
   0  -2  -2 383.510 119.613   4
   0   2  -2 241.442 120.319   3
   0   2  -2 483.148 189.093   5
   0   2   2 547.003 130.968   4
   0   2   2 330.784 178.708   9
   0  -2  -3 29403.8 1199.72   7
   0   2  -3 27735.4 1212.53   5
   0   2   3 28626.9 1195.75   9
   0   2  -3 29323.2 1159.56   6
   0   2  -3 28402.3 1056.07   3
   0   2   3 31761.7 872.128   4
   0  -2  -3 26460.6 1085.04   3
   0  -2  -3 28597.7 861.456   4
   0  -2  -4 593.650 124.101   4
   0  -2  -4 602.233 225.845   3
   0  -2  -4 1143.65 302.964   7
   0  -2   4 669.872 213.479   2
   0   2  -4 321.074 161.576   6
   0   2   4 813.730 264.807   9
   0   2  -4 439.506 183.581   3
   0   2  -4 475.603 217.919   5
   0   2   4 731.185 273.191   2
   0   2   4 523.691 109.903   4
   0  -2  -5 18916.5 615.110   4
   0   2  -5 22594.6 1157.50   3
   0   2  -5 20124.0 1234.68   5
   0  -2   5 22035.9 770.907   8
   0   2  -5 22239.5 1201.97   6
   0  -2   5 20828.7 1174.24   9
   0   2   5 21048.1 1225.86   2
   0  -2  -5 21700.3 1201.80   3
   0  -2   5 22081.0 1115.09   2
   0   2   5 20829.3 1198.12   9
   0  -2  -5 20349.6 1215.55   6
   0   2  -6 5886.18 685.744   6
   0  -2   6 6245.49 669.293   9
   0   2   6 4429.33 605.633   2
   0   2   6 3716.57 565.726   9
   0  -2   6 4015.05 291.446   8
   0  -2   6 4366.54 439.156   4
   0   2  -6 4975.32 597.544   3
   0  -2  -6 5683.07 660.554   3
   0  -2   6 5884.11 629.673   2
   0  -2  -6 4329.83 620.793   6
   0   2  -7 43632.1 2007.03   3
   0  -2   7 41266.9 1877.30   2
   0   2  -7 44954.1 2072.29   6
   0  -2  -7 43858.1 2071.91   3
   0   2   7 40046.3 2017.12   2
   0  -2   7 44841.5 2073.67   9
   0  -2   7 43605.5 1504.78   4
   0  -2  -7 41290.8 2068.68   6
   0   2   7 45433.8 2106.35   9
   0  -2   8 636.968 324.282   9
   0   2   8 146.206 267.366   2
   0  -2  -8 896.899 474.966   6
   0  -2  -8 551.280 333.901   3
   0   2  -8 289.460 313.296   6
   0   2  -8 693.316 303.420   3
   0   2   8 762.680 379.642   9
   0  -2   8 724.507 367.639   2
   0  -2   8 411.531 186.183   4
   0  -2   9 14753.4 1339.40   9
   0  -2  -9 16441.6 1428.32   3
   0  -2  -9 13730.4 1317.78   6
   0   2   9 13952.2 1316.80   2
   0   2   9 14137.4 1318.37   9
   0   2  -9 14129.7 1295.22   6
   0  -2   9 13963.2 1218.27   2
   0   2  -9 14439.2 1306.95   3
   0  -2  10 416.355 302.918   2
   0   2  10-26.3200 308.855   9
   0   2 -10 86.0428 251.058   6
   0  -2  10-12.0813 302.485   9
   0  -2 -10 179.321 325.164   6
   0   2 -10 423.320 395.187   3
   0  -2  11 59.3775 225.004   2
   0   2 -11 294.729 414.104   3
   0  -2  11 14.7055 283.669   9
   0   2  11 1016.10 478.393   9
   0  -2 -11 836.898 474.673   6
   0   2 -11-51.3325 368.275   6
   0  -2  12 590.595 374.547   2
   0   2 -12 390.472 344.909   6
   0  -2  12 464.487 393.040   9
   0   2  12 617.709 520.317   9
   0  -2 -12 716.898 505.080   6
   0   2 -13 1038.43 575.973   6
   0  -2 -13 784.551 563.884   6
   0  -2  13 1303.30 524.334   2
   0   2  13 761.905 530.465   9
   0  -2  13 660.027 531.352   9
   0   2 -14 1979.83 657.517   6
   0  -3   0-5.79077 148.023   4
   0   3   0-54.2360 150.368   5
   0  -3   0 268.671 152.732   7
   0   3  -1 5932.98 277.645   3
   0  -3  -1 6193.17 480.676   4
   0   3   1 7062.33 358.166   3
   0   3   1 6410.45 547.098   5
   0  -3   1 5707.13 426.990   7
   0  -3  -1 6453.17 523.916   7
   0   3  -1 6367.74 534.479   5
   0   3   1 5823.20 311.825  10
   0  -3   1 5601.06 487.195   4
   0   3   1 5744.33 489.039   1
   0   3  -2 114269. 2361.52   3
   0   3  -2 110119. 2868.26   5
   0   3  -2 110605. 2806.30   6
   0  -3   2 107095. 2487.25   7
   0  -3   2 122101. 2421.34   3
   0  -3  -2 110996. 2866.68   7
   0  -3  -2 110083. 2593.21   4
   0  -3   2 109495. 2766.92   4
   0   3   2 110875. 2867.53   9
   0   3   2 112466. 2881.21   1
   0   3  -3 1862.67 335.478   6
   0   3  -3 2125.59 277.624   3
   0  -3  -3 2276.66 282.904   4
   0   3  -3 2591.04 396.824   5
   0  -3   3 1994.06 319.403   4
   0  -3   3 2038.77 261.528   7
   0   3   3 2533.14 398.205   9
   0  -3  -3 1888.43 353.938   7
   0  -3  -4 71774.0 2392.99   7
   0   3  -4 73905.2 2470.77   5
   0  -3  -4 71325.5 2228.02   3
   0  -3   4 72877.2 2181.70   4
   0   3   4 73950.9 2414.03   9
   0   3  -4 74820.3 2124.61   3
   0   3  -4 74289.0 2341.97   6
   0  -3  -4 73451.8 1866.17   4
   0   3  -5 42821.0 1660.59   3
   0  -3  -5 43222.2 1768.70   3
   0  -3   5 43216.8 1649.47   2
   0  -3  -5 44125.2 1888.86   7
   0   3  -5 40188.7 1750.31   6
   0   3   5 40003.2 1803.09   9
   0  -3  -5 40472.3 1215.84   4
   0  -3   5 41599.7 1575.23   4
   0   3  -5 39801.5 1865.80   5
   0  -3   6 121401. 3189.68   4
   0  -3   6 126139. 3417.60   2
   0  -3  -6 117923. 3749.50   6
   0   3  -6 122315. 3832.53   5
   0   3  -6 126473. 3663.77   6
   0   3   6 124237. 3732.15   9
   0  -3  -6 119718. 2531.16   4
   0   3  -6 127445. 3516.03   3
   0  -3  -6 117257. 3561.61   3
   0  -3   7 1984.20 348.081   4
   0  -3  -7 1167.44 437.190   6
   0  -3  -7 1721.07 455.462   3
   0   3  -7 2473.13 474.368   3
   0  -3   7 1664.37 411.110   9
   0  -3   7 2134.80 441.708   2
   0   3   7 1922.15 469.013   9
   0   3  -7 1955.41 505.080   5
   0   3  -7 2367.19 493.379   6
   0  -3   8 6074.97 597.095   4
   0  -3   8 5873.18 833.882   9
   0   3  -8 5034.57 719.240   3
   0   3  -8 5706.92 775.624   6
   0   3   8 6778.24 878.459   9
   0  -3  -8 5662.06 838.095   6
   0  -3   8 5591.81 729.693   2
   0   3  -9 351.754 303.404   3
   0   3   9 900.666 455.411   9
   0  -3   9 816.384 401.674   9
   0   3  -9 1326.91 475.554   6
   0  -3  -9 517.097 419.202   6
   0  -3   9 1048.73 389.212   2
   0  -3  10 1637.02 506.273   2
   0  -3 -10 954.240 399.715   6
   0  -3  10 1472.86 566.129   9
   0   3 -10 1034.57 434.463   6
   0   3  10 1068.15 501.432   9
   0   3 -10 1541.34 517.976   3
   0   3 -11 5558.50 912.076   6
   0   3 -11 5380.55 916.660   3
   0   3  11 3804.69 781.982   9
   0  -3 -11 6671.25 1119.28   6
   0  -3  11 4426.29 868.647   9
   0  -3  11 5676.73 885.890   2
   0   3  12 9132.19 1273.70   9
   0  -3 -12 10104.8 1406.53   6
   0  -3  12 9735.68 1311.32   9
   0   3 -12 8715.84 1247.53   6
   0  -3  12 7383.19 1071.88   2
   0   3  13 12172.9 1577.04   9
   0  -3 -13 12040.9 1567.18   6
   0   3 -13 13955.2 1638.91   6
   0  -3  13 12176.1 1517.01   9
   0   4   0 152580. 3707.82   5
   0  -4   0 149775. 3612.28   4
   0  -4   0 148114. 3487.76   7
   0  -4   1 22166.4 1004.21   7
   0   4   1 25718.5 781.633   3
   0   4   1 22998.4 1188.42   5
   0   4   1 21616.1 1092.23   1
   0   4  -1 24041.5 648.914   3
   0   4  -1 23387.1 1182.53   5
   0  -4   1 21999.5 1127.10   4
   0  -4  -1 23931.7 1122.74   4
   0  -4  -1 23560.3 1145.00   7
   0   4   1 23481.1 733.674  10
   0   4  -2 94073.3 2789.86   5
   0   4   2 102519. 2846.80   1
   0  -4   2 96314.6 2733.77   4
   0   4  -2 98089.3 2074.95   3
   0  -4   2 94481.7 2414.70   7
   0  -4  -2 94447.5 2572.75   4
   0  -4  -2 93469.4 2768.24   7
   0   4  -3 3290.06 490.095   5
   0   4   3 3234.17 482.040   1
   0  -4   3 3328.00 361.933   7
   0  -4   3 3222.35 437.970   4
   0   4  -3 3024.98 317.452   3
   0   4   3 2554.92 434.923   9
   0  -4  -3 3543.35 410.363   4
   0  -4  -3 3001.68 468.200   7
   0   4  -3 3230.97 496.090   6
   0   4  -4 2818.59 501.564   5
   0  -4  -4 3228.43 507.171   7
   0   4   4 3731.87 537.786   9
   0  -4  -4 2663.63 342.186   4
   0   4  -4 3120.78 377.873   3
   0  -4   4 2839.01 346.630   7
   0   4  -4 2815.87 474.210   6
   0  -4   4 2995.03 450.988   4
   0   4  -5 36583.8 1495.78   3
   0  -4  -5 35192.6 1777.19   7
   0   4  -5 33403.4 1780.67   5
   0   4  -5 34538.8 1697.74   6
   0  -4   5 35640.1 1595.82   4
   0   4   5 32753.1 1711.04   9
   0  -4   5 35480.4 1338.38   7
   0  -4  -5 35802.8 1305.96   4
   0   4   6 23410.5 1518.33   9
   0   4  -6 26045.6 1369.20   3
   0  -4  -6 22250.3 1492.22   7
   0  -4  -6 25787.2 1025.53   4
   0   4  -6 24705.6 1601.66   5
   0  -4   6 27012.1 1400.64   4
   0   4  -6 25988.9 1530.57   6
   0  -4   6 27424.5 1397.99   2
   0  -4  -7 555.972 315.092   6
   0  -4   7 1112.71 324.897   4
   0   4   7 1181.15 421.723   9
   0   4  -7 1600.92 407.670   6
   0   4  -7 1594.75 507.802   5
   0   4  -7 1299.27 353.279   3
   0  -4   8 22742.7 1327.26   4
   0   4   8 21414.9 1610.96   9
   0   4  -8 21287.3 1556.80   6
   0  -4  -8 20201.9 1656.50   6
   0  -4   8 20534.7 1552.52   9
   0   4  -8 20827.5 1434.14   3
   0   4  -8 22781.3 1746.06   5
   0  -4   8 21090.2 1400.84   2
   0  -4  -9 2362.05 629.543   6
   0  -4   9 1833.64 462.208   2
   0   4  -9 1644.26 472.316   3
   0  -4   9 1871.23 553.041   9
   0   4  -9 1780.55 527.011   6
   0   4   9 2345.58 599.944   9
   0   4 -10 35931.5 2290.20   6
   0  -4  10 36291.2 2108.41   2
   0   4  10 32541.4 2232.32   9
   0   4 -10 35281.3 2166.71   3
   0  -4 -10 29287.6 2201.49   6
   0  -4  10 33459.4 2259.09   9
   0  -4  11 621.860 386.080   2
   0   4 -11 177.729 367.544   3
   0   4 -11 321.138 451.288   6
   0   4  11 1059.29 499.491   9
   0  -4  11 699.998 462.685   9
   0  -4 -11 111.742 308.264   6
   0  -4  12-15.0856 317.000   9
   0   4  12 262.446 381.707   9
   0   4 -13 4267.93 923.372   6
   0  -4 -13 3789.89 986.251   6
   0  -4  13 3909.20 906.367   9
   0   4  13 3886.26 917.104   9
   0  -5   0 185.709 213.310   7
   0   5   0 7.60189 35.8234   3
   0   5   0 118.222 198.191   5
   0  -5   0-123.776 191.116   4
   0  -5  -1 61158.8 2177.35   7
   0  -5   1 64905.9 2061.88   7
   0  -5   1 62387.5 2251.14   4
   0   5  -1 62262.1 1295.36   3
   0   5   1 61857.9 2149.87   1
   0   5  -1 63358.8 2300.08   5
   0   5   1 64468.1 2327.52   5
   0   5   1 66001.8 1518.72   3
   0   5   1 61886.1 1443.22  10
   0  -5  -1 62743.8 2190.92   4
   0  -5   2 43240.1 1552.92   7
   0   5   2 39593.3 1737.90   1
   0   5  -2 43504.0 1089.73   3
   0   5   2 43156.0 1287.28  10
   0  -5   2 41122.8 1775.38   4
   0  -5  -2 41414.3 1681.50   4
   0   5   2 40746.6 1836.51   5
   0   5  -2 40059.3 1818.47   5
   0  -5  -2 41467.9 1803.12   7
   0  -5   3 36410.8 1416.25   7
   0   5   3 34333.6 1724.12   1
   0  -5  -3 36121.0 1533.13   4
   0   5  -3 36213.9 1171.19   3
   0  -5  -3 37082.3 1760.67   7
   0   5  -3 34137.3 1707.80   5
   0  -5   3 33117.7 1621.00   4
   0   5   3 35967.5 1323.02  10
   0   5   4 1889.51 456.027   1
   0   5  -4 1869.27 296.989   3
   0   5  -4 2160.96 481.502   5
   0  -5   4 1423.70 258.616   7
   0  -5  -4 1724.28 305.389   4
   0  -5   4 1585.56 401.696   4
   0  -5  -4 1168.37 348.801   7
   0   5   4 1527.54 379.544   9
   0  -5  -5 4043.67 656.701   7
   0   5  -5 3295.17 608.193   5
   0  -5  -5 3573.74 463.275   4
   0  -5   5 3570.42 427.606   7
   0  -5   5 3080.25 498.902   4
   0   5  -5 3100.98 440.438   3
   0   5  -5 2926.37 531.288   6
   0   5   5 3084.81 554.565   9
   0  -5  -6 33898.5 1381.41   4
   0  -5   6 29396.6 1619.82   4
   0   5  -6 31261.6 1921.48   5
   0  -5  -6 31068.2 1871.33   7
   0   5  -6 30347.2 1769.61   6
   0  -5   6 34611.8 1417.72   7
   0  -5   6 32765.4 1590.83   2
   0   5  -6 33049.9 1540.57   3
   0   5   6 29335.3 1805.37   9
   0   5  -7 5599.52 802.393   6
   0   5  -7 3932.21 584.038   3
   0  -5   7 5080.73 660.186   2
   0   5  -7 3690.12 699.394   5
   0  -5  -7 4170.02 770.054   6
   0  -5   7 3825.89 593.912   4
   0   5   7 5106.14 790.517   9
   0   5  -8 2303.57 639.325   5
   0  -5   8 2185.59 524.296   2
   0   5  -8 1579.83 409.532   3
   0  -5   8 1734.94 420.428   4
   0   5  -8 274.247 291.170   6
   0   5   8 2395.99 615.218   9
   0  -5  -8 1780.31 624.290   6
   0  -5   9 28157.0 1749.05   2
   0  -5  -9 28907.9 2175.26   6
   0   5  -9 30601.7 1873.68   3
   0   5  -9 29627.0 2185.01   5
   0   5  -9 27689.8 1955.00   6
   0  -5   9 28530.3 2017.20   9
   0  -5   9 30859.0 1738.33   4
   0   5   9 29413.8 2070.12   9
   0   5 -10 2246.80 550.635   6
   0   5  10 2973.06 709.447   9
   0  -5 -10 1066.69 545.617   6
   0  -5  10 2769.06 613.444   2
   0  -5  10 2500.65 658.700   9
   0   5 -10 2460.60 614.233   3
   0   5 -11 8964.51 1228.95   6
   0   5  11 9087.72 1247.56   9
   0  -5 -11 8106.34 1287.53   6
   0  -5  11 8913.84 1277.75   9
   0  -5  12-66.8704 322.036   9
   0   5 -12 208.130 390.022   6
   0  -5 -12 481.541 378.449   6
   0   5  12-65.8738 314.444   9
   0  -5  13 1637.64 654.426   9
   0   5  13 1805.10 604.610   9
   0   6   0 22248.1 1392.56   5
   0  -6   0 21905.3 1259.59   7
   0   6   0 18273.7 506.240   3
   0   6   0 18247.0 517.101   3
   0  -6   0 22895.2 1355.80   4
   0   6   1 5698.31 725.108   5
   0  -6   1 6678.76 746.910   4
   0  -6   1 4635.72 568.169   7
   0   6   1 6036.85 362.116   3
   0   6  -1 5459.87 714.740   5
   0  -6  -1 5401.73 666.057   4
   0   6   1 5523.84 303.220  10
   0  -6  -1 6685.15 736.668   7
   0   6  -2 516.318 322.994   5
   0   6   2 478.542 262.019   1
   0   6  -2 483.654 90.5572   3
   0   6   2 740.344 164.630  10
   0  -6  -2 618.905 304.434   4
   0  -6   2 312.805 279.609   4
   0  -6  -2 1155.85 345.726   7
   0  -6   2 414.241 217.838   7
   0   6   2 430.761 332.622   5
   0   6   3 12387.3 1068.91   1
   0  -6  -3 13252.4 1109.95   7
   0   6  -3 12947.6 606.934   3
   0  -6   3 11331.1 831.642   7
   0   6   3 12681.6 1127.73   5
   0   6   3 12692.6 762.925  10
   0  -6  -3 12516.2 978.851   4
   0   6  -3 13246.5 1144.95   5
   0  -6   3 13160.4 1094.02   4
   0   6   4 20774.7 1111.58  10
   0  -6   4 20435.3 1107.89   7
   0  -6   4 20231.3 1377.48   4
   0   6   4 20958.9 1475.51   1
   0  -6  -4 19911.8 1416.42   7
   0   6  -4 20283.0 1454.76   5
   0  -6  -4 21933.9 1271.45   4
   0   6  -4 19158.8 919.147   3
   0   6   5 33629.0 1974.94   1
   0  -6  -5 30932.9 1877.96   7
   0   6   5 31734.9 1902.71   9
   0  -6  -5 30667.2 1513.35   4
   0  -6   5 33317.5 1445.91   7
   0  -6   5 31482.0 1786.83   4
   0   6  -5 29427.8 1877.96   5
   0   6  -5 32978.0 1375.81   3
   0   6   6 1081.55 425.961   9
   0   6   6 191.665 296.758   1
   0   6  -6 1155.89 438.371   6
   0   6  -6 741.578 260.259   3
   0  -6  -6 1069.48 446.056   7
   0  -6   6 816.502 234.604   7
   0   6  -6 365.682 336.621   5
   0  -6   6 474.308 231.101   4
   0  -6  -6 964.442 289.087   4
   0   6   7 20959.2 1659.20   9
   0   6  -7 18649.6 1626.38   5
   0  -6  -7 18826.6 1596.25   7
   0  -6   7 20782.6 1495.60   4
   0   6   7 20440.6 1694.09   1
   0  -6   7 21478.0 1373.55   2
   0   6  -7 19988.6 1283.82   3
   0   6  -7 22567.9 1659.85   6
   0   6  -8 2205.67 484.481   3
   0   6  -8 3639.78 736.225   6
   0   6   8 4305.56 864.537   1
   0  -6   8 4159.56 680.523   4
   0  -6  -8 4690.44 984.348   6
   0   6  -8 3072.03 718.627   5
   0   6   8 3156.70 741.821   9
   0  -6   8 4096.74 649.683   2
   0   6  -9 11117.3 1395.89   5
   0   6  -9 12390.4 1368.83   6
   0  -6  -9 13509.2 1504.48   6
   0  -6   9 12185.4 1171.21   4
   0  -6   9 13819.4 1474.50   9
   0   6  -9 13716.5 1238.01   3
   0   6   9 14773.1 1518.98   9
   0  -6  10 656.066 446.852   9
   0  -6 -10 777.664 503.916   6
   0   6 -10 730.858 522.858   6
   0   6  10 1374.02 612.570   9
   0   6  11 696.320 391.991   9
   0   6  11 1190.49 775.175   1
   0  -6 -11 322.827 418.880   6
   0   6  11-44.6756 292.660  10
   0   6 -11 1.34065 328.358   6
   0  -6  11 591.999 434.937   9
   0   6 -12 20790.2 2027.47   6
   0   6  12 25541.2 2247.95   9
   0  -6  12 22333.0 2148.18   9
   0   6  12 20688.3 2006.74  10
   0  -6 -12 20413.5 2153.52   6
   0  -7   0 342.481 288.834   4
   0   7   0 106.225 274.121   5
   0  -7   0 303.464 263.580   7
   0   7   1 4583.67 729.156   5
   0  -7  -1 5021.08 704.462   4
   0  -7   1 3753.65 569.117   7
   0  -7  -1 4617.81 700.683   7
   0   7  -1 4776.92 716.538   5
   0  -7   1 4058.42 649.089   4
   0  -7  -2 3468.94 620.842   4
   0  -7   2 3136.09 602.546   4
   0   7   2 3542.93 323.868  10
   0  -7   2 3515.59 533.310   7
   0  -7  -2 3383.39 609.682   7
   0   7   2 3312.63 639.690   5
   0   7  -2 4217.09 700.090   5
   0   7   3 874.354 408.670   1
   0  -7  -3 1150.27 370.364   7
   0   7   3 1467.60 273.374  10
   0  -7  -3 2054.99 472.489   4
   0  -7   3 1026.31 376.992   4
   0   7   3 1098.06 461.523   5
   0  -7   3 1753.98 386.229   7
   0   7  -3 1323.19 438.157   5
   0   7   4 37265.0 2093.08   1
   0  -7   4 34813.2 1998.98   4
   0   7   4 35176.3 2109.32   5
   0  -7  -4 37448.3 1863.00   4
   0   7   4 37226.2 1561.63  10
   0  -7  -4 33705.1 2007.32   7
   0   7  -4 33266.9 2034.36   5
   0  -7   4 40708.7 1722.82   7
   0   7  -5 9995.60 1159.76   5
   0  -7   5 10634.3 1104.47   4
   0   7   5 8799.72 1071.41   1
   0  -7  -5 9398.06 902.048   4
   0  -7   5 10334.5 837.161   7
   0   7   5 11238.5 908.722  10
   0  -7  -5 7471.11 985.034   7
   0   7   6 11983.4 1029.17  10
   0   7  -6 12254.6 1321.53   5
   0  -7  -6 11771.7 989.217   4
   0   7   6 11294.5 1280.58   1
   0  -7   6 12956.3 1228.85   4
   0  -7  -6 11820.6 1268.74   7
   0  -7  -7 5979.86 977.103   7
   0  -7   7 7651.76 832.750   2
   0   7  -7 5995.46 992.112   5
   0   7   7 5891.43 982.825   1
   0   7   7 6316.69 816.016  10
   0  -7   7 6066.51 862.104   4
   0   7  -8 11190.1 1388.53   5
   0  -7  -8 9066.87 1249.81   6
   0   7   8 9678.87 1074.42  10
   0  -7   8 9578.31 1116.05   4
   0   7   8 9340.06 1280.26   1
   0   7   8 9966.10 1257.41   9
   0  -7   9 2001.84 557.469   4
   0   7   9 1055.30 375.506  10
   0   7   9 1263.16 550.119   9
   0   7   9 632.292 603.549   1
   0   7  -9 1234.75 625.908   5
   0   7  -9 2217.09 650.817   6
   0  -7  -9 1668.39 637.104   6
   0   7  10 1898.79 637.853   9
   0   7  10 995.983 512.406  10
   0   7  10 1556.45 591.275   1
   0   7 -10 295.318 537.293   5
   0   7 -10 820.624 480.768   6
   0  -7 -10 885.792 611.303   6
   0  -7  10 257.139 418.890   9
   0  -7 -11-415.887 506.946   6
   0   7 -11-362.602 413.261   6
   0   7  11 649.685 558.914   1
   0   7  11-273.018 451.611   9
   0  -7  11 484.560 391.936   9
   0   7  11 472.973 367.013  10
   0   7  12 1978.57 649.186  10
   0  -8   0 16408.2 1372.50   4
   0  -8   0 16003.6 1263.28   7
   0  -8   1 6680.81 806.888   7
   0   8  -1 7478.59 957.515   5
   0  -8  -1 5905.51 848.338   4
   0  -8  -1 7601.50 919.887   7
   0  -8   1 7051.86 939.609   4
   0   8   1 6843.14 931.904   5
   0  -8  -2 18336.4 1429.86   4
   0   8   2 17609.8 1520.21   5
   0  -8   2 17870.5 1476.36   4
   0   8  -2 19602.3 1570.47   5
   0  -8  -2 22658.7 1610.87   7
   0  -8   2 21796.4 1402.54   7
   0  -8   3 26817.5 1823.19   4
   0  -8  -3 22105.0 1567.39   4
   0   8   3 24642.5 1702.17   1
   0  -8   3 23848.4 1450.68   7
   0   8  -3 27171.3 1876.17   5
   0  -8  -3 25589.7 1785.29   7
   0   8   3 21972.1 1733.49   5
   0   8  -4 1057.78 486.532   5
   0   8   4 874.219 439.926   5
   0  -8   4 828.723 416.897   4
   0   8   4 749.345 387.416   1
   0  -8  -4 686.804 308.867   4
   0  -8   4 1103.35 355.566   7
   0  -8  -4 518.974 354.230   7
   0   8   5 37578.0 2396.26   5
   0   8  -5 34017.9 2274.16   5
   0  -8   5 35137.4 2178.65   4
   0   8   5 33572.8 2208.96   1
   0  -8  -5 37121.8 1996.76   4
   0  -8  -5 37190.1 2317.92   7
   0   8   6 34.5217 321.518   1
   0  -8  -6 1258.05 571.418   7
   0  -8   6 498.321 462.090   4
   0   8  -6 1384.64 544.695   5
   0  -8  -7 4138.96 827.600   7
   0   8  -7 3386.63 807.555   5
   0  -8   7 3125.05 693.423   4
   0   8   7 3338.45 777.750   1
   0   8  -8 4819.30 980.618   5
   0   8   8 2142.48 706.133   1
   0  -8   8 4134.12 813.359   4
   0  -8  -9 229.817 447.632   6
   0  -8   9 179.825 289.283   4
   0   8  -9 688.217 535.699   5
   0   8   9-526.246 497.074   1
   0  -8 -10 5934.52 1177.73   6
   0  -8  10 5731.60 1116.18   9
   0   8 -10 7015.15 1287.52   5
   0   8  10 5893.23 1170.26   1
   0  -8  11 2922.83 838.662   9
   0   9   0 48.8814 271.238   5
   0  -9   0 50.1488 284.084   4
   0  -9   0 396.983 289.066   7
   0  -9   1 70838.6 2952.71   7
   0  -9  -1 68454.3 3138.84   4
   0   9  -1 68872.7 3260.53   5
   0   9   1 65219.9 3182.12   5
   0  -9  -1 75871.2 3198.95   7
   0  -9   1 70272.8 3227.34   4
   0  -9  -2 533.911 344.496   7
   0  -9   2 403.905 272.458   7
   0  -9  -2 534.823 365.607   4
   0  -9   2 908.436 481.695   4
   0   9   2 1492.89 505.931   5
   0   9  -2 1515.30 528.288   5
   0  -9   3 6682.14 994.535   4
   0   9  -3 8619.82 1154.35   5
   0  -9   3 8778.80 949.036   7
   0  -9  -3 7316.10 1028.81   7
   0   9   3 7157.56 1074.34   5
   0  -9  -3 8680.01 1060.30   4
   0  -9  -4 757.666 395.937   7
   0   9  -4 302.238 370.463   5
   0   9   4 282.595 359.589   5
   0  -9  -4 108.594 304.754   4
   0  -9   4-20.9994 316.972   4
   0  -9   5 1956.65 637.631   4
   0  -9  -5 1293.42 588.192   7
   0  -9  -5 1710.40 515.630   4
   0   9   5 1259.85 556.124   5
   0   9  -5 137.337 321.066   5
   0   9   5 559.713 356.655   1
   0   9  -6 249.722 409.091   5
   0   9   6-142.916 412.145   1
   0   9   6 181.034 325.811   5
   0  -9  -6-130.462 270.487   7
   0  -9   6 226.626 385.593   4
   0   9   7 35732.1 2568.35   1
   0  -9   7 34456.3 2361.59   4
   0   9   7 33773.2 2580.08   5
   0  -9  -7 31566.8 2434.82   7
   0   9  -7 34964.3 2591.03   5
   0   9  -8 1319.13 656.604   5
   0   9   8 394.716 511.283   1
   0  -9   8-188.664 376.061   4
   0   9  -9 11121.7 1584.10   5
   0  -9  -9 10022.0 1550.00   6
   0  -9   9 10356.8 1345.13   4
   0   9   9 9242.02 1422.28   1
   0 -10   0 2028.02 592.567   7
   0 -10   0 2385.50 680.890   4
   0  10   0 1238.13 538.607   5
   0 -10   1 1484.76 583.111   4
   0 -10  -1 2643.81 723.169   4
   0  10  -1 2383.71 688.654   5
   0 -10  -1 2541.51 667.323   7
   0  10   1 2395.90 642.196   5
   0 -10   1 2006.77 540.825   7
   0  10  -2 8722.50 1191.77   5
   0 -10   2 7957.35 998.116   7
   0 -10  -2 8147.51 1116.14   7
   0 -10   2 8889.46 1209.97   4
   0  10   2 10139.9 1308.86   5
   0 -10  -2 9474.72 1195.06   4
   0  10   3 6719.39 1069.87   5
   0  10  -3 6629.99 1082.05   5
   0 -10  -3 6492.41 1033.12   7
   0 -10  -3 7013.60 1010.31   4
   0 -10   3 7028.99 1095.95   4
   0 -10   4 1074.16 528.351   4
   0 -10  -4 1081.18 495.065   4
   0  10   4 923.141 599.517   5
   0 -10  -4 964.641 512.841   7
   0  10  -4 2073.17 684.794   5
   0  10   5 4930.29 987.639   5
   0 -10   5 3910.25 882.540   4
   0 -10  -5 4198.63 921.841   7
   0  10  -5 4143.11 932.215   5
   0 -10  -5 5279.56 866.728   4
   0 -10   6 66.3724 374.170   4
   0  10  -6 552.711 485.537   5
   0  10   6 243.987 393.617   5
   0 -10  -6-35.5943 346.756   7
   0  10   6-97.3041 372.380   1
   0  10   7 803.379 679.430   5
   0 -10   7 876.722 552.478   4
   0  10  -7 688.356 476.281   5
   0  10   7 462.277 362.207   1
   0  10   8 2107.90 791.430   1
   0 -10   8 2160.69 718.596   4
   0  10  -8 1441.33 745.378   5
   0  10   8 836.571 566.318   5
   0 -10   9 2582.65 738.776   4
   0 -11   0-36.4874 375.556   4
   0  11   0-78.9268 316.144   5
   0 -11   0-93.1159 318.890   7
   0  11   1 4625.01 988.117   5
   0 -11  -1 4533.34 933.472   4
   0 -11  -1 4924.27 913.281   7
   0 -11   1 1953.13 630.169   7
   0 -11   1 4869.70 1036.96   4
   0  11  -1 3130.99 821.950   5
   0 -11   2 3511.63 862.971   4
   0  11   2 3412.50 860.031   5
   0 -11  -2 2635.78 717.941   7
   0 -11  -2 3534.41 805.599   4
   0  11  -2 2328.97 710.984   5
   0 -11  -3 874.216 492.078   4
   0  11  -3 613.975 477.551   5
   0 -11   3 208.838 479.335   4
   0 -11  -3 913.483 473.596   7
   0  11   3 35.3946 337.298   5
   0  11  -4-289.642 446.803   5
   0 -11  -4 186.860 276.560   4
   0 -11   4 1753.88 641.959   4
   0 -11  -4 1229.95 536.561   7
   0  11   4 282.045 532.202   5
   0 -11  -5 744.239 523.130   7
   0  11  -5 406.729 411.045   5
   0 -11   5-172.578 446.494   4
   0  11   5-81.7643 370.961   5
   0 -11  -6 15161.0 1823.85   7
   0 -11   6 18084.5 1910.11   4
   0  11  -6 16635.7 1948.22   5
   0  11   6 14402.4 1814.69   5
   0 -12   0 2100.70 600.921   7
   0 -12   0 1175.06 623.958   4
   0  12   0 2169.65 721.562   5
   0 -12  -1 3077.39 827.238   7
   0  12  -1 3406.25 972.894   5
   0 -12   1 1805.56 749.417   4
   0 -12  -1 2406.27 694.849   4
   0  12   1 3036.58 863.203   5
   0  12  -2 2639.13 835.704   5
   0 -12  -2 2571.14 731.881   4
   0 -12   2 1968.31 749.867   4
   0 -12  -2 2552.88 730.710   7
   0  12   2 2324.33 702.545   5
   0 -12  -3 17410.7 1853.82   4
   0  12  -3 20338.9 2107.84   5
   0 -12  -3 15359.6 1756.93   7
   0 -12   3 19197.9 2028.40   4
   0  12   3 21429.2 2186.36   5
   0 -12  -4 584.888 500.266   7
   0 -12  -4-99.9155 383.410   4
   0 -13  -2 26.0725 495.123   7
  -1   0  14 18484.4 1983.57   9
   1   0 -14 15246.0 1734.14   6
  -1   0  13 160.317 390.599   9
   1   0 -13 1198.58 527.758   6
   1   0 -12 428.005 385.113   6
  -1   0  12 797.862 479.171   9
   1   0 -12 1031.92 521.378   3
   1   0 -11 312.302 395.367   6
   1   0 -11 12.5510 279.929   3
  -1   0  11-88.4894 311.283   2
  -1   0  11 164.300 412.964   9
   1   0 -10 5718.80 836.051   6
  -1   0  10 5895.48 859.961   2
  -1   0  10 6275.77 939.754   9
   1   0 -10 7566.31 1011.39   3
   1   0  -9-259.356 224.009   3
  -1   0   9-347.952 247.771   9
   1   0  -9 271.709 285.615   6
  -1   0   9-30.0854 215.643   2
  -1   0   8 1274.74 437.811   9
   1   0  -8 750.027 341.867   6
   1   0  -8 736.990 352.793   3
  -1   0   8 773.825 296.232   2
  -1   0   7 350.086 238.193   9
   1   0  -7 617.644 336.771   3
   1   0  -7 365.818 276.328   6
  -1   0   7 523.982 274.038   2
  -1   0   6 123652. 3635.42   9
   1   0  -6 130712. 3510.51   6
  -1   0   6 128061. 3469.99   2
   1   0  -6 133094. 3670.57   3
  -1   0   5 440.861 210.800   2
  -1   0   5 153.391 243.558   9
   1   0  -5 63.2113 194.368   3
   1   0  -5 128.967 178.668   6
  -1   0   4 8846.45 675.384   9
  -1   0   4 9250.63 632.610   2
   1   0  -4 7789.50 569.482   6
   1   0  -4 9114.76 673.441   3
  -1   0   3 113.196 135.709   2
   1   0  -3 89.2061 57.1030   4
   1   0  -3 70.9872 136.811   6
  -1   0   3 193.918 203.781   9
  -1   0   3 178.018 113.867   7
   1   0  -3 275.923 196.194   3
   1   0  -3 21.5262 113.491   7
  -1   0   3 49.6073 46.2718   4
   1   0  -2 115741. 2351.30   6
   1   0  -2 125842. 2196.02   4
  -1   0   2 116597. 2209.87   8
   1   0  -2 125226. 2454.44   2
  -1   0   2 128031. 2606.48   5
  -1   0   2 111377. 2177.70   4
   1   0  -2 119878. 2579.94   3
  -1   0   2 131390. 2342.89   7
   1   0  -2 122581. 2320.62   7
  -1   0   2 114530. 2593.82   9
  -1   0   1 78.9721 60.8859   1
  -1   0   1 123.306 74.8389   5
   1   0  -1 217.064 72.5011   4
  -1   0   1 327.591 100.821   3
  -1   0   1 214.379 66.3627   7
   1   0  -1 240.151 96.2758   9
  -1   0  -1 113.323 88.3839   6
   1   0   1 142.474 99.2543  10
   1   0   1 300.847 115.124   6
  -1   0  -1 136.538 90.0540  10
   1   0   1 251.707 107.777   4
  -1   0  -2 336.474 142.018   6
   1   0   2 108.335 109.993   9
   1   0   2 78.5478 127.549   2
  -1   0  -2 250.886 113.183   9
  -1   0  -2 115.869 106.657   8
   1   0   2 144.020 119.042   4
   1   0   3-32.8981 112.568   4
   1   0   3 122.639 143.355   2
  -1   0  -3 108.601 101.445   8
  -1   0  -3-12.8675 153.122   6
   1   0   3-202.491 138.754   9
   1   0   4 113177. 2790.45   9
   1   0   4 114995. 3006.77   2
  -1   0  -4 117054. 2378.70   8
  -1   0  -4 114327. 3048.28   6
  -1   0  -4 110487. 2930.22   3
  -1   0  -5 165.683 83.2987   8
  -1   0  -5 39.5590 177.076   6
   1   0   5 343.894 233.674   2
   1   0   5 28.5502 163.390   9
  -1   0  -5 50.3347 184.420   3
   1   0   6 71461.5 2555.06   2
  -1   0  -6 77791.7 2710.18   6
   1   0   6 72826.0 2438.12   9
  -1   0  -6 70042.7 1581.83   8
  -1   0  -6 76523.0 2616.56   3
   1   0   7 50.3945 203.996   9
   1   0   7 119.334 245.982   2
  -1   0  -7 256.837 272.008   3
  -1   0  -7 293.831 257.789   6
   1   0   8 77922.6 2951.17   9
   1   0   8 80155.4 3094.79   2
  -1   0  -8 81587.8 3197.61   6
  -1   0  -9-258.847 240.037   6
   1   0   9 42.9323 226.539   9
   1   0   9 164.505 298.397   2
   1   0  10 13088.5 1354.52   2
  -1   0 -10 15894.9 1516.86   6
   1   0  11 728.536 416.964   9
  -1   0 -11-121.103 280.125   6
   1   0  11-121.292 390.104   2
  -1   0 -12 988.980 559.186   6
   1   0  12 265.968 311.709   9
   1   0  12-40.8577 358.580   2
   1   0  13-167.755 459.964   2
  -1   0 -13-160.946 447.740   6
  -1   1  14 4028.43 908.892   9
   1  -1 -14 3940.66 921.812   6
   1  -1 -13 5262.73 989.578   6
  -1   1  13 5169.37 1031.95   9
   1   1 -13 5051.99 1032.16   3
  -1  -1  13 5961.79 1047.36   9
   1   1 -13 4220.87 893.517   6
   1  -1 -12 2245.29 621.307   6
   1   1 -12 2139.06 643.238   6
   1   1 -12 2747.11 740.697   3
   1  -1 -12 3134.95 768.708   3
  -1  -1  12 2010.57 667.877   2
  -1  -1  12 1691.75 648.780   9
  -1   1  12 3230.47 845.617   9
   1  -1 -11 16671.1 1564.99   6
  -1  -1  11 16474.7 1480.46   2
  -1   1  11 16382.8 1594.18   9
  -1  -1  11 17912.1 1670.38   9
   1  -1 -11 17045.2 1637.50   3
   1   1 -11 16742.8 1599.98   3
   1   1 -11 17121.3 1546.20   6
   1   1 -10 10897.6 1211.60   3
   1  -1 -10 12687.7 1312.57   3
  -1  -1  10 13460.9 1361.63   9
   1   1 -10 15052.3 1354.54   6
  -1  -1  10 12940.9 1227.21   2
  -1   1  10 11953.4 1276.97   9
   1  -1 -10 11655.3 1230.47   6
   1  -1  -9 938.935 355.675   6
   1  -1  -9 663.947 375.085   3
  -1   1   9 1355.63 413.047   9
  -1   1   9 1274.36 417.310   2
  -1  -1   9 475.148 406.273   9
   1   1  -9 855.070 428.938   3
  -1  -1   9 841.784 408.822   2
   1   1  -9 971.069 385.947   6
   1   1  -8 127.603 208.487   3
   1  -1  -8 552.321 342.024   6
   1   1  -8 641.783 324.467   6
  -1  -1   8 752.627 353.386   9
  -1  -1   8 350.586 245.235   2
   1  -1  -8 656.299 261.089   3
  -1   1   8 281.963 272.879   9
  -1   1   8 476.642 263.859   2
   1  -1  -7 33714.1 1784.92   3
  -1   1   7 36578.8 1880.02   9
   1   1  -7 35822.9 1818.19   3
  -1   1   7 38367.3 1843.67   2
   1   1  -7 35735.3 1727.09   6
   1  -1  -7 38204.1 1829.54   6
  -1  -1   7 36929.1 1891.61   9
  -1  -1   7 37897.9 1105.09   4
  -1  -1   7 37222.9 1715.40   2
   1  -1  -6 3401.41 513.402   3
  -1  -1   6 3153.61 280.826   4
   1   1  -6 2396.53 413.538   6
  -1   1   6 2664.08 463.631   2
  -1  -1   6 3833.53 490.227   2
   1  -1  -6 2440.25 433.763   6
  -1  -1   6 3180.88 511.688   9
   1   1  -6 3164.69 493.314   3
  -1   1   6 3386.63 509.149   9
  -1   1   5 30683.7 1470.98   9
  -1  -1   5 32396.4 990.508   4
   1  -1  -5 32828.0 1436.97   6
  -1  -1   5 32243.3 1309.48   2
  -1   1   5 31825.4 1432.90   2
   1  -1  -5 32029.0 1461.54   3
   1   1  -5 31720.7 1336.51   6
   1  -1  -5 31118.4 827.934   8
   1   1  -5 31320.6 1429.84   3
  -1  -1   5 30994.4 1457.65   9
   1  -1  -5 32676.5 1343.15   7
  -1   1   4 5483.47 565.832   9
  -1  -1   4 6238.40 578.992   9
   1   1  -4 6033.93 541.925   3
   1  -1  -4 6079.93 509.363   7
   1  -1  -4 6987.77 343.065   8
   1  -1  -4 6966.91 577.626   6
  -1  -1   4 6468.00 494.666   2
   1   1  -4 6057.94 491.043   6
   1   1  -4 5588.50 563.571   5
  -1  -1   4 6282.85 382.505   4
  -1  -1   4 6446.25 271.740   8
  -1  -1   4 6429.34 386.284   7
   1  -1  -4 6679.49 581.012   3
   1   1  -3 238143. 5041.30   5
  -1  -1   3 264587. 4425.77   7
   1  -1  -3 272562. 4535.83   8
  -1   1   3 240200. 5079.55   9
  -1  -1   3 244944. 5061.32   9
   1  -1  -3 245890. 4977.15   3
  -1  -1   3 241597. 4592.50   4
  -1   1   3 240238. 4479.34   8
  -1  -1   3 255605. 4717.97   2
   1  -1  -3 251619. 4908.96   7
   1   1  -3 252098. 5004.83   3
   1   1  -3 242417. 4735.44   6
   1   1  -2 808.954 138.643   6
   1  -1  -2 822.067 186.575   3
   1   1  -2 587.467 171.310   3
  -1  -1   2 904.372 127.760   2
  -1   1   2 1143.07 236.975   9
   1   1  -2 1172.86 167.567   4
   1   1  -2 814.133 127.839   2
   1  -1  -2 831.571 148.248   8
  -1  -1   2 673.125 140.500   4
   1   1  -2 741.363 176.190   5
  -1   1   2 653.369 132.941   8
  -1  -1   2 1210.36 150.403   6
   1  -1  -2 827.834 171.121   7
   1   1  -1 3236.56 254.366   4
  -1   1   1 2336.88 231.871   1
   1  -1  -1 2526.59 247.744   9
  -1   1   1 2945.11 260.557   7
  -1   1   1 2906.87 219.998   3
  -1  -1   1 2821.01 164.073   6
   1  -1  -1 2286.61 190.249   3
  -1   1   1 2449.69 252.660   9
  -1   1   1 2310.35 213.009   8
   1   1  -1 2785.37 236.441   3
   1   1  -1 2800.80 236.475   5
  -1  -1   1 2377.99 224.998   4
  -1  -1   1 2768.99 235.695  10
   1  -1  -1 2799.92 264.543   1
  -1  -1   1 2430.75 221.490   5
   1  -1  -1 2566.33 218.293   8
   1  -1  -1 2565.30 242.308   7
   1   1   0 4284.79 262.907  10
  -1  -1   0 4464.82 271.559  10
   1   1   0 4180.25 286.648   4
  -1   1   0 3923.46 226.935   5
   1  -1   0 4621.19 305.431   7
  -1  -1   0 4441.04 275.503   5
  -1   1   0 4198.85 289.703   8
  -1  -1   0 4397.32 205.640   2
   1   1   0 4095.74 257.666   5
  -1  -1   0 4024.83 282.497   4
   1  -1   0 4911.53 250.636   5
   1  -1   0 3787.71 210.746  10
   1  -1   0 4960.76 271.573   9
  -1   1   0 4618.89 224.811  10
   1   1   0 4523.56 208.936   2
   1  -1   0 5381.85 318.883   8
  -1   1   0 4164.33 284.995   6
   1  -1   0 5102.39 307.770   6
   1  -1   1 698.139 142.561   8
   1  -1   1 748.038 161.975   6
   1   1   1 421.954 135.794  10
   1   1   1 548.245 134.527   2
   1   1   1 715.523 144.827   4
   1   1   1 500.522 103.594   9
  -1  -1  -1 454.916 129.530   4
   1  -1   1 664.089 132.626   5
  -1  -1  -1 479.874 117.112   9
   1  -1   1 411.412 95.8396  10
  -1  -1  -1 773.550 145.416  10
  -1   1  -1 508.010 123.776   5
  -1   1  -1 567.021 151.908   6
  -1  -1  -1 588.659 134.989   2
  -1   1  -1 423.977 115.023   8
   1   1   2 72039.3 1599.27   4
  -1   1  -2 66895.1 1579.53   8
  -1  -1  -2 71089.1 1665.08   9
   1  -1   2 76661.0 1654.56   8
  -1  -1  -2 64007.1 1569.90   4
   1   1   2 67303.0 1788.85   2
   1   1   2 65069.0 1619.83   9
  -1  -1  -2 69437.7 1848.22   6
  -1   1  -2 67065.2 1821.91   6
  -1   1  -2 66304.8 1760.16   5
  -1   1  -3 37369.8 1275.17   3
  -1  -1  -3 34500.0 1361.19   6
  -1  -1  -3 36329.1 1067.69   4
   1   1   3 40375.9 1077.34   4
   1  -1   3 41567.6 1109.18   8
   1   1   3 35271.4 1341.30   2
   1   1   3 34161.9 1189.55   9
  -1   1  -3 36216.2 1035.17   8
   1  -1   3 39122.7 1361.81   2
  -1   1  -3 35796.2 1360.14   6
  -1   1  -3 34851.1 1326.86   5
   1   1   4 9998.88 494.572   4
   1   1   4 10010.7 674.893   9
  -1   1  -4 10965.0 789.249   6
  -1   1  -4 10474.9 718.295   3
  -1  -1  -4 10746.3 799.355   6
   1   1   4 9699.22 743.999   2
  -1   1  -4 11107.6 507.045   8
   1  -1   4 9893.71 659.001   9
   1  -1   4 10238.9 730.285   2
  -1   1  -5 85907.1 1858.74   8
  -1  -1  -5 84697.8 2736.60   6
   1   1   5 83802.4 2486.01   9
  -1   1  -5 85300.0 2691.04   6
   1   1   5 81581.9 2632.87   2
   1   1   5 81185.3 1903.45   4
   1  -1   5 81384.1 2443.49   9
  -1   1  -5 80126.6 2527.99   3
   1  -1   5 82543.0 2568.83   2
  -1   1  -6 21971.8 703.014   8
   1  -1   6 22578.8 1261.76   9
  -1  -1  -6 22424.6 1406.05   6
   1  -1   6 23652.6 1350.61   2
   1   1   6 20812.5 1317.21   2
   1   1   6 23438.0 1283.31   9
  -1   1  -6 24003.5 1410.18   6
   1   1   6 20174.6 761.079   4
  -1   1  -6 23190.9 1319.22   3
   1   1   7 5473.43 748.008   2
   1   1   7 5065.25 652.064   9
   1  -1   7 5595.22 679.209   9
  -1   1  -7 4498.84 682.709   6
   1  -1   7 4445.37 625.721   2
  -1   1  -7 4911.65 672.123   3
  -1  -1  -7 5001.16 730.039   6
  -1  -1  -7 4667.30 327.380   8
   1   1   8 971.677 363.664   9
  -1   1  -8 664.219 357.763   6
   1  -1   8 616.063 306.178   2
  -1  -1  -8 1416.05 476.131   6
   1   1   8 1264.32 417.389   2
   1  -1   8 1288.74 393.574   9
   1   1   9 5086.80 797.974   2
   1   1   9 5309.90 780.589   9
   1  -1   9 5405.17 817.918   2
  -1   1  -9 4819.66 812.676   6
   1  -1   9 5590.55 788.959   9
  -1  -1  -9 5076.13 837.455   6
   1   1  10 7518.83 1034.65   2
   1  -1  10 8462.80 1039.78   9
  -1   1 -10 7566.85 1089.30   6
  -1  -1 -10 7534.69 1090.47   6
   1   1  10 10865.7 1176.31   9
   1  -1  10 6974.19 969.460   2
   1  -1  11 820.566 421.359   2
   1  -1  11 497.802 440.168   9
  -1   1 -11 237.062 318.069   6
   1   1  11 748.877 363.428   9
   1   1  11 1110.12 478.703   2
  -1  -1 -11 1514.42 613.992   6
   1  -1  12 9034.93 1226.08   9
  -1   1 -12 11399.7 1441.21   6
   1  -1  12 7544.61 1144.69   2
   1   1  12 8921.94 1194.29   9
  -1  -1 -12 10789.3 1410.72   6
   1   1  12 9168.26 1310.80   2
  -1   1 -13 2369.14 725.139   6
   1   1  13 3389.77 861.791   2
  -1  -1 -13 2991.23 791.587   6
   1  -1  13 2743.09 772.219   2
   1  -2 -14 257.855 395.047   6
  -1   2  14-788.693 522.325   9
  -1  -2  14-202.514 463.635   9
  -1  -2  13 411.490 418.904   9
   1   2 -13 930.070 571.890   6
   1   2 -13 222.111 297.869   3
   1  -2 -13 1929.13 676.273   6
  -1  -2  13 241.500 417.065   2
  -1   2  13 2018.52 758.481   9
   1   2 -12 9483.95 1282.51   3
   1   2 -12 8027.60 1134.00   6
  -1  -2  12 9731.11 1181.70   2
  -1   2  12 11680.5 1454.37   9
  -1  -2  12 10102.5 1368.05   9
   1  -2 -12 8007.86 1203.09   6
   1   2 -11 19009.6 1682.27   3
   1  -2 -11 17804.4 1647.74   6
   1  -2 -11 20152.3 1777.94   3
  -1  -2  11 18183.2 1536.91   2
  -1   2  11 23269.3 1932.99   9
   1   2 -11 20538.1 1697.18   6
  -1  -2  11 20203.0 1788.99   9
   1   2 -10 1870.90 509.165   3
   1  -2 -10 1916.79 571.802   3
  -1  -2  10 1819.72 502.703   9
   1  -2 -10 2464.33 597.526   6
  -1  -2  10 2673.07 562.492   2
   1   2 -10 1693.21 497.435   6
  -1   2  10 2168.56 551.282   9
   1   2  -9 32901.5 1919.38   6
  -1   2   9 29366.1 1961.52   9
   1  -2  -9 32328.7 2009.91   3
  -1  -2   9 32140.0 2024.94   9
  -1  -2   9 32574.1 1815.06   2
   1  -2  -9 32736.1 1991.30   6
   1   2  -9 34211.0 2008.17   3
   1   2  -8 4144.76 650.034   3
  -1  -2   8 4808.72 725.045   9
   1  -2  -8 4801.25 736.097   3
   1   2  -8 5005.69 709.575   6
  -1  -2   8 4732.88 642.795   2
   1  -2  -8 3254.62 605.268   6
  -1   2   8 4746.73 738.027   9
  -1  -2   8 4734.27 442.942   4
  -1  -2   7 141130. 4215.98   9
  -1  -2   7 148635. 3297.94   4
   1  -2  -7 145247. 4196.59   3
   1   2  -7 132336. 3896.65   6
  -1  -2   7 139500. 3794.57   2
   1   2  -7 138853. 4053.42   3
  -1   2   7 139506. 4228.37   9
   1  -2  -7 140535. 4147.81   6
  -1   2   6 11986.6 994.602   9
   1   2  -6 10499.5 881.912   3
  -1  -2   6 10610.4 924.476   9
   1  -2  -6 11713.8 957.491   6
   1   2  -6 11041.9 967.777   5
  -1  -2   6 11485.0 677.777   4
   1   2  -6 12393.0 899.340   6
   1  -2  -6 11267.1 892.371   7
   1  -2  -6 10868.4 918.337   3
  -1  -2   6 9653.67 421.109   8
  -1  -2   6 11530.9 816.275   2
  -1  -2   5 18011.6 841.909   4
  -1  -2   5 17843.4 664.516   8
   1  -2  -5 19567.8 1111.47   3
   1   2  -5 17647.9 992.141   6
   1   2  -5 18600.7 1074.15   3
  -1  -2   5 17632.1 919.062   2
   1  -2  -5 17563.0 1048.05   7
   1  -2  -5 19871.5 1141.87   6
  -1  -2   5 17895.4 1123.85   9
  -1   2   5 18159.1 1146.44   9
   1   2  -5 17990.7 1155.06   5
  -1  -2   4 23574.1 810.009   8
  -1  -2   4 24121.6 951.769   2
   1  -2  -4 22137.4 634.827   4
   1   2  -4 22337.5 1013.09   6
  -1   2   4 20791.1 1143.45   9
  -1  -2   4 20516.4 891.091   4
   1  -2  -4 21473.7 1066.72   3
   1   2  -4 21666.8 1161.85   5
   1   2  -4 21945.3 1062.94   3
   1  -2  -4 21674.5 1098.99   7
  -1  -2   3 28619.0 913.167   2
   1  -2  -3 26563.1 1064.11   3
  -1  -2   3 27655.5 1024.96   4
  -1   2   3 28628.2 1231.15   9
  -1   2   3 27012.2 966.706   8
   1  -2  -3 26755.2 1149.26   7
   1   2  -3 27759.3 1191.37   5
   1   2  -3 28121.2 1028.37   6
   1  -2  -3 27638.4 805.590   4
   1   2  -3 27773.5 1085.27   3
  -1  -2   2 5201.95 224.810   7
   1   2  -2 5452.55 383.062   6
  -1   2   2 5212.16 463.847   9
  -1   2   2 5504.44 409.601   8
   1  -2  -2 5063.59 450.681   7
  -1  -2   2 5526.81 425.232   4
   1   2  -2 5739.60 473.313   5
   1   2  -2 5580.90 396.565   3
   1  -2  -2 4873.59 364.189   3
  -1   2   2 5461.27 476.812   1
  -1  -2   1 117511. 2157.70   1
  -1  -2   1 112071. 2208.36   7
  -1  -2   1 118007. 2342.85  10
  -1   2   1 112481. 2545.93   8
  -1  -2   1 107818. 2543.84   4
   1  -2  -1 111916. 2206.87   3
   1   2  -1 120974. 2236.10   7
  -1   2   1 123005. 2241.71   3
  -1   2   1 112258. 2596.08   9
   1   2  -1 113119. 2333.00  10
  -1   2   1 115630. 2629.10   1
   1   2  -1 108378. 2551.90   5
   1  -2  -1 108969. 2578.15   7
   1  -2   0 42792.3 1294.32   7
   1   2   0 41713.2 1275.58   5
   1   2   0 41448.3 1077.31  10
  -1  -2   0 43566.2 1291.09   4
  -1  -2   0 43582.9 1168.97   7
  -1   2   0 41402.6 1220.06   5
   1  -2   0 41210.1 907.265  10
   1   2   0 48838.0 1228.60   7
  -1   2   0 45331.2 914.439  10
  -1   2   0 41655.1 1281.52   8
  -1  -2   0 46391.5 1111.22  10
  -1  -2  -1 417942. 7545.26   4
  -1   2  -1 408314. 7680.08   6
   1   2   1 403371. 7475.18   2
  -1   2  -1 419210. 7587.26   8
   1  -2   1 412009. 7560.23   7
  -1  -2  -1 442020. 7406.17  10
  -1  -2  -1 411595. 7586.14   7
   1  -2   1 409766. 7137.83  10
   1   2   1 419284. 7411.52  10
  -1   2  -1 420920. 7564.10   5
   1   2   2 60850.3 1759.77   2
   1   2   2 59584.4 1635.96  10
  -1   2  -2 59443.6 1792.90   6
  -1   2  -2 64528.2 1668.22   8
  -1   2  -2 60038.8 1746.46   5
   1   2   2 59854.9 1671.13   9
  -1  -2  -2 59528.2 1589.61   4
  -1  -2  -3 77347.3 1916.68   4
  -1   2  -3 79164.4 2037.87   3
   1   2   3 81215.1 2161.80   9
  -1   2  -3 73643.8 2238.09   6
   1   2   3 75772.4 2244.72   2
  -1   2  -3 79426.4 1955.77   8
  -1   2  -3 79392.7 2277.53   5
  -1  -2  -4-32.8973 187.685   6
  -1  -2  -4 107.835 109.098   4
  -1   2  -4 142.637 122.576   8
  -1   2  -4 180.370 218.056   5
   1   2   4 45.5714 169.066   9
  -1   2  -4-95.7028 156.396   6
   1  -2   4 130.327 175.141   2
   1   2   4 142.501 200.353   2
  -1   2  -4 204.403 177.672   3
  -1   2  -5 186.209 246.299   5
  -1  -2  -5 78.0693 193.353   6
  -1  -2  -5 81.8550 110.686   4
  -1   2  -5 369.671 226.855   3
  -1   2  -5 234.067 256.114   6
   1   2   5-109.872 173.414   9
  -1   2  -5 83.5802 101.999   8
   1   2   5-32.9985 177.939   2
   1  -2   5 44.1392 153.424   9
   1  -2   5 309.448 226.916   2
  -1  -2  -6 1554.43 428.789   6
  -1   2  -6 1933.04 233.647   8
  -1   2  -6 1054.84 318.811   3
  -1   2  -6 1868.86 445.132   6
   1  -2   6 1289.74 326.279   9
   1   2   6 2308.97 434.234   9
   1  -2   6 1834.17 382.779   2
   1   2   6 1616.35 408.184   2
   1   2   7 12675.1 1053.69   9
  -1   2  -7 13650.8 1083.86   3
   1   2   7 11621.0 1083.30   2
   1  -2   7 12974.2 1074.08   2
   1  -2   7 13288.3 1063.95   9
  -1  -2  -7 12513.4 1164.58   6
  -1   2  -7 11287.8 1072.64   6
   1  -2   8 4716.79 698.254   9
   1   2   8 5882.86 778.087   9
   1   2   8 5840.96 836.683   2
  -1   2  -8 4877.15 779.570   6
  -1  -2  -8 5508.39 851.143   6
   1  -2   8 5707.33 770.824   2
  -1   2  -8 5710.81 763.666   3
   1   2   9 36157.7 2207.08   2
   1  -2   9 39645.5 2170.33   9
   1   2   9 40963.5 2213.15   9
   1  -2   9 41114.2 2221.66   2
  -1  -2  -9 40317.3 2370.27   6
  -1   2  -9 38910.8 2287.65   6
  -1   2 -10 5771.53 930.608   6
   1  -2  10 8789.51 1065.12   9
   1  -2  10 7349.77 985.141   2
  -1  -2 -10 7244.37 1069.02   6
   1   2  10 9050.99 1086.73   9
   1   2  10 6270.84 975.869   2
   1   2  11 4762.89 939.736   2
   1  -2  11 6267.17 979.804   9
   1   2  11 5835.26 949.090   9
  -1   2 -11 5160.44 945.780   6
   1  -2  11 2838.84 670.018   2
  -1  -2 -11 6277.14 1079.08   6
   1  -2  12 2393.50 653.929   2
  -1   2 -12 2516.55 709.233   6
   1   2  12 1132.38 487.052   9
   1  -2  12 806.037 368.990   9
  -1  -2 -12 1505.38 651.274   6
   1   2  13 3876.55 928.580  10
  -1  -2 -13 1863.32 750.665   6
   1  -2  13 4194.40 924.659   2
  -1   2 -13 3219.00 865.906   6
  -1   3  13 12171.7 1559.07   9
   1   3 -13 13105.1 1578.20   3
  -1  -3  13 13932.2 1665.08   9
   1  -3 -13 17634.7 1840.43   6
   1  -3 -12 8338.20 1229.13   6
  -1   3  12 7104.80 1164.19   9
   1   3 -12 8881.95 1188.71   6
  -1  -3  12 8790.39 1302.84   9
   1   3 -12 8052.41 1177.33   3
   1   3 -11 1509.31 515.564   3
  -1   3  11 405.863 430.900   9
   1   3 -11 1067.36 505.164   6
  -1  -3  11 1481.36 614.630   9
   1  -3 -11 320.661 430.732   6
  -1  -3  11 297.991 275.786   2
   1   3 -10 8863.78 1084.63   3
  -1   3  10 10899.9 1286.89   9
   1  -3 -10 10382.5 1219.50   3
  -1  -3  10 8863.86 1000.01   2
   1  -3 -10 9425.80 1175.82   6
   1   3 -10 11225.7 1197.98   6
  -1  -3  10 10364.7 1251.94   9
   1   3  -9 2734.72 603.336   3
  -1  -3   9 1914.85 540.484   9
   1  -3  -9 2202.43 566.852   3
  -1  -3   9 3022.16 560.380   2
   1  -3  -9 3954.73 745.579   6
   1   3  -9 3137.52 632.380   6
  -1   3   9 2160.41 597.461   9
   1   3  -8 54921.8 2432.74   3
  -1  -3   8 58165.3 1996.21   4
  -1  -3   8 51682.0 2529.49   9
   1  -3  -8 54671.3 2585.44   6
  -1  -3   8 55535.9 2258.04   2
   1   3  -8 58553.6 2476.74   6
  -1   3   8 52442.9 2582.99   9
   1  -3  -8 53733.2 2524.41   3
  -1  -3   7 20709.1 1099.36   4
   1   3  -7 20686.6 1319.82   6
  -1   3   7 19872.8 1448.03   9
   1  -3  -7 17783.1 1291.39   7
   1  -3  -7 20035.9 1369.76   3
  -1  -3   7 19255.5 1396.94   9
  -1  -3   7 21966.8 1240.96   2
   1   3  -7 22634.0 1561.08   5
   1   3  -7 21173.0 1366.01   3
   1  -3  -7 19405.0 1396.64   6
  -1  -3   6 4515.09 510.751   2
   1   3  -6 5284.08 620.786   6
   1   3  -6 4775.42 604.929   3
   1  -3  -6 3452.62 527.977   3
  -1  -3   6 4653.87 498.762   4
  -1   3   6 3189.64 559.563   9
   1  -3  -6 4674.05 634.352   7
   1   3  -6 3389.88 578.660   5
   1  -3  -6 3338.13 220.029   4
  -1   3   5 109347. 3364.45   9
   1   3  -5 117945. 3138.09   3
  -1  -3   5 115000. 2834.59   2
   1  -3  -5 109595. 3136.18   3
   1  -3  -5 106620. 3217.51   7
  -1  -3   5 110164. 2901.55   4
   1  -3  -5 111357. 2354.19   4
   1   3  -5 109489. 3381.42   5
   1   3  -5 110440. 3060.25   6
   1   3  -4 3337.95 418.085   3
  -1   3   4 2520.23 416.047   9
  -1  -3   4 3258.13 363.820   2
   1   3  -4 3144.43 404.484   6
   1  -3  -4 3575.35 498.628   7
   1   3  -4 3202.08 487.345   5
  -1  -3   4 2664.76 237.577   7
   1  -3  -4 3417.20 309.474   4
   1  -3  -4 3383.71 430.884   3
  -1  -3   4 3148.42 397.448   4
   1   3  -3 20315.6 965.822   6
  -1   3   3 19596.7 1107.41   1
   1   3  -3 19986.1 914.722   3
  -1   3   3 20160.8 1107.19   9
   1   3  -3 19189.6 1058.37   5
  -1  -3   3 20042.2 660.379   7
   1  -3  -3 19746.5 823.481   4
  -1  -3   3 20080.9 991.536   4
   1  -3  -3 21232.4 1111.45   7
   1  -3  -3 18924.5 887.901   3
  -1   3   2 112664. 2931.04   1
   1   3  -2 121742. 2349.21   7
   1   3  -2 108849. 2484.82   3
  -1   3   2 109881. 2737.12   8
   1  -3  -2 109380. 2876.89   7
   1   3  -2 109964. 2858.13   5
  -1   3   2 116781. 2932.87   9
  -1  -3   2 109287. 2275.73   7
   1  -3  -2 104252. 2399.02   3
  -1  -3   2 110731. 2775.38   4
  -1  -3   1 13647.6 575.367   1
   1  -3  -1 11167.3 703.793   7
  -1   3   1 12056.2 724.181   5
   1  -3  -1 11498.2 428.958   3
  -1  -3   1 12279.1 578.606   7
  -1   3   1 13240.2 459.616   3
  -1   3   1 13680.7 767.259   8
   1   3  -1 12374.0 751.620   5
  -1   3   1 13195.5 774.285   1
  -1  -3   1 12627.5 738.406   4
  -1  -3   1 13223.9 538.005  10
  -1  -3   0 129821. 2462.99  10
   1   3   0 116109. 2605.92   1
  -1   3   0 122227. 2891.43   5
  -1   3   0 122099. 2936.20   8
  -1  -3   0 120589. 2726.50   7
   1   3   0 117243. 2912.74   5
   1  -3   0 118079. 2862.82   7
   1   3   0 119979. 2445.56  10
  -1  -3   0 117599. 2888.68   4
  -1   3  -1 16982.3 867.213   5
   1  -3   1 17782.6 852.054   7
  -1  -3  -1 18394.3 871.401   7
   1   3   1 16847.4 696.964  10
  -1   3  -1 17527.0 878.778   8
   1  -3   1 15816.3 479.474  10
   1  -3   1 16848.2 463.012   3
  -1  -3  -1 17219.1 852.207   4
   1  -3   2 42421.6 1164.64  10
   1  -3   2 52979.2 1283.84   3
  -1   3  -2 47050.4 1566.35   8
   1  -3   2 46821.0 1523.06   7
  -1   3  -2 47950.8 1648.91   5
   1   3   2 47520.3 1449.54  10
  -1  -3  -2 47746.0 1532.39   4
  -1  -3  -2 45869.2 1637.64   7
  -1   3  -2 46693.4 1691.25   6
   1   3   3 89291.4 2437.86  10
  -1   3  -3 89853.9 2651.07   5
  -1   3  -3 91560.2 2704.89   6
  -1   3  -3 95424.1 2472.02   8
  -1  -3  -3 99383.9 2774.53   7
  -1   3  -3 94730.5 2263.28   3
  -1  -3  -3 92702.8 2363.05   4
   1   3   3 94929.0 2612.93   9
   1   3   4 75241.7 2521.77   2
  -1   3  -4 75931.1 2535.06   6
  -1   3  -4 80418.0 2232.22   3
  -1   3  -4 74338.4 2529.93   5
   1   3   4 78249.4 2446.96   9
  -1  -3  -4 78737.8 2097.65   4
  -1   3  -4 81555.8 2191.67   8
   1   3   5 26361.5 1472.96   2
  -1  -3  -5 23960.2 1444.56   6
  -1   3  -5 24645.7 1225.29   3
  -1   3  -5 25626.8 1466.80   5
  -1   3  -5 23229.9 1369.25   6
   1   3   5 24722.0 1347.65   9
  -1  -3  -5 24178.4 1006.94   4
  -1   3  -5 26052.8 1084.67   8
   1  -3   5 23364.7 1275.28   2
   1   3   6 9939.53 987.716   2
  -1  -3  -6 12637.2 683.970   4
   1   3   6 12520.8 1013.24   9
  -1   3  -6 12606.8 1102.07   5
  -1  -3  -6 12684.5 1125.68   6
  -1   3  -6 13420.8 735.958   8
   1  -3   6 13673.6 1022.36   2
  -1   3  -6 11855.0 1042.82   6
  -1   3  -6 12727.3 958.646   3
  -1   3  -7 4848.97 659.937   3
   1   3   7 2915.30 595.322   2
  -1   3  -7 4045.85 661.804   6
   1  -3   7 3800.53 620.116   9
   1  -3   7 2714.54 517.839   2
   1   3   7 4446.96 660.955   9
  -1  -3  -7 4986.01 751.523   6
  -1  -3  -8 1840.35 539.870   6
   1   3   8 2865.84 625.690   9
   1  -3   8 2519.76 529.171   2
   1  -3   8 2785.18 557.189   9
  -1   3  -8 2454.48 575.219   6
  -1   3  -8 1827.98 453.629   3
   1   3   8 1879.54 533.132   2
   1  -3   8 2522.78 416.153   4
   1  -3   9 363.282 285.198   9
  -1  -3  -9 652.503 388.543   6
  -1   3  -9 1086.86 459.115   6
   1  -3   9 379.704 334.609   2
   1   3   9 520.212 451.081   2
   1   3   9 629.571 411.661   9
   1   3  10 24194.4 1827.73   9
  -1  -3 -10 25207.5 2008.73   6
  -1   3 -10 27610.5 2035.15   6
   1  -3  10 21997.5 1706.09   2
   1  -3  10 25034.2 1850.26   9
  -1  -3 -11 1166.71 544.228   6
   1  -3  11 1684.02 650.601   9
  -1   3 -11 1700.17 587.365   6
   1   3  11 1762.09 583.441   9
   1  -3  11 594.430 360.220   2
   1   3  12 28113.3 2175.76   9
  -1   3 -12 28358.5 2307.72   6
   1  -3  12 28024.3 2177.68   9
   1  -3  12 27120.8 2133.45   2
  -1  -3 -12 26227.8 2284.24   6
   1   3  12 24557.9 2149.10  10
  -1   3 -13 3221.02 877.348   6
   1  -3  13 589.598 375.935   2
  -1  -3 -13 2606.83 917.695   6
  -1   4  13 1274.56 650.289   9
   1   4 -13 1811.86 646.284   3
   1  -4 -13 397.004 499.872   6
  -1  -4  13 2246.25 751.364   9
  -1   4  12 2887.88 771.615   9
   1  -4 -12 5260.52 990.287   6
  -1  -4  12 2813.43 788.035   9
   1   4 -12 3879.08 822.290   3
   1   4 -12 2858.83 717.817   6
   1   4 -11 5192.38 901.679   6
   1  -4 -11 4204.32 915.313   6
  -1  -4  11 5787.67 1052.43   9
  -1   4  11 4145.96 924.538   9
   1   4 -11 5620.77 933.558   3
   1  -4 -10 905.835 502.658   6
   1   4 -10 1318.46 453.344   6
  -1  -4  10 29.8358 306.065   9
  -1   4  10 561.895 371.068   9
  -1  -4  10 646.362 303.015   2
   1   4 -10 766.864 450.522   3
   1   4  -9-140.549 219.252   3
  -1  -4   9-132.330 260.605   9
  -1  -4   9 389.295 276.857   2
   1  -4  -9 274.293 325.628   3
   1  -4  -9-218.391 315.150   6
   1   4  -9 656.139 366.429   6
  -1   4   9 438.700 389.690   9
  -1  -4   8 4200.23 562.414   4
  -1  -4   8 5259.45 661.357   2
   1   4  -8 3846.90 643.007   6
  -1  -4   8 4407.53 768.916   9
   1  -4  -8 4655.34 731.397   3
   1   4  -8 3935.05 763.459   5
   1  -4  -8 3114.25 662.142   6
   1   4  -8 5005.10 710.879   3
  -1   4   8 3737.19 730.367   9
  -1  -4   7 1084.47 221.208   7
   1   4  -7 1566.38 382.992   3
   1  -4  -7 274.370 287.292   6
  -1  -4   7 1312.28 322.612   2
   1  -4  -7 1375.95 446.579   7
   1   4  -7 1224.07 382.848   6
  -1  -4   7 1089.45 311.510   4
  -1   4   7 1443.32 487.274   9
   1   4  -7 708.454 372.206   5
   1  -4  -7 1065.01 379.966   3
   1  -4  -6 6105.90 715.487   3
  -1  -4   6 5509.25 573.338   2
  -1  -4   6 5593.55 616.806   4
   1  -4  -6 4554.60 672.502   7
  -1  -4   6 5878.52 431.049   7
  -1   4   6 5497.51 758.566   9
   1   4  -6 5769.70 685.647   6
   1   4  -6 6099.24 672.523   3
   1  -4  -6 5596.67 421.534   4
   1   4  -6 5195.33 737.385   5
  -1   4   5 1101.80 363.264   1
   1  -4  -5 1075.84 215.845   4
   1  -4  -5 1351.68 350.700   7
   1  -4  -5 1308.37 321.866   3
   1   4  -5 1347.40 411.710   5
  -1  -4   5 1243.31 198.831   7
  -1  -4   5 1453.82 273.649   2
  -1  -4   5 1451.78 307.290   4
   1   4  -5 1325.66 319.596   3
   1   4  -5 1271.87 324.167   6
  -1   4   5 1531.34 428.743   9
   1  -4  -4 40015.3 1533.85   3
  -1  -4   4 39438.8 1643.22   4
  -1   4   4 38125.1 1791.26   9
  -1   4   4 38900.3 1833.30   1
   1   4  -4 39776.9 1492.71   3
   1  -4  -4 39993.6 1382.34   4
   1   4  -4 39228.6 1625.95   6
   1  -4  -4 37500.2 1758.20   7
   1   4  -4 36828.7 1768.62   5
  -1  -4   4 38324.4 1153.04   7
   1  -4  -3 1766.08 279.525   4
  -1   4   3 1719.03 363.552   9
   1  -4  -3 1748.11 381.721   7
  -1   4   3 1714.89 365.985   1
  -1  -4   3 1727.60 230.193   7
   1   4  -3 1969.19 389.133   5
   1  -4  -3 1639.08 267.103   3
   1   4  -3 1920.10 285.121   3
  -1  -4   3 2085.47 377.207   4
  -1   4   2 19274.8 1113.33   9
   1  -4  -2 18378.7 953.388   4
   1   4  -2 18554.4 788.638   3
  -1  -4   2 18857.4 804.623   7
  -1  -4   2 19422.8 1072.74   4
  -1   4   2 18853.7 1101.04   1
   1  -4  -2 19613.4 1103.93   7
   1   4  -2 18174.2 1084.20   5
  -1   4   1 2241.99 370.550   5
  -1  -4   1 1843.11 277.448   7
  -1  -4   1 2274.48 218.765  10
  -1  -4   1 1563.17 335.934   4
   1   4  -1 1523.96 325.698   5
   1  -4  -1 1549.38 317.614   7
  -1   4   1 2350.88 378.051   8
  -1   4   1 1907.50 163.394   3
  -1   4   0 37595.3 1534.07   8
   1   4   0 37967.0 1067.92  10
  -1  -4   0 36559.5 1378.50   7
   1   4   0 37167.6 1312.51   1
   1  -4   0 39488.1 1506.38   7
  -1   4   0 37430.4 1512.29   5
  -1  -4   0 39440.1 1551.85   4
  -1  -4   0 39850.0 1059.91  10
   1   4   0 36893.2 1541.22   5
  -1  -4  -1 1984.51 347.476   7
  -1   4  -1 2297.74 395.008   5
  -1  -4  -1 1491.11 332.575   4
   1   4   1 1650.28 223.164  10
  -1   4  -1 1572.51 296.939   8
   1  -4   1 1188.59 264.502   7
   1   4   1 1674.37 302.096   1
   1   4   1 1489.43 320.913   5
   1  -4   2 6655.84 362.059   3
  -1   4  -2 6130.24 595.551   8
   1  -4   2 6830.49 355.989  10
  -1  -4  -2 7419.75 665.131   7
   1   4   2 7039.63 519.371  10
   1  -4   2 7715.36 619.241   7
  -1   4  -2 6132.74 614.321   5
  -1  -4  -2 6497.16 577.689   4
  -1   4  -3 11083.4 896.089   6
  -1   4  -3 10052.1 560.494   3
  -1  -4  -3 10697.2 860.502   7
  -1   4  -3 9497.84 810.686   5
   1   4   3 9463.71 683.112  10
  -1   4  -3 10648.0 768.229   8
  -1  -4  -3 9026.85 689.300   4
   1  -4   3 10903.0 748.545   7
   1   4   4 20343.8 1222.47   9
   1   4   4 21245.9 1131.61  10
  -1   4  -4 20639.3 1286.55   6
  -1   4  -4 21515.9 988.625   3
  -1  -4  -4 20805.3 1297.76   7
  -1   4  -4 19836.6 1262.56   5
   1  -4   4 20278.3 1073.86   7
  -1   4  -4 21665.0 1111.70   8
  -1  -4  -4 21508.1 1061.63   4
   1   4   5 1657.91 435.852   9
  -1  -4  -5 1725.51 310.155   4
  -1   4  -5 1883.36 342.781   3
  -1   4  -5 1388.83 352.270   6
  -1   4  -5 2140.27 355.497   8
  -1   4  -5 1509.63 407.057   5
  -1   4  -6 16245.5 1276.02   6
  -1  -4  -6 18047.0 1412.34   6
  -1   4  -6 17472.9 1105.40   3
   1   4   6 17367.0 1266.29   9
   1  -4   6 18763.9 1232.16   2
  -1  -4  -6 17855.2 933.571   4
  -1   4  -6 16863.8 1323.80   5
  -1   4  -7 10533.8 933.187   3
  -1   4  -7 11980.8 1187.24   5
   1   4   7 11541.7 1098.11   9
  -1   4  -7 10500.2 1078.32   6
  -1  -4  -7 10847.3 1153.96   6
   1  -4   7 9330.00 921.596   2
   1  -4   7 9707.06 880.969   4
   1  -4   8 68335.7 2797.74   2
  -1   4  -8 65834.1 2984.21   6
   1   4   8 67556.8 2917.75   9
   1  -4   8 66404.1 2496.97   4
  -1  -4  -8 61346.7 3027.74   6
   1  -4   8 66006.9 2864.72   9
   1  -4   9 7570.45 963.607   2
  -1   4  -9 10108.9 1206.36   6
   1  -4   9 9248.73 1085.69   9
   1   4   9 8428.59 1043.36   9
  -1  -4  -9 9508.28 1242.49   6
   1  -4  10 3861.84 733.231   2
  -1  -4 -10 5379.54 962.538   6
  -1   4 -10 6952.05 1039.11   6
   1   4  10 4459.96 831.124   9
   1  -4  10 4773.21 847.151   9
   1  -4  11 364.138 315.667   2
   1   4  11 282.677 366.734  10
   1  -4  11 493.213 459.601   9
  -1  -4 -11 1075.37 564.323   6
   1   4  11 848.193 483.110   9
  -1   4 -11 316.189 343.370   6
   1   4  12 1805.12 640.627  10
  -1   4 -12 1784.22 641.862   6
   1  -4  12 1738.67 623.717   9
   1   4  12 1680.82 544.877   9
   1  -4  12 3031.47 729.358   2
  -1  -4 -12 1694.18 612.265   6
  -1   4 -13 7505.67 1251.63   6
   1  -4  13 7919.47 1205.91  10
   1  -5 -13 4897.32 1042.08   6
  -1   5  13 5063.42 1006.54   9
  -1  -5  13 5779.20 1177.04   9
  -1   5  12 7478.25 1235.74   9
   1   5 -12 9530.43 1250.64   3
  -1  -5  12 6813.43 1208.23   9
  -1   5  12 7597.26 1285.26   1
   1  -5 -12 7025.90 1197.05   6
   1   5 -11 5403.41 933.039   6
   1  -5 -11 5353.97 1033.43   6
  -1  -5  11 6613.66 1122.12   9
   1   5 -11 5652.03 929.678   3
  -1   5  11 5325.05 1031.27   9
   1  -5 -10 748.791 452.736   6
   1   5 -10 964.202 412.756   6
  -1   5  10 1150.87 594.378   9
  -1  -5  10 870.043 502.807   9
   1   5 -10 1145.88 393.900   3
  -1   5   9 471.666 387.101   9
   1   5  -9 355.545 398.597   5
  -1  -5   9 437.933 426.620   9
   1  -5  -9 676.797 411.319   6
   1   5  -9 156.760 304.948   6
  -1  -5   9 190.629 197.059   4
  -1  -5   9 729.105 312.963   2
   1   5  -9 100.094 213.596   3
   1   5  -8 288.200 308.008   6
  -1  -5   8 366.994 227.925   2
   1  -5  -8 156.098 275.079   7
   1  -5  -8 842.504 466.518   6
  -1   5   8 195.082 329.453   1
  -1   5   8 62.6765 288.932   9
  -1  -5   8 7.40824 256.996   4
   1   5  -8 378.437 357.917   5
   1   5  -8 210.699 180.665   3
  -1   5   7 8542.17 1038.94   9
  -1  -5   7 8556.03 856.996   4
   1   5  -7 7712.38 810.599   3
  -1   5   7 7595.07 985.714   1
   1  -5  -7 6238.65 873.069   7
  -1  -5   7 8285.22 766.514   2
   1   5  -7 7021.48 844.497   6
   1   5  -7 5941.57 874.457   5
   1   5  -6 5234.41 629.167   3
   1  -5  -6 6665.99 563.848   4
   1   5  -6 7063.23 909.633   5
  -1  -5   6 7372.65 501.115   7
  -1   5   6 6583.65 860.420   9
   1  -5  -6 5289.56 770.289   7
  -1   5   6 7970.84 968.264   1
  -1  -5   6 6419.08 619.396   2
  -1  -5   6 5258.39 666.054   4
   1   5  -6 5907.42 734.435   6
  -1   5   5 40389.8 2123.01   1
   1  -5  -5 44403.2 2153.36   7
   1   5  -5 41906.8 2127.34   5
  -1  -5   5 46497.4 1415.66   7
   1   5  -5 46155.5 1774.33   3
  -1  -5   5 45245.1 1985.68   4
   1  -5  -5 45315.8 1660.02   4
  -1   5   5 45542.1 2187.61   9
   1  -5  -4 3247.33 441.694   4
  -1  -5   4 2572.98 444.911   4
   1  -5  -4 2353.60 489.043   7
  -1  -5   4 2598.24 308.618   7
   1   5  -4 2987.02 395.157   3
  -1   5   4 2344.00 496.625   1
   1   5  -4 2926.92 522.714   5
  -1   5   4 3187.82 557.006   9
  -1  -5   3 62687.7 2317.12   4
   1   5  -3 59400.9 2377.52   5
  -1   5   3 62791.8 2415.96   1
  -1  -5   3 65075.8 1834.06   7
  -1   5   3 61784.4 2437.13   9
   1  -5  -3 60009.6 2371.19   7
   1   5  -3 67792.6 1875.40   3
   1  -5  -3 61840.4 2100.53   4
  -1  -5   2 4063.76 315.914  10
  -1   5   2 5180.57 619.663   1
   1  -5  -2 4444.97 523.538   4
  -1  -5   2 4397.08 581.809   4
  -1   5   2 4535.67 588.736   5
   1   5  -2 3643.44 546.935   5
   1  -5  -2 4124.59 563.306   7
  -1  -5   2 4181.64 436.020   7
   1   5  -2 4084.46 362.942   3
  -1   5   1 19919.7 557.677   3
  -1   5   1 21018.3 1237.73   5
   1   5  -1 20730.9 806.898   3
   1   5  -1 20473.6 1238.20   5
  -1   5   1 18935.0 563.325  10
  -1   5   1 18069.2 538.008  10
   1  -5  -1 20197.1 1188.50   7
  -1  -5   1 20797.2 1034.63   7
  -1  -5   1 21280.6 1237.07   4
  -1  -5   1 20154.5 666.214  10
   1  -5  -1 20952.5 1174.74   4
   1   5   0 7517.06 418.392  10
   1  -5   0 6948.65 671.261   7
  -1   5   0 6895.13 708.864   5
   1   5   0 8416.64 777.738   5
  -1  -5   0 8298.01 677.238   7
  -1  -5   0 6472.41 666.192   4
   1  -5   0 7189.74 702.342   4
  -1  -5  -1 4971.36 576.735   7
  -1   5  -1 5628.16 629.739   8
   1   5   1 5286.54 558.167   1
  -1  -5  -1 5703.08 618.898   4
   1  -5   1 6086.03 612.553   7
   1   5   1 5937.39 692.074   5
  -1   5  -1 5327.22 624.259   5
   1   5   1 5305.81 400.597  10
  -1  -5  -2 190.592 184.651   4
   1   5   2 40.4784 133.808  10
   1  -5   2 14.0498 34.8534  10
   1   5   2 414.927 269.379   5
   1   5   2 243.415 274.898   1
   1  -5   2 97.5724 145.071   7
  -1   5  -2 48.5341 192.468   8
  -1   5  -2-28.6514 193.201   5
  -1  -5  -2 779.503 268.343   7
  -1  -5  -3 25774.2 1455.20   7
  -1   5  -3 25902.4 1369.67   8
  -1   5  -3 24133.6 1421.57   5
   1   5   3 26971.7 1476.60   1
   1   5   3 25681.3 1193.33  10
   1  -5   3 25032.1 873.961  10
   1  -5   3 27603.6 1321.25   7
  -1  -5  -3 24280.0 1282.90   4
  -1  -5  -4 7193.70 811.967   7
  -1   5  -4 7649.58 830.770   5
   1   5   4 7091.16 672.848  10
  -1   5  -4 6022.73 743.896   6
  -1  -5  -4 7407.30 698.566   4
   1  -5   4 6940.12 649.703   7
   1  -5   5 41197.9 1707.50   7
   1   5   5 40751.2 1998.99   9
  -1  -5  -5 38055.2 1610.58   4
  -1   5  -5 40982.0 2066.19   6
  -1   5  -5 38478.1 2032.91   5
   1   5   5 36356.8 1717.38  10
  -1  -5  -5 38105.4 2010.59   7
   1   5   6 8484.29 857.179  10
   1   5   6 8901.42 954.671   9
   1  -5   6 9689.58 811.776   7
  -1   5  -6 8479.33 990.177   5
  -1   5  -6 8574.73 983.164   6
   1  -5   6 8091.36 853.189   4
  -1  -5  -6 8015.53 680.256   4
  -1   5  -7 28470.1 1866.97   6
  -1   5  -7 26203.0 1870.13   5
   1  -5   7 29570.8 1694.64   2
   1  -5   7 30696.4 1557.60   7
  -1  -5  -7 29928.6 1997.55   6
   1   5   7 27839.3 1715.13  10
   1  -5   7 27099.3 1612.93   4
   1   5   7 29879.6 1852.63   9
   1  -5   8 5574.65 773.434   2
   1   5   8 4962.26 789.876  10
  -1   5  -8 6163.97 928.536   6
  -1   5  -8 6701.83 994.661   5
   1  -5   8 5709.44 757.717   4
   1   5   8 6942.20 952.282   9
  -1  -5  -8 4952.09 896.497   6
   1  -5   9 14715.2 1206.75   4
   1  -5   9 14225.3 1307.95   2
  -1   5  -9 12652.8 1360.82   6
   1   5   9 13270.2 1356.64   9
   1  -5   9 11993.4 1278.08   9
  -1  -5  -9 13794.4 1510.82   6
   1   5   9 12027.1 1294.27  10
   1   5  10 350.057 415.435   9
   1  -5  10 559.458 344.485   2
   1   5  10 195.788 311.980  10
   1  -5  10 797.133 383.051   9
  -1   5 -10 446.189 385.498   6
  -1  -5 -10 106.202 324.355   6
  -1   5 -11 543.815 337.066   6
   1  -5  11 346.583 364.643   2
   1  -5  11 3.81057 270.556   9
   1   5  11-150.946 266.888  10
  -1  -5 -11 276.361 402.000   6
   1   5  11-332.305 344.838   9
   1  -5  12 5789.65 1005.08  10
   1   5  12 5905.70 1043.63   9
  -1  -5 -12 6324.56 1220.02   6
   1  -5  12 5204.68 980.344   9
   1   5  12 5353.13 1028.35  10
  -1   5 -12 6137.59 1130.88   6
   1  -6 -12 7027.81 1277.14   6
  -1   6  12 7028.69 1248.14   9
  -1  -6  12 8471.28 1378.03   9
  -1   6  12 8193.21 1434.68   1
  -1   6  11 5738.67 1082.49   9
   1  -6 -11 4825.33 1045.29   6
  -1   6  11 6169.40 1120.79   1
  -1  -6  11 4628.00 942.787   9
   1   6 -11 5725.55 982.688   6
   1   6 -11 5251.87 900.934   3
   1   6 -10 2753.74 790.823   5
   1  -6 -10 3305.35 859.793   6
  -1   6  10 2420.54 743.805   1
   1   6 -10 1908.45 581.664   6
   1   6 -10 2246.76 579.513   3
  -1   6  10 1769.79 684.783   9
  -1  -6  10 2932.83 750.555   9
  -1  -6   9 27424.6 1775.09   4
   1   6  -9 26632.2 2150.28   5
   1   6  -9 31627.6 2065.68   6
  -1   6   9 29284.4 2175.51   9
   1   6  -9 29718.4 1854.88   3
   1  -6  -9 26655.5 2120.46   6
  -1  -6   9 27265.1 2097.51   9
  -1   6   9 27728.2 2183.86   1
   1   6  -8 415.843 357.999   6
   1   6  -8 306.319 169.296   3
   1   6  -8 250.007 353.900   5
  -1   6   8-298.062 354.121   9
   1  -6  -8 993.144 534.573   7
  -1  -6   8 601.958 347.623   4
  -1   6   8 547.243 380.414   1
   1  -6  -7 22366.1 1725.81   7
  -1  -6   7 22843.7 1319.17   2
  -1   6   7 23824.3 1796.01   9
   1   6  -7 24838.0 1455.76   3
  -1   6   7 24552.0 1872.06   1
   1   6  -7 22238.7 1779.91   5
  -1  -6   7 23457.8 1580.16   4
  -1  -6   6 54422.2 2023.43   2
   1   6  -6 50600.2 2622.64   5
  -1  -6   6 55364.0 2458.51   4
   1  -6  -6 54533.1 1996.74   4
  -1   6   6 56537.3 2723.80   9
  -1   6   6 53080.2 2689.74   1
   1   6  -6 59133.7 2172.86   3
   1  -6  -6 51081.0 2567.60   7
   1   6  -5 310.341 232.889   3
  -1   6   5 353.110 394.190   1
   1   6  -5 415.459 363.749   5
   1  -6  -5 149.061 336.115   7
  -1  -6   5 414.523 175.410   7
  -1   6   5 448.605 347.454   9
  -1  -6   5-31.3426 183.213   4
   1  -6  -5 432.173 227.167   4
   1   6  -4 19649.0 994.297   3
  -1  -6   4 19688.5 967.930   7
  -1  -6   4 15298.3 1208.01   4
  -1   6   4 15790.9 1288.43   1
   1  -6  -4 17889.1 1373.05   7
   1   6  -4 16846.4 1335.02   5
   1  -6  -4 19294.1 1180.10   4
   1   6  -3 7101.50 825.684   5
   1  -6  -3 6732.45 703.334   4
  -1  -6   3 6964.73 594.075   7
  -1   6   3 5640.39 762.355   5
   1   6  -3 7069.62 520.855   3
  -1   6   3 6753.26 805.611   1
   1  -6  -3 7076.23 828.259   7
  -1  -6   3 6032.26 751.379   4
  -1   6   2 58690.2 2447.36   5
   1   6  -2 64954.5 1676.56   3
  -1  -6   2 54151.9 1393.89  10
  -1  -6   2 59700.6 2432.53   4
  -1   6   2 61082.8 1519.17  10
   1  -6  -2 60270.4 2439.73   7
  -1  -6   2 63208.6 2058.50   7
   1   6  -2 60362.0 2482.32   5
   1  -6  -2 60914.7 2299.69   4
  -1  -6   1 112399. 3118.45   7
   1   6  -1 106071. 3482.62   5
   1  -6  -1 106317. 3371.85   7
   1   6  -1 114253. 2485.13   3
  -1   6   1 110655. 3499.69   5
   1  -6  -1 107751. 3354.18   4
  -1  -6   1 107907. 3440.35   4
   1  -6   0 6751.45 732.224   7
   1  -6   0 6217.90 725.776   4
   1   6   0 6522.05 773.285   5
  -1  -6   0 6065.59 657.909   7
   1   6   0 5850.67 356.851  10
  -1  -6   0 6393.53 736.939   4
  -1   6   0 6103.81 722.143   5
  -1   6  -1 57229.9 2337.17   5
   1  -6   1 55263.1 2145.13   7
  -1  -6  -1 56530.9 2266.56   4
   1   6   1 54919.6 1521.47  10
   1   6   1 51937.7 2292.51   5
   1   6   1 54513.5 2073.96   1
  -1  -6  -1 55577.9 2188.67   7
   1  -6   1 52226.5 2235.89   4
   1   6   2 41325.2 2060.37   5
   1  -6   2 43835.4 1858.85   7
   1   6   2 44001.7 1937.89   1
  -1  -6  -2 46050.9 1993.49   4
  -1  -6  -2 41652.2 1952.06   7
  -1   6  -2 43218.5 2048.89   5
   1  -6   2 43826.3 2045.54   4
   1   6   2 45454.8 1507.32  10
   1   6   3 40212.7 2066.08   5
  -1   6  -3 41783.2 2043.62   5
  -1  -6  -3 41741.8 1856.79   4
   1   6   3 41734.1 1995.97   1
   1  -6   3 34406.7 990.604  10
  -1  -6  -3 37238.2 1906.54   7
   1  -6   3 35156.6 1867.59   4
   1  -6   3 37916.1 1701.26   7
   1   6   3 43948.0 1602.14  10
   1  -6   4 11747.3 645.352  10
   1   6   4 13021.6 937.872  10
  -1  -6  -4 12673.3 978.231   4
  -1  -6  -4 10278.0 1030.10   7
   1  -6   4 13755.8 989.729   7
  -1   6  -4 11307.9 1088.08   5
   1  -6   4 11478.5 1056.77   4
   1   6   4 11462.8 1093.99   1
   1   6   5 2.32281 191.100  10
   1   6   5-205.811 287.195   1
   1  -6   5 234.466 246.405   7
  -1  -6  -5 1.66122 178.850   4
   1  -6   5 326.317 341.079   4
   1  -6   5 239.489 157.925  10
  -1  -6  -5 304.071 244.695   7
  -1   6  -5 445.420 297.733   5
   1   6   6 39014.3 1971.91  10
   1   6   6 43358.0 2296.74   9
   1  -6   6 48341.4 1984.66   7
  -1  -6  -6 40649.0 1814.87   4
  -1   6  -6 46128.1 2412.36   6
   1  -6   6 42361.8 2161.60   4
  -1   6  -6 41281.9 2340.95   5
  -1  -6  -7 11675.4 1323.78   6
   1   6   7 14190.8 1345.96   9
   1   6   7 12773.4 1169.63  10
  -1   6  -7 14132.8 1357.12   6
  -1   6  -7 16333.8 1512.94   5
   1  -6   7 14491.6 1254.80   4
   1  -6   7 12959.8 1144.24   2
   1  -6   8 413.299 292.919   4
  -1   6  -8 418.460 277.380   6
   1   6   8 776.172 412.620   9
   1  -6   8 515.372 374.000   2
  -1   6  -8 209.170 396.381   5
   1   6   8 248.181 229.885  10
  -1  -6  -8 619.438 517.901   6
   1  -6   9 7017.88 1024.97   9
  -1   6  -9 7248.34 1069.39   6
  -1   6  -9 6200.49 1054.95   5
   1  -6   9 6378.19 894.600   2
  -1  -6  -9 5155.59 1037.27   6
   1  -6   9 6386.13 860.944   4
   1   6   9 5233.03 873.479  10
   1   6   9 6673.42 1005.32   9
  -1   6 -10-58.0646 301.083   6
   1  -6  10 1578.09 574.807   9
   1   6  10 2588.41 734.214   9
  -1  -6 -10 3556.30 896.107   6
   1   6  10 1444.27 507.478  10
  -1   6 -11 15033.3 1689.33   6
   1   6  11 11702.2 1450.24  10
   1   6  11 14742.9 1617.47   9
  -1  -6 -11 13178.0 1699.13   6
   1  -6  11 13985.1 1599.80   9
  -1   6 -12 1836.62 709.061   6
   1   6  12-111.965 295.545  10
   1  -6  12 1323.90 683.035   9
   1   6  12 583.415 535.515   9
  -1   7  12 444.756 407.536  10
  -1  -7  11 419.308 358.613   9
  -1   7  11 482.626 446.303   1
   1  -7 -11-303.859 384.443   6
  -1   7  11 36.9954 328.707   9
   1   7 -10 19641.7 2006.18   5
  -1   7  10 17218.1 1810.37   9
  -1  -7  10 22583.7 2043.79   9
   1  -7 -10 16251.2 1815.20   6
  -1   7  10 17360.3 1898.70   1
  -1   7   9 1412.39 633.798   1
   1  -7  -9 516.674 432.116   6
  -1  -7   9 244.216 285.745   4
   1   7  -9 412.229 444.978   5
  -1   7   9 199.922 322.006   9
  -1   7   8 16218.5 1670.52   1
  -1   7   8 18943.1 1756.25   9
   1   7  -8 19177.3 1804.76   5
  -1  -7   8 18947.0 1543.79   4
   1  -7  -8 18802.5 1748.07   7
  -1   7   7-319.851 263.762   1
  -1  -7   7 141.404 283.654   4
  -1   7   7 480.729 403.466   9
   1  -7  -7 460.814 443.822   7
   1   7  -7 294.777 411.746   5
  -1   7   6 24633.9 1884.03   1
  -1   7   6 27644.2 1972.29   9
   1   7  -6 27476.2 1971.93   5
   1  -7  -6 29676.9 1558.07   4
  -1  -7   6 29821.4 1878.58   4
   1  -7  -6 25291.9 1868.48   7
   1  -7  -5 32151.6 2029.96   7
   1  -7  -5 34680.1 1741.36   4
   1   7  -5 33806.6 2120.05   5
  -1   7   5 31091.9 2023.87   1
  -1  -7   5 35220.8 2037.50   4
  -1   7   4 812.344 397.116   5
   1   7  -4-82.3581 275.624   5
  -1   7   4 570.710 298.284   1
  -1   7   4 197.412 161.828  10
   1  -7  -4 281.671 249.144   4
   1  -7  -4 434.880 350.679   7
  -1  -7   4 361.259 345.685   4
  -1  -7   4 481.712 219.963   7
  -1   7   3 1168.09 221.191  10
  -1   7   3 1615.02 487.778   1
  -1  -7   3 1054.62 366.670   4
   1  -7  -3 1501.56 448.283   7
  -1   7   3 1575.21 476.383   5
  -1  -7   3 1772.58 363.482   7
   1  -7  -3 1717.64 437.469   4
   1   7  -3 1403.90 473.545   5
  -1  -7   2 27603.1 1701.02   4
  -1  -7   2 26195.3 1377.03   7
   1  -7  -2 23410.0 1493.32   4
   1   7  -2 21620.1 1564.35   5
   1   7  -2 25437.1 920.605   3
   1  -7  -2 24321.7 1613.92   7
  -1   7   2 23546.6 1595.89   5
  -1  -7   1 12382.7 981.624   7
  -1   7   1 12433.8 1152.46   5
  -1  -7   1 11596.4 1090.58   4
   1  -7  -1 11665.0 1084.84   7
   1   7  -1 12557.7 1159.63   5
   1   7  -1 13592.0 614.473   3
   1  -7  -1 11495.5 1052.03   4
   1  -7   0 40243.7 2038.30   4
   1   7   0 37042.7 2037.56   5
  -1  -7   0 38204.2 1849.90   7
   1  -7   0 38104.3 1917.40   7
  -1   7   0 38394.7 2032.40   5
  -1  -7   0 42020.7 2100.50   4
   1  -7   1 13139.2 1145.20   4
  -1   7  -1 11245.4 1086.58   5
   1   7   1 12310.5 609.814  10
   1   7   1 12712.7 1172.49   5
  -1  -7  -1 12983.8 1086.80   7
  -1  -7  -1 11805.8 1080.99   4
   1  -7   1 12920.8 1061.21   7
  -1   7  -2 82786.6 3189.00   5
   1   7   2 80026.6 3212.72   5
  -1  -7  -2 77981.0 2990.14   7
  -1  -7  -2 82281.2 3051.59   4
   1   7   2 84613.2 2245.41  10
   1  -7   2 86616.2 2929.26   7
   1  -7   2 87014.2 3229.89   4
   1   7   2 83180.1 2976.27   1
  -1   7  -3 10051.4 1071.45   5
  -1  -7  -3 10004.2 979.211   4
  -1  -7  -3 10120.6 1035.75   7
   1   7   3 9098.83 1035.18   5
   1   7   3 9657.65 731.534  10
   1   7   3 10788.4 1044.54   1
   1  -7   3 8788.84 987.872   4
   1  -7   3 11958.5 982.690   7
   1   7   4 2821.53 448.388  10
  -1  -7  -4 3179.64 587.570   4
   1  -7   4 1878.27 517.791   4
  -1   7  -4 2713.24 565.430   5
   1  -7   4 3516.77 542.408   7
   1   7   4 3000.78 667.593   5
   1   7   4 2874.61 576.052   1
  -1  -7  -4 4135.65 732.902   7
   1  -7   5 69.5698 202.478   4
  -1   7  -5 304.452 356.903   5
   1   7   5 171.440 242.679  10
   1   7   5 347.976 318.141   1
  -1  -7  -5 991.295 450.637   7
   1  -7   5 50.3898 229.098   7
  -1  -7  -5-35.3969 186.404   4
   1   7   6 1156.31 387.684  10
   1   7   6 1460.26 534.260   1
  -1  -7  -6 1126.60 340.734   4
   1  -7   6 1682.34 472.875   4
  -1   7  -6 2847.89 661.561   5
   1  -7   7 2190.75 533.092   2
   1   7   7 2185.85 504.334  10
  -1   7  -7 2926.14 708.467   5
   1  -7   7 2766.77 626.354   4
   1   7   7 3327.99 756.750   1
   1  -7   8 15282.2 1413.81   4
  -1   7  -8 11492.7 1436.63   5
   1   7   8 15127.8 1609.76   1
   1   7   8 14109.2 1353.12  10
   1  -7   8 14909.3 1324.22   2
  -1  -7  -8 12387.4 1501.27   6
  -1   7  -8 13368.8 1457.06   6
   1  -7   9 8477.28 1072.83   4
  -1   7  -9 7229.78 1209.39   5
   1   7   9 6636.37 1115.57   1
  -1   7  -9 7654.90 1172.41   6
  -1  -7  -9 8227.50 1287.84   6
   1   7   9 7048.04 1038.18  10
   1   7  10 14202.9 1712.45   1
   1   7  10 10507.7 1333.66  10
  -1  -7 -10 9835.00 1466.37   6
   1  -7  10 13054.3 1519.62   9
   1   7  10 9409.24 1325.26   9
  -1   7 -10 11726.0 1466.97   6
  -1   7 -10 12588.2 1618.88   5
   1   7  11 361.913 351.698  10
   1  -7  11 184.784 409.335   9
   1   7  11-415.298 394.497   9
  -1   8  10 3239.75 889.879   1
   1  -8 -10 1728.88 795.148   6
   1   8 -10 3105.88 865.890   5
  -1  -8  10 3402.12 944.148   9
  -1   8  10 2270.18 741.360   9
   1  -8  -9 1597.86 538.181   6
  -1  -8   9 1730.24 523.710   4
  -1   8   9 2041.85 720.351   1
   1   8  -9 2385.51 834.220   5
   1  -8  -8 11736.4 1472.45   7
   1   8  -8 14040.5 1621.68   5
  -1  -8   8 10613.8 1263.56   4
  -1   8   8 10203.3 1369.29   1
  -1  -8   7-563.380 367.269   4
   1   8  -7-153.199 332.962   5
   1  -8  -7 609.240 441.610   7
  -1   8   7-314.066 319.999   1
  -1   8   6 2059.35 606.991   1
   1  -8  -6 2295.59 640.197   7
  -1  -8   6 1851.25 547.169   4
   1   8  -6 1979.16 543.746   5
   1   8  -5 443.259 289.386   5
   1  -8  -5 481.735 282.677   4
  -1  -8   5 380.233 319.058   4
   1  -8  -5-86.2033 366.427   7
  -1   8   5 955.130 560.300   5
  -1   8   5-331.238 429.359   1
   1  -8  -4 10860.3 1221.95   7
  -1  -8   4 11548.4 1229.49   4
  -1   8   4 12971.3 1340.58   5
   1  -8  -4 10850.3 1066.29   4
   1   8  -4 14268.0 1399.04   5
  -1   8   4 12183.6 1268.79   1
   1  -8  -3 320.462 253.869   4
  -1   8   3 100.587 289.085   5
   1   8  -3 693.001 402.050   5
  -1  -8   3 248.887 335.500   4
   1  -8  -3 121.076 266.413   7
  -1  -8   3 412.929 260.510   7
   1   8  -2 13442.8 1311.74   5
  -1   8   2 13791.6 1327.88   5
   1  -8  -2 14588.6 1268.84   4
  -1  -8   2 15173.0 1117.57   7
   1  -8  -2 12839.2 1247.89   7
  -1  -8   2 13455.1 1284.83   4
   1  -8  -1 535.913 318.428   4
  -1   8   1 607.632 397.600   5
  -1  -8   1 1123.82 458.745   4
  -1  -8   1 1356.54 382.047   7
   1   8  -1 645.485 341.865   5
   1  -8  -1 858.784 339.796   7
  -1   8   0 832.734 394.136   5
   1   8   0 302.111 330.546   5
   1  -8   0 377.622 350.694   7
  -1  -8   0 944.665 371.603   7
  -1  -8   0 402.094 269.884   4
   1  -8   0 1013.31 429.451   4
   1   8   1 2514.13 605.576   5
  -1  -8  -1 1833.71 440.045   7
   1  -8   1 3068.43 586.399   7
  -1   8  -1 2935.49 627.813   5
   1  -8   1 3321.11 649.610   4
  -1  -8  -1 2097.48 513.002   4
  -1   8  -2 4510.51 773.943   5
   1   8   2 5400.30 861.554   5
  -1  -8  -2 4575.35 733.632   4
  -1  -8  -2 4864.30 771.946   7
   1  -8   2 4168.28 730.965   4
   1  -8   2 3237.33 569.799   7
  -1  -8  -3 11629.4 1199.61   7
  -1  -8  -3 10803.3 1106.32   4
   1  -8   3 11376.5 1025.12   7
   1   8   3 10944.4 1221.22   5
   1   8   3 10404.7 1093.65   1
  -1   8  -3 11855.3 1241.98   5
   1  -8   3 11109.7 1201.84   4
   1   8   4 15553.2 1511.09   5
  -1   8  -4 14349.1 1431.64   5
   1  -8   4 18165.1 1279.53   7
   1  -8   4 16455.0 1472.65   4
  -1  -8  -4 17090.6 1512.27   7
   1   8   4 14172.5 1330.99   1
  -1  -8  -4 16859.8 1360.97   4
  -1  -8  -5 6310.52 829.357   4
  -1  -8  -5 5804.72 916.959   7
  -1   8  -5 6146.59 971.289   5
   1  -8   5 6871.92 787.494   7
   1  -8   5 6397.58 935.325   4
   1   8   5 5689.72 904.761   1
   1   8   5 8016.57 1128.95   5
  -1   8  -6 8603.06 1178.62   5
   1  -8   6 8396.00 1091.62   4
   1   8   6 6717.43 1032.68   1
  -1   8  -7 4254.16 921.182   5
   1   8   7 3623.64 837.121   1
   1  -8   7 4000.72 798.974   4
  -1  -8  -8 1898.12 747.847   6
   1  -8   8 2119.10 619.881   4
  -1   8  -8 1967.29 721.858   5
   1   8   8 1589.78 553.895   1
  -1  -8  -9 5247.09 1101.33   6
   1  -8   9 5879.14 983.948   4
  -1   8  -9 3983.70 943.566   5
   1   8   9 6619.23 1174.40   1
   1  -8  10 13310.4 1628.76   9
  -1  -8 -10 15732.0 1940.93   6
   1   8  10 15716.3 1852.84   1
  -1   8 -10 15217.8 1837.75   5
   1  -8  11 3973.71 932.189   9
  -1  -9   9-138.555 460.311   4
  -1   9   9 919.088 523.423   1
   1   9  -9 660.110 536.390   5
  -1   9   8 8941.39 1347.54   1
   1  -9  -8 8657.39 1303.53   7
   1   9  -8 10038.5 1407.04   5
  -1  -9   8 10840.5 1366.78   4
  -1  -9   7 11915.7 1401.75   4
  -1   9   7 9630.30 1371.42   5
   1   9  -7 8885.15 1307.46   5
   1  -9  -7 10120.1 1402.28   7
  -1   9   7 11070.8 1426.93   1
   1   9  -6 750.918 447.052   5
  -1  -9   6 363.839 388.711   4
  -1   9   6 763.232 437.891   1
  -1   9   6 1434.04 629.870   5
   1  -9  -6 306.369 380.086   7
   1  -9  -5 14267.4 1284.21   4
  -1   9   5 10916.0 1373.22   5
  -1  -9   5 10991.6 1292.62   4
   1  -9  -5 9840.19 1253.78   7
   1   9  -5 13759.1 1506.08   5
   1  -9  -4 1639.92 474.223   4
  -1  -9   4 1643.68 632.274   4
   1   9  -4 1416.39 549.455   5
  -1   9   4 1535.87 534.790   5
   1  -9  -4 1262.75 565.263   7
   1  -9  -3 5854.32 865.552   4
   1   9  -3 8161.19 1126.74   5
  -1  -9   3 8265.13 1106.33   4
  -1   9   3 8749.93 1155.03   5
   1  -9  -3 8333.26 1132.89   7
  -1   9   2 4792.79 868.187   5
   1  -9  -2 4392.75 806.832   7
   1   9  -2 5905.62 985.047   5
  -1  -9   2 4925.15 696.836   7
   1  -9  -2 3479.48 705.951   4
  -1  -9   2 4767.41 853.434   4
  -1   9   1 23913.6 1835.61   5
   1   9  -1 22089.0 1807.10   5
   1  -9  -1 20911.8 1649.30   7
  -1  -9   1 21644.5 1516.62   7
   1  -9  -1 19213.3 1603.54   4
  -1  -9   1 22693.0 1790.20   4
   1   9   0 15129.2 1501.66   5
  -1  -9   0 15180.7 1461.24   4
  -1  -9   0 17419.8 1390.44   7
  -1   9   0 15638.3 1476.08   5
   1  -9   0 18785.3 1527.65   7
   1  -9   0 19003.4 1590.36   4
   1  -9   1 1632.35 508.081   4
  -1  -9  -1 2141.05 584.286   4
  -1   9  -1 2742.52 647.859   5
  -1  -9  -1 1438.58 515.435   7
   1   9   1 2980.12 682.290   5
   1  -9   1 2381.63 537.972   7
   1  -9   2 892.208 419.652   4
  -1   9  -2 458.857 409.857   5
  -1  -9  -2 222.500 287.329   7
   1   9   2 325.741 352.145   5
   1  -9   2 255.042 212.191   7
  -1  -9  -2 120.634 258.102   4
   1  -9   3 1999.20 517.337   7
   1  -9   3 1953.20 625.809   4
  -1  -9  -3 1829.12 544.097   4
  -1   9  -3 1664.69 608.770   5
   1   9   3 1607.27 553.441   5
  -1  -9  -3 859.929 457.891   7
   1   9   4 982.927 405.814   1
  -1  -9  -4 2378.79 666.467   7
   1  -9   4 2383.87 796.144   4
   1  -9   4 2501.05 512.831   7
  -1   9  -4 1416.67 514.687   5
  -1  -9  -4 2382.96 601.052   4
   1   9   4 2790.73 764.005   5
  -1  -9  -5 16790.1 1462.39   4
   1   9   5 18529.4 1801.41   5
  -1  -9  -5 16640.3 1625.24   7
   1   9   5 14293.0 1488.77   1
  -1   9  -5 16121.6 1651.06   5
   1  -9   5 16849.9 1622.74   4
   1   9   6 12745.9 1542.70   5
  -1   9  -6 12055.1 1486.98   5
   1   9   6 10051.5 1313.34   1
   1  -9   6 11951.9 1386.01   4
   1   9   7 36529.9 2712.53   5
  -1   9  -7 43151.6 2895.54   5
   1   9   7 35672.3 2593.64   1
   1  -9   7 39513.7 2570.22   4
   1  -9   8 3715.80 832.189   4
  -1  -9  -8 2512.52 819.250   6
  -1   9  -8 1527.75 655.800   5
   1   9   8 2479.46 736.945   1
  -1   9  -9 1387.87 589.197   5
   1   9   9 2473.13 823.610   1
  -1  -9  -9 3086.89 827.304   6
  -1 -10   9 2131.57 711.554   4
  -1  10   8 283.901 434.849   1
   1 -10  -8 1645.51 658.124   7
  -1  10   8 516.308 610.183   5
   1  10  -8 551.067 627.110   5
  -1 -10   8-207.503 424.887   4
  -1 -10   7-242.612 403.227   4
  -1  10   7 65.5497 362.048   1
  -1  10   7 235.192 460.308   5
   1  10  -7 59.3921 320.579   5
   1 -10  -7 655.385 536.199   7
   1 -10  -6 8113.17 1265.76   7
   1  10  -6 9133.71 1354.41   5
  -1 -10   6 7618.72 1188.71   4
  -1  10   6 6070.79 1142.78   5
   1 -10  -5 267.364 238.490   4
   1 -10  -5 533.154 362.188   7
  -1  10   5 272.947 399.795   5
   1  10  -5 615.467 346.236   5
  -1 -10   5 327.481 446.226   4
  -1  10   4 41065.7 2738.15   5
  -1 -10   4 40476.6 2653.74   4
   1  10  -4 36110.2 2579.60   5
   1 -10  -4 43451.1 2742.70   7
   1 -10  -4 39282.4 2397.67   4
   1  10  -3 1486.00 674.165   5
  -1 -10   3 418.029 479.464   4
  -1  10   3 410.668 326.495   5
   1 -10  -3 450.825 336.068   4
   1 -10  -3 584.574 456.547   7
   1 -10  -2 11628.9 1382.94   7
   1 -10  -2 13933.1 1447.92   4
  -1 -10   2 13811.2 1505.87   4
  -1  10   2 11280.3 1380.10   5
   1  10  -2 14785.9 1587.66   5
   1 -10  -1 2800.73 685.692   4
   1  10  -1 2767.06 716.298   5
   1 -10  -1 3082.15 732.257   7
  -1  10   1 2339.40 655.565   5
  -1 -10   1 4230.38 727.766   7
  -1 -10   1 3369.94 795.342   4
  -1 -10   0 401.948 321.776   7
  -1 -10   0 166.637 391.635   4
   1 -10   0 252.154 333.956   4
   1  10   0 596.998 494.793   5
  -1  10   0 732.745 473.002   5
   1 -10   0 186.315 287.985   7
   1 -10   1 2084.86 636.090   4
  -1 -10  -1 2100.35 607.792   4
   1 -10   1 2573.66 671.777   7
  -1 -10  -1 2704.70 633.673   7
  -1  10  -1 2234.05 607.085   5
   1  10   1 2933.14 776.909   5
   1 -10   2 4981.66 932.694   4
  -1  10  -2 5800.24 989.030   5
   1 -10   2 4174.64 767.839   7
  -1 -10  -2 4802.28 845.124   7
   1  10   2 4325.35 902.975   5
  -1 -10  -2 5100.97 891.263   4
  -1 -10  -3 3183.58 728.066   7
   1  10   3 3815.74 886.958   5
   1 -10   3 2869.31 757.366   4
   1 -10   3 3955.19 735.235   7
  -1  10  -3 3490.46 793.885   5
  -1 -10  -3 3607.57 752.356   4
  -1 -10  -4 25092.8 2092.51   7
   1  10   4 26703.7 2229.13   5
  -1 -10  -4 28833.6 2073.07   4
  -1  10  -4 31128.3 2362.66   5
   1 -10   4 29821.4 2285.60   4
   1 -10   5 2307.58 689.273   4
  -1  10  -5 2495.03 744.051   5
   1  10   5 3115.55 839.095   5
   1  10   5 888.461 466.583   1
  -1 -10  -5 3130.51 715.285   4
  -1 -10  -5 2949.62 807.635   7
   1  10   6 385.175 394.576   5
  -1  10  -6 2546.96 786.064   5
   1 -10   6 3026.96 802.425   4
   1  10   6 1534.47 564.037   1
   1  10   7 821.804 618.160   5
  -1  10  -7 659.976 711.507   5
   1  10   7-226.083 403.609   1
   1 -10   7 857.866 617.957   4
   1 -10   8 4410.06 968.627   4
  -1  10  -8 5726.93 1170.17   5
   1  10   8 3562.22 908.337   1
  -1 -11   7 344.460 466.633   4
   1  11  -6 9113.61 1444.68   5
  -1  11   6 7498.49 1350.24   5
   1 -11  -6 8679.45 1388.31   7
  -1 -11   6 9251.44 1367.54   4
  -1 -11   5 25.4743 448.886   4
   1  11  -5 321.917 410.194   5
   1 -11  -5-299.498 394.004   7
  -1  11   5 727.696 538.519   5
  -1  11   4 589.304 441.527   5
  -1 -11   4 102.533 472.560   4
   1  11  -4 542.746 359.260   5
   1 -11  -4-123.972 379.634   7
   1 -11  -4 471.729 389.832   4
   1  11  -3 513.429 346.940   5
  -1 -11   3 828.039 610.856   4
   1 -11  -3 616.595 342.172   4
   1 -11  -3 796.557 525.958   7
  -1  11   3 636.624 457.825   5
   1 -11  -2 9372.92 1281.02   4
   1  11  -2 7875.96 1255.24   5
  -1 -11   2 9113.19 1330.50   4
   1 -11  -2 9037.81 1254.35   7
  -1  11   2 7198.18 1228.89   5
   1  11  -1-112.732 393.776   5
  -1  11   1 135.443 395.369   5
  -1 -11   1 862.854 478.786   4
   1 -11  -1 22.1633 335.402   7
   1 -11  -1 999.839 556.099   4
   1  11   0 45693.5 2959.08   5
  -1 -11   0 36324.3 2316.92   7
  -1  11   0 38459.9 2706.72   5
  -1 -11   0 40665.3 2729.48   4
   1 -11   0 42586.7 2618.73   7
   1 -11   0 43101.8 2807.67   4
  -1 -11  -1 2192.51 643.388   4
   1  11   1 598.335 497.622   5
   1 -11   1 575.971 359.050   7
   1 -11   1 1515.06 636.977   4
  -1  11  -1 979.366 579.042   5
  -1 -11  -1 622.540 404.322   7
  -1 -11  -2 14218.1 1549.08   7
   1  11   2 16626.8 1801.50   5
  -1 -11  -2 13344.7 1523.75   4
   1 -11   2 15192.0 1706.18   4
  -1  11  -2 13120.8 1580.60   5
  -1 -11  -3 221.461 362.329   4
   1 -11   3 1270.01 605.116   4
  -1 -11  -3 768.599 466.039   7
  -1  11  -3 144.991 396.655   5
   1  11   3-498.718 450.848   5
  -1  11  -4 2476.71 751.503   5
   1 -11   4 1910.97 696.720   4
  -1 -11  -4 2325.25 756.797   7
   1  11   4 1173.98 540.565   5
  -1 -11  -4 4111.49 883.663   4
   1 -11   5 960.373 554.179   4
   1  11   5 699.358 484.338   5
  -1  11  -5 1515.91 581.186   5
  -1  11  -6 1101.80 655.629   5
   1 -11   6 108.547 407.990   4
   1  11   6 463.999 464.684   5
   1  11   7 1777.01 663.980   1
   1 -12  -4 6377.75 1145.44   4
   1 -12  -4 5802.47 1133.23   7
  -1  12   3 970.802 504.898   5
  -1 -12   3 173.746 384.993   4
   1 -12  -3-132.368 435.273   7
   1 -12  -3 183.789 440.227   4
   1  12  -3 1342.53 609.688   5
  -1 -12   2 657.909 597.770   4
  -1  12   2 593.193 452.424   5
   1  12  -2 430.015 485.384   5
   1 -12  -2 1034.44 597.964   4
   1 -12  -2 1235.66 514.461   7
   1  12  -1 10728.2 1524.82   5
  -1 -12   1 13363.3 1693.54   4
  -1  12   1 11239.5 1565.87   5
   1 -12  -1 11016.1 1440.12   7
   1 -12  -1 12532.9 1592.17   4
   1  12   0 514.058 621.073   5
  -1 -12   0 555.974 493.205   4
   1 -12   0 173.228 502.983   4
  -1  12   0 97.5172 541.548   5
   1 -12   0-427.154 386.668   7
  -1  12  -1 552.477 515.802   5
   1  12   1-26.1187 366.521   5
  -1 -12  -1 1725.63 610.248   7
  -1 -12  -1 1209.37 558.002   4
   1 -12   1 1347.83 663.351   4
   1 -12   2 2103.35 729.160   4
   1  12   2 1709.42 758.753   5
  -1 -12  -2 666.345 517.710   7
  -1  12  -2 1051.22 560.419   5
  -1 -12  -2 2132.98 697.811   4
  -1 -12  -3 7530.65 1237.71   4
   1 -12   3 11235.9 1552.56   4
  -1 -12  -3 9072.59 1344.80   7
  -1  12  -3 10035.5 1485.40   5
   1  12   3 6835.01 1292.92   5
  -1 -12  -4 1215.37 614.687   4
   1 -13  -1 3301.10 848.826   7
  -2   0  14 2242.13 771.235   9
  -2   0  13 383.010 510.841   9
   2   0 -13 492.842 409.377   6
   2   0 -13-15.8393 376.730   3
   2   0 -12 1150.17 524.948   6
  -2   0  12 598.330 470.176   9
   2   0 -12 1077.12 509.027   3
  -2   0  11-264.304 409.157   9
   2   0 -11 15.4491 285.136   6
   2   0 -11 861.382 429.872   3
  -2   0  10 65029.7 3140.93   9
   2   0 -10 66911.5 3120.93   3
   2   0 -10 61578.9 2771.00   6
  -2   0   9-42.9984 242.451   9
   2   0  -9-118.500 239.897   3
   2   0  -9 160.638 245.055   6
  -2   0   8 35417.7 2002.93   9
   2   0  -8 32106.4 1857.33   3
   2   0  -8 34791.1 1749.95   6
  -2   0   7-149.951 218.792   9
   2   0  -7 101.941 208.540   6
   2   0  -7-60.4670 300.940   3
  -2   0   6 72435.5 2544.08   9
   2   0  -6 74578.1 2509.58   3
   2   0  -6 79146.3 2289.18   6
   2   0  -5 67.1700 55.7019   4
  -2   0   5 104.453 69.8802   4
  -2   0   5 35.5469 72.4569   8
   2   0  -5 123.812 143.948   7
  -2   0   5 9.62167 184.753   9
   2   0  -5-65.6551 208.616   3
   2   0  -5 257.915 209.463   6
   2   0  -4 451.681 145.222   7
  -2   0   4 772.405 260.026   9
  -2   0   4 719.946 129.963   8
   2   0  -4 828.258 254.816   3
   2   0  -4 539.509 165.688   6
   2   0  -4 646.599 120.794   4
  -2   0   4 375.437 115.494   4
   2   0  -3-58.8492 93.7120   6
  -2   0   3-9.57690 97.4939   8
  -2   0   3 64.1200 160.133   9
   2   0  -3 245.493 185.845   3
   2   0  -3 19.9640 112.565   7
  -2   0   3 159.309 112.051   7
  -2   0   3 249.323 120.063   4
   2   0  -3 62.7910 76.5883   4
  -2   0   2 284460. 4754.70   7
  -2   0   2 266253. 4776.17   1
  -2   0   2 285179. 4869.63   5
  -2   0   2 252322. 5005.47   9
  -2   0   2 250521. 4766.24   4
   2   0  -2 273083. 4792.28   4
   2   0  -2 248012. 4999.90   3
  -2   0   2 248855. 4807.40   8
   2   0  -2 252624. 4689.06   7
   2   0  -1 117.754 132.999  10
  -2   0   1 67.3736 65.4298   5
  -2   0   1 191.442 138.971   4
  -2   0   1 103.608 119.340   8
  -2   0   1 176.296 112.619   9
   2   0  -1 78.5383 127.939   4
   2   0  -1 185.679 121.079   9
  -2   0   0 133181. 2400.07   9
  -2   0   0 127477. 2820.45   8
  -2   0   0 131314. 2838.05   4
  -2   0   0 131110. 2580.46   6
   2   0   0 129465. 2781.36  10
  -2   0  -1 46.2126 125.748   6
  -2   0  -1 106.728 145.754   8
   2   0   1 98.2531 134.662  10
  -2   0  -2 213342. 4214.12   8
   2   0   2 207804. 3726.76   9
   2   0   2 218219. 4373.11   2
   2   0   2 203857. 4283.32  10
  -2   0  -2 209130. 4360.07   6
   2   0   3 173.459 132.561   9
  -2   0  -3 94.6199 148.389   6
   2   0   3-86.3845 156.632   2
  -2   0  -3 84.1769 106.310   8
   2   0   3 132.806 194.443  10
   2   0   4 11716.2 799.996  10
  -2   0  -4 11848.4 666.982   8
   2   0   4 13239.2 899.520   2
   2   0   4 12487.6 687.323   9
  -2   0  -4 12612.2 898.918   6
   2   0   5 67.5837 131.837   9
   2   0   5-67.7048 175.435   2
  -2   0  -5-38.4881 114.413   8
  -2   0  -5 352.023 254.605   6
   2   0   6 3353.21 568.152   2
  -2   0  -6 3412.23 348.004   8
   2   0   6 4342.30 522.608   9
  -2   0  -6 3560.49 595.658   6
   2   0   7 193.420 312.462   2
  -2   0  -7-104.150 95.7096   8
  -2   0  -7 209.790 352.407   6
   2   0   7 722.027 328.053   9
   2   0   8 22663.2 1618.10   2
   2   0   8 23995.2 1478.38   9
  -2   0  -8 24551.7 1725.92   6
   2   0   9 0.75679 206.816   9
   2   0   9-75.9546 282.974   2
  -2   0  -9-424.079 335.766   6
   2   0  10 14510.6 1314.96   9
  -2   0 -10 15461.1 1542.32   6
   2   0  10 12841.1 1385.41   2
   2   0  11 182.136 385.226  10
   2   0  11 317.507 382.023   9
   2   0  11 366.194 376.894   2
  -2   0 -11 46.8308 333.958   6
  -2   0 -12 5952.20 1088.45   6
   2   0  12 4891.52 956.598   2
   2   0  12 4614.49 956.710  10
  -2   0 -13 165.294 342.435   6
   2   0  13-245.079 378.685  10
   2   0  13-678.111 375.530   2
  -2  -1  14 6191.95 1198.09   9
  -2   1  14 7684.80 1346.38   9
   2  -1 -13 8197.46 1189.83   6
  -2  -1  13 8205.27 1301.97   9
   2   1 -13 5712.60 1077.72   3
   2  -1 -13 6669.12 1148.13   3
  -2   1  13 6691.54 1168.17   9
  -2   1  12 30135.0 2334.80   9
   2   1 -12 32596.4 2197.80   6
   2  -1 -12 32744.9 2394.62   3
  -2  -1  12 30911.6 2371.78   9
   2   1 -12 30268.9 2289.19   3
   2  -1 -12 33659.4 2269.09   6
  -2  -1  11 260.564 407.428   9
   2  -1 -11 400.553 398.327   3
   2   1 -11 333.650 356.229   6
   2  -1 -11 7.04044 360.134   6
   2   1 -11-83.7919 289.967   3
  -2   1  11 587.226 463.204   9
  -2  -1  10 3361.73 614.945   2
  -2  -1  10 2184.69 590.043   9
   2  -1 -10 2358.47 563.670   6
  -2   1  10 2189.60 565.873   9
   2   1 -10 2535.30 592.544   6
   2  -1 -10 3141.58 690.683   3
   2   1 -10 2521.71 634.449   3
   2   1  -9 28872.3 1864.92   3
  -2  -1   9 31001.6 1996.15   9
  -2   1   9 31470.0 2015.02   9
  -2  -1   9 29966.5 1720.59   2
   2  -1  -9 29110.0 1771.47   6
   2  -1  -9 28961.8 1884.04   3
   2   1  -9 30149.6 1738.44   6
  -2  -1   8 2679.93 583.403   9
  -2   1   8 1543.45 518.495   9
  -2  -1   8 2048.80 456.309   2
   2   1  -8 1842.65 484.726   3
   2   1  -8 1387.65 365.005   6
   2  -1  -8 1757.51 411.117   6
   2  -1  -8 1289.51 424.905   3
  -2  -1   7 9009.85 938.531   9
  -2   1   7 8032.50 885.158   9
   2  -1  -7 8612.28 886.518   3
   2   1  -7 10457.6 838.983   6
   2   1  -7 8085.63 851.022   3
  -2  -1   7 8989.14 493.598   4
  -2  -1   7 10389.2 848.858   2
   2  -1  -7 9441.74 853.156   6
   2  -1  -6 78007.5 2467.87   6
   2  -1  -6 75845.2 2338.40   7
  -2  -1   6 72953.3 2279.76   2
   2   1  -6 73681.8 2589.84   3
  -2  -1   6 72167.3 2653.27   9
  -2  -1   6 72944.3 1817.18   4
  -2   1   6 71543.4 2655.00   9
   2   1  -6 76769.8 2321.58   6
   2  -1  -6 74831.1 2605.82   3
   2  -1  -5 20893.6 1061.61   6
  -2  -1   5 19413.9 1184.41   9
   2  -1  -5 19605.4 1138.61   3
  -2   1   5 20144.7 1212.86   9
  -2  -1   5 19804.1 961.638   2
  -2  -1   5 19908.4 796.158   4
   2  -1  -5 20379.6 1010.34   7
   2   1  -5 20072.2 1157.90   3
  -2   1   5 20340.7 715.567   8
   2   1  -5 18404.2 917.427   6
   2  -1  -5 21930.5 771.082   8
  -2  -1   5 18548.3 655.110   8
   2  -1  -4 114567. 2956.40   3
   2   1  -4 111426. 2957.78   3
  -2  -1   4 109784. 2450.95   4
   2  -1  -4 109927. 2158.46   4
   2  -1  -4 110544. 2712.75   7
   2   1  -4 107772. 2908.63   5
  -2   1   4 107246. 2372.46   8
   2   1  -4 108412. 2484.35   6
  -2  -1   4 111931. 2242.12   7
  -2   1   4 113392. 3066.66   9
  -2  -1   4 114642. 2559.58   2
  -2  -1   4 114145. 3032.88   9
   2  -1  -3 7070.54 384.728   4
  -2  -1   3 5745.01 523.163   9
  -2   1   3 7580.84 561.287   1
   2   1  -3 6482.27 371.303   2
  -2   1   3 6611.10 571.089   9
  -2   1   3 5577.56 393.483   8
   2  -1  -3 6520.35 526.470   3
   2   1  -3 5809.45 500.029   5
  -2  -1   3 5729.65 269.814   7
   2  -1  -3 6137.33 461.187   7
  -2  -1   3 6333.39 432.830   4
   2   1  -3 7089.07 554.596   3
   2   1  -3 6327.41 351.368   6
   2   1  -3 6263.56 266.145   7
  -2  -1   3 7765.24 378.014   6
  -2  -1   2 98321.1 1789.24   1
  -2   1   2 91955.3 2136.59   8
  -2   1   2 87377.7 2251.47   9
   2   1  -2 96137.6 1764.65   2
  -2  -1   2 90590.9 2134.11   4
   2   1  -2 88890.3 2263.84   3
   2   1  -2 88566.6 1727.32   7
  -2   1   2 91052.3 2238.32   1
   2  -1  -2 88791.6 2186.10   3
   2   1  -2 89897.7 2136.10   5
   2  -1  -2 89980.6 2182.16   7
  -2   1   1 17899.5 758.362   8
  -2  -1   1 19273.1 653.791   5
   2  -1  -1 16570.8 703.125  10
  -2   1   1 16718.4 688.445   9
   2  -1  -1 18633.6 726.309   9
   2  -1  -1 17213.0 746.275   7
   2   1  -1 16013.1 605.412   5
   2   1  -1 16745.5 737.498  10
  -2  -1   1 16346.0 729.398   4
   2  -1   0 9849.05 339.093   5
  -2   1   0 8283.35 473.349   6
  -2   1   0 8633.01 399.903   9
   2  -1   0 7906.51 451.604  10
   2  -1   0 9733.95 502.170   6
   2   1   0 8564.15 402.041   5
   2   1   0 8447.95 504.334  10
   2  -1   0 9962.54 425.176   9
  -2  -1   0 8036.46 515.834   4
  -2   1   0 8595.34 527.913   8
  -2   1   0 8822.50 325.304   5
  -2   1   0 9228.43 478.203  10
   2   1   0 9681.76 411.451   2
  -2  -1   0 8725.51 407.389   6
  -2   1  -1 40166.2 1299.62   6
  -2   1  -1 41674.8 1099.76   5
   2   1   1 41999.4 1318.22  10
  -2   1  -1 42980.2 1338.98   8
  -2  -1  -1 46334.4 1035.73   9
   2   1   1 43255.6 1252.11   2
  -2  -1  -1 41300.7 1270.09   6
   2  -1   1 41491.0 1230.51  10
   2  -1   1 46900.3 1126.77   5
  -2  -1  -1 40304.2 1310.89   4
   2   1   2 57164.8 1738.80  10
  -2   1  -2 59014.4 1634.17   5
  -2  -1  -2 63911.7 1436.06   9
  -2  -1  -2 60047.9 1700.13   4
  -2   1  -2 60813.5 1829.97   6
   2   1   2 60103.6 1750.31   2
  -2  -1  -2 56615.1 1766.72   6
   2   1   2 58830.5 1400.03   9
   2  -1   2 60720.5 1696.96  10
  -2   1  -2 59112.8 1674.70   8
   2   1   3 77111.5 2250.38  10
   2   1   3 76134.1 1916.57   9
   2  -1   3 75430.5 2147.41  10
  -2   1  -3 83139.9 2397.27   6
  -2  -1  -3 82157.3 2112.54   4
   2   1   3 78878.7 2304.13   2
  -2   1  -3 82132.5 2082.31   8
  -2  -1  -3 79394.6 2364.92   6
   2  -1   4 6296.68 625.268   2
   2   1   4 6905.19 645.497  10
   2   1   4 7236.00 668.899   2
   2  -1   4 6744.64 510.661   9
  -2   1  -4 7273.91 515.783   8
   2  -1   4 6695.29 598.883  10
  -2   1  -4 5975.64 635.375   6
   2   1   4 6224.78 500.501   9
  -2  -1  -4 6366.05 656.134   6
  -2   1  -5 54944.9 1608.11   8
   2   1   5 55605.5 1854.93   9
   2  -1   5 52968.3 1810.69   9
  -2  -1  -5 50778.7 2136.54   6
   2  -1   5 53817.7 2095.56   2
   2   1   5 55048.1 2137.80   2
  -2   1  -5 55400.6 2193.17   6
   2   1   6 55114.5 2302.31   2
  -2   1  -6 55571.4 1609.32   8
  -2  -1  -6 56698.3 1730.96   8
   2  -1   6 56766.9 2037.92   9
  -2   1  -6 54771.0 2345.30   6
  -2  -1  -6 55180.9 2370.19   6
   2   1   6 57493.1 2056.70   9
   2  -1   6 50486.0 2190.05   2
   2   1   7 396.548 301.211   2
   2  -1   7 1366.40 375.155   9
  -2   1  -7 836.806 170.518   8
  -2  -1  -7 1428.89 442.023   6
  -2   1  -7 1652.93 513.005   6
  -2  -1  -7 1336.01 245.509   8
   2   1   7 1123.27 343.014   9
   2  -1   7 1448.27 415.162   2
   2   1   8 201.304 237.349   2
   2  -1   8 566.015 287.061   9
   2   1   8 438.846 317.505   9
   2  -1   8 447.961 338.228   2
  -2  -1  -8 318.080 322.688   6
  -2   1  -8 134.916 348.312   6
  -2   1  -9 874.918 436.573   6
   2  -1   9 1313.19 383.660   9
   2  -1   9 1180.55 453.660   2
   2   1   9 937.402 407.123   9
   2   1   9 602.156 361.210   2
  -2  -1  -9 968.936 486.845   6
  -2   1 -10 209.286 378.536   6
   2   1  10-409.078 351.856   2
   2  -1  10 78.5935 275.243   2
  -2  -1 -10 528.388 431.500   6
   2   1  10 334.869 314.782   9
   2   1  10 7.48903 386.019  10
   2  -1  10 756.222 442.687   9
   2   1  11 14869.2 1580.24  10
   2  -1  11 16200.6 1488.13   9
   2   1  11 17210.5 1534.56   9
   2  -1  11 17717.5 1668.04  10
   2  -1  11 14827.1 1566.70   2
   2   1  11 14883.9 1592.48   2
  -2   1 -11 17727.8 1766.40   6
  -2  -1 -11 17226.9 1754.98   6
  -2  -1 -12 1005.23 482.048   6
   2   1  12 2270.27 711.114  10
   2  -1  12 2806.44 774.957  10
  -2   1 -12 1987.90 709.887   6
   2   1  12 1929.05 708.598   2
   2  -1  12 2307.55 692.176   2
   2  -1  13 11179.0 1522.93  10
  -2   1 -13 9185.72 1418.90   6
  -2  -1 -13 9750.11 1473.15   6
   2  -1  13 7001.98 1203.08   2
   2   1  13 8015.57 1362.04   2
  -2   2  14 1517.12 675.612   9
  -2  -2  14 1489.75 626.779   9
   2   2 -13 5294.70 1015.99   3
  -2   2  13 6036.99 1160.07   9
   2  -2 -13 5599.23 1105.66   3
  -2  -2  13 5316.23 1041.91   9
   2  -2 -13 5618.75 1031.40   6
   2  -2 -12 1283.57 492.552   6
  -2   2  12 837.340 487.725   9
   2  -2 -12 1091.06 521.275   3
  -2  -2  12 1311.53 538.146   9
   2   2 -12 1274.45 544.182   3
   2   2 -12 729.017 404.261   6
   2  -2 -11 1813.50 591.039   3
   2  -2 -11 1740.10 549.069   6
  -2   2  11 2475.92 665.920   9
   2   2 -11 2727.78 636.259   6
  -2  -2  11 1523.85 562.667   9
  -2  -2  11 2247.77 558.932   2
   2   2 -11 1579.54 524.307   3
  -2  -2  10 1272.51 519.494   9
   2   2 -10 1390.40 505.226   3
  -2   2  10 1640.81 551.338   9
   2  -2 -10 1206.58 471.503   3
   2  -2 -10 1346.06 477.302   6
  -2  -2  10 1143.30 392.231   2
   2   2 -10 1215.84 445.290   6
  -2   2   9 58.3577 343.652   9
   2  -2  -9 281.578 302.564   3
   2   2  -9-104.190 283.372   6
   2   2  -9 372.914 389.780   3
  -2  -2   9 356.643 226.764   2
   2  -2  -9 644.512 386.184   6
  -2  -2   9 48.5979 254.774   9
   2   2  -8 1929.49 443.538   6
  -2   2   8 1372.38 475.975   9
  -2  -2   8 2206.92 527.771   9
  -2  -2   8 1715.90 409.814   2
   2  -2  -8 1530.61 443.796   3
  -2  -2   8 1521.09 268.749   4
   2  -2  -8 816.066 371.229   6
   2   2  -8 2069.18 501.892   3
  -2   2   7 912.469 410.173   9
   2   2  -7 558.762 283.428   6
  -2  -2   7 372.518 82.5139   8
  -2  -2   7 629.982 240.545   2
  -2  -2   7 969.678 380.323   9
   2  -2  -7 899.599 341.633   7
   2  -2  -7 468.698 254.614   3
   2   2  -7 1221.53 354.922   3
   2  -2  -7 652.604 291.776   6
  -2  -2   7 624.372 183.679   4
   2  -2  -6 12611.5 993.626   3
   2   2  -6 12823.8 860.425   6
  -2   2   6 13444.8 1097.14   9
  -2  -2   6 13115.7 573.232   8
   2   2  -6 13652.8 1085.79   5
   2   2  -6 12038.1 962.075   3
  -2  -2   6 15545.2 890.236   2
   2  -2  -6 13870.8 966.221   7
  -2  -2   6 13664.6 591.976   7
  -2  -2   6 11786.6 1005.38   9
  -2  -2   6 13200.5 757.477   4
   2  -2  -6 12782.7 970.949   6
  -2   2   5 6173.96 685.930   9
  -2  -2   5 6793.91 523.661   4
  -2  -2   5 5724.66 652.032   9
   2   2  -5 5004.03 568.649   3
  -2  -2   5 6010.33 296.744   7
   2   2  -5 5113.45 606.386   5
   2  -2  -5 5431.92 577.364   7
   2  -2  -5 5322.72 285.404   4
   2  -2  -5 5809.59 279.258   4
  -2  -2   5 5995.65 483.039   2
   2   2  -5 5597.48 508.665   6
  -2   2   5 5627.93 434.781   8
   2  -2  -5 5577.64 614.329   3
  -2  -2   4 5418.64 390.763   2
   2  -2  -4 4789.27 510.181   7
  -2   2   4 4905.50 416.774   8
   2   2  -4 4586.08 530.004   5
  -2   2   4 4893.19 565.852   9
   2  -2  -4 4956.98 521.228   3
   2   2  -4 4551.56 516.435   3
  -2   2   4 5187.24 580.372   1
  -2  -2   4 5435.00 473.941   4
   2   2  -4 4562.99 396.802   6
  -2   2   3 112797. 2945.02   1
   2   2  -3 107685. 2818.95   5
  -2  -2   3 117796. 2415.50   6
  -2   2   3 107238. 2920.58   9
   2  -2  -3 110238. 2720.05   3
  -2   2   3 108201. 2604.83   8
   2   2  -3 107924. 2382.89   6
  -2  -2   3 119212. 2202.76   2
   2  -2  -3 108294. 2798.67   7
  -2  -2   3 105555. 2649.21   4
   2   2  -3 108021. 2781.73   3
   2  -2  -2 6317.14 445.239   3
  -2   2   2 7127.45 515.159   8
   2   2  -2 6617.68 511.214   3
   2  -2  -2 5342.35 487.921   7
   2   2  -2 6656.04 509.012   5
  -2   2   2 5879.89 523.470   1
  -2   2   2 6388.90 534.125   9
  -2  -2   2 6342.92 500.413   4
  -2  -2   2 6757.40 358.661   6
  -2   2   1 57304.9 1710.87   8
   2   2  -1 65172.3 1416.43   7
  -2   2   1 64828.7 1558.18  10
   2   2  -1 56587.4 1608.86  10
   2  -2  -1 58243.4 1446.94   3
   2  -2  -1 59042.9 1765.29   7
  -2   2   1 59500.6 1683.93   9
  -2  -2   1 60225.3 1737.25   4
   2   2  -1 57411.9 1628.84   5
  -2   2   0 3268.21 364.375   8
   2  -2   0 3783.54 308.951   5
  -2   2   0 3242.44 290.099   5
  -2  -2   0 3226.48 376.451   4
  -2   2   0 4049.58 287.392  10
  -2  -2   0 3996.81 270.106   2
   2   2   0 3549.58 265.894   2
   2   2   0 2942.30 319.021   5
   2  -2   0 3258.31 274.240  10
   2   2   0 2631.97 298.338  10
   2  -2   0 3590.00 391.106   7
   2   2   1 191556. 3808.24   2
   2  -2   1 185713. 3670.66  10
  -2   2  -1 188068. 3997.67   8
  -2  -2  -1 184124. 3979.07   4
   2   2   1 193017. 3931.48  10
  -2   2  -1 190322. 3766.00   5
  -2   2  -1 189024. 4066.20   6
   2   2   2 8397.04 597.473  10
   2  -2   2 6675.03 468.328  10
  -2   2  -2 8371.14 575.438   8
  -2   2  -2 7735.81 620.855   6
  -2  -2  -2 7702.10 554.939   4
  -2   2  -2 6944.24 520.235   5
   2   2   2 7580.53 569.809   2
  -2  -2  -2 8103.02 618.912   6
   2   2   3 3114.80 409.031  10
  -2  -2  -3 3878.54 503.986   6
  -2   2  -3 3538.98 395.358   8
  -2   2  -3 2825.25 384.930   5
  -2   2  -3 3419.32 470.240   6
   2   2   3 3197.15 348.375   9
   2   2   3 3648.69 450.151   2
   2  -2   3 3162.11 366.871  10
  -2  -2  -3 2676.17 344.658   4
  -2  -2  -4 959.065 225.995   4
   2   2   4 1024.67 273.792  10
  -2   2  -4 1389.72 268.907   8
  -2   2  -4 1074.86 290.723   5
  -2   2  -4 1133.85 329.559   6
   2   2   4 1015.77 314.372   2
  -2  -2  -4 1277.97 352.336   6
   2   2   4 536.227 220.820   9
   2  -2   4 871.676 235.211  10
   2  -2   5 23422.7 1179.07   9
  -2   2  -5 25088.0 1065.94   8
   2  -2   5 24073.9 1351.33   2
  -2  -2  -5 25607.6 1107.77   4
   2   2   5 23277.9 1320.21  10
   2   2   5 24160.8 1403.61   2
   2   2   5 23927.4 1201.38   9
  -2   2  -5 24417.5 1442.70   6
  -2  -2  -5 24121.8 1448.31   6
   2   2   6 9742.46 914.459  10
   2  -2   6 9336.05 888.032   2
   2   2   6 9740.48 830.153   9
  -2  -2  -6 11145.1 1059.20   6
  -2   2  -6 10335.5 651.185   8
   2   2   6 9959.84 962.018   2
   2  -2   6 10208.8 832.203   9
  -2   2  -6 10696.4 1006.49   6
   2   2   7 82781.0 2824.46   9
   2  -2   7 77101.5 2956.74   2
  -2   2  -7 83311.9 2132.68   8
   2   2   7 72406.6 2974.69   2
   2  -2   7 81390.6 2792.58   9
  -2  -2  -7 74952.2 3099.09   6
  -2   2  -7 75727.6 3083.97   6
  -2   2  -8 2205.50 581.034   6
   2   2   8 3537.87 688.157   2
  -2  -2  -8 2765.28 616.205   6
   2  -2   8 1693.32 460.673   2
   2  -2   8 2382.40 498.411   9
   2   2   8 2130.53 476.142   9
   2   2   9 76767.7 3019.59   9
   2   2   9 67129.4 3083.55  10
  -2   2  -9 64769.8 3146.95   6
   2   2   9 64039.3 3092.06   2
   2  -2   9 69656.4 2877.91   9
   2  -2   9 62778.6 2958.80   2
  -2  -2  -9 68911.2 3255.87   6
  -2   2 -10 725.202 526.672   6
   2  -2  10-200.479 277.645   9
   2   2  10 92.9981 270.497  10
   2   2  10 445.467 311.273   9
   2  -2  10 377.357 320.434   2
  -2  -2 -10 686.051 429.243   6
   2   2  10 364.969 296.383   2
   2  -2  11 6676.44 1033.79   2
   2   2  11 4885.74 924.847  10
   2   2  11 5104.71 988.639   2
  -2  -2 -11 6320.27 1114.34   6
   2  -2  11 4694.08 871.166  10
  -2   2 -11 5940.16 1038.24   6
   2  -2  11 6854.11 988.794   9
   2   2  11 5521.76 905.705   9
   2  -2  12 1466.76 586.188  10
   2   2  12 2236.88 699.339  10
  -2  -2 -12 2719.06 801.921   6
   2  -2  12 3073.53 807.748   2
  -2   2 -12 1265.35 588.468   6
   2   2  12 3390.53 889.869   2
  -2  -2 -13 405.020 414.363   6
   2  -2  13 8.92879 247.979  10
  -2   2 -13-190.378 474.629   6
   2  -2  13-15.1267 368.576   2
   2  -3 -14 10064.3 1445.74   6
   2  -3 -13 483.161 433.208   6
  -2   3  13 1902.69 708.341   9
  -2  -3  13 591.242 507.723   9
  -2  -3  12 2341.92 688.773   9
  -2   3  12 1269.85 619.462   9
   2  -3 -12 742.470 527.412   3
   2  -3 -12 1145.91 557.938   6
   2   3 -12 1384.16 566.510   3
  -2   3  11 2886.17 755.716   9
   2  -3 -11 2941.69 711.112   6
   2   3 -11 2666.50 599.209   6
  -2  -3  11 1183.07 599.031   9
   2  -3 -11 2286.26 673.323   3
   2   3 -11 3912.01 805.216   3
   2  -3 -10 20775.6 1722.78   3
  -2  -3  10 21113.2 1808.71   9
  -2   3  10 25166.8 1957.82   9
  -2  -3  10 24738.1 1587.90   2
   2  -3 -10 23943.8 1811.30   6
   2   3 -10 20326.1 1657.86   3
   2   3 -10 22742.9 1614.06   6
  -2  -3   9 1258.93 374.768   2
   2   3  -9 955.992 411.036   3
   2   3  -9 1658.30 472.740   6
  -2   3   9 1541.35 500.738   9
   2  -3  -9 2230.65 579.178   3
   2  -3  -9 1373.50 491.171   6
  -2  -3   9 1873.40 548.757   9
   2  -3  -8 17981.8 1393.85   6
  -2   3   8 18222.7 1499.81   9
  -2  -3   8 18346.7 1048.94   4
   2   3  -8 19289.0 1408.29   3
   2   3  -8 19650.3 1296.53   6
  -2  -3   8 16545.2 1400.64   9
  -2  -3   8 19013.0 1183.30   2
   2  -3  -8 18487.2 1361.92   7
   2  -3  -8 16669.9 1345.67   3
  -2  -3   7 6995.11 869.528   9
  -2   3   7 4797.68 737.385   9
   2   3  -7 6458.15 834.901   5
   2  -3  -7 6339.90 780.592   3
   2   3  -7 6016.75 749.437   3
   2  -3  -7 5836.60 746.142   7
  -2  -3   7 6284.24 617.069   2
  -2  -3   7 5806.58 587.270   4
   2   3  -7 7280.72 727.263   6
   2  -3  -7 4919.50 689.463   6
   2   3  -6 24797.5 1516.51   5
   2   3  -6 21962.0 1300.80   3
  -2  -3   6 18068.6 553.782   7
   2  -3  -6 24151.0 1390.50   7
  -2  -3   6 21566.6 1029.89   2
  -2   3   6 19754.6 1383.15   9
   2  -3  -6 20432.8 1266.49   3
   2  -3  -6 20110.1 628.188   4
  -2  -3   6 20941.4 1098.25   4
   2   3  -6 22211.4 1171.09   6
  -2  -3   5 12305.2 816.033   4
  -2  -3   5 12959.5 687.248   2
   2   3  -5 10494.2 840.305   3
  -2   3   5 12161.9 998.942   1
   2  -3  -5 11898.6 929.525   7
  -2   3   5 12062.0 752.021   8
   2   3  -5 12965.3 1012.80   5
  -2   3   5 13248.8 1043.39   9
   2  -3  -5 10375.5 833.027   3
   2   3  -5 12258.8 789.560   6
   2  -3  -5 12483.9 573.534   4
  -2  -3   4 81365.8 1850.28   2
  -2   3   4 75985.8 2593.01   9
   2   3  -4 75259.7 2513.86   5
  -2   3   4 78646.6 2629.44   1
  -2   3   4 78942.0 2250.59   8
   2   3  -4 73395.4 2328.36   3
   2  -3  -4 77250.5 2514.23   7
   2  -3  -4 76321.6 2308.40   3
   2   3  -4 79497.0 2165.91   6
  -2  -3   4 77519.4 2314.91   4
  -2  -3   3 3851.02 249.160   2
  -2  -3   3 3867.46 446.605   4
  -2   3   3 3723.88 424.136   8
   2   3  -3 3847.23 479.192   5
   2   3  -3 4425.90 461.060   3
  -2   3   3 4495.89 538.949   9
  -2   3   3 3241.01 467.726   1
   2  -3  -3 3926.31 404.738   3
   2  -3  -3 3609.05 474.242   7
  -2   3   2 81643.6 2338.27   8
   2   3  -2 88238.8 1791.75   7
   2   3  -2 82370.1 2224.84   3
   2   3  -2 83583.5 2389.12   5
   2  -3  -2 82720.6 2011.63   3
  -2   3   2 82815.5 2443.91   9
   2  -3  -2 81512.4 2425.05   7
  -2  -3   2 82367.7 2380.56   4
  -2   3   2 87252.0 2521.00   1
  -2  -3   2 84078.5 1640.92   1
  -2   3   1 1079.29 168.657  10
   2  -3  -1 644.235 213.198   7
  -2  -3   1 954.170 249.976   4
  -2   3   1 1080.82 275.937   8
   2   3  -1 836.169 247.515   5
  -2  -3   1 1261.58 144.277   2
  -2   3   1 1133.93 232.493   5
  -2   3   1 868.362 225.504   9
   2   3  -1 1098.73 213.686  10
   2  -3  -1 1029.04 155.376   3
  -2  -3   0-31.1797 139.504   4
   2  -3   0 194.870 91.4527  10
  -2   3   0 97.9378 78.2816  10
   2   3   0 131.904 129.325  10
  -2   3   0 97.0185 159.034   5
   2   3   0 50.5524 154.079   5
  -2   3   0-82.7625 147.980   8
   2  -3   0 147.365 172.263   7
   2  -3   1 237.430 85.2333  10
   2   3   1 116.295 137.097  10
  -2   3  -1 464.921 122.559  10
  -2   3  -1 151.259 191.267   6
   2  -3   1 311.376 193.475   7
   2   3   1 455.902 211.857   5
  -2   3  -1 311.829 171.887   8
  -2   3  -1 567.011 210.620   5
  -2  -3  -1 119.739 171.177   4
   2   3   2 13393.9 818.265   2
  -2   3  -2 12833.4 810.057   8
  -2  -3  -2 12797.5 791.575   4
   2  -3   2 13499.7 651.443  10
   2   3   2 13579.1 796.334  10
  -2   3  -2 12865.5 793.481   5
  -2   3  -2 13025.5 890.254   6
  -2   3  -3 36341.2 1419.99   8
  -2   3  -3 36195.8 1610.54   6
   2   3   3 35419.0 1506.46   2
   2  -3   3 32190.2 1210.92  10
  -2   3  -3 34561.1 1476.52   5
   2   3   3 34502.2 1443.41  10
  -2  -3  -3 32483.0 1336.01   4
   2   3   3 34415.9 1371.52   9
  -2  -3  -4 28471.3 1530.13   6
  -2   3  -4 30855.0 1509.87   5
   2   3   4 28393.4 1400.45  10
   2  -3   4 26872.2 1203.93  10
  -2  -3  -4 28756.2 1254.78   4
  -2   3  -4 30459.1 1296.76   8
   2   3   4 29961.9 1492.91   2
   2   3   4 31245.7 1360.68   9
  -2   3  -4 27937.5 1497.80   6
   2   3   5 20386.0 1320.50   2
  -2  -3  -5 18849.2 1324.28   6
  -2   3  -5 19096.7 1280.38   5
  -2   3  -5 23601.8 1118.70   8
   2   3   5 21231.0 1204.04   9
  -2  -3  -5 20420.8 1044.47   4
  -2   3  -5 23310.1 1441.37   6
   2  -3   5 21562.2 1157.31  10
   2   3   5 20091.0 1247.73  10
  -2   3  -6 86140.7 2403.80   8
   2  -3   6 82380.3 2918.40   2
   2   3   6 78734.7 3003.47   2
  -2  -3  -6 83472.4 2397.42   4
   2   3   6 76809.8 2866.57  10
  -2  -3  -6 83512.6 3168.50   6
  -2   3  -6 80288.7 3020.63   5
   2   3   6 85897.8 2805.49   9
  -2   3  -6 82480.8 3101.73   6
   2  -3   7 2213.48 516.069   2
   2   3   7 1852.70 492.594  10
   2   3   7 1670.93 446.870   9
   2  -3   7 1885.69 462.719   9
  -2   3  -7 2870.12 380.627   8
   2   3   7 1993.94 500.010   2
  -2   3  -7 2442.57 611.292   6
  -2  -3  -7 1768.86 508.524   6
  -2  -3  -8 2021.70 638.371   6
   2  -3   8 1586.06 447.523   2
  -2   3  -8 1341.26 482.521   6
   2   3   8 1256.42 467.518  10
   2  -3   8 1581.92 434.413   9
   2   3   8 2189.69 527.206   9
   2   3   8 1326.64 441.670   2
  -2  -3  -9 447.711 319.535   6
   2  -3   9 15.3665 249.612   2
   2   3   9 677.947 403.764   9
   2  -3   9 761.253 460.215   9
   2   3   9 483.946 306.091  10
  -2   3  -9 452.817 352.280   6
   2   3   9 250.077 375.157   2
   2   3  10 11830.1 1333.68  10
   2  -3  10 11970.9 1231.23   9
   2   3  10 13027.4 1286.93   9
   2  -3  10 10929.0 1229.96  10
   2  -3  10 11537.7 1296.78   2
  -2   3 -10 12504.4 1425.92   6
   2   3  10 10410.0 1303.53   2
  -2  -3 -10 13810.3 1538.20   6
  -2   3 -11 8387.46 1235.28   6
  -2  -3 -11 10014.2 1436.61   6
   2  -3  11 7416.82 1044.32   9
   2   3  11 7286.06 1133.66  10
   2  -3  11 7755.34 1079.07  10
   2   3  11 7634.98 1178.52   2
   2  -3  11 7962.11 1143.97   2
   2  -3  12 2498.41 700.030  10
  -2  -3 -12 1695.00 751.912   6
   2   3  12 2654.70 792.745  10
   2  -3  12 2101.12 615.604   2
  -2   3 -12 2237.12 747.136   6
   2  -3  13 8909.96 1342.82  10
   2  -3  13 8445.06 1303.23   2
  -2   3 -13 9613.42 1445.19   6
  -2  -4  13 6629.02 1231.18   9
   2   4 -13 6366.04 1112.21   3
   2  -4 -13 4942.22 1056.33   6
  -2   4  13 5138.25 1080.33   1
  -2   4  13 7829.58 1365.99   9
  -2   4  12 3632.74 849.018   1
   2  -4 -12 6811.39 1116.98   6
  -2   4  12 5459.98 1093.39   9
  -2  -4  12 5854.22 1095.12   9
   2   4 -12 4928.94 920.599   3
  -2   4  11 13628.0 1571.02   9
  -2  -4  11 13064.9 1551.38   9
   2  -4 -11 13993.6 1506.76   3
  -2   4  11 12383.4 1476.73   1
   2  -4 -11 12250.1 1438.56   6
   2   4 -11 12507.2 1376.54   3
  -2  -4  10 23661.4 1926.40   9
   2  -4 -10 20011.1 1689.93   3
  -2   4  10 18061.4 1717.88   1
   2   4 -10 19512.3 1609.14   3
  -2   4  10 18193.7 1719.22   9
   2   4 -10 23720.2 1689.02   6
   2  -4 -10 20489.5 1746.60   6
  -2  -4   9 20.9204 195.062   2
   2  -4  -9 583.718 419.520   3
  -2  -4   9-31.7451 244.273   9
   2   4  -9 419.972 334.860   6
   2  -4  -9-123.769 275.541   6
   2   4  -9 132.696 319.427   3
  -2   4   9 514.090 437.747   1
  -2   4   9 951.442 532.223   9
  -2   4   8 41656.2 2384.13   1
   2  -4  -8 45673.5 2354.35   7
  -2  -4   8 47605.4 2519.71   9
   2   4  -8 50948.1 2631.11   5
  -2  -4   8 46027.9 1944.20   4
  -2  -4   8 48543.8 1943.36   2
  -2   4   8 47216.9 2545.47   9
   2  -4  -8 44644.0 2356.14   6
   2   4  -8 45994.4 2123.40   6
   2   4  -8 43095.1 2202.42   3
   2  -4  -8 45715.9 2302.76   3
  -2  -4   7 480.438 212.665   4
   2  -4  -7 1098.56 438.366   3
  -2   4   7 699.859 379.481   9
   2   4  -7 398.075 328.417   5
   2   4  -7 586.499 290.455   6
  -2  -4   7 1081.44 273.054   2
   2  -4  -7 359.112 254.500   7
  -2   4   7 376.119 340.806   1
   2   4  -7 777.741 319.286   3
  -2  -4   6 106408. 2676.12   2
  -2   4   6 97226.7 3482.49   9
   2  -4  -6 100657. 3191.78   3
   2   4  -6 97221.5 3456.09   5
  -2   4   6 97424.0 3490.03   1
   2   4  -6 99031.6 3132.72   3
   2  -4  -6 96937.3 3338.77   7
   2   4  -6 101114. 3024.00   6
  -2  -4   6 102581. 3067.95   4
   2  -4  -6 99213.7 2362.52   4
   2   4  -5 45213.5 2100.94   5
   2  -4  -5 48581.2 1902.11   3
   2  -4  -5 49352.9 1535.76   4
   2   4  -5 47955.7 1906.02   3
  -2   4   5 44284.1 2127.83   1
   2  -4  -5 42637.3 2014.24   7
  -2   4   5 48825.2 2205.31   9
  -2  -4   5 48717.8 1929.21   4
  -2  -4   5 50545.3 1503.66   2
   2   4  -5 47818.2 1812.97   6
  -2  -4   4 1175.30 311.518   4
  -2   4   4 1766.66 440.187   1
  -2   4   4 2136.42 377.066   8
  -2  -4   4 1147.34 105.344   7
   2  -4  -4 929.750 214.452   4
   2   4  -4 1771.12 417.539   5
   2   4  -4 2064.32 371.581   3
   2  -4  -4 1335.87 362.029   7
   2  -4  -4 1571.44 321.852   3
  -2  -4   4 1811.13 225.660   2
  -2   4   4 1915.05 414.061   9
   2  -4  -3 33042.1 1236.27   3
  -2  -4   3 36470.2 1581.42   4
  -2   4   3 34754.2 1516.46   8
  -2   4   3 35293.3 1637.56   9
   2   4  -3 33509.3 1344.95   3
  -2   4   3 35074.5 1656.79   1
  -2  -4   3 34111.8 934.275   7
   2  -4  -3 32773.7 1583.94   7
   2   4  -3 32866.4 1562.50   5
  -2  -4   2 3315.17 271.917   1
   2   4  -2 3213.51 459.885   5
  -2   4   2 3485.20 491.602   9
   2   4  -2 3052.48 366.105   3
  -2   4   2 2113.44 390.638   8
  -2  -4   2 2359.82 260.280   7
   2  -4  -2 2937.13 279.586   3
  -2  -4   2 2496.24 410.808   4
   2  -4  -2 3419.21 479.117   7
  -2   4   1 581.427 131.103  10
   2   4  -1 373.578 207.973   5
   2  -4  -1 176.185 201.896   7
   2   4  -1 522.138 161.227  10
  -2   4   1 381.399 200.120   5
  -2  -4   1 501.629 142.888   7
  -2   4   1 718.183 275.859   8
  -2  -4   1 512.077 240.496   4
   2  -4  -1 455.207 97.2593   3
   2   4   0 146906. 3210.39  10
  -2  -4   0 143284. 3371.89   7
  -2   4   0 145901. 3549.08   5
   2   4   0 142955. 3185.39   1
   2   4   0 140703. 3644.39   5
   2  -4   0 140170. 3641.00   7
  -2  -4   0 138860. 3646.48   4
  -2   4   0 146916. 2707.63  10
  -2   4   0 146858. 3725.28   8
  -2   4  -1 8067.25 677.336   5
  -2   4  -1 7802.75 702.987   8
   2   4   1 7693.02 701.015   5
   2  -4   1 7747.19 685.508   7
   2  -4   1 7118.84 371.139  10
   2  -4   1 7519.41 309.767   3
  -2  -4  -1 8080.10 696.271   4
  -2  -4  -1 8364.19 675.746   7
   2   4   1 8451.80 587.160  10
  -2   4  -2 105406. 3001.75   5
  -2   4  -2 115822. 3135.36   8
  -2  -4  -2 106812. 3000.37   4
   2  -4   2 106076. 3016.92   7
   2  -4   2 104306. 2373.85  10
  -2   4  -2 110484. 3228.76   6
   2  -4   2 113338. 2340.51   3
   2   4   2 107602. 2818.24  10
  -2   4  -3 77131.9 2548.61   5
  -2   4  -3 79261.9 2478.46   8
   2   4   3 76444.2 2384.55  10
   2  -4   3 73407.1 2428.30   7
  -2  -4  -3 74330.6 2375.80   4
   2  -4   3 76283.3 2034.58  10
  -2   4  -3 76432.0 2687.68   6
   2  -4   4 10309.0 699.805  10
   2   4   4 11301.6 879.077   9
  -2   4  -4 11730.0 860.863   8
  -2   4  -4 9434.68 869.348   5
  -2  -4  -4 10159.7 787.470   4
   2   4   4 9101.38 796.077  10
  -2   4  -4 11833.5 1008.00   6
   2   4   5 203.407 263.218   2
  -2  -4  -5 414.891 315.268   6
   2  -4   5 112.887 233.289  10
   2   4   5 259.744 249.583   9
  -2  -4  -5 171.474 203.669   4
   2   4   5-153.612 206.020  10
  -2   4  -5 251.039 234.015   5
  -2   4  -5 767.829 324.430   6
  -2   4  -5 287.956 254.157   8
  -2  -4  -6 14466.8 1305.52   6
   2   4   6 16024.2 1175.91   9
   2   4   6 14186.1 1161.89  10
  -2   4  -6 14254.1 1220.48   5
   2  -4   6 14917.8 1038.88  10
  -2  -4  -6 16657.7 999.000   4
  -2   4  -6 16110.8 1010.98   8
   2  -4   6 14461.0 1156.42   2
   2   4   6 13245.2 1198.45   2
  -2   4  -6 15079.9 1286.67   6
  -2  -4  -7 4067.82 754.863   6
   2  -4   7 3624.86 569.933  10
   2   4   7 4115.40 659.577   9
  -2   4  -7 3304.77 457.542   8
   2   4   7 3334.79 668.958   2
   2   4   7 3654.27 647.735  10
  -2   4  -7 4070.86 717.868   5
  -2   4  -7 3285.39 655.225   6
   2  -4   7 3682.36 627.700   2
   2  -4   8 23060.9 1579.75   9
   2  -4   8 21897.2 1494.00  10
   2   4   8 22867.6 1579.25   9
  -2  -4  -8 19633.3 1697.50   6
   2   4   8 20968.3 1681.25   2
   2  -4   8 21651.6 1582.55   2
  -2   4  -8 22853.8 1757.09   6
   2   4   8 18951.9 1541.12  10
  -2  -4  -9 189.885 442.213   6
  -2   4  -9 1016.21 475.318   6
   2   4   9 967.935 416.438   9
   2  -4   9 59.5630 203.215  10
   2  -4   9 1370.80 481.204   9
   2  -4   9 182.298 281.615   2
   2   4   9 250.745 321.910  10
   2  -4   9 627.293 358.073   4
   2  -4  10 841.819 446.242   2
   2  -4  10 541.408 371.160  10
   2  -4  10 1193.15 470.929   9
   2   4  10 993.234 435.356  10
  -2  -4 -10 788.138 548.879   6
  -2   4 -10 422.364 378.193   6
   2   4  10 201.047 226.907   9
   2   4  11 2849.60 754.246  10
   2  -4  11 4175.00 837.516   2
  -2   4 -11 4616.66 968.258   6
  -2  -4 -11 4029.61 947.740   6
   2  -4  11 5763.91 954.298  10
  -2  -4 -12 3847.75 977.394   6
   2  -4  12 3984.37 874.795  10
  -2   4 -12 5147.76 1040.40   6
   2  -4  12 4017.12 918.083   2
   2   4  12 4991.12 975.574  10
   2  -4  13 42.2920 315.024  10
   2  -4  13 1315.80 545.533   2
   2  -5 -13 460.527 547.102   6
  -2  -5  13 1387.50 625.220   9
   2   5 -13 188.806 390.176   3
  -2  -5  12 13953.8 1719.05   9
   2  -5 -12 12544.6 1572.42   6
   2   5 -12 15004.9 1590.95   3
  -2   5  12 14657.2 1739.83   9
  -2   5  12 12707.2 1624.56   1
  -2  -5  11 2976.85 865.481   9
   2   5 -11 4729.51 874.198   3
  -2   5  11 4017.05 932.213   9
   2  -5 -11 3274.31 814.485   6
  -2   5  11 4419.48 983.747   1
  -2   5  10 1626.53 580.771   1
  -2   5  10 2735.23 785.260   9
   2   5 -10 1225.38 462.441   3
  -2  -5  10 1434.24 534.940   9
   2   5 -10 2050.18 521.915   6
   2  -5 -10 1055.32 456.240   3
   2  -5 -10 1647.73 664.650   6
   2  -5  -9 25978.8 1960.65   6
  -2   5   9 26908.5 2069.93   9
  -2  -5   9 27777.3 2085.96   9
   2   5  -9 27144.4 1812.81   3
   2   5  -9 29954.3 2180.44   5
   2   5  -9 29641.0 1840.29   6
   2  -5  -9 29501.0 1953.70   3
  -2  -5   9 29166.1 1683.47   4
   2  -5  -9 28315.6 2014.52   7
  -2   5   9 28392.0 2122.47   1
   2   5  -8 2422.17 507.160   6
   2  -5  -8 1708.74 537.938   3
   2   5  -8 1484.77 421.110   3
   2  -5  -8 2393.57 623.861   7
  -2   5   8 1132.34 498.394   9
  -2   5   8 2094.85 571.207   1
  -2  -5   8 2271.03 470.918   4
   2   5  -8 2744.35 668.115   5
   2  -5  -7 25992.4 1607.02   3
  -2   5   7 30255.2 1973.83   9
   2   5  -7 28405.4 1626.98   3
  -2   5   7 29158.6 1960.61   1
   2   5  -7 27745.7 1899.84   5
  -2  -5   7 30264.5 1664.83   4
  -2  -5   7 28531.3 1318.65   2
   2  -5  -7 26170.0 1769.13   7
   2   5  -7 31390.6 1695.15   6
  -2   5   6 9652.29 1067.26   1
  -2  -5   6 9904.53 681.849   2
  -2   5   6 10474.4 1107.97   9
   2   5  -6 10249.7 892.897   3
  -2  -5   6 9983.76 926.032   4
   2  -5  -6 9370.69 1012.70   7
   2   5  -6 9405.49 1035.72   5
   2  -5  -6 9592.23 675.401   4
   2  -5  -6 10181.9 914.227   3
  -2  -5   5 20215.1 893.499   2
   2   5  -5 17345.1 1103.60   3
  -2  -5   5 17828.4 552.645   7
  -2   5   5 19012.7 1406.94   9
   2   5  -5 17330.9 1331.17   5
   2  -5  -5 19503.4 1155.68   3
   2  -5  -5 17342.1 1318.61   7
  -2  -5   5 18096.5 1229.42   4
  -2   5   5 16506.3 1315.01   1
   2  -5  -5 17728.1 982.108   4
  -2   5   4 69083.9 2696.75   9
  -2   5   4 67025.9 2675.14   1
   2   5  -4 65669.0 2597.14   5
  -2  -5   4 68194.8 1610.83   7
   2   5  -4 72258.5 2274.57   3
   2  -5  -4 67264.5 2119.94   3
   2  -5  -4 63241.9 2587.60   7
  -2  -5   4 65825.7 2482.46   4
   2  -5  -4 71916.9 2237.41   4
   2   5  -3 1460.59 288.429   3
  -2  -5   3 1141.34 331.806   4
  -2   5   3 880.605 320.439   1
   2  -5  -3 699.529 350.608   7
   2   5  -3 982.194 361.880   5
  -2   5   3 543.146 300.416   8
   2  -5  -3 723.670 198.464   3
  -2  -5   3 898.687 182.118   7
  -2   5   3 1242.84 378.403   9
  -2   5   2 5717.18 659.223   5
  -2   5   2 5551.93 658.339   8
  -2  -5   2 5994.84 683.227   4
   2   5  -2 5016.16 636.469   5
   2   5  -2 6436.45 540.825   3
  -2  -5   2 5484.85 453.880   7
   2  -5  -2 5542.65 673.838   7
   2  -5  -2 5716.66 378.435   3
   2  -5  -1 38739.5 1778.22   7
   2   5  -1 43240.5 1850.54   5
   2   5  -1 42991.8 1373.61  10
  -2   5   1 39117.2 1025.57  10
  -2  -5   1 41473.6 1496.77   7
  -2   5   1 39537.2 1798.07   8
  -2  -5   1 41837.0 1839.93   4
  -2   5   1 43984.1 1829.78   5
  -2   5   0 5795.30 671.402   8
  -2   5   0 6179.11 659.111   5
   2   5   0 6505.82 494.975  10
   2   5   0 5253.23 492.390   1
   2  -5   0 5048.91 619.374   7
  -2  -5   0 6658.85 702.586   4
  -2  -5   0 5468.52 550.696   7
   2   5   0 5309.33 632.119   5
   2   5   1 46629.2 1744.95   1
  -2   5  -1 49353.5 1962.53   5
  -2   5  -1 46874.0 1990.95   8
  -2  -5  -1 46426.9 1938.56   4
   2  -5   1 47094.4 1928.74   7
  -2  -5  -1 48318.8 1870.56   7
   2   5   1 45646.1 1545.07  10
   2   5   1 46086.1 1988.64   5
  -2  -5  -2 4246.84 550.900   4
   2  -5   2 3912.35 288.647  10
  -2  -5  -2 4480.72 575.702   7
  -2   5  -2 3737.97 552.821   8
  -2   5  -2 4120.71 577.323   5
   2   5   2 3958.41 598.905   5
   2  -5   2 4159.12 564.310   7
   2   5   2 5098.54 519.836  10
   2  -5   2 3792.82 251.512   3
   2   5   3 73394.8 2350.87  10
  -2   5  -3 70431.2 2520.90   8
  -2   5  -3 70217.6 2575.93   5
  -2   5  -3 71792.3 2749.99   6
   2  -5   3 74949.6 2536.94   7
  -2  -5  -3 68722.5 2446.56   4
   2  -5   3 70726.2 1860.25  10
  -2   5  -4 37181.6 1888.25   5
  -2  -5  -4 37591.6 1695.06   4
  -2   5  -4 35999.2 1945.44   6
  -2   5  -4 36892.3 1730.20   8
   2   5   4 36359.6 1687.12  10
   2  -5   4 37331.9 1394.47  10
   2  -5   4 37223.6 1740.93   7
  -2   5  -5 24746.6 1600.47   5
   2   5   5 22625.6 1405.55  10
   2  -5   5 23208.4 1191.92  10
  -2   5  -5 24267.8 1374.08   8
   2  -5   5 23395.3 1386.97   7
  -2  -5  -5 24536.4 1344.63   4
  -2   5  -5 22452.7 1577.78   6
  -2  -5  -6 1771.37 386.705   4
  -2   5  -6 2690.06 603.665   6
   2   5   6 3098.69 582.163   9
  -2  -5  -6 1722.34 548.291   6
  -2   5  -6 2381.34 441.621   8
   2  -5   6 3422.99 505.924  10
  -2   5  -6 2556.07 596.886   5
   2  -5   6 2875.11 521.680   7
   2   5   6 2221.16 499.040  10
  -2   5  -7 148.586 293.729   6
   2   5   7 476.835 309.376   9
  -2   5  -7 578.032 360.653   5
   2   5   7 173.932 210.241  10
   2  -5   7-15.4645 192.697  10
   2  -5   7 594.523 310.138   2
  -2  -5  -7 545.639 435.171   6
  -2   5  -8 231.043 362.383   6
   2  -5   8 29.2929 214.875  10
   2   5   8 344.055 329.009   9
  -2   5  -8 147.611 273.596   5
  -2  -5  -8-97.3450 303.065   6
   2   5   8-159.018 243.755  10
   2  -5   8 807.263 428.896   9
   2  -5   8 111.263 263.237   2
  -2   5  -9 3285.06 770.193   6
   2   5   9 2114.54 615.915  10
   2  -5   9 1452.44 473.281   4
   2  -5   9 1883.41 489.276  10
   2  -5   9 2944.99 633.284   9
  -2  -5  -9 2754.88 734.183   6
   2  -5   9 1904.43 542.147   2
   2   5   9 2554.66 622.139   9
  -2  -5 -10 3811.71 942.875   6
   2   5  10 4194.66 825.154  10
   2  -5  10 3555.27 705.151  10
   2  -5  10 3431.00 729.326   2
   2  -5  10 4260.65 795.761   9
   2   5  10 5315.21 896.261   9
  -2   5 -10 3899.18 863.197   6
   2   5  11 13162.0 1579.04  10
   2  -5  11 12621.0 1380.80  10
  -2  -5 -11 12508.3 1604.82   6
   2  -5  11 13434.2 1486.67   2
  -2   5 -11 14027.2 1650.06   6
  -2   5 -12 407.642 466.212   6
   2   5  12 1381.77 607.903  10
   2  -5  12 325.332 332.746  10
   2  -5  12 505.461 405.053   2
  -2  -6  12-1.63055 413.510   9
   2  -6 -12 1834.40 686.342   6
   2   6 -12 1344.87 555.680   3
  -2   6  12 2356.77 740.323   9
  -2   6  12-288.116 445.342   1
   2  -6 -11-60.6715 376.008   6
  -2  -6  11 629.206 333.752   9
   2   6 -11 1682.23 650.058   3
  -2   6  11 831.337 575.578   1
  -2   6  11 1633.05 656.983   9
   2  -6 -10 2191.77 684.067   6
  -2  -6  10 1786.06 632.794   9
   2   6 -10 854.705 403.281   3
   2   6 -10 1895.33 720.224   5
  -2   6  10 805.646 414.935   9
  -2   6  10 1895.82 707.029   1
  -2  -6   9-32.5207 228.485   4
   2   6  -9 227.300 284.521   3
  -2   6   9 287.834 431.864   9
  -2  -6   9 360.907 416.652   9
  -2   6   9-359.723 426.507   1
   2  -6  -9-370.917 327.086   7
   2   6  -9-785.433 442.433   5
   2   6  -9-271.284 295.112   6
   2  -6  -9 286.387 347.337   6
  -2  -6   8 2054.41 491.290   4
  -2   6   8 807.605 416.386   9
   2   6  -8 1429.21 532.262   5
  -2   6   8 1853.05 641.806   1
   2  -6  -8 1118.27 521.629   7
   2   6  -8 1757.19 437.532   3
  -2   6   7 11166.9 1264.90   9
   2   6  -7 11598.8 1030.53   3
  -2   6   7 12397.4 1323.81   1
  -2  -6   7 13687.2 1200.84   4
   2  -6  -7 10389.4 1161.18   7
   2   6  -7 12717.3 1342.58   5
   2  -6  -6 400.296 323.530   7
   2   6  -6 155.463 311.522   5
  -2  -6   6 448.047 294.759   4
  -2   6   6 403.005 304.422   9
  -2   6   6 162.285 368.081   1
   2  -6  -6 136.488 153.351   4
   2   6  -6 433.237 259.114   3
  -2  -6   5 572.943 303.115   4
   2   6  -5 714.363 242.946   3
  -2   6   5 491.369 326.801   9
  -2   6   5 1037.43 412.818   1
   2   6  -5 726.634 321.945   5
   2  -6  -5 1234.21 316.746   4
   2  -6  -5 665.987 368.163   7
  -2  -6   5 1122.37 224.621   2
   2   6  -4 582.489 259.483   3
  -2   6   4 1344.16 421.434   9
   2  -6  -4 1015.55 250.799   4
  -2  -6   4 1011.16 365.970   4
  -2  -6   4 743.270 179.310   7
  -2   6   4 491.496 264.642   1
   2  -6  -4 756.628 367.989   7
   2   6  -4 515.664 286.043   5
  -2  -6   3 39768.0 2001.69   4
  -2   6   3 43393.0 2083.96   5
  -2  -6   3 42707.9 1455.96   7
   2  -6  -3 40482.2 2069.17   7
   2   6  -3 40669.3 1539.69   3
   2   6  -3 42654.9 2101.00   5
   2  -6  -3 43064.8 1874.74   4
   2   6  -2 456.331 262.969   5
  -2  -6   2 261.326 264.044   4
  -2   6   2 413.632 224.560   8
   2  -6  -2 151.806 217.185   4
  -2   6   2 633.847 321.853   5
   2   6  -2 388.441 180.928   3
  -2  -6   2 271.744 173.030   7
   2  -6  -2-160.558 213.713   7
  -2   6   1 11562.4 999.481   5
   2  -6  -1 10741.5 960.393   7
   2   6  -1 11959.4 1030.90   5
  -2   6   1 11176.2 1004.85   8
  -2  -6   1 10675.0 786.600   7
  -2  -6   1 11431.7 1017.34   4
   2   6   0 478.688 173.487  10
  -2  -6   0 153.988 266.450   4
   2   6   0 456.394 275.625   5
  -2   6   0 472.423 249.007   8
  -2   6   0 741.048 330.104   5
  -2  -6   0 521.906 219.086   7
   2  -6   0 497.601 294.532   7
   2   6   1 2558.17 350.331  10
  -2  -6  -1 2967.18 535.813   4
   2  -6   1 2813.63 521.948   7
  -2   6  -1 2393.09 498.841   8
  -2   6  -1 2600.71 495.176   5
   2   6   1 1978.48 369.653   1
   2   6   1 2639.48 515.627   5
  -2  -6  -1 3054.59 494.916   7
   2   6   2 27261.3 1247.13  10
  -2   6  -2 23022.5 1470.34   5
   2   6   2 28337.5 1680.82   5
  -2  -6  -2 26099.0 1522.87   7
  -2   6  -2 26931.1 1575.30   8
  -2  -6  -2 28126.8 1572.61   4
   2   6   2 25208.5 1430.94   1
   2  -6   2 24330.4 1458.28   7
  -2   6  -3 996.793 337.847   5
   2   6   3 1704.77 377.225  10
   2  -6   3 1532.07 202.192  10
  -2  -6  -3 731.880 342.893   7
   2   6   3 1213.03 408.358   5
  -2  -6  -3 2123.02 444.260   4
   2   6   3 1484.43 427.823   1
   2  -6   3 826.403 332.523   7
  -2   6  -3 1326.05 386.814   8
  -2   6  -4 4978.14 737.803   5
   2   6   4 5248.31 630.793  10
   2  -6   4 5123.85 664.120   7
   2  -6   4 4752.93 438.523  10
  -2   6  -4 4812.89 660.559   8
  -2  -6  -4 4488.62 618.434   4
   2   6   5 30743.8 1682.64  10
  -2   6  -5 28038.9 1845.81   5
  -2  -6  -5 29566.2 1610.28   4
   2  -6   5 33745.2 1407.20  10
   2  -6   5 28971.1 1638.10   7
  -2   6  -5 30896.4 1706.02   8
  -2   6  -5 31422.7 1984.52   6
  -2  -6  -6 3976.97 762.600   6
   2  -6   6 3204.98 470.480  10
   2   6   6 2947.76 578.594  10
  -2  -6  -6 3616.10 574.069   4
  -2   6  -6 4751.42 812.742   6
   2  -6   6 3946.93 614.527   7
  -2   6  -6 3809.30 724.045   5
  -2  -6  -7 20581.2 1765.93   6
   2  -6   7 20325.4 1298.58  10
   2   6   7 19826.1 1541.30  10
   2  -6   7 17147.3 1426.65   2
   2  -6   7 21985.0 1464.46   7
  -2   6  -7 18062.7 1635.37   5
  -2   6  -7 20882.1 1742.77   6
   2  -6   7 20838.2 1550.61   4
  -2   6  -8 1141.01 484.432   6
   2   6   8 986.497 463.242   9
  -2   6  -8 292.488 380.890   5
   2  -6   8 1598.22 449.054   4
   2   6   8 646.883 396.251  10
   2  -6   8 298.616 352.097   2
  -2  -6  -8 957.704 411.645   6
   2   6   9 11078.0 1308.48  10
   2  -6   9 12311.3 1328.27   9
   2  -6   9 10587.6 1200.55   2
   2  -6   9 11714.5 1207.44   4
  -2   6  -9 11808.8 1459.82   5
   2   6   9 12995.4 1365.97   9
  -2   6  -9 9985.81 1328.01   6
  -2  -6  -9 11510.5 1509.18   6
   2  -6  10 16990.1 1623.97   2
   2   6  10 16848.4 1708.81  10
  -2   6 -10 17307.8 1806.34   6
   2  -6  10 17583.5 1667.94   9
   2   6  10 17705.9 1684.68   9
  -2  -6 -10 17830.7 1915.49   6
  -2   6 -11 5062.32 1071.69   6
  -2  -6 -11 6341.43 1247.19   6
   2   6  11 5534.28 1077.26  10
  -2  -7  11 3004.99 833.283   9
  -2   7  11 2816.41 880.757   1
  -2   7  11 3443.26 907.824   9
   2  -7 -11 2752.62 823.350   6
  -2   7  10 394.084 451.518   1
  -2  -7  10-278.931 433.006   9
  -2   7  10-313.969 311.930   9
   2  -7 -10 543.877 490.951   6
   2   7 -10 437.446 372.289   5
  -2   7   9 8253.08 1265.90   1
   2   7  -9 12139.6 1508.92   5
   2  -7  -9 10308.2 1342.37   7
  -2  -7   9 9424.36 1123.37   4
  -2   7   9 9488.87 1304.85   9
  -2   7   8 925.708 467.752   9
  -2  -7   8 2366.57 586.720   4
   2   7  -8 1427.45 534.394   5
   2  -7  -8 2280.12 644.555   7
  -2   7   8 1678.98 644.132   1
  -2   7   7 114.094 270.346   9
   2   7  -7 267.413 313.333   5
  -2  -7   7-0.92194 288.695   4
   2  -7  -7 625.220 391.488   7
   2   7  -7 670.914 292.212   3
  -2   7   7 722.226 441.937   1
  -2  -7   6 6609.91 901.088   4
  -2   7   6 8065.83 1077.13   9
   2   7  -6 7338.87 756.815   3
   2   7  -6 7237.07 1039.94   5
  -2   7   6 6888.00 1009.15   1
   2  -7  -6 7146.05 1021.59   7
   2  -7  -6 6838.42 741.871   4
   2   7  -5 232.506 356.877   5
   2  -7  -5 587.795 266.116   4
  -2   7   5 820.416 405.249   1
   2   7  -5 535.568 270.447   3
  -2  -7   5 175.510 312.463   4
   2  -7  -5 873.808 396.396   7
  -2   7   4 36004.7 2080.95   5
   2   7  -4 37692.9 2166.35   5
   2  -7  -4 33177.5 2041.42   7
  -2  -7   4 35077.6 2032.32   4
   2  -7  -4 32923.5 1747.76   4
   2   7  -4 36919.1 1524.85   3
   2   7  -3 665.139 220.337   3
  -2  -7   3 251.197 258.616   4
   2  -7  -3 130.224 311.329   7
   2  -7  -3 114.765 192.527   4
   2   7  -3 311.510 250.501   5
  -2   7   3 27.9193 246.928   5
  -2  -7   3 151.650 149.332   7
   2   7  -2 13177.6 1199.69   5
   2  -7  -2 16046.0 1307.35   7
   2   7  -2 14935.4 852.650   3
  -2  -7   2 15464.8 989.758   7
  -2  -7   2 13571.7 1218.69   4
   2  -7  -2 14375.3 1168.76   4
  -2   7   2 17445.9 1350.32   5
  -2   7   1 9994.08 1051.91   5
   2   7  -1 10151.0 1064.66   5
   2  -7  -1 11113.0 1046.13   4
   2  -7  -1 9574.63 979.537   7
   2   7  -1 9601.72 676.997   3
  -2  -7   1 10050.6 840.504   7
  -2  -7   1 11834.3 1110.85   4
  -2   7   0 89494.6 3272.88   5
   2  -7   0 88839.5 3224.38   7
  -2  -7   0 93831.7 3389.62   4
   2   7   0 95615.9 2357.67  10
   2   7   0 90665.7 3374.24   5
  -2  -7   0 92481.8 3021.96   7
   2  -7   0 90031.0 3299.63   4
   2  -7   1 429.668 293.371   7
   2   7   1 206.130 150.460  10
  -2   7  -1 520.915 304.183   5
   2   7   1-65.8080 262.234   5
  -2  -7  -1 354.885 238.799   7
   2   7   1 181.486 238.275   1
  -2  -7  -1 464.662 312.728   4
  -2   7  -2 1111.47 371.603   5
  -2  -7  -2 1616.78 446.337   7
   2   7   2 883.438 383.533   5
   2  -7   2 1405.12 380.534   7
   2   7   2 1574.93 297.985  10
  -2  -7  -2 1600.24 474.675   4
   2   7   2 1653.64 434.294   1
  -2  -7  -3 807.646 321.836   4
   2   7   3 638.565 363.780   5
  -2   7  -3 734.595 344.993   5
  -2  -7  -3 1250.65 444.628   7
   2  -7   3 1058.46 363.036   7
   2   7   3 653.338 272.405  10
  -2  -7  -4 617.318 328.346   4
   2  -7   4 394.666 245.989   7
  -2   7  -4 241.984 349.308   5
   2   7   4 1110.00 482.251   5
   2   7   4 142.772 181.153  10
   2   7   4 500.126 335.233   1
  -2  -7  -5 5724.03 776.617   4
  -2   7  -5 4110.83 749.395   5
   2  -7   5 5303.84 833.161   4
   2   7   5 3721.13 710.403   1
   2  -7   5 5937.67 763.188   7
   2   7   5 4845.49 687.941  10
  -2   7  -6 33375.4 2204.84   5
  -2  -7  -6 31509.0 1772.45   4
   2  -7   6 30433.9 1776.87   7
   2   7   6 31057.9 2115.40   1
   2   7   6 29101.7 1792.44  10
   2  -7   6 29901.4 1974.20   4
  -2  -7  -7 11312.5 1397.14   6
  -2   7  -7 11801.9 1382.50   5
  -2   7  -7 11521.0 1373.38   6
   2   7   7 10454.7 1159.01  10
   2  -7   7 13050.1 1323.14   4
  -2  -7  -8 40283.3 2746.29   6
  -2   7  -8 43809.7 2786.30   5
   2  -7   8 40792.5 2364.21   2
   2   7   8 37899.6 2356.14  10
  -2   7  -8 41624.8 2709.46   6
   2  -7   8 42688.3 2448.87   4
  -2   7  -9 1402.65 600.700   6
   2  -7   9 555.424 390.832   2
  -2  -7  -9 1748.41 668.205   6
   2   7   9 970.044 438.743  10
   2  -7   9 1327.19 463.112   4
  -2   7  -9 702.729 490.812   5
  -2   7 -10 5915.12 1104.81   6
   2  -7  10 4646.79 907.267   9
  -2  -7 -10 5387.66 1140.76   6
   2   7  10 2162.16 654.192  10
  -2   7 -11 290.378 383.044   6
   2   7  11-425.103 403.963  10
  -2   8  10 6743.99 1230.86   1
   2  -8 -10 4209.28 985.633   6
  -2   8  10 4899.75 1081.87   9
  -2  -8  10 4745.82 1068.30   9
   2   8 -10 7331.95 1315.10   5
   2   8  -9 2707.66 783.236   5
  -2  -8   9 2650.47 676.853   4
  -2   8   9 1343.72 570.529   9
   2  -8  -9 2471.73 726.903   7
  -2   8   9 3291.79 914.954   1
   2   8  -8 24547.0 2140.20   5
  -2   8   8 22124.3 2018.88   1
   2  -8  -8 23472.7 2032.29   7
  -2  -8   8 23982.7 1888.67   4
  -2   8   8 24910.4 2154.45   9
  -2  -8   7 5574.12 913.253   4
   2   8  -7 6069.37 1025.51   5
   2  -8  -7 5297.49 920.831   7
  -2   8   7 3113.25 777.396   1
  -2  -8   6 109.857 327.780   4
  -2   8   6 108.473 271.335   5
   2  -8  -6-138.935 327.378   7
  -2   8   6 692.005 447.474   1
   2   8  -6 328.641 394.148   5
   2   8  -5 45641.9 2629.08   5
  -2   8   5 39436.0 2430.28   5
  -2  -8   5 43272.1 2451.65   4
   2  -8  -5 42034.6 2522.37   7
   2  -8  -5 43419.1 2149.51   4
   2   8  -4 8913.02 1129.89   5
   2  -8  -4 9215.79 1145.34   7
  -2   8   4 8136.41 1067.56   5
  -2  -8   4 10245.1 1153.29   4
   2  -8  -4 9442.52 989.848   4
  -2   8   3 30108.8 1988.69   5
   2  -8  -3 30826.5 1843.16   4
   2   8  -3 30209.4 2008.92   5
  -2  -8   3 29449.7 1455.15   7
   2  -8  -3 30859.9 2035.68   7
  -2  -8   3 31222.2 2025.39   4
  -2   8   2 13611.6 1307.79   5
  -2  -8   2 14296.2 1039.13   7
   2   8  -2 16054.4 1447.81   5
   2  -8  -2 15511.5 1371.38   7
  -2  -8   2 13600.7 1319.46   4
   2  -8  -2 15850.1 1328.30   4
   2   8  -1 14454.8 1361.47   5
  -2  -8   1 12884.9 1047.99   7
   2  -8  -1 13673.3 1265.48   7
  -2   8   1 12667.1 1269.11   5
  -2  -8   1 11922.8 1215.63   4
   2  -8  -1 11153.0 1137.92   4
  -2   8   0 16286.3 1391.68   5
   2   8   0 14826.7 1375.89   5
   2  -8   0 16036.0 1338.70   7
  -2  -8   0 15744.8 1220.12   7
  -2  -8   0 15545.3 1377.49   4
   2  -8   0 16045.4 1384.19   4
  -2  -8  -1 1085.32 407.054   4
  -2   8  -1 1317.87 397.139   5
   2  -8   1 1701.60 503.893   4
  -2  -8  -1 1611.47 465.152   7
   2  -8   1 1564.65 468.140   7
   2   8   1 1531.62 478.703   5
   2  -8   2 3894.91 715.019   4
  -2  -8  -2 4693.15 764.295   4
   2   8   2 5755.47 768.755   1
   2  -8   2 4052.26 683.902   7
  -2   8  -2 4431.85 782.237   5
   2   8   2 4714.02 814.568   5
  -2  -8  -2 4766.15 747.370   7
   2   8   3 24454.2 1679.75   1
   2  -8   3 29435.3 1960.71   4
  -2  -8  -3 26847.6 1787.79   4
   2   8   3 27678.1 1975.37   5
  -2  -8  -3 28701.5 1903.91   7
   2  -8   3 24837.5 1645.49   7
  -2   8  -3 27851.8 1888.14   5
   2  -8   4 29206.7 1776.04   7
   2   8   4 29128.3 2097.42   5
  -2   8  -4 28662.1 1997.98   5
   2   8   4 27861.3 1873.04   1
  -2  -8  -4 27127.9 1784.40   4
   2  -8   4 27800.2 1950.75   4
  -2   8  -5 10244.8 1220.39   5
   2   8   5 8620.05 1130.46   1
   2   8   5 6642.03 1034.24   5
   2  -8   5 7323.97 1027.91   4
   2  -8   5 8847.83 976.650   7
  -2  -8  -5 6724.91 903.777   4
   2   8   6 3188.90 751.775   1
  -2   8  -6 2128.90 556.337   5
   2  -8   6 2317.83 602.652   4
  -2  -8  -6 2038.31 513.042   4
   2   8   7 6908.34 1114.14   1
  -2   8  -7 6735.98 1127.54   5
   2   8   7 7601.35 991.790  10
   2  -8   7 6853.79 1052.75   4
  -2  -8  -7 8357.13 1272.98   6
   2   8   8 569.556 503.494   1
  -2  -8  -8 1141.10 550.951   6
   2   8   8 634.951 340.721  10
   2  -8   8 1265.61 511.958   4
  -2   8  -8 1739.92 659.207   5
   2   8   9 72.8601 281.601  10
   2  -8   9-333.318 330.428   4
  -2  -8  -9 1819.70 762.327   6
  -2   8  -9 1238.88 616.376   5
   2   8   9 224.088 354.156   1
   2   8  10 2488.69 836.454   1
  -2   8 -10 1830.05 686.935   5
   2  -8  10 1132.26 480.847   9
  -2   9   9 15174.2 1827.47   1
   2  -9  -9 14222.5 1760.21   7
   2   9  -9 12982.8 1703.04   5
  -2  -9   9 13831.0 1556.04   4
   2  -9  -8 1.46807 297.820   7
  -2   9   8 703.082 458.578   1
  -2  -9   8 87.1452 305.713   4
  -2   9   7 13846.3 1626.77   5
   2  -9  -7 17786.4 1797.06   7
  -2   9   7 19299.4 1886.74   1
   2   9  -7 17406.1 1831.02   5
  -2  -9   7 17743.8 1714.77   4
   2   9  -6 2542.51 705.731   5
   2  -9  -6 1243.24 539.240   7
  -2   9   6 1520.22 606.440   5
  -2  -9   6 1517.47 534.861   4
   2   9  -5 4638.63 897.314   5
  -2  -9   5 3962.98 860.026   4
  -2   9   5 5423.02 955.269   5
   2  -9  -5 5893.62 1005.94   7
   2  -9  -5 5090.20 799.513   4
   2   9  -4 2966.37 725.255   5
   2  -9  -4 5319.32 818.584   4
  -2   9   4 3768.01 795.528   5
   2  -9  -4 4647.99 891.041   7
  -2  -9   4 5279.86 934.195   4
  -2  -9   3 6051.30 917.961   4
   2  -9  -3 6121.73 877.753   4
  -2   9   3 4938.92 863.857   5
   2   9  -3 7242.93 1070.63   5
   2  -9  -3 4807.33 856.949   7
  -2  -9   2 1492.94 551.947   4
  -2  -9   2 1819.49 459.560   7
   2   9  -2 954.694 428.478   5
  -2   9   2 2152.81 612.289   5
   2  -9  -2 2298.42 592.235   4
   2  -9  -2 2359.91 629.208   7
   2  -9  -1 15411.7 1445.88   7
   2   9  -1 14868.7 1485.91   5
  -2  -9   1 16726.9 1287.88   7
  -2   9   1 16647.7 1520.93   5
  -2  -9   1 15055.9 1461.39   4
   2  -9  -1 16101.1 1469.35   4
  -2  -9   0 370.882 351.839   4
  -2  -9   0 474.628 355.052   7
   2  -9   0-171.393 277.023   4
   2   9   0 101.267 273.313   5
  -2   9   0 477.751 382.249   5
   2  -9   0 85.5920 299.358   7
   2   9   1 45706.1 2642.99   5
  -2  -9  -1 45870.5 2391.83   7
   2  -9   1 44441.4 2404.09   7
  -2  -9  -1 45539.9 2558.11   4
   2  -9   1 41107.5 2466.01   4
  -2   9  -1 42468.6 2496.19   5
   2  -9   2 6849.74 1004.52   4
  -2  -9  -2 7901.34 1045.77   4
  -2  -9  -2 7797.71 1019.30   7
  -2   9  -2 5902.57 932.893   5
   2   9   2 8776.82 1183.50   5
   2  -9   2 5854.46 844.845   7
  -2   9  -3 13966.1 1458.22   5
   2   9   3 13579.4 1299.15   1
   2   9   3 18626.1 1726.66   5
  -2  -9  -3 17292.0 1512.56   4
  -2  -9  -3 17544.6 1582.27   7
   2  -9   3 17696.3 1453.03   7
   2  -9   3 16024.4 1552.65   4
  -2  -9  -4 447.028 407.020   4
   2   9   4 765.889 454.726   1
  -2   9  -4-64.4173 359.165   5
   2   9   4 644.320 455.390   5
   2  -9   4-120.138 248.097   7
   2  -9   4 125.002 272.324   4
  -2  -9  -5 492.725 353.958   4
   2  -9   5-381.527 381.303   4
  -2   9  -5 328.474 467.412   5
   2   9   5 567.193 342.790   5
   2   9   5-328.865 383.245   1
  -2   9  -6 872.494 496.070   5
   2   9   6 675.645 456.989   1
   2   9   6 1416.18 647.959   5
   2  -9   6 1296.11 586.324   4
  -2   9  -7 612.608 616.244   5
   2  -9   7 635.740 442.324   4
   2   9   7 244.308 403.448   1
   2   9   7 385.393 518.766   5
  -2  -9  -7-157.995 335.899   6
   2   9   8 77.4009 408.230   1
  -2   9  -8 1329.34 665.791   5
  -2  -9  -8 163.191 453.107   6
   2   9   8 280.981 457.919   5
   2  -9   8 862.894 492.724   4
   2  -9   9 7766.92 1197.09   4
  -2   9  -9 7647.34 1383.57   5
   2   9   9 8486.79 1396.80   1
  -2 -10   9 582.902 440.048   4
  -2 -10   8 4261.46 936.427   4
   2  10  -8 4608.05 1132.29   5
  -2  10   8 3799.92 989.049   5
   2 -10  -8 3608.25 939.048   7
   2  10  -7 5509.03 1124.69   5
  -2  10   7 3784.88 932.308   5
   2 -10  -7 2519.13 768.707   7
  -2 -10   7 2923.91 767.512   4
   2  10  -6 4636.50 1007.59   5
  -2 -10   6 2341.24 715.362   4
  -2  10   6 4466.26 959.875   5
   2 -10  -6 4538.60 943.544   7
   2 -10  -5 5471.86 879.178   4
  -2 -10   5 6066.62 1095.07   4
   2  10  -5 4499.95 931.009   5
  -2  10   5 5338.25 1077.26   5
   2 -10  -5 7087.18 1155.04   7
  -2 -10   4 2274.58 734.691   4
   2 -10  -4 1394.10 616.647   7
   2 -10  -4 2744.18 651.873   4
   2  10  -4 2845.45 739.971   5
  -2  10   4 1932.15 672.835   5
  -2 -10   3 3507.22 821.040   4
   2  10  -3 3928.75 865.043   5
  -2  10   3 2741.97 682.620   5
   2 -10  -3 5904.87 1028.84   7
   2 -10  -3 3578.41 739.453   4
  -2 -10   2 2000.65 623.545   4
   2 -10  -2 2068.93 590.615   4
  -2  10   2 2432.79 714.357   5
   2  10  -2 1272.03 576.119   5
   2 -10  -2 2948.44 732.505   7
   2  10  -1 10603.1 1364.84   5
  -2  10   1 7667.83 1133.65   5
  -2 -10   1 8682.21 1010.16   7
   2 -10  -1 10768.6 1286.45   7
  -2 -10   1 11458.5 1403.15   4
   2 -10  -1 9339.75 1197.67   4
  -2  10   0 3419.71 785.048   5
  -2 -10   0 2817.68 748.680   4
   2  10   0 5671.99 986.148   5
  -2 -10   0 4905.65 782.146   7
   2 -10   0 3661.63 830.145   4
   2 -10   0 3516.38 789.924   7
  -2  10  -1 624.497 413.477   5
   2  10   1 1285.22 560.561   5
   2 -10   1 804.991 464.136   7
  -2 -10  -1 1303.13 496.471   7
   2 -10   1 1830.71 616.297   4
  -2 -10  -1 516.666 477.123   4
   2 -10   2 15520.0 1463.66   7
  -2 -10  -2 10875.1 1298.85   7
  -2  10  -2 14156.8 1531.88   5
  -2 -10  -2 16817.9 1613.57   4
   2 -10   2 13857.2 1525.17   4
   2  10   2 13022.4 1493.75   5
  -2 -10  -3-186.460 409.377   4
   2 -10   3-43.4711 378.515   4
  -2  10  -3 535.956 442.990   5
   2  10   3 593.530 444.442   5
   2 -10   3-43.6781 276.485   7
   2  10   4 12901.0 1579.83   5
  -2  10  -4 15738.5 1665.84   5
   2  10   4 11771.1 1331.61   1
   2 -10   4 12931.9 1523.36   4
  -2 -10  -4 12651.9 1389.55   4
   2  10   5 1879.76 619.281   1
   2 -10   5 2185.33 734.978   4
  -2 -10  -5 1476.42 572.243   4
   2  10   5 2271.06 732.189   5
  -2  10  -5 439.861 455.221   5
  -2  10  -6 14520.0 1713.96   5
   2  10   6 11394.0 1580.56   5
   2  10   6 12998.1 1540.37   1
   2 -10   6 10786.3 1441.55   4
   2  10   7 4043.89 1042.63   5
   2 -10   7 3962.48 912.427   4
  -2  10  -7 3716.08 994.480   5
   2  10   7 5518.60 1105.67   1
   2 -10   8 1872.44 691.376   4
   2  10   8 289.954 433.266   1
  -2 -11   7 4657.93 1023.05   4
  -2 -11   6-231.636 374.819   4
   2  11  -6 800.979 529.657   5
  -2  11   6 146.256 355.737   5
   2 -11  -6 1156.59 667.301   7
  -2 -11   5 1954.53 703.802   4
   2 -11  -5 892.968 502.520   7
   2  11  -5 2487.55 831.436   5
  -2  11   5 1268.85 650.224   5
   2 -11  -4 5577.61 1006.59   4
  -2 -11   4 6382.18 1139.32   4
   2  11  -4 5966.53 1140.54   5
  -2  11   4 4346.11 931.892   5
   2 -11  -4 3131.80 785.986   7
   2 -11  -3 2429.15 726.599   7
   2 -11  -3 1655.61 671.334   4
  -2  11   3 3059.60 810.699   5
   2  11  -3 2495.79 785.835   5
  -2 -11   3 1117.78 562.492   4
   2 -11  -2 4831.84 950.625   4
  -2  11   2 4822.05 959.529   5
   2 -11  -2 5693.67 1059.38   7
  -2 -11   2 7026.65 1198.21   4
   2  11  -2 5045.66 988.825   5
   2 -11  -1 24.9490 346.003   4
   2  11  -1 883.707 424.404   5
  -2 -11   1 1253.35 625.318   4
  -2  11   1 299.700 375.355   5
   2 -11  -1 19.2014 332.371   7
  -2 -11   0 11044.8 1442.47   4
   2  11   0 10409.3 1426.23   5
   2 -11   0 9505.50 1264.93   7
  -2  11   0 8300.12 1241.48   5
  -2 -11   0 9288.54 1157.07   7
   2 -11   0 8543.23 1277.44   4
  -2  11  -1 13995.8 1607.78   5
   2  11   1 16671.5 1820.18   5
   2 -11   1 14200.5 1525.85   7
  -2 -11  -1 14474.4 1482.42   7
  -2 -11  -1 15494.2 1671.67   4
   2 -11   1 14181.3 1610.93   4
   2 -11   2 9658.82 1361.58   4
  -2  11  -2 9761.13 1372.29   5
   2  11   2 10873.5 1461.68   5
   2 -11   2 9927.90 1256.65   7
  -2 -11  -2 8240.87 1263.17   4
   2 -11   3 1171.70 517.440   4
   2  11   3 625.894 484.462   5
  -2  11  -3 596.821 469.075   5
  -2 -11  -3 511.006 433.312   4
  -2  11  -4 7109.02 1185.60   5
  -2 -11  -4 5687.77 1043.18   4
   2 -11   4 6011.78 1129.00   4
   2  11   4 6490.68 1209.33   5
   2 -11   5 1651.09 812.234   4
  -2  11  -5 692.505 485.163   5
   2  11   5 815.192 523.273   5
   2  11   6 716.779 426.866   1
  -2  11  -6 486.497 421.075   5
   2  11   7 1619.18 617.818   1
  -2  12   4 1600.01 746.204   5
   2 -12  -4 506.753 472.997   7
   2 -12  -4 1328.31 584.947   4
  -2  12   3 15415.5 1840.70   5
  -2 -12   3 18620.7 2023.92   4
   2  12  -3 16070.0 1939.42   5
   2 -12  -3 13161.0 1594.82   4
   2 -12  -3 16231.7 1860.19   7
   2 -12  -2 2258.32 655.056   4
  -2 -12   2 1046.97 551.694   4
   2  12  -2 844.564 566.381   5
   2 -12  -2 1519.51 635.715   7
  -2  12   2 679.012 585.590   5
   2 -12  -1 5774.44 1050.54   4
  -2  12   1 6586.93 1182.60   5
   2  12  -1 5725.10 1150.09   5
   2 -12  -1 6353.80 1140.98   7
  -2 -12   1 5151.21 1129.89   4
  -2  12   0 1287.59 553.439   5
  -2 -12   0 1696.65 733.802   4
   2 -12   0 1206.43 546.132   7
   2  12   0 2655.22 867.187   5
   2 -12   0 1602.36 646.240   4
  -2 -12  -1 6429.17 1170.63   4
   2 -12   1 6114.73 1161.43   4
   2  12   1 5989.27 1184.92   5
  -2  12  -1 6545.68 1204.36   5
   2 -12   1 5675.10 1053.78   7
   2 -12   2 972.643 600.131   4
  -2 -12  -2 374.489 501.357   4
  -2  12  -2 28.5231 329.860   5
   2  12   2 1057.99 563.596   5
  -2  12  -3 3132.17 885.847   5
  -2 -12  -3 1536.26 722.360   4
  -2 -12  -4 766.959 531.111   4
  -3   0  14 2353.43 792.291   9
  -3   0  13 915.831 517.584   9
   3   0 -13-110.176 551.683   3
  -3   0  12 3743.22 899.838   9
   3   0 -12 2405.15 708.399   3
   3   0 -11 307.986 338.462   3
  -3   0  11-119.461 369.629   9
   3   0 -11 266.903 246.711   6
  -3   0  10 4993.46 881.857   9
   3   0 -10 5352.89 755.758   6
   3   0 -10 5309.32 874.636   3
   3   0  -9 113.910 290.479   6
  -3   0   9-157.714 401.671   9
   3   0  -9 438.515 342.622   3
  -3   0   8 1414.15 441.668   9
   3   0  -8 1918.71 411.701   6
   3   0  -8 1806.21 489.861   3
   3   0  -7-152.839 149.340   6
  -3   0   7-72.3890 287.514   9
  -3   0   7 66.4667 47.5068   8
   3   0  -7 219.379 253.961   3
  -3   0   6 19667.6 1310.97   9
  -3   0   6 17700.8 699.320   8
   3   0  -6 16343.5 1171.47   3
   3   0  -6 16609.0 871.187   7
  -3   0   6 17847.7 706.769   4
   3   0  -6 17100.9 665.686   4
   3   0  -6 18208.4 970.243   6
   3   0  -5 308.131 237.524   3
  -3   0   5 200.780 117.999   8
   3   0  -5 60.1878 111.658   7
  -3   0   5-83.5121 196.250   9
  -3   0   5-14.9683 98.5058   4
   3   0  -5-15.5462 104.180   6
  -3   0   4 4669.91 454.141   1
  -3   0   4 4259.88 386.719   4
   3   0  -4 4409.81 380.409   7
  -3   0   4 3656.50 494.661   9
   3   0  -4 3951.21 504.964   3
  -3   0   4 4220.56 387.313   8
   3   0  -4 4100.38 338.922   6
  -3   0   3-18.6019 122.297   8
  -3   0   3-38.2747 140.829   9
   3   0  -3 228.370 172.794   3
   3   0  -3-87.6477 106.967   7
  -3   0   3 184.635 142.003   1
  -3   0   3 198.899 129.478   4
  -3   0   2 60102.3 1731.42   9
  -3   0   2 59542.3 1752.08   8
  -3   0   2 61931.4 1471.26   5
   3   0  -2 57394.5 1827.18  10
  -3   0   2 56763.3 1693.70   4
   3   0  -2 56749.4 1790.13   3
   3   0  -2 57227.3 1575.59   7
   3   0  -2 61116.1 1246.76   6
   3   0  -1 82.6550 115.952   9
  -3   0   1 27.8781 118.496   9
  -3   0   1 81.8514 80.2839   6
   3   0  -1 104.215 90.5146   6
   3   0  -1 151.357 169.843  10
  -3   0   1-72.8014 163.801   8
  -3   0   1-56.1310 154.755   4
   3   0   0 79637.1 2141.41  10
  -3   0   0 81327.4 1644.60   9
  -3   0   0 79545.2 2208.10   8
  -3   0   0 84113.9 2242.02   4
  -3   0   0 79621.8 1893.63   6
  -3   0  -1 17.0917 145.544   6
   3   0   1 272.321 178.521  10
  -3   0  -1-181.493 158.815   8
   3   0   2 68739.7 2086.83  10
  -3   0  -2 73194.3 2105.91   8
  -3   0  -2 68707.8 2068.27   6
   3   0   3 16.0803 77.0896   9
   3   0   3 377.818 218.134  10
  -3   0  -3 65.2174 179.917   8
   3   0   3-123.023 145.951   2
  -3   0  -3 78.5771 176.509   6
   3   0   4 1772.74 233.689   9
   3   0   4 2546.85 439.834   2
  -3   0  -4 1800.04 318.618   8
  -3   0  -4 1992.67 417.006   6
   3   0   4 2147.54 406.198  10
   3   0   5 322.894 281.247   2
  -3   0  -5 200.796 284.531   6
   3   0   5 61.4345 233.783  10
  -3   0  -5 124.679 182.872   8
   3   0   5-69.6341 109.032   9
   3   0   6 17589.9 1004.29   9
   3   0   6 17988.7 1271.22  10
   3   0   6 16881.3 1266.87   2
  -3   0  -6 16828.9 954.033   8
  -3   0  -6 17870.2 1328.65   6
   3   0   7 380.008 287.117   2
   3   0   7 432.653 345.471  10
  -3   0  -7 272.422 245.610   6
  -3   0  -7 173.105 146.012   8
   3   0   7-79.9188 208.076   9
   3   0   8 79670.1 3328.71   2
   3   0   8 78500.5 3258.90  10
  -3   0  -8 83101.3 3492.68   6
   3   0   9-154.531 284.451  10
   3   0   9 240.012 286.684   9
   3   0   9-87.3158 252.842   2
  -3   0  -9 170.011 266.317   6
   3   0  10 26891.1 2066.78   2
   3   0  10 30598.2 2173.86  10
  -3   0 -10 30048.4 2233.66   6
  -3   0 -11 13.9833 353.623   6
   3   0  11-93.4148 266.783  10
   3   0  11 8.04818 341.123   2
   3   0  12 55.2613 469.728   2
  -3   0 -12 449.108 405.889   6
   3   0  12 842.219 461.306  10
  -3  -1  14 416.779 651.865   9
  -3   1  14 1603.32 786.576   9
  -3  -1  13 20778.2 2070.60   9
  -3   1  13 19634.5 2012.55   9
   3  -1 -13 24089.9 2173.76   3
   3   1 -13 24527.1 2185.21   3
   3  -1 -12 2512.94 663.395   6
  -3  -1  12 2236.59 748.508   9
  -3   1  12 3264.17 833.942   9
   3  -1 -12 1247.13 514.463   3
   3   1 -12 1570.13 574.424   3
   3   1 -11 14554.9 1508.85   3
  -3   1  11 15534.9 1615.24   9
  -3  -1  11 15617.6 1628.47   9
   3   1 -11 13840.6 1288.52   6
   3  -1 -11 15635.7 1578.13   3
   3  -1 -11 17313.8 1478.18   6
   3   1 -10 1684.44 487.539   6
  -3   1  10 1437.12 519.976   9
  -3  -1  10 1216.81 498.752   9
   3  -1 -10 680.361 393.694   3
   3   1 -10 2710.09 651.215   3
   3  -1 -10 1053.02 392.520   6
  -3  -1   9 11771.2 1259.52   9
  -3   1   9 10802.4 1217.21   9
   3   1  -9 10441.3 1134.92   3
   3  -1  -9 11248.7 1183.88   3
   3   1  -9 13997.6 1089.31   6
   3  -1  -9 11473.0 1059.74   6
  -3   1   8 25040.0 1736.80   9
  -3  -1   8 24898.5 1725.21   9
   3   1  -8 23455.6 1610.60   3
   3  -1  -8 25812.2 1668.91   3
   3   1  -8 26886.8 1415.51   6
   3  -1  -8 25199.0 1462.89   6
  -3  -1   7 2678.77 229.698   8
   3   1  -7 2468.73 406.666   6
   3   1  -7 2687.94 541.174   3
  -3   1   7 3215.41 281.457   8
  -3   1   7 4067.54 670.000   9
  -3  -1   7 2853.81 605.789   9
  -3  -1   7 3812.62 371.294   4
   3  -1  -7 3711.19 499.736   7
   3  -1  -7 3589.91 494.838   6
   3  -1  -7 2007.27 451.401   3
  -3   1   6 8974.09 522.847   8
  -3  -1   6 9206.24 521.624   8
  -3   1   6 9006.95 912.341   9
  -3  -1   6 9234.30 887.056   9
   3  -1  -6 9258.01 870.635   3
   3   1  -6 10895.6 956.351   3
   3  -1  -6 9344.63 725.212   7
  -3  -1   6 8488.33 562.080   4
   3  -1  -6 8482.05 383.329   4
   3   1  -6 9017.41 644.529   6
   3  -1  -6 10578.5 788.733   6
   3  -1  -5 101540. 2234.67   4
   3  -1  -5 103811. 2755.70   7
  -3   1   5 111605. 3039.00   1
  -3   1   5 103277. 3191.94   9
   3  -1  -5 103009. 2678.71   6
  -3  -1   5 103514. 2444.44   8
  -3  -1   5 104199. 3179.64   9
   3   1  -5 107170. 3150.79   3
   3   1  -5 100788. 2219.00   7
  -3   1   5 103064. 2447.70   8
   3  -1  -5 105417. 3089.92   3
  -3  -1   5 105276. 2283.92   7
  -3  -1   5 103863. 2521.01   4
   3   1  -5 99670.8 2411.98   6
  -3  -1   4 32094.8 1461.79   9
   3   1  -4 31971.4 1347.10   5
  -3   1   4 30652.8 1448.03   9
  -3   1   4 32951.7 1372.92   1
   3  -1  -4 31026.2 1230.80   7
   3  -1  -4 31401.1 1401.88   3
  -3   1   4 30713.1 1131.77   8
   3   1  -4 29537.2 1392.35   3
   3   1  -4 30226.5 873.760   7
  -3  -1   4 28970.1 1134.07   4
  -3  -1   4 33158.2 1102.57   1
   3   1  -4 29489.6 898.437   6
  -3  -1   3 67975.5 2072.54   9
   3   1  -3 63065.9 1853.31   5
  -3   1   3 64781.9 2066.95   9
   3   1  -3 65573.5 1485.80   7
  -3   1   3 63860.2 1858.82   8
  -3   1   3 66129.7 1965.02   1
   3  -1  -3 65437.2 2010.70   3
  -3  -1   3 67247.3 1564.73   1
   3   1  -3 68372.8 2109.16   3
   3  -1  -3 64190.7 1881.90   7
  -3  -1   3 64959.9 1859.94   4
   3   1  -3 66142.9 1542.21   2
   3   1  -2 38657.6 1451.74  10
   3   1  -2 43183.6 1032.86   1
  -3   1   2 38101.5 1352.27   9
  -3  -1   2 41545.4 1388.85   9
  -3   1   2 37075.3 1359.61   8
   3   1  -2 38126.3 1186.90   5
   3  -1  -2 37696.6 1357.33   3
   3  -1  -2 40781.2 1376.77   7
  -3  -1   2 40467.6 1386.51   4
  -3   1   1 155457. 3355.60   9
   3   1  -1 160295. 3132.09   5
  -3   1   1 161824. 3647.11   8
   3   1  -1 163519. 3646.34  10
   3  -1  -1 161877. 3596.34   7
  -3  -1   1 159195. 3614.88   4
   3  -1  -1 162566. 3571.65  10
  -3  -1   1 159456. 2940.55   6
   3   1   0 87683.8 1912.63   6
  -3  -1   0 76948.6 2199.82   4
  -3   1   0 81243.6 1776.25   9
   3  -1   0 89250.6 1813.19   9
   3   1   0 77166.0 1741.90   5
  -3   1   0 80352.9 2243.96   8
  -3   1   0 79442.7 2028.91   6
   3  -1   0 76788.2 2090.65  10
   3   1   0 77784.3 2164.59  10
  -3  -1   0 77379.8 1853.06   6
  -3  -1  -1 68.4062 150.625   6
  -3  -1  -1 40.4661 68.8928   9
  -3   1  -1 366.171 217.320   8
   3   1   1-22.8077 145.516  10
  -3   1  -1-69.5386 153.165   6
   3  -1   1 156.185 95.0780   5
   3  -1   1-54.9372 146.034  10
   3   1   1 80.5554 121.398   2
  -3  -1  -1-67.9502 156.209   4
   3  -1   1 36.2060 54.0837   9
   3  -1   2 28359.3 1189.28  10
  -3   1  -2 25483.6 1162.58   8
   3   1   2 27298.8 1179.37   2
  -3  -1  -2 28824.3 1243.95   4
   3   1   2 27261.0 1221.47  10
  -3   1  -2 27277.4 1236.15   6
  -3  -1  -2 29214.3 779.763   9
  -3  -1  -2 27546.5 1205.01   6
  -3  -1  -3 2585.67 425.240   6
   3   1   3 2658.94 248.653   9
   3  -1   3 2526.14 241.752   9
  -3   1  -3 2843.69 434.316   6
   3   1   3 2367.80 389.655   2
  -3   1  -3 2298.12 353.059   8
  -3  -1  -3 3315.94 427.999   4
   3   1   3 2310.21 393.193  10
   3  -1   3 2979.23 424.353  10
  -3  -1  -3 2788.95 253.396   9
   3  -1   4 91548.3 2817.05  10
   3   1   4 98440.6 2334.78   9
  -3  -1  -4 95987.3 3008.48   6
   3  -1   4 95273.4 2940.85   2
  -3   1  -4 100528. 2696.97   8
   3   1   4 94594.4 2921.50  10
   3  -1   4 95363.5 2316.61   9
   3   1   4 98684.5 2962.31   2
  -3   1  -4 95381.0 3012.54   6
   3   1   5 21100.8 1300.61  10
  -3   1  -5 21674.5 1091.43   8
   3  -1   5 20066.2 1234.30  10
   3   1   5 18148.3 1234.94   2
   3  -1   5 20319.8 1296.53   2
   3  -1   5 20139.9 979.506   9
   3   1   5 21385.8 1000.85   9
  -3   1  -5 18121.9 1276.73   6
  -3  -1  -5 19756.8 1321.09   6
  -3   1  -6 40901.6 1532.58   8
   3  -1   6 36105.1 1534.19   9
   3   1   6 42691.0 1649.16   9
  -3  -1  -6 40031.4 1581.55   8
   3  -1   6 38616.1 1949.78   2
   3  -1   6 40205.3 1916.98  10
   3   1   6 35637.3 1893.15   2
   3   1   6 38071.1 1914.41  10
  -3   1  -6 37878.5 2019.74   6
  -3  -1  -6 40475.2 2071.17   6
   3  -1   7 19925.6 1188.74   9
   3   1   7 16922.0 1337.14  10
   3  -1   7 17644.3 1328.79  10
   3   1   7 21255.2 1217.85   9
  -3   1  -7 19055.4 990.008   8
   3  -1   7 19069.7 1434.53   2
  -3  -1  -7 20503.6 1095.96   8
   3   1   7 17351.8 1395.00   2
  -3   1  -7 17766.9 1453.76   6
  -3  -1  -7 18780.2 1477.80   6
   3   1   8 2364.57 559.972  10
   3  -1   8 1291.87 506.731  10
   3  -1   8 978.978 326.367   9
   3  -1   8 2082.53 575.989   2
  -3  -1  -8 1972.97 577.624   6
  -3   1  -8 1967.22 565.496   6
   3   1   8 1514.32 517.042   2
   3   1   8 1573.39 411.839   9
  -3  -1  -9 4992.69 905.092   6
   3  -1   9 6471.88 806.042   9
   3  -1   9 4990.21 833.472  10
  -3   1  -9 5035.37 907.972   6
   3   1   9 4042.63 782.202   2
   3   1   9 5372.87 734.196   9
   3   1   9 4810.94 832.967  10
   3  -1   9 5298.63 871.806   2
   3  -1  10 2247.34 634.943  10
   3  -1  10 2685.98 688.060   2
  -3  -1 -10 1499.48 569.949   6
   3   1  10 1734.54 621.731   2
  -3   1 -10 1963.55 607.568   6
   3   1  10 1273.69 493.203  10
  -3   1 -11 2610.23 719.565   6
   3   1  11 1867.54 573.464  10
   3  -1  11 2807.33 751.966   2
   3   1  11 3233.33 842.524   2
   3  -1  11 1894.75 625.672  10
  -3  -1 -11 2975.92 742.654   6
   3   1  12 25779.2 2238.59  10
   3  -1  12 26303.7 2272.07   2
   3   1  12 25106.0 2264.73   2
   3  -1  12 23704.0 2147.51  10
  -3   1 -12 23253.9 2205.75   6
  -3  -1 -12 25772.4 2321.88   6
  -3   2  14 1309.96 655.877   1
  -3   2  13 2515.94 776.826   9
  -3  -2  13 3429.21 915.626   9
   3  -2 -13 2801.41 735.166   3
  -3   2  13 1557.68 626.953   1
   3   2 -13 3294.18 863.573   3
  -3  -2  12 2567.20 770.494   9
   3  -2 -12 3333.65 802.823   6
  -3   2  12 2647.28 782.720   9
   3   2 -12 3474.34 789.925   3
   3  -2 -12 3313.78 809.968   3
   3  -2 -11 13106.0 1446.63   3
   3   2 -11 11755.0 1330.72   3
  -3  -2  11 12958.4 1499.34   9
  -3   2  11 11860.8 1424.11   9
   3  -2 -11 12471.7 1296.18   6
   3   2 -10 2553.35 535.793   6
  -3  -2  10 2333.91 638.325   9
   3  -2 -10 1982.65 493.979   6
   3  -2 -10 1705.16 537.411   3
   3   2 -10 2983.80 645.060   3
  -3   2  10 3721.10 795.120   9
   3   2  -9 75146.4 2709.39   6
  -3  -2   9 76902.0 3361.83   9
   3   2  -9 67581.3 3024.74   3
   3  -2  -9 67405.9 3029.38   3
  -3   2   9 68947.7 3210.63   9
   3  -2  -9 71434.5 2895.10   6
  -3  -2   8 385.054 210.607   4
   3  -2  -8 458.634 312.809   6
   3   2  -8 142.885 200.275   6
  -3  -2   8-113.625 316.702   9
   3   2  -8 757.170 360.727   3
   3  -2  -8 494.818 300.760   7
   3  -2  -8 111.441 257.167   3
   3  -2  -7 60333.6 2342.20   6
  -3   2   7 57643.9 2617.58   9
  -3   2   7 66963.9 2649.72   1
  -3   2   7 63044.5 1770.10   8
   3  -2  -7 62722.6 2565.42   3
   3   2  -7 60955.5 2544.79   3
  -3  -2   7 63788.0 1678.65   8
   3  -2  -7 61937.3 2329.16   7
  -3  -2   7 61126.9 1962.01   4
   3   2  -7 65979.3 2153.71   6
  -3  -2   7 62271.8 2680.18   9
   3  -2  -6 7869.41 802.728   3
   3   2  -6 6940.85 761.913   5
  -3   2   6 6051.15 751.812   9
  -3  -2   6 7581.34 819.703   9
  -3   2   6 6780.70 528.023   8
   3  -2  -6 6951.81 697.848   7
   3   2  -6 7750.44 791.398   3
  -3  -2   6 8234.37 625.152   4
  -3  -2   6 5488.52 286.555   7
   3  -2  -6 6349.68 347.000   4
  -3   2   6 8444.56 836.264   1
   3   2  -6 7178.88 573.823   6
  -3   2   5 55969.3 2250.21   9
   3   2  -5 57513.5 2162.76   5
  -3   2   5 56998.9 2185.49   1
   3  -2  -5 57380.3 2044.13   7
  -3  -2   5 56281.5 1827.75   4
   3  -2  -5 52277.8 2044.08   3
   3   2  -5 58026.9 2186.21   3
  -3   2   5 54933.5 1729.41   8
   3   2  -5 56552.2 1605.86   6
  -3  -2   5 55585.6 2212.49   9
   3   2  -4 8026.44 411.955   2
   3   2  -4 8424.42 703.927   5
  -3   2   4 8102.20 755.224   9
  -3   2   4 7346.16 676.357   1
   3  -2  -4 8693.52 699.935   3
   3   2  -4 6985.48 663.476   3
   3  -2  -4 6855.40 628.922   7
  -3   2   4 7412.73 577.198   8
  -3  -2   4 8597.50 640.954   4
   3   2  -4 8307.26 444.636   6
  -3  -2   4 9054.05 454.680   6
   3   2  -3 3043.20 432.624   3
   3   2  -3 2145.26 336.598   5
   3  -2  -3 3082.05 389.690   3
  -3   2   3 2375.81 395.430   9
  -3  -2   3 2304.39 345.798   4
  -3   2   3 2308.05 326.173   8
   3  -2  -3 2834.63 402.851   7
  -3   2   3 2690.42 415.054   1
  -3  -2   3 2468.75 187.799   6
  -3   2   2 14874.3 852.911   9
  -3  -2   2 16283.6 898.060   4
   3   2  -2 15309.2 784.161   5
  -3   2   2 14852.7 835.475   8
   3  -2  -2 14882.4 775.697   3
   3  -2  -2 15312.0 883.556   7
   3   2  -2 16044.2 896.002  10
  -3  -2   2 15777.3 506.268   6
  -3   2   1 42669.6 1550.89   8
   3   2  -1 41872.5 1341.39   5
   3   2  -1 45379.4 1540.32  10
  -3   2   1 45285.8 1231.27   5
   3  -2  -1 44825.2 1600.83   7
   3   2  -1 45491.8 1017.39   2
  -3  -2   1 43586.9 1573.90   4
   3  -2  -1 42456.6 1410.78  10
  -3   2   1 43393.9 1432.83   9
  -3   2   0 411.368 160.937   6
  -3  -2   0 227.359 199.606   4
  -3   2   0 298.987 109.826   5
  -3  -2   0 361.297 131.707   6
   3  -2   0 295.205 149.656  10
  -3   2   0 323.985 197.263   8
   3   2   0 541.443 173.307   5
   3   2   0 330.733 148.904   2
   3   2   0 212.541 167.051  10
   3  -2   0 395.368 131.154   5
   3  -2   0 569.930 228.199   7
  -3  -2  -1 114976. 2775.73   6
   3   2   1 115228. 2902.52  10
  -3   2  -1 115214. 2953.55   8
   3   2   1 114821. 2665.39   2
  -3   2  -1 111038. 2506.19   5
   3  -2   1 107843. 2658.86  10
  -3  -2  -1 114694. 2958.46   4
  -3   2  -1 114509. 2941.91   6
  -3   2  -2 7218.90 616.713   8
   3  -2   2 7498.46 566.973  10
  -3   2  -2 7871.65 556.839   5
   3   2   2 9037.20 693.596  10
   3   2   2 7899.63 629.487   2
  -3  -2  -2 8458.20 680.648   4
  -3   2  -2 8236.26 694.903   6
  -3  -2  -2 7758.67 647.174   6
   3   2   3 69396.2 2292.90  10
  -3   2  -3 70468.4 2147.84   5
  -3   2  -3 73006.8 2203.28   8
   3  -2   3 64846.6 2084.02  10
   3   2   3 69021.4 2254.29   2
  -3  -2  -3 69326.8 2195.77   4
  -3   2  -3 66722.6 2346.67   6
  -3  -2  -3 68750.2 2350.10   6
  -3  -2  -4 195.884 200.758   6
   3  -2   4 573.698 264.439  10
   3   2   4 746.193 278.000  10
   3   2   4 871.277 310.450   2
  -3   2  -4 801.227 241.971   8
  -3   2  -4 346.614 232.338   6
   3   2   4 1143.50 254.766   9
  -3  -2  -4 363.414 229.369   4
   3  -2   5 6746.06 699.481  10
   3  -2   5 6371.79 582.512   9
  -3   2  -5 6099.65 585.209   8
   3   2   5 7485.05 794.444   2
   3   2   5 6876.64 593.790   9
   3  -2   5 5712.24 687.502   2
   3   2   5 7791.38 805.405  10
  -3   2  -5 7902.80 847.776   6
  -3  -2  -5 6893.52 804.172   6
   3   2   6 7486.11 839.741  10
   3  -2   6 7539.59 819.323  10
   3  -2   6 8532.76 729.749   9
  -3   2  -6 8398.49 678.961   8
   3   2   6 9042.91 949.322   2
   3   2   6 8062.71 703.521   9
  -3   2  -6 8252.47 950.083   6
   3  -2   6 6568.64 797.427   2
  -3  -2  -6 8444.87 958.258   6
  -3   2  -7 6886.10 946.000   6
   3   2   7 6624.22 844.765  10
   3  -2   7 6631.65 712.816   9
  -3   2  -7 7349.27 614.797   8
   3   2   7 5275.07 801.035   2
  -3  -2  -7 7474.42 972.288   6
   3  -2   7 7336.73 859.431  10
   3  -2   7 6398.46 851.194   2
   3   2   7 6661.38 711.810   9
   3   2   8 338.386 252.479  10
   3  -2   8 1095.40 424.449  10
   3   2   8 442.450 304.383   9
   3  -2   8 524.357 321.526   2
   3  -2   8 631.819 293.115   9
  -3   2  -8 593.802 389.350   6
   3   2   8 899.729 413.155   2
  -3  -2  -8 1374.76 527.551   6
   3   2   9 2072.72 581.331  10
   3  -2   9 3087.37 687.344  10
   3  -2   9 2544.45 639.336   2
   3   2   9 2648.31 568.813   9
   3  -2   9 1804.34 490.652   9
  -3  -2  -9 2658.23 737.045   6
   3   2   9 2689.09 682.479   2
  -3   2  -9 2066.85 621.031   6
   3   2  10 282.992 298.510  10
   3  -2  10 108.176 278.581  10
   3  -2  10 1198.69 520.593   2
   3   2  10 93.0958 343.685   2
  -3   2 -10 582.842 517.465   6
  -3  -2 -10 353.519 454.777   6
  -3  -2 -11 2633.59 749.117   6
   3   2  11 2390.80 727.248  10
   3  -2  11 1950.28 654.556   2
  -3   2 -11 1124.31 630.603   6
   3  -2  11 1485.21 580.665  10
   3   2  11 1940.48 673.634   2
  -3   2 -12 325.381 382.496   6
   3  -2  12 776.741 503.427  10
   3   2  12 63.2352 328.069  10
  -3  -2 -12-406.104 426.641   6
   3   2  12 298.222 334.764   2
   3  -3 -13 4845.62 1040.54   3
  -3   3  13 4702.87 1062.30   9
  -3  -3  13 3485.87 942.024   9
   3  -3 -13 6173.18 1065.20   6
   3   3 -13 4423.85 940.347   3
  -3   3  13 3342.31 902.162   1
   3  -3 -12-62.6187 281.963   6
  -3  -3  12 119.770 368.054   9
  -3   3  12 882.797 538.694   9
   3  -3 -12 1098.78 598.480   3
   3   3 -12 649.900 498.007   3
  -3   3  12-338.163 405.076   1
  -3   3  11 24057.3 1979.91   1
   3  -3 -11 24220.2 1969.70   3
  -3   3  11 27327.5 2195.40   9
  -3  -3  11 25203.9 2126.76   9
   3   3 -11 25410.2 1984.22   3
   3  -3 -11 23789.1 1868.86   6
  -3  -3  10 6730.34 1101.47   9
  -3   3  10 7373.64 1105.62   9
   3  -3 -10 5411.10 896.759   3
  -3   3  10 6115.11 960.260   1
   3   3 -10 4763.26 820.706   3
   3  -3 -10 5984.06 891.298   6
  -3  -3   9 437.574 295.251   2
  -3  -3   9 379.680 367.308   9
   3  -3  -9 737.162 387.003   3
   3   3  -9 530.836 331.259   6
   3  -3  -9 64.4404 255.422   6
   3  -3  -9 224.892 257.920   7
  -3   3   9 647.487 346.517   1
   3   3  -9 752.487 445.701   3
  -3   3   9 690.709 479.126   9
   3  -3  -8 9390.84 971.998   6
  -3  -3   8 9623.78 1084.52   9
   3  -3  -8 9952.46 1034.82   3
   3  -3  -8 8569.09 932.669   7
  -3   3   8 10922.1 1187.92   9
   3   3  -8 9967.20 1042.33   3
  -3  -3   8 10959.7 833.328   4
  -3   3   8 10257.4 1100.09   1
  -3  -3   8 8945.24 764.833   2
   3   3  -8 11349.8 908.620   6
  -3   3   7 6187.81 825.550   1
   3   3  -7 7440.98 853.622   3
  -3  -3   7 6865.47 887.623   9
   3  -3  -7 6849.50 817.897   3
   3   3  -7 5736.95 797.745   5
   3  -3  -7 8675.36 879.810   7
  -3  -3   7 7273.42 669.870   4
  -3  -3   7 7586.95 628.037   2
  -3   3   7 7488.44 928.742   9
   3   3  -7 7568.35 678.011   6
   3   3  -6 27285.2 1616.52   5
  -3  -3   6 25668.3 1599.39   9
   3  -3  -6 28308.2 1561.17   7
  -3   3   6 29546.4 1744.15   9
   3  -3  -6 27872.8 1533.25   3
  -3  -3   6 31177.5 1154.56   2
  -3   3   6 28044.2 1663.66   1
  -3   3   6 27726.0 1265.01   8
  -3  -3   6 30195.3 1398.62   4
   3   3  -6 27973.8 1563.68   3
   3   3  -6 30908.3 1290.43   6
  -3   3   5 52728.6 1832.85   8
   3  -3  -5 51547.0 2000.16   3
   3   3  -5 51000.3 2135.91   5
   3   3  -5 51993.2 2084.28   3
  -3   3   5 53929.7 2220.01   1
   3   3  -5 53113.8 1646.25   6
   3  -3  -5 51873.5 2094.51   7
  -3   3   5 51597.5 2243.98   9
  -3  -3   5 52097.1 1903.83   4
   3   3  -4 2923.49 443.575   3
  -3   3   4 4486.73 584.314   1
  -3   3   4 3906.89 560.242   9
   3   3  -4 3737.12 512.531   5
   3  -3  -4 2957.73 464.581   7
  -3   3   4 3214.36 436.249   8
   3  -3  -4 3914.09 477.068   3
  -3  -3   4 3211.62 439.926   4
  -3   3   3 26884.3 1365.11   9
   3   3  -3 27499.4 1293.55   5
   3  -3  -3 26528.0 1147.57   3
   3   3  -3 27091.7 1289.90   3
   3  -3  -3 25535.9 1313.45   7
  -3   3   3 27895.3 1276.09   8
  -3   3   3 27991.3 1401.71   1
  -3  -3   3 27538.2 1300.60   4
  -3   3   2 7606.40 657.470   9
   3   3  -2 6447.38 576.505   5
   3  -3  -2 7652.71 683.743   7
   3   3  -2 6952.30 593.932  10
   3  -3  -2 7213.37 507.085   3
   3   3  -2 7326.83 400.625   7
  -3   3   2 7108.90 632.776   8
  -3  -3   2 7786.51 672.774   4
  -3   3   1 27336.3 1074.38   5
  -3   3   1 26887.8 1201.31   9
  -3   3   1 28579.1 1317.78   8
  -3  -3   1 28249.8 1313.18   4
   3   3  -1 28181.5 1191.20  10
   3  -3  -1 26652.2 958.080   3
   3  -3  -1 27836.7 1329.32   7
   3   3  -1 27007.1 1179.94   5
   3   3   0 45347.0 1589.41   5
   3   3   0 46824.8 1325.84   2
   3  -3   0 44718.3 1743.27   7
   3   3   0 46461.8 1607.22  10
  -3   3   0 46460.6 1453.87   5
   3  -3   0 44763.5 1380.06  10
  -3   3   0 44413.4 1725.64   8
  -3  -3   0 45574.1 1749.12   4
   3   3   1 29803.8 1278.88   5
  -3   3  -1 30463.7 1175.62   5
   3   3   1 30013.8 1159.32   2
   3  -3   1 28807.7 1083.57  10
  -3   3  -1 28986.5 1348.36   8
  -3  -3  -1 31412.1 1401.17   4
  -3   3  -1 27899.5 1354.74   6
   3  -3   1 29429.8 1386.69   7
   3   3   1 29708.8 1276.13  10
  -3  -3  -2 22746.8 1198.86   6
  -3   3  -2 24652.8 1119.76   5
   3  -3   2 23971.9 1033.51  10
  -3   3  -2 24216.7 1244.14   8
   3   3   2 24093.2 1203.27  10
   3   3   2 24216.2 1149.73   2
  -3  -3  -2 23168.0 1210.56   4
  -3   3  -2 22161.2 1249.96   6
  -3  -3  -3 21584.5 1268.90   6
   3   3   3 20099.3 1167.02  10
  -3   3  -3 20606.9 1128.30   5
  -3   3  -3 19894.6 1125.90   8
   3  -3   3 21090.6 1038.48  10
   3   3   3 21917.5 1194.16   2
  -3  -3  -3 20351.6 1142.43   4
  -3   3  -3 17816.6 1192.73   6
  -3   3  -4 51472.4 2014.45   5
  -3  -3  -4 46312.1 1827.34   4
  -3   3  -4 47247.0 1826.93   8
   3   3   4 48155.9 2003.22  10
   3   3   4 44212.6 1948.68   2
   3  -3   4 46217.5 1788.51  10
  -3   3  -4 49401.2 2147.17   6
  -3  -3  -4 47857.5 2102.53   6
   3   3   5 3103.13 425.365   9
  -3   3  -5 3441.68 571.197   5
   3  -3   5 2906.89 476.049  10
  -3   3  -5 3184.45 476.201   8
   3   3   5 3186.59 544.652  10
  -3   3  -5 4038.66 654.005   6
   3   3   5 3356.12 583.750   2
  -3  -3  -5 2627.61 543.206   6
  -3  -3  -5 3854.01 522.792   4
   3  -3   6 11000.1 891.371   9
   3  -3   6 11134.7 969.528  10
   3   3   6 11312.2 1065.00  10
   3   3   6 13279.6 957.973   9
  -3  -3  -6 10008.9 1091.66   6
  -3   3  -6 10267.9 799.052   8
   3  -3   6 10289.8 1007.96   2
  -3  -3  -6 11920.5 885.731   4
   3   3   6 10314.3 1034.46   2
  -3   3  -6 11512.4 1139.66   6
  -3  -3  -7 246.894 330.417   6
   3   3   7 669.697 377.731  10
   3  -3   7 163.431 172.170  10
   3  -3   7 401.132 257.591   9
   3   3   7 125.241 226.461   2
   3  -3   7 667.777 345.110   2
   3   3   7 566.930 271.342   9
  -3   3  -7 468.360 391.724   6
  -3   3  -7 646.041 250.407   8
   3  -3   8 266.367 287.696   2
   3   3   8-108.891 245.804   2
   3  -3   8 72.5196 304.715  10
   3  -3   8 267.984 191.971   9
  -3  -3  -8 294.659 350.715   6
   3   3   8-68.4290 212.663   9
  -3   3  -8 405.043 402.792   6
   3   3   8-70.4402 217.701  10
   3   3   9 494.933 381.460  10
   3  -3   9 509.852 417.047  10
   3  -3   9 746.925 421.961   2
   3   3   9 704.404 424.588   2
  -3  -3  -9 676.778 457.466   6
  -3   3  -9 122.457 283.955   6
   3  -3   9 734.047 422.088   9
   3   3   9 647.196 338.365   9
   3  -3  10 6866.44 1023.69  10
   3  -3  10 8272.21 1141.60   2
  -3  -3 -10 6581.46 1123.83   6
   3   3  10 7990.16 1188.03   2
  -3   3 -10 8354.82 1228.33   6
   3   3  10 8174.96 1169.34  10
  -3  -3 -11 357.609 392.243   6
   3  -3  11 1377.14 549.312  10
   3  -3  11 889.289 456.238   2
  -3   3 -11 397.948 587.905   6
   3   3  11 327.946 340.319  10
   3   3  11 1520.05 610.990   2
   3   3  12 5538.33 1117.01   2
   3  -3  12 5795.41 1049.57  10
  -3   3 -12 5014.43 1082.41   6
  -3  -3 -12 7606.97 1360.86   6
   3  -3  12 6019.61 1129.03   2
   3   3  12 6405.19 1149.10  10
   3  -4 -13 1538.27 632.368   6
  -3   4  13 437.350 427.251   1
  -3   4  13 1277.36 623.909   9
  -3  -4  13 1490.39 762.634   9
   3  -4 -13 613.305 397.629   3
   3   4 -13 1266.15 628.389   3
   3  -4 -12 1516.82 575.463   6
   3   4 -12 1034.49 453.924   3
  -3   4  12 3435.06 957.717   9
  -3  -4  12 3375.33 881.773   9
  -3   4  12 1851.23 676.308   1
   3  -4 -12 2492.93 745.687   3
  -3   4  11 1045.61 615.407   9
  -3  -4  11 753.032 401.949   9
  -3   4  11 1305.94 629.142   1
   3   4 -11 646.210 417.469   3
   3  -4 -11 683.510 468.390   3
   3  -4 -11 365.917 435.663   6
   3   4 -10 2236.26 580.145   3
  -3   4  10 3005.63 792.022   9
   3  -4 -10 2680.32 660.380   6
   3  -4 -10 2985.93 678.911   3
  -3   4  10 1669.79 562.584   1
  -3  -4  10 3034.98 752.976   9
   3   4  -9 1337.98 423.267   6
  -3   4   9 833.478 359.867   1
  -3   4   9 417.832 388.602   9
   3  -4  -9 673.455 359.884   6
  -3  -4   9 655.037 448.483   9
   3  -4  -9 1239.24 506.699   7
   3  -4  -9 499.586 359.040   3
   3   4  -9 407.713 328.688   3
   3  -4  -8 7766.23 935.997   6
  -3   4   8 7312.41 999.236   1
  -3   4   8 8456.83 1071.40   9
  -3  -4   8 6823.13 967.690   9
   3   4  -8 7892.31 1011.05   5
   3  -4  -8 9010.35 988.636   3
   3  -4  -8 7416.69 925.815   7
  -3  -4   8 9325.37 852.118   4
   3   4  -8 8724.79 840.206   6
   3   4  -8 6724.67 861.828   3
   3   4  -7 644.561 249.826   6
   3   4  -7 563.909 418.385   5
  -3   4   7 380.950 326.573   1
  -3  -4   7 779.888 270.773   4
  -3  -4   7 810.493 335.037   9
   3  -4  -7 960.050 345.383   3
  -3   4   7 616.964 403.585   9
   3  -4  -7 760.424 442.853   7
  -3  -4   7 767.944 198.548   2
   3   4  -7 803.223 363.297   3
   3   4  -6 5593.56 698.702   3
   3   4  -6 5341.81 566.649   6
   3   4  -6 5084.42 739.975   5
   3  -4  -6 5475.33 672.422   3
  -3   4   6 5225.20 758.558   1
   3  -4  -6 6214.73 791.046   7
  -3  -4   6 6215.43 454.283   2
  -3  -4   6 5824.92 672.384   4
  -3   4   6 5365.27 597.814   8
  -3   4   6 5484.81 794.318   9
   3  -4  -6 4748.80 425.462   4
   3   4  -5 33337.2 1767.43   5
  -3   4   5 32026.3 1812.60   9
  -3   4   5 33841.0 1555.24   8
   3  -4  -5 33574.7 1561.52   3
  -3   4   5 33090.0 1803.48   1
   3   4  -5 31343.9 1589.27   3
   3  -4  -5 29651.6 1672.31   7
  -3  -4   5 35217.8 990.604   2
  -3  -4   5 31719.5 1579.25   4
  -3  -4   4 4833.89 596.976   4
  -3   4   4 4646.83 563.023   8
   3   4  -4 4257.17 556.118   3
  -3   4   4 3828.41 597.976   1
   3  -4  -4 4241.42 601.518   7
   3   4  -4 4646.73 605.791   5
  -3   4   4 4752.88 629.594   9
   3  -4  -4 4245.02 482.910   3
   3  -4  -3 1828.69 302.277   3
   3   4  -3 1454.91 370.937   5
   3   4  -3 1769.87 374.096   3
  -3   4   3 1200.25 359.878   9
  -3   4   3 1546.45 341.080   8
  -3  -4   3 1713.71 364.097   4
   3  -4  -3 1820.51 415.410   7
   3   4  -3 1359.80 157.517   7
   3   4  -2 107419. 3096.20   5
  -3   4   2 106499. 2968.59   5
  -3   4   2 109925. 3201.65   9
   3  -4  -2 112944. 2575.37   3
   3  -4  -2 110782. 3273.40   7
  -3  -4   2 109587. 3206.99   4
   3   4  -2 114359. 2949.82  10
  -3   4   2 107520. 3161.92   8
   3  -4  -1 7.29337 100.154   3
   3   4  -1 112.613 102.124   1
  -3   4   1 390.510 254.490   8
   3   4  -1 233.377 209.706   5
  -3   4   1 107.790 184.264   5
   3   4  -1 58.1132 148.833  10
   3  -4  -1 42.0615 191.046   7
  -3  -4   1 93.8400 94.1994   2
  -3  -4   1 12.5331 160.109   4
   3   4   0 90134.9 2689.62   5
  -3   4   0 89509.1 2803.78   8
   3   4   0 92388.8 2522.03  10
   3  -4   0 89168.8 2819.58   7
  -3  -4   0 90166.0 2805.81   4
   3  -4   0 87163.5 2121.39  10
  -3   4   0 89628.7 2534.48   5
   3   4   1 732.336 227.714  10
   3  -4   1 599.781 154.192  10
  -3   4  -1 391.554 211.347   8
  -3   4  -1 350.101 166.491   5
   3   4   1 640.342 263.277   5
  -3  -4  -1 1110.22 358.771   4
   3  -4   1 798.958 280.347   7
   3  -4   2 35742.6 1262.84  10
  -3   4  -2 33272.7 1599.72   8
  -3   4  -2 38570.6 1577.79   5
   3  -4   2 35628.2 1668.48   7
  -3  -4  -2 33938.2 1608.90   4
   3   4   2 36242.2 1517.38   2
   3   4   2 37993.4 1591.64  10
  -3   4  -2 37510.6 1778.69   6
  -3   4  -3 79122.0 2572.17   5
  -3   4  -3 74921.1 2546.36   8
   3   4   3 76557.9 2539.00  10
   3  -4   3 77427.3 2653.28   7
  -3  -4  -3 76817.6 2556.79   4
   3   4   3 76595.1 2557.17   2
  -3   4  -3 68124.3 2665.53   6
   3  -4   3 73573.8 2169.58  10
  -3  -4  -4 624.712 274.591   4
  -3   4  -4 762.054 369.923   6
  -3  -4  -4 625.086 321.309   6
   3  -4   4 914.488 239.629  10
  -3   4  -4 1014.00 312.591   5
  -3   4  -4 733.245 260.926   8
   3   4   4 365.783 269.427   2
   3   4   4 990.786 293.286  10
  -3  -4  -5 2530.20 476.124   4
   3   4   5 1887.44 448.573  10
  -3  -4  -5 2707.32 613.285   6
  -3   4  -5 2980.13 596.947   6
  -3   4  -5 3106.67 590.574   5
  -3   4  -5 2810.14 464.977   8
   3   4   5 3309.48 571.826   2
   3  -4   5 2558.60 431.615  10
  -3   4  -6 55129.6 2524.03   5
   3   4   6 53240.8 2196.13   9
   3  -4   6 49441.5 2138.63  10
  -3   4  -6 55847.6 2142.70   8
  -3  -4  -6 52088.5 2078.88   4
   3   4   6 50542.8 2435.30   2
   3   4   6 52531.1 2432.08  10
  -3   4  -6 52129.8 2574.57   6
  -3  -4  -6 57125.0 2713.52   6
   3  -4   7 6724.42 808.222  10
   3   4   7 5915.79 751.859   9
   3  -4   7 6248.23 765.096   9
  -3   4  -7 5554.53 897.661   6
  -3  -4  -7 5592.84 920.812   6
   3   4   7 7128.25 941.342  10
  -3  -4  -7 6588.28 700.704   4
   3   4   7 6826.56 937.114   2
   3  -4   7 5611.35 807.576   2
  -3   4  -7 7361.39 710.553   8
   3  -4   8 36380.3 2188.61   2
   3   4   8 32066.0 2121.14  10
   3  -4   8 38648.7 2034.45   9
   3  -4   8 38531.6 2109.96  10
   3   4   8 33234.4 2200.72   2
   3   4   8 42118.8 2097.85   9
  -3   4  -8 35172.7 2304.90   6
  -3  -4  -8 35168.4 2341.89   6
   3   4   9 770.724 347.422   9
   3  -4   9 120.496 327.018   2
  -3  -4  -9 1418.76 503.637   6
   3   4   9 308.339 337.701  10
   3  -4   9 55.4082 357.301  10
   3  -4   9 768.153 365.335   9
  -3   4  -9 1490.32 598.511   6
   3   4   9 841.939 460.675   2
   3   4  10 35974.0 2511.03  10
  -3   4 -10 39181.6 2670.95   6
   3  -4  10 35199.9 2399.79   2
   3  -4  10 37237.9 2362.38  10
   3   4  10 38295.1 2633.39   2
  -3  -4 -10 35512.5 2617.10   6
   3   4  11 12389.8 1553.01  10
   3  -4  11 13361.6 1496.34  10
   3  -4  11 10756.7 1381.30   2
  -3   4 -11 13905.0 1678.32   6
  -3  -4 -11 14933.1 1751.66   6
   3  -4  12 1804.30 617.192  10
   3  -4  12 680.392 417.444   2
  -3   4 -12 1971.70 732.228   6
   3  -5 -13 8381.38 1340.13   6
   3   5 -13 8719.37 1283.42   3
  -3  -5  12 2714.51 801.740   9
   3  -5 -12 1938.39 695.518   3
  -3   5  12 3177.83 849.273   1
   3   5 -12 2852.03 727.658   3
  -3   5  12 3516.82 978.752   9
   3  -5 -12 1404.70 538.388   6
   3  -5 -11 7415.44 1106.77   3
  -3  -5  11 6373.20 1109.37   9
  -3   5  11 5623.29 1110.00   9
   3  -5 -11 6438.27 1070.59   6
  -3   5  11 5608.48 1032.02   1
   3   5 -11 5831.08 964.732   3
   3  -5 -10 2859.31 733.180   7
   3  -5 -10 1980.40 622.388   6
  -3   5  10 1751.74 731.200   1
  -3   5  10 2363.60 701.708   9
  -3  -5  10 2677.14 749.452   9
   3  -5 -10 2409.15 667.656   3
   3   5 -10 2129.74 641.380   3
   3  -5  -9 10819.8 1243.55   6
   3   5  -9 11544.2 1351.89   5
  -3  -5   9 13012.7 1460.37   9
  -3   5   9 8417.76 1178.32   1
  -3   5   9 8934.07 1236.32   9
   3  -5  -9 11786.3 1221.10   3
   3   5  -9 10437.8 1143.24   3
   3  -5  -9 10119.5 1181.65   7
  -3  -5   9 10865.4 1018.99   4
   3   5  -8 1151.80 415.208   5
  -3  -5   8 2098.58 500.300   4
  -3   5   8 3062.04 692.970   9
  -3  -5   8 1655.73 503.799   9
  -3   5   8 839.238 383.324   1
   3  -5  -8 1563.72 468.679   3
   3  -5  -8 1625.62 521.416   7
   3   5  -8 3019.13 534.753   6
   3   5  -8 2619.03 549.485   3
  -3  -5   7 1366.08 389.356   4
  -3   5   7 1288.79 551.833   9
   3   5  -7 1623.45 522.812   5
   3  -5  -7 1303.84 451.724   7
  -3   5   7 1701.05 569.378   1
   3  -5  -7 1429.54 419.272   3
   3   5  -7 1627.52 446.187   3
   3   5  -6 42.1065 211.581   3
  -3   5   6 39.4884 263.090   1
  -3   5   6-185.349 280.024   9
   3  -5  -6 206.606 127.618   4
   3  -5  -6 77.7408 196.749   3
   3   5  -6 214.545 271.268   5
   3  -5  -6 373.568 359.464   7
  -3  -5   6 18.6956 195.375   4
  -3   5   5 16800.1 1354.61   9
   3   5  -5 17253.1 1329.83   5
  -3   5   5 16160.6 1151.66   8
   3  -5  -5 18367.6 1119.67   3
   3   5  -5 17648.7 1173.75   3
  -3   5   5 18254.4 1398.61   1
  -3  -5   5 19324.2 674.918   2
   3  -5  -5 16992.2 1326.33   7
  -3  -5   5 18765.5 1292.70   4
   3  -5  -5 20570.6 1097.07   4
  -3   5   4 38828.9 1976.76   9
   3   5  -4 35195.1 1845.64   5
  -3   5   4 39479.9 1842.91   8
  -3  -5   4 34097.2 871.069   2
   3   5  -4 39327.8 1700.67   3
   3  -5  -4 37978.6 1945.70   7
   3  -5  -4 40122.1 1553.34   3
  -3   5   4 39738.8 2011.78   1
  -3  -5   4 38937.1 1871.69   4
   3   5  -3 42572.9 1942.80   5
  -3   5   3 41098.6 1897.45   8
   3  -5  -3 43391.5 1443.92   3
   3   5  -3 45203.2 1750.19   3
   3  -5  -3 43155.9 2013.30   7
  -3  -5   3 40063.4 1884.61   4
  -3   5   3 40519.6 1958.07   9
  -3  -5   2 1529.32 383.175   4
  -3   5   2 1455.56 362.354   5
  -3   5   2 1141.84 343.545   8
   3   5  -2 1836.87 433.065   5
  -3  -5   2 1246.19 160.693   2
   3  -5  -2 882.291 362.652   7
   3  -5  -2 1449.41 213.375   3
  -3   5   1 102656. 3022.40   5
   3  -5  -1 101772. 2090.74   3
   3   5  -1 103648. 2752.83  10
  -3   5   1 100185. 3216.16   8
   3  -5  -1 99538.7 3224.89   7
   3   5  -1 98507.1 3123.12   5
  -3  -5   1 98832.1 3196.46   4
  -3   5   0 25427.5 829.519  10
  -3  -5   0 25470.8 1457.20   4
   3   5   0 26301.4 1105.11   1
  -3   5   0 25598.5 1453.86   8
  -3   5   0 25183.1 1326.82   5
   3  -5   0 22404.9 619.272   3
   3   5   0 25083.7 1178.36  10
   3   5   0 25257.7 1411.21   5
   3  -5   0 26773.5 1480.36   7
   3   5   1 12354.5 994.820   5
   3  -5   1 9804.56 412.365   3
  -3  -5  -1 11031.3 950.468   4
   3  -5   1 11065.3 552.351  10
   3  -5   1 11592.3 979.448   7
  -3   5  -1 12536.9 929.404   5
  -3   5  -1 10775.1 942.302   8
   3   5   1 12461.4 837.998  10
   3  -5   2 42381.0 1314.42  10
  -3   5  -2 38817.0 1766.87   5
  -3   5  -2 39009.7 1862.70   8
   3   5   2 38994.4 1887.85   5
   3  -5   2 38211.9 1848.01   7
  -3  -5  -2 38518.1 1842.44   4
   3   5   2 41135.3 1699.68  10
  -3   5  -3 1324.25 409.116   6
  -3   5  -3 1471.84 372.847   5
  -3   5  -3 803.193 292.600   8
  -3  -5  -3 1441.43 396.001   4
   3  -5   3 1109.70 365.648   7
   3   5   3 1679.50 367.804  10
   3  -5   3 1112.22 228.908  10
  -3  -5  -4 9438.21 994.198   6
   3  -5   4 10336.0 750.424  10
  -3   5  -4 10502.6 975.673   5
  -3   5  -4 9937.57 936.970   8
   3   5   4 9736.99 897.233  10
   3  -5   4 10845.9 978.737   7
  -3  -5  -4 10102.8 913.294   4
  -3   5  -4 9601.78 1031.67   6
  -3  -5  -5 13255.6 1257.46   6
   3  -5   5 14097.2 965.483  10
  -3   5  -5 13092.9 1171.30   5
   3  -5   5 12107.1 1078.23   7
  -3   5  -5 14167.3 1108.51   8
   3   5   5 14805.8 1175.46  10
  -3  -5  -5 13140.1 1042.57   4
  -3   5  -5 13718.0 1285.72   6
   3   5   6 8037.45 938.447  10
  -3   5  -6 10898.3 1126.58   5
   3  -5   6 9435.49 870.547  10
  -3   5  -6 9725.36 910.651   8
  -3  -5  -6 9300.63 879.332   4
  -3   5  -6 8670.43 1065.82   6
  -3  -5  -6 8717.41 1091.77   6
   3  -5   7 45321.1 2124.23  10
   3   5   7 42277.9 2347.14  10
  -3   5  -7 41923.5 2480.46   6
  -3   5  -7 45199.1 2482.08   5
  -3   5  -7 44792.2 2013.33   8
   3  -5   7 38681.8 2220.70   2
  -3  -5  -7 38038.5 2427.65   6
   3  -5   8 14146.9 1246.38  10
   3   5   8 13926.6 1270.43   9
   3  -5   8 14910.1 1314.18   9
   3   5   8 13043.1 1345.61  10
   3  -5   8 11565.6 1224.65   2
  -3   5  -8 13037.4 1442.93   6
  -3  -5  -8 12009.8 1432.95   6
   3  -5   9 13864.1 1320.59   9
   3   5   9 12660.1 1403.62  10
   3   5   9 14965.1 1371.91   9
   3  -5   9 13992.4 1446.54   2
   3  -5   9 15068.0 1375.46  10
  -3   5  -9 14436.9 1579.69   6
  -3  -5  -9 14149.1 1626.15   6
   3   5  10 17310.6 1747.87  10
   3  -5  10 15789.5 1514.10  10
   3  -5  10 17878.3 1697.70   2
  -3   5 -10 17640.9 1825.38   6
  -3  -5 -10 18293.9 1946.74   6
  -3  -5 -11 7782.20 1319.97   6
   3  -5  11 7765.67 1148.01  10
   3  -5  11 7789.19 1191.69   2
   3   5  11 10295.1 1432.52  10
  -3   5 -11 5760.11 1148.03   6
   3  -5  12-182.661 332.790   2
   3   6 -12 18316.9 1774.42   3
  -3   6  12 17645.5 1990.41   9
  -3   6  12 21343.8 2163.87   1
  -3  -6  12 22886.4 2265.32   9
   3  -6 -12 21435.1 2078.10   6
   3  -6 -11 2882.92 741.686   6
  -3   6  11 5362.01 1054.98   1
   3   6 -11 4276.59 847.931   3
  -3  -6  11 3319.89 887.110   9
   3   6 -10 4969.44 1013.01   5
  -3  -6  10 6717.26 1123.20   9
   3  -6 -10 5894.30 973.698   3
   3  -6 -10 5257.58 965.978   7
  -3   6  10 4748.35 977.816   1
   3   6 -10 5010.52 844.038   3
   3  -6 -10 5252.23 985.594   6
  -3   6  10 6286.76 1079.93   9
  -3   6   9 12825.0 1501.45   9
  -3  -6   9 11000.2 1372.63   9
   3  -6  -9 12863.6 1292.22   3
  -3  -6   9 12733.8 1208.03   4
   3   6  -9 13114.4 1278.96   3
   3  -6  -9 12229.8 1382.66   7
  -3   6   9 13410.7 1508.67   1
   3   6  -9 12319.4 1483.46   5
  -3  -6   8 1652.39 547.301   4
   3   6  -8 1399.49 512.712   5
  -3   6   8 2590.21 703.147   9
   3  -6  -8 1921.99 536.943   3
   3  -6  -8 2421.55 669.517   7
   3   6  -8 924.023 338.953   3
  -3   6   8 1440.11 579.299   1
   3  -6  -7 28357.6 1684.67   3
  -3   6   7 28236.9 2022.18   9
   3   6  -7 26029.7 1954.85   5
   3   6  -7 25967.6 1640.17   3
   3  -6  -7 29114.1 1985.37   7
  -3   6   7 26283.6 1954.32   1
  -3  -6   7 30473.1 1840.82   4
  -3   6   6 416.899 296.640   9
   3  -6  -6 166.048 211.046   4
   3   6  -6 240.244 282.976   5
  -3  -6   6 627.144 345.881   4
  -3   6   6 544.279 344.364   1
   3  -6  -6 182.565 249.833   3
   3  -6  -6 1081.11 428.858   7
   3   6  -6 51.3311 159.769   3
   3  -6  -5 4082.67 798.977   7
  -3   6   5 3123.80 650.752   9
   3  -6  -5 3632.41 505.041   4
  -3  -6   5 3472.79 631.180   4
   3   6  -5 3733.23 533.509   3
  -3   6   5 3742.78 686.959   1
   3   6  -5 2920.95 609.732   5
   3  -6  -5 3873.89 515.957   3
  -3   6   4 100094. 3633.54   9
   3   6  -4 98484.4 3543.58   5
   3  -6  -4 105362. 2799.85   3
  -3   6   4 102721. 3461.76   8
   3   6  -4 100689. 3056.35   3
   3  -6  -4 95524.6 3567.33   7
  -3  -6   4 103362. 3538.41   4
   3   6  -3 26.6578 165.066   3
  -3   6   3 8.44536 232.196   8
  -3   6   3 455.394 327.849   5
   3   6  -3 149.444 267.818   5
   3  -6  -3 165.510 129.746   3
   3  -6  -3 500.502 292.634   7
  -3  -6   3 225.606 295.646   4
  -3  -6   2 1254.98 435.933   4
  -3   6   2 1058.98 383.203   8
   3   6  -2 1218.31 405.783   5
  -3   6   2 728.653 351.858   5
   3  -6  -2 585.340 123.687   3
   3  -6  -2 824.988 348.989   7
   3   6  -2 915.187 269.787   3
   3   6  -1 11753.4 789.911  10
   3   6  -1 11893.4 1051.58   5
  -3   6   1 10768.0 1031.06   8
  -3  -6   1 10760.7 1030.54   4
  -3   6   1 11045.8 976.507   5
   3  -6  -1 11691.3 1063.57   7
  -3  -6   0 135.760 261.774   4
  -3   6   0 24.9247 260.046   8
   3   6   0 213.232 156.907  10
  -3   6   0 289.344 275.257   5
   3   6   0 101.960 234.235   5
   3   6   0 389.142 239.000   1
   3  -6   0 524.477 276.919   7
   3   6   1 43042.1 2081.68   5
  -3  -6  -1 42756.7 2064.62   4
   3   6   1 39457.5 1695.23   1
  -3   6  -1 40565.7 1918.24   5
  -3   6  -1 38815.9 2004.68   8
   3   6   1 41489.1 1654.82  10
   3  -6   1 37989.7 1951.49   7
   3   6   2 154.098 143.110  10
  -3   6  -2 209.095 232.127   8
   3   6   2 293.605 253.402   1
   3  -6   2-59.3498 193.064   7
  -3   6  -2 265.630 201.228   5
   3   6   2 488.301 325.128   5
  -3  -6  -2 981.538 387.829   4
   3  -6   2 360.613 110.035  10
   3   6   3 4596.12 609.856  10
   3  -6   3 3506.77 351.026  10
  -3  -6  -3 3009.53 591.060   4
  -3   6  -3 3589.34 609.237   5
  -3   6  -3 3190.45 591.058   8
   3   6   3 3837.82 634.595   5
   3  -6   3 2544.75 524.122   7
  -3   6  -4 44685.5 2248.78   5
  -3   6  -4 42998.5 2145.52   8
   3   6   4 48062.8 2128.11  10
   3  -6   4 46649.2 2220.20   7
  -3  -6  -4 43866.7 2122.95   4
   3  -6   4 46987.5 1645.07  10
  -3  -6  -5 10046.5 1165.58   6
   3   6   5 11169.3 1050.20  10
   3  -6   5 11252.4 835.177  10
  -3   6  -5 10490.7 1107.18   5
  -3   6  -5 13116.5 1140.01   8
   3  -6   5 11515.5 1084.77   7
  -3  -6  -5 11649.0 1068.50   4
  -3   6  -5 12019.6 1257.81   6
  -3   6  -6 469.261 400.380   6
  -3  -6  -6 324.685 230.059   4
   3   6   6 409.756 279.475  10
  -3  -6  -6 884.100 525.609   6
  -3   6  -6 55.3207 224.570   5
  -3   6  -6 746.335 315.273   8
   3  -6   6 251.308 222.323   7
  -3   6  -7 2.33847 312.014   6
  -3  -6  -7 718.786 503.288   6
  -3   6  -7 337.391 328.417   8
  -3   6  -7-439.504 348.153   5
   3   6   7 272.192 289.390  10
   3  -6   7 429.814 377.207   7
  -3   6  -8 871.201 483.279   6
  -3  -6  -8 1121.24 500.840   6
  -3   6  -8 539.060 364.916   5
   3   6   8 961.673 464.651  10
   3  -6   8 1661.40 526.711   7
   3  -6   8 1574.24 535.486   2
   3  -6   9 570.283 422.345   2
  -3   6  -9 987.288 598.123   6
  -3  -6  -9 633.949 458.892   6
   3  -6   9 1631.96 514.921   4
   3   6   9 892.532 465.629  10
   3  -6   9 966.213 466.792   9
  -3  -6 -10 213.265 551.192   6
   3   6  10-31.3563 218.586  10
  -3   6 -10 740.357 467.019   6
   3  -6  10 312.110 343.316   2
  -3   6 -11 197.013 401.251   6
   3  -6  11 37.1286 276.204   2
   3   6  11-267.417 347.222  10
   3  -7 -11 7127.07 1227.43   6
   3   7 -11 6644.52 1235.19   5
  -3  -7  11 6898.69 1254.63   9
  -3   7  11 5466.94 1140.71   1
  -3   7  11 6770.86 1251.97   9
  -3   7  10 7753.79 1262.67   9
  -3   7  10 8987.60 1366.21   1
   3  -7 -10 8421.46 1283.17   6
   3   7 -10 8018.83 1284.43   5
   3  -7 -10 7191.70 1197.67   7
  -3  -7  10 6999.81 1220.67   9
  -3   7   9 1767.74 678.406   1
   3   7  -9 1252.71 623.736   5
  -3   7   9 1177.43 516.873   9
  -3  -7   9 1656.63 527.022   4
   3  -7  -9 1615.95 600.834   7
  -3   7   8 29732.7 2258.30   9
   3   7  -8 26771.7 2138.70   5
  -3   7   8 28395.8 2210.76   1
   3  -7  -8 30913.9 2225.31   7
  -3  -7   8 27681.4 1912.40   4
   3   7  -8 22900.4 1634.70   3
   3   7  -7 1640.85 570.381   5
  -3   7   7 1356.69 535.969   1
  -3  -7   7 2333.13 595.953   4
  -3   7   7 3026.33 702.785   9
   3  -7  -7 1744.45 604.077   7
   3   7  -7 3139.58 596.402   3
   3   7  -6 40257.0 2441.96   5
   3   7  -6 40907.1 1965.28   3
  -3   7   6 40739.9 2486.23   9
   3  -7  -6 41149.8 2466.43   7
  -3   7   6 38275.5 2406.94   1
  -3  -7   6 41459.0 2312.13   4
   3  -7  -6 41445.9 1894.09   4
   3  -7  -5 11362.3 1229.23   7
  -3   7   5 11141.2 1217.90   9
   3   7  -5 12005.3 1253.49   5
   3   7  -5 11391.5 951.616   3
  -3  -7   5 10924.8 1163.51   4
   3  -7  -5 10689.4 964.005   4
   3   7  -4 2329.39 434.160   3
   3  -7  -4 2243.38 471.330   4
   3   7  -4 2232.46 543.266   5
  -3  -7   4 1546.53 506.734   4
   3  -7  -4 2754.46 604.468   7
  -3   7   4 1651.16 511.949   5
  -3   7   3 9017.69 997.423   5
  -3   7   3 11507.6 1143.54   8
   3   7  -3 10692.8 1112.04   5
   3   7  -3 12107.1 894.844   3
   3  -7  -3 10680.1 1124.99   7
  -3  -7   3 10721.9 1128.49   4
   3  -7  -3 10696.1 1012.60   4
   3   7  -2 456.349 370.678   5
   3  -7  -2 756.730 379.686   7
   3   7  -2 81.9704 182.872   3
  -3   7   2 123.524 288.453   8
  -3  -7   2-120.861 255.747   4
  -3   7   2-264.468 221.196   5
  -3   7   1 4259.03 723.461   8
   3   7  -1 4257.73 719.916   5
  -3  -7   1 3796.27 657.335   4
  -3   7   1 3209.20 604.931   5
   3  -7  -1 3716.22 656.441   7
   3   7  -1 3254.03 422.482  10
  -3   7   0 46043.3 2218.66   5
   3   7   0 45803.3 2305.36   5
   3  -7   0 44422.3 2252.78   7
  -3   7   0 43580.0 2288.25   8
   3   7   0 45858.3 1696.11  10
  -3  -7   0 42680.3 2249.95   4
   3   7   1 435.123 327.980   5
  -3  -7  -1 843.930 429.298   4
  -3   7  -1 345.978 281.202   8
   3   7   1 961.673 329.145   1
  -3   7  -1 852.635 369.334   5
   3  -7   1 466.766 296.459   7
   3   7   1 672.167 213.329  10
  -3   7  -2 20144.0 1460.34   5
   3   7   2 22528.6 1640.38   5
  -3   7  -2 19084.3 1481.83   8
   3   7   2 20901.4 1358.90   1
   3  -7   2 20816.2 1497.02   7
  -3  -7  -2 22362.9 1558.15   4
   3   7   2 22822.6 1271.15  10
   3   7   3 14377.7 1211.40   1
  -3   7  -3 13009.9 1210.61   5
   3   7   3 14820.1 1366.63   5
  -3   7  -3 12742.8 1198.09   8
   3  -7   3 14635.6 1254.80   7
  -3  -7  -3 13129.9 1194.65   4
   3   7   3 15455.0 1108.27  10
   3   7   4 45917.2 2125.93  10
   3   7   4 45648.9 2358.86   1
   3   7   4 46412.4 2551.87   5
  -3   7  -4 46850.4 2370.27   8
   3  -7   4 44193.0 2267.91   7
  -3  -7  -4 46667.5 2310.70   4
  -3   7  -4 47505.2 2455.33   5
   3   7   5 415.320 262.173  10
  -3  -7  -5 53.6651 234.787   4
  -3   7  -5 69.0897 235.899   8
  -3   7  -5 586.815 382.702   5
   3  -7   5 76.5925 197.319   7
  -3  -7  -6 2654.31 569.160   4
  -3  -7  -6 3419.19 769.665   6
  -3   7  -6 2886.50 699.340   5
   3   7   6 3003.81 604.410  10
   3  -7   6 4380.45 715.956   7
  -3   7  -7 1066.39 543.990   6
  -3  -7  -7 1812.17 646.691   6
   3   7   7 1223.30 459.200  10
  -3   7  -7 1178.83 566.201   5
   3  -7   7 1643.36 489.843   7
  -3   7  -8 58.1051 438.916   6
  -3  -7  -8 489.210 443.511   6
   3  -7   8 193.794 328.134   4
  -3   7  -8 845.332 464.245   5
   3   7   8 637.327 392.875  10
   3  -7   8 14.4350 281.892   2
  -3   7  -9 1047.76 573.493   6
  -3  -7  -9 825.911 535.703   6
   3   7   9 521.555 319.022  10
  -3   7  -9 2094.54 685.459   5
   3  -7   9 2153.82 658.796   4
   3  -7   9 763.829 403.079   2
  -3   7 -10 1923.05 719.370   6
  -3  -7 -10 674.008 542.272   6
   3  -7  10 1366.77 531.901   2
   3   7  10 295.419 301.640  10
  -3   8  10 5443.51 1129.81   9
  -3  -8  10 5423.60 1106.12   9
   3  -8 -10 5606.46 1139.14   6
   3  -8 -10 3893.87 977.142   7
  -3   8  10 8460.12 1394.20   1
   3   8 -10 7831.87 1365.15   5
  -3   8   9 714.355 624.437   9
  -3  -8   9-365.259 340.357   4
   3   8  -9 516.462 489.327   5
   3  -8  -9 394.577 544.449   7
  -3   8   9-457.869 455.328   1
   3   8  -8 788.391 450.233   5
  -3  -8   8-122.807 276.041   4
  -3   8   8 890.118 476.299   9
  -3   8   8 260.582 416.280   1
   3  -8  -8 466.084 439.385   7
  -3  -8   7 7401.02 1061.42   4
  -3   8   7 6424.48 1058.96   1
  -3   8   7 8746.38 1258.75   9
   3   8  -7 8324.49 1214.99   5
   3  -8  -7 6560.20 1043.62   7
  -3  -8   6 2489.63 608.122   4
   3   8  -6 1781.51 656.629   5
  -3   8   6 2627.35 729.630   5
   3  -8  -6 1168.13 516.864   7
  -3   8   5 9240.37 1173.68   5
   3   8  -5 10158.9 1232.71   5
   3  -8  -5 10358.4 1278.10   7
  -3  -8   5 9867.38 1177.12   4
   3  -8  -5 8479.50 928.000   4
  -3  -8   4 4806.99 819.859   4
  -3   8   4 6947.95 963.060   5
   3  -8  -4 6215.54 984.713   7
   3   8  -4 5708.74 910.606   5
   3  -8  -4 6353.34 829.139   4
  -3   8   3 12222.1 1252.28   5
   3  -8  -3 12744.1 1308.87   7
   3   8  -3 13109.5 1328.76   5
  -3  -8   3 12792.5 1285.61   4
   3  -8  -3 14515.9 1273.16   4
   3   8  -2 20461.9 1642.23   5
   3  -8  -2 20863.1 1647.87   7
  -3  -8   2 20079.9 1633.70   4
  -3   8   2 23052.4 1684.79   5
   3  -8  -2 20736.1 1549.47   4
   3  -8  -1 373.882 266.972   4
   3   8  -1-6.76972 245.511   5
  -3   8   1 153.417 297.900   5
   3  -8  -1-130.145 271.539   7
  -3  -8   1 772.949 485.121   4
   3   8   0 11738.9 1239.44   5
  -3   8   0 11930.4 1260.18   8
  -3   8   0 11034.7 1144.95   5
   3  -8   0 11438.5 1172.92   7
  -3  -8   0 10638.2 1165.95   4
  -3   8  -1 6494.81 876.451   5
   3   8   1 6741.24 940.727   5
   3  -8   1 7348.97 955.325   7
  -3   8  -1 6674.90 930.695   8
  -3  -8  -1 6742.42 945.045   4
   3   8   2 3649.11 610.264   1
  -3  -8  -2 3102.83 674.033   4
  -3   8  -2 3237.60 651.856   8
  -3   8  -2 2723.13 608.483   5
   3   8   2 2890.21 653.614   5
   3  -8   2 4032.07 708.851   7
  -3   8  -3 34843.4 2142.75   5
   3   8   3 33743.1 2217.63   5
   3   8   3 32578.5 1935.58   1
  -3   8  -3 32252.3 2083.49   8
   3  -8   3 37536.4 2148.25   7
  -3  -8  -3 37162.4 2173.67   4
  -3   8  -4 771.285 409.941   5
  -3  -8  -4 363.020 297.194   4
   3   8   4 1354.75 483.405   1
   3   8   4 221.831 460.380   5
   3  -8   4 799.462 380.500   7
   3   8   5 28066.4 2149.03   5
   3   8   5 30106.6 2068.60   1
  -3   8  -5 26888.8 2015.41   5
   3   8   5 25808.1 1684.22  10
   3  -8   5 30014.8 1928.69   7
  -3  -8  -5 27712.6 1870.42   4
   3  -8   5 27270.7 2012.23   4
   3   8   6 2165.17 644.096   5
   3   8   6 4211.71 730.597  10
  -3  -8  -6 2515.38 737.134   6
   3  -8   6 2154.27 646.812   4
  -3   8  -6 3049.27 722.173   5
  -3  -8  -6 2578.16 612.886   4
   3  -8   6 3282.97 651.831   7
   3   8   6 3423.87 767.285   1
   3   8   7 610.368 360.817  10
  -3  -8  -7 1148.26 571.939   6
   3  -8   7 673.596 418.620   4
  -3   8  -7 121.413 287.871   5
   3   8   7 950.682 592.141   1
   3   8   8 11628.0 1506.07   1
  -3   8  -8 14388.7 1668.97   5
   3  -8   8 15802.2 1532.10   2
   3   8   8 16476.0 1590.12  10
   3  -8   8 15042.6 1590.44   4
  -3  -8  -8 15449.6 1777.06   6
   3   8   9 87.9576 375.891   1
   3   8   9 423.416 369.712  10
   3  -8   9 317.532 330.838   4
  -3   8  -9 349.309 393.891   5
  -3  -8  -9 935.321 600.890   6
  -3  -9   9 1887.19 609.760   4
   3   9  -9 1114.40 650.306   5
  -3   9   9 770.246 559.572   1
   3  -9  -9 2126.23 723.060   7
  -3  -9   8 145.545 328.086   4
   3  -9  -8 609.821 497.406   7
   3   9  -8 398.948 444.247   5
  -3   9   8 621.900 578.295   5
  -3  -9   7 3355.24 795.604   4
   3   9  -7 5165.19 1061.27   5
  -3   9   7 3724.30 855.161   5
   3  -9  -7 4492.98 993.872   7
   3   9  -6 4247.47 909.654   5
  -3   9   6 4179.78 888.459   5
   3  -9  -6 4479.16 959.849   7
  -3  -9   6 3926.58 842.551   4
  -3  -9   5 1302.62 476.486   4
   3  -9  -5 1382.46 494.155   4
   3   9  -5 1686.60 632.766   5
  -3   9   5 1320.25 588.123   5
   3  -9  -5 1240.99 521.825   7
  -3  -9   4 1698.57 544.548   4
   3  -9  -4 1359.92 481.021   4
  -3   9   4 1111.33 419.357   5
   3  -9  -4 2824.42 719.777   7
   3   9  -4 1672.88 637.230   5
   3   9  -3 17771.4 1664.11   5
  -3   9   3 17804.7 1598.48   5
   3  -9  -3 19321.5 1716.78   7
  -3  -9   3 18693.9 1689.26   4
   3  -9  -3 20170.8 1606.95   4
  -3  -9   2 2917.17 692.808   4
   3   9  -2 5100.28 903.336   5
  -3   9   2 3830.83 785.135   5
   3  -9  -2 3189.02 735.018   7
   3  -9  -2 5770.19 895.951   4
  -3  -9   1 3290.71 757.771   4
   3   9  -1 4671.16 850.435   5
   3  -9  -1 5317.27 901.336   7
  -3   9   1 3217.60 703.114   5
   3  -9  -1 2467.05 616.993   4
  -3  -9   0 722.279 487.310   4
   3  -9   0 534.065 387.074   4
   3   9   0 754.376 438.763   5
  -3   9   0 141.613 362.136   5
   3  -9   0 165.975 299.690   7
   3   9   1 39142.9 2464.08   5
  -3   9  -1 36159.4 2283.54   5
   3  -9   1 38241.1 2282.47   7
  -3  -9  -1 36771.3 2351.46   4
   3  -9   1 33401.8 2251.19   4
   3  -9   2 1512.94 560.923   4
  -3  -9  -2 1342.73 475.777   4
   3  -9   2 1178.84 391.991   7
   3   9   2 2409.71 524.273   1
   3   9   2 1929.89 643.890   5
  -3   9  -2 1665.98 541.524   5
   3  -9   3 417.113 351.726   4
  -3  -9  -3 551.859 432.202   4
  -3   9  -3-80.8464 268.295   5
   3   9   3 621.728 298.018   1
   3   9   3-153.519 322.787   5
   3  -9   3 96.5496 311.205   7
  -3  -9  -4 4652.55 833.784   4
   3  -9   4 5748.22 974.578   4
   3   9   4 4747.07 948.861   5
   3  -9   4 2496.93 610.333   7
   3   9   4 4457.69 802.995   1
  -3   9  -4 3743.70 784.053   5
  -3  -9  -5 7897.03 1056.49   4
   3  -9   5 8675.19 1225.85   4
  -3   9  -5 8791.17 1223.03   5
   3   9   5 7126.00 1063.89   1
   3   9   5 8554.54 1273.66   5
   3  -9   5 7178.16 980.564   7
   3  -9   6 793.307 446.329   4
  -3   9  -6 2235.97 689.529   5
   3   9   6 2170.23 696.535   5
  -3  -9  -6 2164.42 739.010   6
   3   9   6 1433.81 525.362   1
   3   9   7 5516.09 1037.17   1
  -3  -9  -7 6652.81 1208.08   6
   3  -9   7 5588.53 1025.77   4
   3   9   7 7925.55 1337.06   5
  -3   9  -7 5710.90 1064.28   5
   3   9   8 1865.26 784.555   5
  -3  -9  -8 1022.47 583.803   6
   3  -9   8 1638.10 597.382   4
  -3   9  -8-14.2019 370.336   5
   3   9   8 502.661 500.890   1
   3  -9   9 26359.0 2251.27   4
  -3 -10   9 282.828 347.905   4
  -3  10   8 4538.23 1004.54   5
  -3 -10   8 4398.22 975.550   4
   3  10  -8 4353.48 1024.32   5
  -3  10   7 13358.5 1670.16   5
   3  10  -7 14877.3 1761.06   5
   3 -10  -7 12276.8 1601.96   7
  -3 -10   7 10973.1 1474.68   4
   3  10  -6 25430.8 2291.78   5
  -3  10   6 32124.5 2489.31   5
   3 -10  -6 29080.2 2418.77   7
  -3 -10   6 28617.5 2316.22   4
  -3  10   5 484.824 443.831   5
   3 -10  -5-275.184 319.027   4
  -3 -10   5 280.219 326.213   4
   3  10  -5 466.028 481.733   5
   3 -10  -5 952.072 578.764   7
   3  10  -4 11191.2 1411.56   5
  -3  10   4 9599.89 1301.66   5
   3 -10  -4 12234.3 1502.26   7
  -3 -10   4 12559.5 1514.59   4
   3 -10  -4 10644.3 1232.77   4
  -3 -10   3 2634.37 793.779   4
   3 -10  -3 918.462 480.619   4
   3  10  -3 872.288 448.205   5
  -3  10   3 1777.25 710.716   5
   3 -10  -3 1147.35 553.792   7
   3 -10  -2 28943.3 2195.14   7
   3  10  -2 25143.3 2112.26   5
  -3  10   2 27152.9 2102.53   5
  -3 -10   2 25930.2 2121.61   4
   3 -10  -2 28478.9 2083.59   4
   3 -10  -1 676.579 429.830   4
  -3 -10   1 351.723 340.281   4
  -3  10   1 598.617 332.248   5
   3 -10  -1 352.449 340.821   7
   3  10  -1 288.074 424.568   5
  -3 -10   0 4461.19 920.303   4
   3 -10   0 4929.58 928.507   4
   3 -10   0 4736.40 922.686   7
  -3  10   0 4397.72 841.750   5
   3  10   0 5448.74 990.669   5
  -3  10  -1 11335.1 1352.64   5
   3  10   1 13235.6 1505.22   5
   3 -10   1 11320.7 1334.68   7
  -3 -10  -1 11956.8 1433.10   4
   3 -10   1 11295.5 1381.84   4
   3 -10   2 7973.24 1188.77   4
   3  10   2 7789.10 1201.13   5
  -3  10  -2 6001.59 1000.39   5
  -3 -10  -2 7617.13 1171.24   4
   3 -10   2 6793.87 1012.89   7
   3 -10   3 553.704 504.063   4
  -3  10  -3 803.107 449.102   5
  -3 -10  -3 545.791 481.497   4
   3  10   3 938.470 561.359   5
   3 -10   3 1552.32 530.821   7
  -3 -10  -4 197.761 423.985   4
  -3  10  -4-110.866 331.451   5
   3  10   4 379.633 459.441   5
   3 -10   4 1138.81 623.987   4
   3 -10   4 1049.46 558.687   7
   3  10   5 12145.8 1424.71   1
  -3  10  -5 10881.2 1447.02   5
   3  10   5 12026.4 1567.59   5
  -3 -10  -5 12365.8 1408.65   4
   3 -10   5 12616.6 1548.81   4
   3  10   6 16132.3 1889.09   5
   3  10   6 15456.0 1694.80   1
  -3  10  -6 17118.5 1854.05   5
   3 -10   6 15655.9 1733.67   4
   3  10   7 900.262 517.807   1
  -3 -10  -7-54.3083 362.641   6
   3 -10   7-417.021 404.233   4
  -3  10  -7-209.583 417.247   5
  -3 -11   6 11133.9 1542.16   4
   3  11  -6 9301.56 1469.73   5
  -3  11   6 7427.04 1305.04   5
   3 -11  -6 8556.06 1367.98   7
  -3  11   5-257.916 380.119   5
   3  11  -5 1174.40 670.933   5
   3 -11  -5 889.943 516.253   7
  -3 -11   5 410.377 341.417   4
   3 -11  -4 4563.47 880.184   4
   3  11  -4 5835.70 1112.30   5
  -3 -11   4 2916.55 884.178   4
  -3  11   4 3338.12 868.564   5
   3 -11  -4 4687.88 1044.33   7
  -3 -11   3 7.43723 292.586   4
   3 -11  -3-93.7691 269.539   4
   3  11  -3 63.3185 363.218   5
  -3  11   3 807.821 508.395   5
   3 -11  -3 701.593 519.071   7
   3  11  -2 15956.6 1753.89   5
  -3  11   2 15180.4 1687.25   5
   3 -11  -2 16902.8 1786.70   7
  -3 -11   2 17154.3 1854.05   4
   3 -11  -2 19108.7 1804.23   4
   3 -11  -1 3157.58 785.632   4
   3  11  -1 3256.98 824.812   5
  -3  11   1 2872.73 808.920   5
  -3 -11   1 3945.84 871.227   4
   3 -11  -1 3881.46 862.569   7
   3 -11   0 180.283 373.210   4
   3  11   0 309.291 433.057   5
  -3 -11   0 740.909 573.913   4
  -3  11   0 1022.76 564.463   5
   3 -11   0 309.250 466.228   7
   3 -11   1 791.980 588.676   4
   3  11   1 818.938 487.781   5
  -3 -11  -1 173.867 332.592   4
  -3  11  -1 556.397 485.808   5
   3 -11   1-41.9262 356.594   7
  -3  11  -2 22153.4 2038.47   5
   3  11   2 21280.4 2077.70   5
   3 -11   2 25461.2 2051.49   7
  -3 -11  -2 23351.1 2091.36   4
   3 -11   2 22077.6 2050.52   4
   3 -11   3 1461.98 689.379   4
  -3  11  -3 1878.20 601.944   5
   3  11   3 3436.23 908.210   5
   3 -11   3 3580.74 780.317   7
  -3 -11  -3 2655.32 790.853   4
  -3 -11  -4 1197.58 498.460   4
   3 -11   4 2399.83 779.779   4
  -3  11  -4 1157.95 554.400   5
   3  11   4 2200.90 786.399   5
   3 -11   5 6916.34 1227.64   4
   3  11   5 4459.02 1060.25   5
  -3  11  -5 8222.96 1322.34   5
   3 -12  -4 809.393 501.853   4
  -3  12   4 1932.27 745.360   5
   3 -12  -3 1439.65 608.840   4
  -3  12   3 2102.82 733.465   5
   3 -12  -3 2707.56 790.163   7
   3 -12  -2 2578.62 818.424   4
   3  12  -2 3582.17 961.756   5
  -3  12   2 2570.06 767.809   5
  -3 -12   2 2203.90 729.904   4
   3 -12  -2 3985.08 976.024   7
   3 -12  -1 1449.69 708.053   4
   3  12  -1 662.695 596.777   5
  -3  12   1-143.126 475.029   5
   3 -12  -1-50.7399 342.176   7
  -3 -12   1 904.519 623.099   4
  -3 -12   0 209.941 423.957   4
  -3  12   0-96.9584 346.948   5
   3 -12   0-32.5789 424.196   4
   3  12   0 353.455 449.015   5
   3 -12   0 181.176 354.130   7
  -3 -12  -1 2758.03 854.790   4
   3 -12   1 2861.29 826.255   4
  -3  12  -1 3069.65 898.561   5
   3  12   1 2924.62 820.688   5
   3 -12   1 3033.03 841.057   7
  -3 -12  -2 6.25635 372.357   4
  -3  12  -2 465.918 438.110   5
  -3 -12  -3 8388.36 1332.55   4
  -3  12  -3 9648.42 1404.79   5
  -3 -12  -4-999.474 566.346   4
  -4   0  13 106.189 393.878   9
   4   0 -13 727.238 479.772   3
  -4   0  12 577.814 510.264   9
  -4   0  12 1193.96 502.942   1
   4   0 -12 873.081 462.337   3
  -4   0  11-213.955 308.327   9
   4   0 -11-649.508 380.286   3
  -4   0  10 26023.6 2032.90   9
   4   0 -10 29204.9 2054.57   3
   4   0 -10 28328.7 1655.55   6
   4   0  -9-43.7168 178.117   6
  -4   0   9-100.754 247.485   9
   4   0  -9 196.724 390.670   3
  -4   0   8 32324.5 1700.45   1
   4   0  -8 27632.4 1784.75   3
  -4   0   8 30054.8 1933.57   9
   4   0  -8 29704.6 1449.24   6
   4   0  -7 249.624 221.720   6
  -4   0   7 129.808 278.829   9
  -4   0   7 101.611 139.447   8
   4   0  -7 19.7660 130.048   7
  -4   0   7 277.513 234.097   1
   4   0  -7 312.015 292.330   3
  -4   0   6 63158.1 2571.69   9
  -4   0   6 68585.2 2275.74   1
  -4   0   6 65460.0 1923.36   8
   4   0  -6 63734.2 2540.39   3
   4   0  -6 63437.2 1946.09   7
   4   0  -6 67360.0 1937.17   6
  -4   0   5-47.4065 228.061   9
   4   0  -5 31.2214 97.7961   6
  -4   0   5 72.3583 166.885   8
   4   0  -5-117.688 125.923   7
  -4   0   5 509.231 223.996   1
   4   0  -5-139.651 172.244   3
  -4   0   5-46.8334 126.690   4
   4   0  -4 2158.45 398.529   3
  -4   0   4 3209.47 476.418   9
  -4   0   4 2179.18 331.832   8
  -4   0   4 3107.99 387.439   4
   4   0  -4 2598.88 320.277   7
  -4   0   4 2302.25 324.107   1
   4   0  -4 2513.63 227.211   6
   4   0  -3 113.044 70.5683   6
   4   0  -3-169.971 203.240   3
  -4   0   3 93.5436 169.678   9
  -4   0   3-143.793 154.078   8
   4   0  -3 80.1980 170.831   7
  -4   0   3 24.4488 144.873   4
  -4   0   2 20145.9 947.147   9
  -4   0   2 19906.6 1053.11   8
  -4   0   2 19905.8 670.647   5
  -4   0   2 18446.4 1003.65   4
   4   0  -2 19161.1 919.096   7
   4   0  -2 19667.8 1080.44  10
   4   0  -2 19902.5 626.784   6
  -4   0   1 166.491 107.138   6
  -4   0   1 2.85463 118.074   9
   4   0  -1 153.329 180.169  10
   4   0  -1 109.352 114.062   6
  -4   0   1-79.1233 186.161   8
  -4   0   1 28.6774 168.997   4
  -4   0   0 8889.32 406.160   9
   4   0   0 9519.00 717.282  10
  -4   0   0 9856.65 752.888   8
  -4   0   0 8989.27 555.784   6
   4   0   1 216.294 191.299  10
  -4   0  -1-7.24311 152.487   6
   4   0   1 208.568 100.458   5
  -4   0  -1 346.609 221.554   8
  -4   0  -2 80112.0 2513.41   8
   4   0   2 80591.2 2501.47  10
  -4   0  -2 80519.6 2434.15   6
   4   0   3 119.491 162.473  10
  -4   0  -3 31.0928 167.278   8
   4   0   3 23.8428 185.975   2
  -4   0  -3 42.6397 173.380   6
  -4   0  -4 501.051 279.246   6
   4   0   4 345.714 239.386  10
   4   0   4 438.294 116.576   9
   4   0   4 367.192 292.427   2
  -4   0  -5 39.8847 247.779   6
   4   0   5-45.7629 198.295  10
   4   0   5-12.2759 96.2436   9
   4   0   5 564.286 293.009   2
  -4   0  -5 312.427 243.387   8
  -4   0  -6 7430.24 721.413   8
   4   0   6 5936.79 780.633  10
   4   0   6 8029.02 602.894   9
   4   0   6 5235.28 750.146   2
  -4   0  -6 7445.06 934.930   6
   4   0   7 29.2060 287.900   2
   4   0   7 51.1170 200.526   9
   4   0   7 436.929 319.240  10
  -4   0  -7-75.2823 180.757   8
  -4   0  -7 434.779 346.217   6
   4   0   8 10447.5 1170.34  10
  -4   0  -8 9723.99 1183.66   6
   4   0   8 9460.22 1133.77   2
   4   0   9 407.618 348.107  10
   4   0   9-7.93853 300.659   2
  -4   0  -9 155.757 456.240   6
   4   0  10 398.492 339.182   2
   4   0  10 332.990 310.152  10
  -4   0 -11-309.586 424.977   6
   4   0  11-290.463 344.217  10
   4   0  11-111.324 344.502   2
   4   0  12 1105.47 512.105  10
  -4   0 -12 561.206 538.836   6
   4   0  12 128.523 324.841   2
  -4   1  13 1178.94 572.964   9
  -4  -1  13 797.564 542.709   9
   4  -1 -13 113.863 303.339   3
   4   1 -13 907.491 534.333   3
  -4   1  13 1086.29 511.186   1
  -4   1  12 12438.9 1384.81   1
  -4  -1  12 14883.3 1681.07   9
  -4   1  12 10738.7 1459.20   9
   4  -1 -12 12633.9 1524.45   3
   4   1 -12 9240.27 1289.41   3
  -4  -1  11 335.944 446.523   9
  -4   1  11 288.361 374.641   9
   4  -1 -11-91.4448 357.942   3
  -4   1  11 412.855 395.099   1
   4   1 -11 28.5316 401.872   3
  -4   1  10 12951.1 1415.98   9
  -4   1  10 11989.4 1232.51   1
   4  -1 -10 14080.7 1420.74   3
   4   1 -10 12120.0 1317.41   3
  -4  -1  10 15063.0 1514.45   9
   4  -1 -10 11950.8 1111.50   6
   4   1  -9 4.44347 179.282   6
   4  -1  -9 258.013 278.631   6
  -4   1   9 506.940 411.040   9
  -4  -1   9 324.720 365.662   9
  -4   1   9 985.153 439.814   1
   4  -1  -9-33.7705 250.753   3
   4   1  -9 969.934 464.376   3
  -4   1   8 2868.37 620.356   9
   4   1  -8 2707.31 420.206   6
  -4  -1   8 2549.26 596.343   9
   4  -1  -8 3746.65 559.263   6
   4  -1  -8 2784.32 454.128   7
   4  -1  -8 2754.51 594.762   3
  -4   1   8 2506.64 530.755   1
   4   1  -8 3711.47 680.597   3
  -4   1   7 53069.8 2263.17   1
  -4  -1   7 57132.2 1678.28   8
  -4   1   7 55965.9 2556.14   9
  -4  -1   7 53096.2 2500.50   9
  -4  -1   7 60482.5 2096.94   1
   4  -1  -7 53627.4 2407.73   3
   4  -1  -7 53280.0 1999.78   7
  -4  -1   7 56448.6 1795.91   4
   4   1  -7 53186.6 2422.48   3
   4   1  -7 54748.1 1797.92   6
  -4   1   7 55229.2 1688.17   8
   4  -1  -7 52947.6 1983.55   6
   4  -1  -6 29865.6 1281.55   6
  -4  -1   6 28097.4 1171.94   8
  -4  -1   6 29739.3 1293.46   1
  -4   1   6 28572.7 1489.38   1
  -4   1   6 27390.9 1147.41   8
  -4  -1   6 25551.7 1590.51   9
   4  -1  -6 28500.7 1606.72   3
   4   1  -6 26170.5 1560.54   3
   4   1  -6 26639.9 959.873   7
   4  -1  -6 26196.0 1282.41   7
  -4   1   6 26922.5 1628.68   9
  -4  -1   6 27334.0 1212.55   4
   4   1  -6 27394.4 1043.43   6
  -4   1   5 26678.3 1337.74   1
  -4   1   5 24251.8 1452.42   9
  -4  -1   5 31012.3 1595.38   9
  -4  -1   5 30028.1 1156.55   1
  -4   1   5 26641.0 1184.89   8
  -4  -1   5 28773.6 1222.78   8
   4  -1  -5 25915.5 1435.05   3
   4   1  -5 26495.9 1484.34   3
   4   1  -5 27756.1 937.855   7
   4  -1  -5 27268.9 1250.35   7
  -4  -1   5 26914.2 1212.07   4
   4   1  -5 26441.5 856.333   6
   4   1  -4 54905.3 1833.62   5
  -4   1   4 51892.4 2032.23   9
  -4  -1   4 53707.3 2043.22   9
  -4   1   4 53599.9 1818.70   8
   4  -1  -4 53751.1 2003.43   3
   4   1  -4 53146.1 2065.03   3
   4  -1  -4 55000.6 1829.83   7
   4   1  -4 52921.7 1428.65   7
  -4  -1   4 51872.8 1806.91   4
  -4   1   4 56215.2 1912.31   1
  -4   1   3 86701.4 2555.23   9
  -4   1   3 83294.5 2447.76   8
   4   1  -3 85919.5 2230.16   5
  -4  -1   3 85073.7 2510.53   9
   4  -1  -3 81636.8 2512.32   3
   4   1  -3 84482.6 2614.06   3
   4  -1  -3 83602.8 2400.91   7
   4   1  -3 87948.1 2067.22   7
  -4  -1   3 83690.0 2443.28   4
  -4   1   2 38707.2 1410.61   9
   4   1  -2 37851.1 1162.41   5
   4  -1  -2 37451.3 1535.08  10
  -4  -1   2 39604.6 1414.16   9
   4  -1  -2 40245.9 1500.30   7
  -4  -1   2 39905.4 1550.32   4
  -4   1   2 37040.0 1517.84   8
   4   1  -2 38312.8 1580.73  10
  -4  -1   1 1413.22 172.570   6
   4  -1  -1 1361.78 297.642  10
   4   1  -1 1729.58 337.941  10
  -4   1   1 1974.08 272.726   9
  -4  -1   1 1798.83 205.300   5
   4   1  -1 1343.82 174.856   5
  -4   1   1 1473.04 313.294   8
  -4  -1   1 1837.95 267.627   9
  -4   1   1 1413.63 245.436   6
  -4  -1   1 1338.76 336.567   4
  -4   1   0 27035.3 861.085   9
   4   1   0 26391.4 1255.37  10
   4  -1   0 30834.3 917.896   9
   4   1   0 25942.4 817.601   5
  -4  -1   0 26290.6 1284.57   4
   4  -1   0 26443.0 1206.64  10
  -4   1   0 28159.0 1329.38   8
  -4   1   0 25756.7 1094.04   6
  -4  -1   0 27017.0 985.884   6
   4   1   1 29500.5 1354.94  10
  -4   1  -1 29283.9 1393.16   8
   4  -1   1 29292.0 762.529   9
   4  -1   1 30393.6 847.499   5
   4   1   1 27897.3 1192.46   2
  -4  -1  -1 29405.6 1385.90   4
   4  -1   1 29513.1 1294.34  10
  -4   1  -1 30100.4 1280.72   6
  -4  -1  -1 29846.8 1199.19   6
   4  -1   2 1440.71 319.944  10
   4   1   2 1428.90 333.722  10
  -4   1  -2 1722.83 343.452   6
  -4  -1  -2 1189.78 298.571   6
  -4   1  -2 2167.04 394.437   8
  -4  -1  -2 1075.19 280.159   4
   4   1   2 1341.24 296.719   2
   4  -1   3 103947. 2131.28   9
   4   1   3 107708. 3181.11  10
  -4  -1  -3 110262. 2127.59   9
   4  -1   3 110057. 3121.63  10
   4   1   3 109441. 3133.70   2
  -4   1  -3 109123. 3108.45   8
  -4   1  -3 106706. 3209.82   6
  -4  -1  -3 109667. 3176.85   6
   4  -1   4 3811.63 316.661   9
  -4  -1  -4 3354.71 566.069   6
   4  -1   4 3649.05 535.808  10
   4   1   4 4375.55 614.407  10
  -4   1  -4 4087.09 587.527   6
   4   1   4 3406.01 288.355   9
   4  -1   4 2373.87 450.315   2
  -4   1  -4 3654.34 500.130   8
   4   1   4 3496.94 544.149   2
   4   1   5 65047.9 1796.71   9
   4  -1   5 63498.2 1794.62   9
  -4  -1  -5 62671.1 2285.47   8
  -4   1  -5 63823.5 2266.01   8
   4  -1   5 63301.1 2492.73  10
   4   1   5 61636.2 2518.94   2
   4  -1   5 60122.4 2496.17   2
   4   1   5 63712.2 2545.62  10
  -4   1  -5 60343.5 2574.55   6
  -4  -1  -5 62923.3 2591.22   6
   4  -1   6 5709.16 778.815   2
   4   1   6 8497.10 633.602   9
   4  -1   6 8315.00 640.548   9
   4   1   6 5647.64 790.217   2
   4  -1   6 6806.64 824.460  10
  -4  -1  -6 5828.97 664.223   8
  -4  -1  -6 6689.78 876.956   6
   4   1   6 7347.51 885.864  10
  -4   1  -6 7309.65 716.939   8
  -4   1  -6 9008.32 1011.65   6
   4  -1   7 20566.8 1140.92   9
   4  -1   7 18292.4 1451.21  10
   4   1   7 21793.2 1161.40   9
  -4   1  -7 21379.4 1201.43   8
  -4  -1  -7 18484.9 1179.09   8
   4   1   7 20293.8 1568.72  10
   4  -1   7 17748.0 1453.84   2
   4   1   7 20666.5 1572.64   2
  -4   1  -7 19952.0 1602.08   6
  -4  -1  -7 17649.8 1510.53   6
  -4   1  -8 117.169 342.709   6
   4   1   8 955.131 437.572  10
   4   1   8 143.750 351.809   2
   4  -1   8 272.917 254.006   2
   4  -1   8 447.546 298.290  10
  -4  -1  -8 769.990 489.034   6
   4  -1   9 4991.98 887.991   2
  -4   1  -9 4261.90 883.400   6
   4  -1   9 4209.60 788.869  10
   4   1   9 4635.71 883.945  10
  -4  -1  -9 4615.54 905.867   6
   4   1   9 4829.26 868.283   2
  -4   1 -10 4565.38 960.443   6
  -4  -1 -10 5653.15 1008.75   6
   4   1  10 5198.22 965.954  10
   4  -1  10 5556.21 973.213   2
   4   1  10 4388.44 892.527   2
   4  -1  10 4104.95 866.044  10
  -4   1 -11 2964.09 846.294   6
  -4  -1 -11 2932.41 843.950   6
   4   1  11 3018.29 815.551  10
   4  -1  11 3857.62 906.754  10
   4  -1  11 3405.99 809.212   2
   4   1  11 3850.66 909.199   2
  -4   1 -12 1793.72 672.077   6
   4   1  12 744.374 569.727  10
   4  -1  12 695.309 343.636  10
   4  -1  12 783.582 504.798   2
   4   1  12 762.418 510.104   2
  -4  -1 -12 1004.00 676.856   6
  -4   2  14-368.476 452.737   1
  -4   2  13 506.395 467.203   9
  -4  -2  13 1120.39 585.840   9
  -4   2  13 1101.43 500.392   1
   4  -2 -13 1211.32 572.929   3
   4   2 -13 1258.60 550.071   3
  -4   2  12 199.387 320.321   1
  -4  -2  12-145.638 371.967   9
   4  -2 -12 1090.05 501.569   3
   4   2 -12 292.029 430.913   3
  -4   2  11 5099.31 984.441   9
   4  -2 -11 4960.66 819.925   6
  -4  -2  11 4803.96 980.012   9
   4  -2 -11 4575.99 894.068   3
   4   2 -11 5391.32 975.051   3
  -4   2  11 4278.68 850.251   1
  -4   2  10 1035.06 422.963   1
   4  -2 -10 673.953 381.574   6
  -4  -2  10 515.250 497.038   9
   4  -2 -10 1092.51 511.663   3
  -4   2  10 1151.81 513.578   9
   4   2 -10 430.328 349.808   3
  -4   2   9 24857.9 1762.96   1
  -4   2   9 28570.7 2024.47   9
  -4  -2   9 28146.0 2007.84   9
   4   2  -9 25838.2 1826.91   3
   4  -2  -9 26539.3 1844.10   3
   4  -2  -9 26425.9 1615.89   7
   4  -2  -9 27504.1 1666.22   6
  -4  -2   8 3466.82 440.276   4
   4   2  -8 3379.78 456.774   6
   4  -2  -8 3283.76 543.683   6
  -4   2   8 3867.66 752.546   9
  -4  -2   8 2126.40 551.279   9
  -4   2   8 2287.79 554.894   1
   4  -2  -8 3100.80 512.513   7
   4  -2  -8 3533.47 636.977   3
   4   2  -8 3178.65 662.868   3
   4   2  -7 1026.95 425.017   3
   4  -2  -7 815.511 295.436   6
  -4  -2   7 1194.70 301.320   4
  -4   2   7 1076.17 434.051   9
  -4  -2   7 278.642 305.220   9
  -4   2   7 796.863 355.926   1
  -4   2   7 963.693 227.540   8
   4   2  -7 755.292 214.557   6
  -4  -2   7 990.425 238.806   8
   4  -2  -7 1180.58 356.012   7
   4  -2  -7 623.722 313.653   3
  -4  -2   6 482.387 199.385   4
   4   2  -6 198.176 119.844   6
   4   2  -6 427.712 317.715   5
  -4   2   6 352.659 309.629   9
  -4  -2   6 245.056 294.921   9
  -4   2   6 74.2471 153.739   8
  -4   2   6 85.8567 193.614   1
   4  -2  -6 431.094 268.875   7
  -4  -2   6 293.840 161.507   1
   4   2  -6 146.180 269.445   3
   4  -2  -6-17.8191 222.555   3
   4  -2  -5 1731.34 370.361   3
   4   2  -5 2336.41 462.319   3
  -4   2   5 2222.83 469.603   9
  -4  -2   5 1754.17 414.076   9
   4   2  -5 1803.75 388.017   5
  -4   2   5 2473.73 383.290   8
  -4   2   5 2815.21 483.852   1
  -4  -2   5 1517.68 362.439   4
  -4  -2   5 2102.01 258.814   1
   4  -2  -5 2852.87 452.339   7
   4   2  -5 2323.65 220.625   6
  -4   2   4 18794.5 1035.18   8
   4   2  -4 18700.8 1066.77   5
  -4   2   4 19146.5 1194.78   9
  -4  -2   4 20045.7 1207.47   9
   4  -2  -4 20388.0 1151.30   3
   4   2  -4 19439.0 1188.91   3
   4   2  -4 17188.5 551.165   7
   4  -2  -4 19509.7 1111.64   7
  -4  -2   4 20533.8 1106.91   4
   4   2  -4 17920.6 616.193   2
  -4   2   3 73058.1 2341.08   9
   4   2  -3 74281.8 2121.49   5
  -4   2   3 68871.1 2206.22   8
   4  -2  -3 71952.6 2214.35   3
   4   2  -3 70846.9 2374.18   3
   4  -2  -3 75038.5 2333.15   7
   4   2  -3 64006.5 1361.13   2
  -4  -2   3 72564.2 2279.34   4
  -4  -2   2 418.661 71.6503   6
   4  -2  -2 996.017 247.105   3
  -4   2   2 606.846 231.397   8
   4   2  -2 721.102 207.953   5
  -4  -2   2 774.074 258.582   4
   4  -2  -2 966.079 299.471   7
   4   2  -2 648.359 106.073   1
  -4   2   2 1003.36 283.576   9
   4   2  -2 756.150 270.797  10
  -4   2   1 124945. 2485.97   5
  -4   2   1 121747. 2911.60   9
   4   2  -1 121823. 2783.05   5
   4   2  -1 122906. 2521.21   2
  -4   2   1 118319. 3251.21   8
   4   2  -1 117307. 3191.44  10
   4  -2  -1 120482. 3079.88  10
   4  -2  -1 120878. 3257.79   7
  -4  -2   1 122025. 3280.33   4
  -4  -2   1 122196. 2542.72   6
  -4   2   0 1812.20 310.634   6
  -4  -2   0 2329.95 402.534   4
   4   2   0 2273.87 366.309  10
  -4   2   0 2413.65 224.968   5
   4   2   0 2602.80 303.098   2
  -4   2   0 2591.26 418.560   8
   4  -2   0 2549.82 348.136  10
   4   2   0 2152.13 283.148   5
  -4  -2   0 2607.47 306.147   6
   4  -2   1 121031. 3129.31  10
   4   2   1 128007. 3354.99  10
  -4   2  -1 125570. 2674.16   5
  -4   2  -1 121806. 3380.75   8
   4   2   1 124205. 3013.88   2
  -4  -2  -1 123073. 3395.72   4
  -4   2  -1 122297. 3260.12   6
  -4  -2  -1 125002. 3093.79   6
  -4  -2  -2 1724.66 342.165   6
  -4   2  -2 1526.27 258.989   5
  -4   2  -2 1033.01 291.995   8
   4   2   2 1422.84 298.999   2
  -4   2  -2 1450.73 362.321   6
   4   2   2 1071.80 299.610  10
   4  -2   2 1026.79 277.332  10
  -4  -2  -2 1081.72 321.549   4
   4   2   3 47988.4 1988.52  10
   4  -2   3 46158.8 1821.43  10
  -4  -2  -3 45582.6 1896.27   4
  -4   2  -3 47488.0 2016.91   6
  -4  -2  -3 47623.3 1953.20   6
   4   2   3 47395.6 1885.63   2
  -4   2  -3 49170.6 1930.08   8
   4  -2   4 32502.9 1569.73  10
  -4   2  -4 33382.4 1559.44   8
   4   2   4 31592.4 1640.67   2
  -4  -2  -4 31805.6 1567.76   4
   4   2   4 33516.3 1708.38  10
  -4   2  -4 30018.8 1689.71   6
  -4  -2  -4 32051.5 1700.84   6
   4  -2   5 30102.7 1725.21   2
   4   2   5 31522.2 1755.50  10
  -4   2  -5 30294.9 1493.06   8
   4  -2   5 31674.4 1260.08   9
   4   2   5 32610.6 1262.38   9
   4   2   5 30616.7 1714.91   2
  -4   2  -5 30080.7 1784.90   6
  -4  -2  -5 29280.4 1753.20   6
   4  -2   5 28011.2 1582.40  10
   4   2   6 1032.82 376.954  10
   4  -2   6 860.489 363.892  10
   4   2   6 1564.86 317.446   9
   4  -2   6 1208.19 295.055   9
   4   2   6 991.463 422.130   2
  -4   2  -6 1254.37 323.684   8
  -4  -2  -6 818.390 444.352   6
   4  -2   6 1124.68 393.826   2
  -4   2  -6 1128.15 401.074   6
   4   2   7 25317.8 1770.36  10
   4  -2   7 26796.0 1751.94  10
   4   2   7 30371.9 1445.91   9
  -4   2  -7 25760.4 1364.44   8
   4  -2   7 25783.1 1358.66   9
   4  -2   7 23394.4 1690.97   2
   4   2   7 26096.2 1802.13   2
  -4  -2  -7 25674.4 1460.66   8
  -4   2  -7 28016.3 1922.79   6
  -4  -2  -7 24244.3 1792.52   6
  -4  -2  -8 2636.30 682.356   6
   4   2   8 2070.77 559.717  10
   4  -2   8 1014.21 388.524  10
   4   2   8 1201.65 477.178   2
   4  -2   8 2571.35 630.746   2
  -4   2  -8 1231.02 513.594   6
   4   2   9 68871.9 3339.99  10
   4  -2   9 56256.7 3010.05   2
   4   2   9 56184.4 3068.45   2
  -4   2  -9 65042.3 3349.98   6
  -4  -2  -9 63163.6 3304.50   6
   4  -2   9 61779.2 3074.37  10
   4   2  10 2108.79 668.858  10
   4  -2  10 3075.99 757.669  10
   4  -2  10 3065.49 756.216   2
  -4   2 -10 2737.38 744.000   6
   4   2  10 1241.26 484.851   2
  -4  -2 -10 2992.25 805.189   6
   4   2  11 19189.6 1929.58  10
   4  -2  11 15499.1 1702.23  10
   4  -2  11 15165.3 1667.76   2
   4   2  11 20217.1 1993.19   2
  -4   2 -11 19122.3 1977.35   6
  -4  -2 -11 20908.9 2060.22   6
   4  -2  12 4646.37 1038.96   2
   4  -2  12 6375.72 1112.06  10
  -4   2 -12 5041.44 1096.50   6
  -4   3  13 353.508 573.337   9
  -4   3  13 185.014 398.012   1
  -4  -3  13-14.9699 496.601   9
   4  -3 -13 228.726 334.387   3
   4   3 -13 70.7768 279.062   3
  -4   3  12 26842.5 2227.15   1
  -4  -3  12 31748.1 2537.66   9
   4  -3 -12 31517.3 2394.08   3
   4   3 -12 28751.6 2261.10   3
  -4   3  12 29893.6 2471.43   9
  -4   3  11 3117.25 784.246   1
  -4   3  11 3398.92 846.803   9
  -4  -3  11 4478.73 954.361   9
   4  -3 -11 2903.73 667.239   6
   4  -3 -11 3720.07 786.360   3
   4   3 -11 3282.09 762.881   3
  -4   3  10 635.018 396.997   1
   4  -3 -10 847.047 394.829   6
  -4   3  10 1113.33 498.157   9
  -4  -3  10 2081.02 642.516   9
   4  -3 -10 359.060 303.711   7
   4  -3 -10 879.067 362.498   3
   4   3 -10 1206.70 482.320   3
   4  -3  -9 1795.39 447.415   6
  -4   3   9 1902.78 519.860   1
  -4   3   9 2497.08 696.310   9
  -4  -3   9 1699.34 525.789   9
   4  -3  -9 2744.13 592.364   7
   4  -3  -9 3513.48 714.028   3
   4   3  -9 1919.99 531.359   3
   4  -3  -8 21059.5 1438.22   6
  -4   3   8 22261.4 1736.58   9
  -4  -3   8 22766.9 1736.58   9
  -4   3   8 21873.9 1633.42   1
   4  -3  -8 21747.6 1485.41   7
   4  -3  -8 22446.0 1593.75   3
   4   3  -8 22958.3 1641.54   3
  -4  -3   8 23311.7 1304.01   4
  -4   3   7 4463.19 776.130   9
  -4  -3   7 4974.59 769.144   9
   4   3  -7 4601.02 735.880   5
  -4   3   7 6073.17 602.732   8
   4   3  -7 6438.71 846.940   3
  -4   3   7 6146.63 809.461   1
   4  -3  -7 5253.44 722.182   7
  -4  -3   7 5509.49 645.797   4
   4  -3  -7 4694.02 697.737   3
   4   3  -7 5459.27 517.559   6
  -4  -3   6 877.054 291.935   4
  -4   3   6 1139.83 399.045   1
  -4  -3   6 1168.87 423.958   9
   4   3  -6 1908.55 462.458   5
  -4   3   6 1627.81 345.852   8
   4   3  -6 1342.23 402.044   3
   4  -3  -6 793.977 330.242   7
  -4  -3   6 1847.24 244.522   1
   4   3  -6 930.893 201.135   6
  -4   3   6 1087.14 378.451   9
   4  -3  -6 1244.48 409.656   3
   4  -3  -5 19626.6 1216.25   3
  -4   3   5 22061.8 1428.82   9
   4   3  -5 19894.1 1266.66   5
  -4   3   5 20600.7 1149.45   8
   4   3  -5 20437.9 1308.18   3
  -4  -3   5 17150.8 589.431   1
  -4   3   5 20114.4 1331.60   1
   4  -3  -5 19326.2 1253.99   7
  -4  -3   5 21864.6 1241.04   4
  -4   3   4 42370.2 1912.16   9
   4   3  -4 39987.2 1728.63   5
  -4   3   4 41624.5 1715.17   8
   4  -3  -4 41923.7 1700.21   3
   4   3  -4 39121.3 1791.92   3
   4  -3  -4 40799.0 1810.75   7
  -4  -3   4 40172.6 1735.27   4
  -4  -3   4 38743.3 1077.81   6
  -4   3   3 39908.6 1758.55   9
   4   3  -3 41139.5 1645.75   5
  -4   3   3 42670.4 1757.75   8
   4   3  -3 42216.6 1076.08   7
   4   3  -3 40530.0 1766.65   3
   4  -3  -3 42887.6 1605.28   3
   4  -3  -3 39719.3 1779.15   7
  -4  -3   3 45493.8 1841.61   4
  -4  -3   3 40929.1 1084.38   6
  -4   3   2 3261.31 449.814   9
  -4   3   2 3282.25 383.690   5
   4   3  -2 2846.42 437.765  10
   4   3  -2 3616.18 446.825   5
  -4   3   2 3429.20 496.599   8
  -4  -3   2 3168.75 491.834   4
   4  -3  -2 3746.23 418.650   3
   4  -3  -2 3396.21 509.417   7
  -4   3   1 13003.6 839.882   9
   4  -3  -1 14423.7 836.208  10
   4   3  -1 12990.3 801.992   5
  -4   3   1 13666.3 709.496   5
  -4   3   1 12844.4 936.954   8
   4   3  -1 13727.2 915.850  10
   4  -3  -1 13205.7 965.944   7
   4   3  -1 13227.5 534.551   2
  -4  -3   1 13667.6 976.207   4
  -4  -3   0 105263. 2678.86   6
   4  -3   0 105961. 2743.22  10
   4   3   0 107751. 2794.10   5
  -4   3   0 103497. 3090.95   8
   4   3   0 104074. 2983.81  10
   4   3   0 109037. 2499.71   2
   4  -3   0 103811. 3145.72   7
  -4  -3   0 106831. 3141.60   4
  -4   3   0 106414. 2504.78   5
  -4   3  -1 981.670 298.390   6
  -4  -3  -1 1579.56 383.591   4
   4   3   1 1991.00 361.263  10
   4  -3   1 1804.32 307.692  10
  -4  -3  -1 1497.57 317.940   6
   4   3   1 1310.66 266.472   2
  -4   3  -1 1775.05 391.022   8
   4   3   1 1542.51 314.034   5
  -4   3  -1 1931.82 284.830   5
   4  -3   1 1461.35 350.180   7
  -4  -3  -2 677.212 295.774   4
  -4   3  -2 324.291 270.875   6
   4   3   2 633.459 258.127  10
  -4  -3  -2 973.690 333.141   6
  -4   3  -2 624.730 220.991   5
   4   3   2 743.604 268.743   2
  -4   3  -2 717.683 322.063   8
   4  -3   2 820.818 237.954  10
   4  -3   3 79204.2 2503.57  10
  -4   3  -3 85438.9 2550.29   5
  -4   3  -3 81239.3 2701.04   8
   4   3   3 79230.7 2637.08   2
  -4  -3  -3 81741.4 2746.49   4
   4   3   3 81984.0 2780.36  10
  -4   3  -3 81508.3 2889.36   6
  -4  -3  -3 80600.0 2799.38   6
   4  -3   4 227.910 201.940  10
  -4   3  -4 22.7128 178.450   5
  -4  -3  -4 100.326 261.981   6
   4   3   4 68.1136 209.518   2
  -4   3  -4 2.74532 227.974   8
  -4   3  -4 444.257 319.081   6
   4   3   4 189.599 266.536  10
  -4  -3  -4 349.647 255.577   4
   4  -3   5 17274.3 1187.78  10
   4   3   5 17462.2 1303.95  10
  -4   3  -5 15236.4 1085.31   8
   4   3   5 14838.6 1213.29   2
  -4  -3  -5 14879.5 1105.44   4
  -4   3  -5 14641.4 1265.60   6
  -4  -3  -5 17826.1 1379.51   6
   4  -3   6 106.911 180.823   9
   4  -3   6-15.2617 276.292  10
   4   3   6 70.1206 289.202  10
   4   3   6 132.961 166.275   9
  -4   3  -6-64.5297 179.859   8
   4   3   6 10.8045 232.729   2
  -4   3  -6-29.9073 329.782   6
   4  -3   6-197.408 271.672   2
  -4  -3  -6 380.370 359.725   6
   4   3   7 12864.5 1267.68  10
   4  -3   7 14201.5 1238.35  10
   4   3   7 13587.0 995.266   9
   4  -3   7 11697.6 936.505   9
   4  -3   7 12575.4 1240.37   2
   4   3   7 10153.8 1148.49   2
  -4   3  -7 12117.7 1282.19   6
  -4  -3  -7 12064.0 1301.56   6
  -4   3  -7 13766.1 1017.54   8
   4   3   8 37182.1 2319.87  10
   4  -3   8 40838.1 2279.38  10
   4  -3   8 34937.7 2218.44   2
   4   3   8 32191.5 2179.84   2
  -4   3  -8 38738.1 2446.85   6
  -4  -3  -8 39712.4 2520.00   6
  -4   3  -9 374.038 445.390   6
   4   3   9 343.786 336.132  10
   4  -3   9 702.860 380.343  10
   4  -3   9 144.510 240.291   2
  -4  -3  -9 26.9610 349.802   6
   4   3   9 484.580 396.410   2
  -4  -3 -10 370.639 455.529   6
   4   3  10 494.364 437.803  10
   4  -3  10-195.607 293.747  10
   4  -3  10 633.357 435.693   2
   4   3  10 213.344 307.269   2
  -4   3 -10 651.083 516.694   6
   4   3  11 9977.32 1420.67  10
   4  -3  11 9583.56 1296.14  10
   4  -3  11 10327.3 1385.34   2
  -4  -3 -11 8895.71 1421.22   6
   4   3  11 10287.5 1471.65   2
  -4   3 -11 13501.2 1718.00   6
   4  -3  12 13085.1 1613.58  10
   4  -3  12 13628.0 1679.52   2
  -4   4  13 4236.71 1033.06   9
  -4  -4  13 891.806 645.724   9
  -4   4  13 3137.84 873.928   1
   4  -4 -13 2191.62 723.743   3
   4   4 -13 2128.13 721.738   3
   4  -4 -12 923.074 466.123   6
   4   4 -12 1001.18 564.201   3
  -4   4  12 2370.50 818.762   9
  -4  -4  12 2176.61 790.447   9
  -4   4  12 1975.36 726.202   1
   4  -4 -12 1583.05 588.206   3
  -4  -4  11 10813.8 1453.91   9
  -4   4  11 9669.30 1319.20   1
  -4   4  11 10825.6 1454.02   9
   4  -4 -11 9615.86 1205.10   6
   4  -4 -11 8420.40 1172.87   3
   4   4 -11 9208.60 1224.69   3
   4   4 -10 11564.0 1291.69   3
  -4   4  10 10815.8 1310.12   1
  -4   4  10 11683.0 1413.02   9
  -4  -4  10 11746.0 1415.51   9
   4  -4 -10 11206.8 1276.18   3
   4  -4 -10 11256.3 1258.50   7
   4  -4 -10 11204.1 1257.16   6
   4  -4  -9 6873.44 926.256   6
  -4  -4   9 4929.12 908.836   9
  -4   4   9 5021.09 853.160   1
  -4   4   9 6305.28 1034.90   9
   4  -4  -9 4670.05 794.854   7
   4  -4  -9 4572.34 785.383   3
   4   4  -9 5230.05 838.844   3
   4  -4  -8 72045.3 2993.70   3
  -4   4   8 70284.6 3292.14   9
   4   4  -8 73323.9 3227.09   5
  -4  -4   8 67968.2 3189.81   9
  -4   4   8 65165.3 3064.69   1
   4   4  -8 66386.7 2946.62   3
   4  -4  -8 67796.1 2946.00   7
  -4  -4   8 71968.1 2637.15   4
   4  -4  -7 8460.57 911.771   3
  -4   4   7 10303.0 1159.89   9
  -4  -4   7 9261.67 1084.58   9
   4   4  -7 10078.8 1077.13   5
  -4   4   7 10268.7 872.507   8
  -4   4   7 8822.00 1040.49   1
   4   4  -7 9703.71 1018.78   3
   4  -4  -7 8758.97 973.152   7
  -4  -4   7 9584.95 917.687   4
   4  -4  -6 20715.1 1334.78   3
  -4   4   6 19439.2 1510.03   9
   4   4  -6 22224.8 1536.98   5
  -4   4   6 20364.5 1255.67   8
   4   4  -6 21832.0 1450.24   3
  -4   4   6 19630.2 1469.07   1
   4  -4  -6 19737.3 1425.39   7
  -4  -4   6 22163.5 1363.05   4
  -4  -4   5 81.3380 182.396   4
   4   4  -5 218.967 243.536   3
  -4   4   5-10.5323 258.377   9
   4   4  -5 360.342 260.213   5
  -4   4   5 515.541 295.221   8
   4  -4  -5 44.5925 236.571   7
  -4   4   5 111.507 225.629   1
   4  -4  -5 500.723 264.175   3
  -4   4   4 14820.8 1171.74   9
   4   4  -4 14779.5 1092.22   5
  -4   4   4 15697.1 1099.20   8
   4  -4  -4 15820.5 1004.00   3
   4   4  -4 15523.9 1101.84   3
   4  -4  -4 15605.9 1170.07   7
  -4  -4   4 17458.6 1189.90   4
  -4   4   3 66885.2 2507.00   9
   4   4  -3 66943.0 2381.61   5
  -4   4   3 70216.5 2487.12   8
   4  -4  -3 69173.6 2121.32   3
   4   4  -3 64740.6 1579.45   7
   4   4  -3 71256.5 2454.60   3
   4  -4  -3 67110.7 2542.13   7
  -4  -4   3 66775.5 2485.73   4
   4   4  -2 8496.50 746.918  10
  -4   4   2 6199.00 675.273   9
   4   4  -2 8447.77 744.613   5
  -4   4   2 8657.38 690.153   5
  -4   4   2 9428.61 861.692   8
   4  -4  -2 7517.38 576.736   3
   4  -4  -2 9978.54 889.276   7
  -4  -4   2 8258.72 815.065   4
  -4  -4   1 1748.32 397.683   4
   4   4  -1 1703.07 341.233  10
  -4   4   1 1251.80 366.589   8
   4   4  -1 1658.38 356.690   5
   4   4  -1 1154.58 172.621   1
  -4   4   1 1224.88 267.822   5
   4  -4  -1 1726.91 279.867   3
   4  -4  -1 1442.22 348.026   7
   4  -4   0 30577.4 1221.33  10
  -4   4   0 28236.8 1246.55   5
   4   4   0 28946.5 1397.88   5
   4  -4   0 28947.9 1569.75   7
  -4  -4   0 30618.0 1603.28   4
  -4   4   0 29121.6 1554.95   8
   4   4   0 31878.3 1468.95  10
   4  -4   1 178.347 141.888  10
   4   4   1 98.5181 142.766  10
  -4   4  -1 173.903 156.017   5
  -4   4  -1 549.430 299.500   8
  -4  -4  -1 539.236 316.383   4
   4   4   1 8.47181 186.409   5
   4  -4   1 295.823 183.034   7
   4   4   1 33.4591 127.418   2
  -4  -4  -2 17473.5 1166.26   6
  -4   4  -2 18748.5 1069.57   5
   4   4   2 18766.6 1190.91   5
  -4   4  -2 18460.7 1240.94   8
   4   4   2 18426.2 1185.78  10
   4  -4   2 18642.2 1274.82   7
  -4  -4  -2 18484.1 1239.06   4
   4   4   2 17553.7 1055.14   2
   4  -4   2 17977.3 976.606  10
  -4   4  -2 18699.9 1298.24   6
  -4   4  -3 174.979 235.761   6
  -4  -4  -3 141.480 223.440   4
   4  -4   3 249.014 178.595  10
   4   4   3 161.729 215.792  10
  -4  -4  -3 114.497 260.479   6
  -4   4  -3 329.365 235.012   5
  -4   4  -3 373.736 282.375   8
   4   4   3 680.047 292.429   2
   4  -4   4 33894.4 1589.89  10
   4   4   4 36525.0 1858.12  10
  -4   4  -4 35106.5 1739.33   5
  -4   4  -4 34648.0 1758.77   8
  -4  -4  -4 33637.4 1739.02   4
   4   4   4 35704.1 1811.60   2
  -4   4  -4 35770.9 1987.90   6
  -4  -4  -4 35731.0 1949.96   6
   4  -4   5 8852.33 829.806  10
  -4   4  -5 8633.97 898.339   5
   4   4   5 7609.56 881.642  10
  -4   4  -5 9663.18 899.803   8
  -4  -4  -5 9459.74 911.644   4
   4   4   5 7360.59 880.818   2
  -4   4  -5 8777.60 1012.00   6
  -4  -4  -5 8073.09 975.421   6
   4   4   6 2163.30 542.248   2
  -4   4  -6 3023.85 642.914   6
   4  -4   6 2150.84 454.727  10
  -4  -4  -6 3035.55 650.768   6
  -4   4  -6 2328.99 479.925   8
   4   4   6 2786.25 604.548  10
  -4  -4  -6 2337.66 493.103   4
   4  -4   7 906.044 350.748  10
   4   4   7 804.521 395.268  10
   4  -4   7 364.293 267.374   9
  -4   4  -7 195.269 278.777   6
  -4   4  -7 129.604 242.516   8
  -4  -4  -7 2.16358 284.778   6
   4   4   7 517.041 426.672   2
   4  -4   7 251.737 359.450   2
  -4   4  -8 3768.21 809.225   6
  -4  -4  -8 4695.63 944.918   6
   4   4   8 2989.14 691.702  10
   4  -4   8 2808.49 604.472  10
   4   4   8 2427.72 635.038   2
   4  -4   8 3373.05 740.791   2
   4  -4   9 2183.23 625.630  10
   4   4   9 2791.07 762.470  10
  -4  -4  -9 1215.31 575.787   6
  -4   4  -9 1531.08 599.555   6
   4  -4   9 1814.25 562.512   2
   4   4   9 1413.95 581.746   2
   4   4  10 1102.06 499.043  10
   4  -4  10 252.594 273.119  10
  -4  -4 -10 367.167 426.978   6
   4  -4  10 96.9181 314.131   2
   4   4  10 381.535 445.157   2
  -4   4 -10 360.785 376.400   6
   4   4  11 382.104 498.400   2
   4  -4  11 94.9679 422.222   2
  -4  -4 -11 468.100 532.180   6
   4   4  11 244.870 336.277  10
   4  -4  11 799.609 484.434  10
  -4   4 -11 400.530 485.936   6
   4  -4  12 3720.27 859.738  10
   4   5 -13 563.576 461.554   3
   4  -5 -12 7871.21 1225.81   6
  -4  -5  12 8193.94 1350.87   9
  -4   5  12 6879.19 1272.85   9
   4  -5 -12 7509.87 1198.48   3
  -4   5  12 9028.48 1368.65   1
   4   5 -12 7744.54 1199.86   3
   4  -5 -11 1753.95 648.172   6
  -4   5  11 1062.81 559.390   9
  -4  -5  11 2640.36 785.278   9
   4  -5 -11 1107.60 447.629   7
   4  -5 -11 1871.65 610.083   3
  -4   5  11 1338.76 613.342   1
   4   5 -11 2093.25 660.974   3
   4  -5 -10 5303.22 922.339   6
  -4   5  10 4726.43 1006.02   9
  -4  -5  10 5110.49 962.088   9
   4  -5 -10 5792.71 955.189   7
   4  -5 -10 6188.16 968.930   3
  -4   5  10 4607.17 894.261   1
   4   5 -10 4274.58 822.927   3
   4  -5  -9 7377.50 992.251   6
   4   5  -9 9478.83 1232.02   5
   4  -5  -9 9079.39 1100.89   3
  -4   5   9 8635.46 1235.09   9
   4   5  -9 8553.49 1066.55   3
   4  -5  -9 8968.04 1112.46   7
  -4  -5   9 8806.74 949.168   4
  -4  -5   9 8086.37 1182.84   9
  -4   5   9 6445.58 1030.11   1
  -4  -5   8 1332.30 390.998   4
  -4   5   8 2041.63 634.431   1
  -4   5   8 2392.90 654.655   9
  -4  -5   8 1983.57 594.281   9
   4   5  -8 2832.25 712.530   5
   4  -5  -8 1624.21 489.739   7
   4  -5  -8 2076.44 517.928   3
   4   5  -8 1866.71 507.767   3
  -4   5   7 45596.5 2089.76   8
  -4   5   7 47715.1 2612.20   9
   4   5  -7 47347.6 2516.15   5
   4  -5  -7 48798.5 2269.10   3
   4   5  -7 42894.6 2226.83   3
  -4   5   7 45198.0 2494.92   1
   4  -5  -7 47061.5 2452.71   7
  -4  -5   7 49202.9 2267.99   4
  -4   5   6 2881.68 668.916   9
   4   5  -6 3988.93 691.337   5
  -4  -5   6 3675.65 603.464   4
  -4   5   6 4231.67 640.373   8
   4   5  -6 4454.38 660.790   3
  -4   5   6 3240.81 653.870   1
   4  -5  -6 2730.70 597.608   7
   4  -5  -6 4356.47 618.881   3
   4   5  -5 22350.4 1423.55   3
  -4   5   5 20300.3 1526.35   9
   4   5  -5 23069.2 1542.64   5
  -4   5   5 23676.8 1460.46   8
   4  -5  -5 23530.8 1315.81   3
   4  -5  -5 19889.5 1482.54   7
  -4  -5   5 20764.0 1418.40   4
  -4   5   4 36855.5 1968.69   9
   4   5  -4 35177.6 1853.13   5
  -4   5   4 35027.2 1811.17   8
   4  -5  -4 36750.9 1547.05   3
   4   5  -4 36455.9 1770.13   3
   4  -5  -4 33774.7 1890.91   7
  -4  -5   4 36380.5 1890.31   4
  -4   5   3 11602.5 1042.66   9
   4   5  -3 11307.8 987.210   5
  -4   5   3 12639.0 977.088   5
  -4   5   3 12476.7 1048.25   8
   4   5  -3 11863.8 955.570   3
   4  -5  -3 10254.8 1002.89   7
  -4  -5   3 11694.3 1045.38   4
   4  -5  -3 11700.1 759.716   3
   4  -5  -2 452.759 177.759   3
  -4   5   2 128.103 285.434   8
   4   5  -2 491.000 262.067  10
   4   5  -2 140.603 188.000   5
  -4  -5   2 228.652 322.427   4
  -4   5   2 162.972 180.906   5
   4  -5  -2 268.410 265.931   7
   4  -5  -1 1114.49 202.488   3
  -4  -5   1 1309.99 414.855   4
   4   5  -1 995.224 190.071   1
  -4   5   1 692.032 332.600   8
   4   5  -1 953.615 267.920  10
   4   5  -1 1002.69 346.210   5
  -4   5   1 768.269 271.695   5
   4  -5  -1 608.168 320.928   7
   4  -5   0 688.993 194.281  10
   4   5   0 851.302 251.873   1
   4   5   0 445.231 195.220  10
   4  -5   0 657.282 150.654   3
  -4   5   0 1385.45 388.959   8
  -4  -5   0 616.795 308.823   4
  -4   5   0 969.699 313.085   5
   4   5   0 581.254 255.228   5
   4  -5   0 958.325 357.351   7
  -4   5  -1 31231.4 1491.67   5
   4  -5   1 30714.7 1193.97  10
   4   5   1 29106.4 1584.69   5
  -4   5  -1 30129.1 1699.85   8
   4   5   1 29494.5 1500.51  10
   4  -5   1 30587.4 1717.81   7
  -4  -5  -1 29860.7 1692.13   4
   4  -5   2 1637.99 297.391  10
  -4   5  -2 1596.61 453.061   8
   4   5   2 2060.39 469.489   5
  -4  -5  -2 2389.63 499.786   4
   4  -5   2 892.254 334.256   7
   4   5   2 1775.05 399.292  10
  -4   5  -2 2200.29 421.869   5
  -4  -5  -3 42015.2 2082.30   6
   4  -5   3 43824.4 1653.29  10
  -4   5  -3 38582.1 1854.55   5
  -4   5  -3 41280.3 2038.51   8
   4  -5   3 42893.0 2105.85   7
  -4  -5  -3 40752.6 2023.35   4
   4   5   3 41919.1 1971.62  10
  -4   5  -3 40008.7 2153.26   6
   4   5   4 3597.70 667.240   2
  -4   5  -4 3542.69 671.000   6
  -4  -5  -4 2738.79 581.010   4
   4  -5   4 3381.37 489.578  10
  -4   5  -4 3659.41 603.665   5
  -4  -5  -4 3907.55 690.331   6
  -4   5  -4 3537.54 607.112   8
   4  -5   4 3062.87 566.993   7
   4   5   4 2724.34 555.305  10
   4   5   5 29008.7 1789.29  10
   4  -5   5 28495.7 1502.45  10
  -4   5  -5 28192.3 1676.14   8
  -4   5  -5 29455.0 1771.31   5
  -4  -5  -5 28405.0 1685.00   4
   4   5   5 25409.3 1698.14   2
  -4   5  -5 29447.0 1974.68   6
  -4  -5  -5 32157.0 2026.09   6
  -4   5  -6 2419.27 640.695   6
  -4   5  -6 2302.35 561.347   5
   4   5   6 1323.73 453.144  10
  -4  -5  -6 1852.46 517.682   6
  -4   5  -6 1983.59 479.223   8
   4  -5   6 1881.87 429.509  10
  -4  -5  -6 1451.56 419.444   4
   4   5   6 1518.96 513.507   2
   4   5   7 8318.51 1098.73   2
   4  -5   7 9655.24 1002.09  10
   4   5   7 9462.74 1134.76  10
  -4   5  -7 10899.4 1032.67   8
   4  -5   7 8643.27 1089.11   2
  -4   5  -7 11221.2 1318.75   6
  -4  -5  -7 10654.6 1297.60   6
  -4   5  -8 1083.20 601.182   6
  -4  -5  -8 1101.99 578.896   6
   4  -5   8 794.612 371.319  10
   4   5   8 667.237 399.471  10
   4   5   8 442.172 334.153   2
   4  -5   8 177.385 283.946   2
   4  -5   9 580.045 382.969   2
  -4   5  -9 171.783 423.995   6
   4   5   9 636.043 456.984  10
  -4  -5  -9 109.757 399.503   6
   4  -5   9-5.98361 227.768  10
   4  -5  10 187.831 319.875   2
  -4  -5 -10 72.2148 449.476   6
   4   5  10 158.786 301.758  10
  -4   5 -10 675.504 528.391   6
   4  -5  10 720.375 409.901  10
  -4   5 -11 3364.53 874.297   6
   4   5  11 3554.29 901.121  10
   4  -5  11 3350.71 862.561   2
  -4   6  12 10934.9 1547.62   1
   4  -6 -12 7169.00 1231.97   6
   4  -6 -12 10045.1 1342.95   3
   4   6 -12 7396.76 1147.47   3
   4  -6 -11 1686.99 653.692   6
  -4   6  11 2004.33 689.604   1
  -4   6  11 2629.82 817.873   9
  -4  -6  11 1152.65 534.846   9
   4  -6 -11 468.221 410.104   7
   4  -6 -11 117.105 376.000   3
   4   6 -11 257.501 424.746   3
   4  -6 -10 267.205 356.558   6
  -4   6  10-167.584 366.581   9
  -4   6  10 586.392 571.547   1
   4   6 -10 118.089 425.487   5
  -4  -6  10 250.244 424.942   9
   4  -6 -10 36.1526 249.939   3
   4  -6 -10 296.320 440.358   7
   4   6 -10-229.148 311.454   3
  -4   6   9 7989.96 1225.92   9
  -4  -6   9 5878.50 857.169   4
  -4  -6   9 6400.53 1059.20   9
   4   6  -9 5901.21 1047.15   5
  -4   6   9 6556.82 1099.89   1
   4  -6  -9 7425.54 1001.76   3
   4  -6  -9 5422.79 932.165   7
   4   6  -9 7322.71 986.600   3
  -4  -6   8 789.925 349.022   4
  -4   6   8 2019.91 662.879   9
   4   6  -8 554.133 429.365   5
   4  -6  -8 1499.46 476.358   3
   4  -6  -8 454.838 402.677   7
  -4   6   8 1301.47 519.329   1
   4   6  -8 1667.84 490.041   3
  -4   6   7 7384.11 1044.62   9
   4  -6  -7 9254.13 945.474   3
   4   6  -7 8421.69 1128.64   5
   4   6  -7 8314.95 965.692   3
   4  -6  -7 8598.47 1102.16   7
  -4   6   7 7146.22 1039.19   1
  -4  -6   7 9009.26 1023.15   4
  -4   6   6 9327.57 1152.11   9
   4   6  -6 10739.5 1176.23   5
  -4   6   6 9204.44 981.013   8
   4  -6  -6 9664.97 901.072   3
   4   6  -6 10037.9 1007.59   3
   4  -6  -6 9418.04 1133.23   7
  -4  -6   6 9763.99 1050.34   4
   4  -6  -6 9216.56 824.575   4
   4   6  -5 1833.83 420.700   3
  -4   6   5 1872.23 543.277   9
   4   6  -5 1497.77 460.674   5
  -4   6   5 2186.43 484.330   8
  -4  -6   5 1416.12 502.221   4
   4  -6  -5 2168.80 568.769   7
   4  -6  -5 1464.13 331.754   3
  -4   6   4 45346.0 2343.15   9
   4   6  -4 44470.4 2240.04   5
  -4   6   4 43837.9 2133.56   5
  -4   6   4 42321.1 2159.74   8
   4  -6  -4 45432.2 1703.88   3
   4   6  -4 43392.2 1983.67   3
   4  -6  -4 41359.5 2241.65   7
  -4  -6   4 39208.7 2126.48   4
  -4  -6   3 6243.94 830.621   4
   4   6  -3 5731.94 667.234   3
   4  -6  -3 6082.38 510.856   3
  -4   6   3 5557.93 769.986   8
   4   6  -3 4970.98 721.644   5
  -4   6   3 5223.29 709.957   5
   4  -6  -3 5244.63 775.547   7
  -4   6   2 6215.90 835.991   8
  -4   6   2 8330.31 849.655   5
   4  -6  -2 8553.86 519.527   3
   4   6  -2 9619.16 978.821   5
   4  -6  -2 8123.02 934.171   7
  -4  -6   2 9305.84 969.521   4
   4   6  -2 8061.47 755.381  10
   4   6  -1 34370.9 1580.40  10
  -4   6   1 33852.8 1704.94   5
  -4   6   1 31631.7 1871.71   8
   4   6  -1 32518.1 1810.98   5
   4  -6  -1 33480.9 1907.18   7
  -4  -6   1 32905.7 1874.54   4
   4   6   0 213.694 222.988  10
  -4  -6   0 798.310 401.544   4
  -4   6   0-99.3643 193.769   8
  -4   6   0 525.870 261.571   5
   4   6   0 663.073 377.159   5
   4   6   0 574.218 213.910   1
   4  -6   0 368.748 308.262   7
   4  -6   1 48579.4 1463.32  10
   4   6   1 48610.2 1892.99   1
  -4   6  -1 45892.8 2047.30   5
   4   6   1 47991.9 1990.06  10
   4   6   1 47628.3 2253.24   5
  -4   6  -1 46921.2 2306.06   8
   4  -6   1 46075.5 2289.26   7
  -4  -6  -1 46291.5 2274.41   4
   4  -6   2 19115.1 894.666  10
   4  -6   2 17793.7 1383.72   7
  -4   6  -2 18876.7 1286.91   5
   4   6   2 19323.5 1441.80   5
  -4   6  -2 18245.2 1398.40   8
   4   6   2 16708.4 1173.98  10
  -4  -6  -2 17390.5 1359.35   4
   4  -6   3 2280.02 348.312  10
  -4   6  -3 2484.75 500.587   5
  -4   6  -3 2926.59 585.789   8
   4   6   3 2754.76 523.778  10
   4   6   3 3222.44 635.114   5
  -4  -6  -3 2908.55 589.623   4
   4  -6   3 3098.12 615.380   7
  -4  -6  -4 30658.0 1967.50   6
   4   6   4 29760.2 1763.68  10
  -4   6  -4 30124.1 1823.90   5
  -4   6  -4 30976.7 1858.09   8
   4  -6   4 29950.3 1873.64   7
  -4  -6  -4 31869.3 1863.22   4
  -4   6  -4 28714.1 1982.67   6
  -4   6  -5 487.246 411.676   6
  -4  -6  -5-106.464 248.653   4
  -4  -6  -5 453.921 321.489   6
  -4   6  -5 115.789 273.900   5
  -4   6  -5 174.305 273.641   8
   4   6   5-8.34338 204.571  10
   4  -6   5 105.239 309.197   7
  -4   6  -6 17090.6 1502.19   5
  -4   6  -6 18322.5 1422.38   8
   4   6   6 17051.7 1464.38  10
   4  -6   6 16538.2 1459.18   7
  -4  -6  -6 17749.1 1394.60   4
  -4   6  -6 16786.3 1623.65   6
  -4  -6  -6 18382.5 1668.44   6
  -4   6  -7 14281.7 1424.21   5
  -4   6  -7 15267.9 1293.38   8
   4   6   7 13474.5 1379.68  10
   4  -6   7 15939.1 1441.63   7
  -4   6  -7 16287.3 1654.92   6
  -4  -6  -7 14411.1 1588.08   6
  -4   6  -8 530.077 401.233   6
   4   6   8 167.585 278.759  10
  -4  -6  -8 78.7371 408.992   6
   4  -6   8 568.283 411.154   7
   4  -6   8-11.7017 323.143   2
  -4   6  -9 11704.0 1543.98   6
  -4  -6  -9 10412.2 1454.78   6
   4  -6   9 11735.3 1392.88   2
   4   6   9 12320.5 1469.28  10
  -4   6 -10 3291.35 897.331   6
   4  -6  10 2599.35 739.661   2
   4   6  10 1605.45 629.110  10
  -4  -6 -10 3203.70 877.365   6
   4  -6  11 3914.60 894.611   2
   4  -7 -12 2142.10 772.178   6
   4  -7 -11 4681.78 1048.32   6
   4   7 -11 6201.81 1185.76   5
  -4   7  11 8610.65 1414.26   9
  -4  -7  11 6923.92 1248.72   9
   4  -7 -11 4235.92 993.420   7
  -4   7  11 3827.04 972.782   1
   4  -7 -10 12561.6 1531.24   6
  -4   7  10 16126.8 1849.75   9
   4   7 -10 16610.0 1846.37   5
  -4  -7  10 13936.4 1711.16   9
   4  -7 -10 17154.6 1779.64   7
  -4   7  10 16010.3 1773.08   1
  -4   7   9 5.77059 285.596   9
   4   7  -9 168.390 425.358   5
  -4  -7   9 143.007 426.349   9
  -4   7   9 441.835 451.859   1
  -4  -7   9 378.094 356.320   4
   4  -7  -9-248.096 349.021   7
   4   7  -9 336.545 285.603   3
  -4  -7   8 1251.98 505.651   4
  -4   7   8 2429.76 724.644   9
   4   7  -8 1275.92 516.359   5
  -4   7   8 658.059 451.547   1
   4  -7  -8 2430.11 636.972   7
   4   7  -8 2404.77 590.341   3
  -4  -7   7 4236.67 778.708   4
   4   7  -7 2476.93 668.471   5
  -4   7   7 3233.92 751.374   9
   4  -7  -7 3082.27 727.383   7
   4   7  -7 5206.82 747.798   3
   4   7  -6 1417.20 417.965   3
  -4  -7   6 879.814 475.122   4
  -4   7   6 661.510 462.726   9
   4   7  -6 1812.43 616.627   5
   4  -7  -6 1170.77 471.588   7
   4  -7  -6 879.833 357.409   4
   4   7  -5 2693.87 532.426   3
  -4   7   5 2242.60 604.363   9
  -4  -7   5 2877.03 613.805   4
   4  -7  -5 2992.89 549.623   4
  -4   7   5 3054.44 641.607   8
   4   7  -5 3350.28 676.482   5
  -4   7   5 3080.42 635.207   5
   4  -7  -5 3036.70 710.319   7
   4   7  -4 2483.59 479.960   3
  -4  -7   4 3280.13 699.522   4
  -4   7   4 1146.10 415.875   8
   4   7  -4 2460.52 606.205   5
  -4   7   4 2459.21 561.442   5
   4  -7  -4 3781.40 738.447   7
   4   7  -3 11993.4 1178.51   5
  -4   7   3 12644.6 1170.03   5
   4   7  -3 11321.6 959.495   3
   4  -7  -3 11661.2 1209.63   7
  -4   7   3 11867.1 1209.35   8
  -4  -7   3 11308.9 1175.03   4
   4   7  -2 98244.6 3583.98   5
  -4   7   2 90433.8 3521.97   8
   4  -7  -2 85931.6 3454.59   7
   4   7  -2 93668.2 3029.33   3
  -4  -7   2 89693.2 3522.24   4
  -4   7   2 92892.7 3337.98   5
   4   7  -1-13.9688 181.400  10
  -4  -7   1 470.132 382.493   4
  -4   7   1 73.5930 270.488   8
   4   7  -1 238.272 343.956   5
  -4   7   1 359.449 291.704   5
   4  -7  -1-12.3393 213.889   7
  -4   7   0 12553.7 1104.87   5
   4   7   0 13742.0 1245.18   5
   4   7   0 13503.0 983.672  10
   4  -7   0 13027.9 1235.81   7
   4   7   0 12420.6 858.258   1
  -4  -7   0 10682.1 1145.50   4
  -4   7   0 10824.0 1168.06   8
   4   7   1 2377.29 445.701  10
  -4  -7  -1 2946.19 600.074   4
  -4   7  -1 1520.68 390.922   5
  -4   7  -1 2452.51 578.667   8
   4   7   1 2389.51 569.352   5
   4   7   1 2114.91 417.914   1
   4  -7   1 2377.30 543.240   7
   4   7   2 36152.5 1838.04   1
  -4   7  -2 38609.5 2048.19   5
   4   7   2 38738.3 2213.99   5
  -4   7  -2 37576.8 2167.49   8
   4  -7   2 38631.1 2182.62   7
  -4  -7  -2 34046.6 2064.67   4
   4   7   2 37338.5 1830.30  10
   4   7   3 12843.3 1098.71  10
  -4   7  -3 12072.3 1160.37   5
   4   7   3 10974.3 1060.90   1
   4   7   3 12081.4 1246.71   5
  -4   7  -3 10911.3 1150.40   8
   4  -7   3 10858.5 1143.87   7
  -4  -7  -3 9683.09 1105.31   4
  -4   7  -4 481.703 348.868   8
  -4   7  -4 359.301 373.006   5
  -4  -7  -4 455.064 344.838   4
   4   7   4 702.247 354.509   5
   4   7   4 475.626 368.037  10
   4  -7   4 329.954 339.550   7
  -4  -7  -5 9600.45 1213.51   6
  -4   7  -5 11371.5 1235.79   5
   4   7   5 11858.9 1353.67   5
  -4   7  -5 9198.98 1093.13   8
  -4  -7  -5 11155.2 1159.14   4
   4   7   5 10972.6 1130.01  10
   4  -7   5 11367.8 1204.12   7
  -4  -7  -6 17282.8 1699.76   6
  -4   7  -6 16343.7 1536.51   5
  -4   7  -6 16020.4 1408.22   8
   4  -7   6 16630.1 1485.23   7
  -4  -7  -6 16507.6 1421.14   4
  -4   7  -6 15121.3 1618.03   6
   4   7   6 16249.4 1448.68  10
  -4   7  -7 664.741 439.741   6
   4   7   7 181.066 309.732  10
  -4  -7  -7 662.918 416.439   6
  -4   7  -7 160.917 290.431   5
   4  -7   7 1376.85 507.732   7
   4   7   8 14684.7 1546.24  10
  -4   7  -8 17708.2 1729.73   5
   4  -7   8 15048.3 1558.50   2
  -4   7  -8 21494.6 2050.45   6
  -4  -7  -8 20801.5 2018.40   6
  -4   7  -9 3800.67 953.599   6
  -4  -7  -9 4155.92 974.603   6
   4   7   9 3017.04 780.259  10
   4  -7   9 5030.07 924.349   4
   4  -7   9 4560.24 890.990   2
   4  -7  10 16592.7 1757.45   2
   4   7  10 15314.8 1730.93  10
   4  -8 -11 9170.17 1449.44   6
  -4   8  10 4369.86 975.035   9
  -4  -8  10 4567.71 1029.92   9
   4   8 -10 3624.00 976.332   5
   4  -8 -10 4642.78 1014.64   7
  -4   8  10 6847.14 1262.96   1
  -4  -8   9 6648.32 1033.91   4
  -4   8   9 6808.06 1219.29   9
   4   8  -9 7463.65 1267.34   5
   4  -8  -9 4591.72 929.947   7
  -4   8   9 4934.76 1033.15   1
  -4  -8   8 1128.17 520.131   4
  -4   8   8 1262.43 635.866   9
   4   8  -8 2378.30 775.636   5
   4  -8  -8 927.392 569.244   7
  -4  -8   7 2327.58 588.654   4
  -4   8   7 4299.40 972.487   9
   4   8  -7 3507.46 806.245   5
   4  -8  -7 3657.19 845.498   7
   4   8  -6 45451.9 2737.29   5
  -4   8   6 40144.2 2495.35   5
   4  -8  -6 37607.7 2536.48   7
  -4  -8   6 40505.2 2482.01   4
  -4  -8   5 5940.32 969.381   4
   4   8  -5 6396.15 992.889   5
  -4   8   5 6573.62 964.176   5
   4  -8  -5 6600.89 1025.37   7
   4  -8  -5 7090.95 872.066   4
   4  -8  -4 1074.56 413.864   4
  -4  -8   4 910.363 446.436   4
   4   8  -4 721.101 430.775   5
  -4   8   4 1109.54 482.723   5
   4  -8  -4 200.275 341.266   7
  -4   8   3 28907.6 1912.29   5
  -4   8   3 27305.6 1952.16   8
   4   8  -3 28780.2 2007.11   5
   4  -8  -3 32799.8 2157.66   7
  -4  -8   3 28610.0 2022.95   4
  -4  -8   2 4879.72 854.804   4
   4   8  -2 5827.43 681.888   3
  -4   8   2 4004.73 776.540   8
   4   8  -2 5035.64 854.091   5
  -4   8   2 4452.68 735.642   5
   4  -8  -2 5159.99 839.560   7
  -4  -8   1 7135.00 1008.99   4
   4   8  -1 8374.80 1049.40   5
  -4   8   1 8107.19 1065.40   8
  -4   8   1 7356.27 935.837   5
   4  -8  -1 8607.44 1062.90   7
  -4  -8   0 2724.58 668.461   4
  -4   8   0 1993.37 569.037   8
  -4   8   0 2345.09 514.035   5
   4   8   0 1889.61 584.292   5
   4  -8   0 2483.11 606.181   7
  -4  -8  -1 513.440 387.213   4
  -4   8  -1 280.832 302.439   8
  -4   8  -1-245.986 334.990   5
   4   8   1 266.217 277.846   5
   4  -8   1-132.209 233.855   7
  -4   8  -2 28067.8 1874.50   5
   4   8   2 28244.9 2006.27   5
  -4   8  -2 26066.3 1912.38   8
   4   8   2 27936.4 1676.34   1
   4  -8   2 32230.7 2067.13   7
  -4  -8  -2 29003.0 1998.02   4
  -4  -8  -3 1252.71 572.384   4
   4   8   3 214.020 226.751  10
   4   8   3 1131.55 412.372   1
  -4   8  -3 568.668 373.230   5
  -4   8  -3 364.091 304.087   8
   4   8   3 816.644 494.119   5
   4  -8   3 141.936 263.342   7
   4   8   4 338.085 312.812   1
   4   8   4 482.691 341.238  10
  -4   8  -4 48.5718 351.190   5
  -4   8  -4 108.239 285.741   8
  -4  -8  -4-62.3965 263.693   4
   4   8   4-58.6501 354.765   5
   4  -8   4 796.914 379.706   7
   4   8   5 4186.18 719.360  10
  -4   8  -5 4927.29 852.589   5
  -4   8  -5 3622.38 724.567   8
  -4  -8  -5 4273.14 903.267   6
  -4  -8  -5 4676.54 843.440   4
   4   8   5 3694.08 848.327   5
   4   8   5 2475.46 656.774   1
   4  -8   5 5839.42 967.544   7
  -4  -8  -6 18468.0 1865.34   6
   4   8   6 22765.8 1763.93  10
   4   8   6 23054.1 1930.20   1
  -4   8  -6 22677.7 1950.10   5
   4   8   6 25795.5 2149.41   5
   4  -8   6 25372.8 1913.18   7
  -4  -8  -7 1155.08 597.969   6
  -4   8  -7 2083.08 669.303   5
   4   8   7 2144.57 673.857  10
  -4  -8  -8 216.216 384.934   6
   4  -8   8 553.976 356.621   4
  -4   8  -8 244.709 458.005   5
   4   8   8 1493.38 529.796  10
   4  -8   8-381.132 482.297   2
   4  -8   9 435.030 343.256   4
   4   8   9 793.421 316.884  10
   4  -8   9 1451.99 560.040   2
   4   9  -9 17068.3 1990.66   5
  -4   9   9 15880.3 1823.60   5
   4  -9  -9 16259.4 1855.53   7
  -4  -9   9 15664.9 1668.34   4
  -4  -9   8 3218.00 811.932   4
   4   9  -8 4506.83 1018.64   5
  -4   9   8 4511.61 955.666   5
   4  -9  -8 4519.80 959.689   7
   4   9  -7 4087.60 942.114   5
  -4  -9   7 3077.05 790.039   4
  -4   9   7 4012.97 906.263   5
   4  -9  -7 4606.10 990.399   7
   4   9  -6 3813.23 841.623   5
  -4  -9   6 2824.01 712.989   4
  -4   9   6 3827.02 869.592   5
   4  -9  -6 2963.47 793.347   7
  -4   9   5 11012.1 1338.35   5
   4   9  -5 12934.9 1469.45   5
   4  -9  -5 14336.6 1616.69   7
  -4  -9   5 11730.8 1416.62   4
   4  -9  -5 14483.8 1358.36   4
  -4  -9   4-136.605 344.025   4
   4  -9  -4 507.959 412.242   4
   4   9  -4 737.564 511.122   5
  -4   9   4 93.7594 296.886   5
   4  -9  -4 310.850 464.499   7
   4  -9  -3 33.0846 253.409   4
   4   9  -3 873.309 487.301   5
  -4  -9   3 1103.85 567.918   4
  -4   9   3 704.323 389.780   5
   4  -9  -3 1262.65 499.288   7
  -4  -9   2 966.449 517.136   4
   4  -9  -2 697.662 391.960   4
   4   9  -2 481.280 458.147   5
  -4   9   2 837.769 461.585   5
   4  -9  -2 380.898 494.066   7
   4  -9  -1 3376.82 724.042   4
   4   9  -1 3537.13 742.346   5
  -4   9   1 3645.65 734.755   5
   4  -9  -1 3812.71 779.781   7
  -4  -9   1 3549.90 826.621   4
  -4   9   0 10234.0 1180.04   5
   4   9   0 10518.9 1280.47   5
  -4   9   0 10391.8 1290.33   8
   4  -9   0 12074.6 1346.17   7
  -4  -9   0 11342.7 1342.70   4
  -4  -9  -1 1475.47 597.762   4
  -4   9  -1 877.061 452.246   8
  -4   9  -1 1092.37 482.789   5
   4   9   1 904.344 495.553   5
   4  -9   1 698.769 405.242   7
  -4  -9  -2-192.151 300.589   4
  -4   9  -2 333.047 445.172   8
  -4   9  -2-91.8287 264.824   5
   4   9   2 336.233 354.971   5
   4  -9   2-82.7342 363.237   7
  -4  -9  -3 4661.55 857.800   4
  -4   9  -3 6752.37 1023.96   8
  -4   9  -3 7697.79 1054.93   5
   4   9   3 7464.14 1151.88   5
   4  -9   3 4669.05 837.093   7
  -4   9  -4 632.180 529.641   5
   4   9   4 98.2518 301.163   1
   4   9   4 1013.39 551.416   5
   4  -9   4 242.592 345.831   7
  -4  -9  -5 3963.20 825.929   4
  -4  -9  -5 4324.60 943.997   6
   4   9   5 6499.83 1017.39   1
   4  -9   5 4629.41 926.591   4
  -4   9  -5 5319.39 992.506   5
   4   9   5 4660.57 973.284   5
   4  -9   5 4008.46 771.045   7
   4   9   6 1296.05 586.847   1
  -4  -9  -6 495.791 505.955   6
   4  -9   6 946.423 510.951   4
  -4   9  -6 1205.27 615.281   5
   4   9   6 1271.48 622.210   5
   4   9   7 884.908 652.879   5
   4   9   7 907.188 456.447   1
  -4  -9  -7 1504.83 851.474   6
   4  -9   7 782.901 544.467   4
  -4   9  -7 335.165 445.269   5
   4  -9   8 7771.99 1246.05   4
  -4   9  -8 7674.44 1261.96   5
   4  -9   8 6694.85 1110.44   2
   4   9   8 7905.76 1284.06   1
  -4 -10   9 2531.24 809.496   4
  -4 -10   8 6118.60 1123.30   4
  -4  10   8 7514.32 1308.77   5
  -4 -10   7 321.244 386.484   4
   4  10  -7 570.078 506.995   5
  -4  10   7 715.676 505.706   5
   4 -10  -7 808.567 528.130   7
  -4 -10   6 4824.02 989.324   4
   4  10  -6 3919.83 928.008   5
  -4  10   6 4148.62 933.042   5
   4 -10  -6 4497.57 999.647   7
  -4 -10   5 2678.52 826.087   4
   4 -10  -5 2529.59 621.887   4
   4  10  -5 2535.92 767.336   5
  -4  10   5 3108.80 795.815   5
   4 -10  -5 2983.30 764.813   7
   4  10  -4 22066.1 2030.84   5
  -4  10   4 22561.7 1952.53   5
   4 -10  -4 22364.7 2062.46   7
  -4 -10   4 21648.2 1996.75   4
   4 -10  -4 21833.5 1808.18   4
  -4 -10   3 3738.47 871.281   4
   4 -10  -3 2995.17 701.516   4
   4  10  -3 3614.86 844.521   5
  -4  10   3 3952.45 819.421   5
   4 -10  -3 4801.57 960.896   7
   4 -10  -2 8179.53 1139.06   4
   4  10  -2 7310.99 1134.19   5
  -4  10   2 8462.36 1173.74   5
   4 -10  -2 10671.8 1374.01   7
  -4 -10   2 11230.9 1426.61   4
   4 -10  -1 9616.24 1260.99   4
   4  10  -1 9807.49 1311.16   5
  -4  10   1 8284.19 1161.86   5
   4 -10  -1 8525.04 1198.33   7
  -4 -10   1 12629.7 1497.65   4
   4 -10   0 4099.08 868.969   4
  -4  10   0 2958.36 728.258   5
   4  10   0 3926.61 877.586   5
  -4 -10   0 3214.98 765.679   4
   4 -10   0 2654.57 658.666   7
   4 -10   1 724.890 515.516   4
  -4  10  -1 1555.46 554.639   5
   4  10   1 1054.98 546.069   5
   4 -10   1 659.037 426.334   7
  -4 -10  -1 863.005 508.674   4
  -4  10  -2 10717.2 1323.80   5
   4  10   2 15893.8 1708.56   5
   4 -10   2 12407.2 1412.59   7
  -4 -10  -2 11736.9 1418.75   4
   4 -10   2 11555.2 1445.88   4
  -4 -10  -3-350.969 373.584   4
  -4  10  -3 1160.82 507.586   5
   4  10   3-83.9298 413.275   5
   4 -10   3 426.932 431.995   7
   4 -10   3-48.3504 410.982   4
  -4  10  -4 35673.1 2542.27   5
   4  10   4 34268.4 2629.60   5
   4 -10   4 30577.1 2251.43   7
  -4 -10  -4 31566.5 2350.71   4
   4 -10   4 37498.7 2666.10   4
  -4  10  -5 531.408 452.112   5
  -4 -10  -5 10.5481 329.086   6
   4 -10   5 63.3218 378.963   4
  -4 -10  -5 295.791 451.430   4
  -4 -10  -6 12282.5 1627.26   6
  -4  10  -6 13613.5 1656.03   5
   4  10   6 15943.8 1868.75   5
   4 -10   6 13091.3 1614.67   4
  -4  10  -7 1439.22 593.920   5
  -4 -11   6 3768.18 942.622   4
  -4  11   6 2836.64 847.553   5
  -4  11   5 423.621 408.025   5
  -4 -11   5 1598.31 637.671   4
   4  11  -5 584.610 507.611   5
   4 -11  -5-150.893 470.213   7
  -4 -11   4 2787.21 816.292   4
   4  11  -4 3307.00 1121.06   5
  -4  11   4 1895.29 698.310   5
   4 -11  -4 2853.23 760.467   4
   4 -11  -4 3119.59 848.772   7
   4  11  -3-105.430 317.199   5
  -4  11   3 271.538 520.615   5
  -4 -11   3 1205.67 676.822   4
   4 -11  -3 851.288 436.659   4
   4 -11  -3 263.304 382.984   7
   4 -11  -2 10213.5 1359.32   4
   4  11  -2 10894.5 1497.48   5
  -4  11   2 9486.17 1321.21   5
  -4 -11   2 10896.9 1472.87   4
   4 -11  -2 11256.1 1489.78   7
  -4 -11   1 8140.43 1286.30   4
   4 -11  -1 5846.93 1054.22   4
   4  11  -1 7711.37 1249.37   5
  -4  11   1 4973.48 970.134   5
   4 -11  -1 6612.57 1153.85   7
  -4  11   0 17950.8 1797.11   5
   4  11   0 19762.7 1986.34   5
   4 -11   0 15687.2 1709.30   7
  -4 -11   0 17032.6 1836.33   4
   4 -11   0 19415.1 1928.83   4
   4 -11   1 318.727 390.677   4
   4  11   1 666.237 605.792   5
  -4  11  -1-67.6808 308.187   5
   4 -11   1 446.867 466.202   7
  -4 -11  -1 369.020 402.816   4
  -4  11  -2 11892.1 1502.52   5
   4  11   2 14019.0 1695.68   5
   4 -11   2 14835.7 1603.62   7
  -4 -11  -2 13838.6 1670.47   4
   4 -11   2 13734.6 1653.95   4
  -4 -11  -3 2818.85 823.318   4
   4 -11   3 2637.51 813.535   4
  -4  11  -3 2221.00 707.694   5
   4  11   3 2716.08 812.676   5
   4 -11   3 3090.20 807.130   7
  -4 -11  -4 954.657 502.238   4
   4 -11   4 78.0076 443.752   4
  -4  11  -4-127.296 349.823   5
   4  11   4 743.128 652.390   5
  -4  11  -5 293.515 497.464   5
   4 -12  -4 3309.81 911.608   4
  -4  12   4 3252.74 934.298   5
   4 -12  -3 2182.78 722.861   4
  -4  12   3 2348.72 827.486   5
   4 -12  -2 1271.96 629.933   4
  -4  12   2 503.634 394.834   5
   4 -12  -2 1215.67 580.679   7
   4 -12  -1 4133.98 991.576   4
  -4  12   1 3444.15 846.593   5
   4 -12  -1 5169.28 1104.65   7
  -4  12   0 612.008 401.408   5
   4 -12   0 108.704 364.326   7
  -4  12  -1-7.63259 306.571   5
   4 -12   1 793.641 502.133   7
  -4  12  -2 135.073 402.140   5
   4 -12   2-234.989 432.379   7
  -5   0  13 29.5119 393.188   9
   5   0 -13-265.887 353.729   3
  -5   0  12 4356.73 941.854   9
   5   0 -12 5927.14 1067.58   3
  -5   0  11 183.792 257.188   1
  -5   0  11 595.412 573.182   9
   5   0 -11 53.1585 275.944   3
  -5   0  10 22748.7 1926.52   9
  -5   0  10 23424.4 1625.18   1
   5   0 -10 18245.6 1671.77   3
  -5   0   9 236.437 273.861   1
  -5   0   9 96.3035 394.464   9
   5   0  -9-9.99724 356.966   3
  -5   0   8 49445.0 2587.77   9
  -5   0   8 51467.6 2187.50   1
   5   0  -8 48455.0 2492.75   3
   5   0  -8 46978.4 1779.60   7
   5   0  -8 51207.5 1830.18   6
   5   0  -7 44.8198 322.082   3
  -5   0   7 375.091 296.532   9
  -5   0   7-69.8219 136.647   8
  -5   0   7 200.918 241.501   1
   5   0  -7 153.184 155.138   6
   5   0  -7 232.079 206.151   7
  -5   0   6 38275.4 2004.76   9
  -5   0   6 38624.4 1597.62   8
   5   0  -6 37580.4 1959.81   3
   5   0  -6 39936.1 1510.52   7
  -5   0   6 38356.4 1649.03   1
   5   0  -6 39399.6 1264.75   6
   5   0  -5 112.428 80.1332   6
   5   0  -5 63.3248 187.840   3
  -5   0   5 25.6691 189.877   9
  -5   0   5-143.261 182.968   8
   5   0  -5 109.715 139.764   7
   5   0  -4 3425.47 234.300   6
   5   0  -4 3646.12 548.512   3
  -5   0   4 4809.94 590.590   9
  -5   0   4 3980.01 514.151   8
  -5   0   4 3663.48 479.657   4
   5   0  -4 4850.39 489.007   7
   5   0  -4 3630.68 244.994   6
   5   0  -3 0.99159 50.1791   6
  -5   0   3 52.7284 146.608   9
   5   0  -3 189.310 173.378   3
  -5   0   3-88.5622 206.411   8
   5   0  -3 111.018 183.267   7
  -5   0   3 217.459 232.433   4
  -5   0   2 59990.1 1925.25   9
  -5   0   2 60736.2 1367.87   5
   5   0  -2 59649.5 2226.29  10
  -5   0   2 61497.9 2230.63   8
  -5   0   2 60066.1 2174.98   4
   5   0  -2 66050.5 1534.55   6
  -5   0   1 56.1988 124.902   6
   5   0  -1 130.057 203.991  10
  -5   0   1-78.3885 105.071   9
  -5   0   1 70.0519 198.360   8
   5   0   0 188930. 4622.17  10
  -5   0   0 191610. 3605.69   9
  -5   0   0 188527. 4726.02   8
  -5   0   0 192153. 4120.88   6
  -5   0  -1 10.3853 138.839   6
   5   0   1 13.1663 53.4414   5
  -5   0  -1 59.6134 203.197   8
   5   0   1 118.845 204.011  10
   5   0   2 60393.5 2297.78  10
  -5   0  -2 64289.6 2395.80   8
  -5   0  -2 65100.0 2245.77   6
   5   0   3-37.5040 185.466  10
  -5   0  -3-50.7025 204.970   6
  -5   0  -3-148.773 255.453   8
   5   0   3 202.224 215.526   2
   5   0   4 47659.1 2191.09  10
   5   0   4 53270.2 2258.65   2
  -5   0  -4 54425.5 2226.94   8
  -5   0  -4 51538.0 2280.64   6
   5   0   5 179.825 236.719   2
   5   0   5-5.21717 224.136  10
  -5   0  -5-156.975 230.381   6
  -5   0  -5 445.398 276.648   8
   5   0   6 46607.6 2381.16  10
  -5   0  -6 52596.9 2214.38   8
   5   0   6 46318.5 2372.60   2
  -5   0  -6 49595.6 2513.09   6
   5   0   7 201.086 274.073  10
   5   0   7 183.855 282.731   2
  -5   0  -7 213.298 253.021   8
  -5   0  -7-63.2586 296.960   6
   5   0   8 9148.46 1138.44  10
   5   0   8 8701.14 1137.83   2
  -5   0  -8 8373.16 1145.87   6
   5   0   9 33.2518 242.160  10
   5   0   9 374.517 407.215   2
   5   0  10 25061.0 2125.87  10
   5   0  10 23903.5 2086.54   2
  -5   0 -10 23624.4 2141.34   6
  -5   0 -11-194.404 398.146   6
   5   0  11 288.559 494.060   2
   5   0  11 363.321 343.548  10
  -5   1  13 8077.59 1363.79   9
  -5  -1  13 11027.9 1604.18   9
   5  -1 -13 8704.44 1341.34   3
   5   1 -13 9910.36 1405.23   3
  -5   1  12 4283.87 838.148   1
  -5   1  12 6736.48 1196.91   9
  -5  -1  12 4384.41 981.277   9
   5  -1 -12 4003.85 870.345   3
   5   1 -12 4761.33 965.859   3
  -5   1  11 16549.6 1507.82   1
  -5   1  11 15058.8 1646.79   9
  -5  -1  11 16302.2 1736.27   9
   5  -1 -11 15680.6 1590.21   3
   5   1 -11 13590.3 1499.46   3
  -5   1  10 1198.87 516.205   9
  -5   1  10 590.404 444.541   1
  -5  -1  10 1056.68 496.336   9
   5  -1 -10 392.507 387.466   3
   5   1 -10-147.663 256.390   3
  -5   1   9 5059.24 904.061   9
  -5  -1   9 7106.66 1062.22   9
  -5  -1   9 5638.21 719.343   1
  -5   1   9 4250.06 708.162   1
   5  -1  -9 3709.13 565.695   7
   5  -1  -9 3715.97 734.628   3
   5   1  -9 4931.19 831.114   3
   5  -1  -8 216.677 182.887   6
  -5   1   8 756.942 443.559   9
  -5  -1   8 270.942 302.960   9
  -5  -1   8 280.238 208.153   1
   5  -1  -8 390.006 238.064   7
  -5   1   8 678.523 346.031   1
   5  -1  -8 42.5023 294.565   3
   5   1  -8 571.998 310.865   3
   5  -1  -7 2341.74 516.836   3
   5   1  -7 3489.57 664.310   3
   5  -1  -7 1965.83 364.025   6
  -5   1   7 2052.85 457.432   1
  -5   1   7 1788.33 474.567   9
  -5  -1   7 2102.50 543.523   9
  -5   1   7 2029.25 361.792   8
  -5  -1   7 2494.89 392.371   8
   5   1  -7 2403.69 292.679   7
   5  -1  -7 2726.22 450.069   7
  -5  -1   7 3009.90 443.073   4
  -5  -1   7 2638.86 426.260   1
   5  -1  -6 18022.7 922.709   6
  -5   1   6 17400.1 1334.40   9
  -5  -1   6 19210.7 1380.17   9
  -5  -1   6 17120.5 1029.62   8
  -5   1   6 14900.9 958.392   8
   5  -1  -6 15901.7 1238.82   3
   5   1  -6 15519.9 1244.20   3
   5   1  -6 18205.4 810.913   7
   5  -1  -6 17184.8 1057.40   7
  -5   1   6 17078.7 1148.70   1
  -5  -1   6 17858.9 967.136   1
  -5  -1   6 16732.8 1027.97   4
   5   1  -6 15493.8 607.765   6
  -5  -1   5 12942.3 909.343   8
  -5   1   5 13497.8 1083.31   9
  -5  -1   5 12248.7 1042.40   9
  -5   1   5 12477.4 889.453   8
   5  -1  -5 12490.6 1026.95   3
   5   1  -5 13142.8 1081.23   3
   5   1  -5 12138.4 661.801   7
   5  -1  -5 13278.4 893.418   7
  -5  -1   5 13078.7 923.367   4
  -5   1   4 102207. 3157.15   9
  -5  -1   4 103750. 3175.30   9
  -5   1   4 101733. 3017.33   8
  -5  -1   4 107500. 3074.53   8
   5  -1  -4 98045.8 3136.27   3
   5   1  -4 98994.0 3232.05   3
   5  -1  -4 108971. 2982.94   7
   5   1  -4 107839. 2577.43   7
  -5  -1   4 107523. 3075.23   4
   5   1  -3 27923.2 1101.32   5
   5   1  -3 29702.4 1546.93  10
  -5   1   3 30143.8 1396.00   9
  -5  -1   3 30157.4 1398.11   9
  -5   1   3 27782.6 1423.51   8
   5  -1  -3 30662.5 1487.73   3
   5   1  -3 29025.1 1516.66   3
   5  -1  -3 27417.4 1332.93   7
  -5  -1   3 28218.4 1415.01   4
   5   1  -3 28437.8 1156.32   7
   5  -1  -2 13044.8 951.283  10
   5   1  -2 12568.7 953.469  10
   5   1  -2 11255.7 561.508   5
  -5  -1   2 10896.2 742.468   9
  -5   1   2 10903.4 418.526   5
  -5   1   2 10572.8 735.217   9
  -5   1   2 12243.9 921.545   8
  -5  -1   2 12772.0 938.070   4
   5  -1  -2 11485.6 844.480   7
   5  -1  -1 21288.3 1194.68  10
   5   1  -1 23319.6 1286.84  10
  -5   1   1 22865.4 957.783   9
  -5  -1   1 22292.7 951.744   9
   5   1  -1 21226.5 711.895   5
  -5   1   1 24364.9 1333.14   8
  -5  -1   1 20853.3 1234.36   4
  -5   1   1 22219.0 1002.60   6
  -5  -1   1 21001.4 806.822   6
  -5  -1   0 2461.52 321.128   6
  -5  -1   0 2328.27 244.457   9
  -5   1   0 2224.38 233.980   9
   5  -1   0 2402.25 402.029  10
   5   1   0 2482.64 230.045   5
   5  -1   0 2041.54 237.724   9
  -5   1   0 2380.84 449.408   8
  -5   1   0 2369.38 348.175   6
   5   1   0 1998.36 425.516  10
  -5  -1   0 2476.64 477.315   4
   5   1   1 42378.3 1805.84  10
  -5  -1  -1 38926.2 888.350   9
   5  -1   1 36668.3 889.211   9
   5  -1   1 41633.9 992.828   5
  -5   1  -1 43828.6 1880.55   8
   5  -1   1 42751.0 1763.76  10
  -5  -1  -1 42986.0 1864.39   4
  -5   1  -1 42703.6 1657.13   6
  -5  -1  -1 40744.9 1537.42   6
   5  -1   2 33272.5 1593.26  10
   5   1   2 32078.5 1622.35  10
   5   1   2 33679.1 1542.23   2
  -5   1  -2 34653.4 1701.32   8
  -5  -1  -2 34203.5 1690.33   4
  -5   1  -2 33754.1 1590.81   6
  -5  -1  -2 34168.6 1531.59   6
   5   1   3 401.969 237.462   2
  -5   1  -3 89.7775 185.915   6
  -5  -1  -3 258.938 228.937   6
   5  -1   3 53.2696 226.534  10
   5   1   3 232.673 223.419  10
  -5   1  -3 32.6837 207.454   8
   5   1   4 90163.9 3164.23  10
   5  -1   4 89708.3 3143.86   2
  -5   1  -4 93587.7 3057.21   8
  -5  -1  -4 89752.2 3050.88   8
   5   1   4 87054.1 3057.70   2
   5  -1   4 90590.1 3099.14  10
  -5   1  -4 83771.6 3103.42   6
  -5  -1  -4 90792.2 3135.74   6
  -5   1  -5 3338.11 620.273   6
   5   1   5 3678.46 610.244   2
   5   1   5 4212.77 673.052  10
  -5  -1  -5 3977.67 686.858   6
  -5   1  -5 4213.23 597.623   8
  -5  -1  -5 4213.35 619.641   8
   5  -1   5 4146.52 663.123  10
   5  -1   5 3648.43 630.245   2
   5  -1   6 11076.8 1115.18  10
   5   1   6 11652.3 1163.71  10
  -5   1  -6 12759.0 1048.59   8
  -5  -1  -6 13689.3 1097.43   8
   5  -1   6 9132.86 1048.39   2
   5   1   6 11486.4 1147.75   2
  -5   1  -6 12941.0 1269.44   6
  -5  -1  -6 13077.0 1271.23   6
  -5   1  -7 8015.67 1069.89   6
  -5  -1  -7 10288.6 974.281   8
   5   1   7 7014.58 962.523  10
   5   1   7 7212.88 973.055   2
  -5   1  -7 10040.5 918.636   8
  -5  -1  -7 8331.19 1096.56   6
   5  -1   7 7750.62 987.039  10
   5  -1   7 7106.81 971.491   2
  -5   1  -8 7823.27 1128.72   6
   5  -1   8 4685.88 820.893  10
   5   1   8 6385.86 958.045  10
   5   1   8 6477.83 986.553   2
   5  -1   8 4869.45 861.697   2
  -5  -1  -8 8551.04 1159.47   6
   5  -1   9 6457.33 1062.49  10
   5   1   9 7359.05 1108.18  10
   5  -1   9 6483.97 1032.18   2
  -5  -1  -9 6607.74 1103.11   6
   5   1   9 7216.35 1122.48   2
  -5   1  -9 8780.59 1241.44   6
  -5   1 -10 8511.92 1340.88   6
   5   1  10 11264.4 1439.27  10
   5  -1  10 10160.7 1331.89  10
   5   1  10 9370.56 1307.18   2
   5  -1  10 12778.5 1541.14   2
  -5  -1 -10 13653.5 1619.52   6
  -5   1 -11 5116.23 1101.95   6
   5  -1  11 4841.17 1003.33  10
   5   1  11 4295.72 926.353  10
  -5  -1 -11 4240.03 1021.74   6
   5  -1  11 4394.55 962.442   2
   5   1  11 4841.52 1025.42   2
  -5   2  13 675.024 581.753   9
  -5  -2  13-98.0675 431.568   9
  -5   2  13 9.62282 386.447   1
   5  -2 -13 1358.79 732.994   3
   5   2 -13 34.9599 467.443   3
  -5   2  12 344.318 327.706   1
  -5   2  12 72.0395 607.112   9
  -5  -2  12-156.160 340.704   9
   5  -2 -12 135.182 418.884   3
   5   2 -12 159.003 356.376   3
  -5   2  11 1194.33 606.716   9
  -5  -2  11 1150.69 578.373   9
  -5   2  11 1082.74 479.420   1
   5  -2 -11 1283.86 541.143   3
   5   2 -11 1555.92 571.971   3
   5  -2 -10 7207.83 858.340   7
  -5   2  10 7090.82 1105.28   9
  -5  -2  10 8887.36 1229.03   9
   5  -2 -10 7368.36 1054.60   3
   5   2 -10 7523.99 1082.12   3
  -5   2  10 7372.40 994.311   1
  -5   2   9 41730.0 2538.05   9
  -5  -2   9 41686.8 2523.36   9
  -5   2   9 41327.4 2282.84   1
   5  -2  -9 40270.0 2356.72   3
   5   2  -9 36783.5 2285.07   3
   5  -2  -9 40980.5 2029.01   7
   5  -2  -9 39780.6 1963.19   6
   5   2  -8 3843.88 703.218   3
  -5   2   8 3322.82 638.696   1
   5  -2  -8 3601.41 555.930   6
  -5   2   8 2938.49 652.702   9
  -5  -2   8 5887.90 928.817   9
  -5  -2   8 4807.27 546.147   1
   5  -2  -8 4946.10 665.586   7
   5  -2  -8 4073.59 722.225   3
  -5  -2   8 3734.22 508.575   4
  -5   2   7 39411.2 1630.69   8
   5  -2  -7 37282.0 1670.13   6
  -5   2   7 37391.2 2146.62   9
  -5  -2   7 38825.8 2175.79   9
  -5  -2   7 36652.8 1581.76   8
  -5  -2   7 38977.1 1459.63   1
   5  -2  -7 35306.9 1979.70   3
   5   2  -7 32848.2 1983.48   3
  -5   2   7 35632.4 1915.36   1
   5  -2  -7 37925.1 1827.29   7
  -5  -2   7 39520.4 1722.43   4
  -5  -2   6 1105.08 327.174   4
   5  -2  -6 1140.81 423.094   3
  -5   2   6 526.751 285.481   1
   5   2  -6 405.931 317.470   3
   5   2  -6 965.546 365.095   5
  -5   2   6 502.762 287.586   9
  -5  -2   6 456.393 285.319   9
  -5   2   6 1088.76 316.888   8
   5  -2  -6 870.591 310.417   7
  -5  -2   5 20237.7 1360.39   9
   5   2  -5 22432.9 1279.08   5
  -5   2   5 22784.0 1445.27   9
  -5   2   5 20800.0 1196.49   8
   5  -2  -5 22558.1 1370.59   3
   5   2  -5 18914.9 1333.88   3
   5   2  -5 20261.1 692.162   7
   5  -2  -5 21964.3 1271.10   7
  -5  -2   5 21381.1 1246.48   4
  -5  -2   4 1248.71 355.121   4
   5  -2  -4 1240.02 318.941   3
   5   2  -4 1522.90 421.191   3
  -5   2   4 1512.57 364.703   9
  -5  -2   4 865.251 317.278   9
   5   2  -4 1247.52 285.629   5
  -5   2   4 1481.50 358.021   8
   5   2  -4 812.291 135.944   2
   5  -2  -4 1340.79 351.592   7
   5   2  -4 1022.86 185.930   7
  -5  -2   3 4626.28 589.544   4
   5   2  -3 4549.85 617.216  10
   5   2  -3 4711.24 483.696   5
   5  -2  -3 4142.99 533.683   3
  -5  -2   3 4673.14 566.666   9
  -5   2   3 4182.19 542.175   9
  -5   2   3 4497.21 590.724   8
   5  -2  -3 5283.75 612.415   7
  -5   2   2 6893.10 402.167   5
   5   2  -2 6518.54 696.533  10
  -5   2   2 6777.44 620.334   9
   5   2  -2 6304.52 494.984   5
  -5   2   2 6619.87 704.135   8
   5  -2  -2 6482.48 659.424  10
   5  -2  -2 6233.29 662.891   7
  -5  -2   2 6300.84 699.981   4
  -5  -2   2 5478.48 274.858   6
   5   2  -1 24537.9 1345.36  10
  -5   2   1 25061.3 1077.79   9
  -5   2   1 20900.7 640.083   5
   5   2  -1 22490.2 934.276   5
   5   2  -1 22858.9 899.476   2
  -5   2   1 22530.3 1325.07   8
   5  -2  -1 24094.4 1327.85   7
  -5  -2   1 24280.4 1363.20   4
   5  -2  -1 21088.8 1183.02  10
  -5  -2   1 22169.5 837.394   6
   5  -2   0 7334.34 679.291  10
   5   2   0 6710.04 716.585  10
  -5   2   0 7134.47 341.061   5
   5   2   0 7052.71 502.188   5
  -5   2   0 6964.30 739.262   8
   5   2   0 6577.15 538.193   2
  -5   2   0 6561.01 633.456   6
  -5  -2   0 6861.49 534.632   6
  -5  -2   0 5891.22 667.256   4
  -5   2  -1 2229.73 425.899   6
   5  -2   1 2635.84 425.935  10
   5  -2   1 2859.74 259.148   5
   5   2   1 2386.69 387.172   2
   5   2   1 2946.82 486.227  10
  -5   2  -1 2448.13 465.489   8
   5   2   1 3015.30 353.818   5
  -5  -2  -1 2507.31 386.192   6
  -5  -2  -1 2563.62 475.251   4
   5   2   2 10410.5 916.300  10
   5  -2   2 8532.69 783.543  10
  -5  -2  -2 8955.78 460.538   9
   5  -2   2 8758.28 459.186   9
  -5   2  -2 9513.63 887.749   8
   5   2   2 10106.9 809.762   2
  -5  -2  -2 8898.38 858.633   4
  -5   2  -2 9064.05 833.360   6
  -5  -2  -2 9279.56 797.244   6
   5  -2   3 9158.45 841.976  10
   5   2   3 10226.8 953.050  10
   5  -2   3 9300.36 464.863   9
  -5  -2  -3 7780.24 431.358   9
  -5   2  -3 8618.78 842.134   8
   5   2   3 10302.3 885.616   2
  -5  -2  -3 10771.0 954.698   4
  -5   2  -3 8391.58 858.041   6
  -5  -2  -3 9351.52 879.126   6
   5   2   4 2512.89 542.672  10
  -5  -2  -4 2850.62 593.994   6
   5   2   4 2806.84 534.325   2
   5  -2   4 2924.32 285.263   9
  -5   2  -4 3174.71 534.642   8
  -5  -2  -4 2981.67 560.439   4
  -5   2  -4 2769.30 560.637   6
   5  -2   4 3064.72 535.421  10
   5   2   5 23269.5 1596.09  10
   5  -2   5 21407.5 1522.06   2
  -5   2  -5 24052.1 1459.97   8
   5   2   5 22301.3 1520.15   2
   5  -2   5 22738.1 1497.44  10
  -5   2  -5 24351.0 1677.54   6
  -5  -2  -5 25488.7 1678.71   6
  -5  -2  -6-15.7353 249.088   6
   5  -2   6-115.395 215.883  10
   5   2   6 370.097 334.408  10
   5   2   6 197.986 254.961   2
  -5   2  -6-35.3261 174.013   8
  -5   2  -6 384.307 420.516   6
  -5  -2  -6 6.30183 193.497   8
   5  -2   6 484.617 351.031   2
   5  -2   7 1781.76 538.407   2
  -5   2  -7 3284.36 712.581   6
   5  -2   7 3537.54 683.945  10
   5   2   7 3322.14 689.059  10
  -5  -2  -7 3415.70 752.232   6
  -5   2  -7 3226.22 568.934   8
  -5  -2  -7 3626.52 619.748   8
   5   2   7 2571.71 615.465   2
   5  -2   8 1298.66 503.432   2
   5   2   8 1825.94 579.927   2
  -5  -2  -8 837.353 523.455   6
   5  -2   8 1492.83 525.585  10
   5   2   8 2086.20 612.034  10
  -5   2  -8 1401.06 504.296   6
  -5  -2  -9 10747.2 1382.45   6
   5  -2   9 12729.8 1400.68  10
   5   2   9 10289.0 1311.36  10
   5  -2   9 12085.5 1413.22   2
   5   2   9 11312.0 1397.55   2
  -5   2  -9 10976.7 1428.90   6
   5  -2  10 3845.90 843.410  10
   5   2  10 4492.89 972.883  10
   5  -2  10 3756.92 855.125   2
  -5   2 -10 4078.86 932.076   6
  -5  -2 -10 5603.09 1075.69   6
   5   2  10 2030.64 676.717   2
   5  -2  11 91.2324 303.119  10
   5   2  11 532.713 503.806  10
   5  -2  11 453.983 424.754   2
   5   2  11 445.490 323.965   2
  -5  -2 -11 486.910 469.434   6
  -5   2 -11 704.992 510.422   6
  -5   3  13 4608.43 1085.63   9
  -5  -3  13 6019.75 1256.64   9
   5  -3 -13 4445.78 980.745   3
  -5   3  13 4118.10 974.429   1
   5   3 -13 5794.82 1124.64   3
  -5   3  12 3382.00 908.896   9
  -5  -3  12 3387.56 906.535   9
  -5   3  12 2324.37 798.200   1
   5  -3 -12 5621.01 1050.26   3
   5   3 -12 3992.78 875.859   3
  -5  -3  11 12352.4 1534.83   9
  -5   3  11 10961.0 1465.76   9
  -5   3  11 10928.3 1349.84   1
   5   3 -11 12059.6 1430.17   3
   5  -3 -11 9622.49 1267.83   3
   5  -3 -10 376.129 249.193   6
  -5   3  10 41.4965 299.429   9
  -5  -3  10 1441.89 632.000   9
   5  -3 -10 420.640 337.426   7
   5  -3 -10 1057.21 532.650   3
  -5   3  10 709.756 468.214   1
   5   3 -10 955.476 487.081   3
   5  -3  -9 139.048 274.639   6
  -5   3   9-163.193 291.362   1
  -5   3   9-140.113 334.700   9
  -5  -3   9 271.479 472.481   9
   5  -3  -9-194.420 239.809   7
   5  -3  -9 361.782 350.474   3
   5   3  -9-306.778 362.748   3
   5   3  -8 662.857 417.387   3
  -5  -3   8 271.886 214.381   4
   5  -3  -8 685.478 341.720   6
  -5   3   8-38.6905 251.861   9
  -5   3   8 199.859 237.668   1
  -5   3   8 193.537 171.761   8
   5  -3  -8 175.216 257.442   7
  -5  -3   8 16.4747 305.142   9
   5  -3  -8 510.152 332.521   3
  -5  -3   7 43.8195 183.018   4
  -5   3   7 227.443 296.635   9
   5   3  -7 46.7241 216.383   5
  -5   3   7 249.536 188.508   8
  -5  -3   7 90.1688 259.262   9
  -5   3   7 215.179 302.346   1
   5  -3  -7 185.852 269.130   7
   5  -3  -7 154.535 322.955   3
   5   3  -7 467.489 345.502   3
  -5   3   6 84689.3 3311.63   9
   5   3  -6 86603.5 3094.68   5
  -5  -3   6 91276.3 3347.63   9
  -5   3   6 86416.1 2815.16   8
   5  -3  -6 84330.7 3060.53   3
   5   3  -6 87071.0 3229.80   3
   5  -3  -6 86400.8 3075.61   7
  -5  -3   6 90134.6 2959.70   4
  -5   3   6 86606.9 3173.60   1
   5   3  -5 2242.18 504.817   3
  -5   3   5 2673.05 550.089   9
   5   3  -5 3595.56 561.360   5
  -5   3   5 2416.77 450.314   8
  -5  -3   5 2410.12 466.388   4
  -5  -3   5 2286.63 515.192   9
   5  -3  -5 2259.97 473.685   7
   5  -3  -5 2649.72 481.978   3
  -5   3   4 25988.4 1523.00   9
   5   3  -4 27522.9 1407.18   5
  -5   3   4 28138.1 1484.57   8
   5  -3  -4 27201.8 1417.74   3
   5   3  -4 23629.6 747.680   7
   5   3  -4 24939.4 1503.78   3
   5   3  -4 25931.6 785.006   7
  -5  -3   4 26512.7 1478.88   4
   5  -3  -4 25372.9 1472.38   7
   5   3  -3 16823.2 1179.59  10
  -5   3   3 15255.2 1079.75   9
   5   3  -3 15388.7 975.359   5
  -5   3   3 17040.3 1147.79   8
   5  -3  -3 14158.6 958.907   3
   5  -3  -3 15528.8 1132.62   7
  -5  -3   3 15645.2 1127.14   4
  -5   3   2 46657.4 1824.33   9
   5   3  -2 46110.1 1676.19   5
  -5   3   2 46298.4 1458.23   5
  -5   3   2 46548.5 1986.27   8
   5  -3  -2 44959.9 1733.21   3
   5   3  -2 46651.4 1984.72  10
   5  -3  -2 48688.0 2059.71   7
   5   3  -2 41629.8 1013.36   2
  -5  -3   2 44715.0 1990.20   4
  -5  -3   2 48969.3 1256.87   6
  -5  -3   1 963.659 379.818   4
   5  -3  -1 753.708 242.336  10
  -5  -3   1 656.422 185.153   6
  -5   3   1 809.053 238.386   9
   5   3  -1 803.368 174.327   2
   5   3  -1 1026.80 329.721  10
  -5   3   1 694.432 295.416   8
   5   3  -1 794.127 219.516   5
  -5   3   1 844.468 187.630   5
   5  -3  -1 357.982 226.288   7
   5   3   0 7587.30 771.892  10
  -5   3   0 7948.55 497.121   5
   5   3   0 7454.41 612.664   5
  -5   3   0 7466.04 800.414   8
   5  -3   0 8054.43 704.891  10
   5   3   0 7679.61 556.528   2
   5  -3   0 7508.75 793.814   7
  -5  -3   0 6252.75 740.523   4
  -5  -3   0 8335.48 641.486   6
  -5  -3  -1 5065.78 670.518   4
  -5   3  -1 3223.69 524.615   6
   5   3   1 2733.33 478.125  10
   5  -3   1 3133.30 464.267  10
  -5   3  -1 3692.27 372.273   5
   5   3   1 3869.54 457.382   2
  -5   3  -1 2554.98 488.120   8
   5   3   1 3503.51 460.473   5
  -5  -3  -1 3354.32 457.827   6
   5  -3   2 55185.9 2067.02  10
  -5   3  -2 56402.4 1792.79   5
  -5   3  -2 53623.9 2246.80   8
   5   3   2 52578.0 1991.61   2
  -5  -3  -2 52739.5 2271.09   4
   5   3   2 56081.6 2287.16  10
  -5   3  -2 52792.1 2251.80   6
  -5  -3  -2 51434.3 2086.92   6
   5  -3   3 3130.55 500.736  10
   5   3   3 3842.70 617.841  10
  -5  -3  -3 2882.42 500.602   6
   5   3   3 2189.41 437.336   2
  -5   3  -3 3226.94 442.865   5
  -5   3  -3 3066.61 532.940   8
  -5   3  -3 2922.67 574.780   6
  -5  -3  -3 2579.44 504.249   4
   5   3   4 11285.9 1058.04  10
  -5   3  -4 10337.7 960.861   8
   5  -3   4 11644.3 990.894  10
   5   3   4 12066.7 1056.94   2
  -5  -3  -4 10728.0 1017.84   4
  -5   3  -4 11396.7 1100.55   6
  -5  -3  -4 10270.9 1039.09   6
   5  -3   5 3099.32 562.388  10
   5  -3   5 2619.27 372.688   9
   5   3   5 3232.66 576.912   2
   5   3   5 2313.04 522.795  10
  -5   3  -5 2069.56 462.619   8
  -5   3  -5 1771.73 504.397   6
  -5  -3  -5 3407.97 646.006   6
  -5  -3  -5 2339.74 528.154   4
   5  -3   6 68997.5 2860.19  10
   5   3   6 70886.1 3084.81  10
   5  -3   6 61989.3 2919.83   2
   5   3   6 66233.1 2964.21   2
  -5   3  -6 69253.0 2678.65   8
  -5   3  -6 72115.8 3225.69   6
  -5  -3  -6 69049.8 3138.50   6
  -5   3  -7 543.451 423.475   6
  -5  -3  -7 575.660 426.420   6
   5  -3   7 598.551 276.314  10
   5   3   7-174.498 286.461  10
  -5   3  -7 522.334 260.468   8
   5   3   7 497.516 388.161   2
   5  -3   7-241.084 316.931   2
   5  -3   8 1415.18 529.417   2
   5  -3   8 1061.43 471.883  10
   5   3   8 1595.14 575.466  10
  -5  -3  -8 1390.54 566.264   6
  -5   3  -8 1182.89 641.271   6
   5   3   8 866.108 506.713   2
  -5  -3  -9 534.388 417.638   6
   5  -3   9 783.527 451.040   2
   5  -3   9 975.296 427.952  10
   5   3   9 1819.16 641.662  10
   5   3   9 633.882 440.380   2
  -5   3  -9 1113.51 613.231   6
  -5  -3 -10 1032.57 633.388   6
   5  -3  10 700.293 568.890  10
   5   3  10 161.832 372.226  10
   5  -3  10 677.462 367.149   2
  -5   3 -10 687.657 448.391   6
   5   3  10 1535.14 611.728   2
   5  -3  11 6073.61 1136.83   2
  -5   3 -11 8806.40 1450.93   6
   5  -3  11 5433.76 1018.24  10
   5   3  11 6993.92 1245.88  10
  -5  -3 -11 5580.84 1125.14   6
   5   3  11 6020.23 1176.74   2
   5  -4 -13 550.013 380.328   3
   5   4 -13 465.004 333.926   3
  -5   4  12 419.097 614.628   9
  -5  -4  12 1350.45 663.764   9
  -5   4  12 454.996 519.560   1
   5  -4 -12 78.4566 368.092   3
   5   4 -12 1182.22 576.839   3
  -5   4  11 17684.4 1875.60   9
   5   4 -11 14793.9 1577.81   3
  -5  -4  11 11848.3 1557.05   9
   5  -4 -11 12074.2 1422.11   3
  -5   4  11 13690.3 1546.29   1
   5  -4 -11 12804.3 1390.24   7
  -5   4  10 22562.5 1891.23   1
  -5   4  10 21239.3 1980.06   9
  -5  -4  10 24674.9 2099.66   9
   5  -4 -10 22582.4 1841.75   3
   5   4 -10 22835.6 1890.84   3
   5  -4 -10 19750.9 1650.25   7
   5  -4 -10 23767.0 1770.10   6
   5  -4  -9 458.430 334.476   6
  -5   4   9-149.038 292.183   9
  -5  -4   9 299.935 450.407   9
  -5   4   9-250.266 312.819   1
   5  -4  -9 284.375 320.698   7
   5  -4  -9 306.039 255.611   3
   5   4  -9-354.493 305.639   3
   5   4  -8 8286.81 1012.01   3
  -5   4   8 7123.91 1056.23   9
  -5  -4   8 8456.34 1105.69   9
   5   4  -8 8066.40 1026.29   5
  -5   4   8 8553.44 807.028   8
   5  -4  -8 9823.65 1060.65   3
   5  -4  -8 8420.22 1005.38   7
  -5  -4   8 8926.79 922.934   4
  -5   4   8 7976.61 1054.37   1
   5   4  -7 3987.27 697.701   3
  -5  -4   7 5147.31 708.930   4
  -5   4   7 6360.95 954.321   9
  -5  -4   7 4408.44 759.233   9
   5   4  -7 4320.11 739.244   5
  -5   4   7 4555.40 625.830   8
  -5   4   7 3975.50 724.792   1
   5  -4  -7 4173.30 718.748   7
   5  -4  -7 4000.45 651.311   3
  -5   4   6 8972.38 1057.73   9
   5   4  -6 7767.05 927.126   5
  -5  -4   6 8177.52 993.158   9
  -5   4   6 8187.93 830.231   8
   5  -4  -6 8006.11 864.800   3
   5   4  -6 7925.44 912.348   3
   5  -4  -6 7740.09 921.859   7
  -5  -4   6 7739.39 872.899   4
  -5  -4   5 4918.02 686.406   4
   5   4  -5 6220.50 793.412   3
  -5   4   5 5095.84 752.322   9
  -5   4   5 5424.63 710.629   8
   5   4  -5 4368.86 637.522   5
   5  -4  -5 5539.58 672.026   3
   5  -4  -5 4353.86 672.363   7
   5  -4  -4 4130.65 552.623   3
  -5  -4   4 5067.21 695.469   4
   5   4  -4 4007.68 629.817   3
  -5   4   4 5224.05 717.190   9
   5   4  -4 4353.31 610.882   5
  -5   4   4 4357.24 633.875   8
   5  -4  -4 4367.62 669.806   7
  -5   4   3 51662.8 2178.33   9
   5   4  -3 51960.7 2055.40   5
  -5   4   3 48743.2 1833.26   5
  -5   4   3 50623.0 2208.07   8
   5  -4  -3 51042.3 1882.79   3
   5  -4  -3 50288.5 2265.74   7
  -5  -4   3 47933.3 2189.47   4
  -5   4   2 76041.4 2639.77   9
   5   4  -2 76200.6 2523.95   5
  -5   4   2 79920.9 2300.24   5
  -5   4   2 78560.6 2851.72   8
   5   4  -2 78664.9 2744.43  10
   5  -4  -2 76557.2 2331.71   3
   5  -4  -2 73082.4 2824.26   7
  -5  -4   2 75092.0 2827.93   4
  -5  -4   1 1768.44 443.869   4
   5  -4  -1 2205.84 363.597  10
   5   4  -1 1675.34 409.411  10
   5  -4  -1 1719.42 296.055   3
  -5   4   1 1579.38 385.039   8
   5   4  -1 2247.24 414.616   5
  -5   4   1 1746.39 294.812   5
   5  -4  -1 1591.45 397.274   7
  -5  -4   0 57191.4 1980.73   6
   5  -4   0 56179.8 1984.96  10
  -5   4   0 60071.7 1855.06   5
   5   4   0 57869.1 2102.61   5
  -5   4   0 53024.2 2336.43   8
   5  -4   0 56497.9 2423.68   7
  -5  -4   0 54238.6 2359.97   4
   5   4   0 57301.2 1742.26   2
   5   4   0 57468.6 2263.24  10
  -5  -4  -1 11568.5 909.679   6
   5   4   1 9092.70 876.323  10
  -5   4  -1 11500.3 767.194   5
   5   4   1 12685.4 944.964   5
  -5   4  -1 8903.20 926.654   8
   5  -4   1 11142.5 1050.52   7
   5   4   1 10753.3 783.921   2
  -5  -4  -1 12240.2 1065.48   4
   5  -4   1 12146.6 860.252  10
   5   4   2 53636.3 2298.80  10
   5  -4   2 54762.7 2039.55  10
  -5   4  -2 56204.7 1967.20   5
   5   4   2 58471.8 2237.12   5
  -5   4  -2 53475.7 2366.56   8
   5  -4   2 56112.8 2473.78   7
   5   4   2 55152.9 2083.12   2
  -5  -4  -2 55675.9 2414.68   4
  -5   4  -2 54025.8 2419.43   6
  -5  -4  -2 56488.7 2271.31   6
   5   4   3 10612.3 1011.18  10
  -5   4  -3 11866.6 906.983   5
  -5   4  -3 10876.2 1017.50   8
   5   4   3 9888.42 919.259   2
  -5  -4  -3 10550.2 1009.52   4
   5  -4   3 9974.01 854.349  10
  -5   4  -3 8277.31 957.180   6
  -5  -4  -3 10615.7 1011.03   6
  -5   4  -4 853.964 473.186   6
   5   4   4 647.883 325.089  10
  -5  -4  -4-147.001 222.588   6
  -5   4  -4 175.285 208.618   5
  -5   4  -4 596.513 330.481   8
   5  -4   4 373.112 244.821  10
   5   4   4 455.346 294.298   2
  -5  -4  -4 576.295 340.432   4
   5  -4   5 50333.2 2231.31  10
  -5   4  -5 46567.1 2233.41   8
   5   4   5 47742.8 2433.30  10
  -5  -4  -5 48746.3 2314.40   4
   5   4   5 46090.0 2324.52   2
  -5   4  -5 49261.8 2594.44   6
  -5  -4  -5 49197.8 2524.27   6
   5  -4   6 13037.4 1153.66  10
  -5   4  -6 12062.9 1095.70   8
   5   4   6 12983.7 1291.32  10
  -5  -4  -6 11845.2 1109.64   4
   5   4   6 14424.9 1334.88   2
  -5   4  -6 14381.7 1434.38   6
  -5  -4  -6 13549.1 1376.83   6
  -5   4  -7-124.562 283.764   6
  -5  -4  -7 502.591 479.183   6
   5  -4   7 478.279 291.821  10
   5   4   7 167.849 250.922  10
  -5   4  -7 77.3346 206.286   8
   5   4   7 129.530 353.410   2
   5  -4   7 79.6827 237.987   2
   5   4   8 19532.2 1774.40  10
   5  -4   8 19581.8 1749.50   2
   5   4   8 19303.2 1764.80   2
   5  -4   8 21907.4 1696.88  10
  -5   4  -8 21973.3 1945.96   6
  -5  -4  -8 21756.3 1959.77   6
   5  -4   9 406.128 385.009  10
   5   4   9 570.274 396.586  10
  -5  -4  -9 215.946 384.408   6
   5  -4   9 158.499 317.501   2
  -5   4  -9-587.061 455.780   6
   5   4   9 853.107 523.726   2
   5  -4  10 14864.1 1573.51  10
   5   4  10 19843.0 1975.93  10
   5  -4  10 19613.1 1893.94   2
   5   4  10 15411.1 1768.22   2
  -5   4 -10 19401.9 2009.53   6
  -5  -4 -10 21068.6 2098.78   6
   5  -4  11 6543.65 1097.75  10
   5  -4  11 9783.96 1430.81   2
  -5   5  12 334.776 538.229   9
  -5  -5  12 584.651 669.826   9
  -5   5  12-1390.46 580.671   1
   5  -5 -12-31.8142 364.292   3
   5   5 -12 231.955 326.112   3
  -5   5  11 13969.9 1701.49   9
  -5  -5  11 13116.1 1660.38   9
   5  -5 -11 14200.0 1552.22   3
   5   5 -11 11957.6 1426.44   3
  -5   5  11 15808.9 1736.39   1
   5  -5 -11 13042.9 1452.62   7
   5  -5 -11 14051.3 1513.36   6
   5  -5 -10 12491.9 1352.78   6
  -5   5  10 17384.2 1810.72   9
  -5  -5  10 17911.6 1850.46   9
   5  -5 -10 13401.9 1452.28   3
   5   5 -10 14242.7 1477.27   3
  -5   5  10 12618.8 1512.32   1
   5  -5 -10 13163.5 1420.28   7
  -5   5   9 10108.9 1289.85   1
  -5   5   9 10412.1 1385.92   9
   5   5  -9 10179.3 1295.24   5
  -5  -5   9 10656.9 1361.40   9
   5  -5  -9 7976.46 1033.88   3
   5  -5  -9 8103.90 1097.51   7
   5   5  -9 8023.84 1087.65   3
   5   5  -8 619.129 346.042   3
  -5  -5   8 305.100 286.884   4
  -5   5   8 372.916 351.281   9
  -5   5   8 870.871 459.591   1
   5   5  -8 272.460 337.534   5
  -5   5   8 1231.61 377.514   8
   5  -5  -8 340.718 333.070   7
  -5  -5   8 1018.90 524.509   9
   5  -5  -8 1808.95 519.784   3
  -5  -5   7 4276.10 686.371   4
  -5   5   7 4979.37 848.551   9
  -5  -5   7 6684.47 984.372   9
   5   5  -7 7168.53 981.811   5
  -5   5   7 4203.01 649.031   8
   5   5  -7 6914.71 910.133   3
   5  -5  -7 6524.12 922.744   7
   5  -5  -7 4673.06 716.464   3
  -5  -5   6 4145.91 656.503   4
   5   5  -6 2639.38 571.735   3
  -5   5   6 2562.26 626.251   9
   5   5  -6 3673.56 684.932   5
  -5   5   6 3175.30 584.436   8
   5  -5  -6 1738.19 539.959   7
   5  -5  -6 2997.58 553.328   3
   5   5  -5 1000.33 398.187   3
  -5   5   5 847.204 400.488   9
   5   5  -5 467.651 278.598   5
  -5   5   5 619.129 335.717   8
  -5  -5   5 554.553 327.999   4
   5  -5  -5 790.218 346.258   7
   5  -5  -5 1341.98 373.496   3
  -5   5   4 16653.1 1353.41   9
   5   5  -4 18793.9 1349.82   5
  -5   5   4 22515.4 1491.23   8
   5  -5  -4 21502.1 1219.42   3
   5   5  -4 20506.1 1401.89   3
   5  -5  -4 20382.8 1506.02   7
  -5  -5   4 17780.0 1377.81   4
  -5   5   3 35992.3 1921.68   9
   5   5  -3 36114.4 1838.02   5
  -5   5   3 37167.9 1691.34   5
  -5   5   3 35108.8 1919.06   8
   5  -5  -3 38007.7 1556.27   3
   5   5  -3 35096.2 1828.94   3
   5  -5  -3 36659.1 2004.95   7
  -5  -5   3 36071.1 1971.72   4
   5   5  -2 51126.0 2171.20  10
   5   5  -2 53954.2 2222.34   5
  -5   5   2 52222.8 1981.61   5
  -5   5   2 51434.4 2362.55   8
   5  -5  -2 52456.0 1774.50   3
   5  -5  -2 53646.9 2457.61   7
  -5  -5   2 53314.4 2416.77   4
   5   5  -1 26626.8 957.867   1
   5   5  -1 28383.4 1542.91   5
  -5   5   1 29072.8 1371.62   5
  -5   5   1 26709.2 1672.11   8
   5  -5  -1 28272.8 1173.53   3
   5  -5  -1 25797.5 1673.54   7
  -5  -5   1 28972.4 1733.44   4
   5   5  -1 25699.5 1476.95  10
   5  -5   0 10212.0 759.395  10
  -5   5   0 9971.63 792.385   5
   5   5   0 10383.3 927.475   5
  -5   5   0 7616.51 884.951   8
   5   5   0 8910.42 856.749  10
   5  -5   0 7988.67 916.831   7
  -5  -5   0 8559.34 955.875   4
  -5  -5  -1 50919.1 2118.74   6
   5  -5   1 49265.9 1807.21  10
   5   5   1 49123.5 2163.74  10
  -5   5  -1 50250.8 1925.95   5
   5   5   1 52278.7 2214.77   5
  -5   5  -1 47851.4 2317.70   8
   5  -5   1 46861.8 2322.06   7
  -5  -5  -1 50430.1 2370.79   4
   5  -5   2 355.071 201.204  10
  -5  -5  -2 366.377 272.063   6
  -5   5  -2 347.231 255.685   5
  -5   5  -2 358.993 318.224   8
   5   5   2 122.784 206.211  10
  -5  -5  -2-87.9263 207.918   4
   5   5   2-70.1421 215.057   5
   5  -5   2 335.579 326.677   7
   5   5   2 203.949 150.425   2
  -5   5  -3 6035.34 879.405   6
  -5  -5  -3 6288.62 834.621   4
   5  -5   3 6772.44 684.487  10
   5   5   3 6151.62 789.189  10
  -5  -5  -3 5851.95 807.785   6
   5   5   3 6740.95 833.693   5
  -5   5  -3 5083.25 649.255   5
  -5   5  -3 4657.13 720.662   8
   5  -5   3 7469.70 921.083   7
   5   5   3 5899.37 732.882   2
  -5   5  -4 54017.2 2327.43   5
  -5   5  -4 51371.0 2440.49   8
   5   5   4 50983.7 2461.14  10
   5  -5   4 48939.0 2506.52   7
  -5  -5  -4 52378.4 2482.36   4
   5   5   4 50841.2 2363.22   2
   5  -5   4 53194.9 2146.09  10
  -5   5  -4 50986.1 2664.64   6
  -5  -5  -4 49717.8 2517.02   6
  -5   5  -5 1727.82 566.277   6
   5  -5   5 1671.22 418.361  10
  -5  -5  -5 1545.19 491.937   6
   5   5   5 1198.19 437.989  10
  -5   5  -5 1550.76 459.499   5
  -5   5  -5 2216.26 523.467   8
   5   5   5 1112.71 449.838   2
  -5  -5  -5 1630.76 455.288   4
  -5   5  -6 14505.2 1248.99   8
   5  -5   6 15646.3 1257.50  10
   5   5   6 13379.8 1333.26  10
  -5  -5  -6 15522.6 1322.62   4
   5   5   6 11971.1 1270.23   2
  -5   5  -6 12847.6 1405.35   6
  -5  -5  -6 15807.8 1546.37   6
   5   5   7 6512.83 1010.67  10
  -5   5  -7 5928.27 1017.84   6
   5  -5   7 6137.32 850.119  10
   5  -5   7 4845.82 881.098   2
  -5   5  -7 5024.69 768.474   8
  -5  -5  -7 5348.25 957.255   6
   5   5   7 4532.03 867.149   2
  -5   5  -8 1572.03 664.355   6
  -5  -5  -8 2389.77 785.804   6
   5  -5   8 1465.45 515.209  10
   5   5   8 772.292 426.513  10
   5  -5   8 1459.01 594.383   2
   5   5   8 2100.12 658.378   2
   5  -5   9 19733.8 1682.98  10
   5   5   9 20640.9 1946.73  10
   5  -5   9 18148.9 1802.95   2
   5   5   9 17560.6 1822.33   2
  -5   5  -9 20776.1 2029.54   6
  -5  -5  -9 18621.9 1959.07   6
  -5   5 -10 1530.12 651.540   6
   5  -5  10 889.502 505.046   2
   5   5  10 410.108 443.887  10
  -5  -5 -10 2407.02 808.390   6
   5  -6 -12 4202.68 911.857   3
   5   6 -12 3239.93 806.604   3
   5  -6 -11 1765.19 600.879   6
  -5   6  11 2078.52 711.933   9
  -5   6  11 1891.13 644.083   1
  -5  -6  11 2807.54 868.315   9
   5  -6 -11 3117.73 769.525   3
   5  -6 -11 2599.04 775.642   7
   5   6 -11 2420.90 692.994   3
   5  -6 -10 4560.63 866.320   6
  -5   6  10 3519.06 914.438   9
   5   6 -10 4206.34 937.401   5
  -5  -6  10 6063.06 1140.65   9
  -5   6  10 3824.90 902.648   1
   5  -6 -10 4100.27 876.657   7
   5  -6 -10 3646.29 810.958   3
   5   6 -10 5982.26 972.372   3
  -5  -6   9 3596.20 699.419   4
  -5  -6   9 4063.93 907.137   9
   5   6  -9 5267.08 1003.95   5
   5  -6  -9 4959.02 886.901   7
   5  -6  -9 4652.68 779.342   3
  -5   6   9 4679.36 941.649   1
   5   6  -9 4574.87 820.909   3
  -5   6   9 5135.52 1026.82   9
  -5  -6   8 7629.35 997.020   4
  -5   6   8 5960.32 1028.61   9
  -5  -6   8 5920.57 1025.56   9
   5   6  -8 5774.87 979.588   5
   5  -6  -8 4394.66 839.156   7
   5  -6  -8 5488.16 797.478   3
   5   6  -8 6674.07 949.141   3
   5   6  -7 7018.80 915.825   3
  -5  -6   7 8154.15 995.758   4
  -5   6   7 7984.52 1125.72   9
  -5   6   7 6619.55 875.810   8
   5   6  -7 5683.19 904.537   5
   5  -6  -7 7439.68 878.434   3
   5  -6  -7 7274.43 1035.78   7
  -5  -6   6 5320.82 837.342   4
  -5   6   6 5481.71 785.551   8
  -5   6   6 7146.31 1010.17   9
   5   6  -6 4933.17 802.643   5
   5  -6  -6 5226.41 877.840   7
   5  -6  -6 4694.61 647.698   3
   5   6  -6 5796.91 808.150   3
  -5   6   5 37329.5 2257.14   9
   5   6  -5 40506.4 2232.39   5
  -5   6   5 37702.7 2100.81   8
   5  -6  -5 38966.6 1783.71   3
   5   6  -5 41586.8 2126.94   3
   5  -6  -5 39751.9 2294.22   7
  -5  -6   5 38262.9 2178.02   4
   5   6  -4 112.007 211.363   3
  -5   6   4 906.066 440.531   9
   5   6  -4-133.362 196.395   5
  -5   6   4 650.406 409.956   8
  -5  -6   4 306.450 369.310   4
  -5   6   4 446.357 337.238   5
   5  -6  -4 661.321 357.837   7
   5  -6  -4-11.9614 140.063   3
  -5  -6   3-7.78160 267.228   4
  -5   6   3 303.893 263.963   8
   5   6  -3 149.489 246.407   5
  -5   6   3 101.405 187.164   5
   5   6  -3 362.719 236.916   3
   5  -6  -3 205.381 265.028   7
   5  -6  -3 550.834 210.690   3
   5   6  -2 2491.24 493.979  10
  -5   6   2 2558.39 587.207   8
   5   6  -2 2021.78 475.134   5
  -5   6   2 2024.46 415.551   5
   5  -6  -2 2129.87 531.716   7
  -5  -6   2 2130.95 539.449   4
   5   6  -1 10375.6 933.214  10
   5   6  -1 10041.6 994.835   5
  -5   6   1 12200.2 983.792   5
  -5   6   1 10034.5 1082.15   8
   5  -6  -1 11215.0 1141.54   7
  -5  -6   1 10502.0 1094.31   4
   5   6   0 18575.8 987.190   1
  -5   6   0 19372.0 1226.45   5
   5   6   0 17844.1 1334.08   5
  -5   6   0 18928.9 1466.47   8
   5   6   0 18318.4 1266.29  10
   5  -6   0 18658.2 1486.88   7
  -5  -6   0 17478.3 1444.85   4
   5  -6   1 5999.27 550.837  10
   5   6   1 5652.48 724.272  10
  -5   6  -1 4103.20 590.307   5
  -5   6  -1 5724.40 837.552   8
   5   6   1 4431.87 692.846   5
  -5  -6  -1 5735.32 832.449   4
   5  -6   1 6515.58 871.106   7
  -5  -6  -2 2476.27 614.767   4
   5  -6   2 2047.68 339.016  10
   5   6   2 2438.42 491.091  10
  -5   6  -2 2524.87 519.706   5
  -5  -6  -2 2372.45 539.753   6
  -5   6  -2 1919.40 494.023   8
   5   6   2 2946.18 597.709   5
   5  -6   2 3585.19 690.985   7
  -5  -6  -3 4563.17 761.086   4
   5   6   3 4352.32 667.462  10
  -5  -6  -3 3917.08 706.086   6
  -5   6  -3 4090.21 647.749   5
  -5   6  -3 3452.91 643.973   8
   5   6   3 3123.75 639.263   5
   5  -6   3 4003.41 725.124   7
   5   6   4 12067.6 1185.43  10
  -5   6  -4 11693.3 1104.86   5
   5   6   4 12999.4 1271.98   5
  -5   6  -4 10461.1 1120.62   8
   5  -6   4 12740.2 1267.94   7
  -5  -6  -4 10513.3 1150.20   4
  -5   6  -4 10694.0 1243.27   6
  -5  -6  -4 9303.72 1112.52   6
  -5  -6  -5 5295.89 819.842   4
  -5   6  -5 4803.65 888.138   6
   5   6   5 4363.27 773.341  10
  -5  -6  -5 5043.86 882.493   6
  -5   6  -5 5133.92 792.816   5
  -5   6  -5 4886.93 790.435   8
   5  -6   5 5184.96 853.179   7
  -5   6  -6 892.222 503.034   6
   5   6   6 282.375 321.204  10
  -5  -6  -6 568.438 411.628   6
  -5   6  -6 642.560 335.625   8
  -5   6  -6 596.537 356.552   5
   5  -6   6 948.458 383.629   7
  -5  -6  -6 78.2476 264.042   4
   5   6   7 16038.7 1577.16  10
  -5   6  -7 14123.6 1323.07   8
   5  -6   7 14520.0 1468.92   7
  -5   6  -7 14108.1 1608.81   6
  -5  -6  -7 14235.7 1597.51   6
  -5   6  -8 596.771 541.073   6
  -5  -6  -8 339.458 353.774   6
   5   6   8-1.27328 280.035  10
   5  -6   8 203.298 393.647   7
   5  -6   8-431.504 383.308   2
  -5   6  -9 1096.40 569.443   6
  -5  -6  -9 1401.70 763.806   6
   5   6   9 1467.48 531.529  10
   5  -6   9 663.758 390.835   2
   5  -6  10 1011.90 554.351   2
   5   6  10 736.585 468.456  10
   5  -7 -11 1812.19 644.179   6
  -5   7  11 1653.62 681.929   1
   5  -7 -11 1361.87 626.045   7
  -5   7  10 1951.31 790.511   9
  -5  -7  10 2639.74 808.449   9
   5   7 -10 1296.88 535.236   5
   5  -7 -10 1879.60 681.754   7
   5   7 -10 1849.84 564.267   3
  -5   7  10 2559.00 785.338   1
  -5  -7   9 602.296 336.661   4
  -5   7   9 142.688 366.471   9
  -5  -7   9 818.572 488.363   9
   5   7  -9 407.614 425.089   5
   5  -7  -9 887.701 484.783   7
   5   7  -9 439.221 375.842   3
  -5   7   8 29234.5 2310.85   9
   5   7  -8 28624.1 2224.71   5
   5   7  -8 25294.6 1870.86   3
   5  -7  -8 27781.2 2183.90   7
  -5  -7   8 27749.0 2016.30   4
   5   7  -7 6496.03 907.885   3
  -5   7   7 6957.87 1086.71   9
   5   7  -7 8420.21 1167.78   5
  -5  -7   7 6884.41 999.709   4
   5  -7  -7 6488.76 1047.11   7
   5   7  -6 5933.93 833.336   3
  -5  -7   6 6545.83 960.334   4
  -5   7   6 5430.45 952.594   9
   5   7  -6 5363.74 926.009   5
  -5   7   6 6441.32 935.336   5
   5  -7  -6 8195.27 1128.51   7
   5  -7  -6 6884.64 805.117   4
  -5   7   6 6102.12 914.114   8
   5   7  -5 1429.30 411.420   3
  -5   7   5 1195.47 496.405   9
   5   7  -5 1564.65 575.436   5
  -5   7   5 420.315 399.797   8
  -5   7   5 1180.03 466.228   5
   5  -7  -5 1709.07 570.816   7
  -5  -7   5 1801.79 555.775   4
   5   7  -4 21782.7 1684.51   5
  -5   7   4 22367.6 1591.60   5
  -5   7   4 19173.6 1584.36   8
   5   7  -4 21225.7 1476.13   3
   5  -7  -4 21655.6 1717.56   7
  -5  -7   4 22231.4 1723.39   4
   5   7  -3 763.176 369.166   3
  -5  -7   3 1475.90 519.175   4
  -5   7   3 273.700 240.559   8
   5   7  -3 1170.27 447.831   5
  -5   7   3 135.405 248.588   5
   5  -7  -3 937.756 494.053   7
  -5   7   2-185.431 272.355   8
  -5  -7   2 552.088 364.270   4
   5   7  -2 159.653 289.813   5
  -5   7   2 695.544 377.532   5
   5  -7  -2-51.8581 247.873   7
   5   7  -1 1626.60 372.824  10
  -5   7   1 2260.56 603.081   8
   5   7  -1 2256.84 537.247   5
  -5   7   1 1781.86 440.537   5
  -5  -7   1 2231.28 557.763   4
   5  -7  -1 1009.12 424.980   7
  -5  -7   0 1451.12 505.630   4
  -5   7   0 2066.45 575.356   8
  -5   7   0 1368.96 424.101   5
   5   7   0 1807.53 504.579   5
   5   7   0 2073.08 442.682  10
   5  -7   0 1564.71 522.936   7
  -5  -7  -1 8043.25 1043.90   4
   5   7   1 7880.45 990.049   5
  -5   7  -1 9098.49 941.654   5
  -5   7  -1 7916.71 1025.66   8
   5   7   1 8003.58 877.877  10
   5  -7   1 8314.01 1039.26   7
   5   7   2 10368.3 1032.46  10
  -5   7  -2 9139.08 977.931   5
   5   7   2 10551.0 1165.09   5
  -5   7  -2 9162.09 1098.68   8
   5  -7   2 11379.1 1228.18   7
  -5  -7  -2 10435.7 1174.25   4
   5   7   2 10852.5 986.129   1
  -5  -7  -3 899.621 455.259   4
  -5  -7  -3 880.521 408.191   6
  -5   7  -3 643.994 282.289   5
  -5   7  -3 234.967 341.508   8
   5   7   3 1222.44 447.266   5
   5   7   3 777.484 399.606  10
   5  -7   3 1299.06 514.906   7
  -5  -7  -4 17807.3 1601.53   6
   5   7   4 13711.5 1275.58  10
  -5   7  -4 13136.3 1278.34   5
   5   7   4 17753.2 1595.27   5
  -5   7  -4 14556.7 1409.06   8
   5  -7   4 14486.9 1433.41   7
  -5  -7  -4 15904.3 1456.10   4
  -5  -7  -5 670.264 396.289   4
   5   7   5 643.657 357.570  10
  -5  -7  -5 253.922 316.214   6
  -5   7  -5-112.292 344.047   5
  -5   7  -5 441.433 410.614   8
   5   7   5 993.639 471.429   5
   5  -7   5 1451.89 572.141   7
  -5  -7  -6 5616.14 982.135   6
   5   7   6 7539.37 1042.69  10
  -5   7  -6 8504.26 1128.87   5
  -5   7  -6 6948.00 977.447   8
   5  -7   6 6838.22 1032.07   7
  -5   7  -6 8484.78 1270.05   6
  -5  -7  -6 6575.99 948.518   4
  -5   7  -7 5326.36 1065.72   6
  -5  -7  -7 4842.07 1010.64   6
  -5   7  -7 7413.03 1090.07   5
   5   7   7 6311.21 1005.39  10
   5  -7   7 6750.76 1030.39   7
  -5   7  -8 4577.70 1009.34   6
  -5  -7  -8 6637.29 1212.63   6
   5   7   8 4376.11 880.776  10
   5  -7   8 4709.26 928.018   7
   5  -7   8 5403.52 1007.05   2
  -5   7  -9 2962.62 949.453   6
  -5  -7  -9 2008.29 761.924   6
   5   7   9 2005.89 662.033  10
   5  -7   9 1019.48 469.992   2
   5   8 -10 1254.99 671.454   5
   5  -8 -10-131.509 370.171   7
  -5   8   9 647.552 468.638   9
  -5  -8   9-223.665 408.594   9
   5   8  -9 424.043 509.580   5
  -5  -8   9 275.125 343.806   4
   5  -8  -9 1341.23 677.508   7
  -5   8   8 12863.9 1601.58   9
   5   8  -8 12685.8 1562.78   5
   5  -8  -8 12316.4 1540.77   7
  -5  -8   8 10821.9 1332.13   4
  -5  -8   7 1436.50 550.610   4
  -5   8   7 3635.32 952.245   9
   5   8  -7 2080.80 734.835   5
  -5   8   7 2764.22 720.627   5
   5  -8  -7 1623.85 656.551   7
   5   8  -6 376.336 481.518   5
  -5   8   6 46.8927 286.035   5
   5  -8  -6 586.782 404.023   7
  -5  -8   6 349.779 383.099   4
   5   8  -5 22417.7 1858.61   5
  -5   8   5 23054.1 1774.45   5
  -5   8   5 18244.9 1644.75   8
   5  -8  -5 23664.4 1969.39   7
  -5  -8   5 22856.0 1876.09   4
   5  -8  -5 22579.4 1626.99   4
   5   8  -4 1188.45 390.816   3
  -5  -8   4 1898.69 564.281   4
  -5   8   4 2061.37 595.165   8
   5   8  -4 1983.99 582.524   5
  -5   8   4 1203.80 390.663   5
   5  -8  -4 2507.42 665.178   7
   5   8  -3 27350.9 1964.09   5
  -5   8   3 27037.6 1834.37   5
  -5   8   3 32550.3 2178.06   8
   5   8  -3 28046.2 1701.85   3
   5  -8  -3 28622.0 2060.86   7
  -5  -8   3 26169.1 2003.12   4
  -5  -8   2 7626.63 1099.91   4
   5   8  -2 9851.91 1165.47   5
  -5   8   2 7611.88 941.978   5
  -5   8   2 8435.49 1118.27   8
   5  -8  -2 9671.77 1210.92   7
   5   8  -2 8578.58 921.261   3
  -5   8   1 5142.73 885.689   8
   5   8  -1 3693.46 734.465   5
  -5   8   1 4657.84 737.207   5
   5  -8  -1 4778.55 852.317   7
  -5  -8   1 4907.77 900.021   4
  -5   8   0 28012.2 1802.43   5
   5   8   0 26819.9 1919.08   5
  -5   8   0 22494.2 1825.97   8
   5  -8   0 24576.9 1899.57   7
  -5  -8   0 24078.6 1903.03   4
  -5  -8  -1 3012.44 714.223   4
  -5   8  -1 4645.43 858.824   8
  -5   8  -1 3667.15 674.921   5
   5   8   1 3519.64 723.480   5
   5  -8   1 3037.07 691.825   7
  -5  -8  -2 6761.12 1020.33   4
  -5   8  -2 7363.53 951.642   5
  -5   8  -2 5774.22 947.894   8
   5   8   2 7588.80 900.067  10
   5   8   2 8692.81 1133.21   5
   5  -8   2 6833.81 1011.16   7
  -5  -8  -3 32774.6 2205.87   6
   5   8   3 35721.2 2030.90  10
  -5   8  -3 35486.5 2164.97   5
   5   8   3 35043.2 2335.08   5
  -5   8  -3 34243.6 2274.26   8
   5  -8   3 35972.3 2331.03   7
  -5  -8  -3 29663.1 2132.39   4
   5   8   4 1023.06 401.430  10
  -5  -8  -4 2978.67 750.470   6
  -5   8  -4 1420.90 464.171   5
  -5  -8  -4 2088.37 633.307   4
   5   8   4 2285.39 708.241   5
   5   8   4 978.585 437.864   1
   5  -8   4 1436.21 495.396   7
  -5   8  -4 1926.64 615.363   8
  -5  -8  -5 20394.4 1881.08   6
  -5   8  -5 20829.5 1786.55   5
   5   8   5 22297.3 1972.91   5
  -5   8  -5 23117.2 1867.42   8
   5  -8   5 24224.7 1947.73   7
  -5  -8  -5 19788.8 1719.56   4
   5   8   5 21810.4 1718.80  10
   5   8   6 848.656 472.950  10
  -5  -8  -6 1615.24 612.247   6
  -5   8  -6 1098.29 519.939   5
  -5   8  -6 1422.82 564.497   8
   5   8   6 1198.86 565.400   5
   5  -8   6 1617.29 566.181   7
   5   8   7 3471.93 786.962  10
  -5  -8  -7 2977.51 881.577   6
  -5   8  -7 4585.58 914.458   5
   5   8   7 4892.81 1031.61   5
   5  -8   7 4633.71 901.908   7
  -5  -8  -8 7600.84 1348.19   6
  -5   8  -8 7272.17 1174.75   5
   5   8   8 6295.79 1064.73  10
   5  -8   8 5083.03 1065.63   2
   5   8   9 185.408 344.869  10
   5  -8   9 287.084 392.940   4
   5   9  -9 17699.2 1997.62   5
  -5   9   9 13637.4 1692.20   5
  -5  -9   9 16527.6 1748.01   4
  -5  -9   8 831.767 454.389   4
   5   9  -8 700.910 626.553   5
  -5   9   8 12.7291 324.778   5
   5  -9  -8 423.336 467.493   7
  -5  -9   7 6014.34 1063.22   4
   5   9  -7 5423.72 1049.70   5
  -5   9   7 5324.31 989.431   5
   5  -9  -7 6095.85 1157.66   7
  -5  -9   6 4101.67 892.051   4
   5   9  -6 3162.53 889.951   5
  -5   9   6 3026.71 741.031   5
   5  -9  -6 3517.30 903.341   7
  -5  -9   5 471.044 506.930   4
   5  -9  -5 149.147 249.113   4
   5   9  -5 237.714 332.840   5
  -5   9   5 791.895 511.396   5
   5  -9  -5 1483.22 663.310   7
  -5  -9   4 4184.90 893.006   4
   5   9  -4 6490.99 1053.41   5
  -5   9   4 6510.01 1002.69   5
   5  -9  -4 6394.05 1080.66   7
   5  -9  -4 6350.30 956.796   4
  -5  -9   3 2443.95 714.647   4
   5  -9  -3 1732.67 554.774   4
  -5   9   3 2460.25 693.359   8
   5   9  -3 2015.99 634.617   5
  -5   9   3 2006.05 560.874   5
   5  -9  -3 4128.15 853.541   7
  -5   9   2-149.143 290.306   8
   5   9  -2 550.577 413.675   5
  -5   9   2 125.319 334.109   5
  -5  -9   2 276.133 472.601   4
   5  -9  -2 697.772 445.348   7
   5   9  -1 37088.1 2431.78   5
  -5   9   1 39793.0 2331.86   5
  -5   9   1 40278.6 2600.65   8
   5  -9  -1 38430.1 2507.41   7
  -5  -9   1 36872.4 2517.41   4
  -5  -9   0 182.105 319.453   4
  -5   9   0 480.456 353.070   8
  -5   9   0 780.211 483.306   5
   5   9   0 831.674 500.961   5
   5  -9   0 371.860 389.592   7
   5   9   1 21085.7 1845.56   5
  -5   9  -1 19584.7 1631.30   5
  -5   9  -1 20318.2 1829.84   8
   5  -9   1 20463.2 1791.43   7
  -5  -9  -1 17674.1 1700.73   4
  -5  -9  -2 995.192 551.912   4
  -5   9  -2 1390.95 538.382   8
  -5   9  -2 647.091 380.697   5
   5   9   2 1143.69 492.289   5
   5  -9   2 674.723 375.797   7
  -5   9  -3 10335.6 1239.11   5
  -5   9  -3 8669.52 1201.33   8
   5   9   3 10294.3 1341.78   5
   5  -9   3 8997.02 1226.68   7
  -5  -9  -3 8092.39 1155.50   4
  -5  -9  -4 8313.12 1209.45   6
  -5   9  -4 8745.86 1181.50   5
  -5   9  -4 8354.55 1192.89   8
  -5  -9  -4 7740.99 1164.80   4
   5   9   4 6764.67 1132.12   5
   5  -9   4 7815.74 1153.07   7
  -5  -9  -5-45.5734 400.247   4
  -5  -9  -5 632.425 428.049   6
  -5   9  -5 472.095 363.138   8
  -5   9  -5-196.620 340.704   5
   5   9   5 114.266 474.612   5
   5  -9   5 431.475 373.517   7
  -5  -9  -6 1012.27 482.137   6
  -5   9  -6 918.414 521.917   5
   5   9   6 1013.37 667.103   5
   5  -9   6 272.887 311.255   7
  -5  -9  -7 8049.21 1352.96   6
   5  -9   7 9498.00 1371.46   4
  -5   9  -7 6894.62 1187.95   5
   5   9   7 8644.90 1381.00   5
   5  -9   8 643.388 488.557   2
   5   9   8 596.437 476.375   1
  -5 -10   8 1221.79 638.384   4
  -5  10   8 1319.76 583.315   5
  -5 -10   7 686.331 542.541   4
   5  10  -7 1209.08 627.628   5
  -5  10   7 330.746 393.112   5
   5 -10  -7 587.713 507.868   7
  -5 -10   6 1204.85 731.690   4
   5  10  -6 543.949 490.326   5
  -5  10   6 252.040 300.808   5
   5 -10  -6 1020.36 670.436   7
   5  10  -5 8599.98 1309.81   5
  -5  10   5 8510.33 1236.69   5
   5 -10  -5 10563.6 1467.88   7
  -5 -10   5 12229.0 1526.06   4
  -5 -10   4 11629.9 1514.34   4
   5  10  -4 13383.1 1568.10   5
  -5  10   4 10795.7 1342.48   5
   5 -10  -4 11563.1 1529.14   7
   5 -10  -4 11305.3 1325.97   4
   5 -10  -3 51.6463 387.828   4
   5  10  -3 402.673 480.550   5
  -5  10   3 213.855 403.680   5
   5 -10  -3-221.684 404.746   7
  -5 -10   3 513.613 446.790   4
  -5 -10   2 4193.38 944.613   4
   5 -10  -2 1868.95 593.069   4
   5  10  -2 2936.27 790.064   5
  -5  10   2 3789.56 796.276   5
   5 -10  -2 4075.22 939.710   7
   5 -10  -1 2455.16 729.194   4
  -5  10   1 2942.87 696.554   5
   5  10  -1 2168.30 692.114   5
   5 -10  -1 2598.74 759.281   7
  -5 -10   1 2030.76 616.151   4
   5 -10   0 2407.70 707.732   4
  -5  10   0 2418.01 641.156   5
   5  10   0 2307.06 709.252   5
  -5 -10   0 2979.77 762.278   4
   5 -10   0 2632.05 721.108   7
  -5 -10  -1 1720.09 632.735   4
  -5  10  -1 2017.68 631.655   5
   5  10   1 2127.32 766.588   5
   5 -10   1 1219.28 557.871   7
  -5 -10  -2 1493.31 575.261   4
  -5  10  -2 964.480 483.063   5
   5  10   2 1609.64 652.715   5
   5 -10   2 1255.98 534.843   7
  -5 -10  -3 5182.62 1011.67   4
  -5  10  -3 5673.16 1025.14   5
   5  10   3 6330.90 1154.05   5
   5 -10   3 5856.84 1023.88   7
  -5 -10  -4 532.823 420.092   6
   5 -10   4 1350.07 715.620   4
  -5  10  -4 1294.18 576.274   5
  -5 -10  -4 161.565 352.627   4
   5  10   4 343.748 516.203   5
   5 -10   4 1273.64 491.760   7
  -5 -10  -5 738.618 494.698   4
  -5 -10  -5 23.2437 331.618   6
  -5  10  -5 157.846 430.485   5
   5  10   5 586.997 452.603   5
   5 -10   5 1271.31 523.397   7
  -5 -10  -6 649.690 646.746   6
  -5  11   6 2952.57 851.354   5
   5  11  -5 2914.67 911.983   5
  -5  11   5 2450.67 742.951   5
  -5 -11   4 1271.64 635.788   4
   5 -11  -4 399.088 423.417   4
   5  11  -4-493.653 395.822   5
  -5  11   4 894.703 495.261   5
   5 -11  -4 1219.93 680.165   7
   5 -11  -3 1197.74 503.369   4
   5  11  -3 1838.75 751.733   5
  -5  11   3 1496.40 617.181   5
   5 -11  -3 1842.76 680.892   7
  -5 -11   3 1552.81 645.798   4
  -5 -11   2 1197.53 562.505   4
   5 -11  -2 895.034 491.495   4
   5  11  -2 960.872 538.870   5
  -5  11   2 894.529 540.991   5
   5 -11  -2 2681.80 744.489   7
  -5 -11   1 2257.75 779.440   4
  -5  11   1 941.904 457.730   5
   5 -11  -1 1736.64 639.318   4
   5  11  -1 461.128 389.530   5
   5 -11  -1 1290.41 653.557   7
  -5 -11   0 6543.01 1193.87   4
   5 -11   0 6179.06 1142.99   4
  -5  11   0 4457.78 924.781   5
   5  11   0 5473.44 1059.78   5
   5 -11   0 7245.06 1227.52   7
  -5 -11  -1 3224.59 852.825   4
   5 -11   1 3875.66 928.897   4
  -5  11  -1 3105.09 761.448   5
   5  11   1 3920.04 976.132   5
   5 -11   1 2261.18 776.753   7
   5 -11   2-172.811 353.513   4
   5  11   2 30.1989 388.693   5
   5 -11   2-32.9128 325.706   7
  -5  11  -3 1238.70 604.752   5
  -5 -11  -3 572.948 469.644   4
   5  11   3-490.383 464.059   5
   5 -11   3 216.158 299.874   7
  -5 -11  -4 2954.02 868.875   6
  -5 -11  -4 3227.56 838.037   4
  -5  12   3 5271.42 1073.85   5
  -5  12   2 861.848 510.145   5
  -5  12   1 11445.0 1527.35   5
  -6   0  13-54.4772 650.156   9
   6   0 -13 709.925 573.059   3
  -6   0  12 923.613 585.066   9
   6   0 -12 355.440 456.884   3
  -6   0  11-542.773 438.699   9
   6   0 -11-16.7945 322.162   3
  -6   0  10-146.419 489.617   9
   6   0 -10 244.812 348.755   3
  -6   0   9 95.4702 301.707   9
  -6   0   9 171.828 247.714   1
   6   0  -9 350.440 455.568   3
  -6   0   8 32261.9 2104.44   9
   6   0  -8 29062.7 1971.75   3
  -6   0   8 31420.5 1674.20   1
  -6   0   7 21.3601 272.686   9
  -6   0   7 25.7078 195.981   8
   6   0  -7 118.973 147.277   7
   6   0  -7-59.4510 270.894   3
  -6   0   6 42683.7 2163.30   9
  -6   0   6 43811.5 1876.04   8
   6   0  -6 37521.4 2061.77   3
   6   0  -6 40547.6 1615.06   7
   6   0  -5 54.7219 44.9629   6
   6   0  -5-272.351 212.040   3
  -6   0   5-116.933 240.002   9
  -6   0   5 173.799 227.962   8
   6   0  -5 48.9290 185.465   7
   6   0  -4 2748.65 532.942   3
  -6   0   4 2682.54 471.312   9
  -6   0   4 2550.10 465.818   8
   6   0  -4 2952.46 442.690   7
   6   0  -4 2039.88 161.969   6
  -6   0   3 172.088 187.262   9
   6   0  -3-48.8969 60.0028   6
   6   0  -3 64.7385 254.574  10
  -6   0   3 475.596 305.249   8
   6   0  -3-58.5182 186.886   7
   6   0  -2 96880.0 3192.82  10
  -6   0   2 97066.7 2682.14   9
  -6   0   2 99219.9 3212.74   8
  -6   0   1-67.8478 116.086   6
   6   0  -1 58.0927 203.449  10
  -6   0   1 44.3912 124.245   9
  -6   0   1-204.391 212.125   8
  -6   0   0 17597.7 657.146   9
  -6   0   0 16859.1 1242.48   8
  -6   0   0 16519.3 936.218   6
   6   0   0 16373.7 1169.65  10
  -6   0  -1 45.8220 152.721   6
   6   0   1-38.4591 183.504  10
   6   0   1 18.5863 47.1386   5
  -6   0  -1 113.243 199.993   8
   6   0   1 33.0939 47.8150   5
  -6   0  -2 10744.3 1002.26   8
   6   0   2 9624.66 935.406  10
  -6   0  -2 10035.6 876.197   6
  -6   0  -3 216.624 309.494   6
   6   0   3-62.0575 205.740  10
  -6   0  -3-10.0453 219.113   8
   6   0   3 116.356 185.662   2
   6   0   4 8739.11 967.671  10
  -6   0  -4 9511.90 973.940   8
   6   0   4 8916.43 940.099   2
  -6   0  -4 8960.08 954.391   6
   6   0   5 123.832 247.537   2
  -6   0  -5 148.552 280.234   6
   6   0   5-97.7955 319.622  10
  -6   0  -5 192.716 220.397   8
   6   0   6 41259.6 2342.64  10
  -6   0  -6 45663.5 2231.94   8
   6   0   6 40267.6 2302.20   2
  -6   0  -6 43763.6 2458.32   6
  -6   0  -7-65.9305 401.032   6
   6   0   7 141.272 253.552   2
   6   0   7 138.312 255.629  10
  -6   0  -7 723.865 396.950   8
   6   0   8 10413.7 1269.06  10
  -6   0  -8 8562.06 1201.73   6
   6   0   8 8908.13 1184.71   2
  -6   0  -9 560.459 534.203   6
   6   0   9-176.795 324.461  10
   6   0   9 15.9848 343.397   2
   6   0  10 22160.9 2092.64  10
   6   0  10 22698.8 2089.08   2
  -6   0 -10 19683.6 2055.41   6
   6   0  11-501.820 402.319  10
  -6   1  13 8871.03 1448.54   9
  -6  -1  13 8071.08 1389.48   9
   6  -1 -13 6934.26 1207.88   3
   6   1 -13 3817.38 937.813   3
  -6   1  12 6287.46 1216.31   9
  -6  -1  12 4797.59 1025.30   9
   6  -1 -12 7310.83 1188.42   3
   6   1 -12 6607.99 1133.97   3
  -6   1  11 3774.72 702.057   1
  -6   1  11 5274.53 1016.71   9
  -6  -1  11 3853.19 921.345   9
   6  -1 -11 6007.20 1064.73   3
   6   1 -11 3862.90 828.828   3
  -6   1  10 9302.41 1266.80   9
  -6  -1  10 8872.19 1259.05   9
  -6   1  10 9030.39 1058.38   1
   6  -1 -10 8824.49 1171.13   3
   6   1 -10 7154.41 1102.14   3
  -6   1   9 474.546 425.516   9
  -6  -1   9 29.6351 326.277   9
  -6   1   9 31.8019 305.250   1
   6  -1  -9 417.431 313.933   3
   6   1  -9 604.323 426.693   3
   6  -1  -8 5498.29 855.169   3
   6   1  -8 4776.81 793.996   3
  -6   1   8 4457.69 677.425   1
  -6   1   8 4472.57 823.556   9
  -6  -1   8 4688.83 861.106   9
   6  -1  -8 6190.53 708.473   7
  -6  -1   8 6747.19 709.154   1
   6  -1  -7 5623.80 787.514   3
   6   1  -7 6355.96 891.480   3
  -6   1   7 5048.88 821.653   9
  -6  -1   7 4895.83 813.778   9
  -6   1   7 6446.86 673.381   8
  -6  -1   7 6184.99 680.792   8
  -6  -1   7 6273.53 689.608   4
   6  -1  -7 4654.34 598.126   7
   6  -1  -6 9703.32 635.178   6
  -6   1   6 8464.80 974.032   9
  -6  -1   6 9315.85 995.960   9
  -6   1   6 9730.23 859.803   8
  -6  -1   6 9479.76 857.581   8
   6  -1  -6 7943.38 924.461   3
   6   1  -6 10654.3 1073.68   3
   6   1  -6 8983.25 624.172   7
   6  -1  -6 8144.05 757.121   7
  -6  -1   6 8865.50 825.188   4
  -6   1   5 48075.3 2176.23   9
  -6  -1   5 47275.8 2155.37   9
  -6   1   5 41105.9 1909.71   8
  -6  -1   5 46943.8 2017.99   8
   6  -1  -5 42998.9 2099.86   3
   6   1  -5 44340.3 2178.94   3
   6  -1  -5 45449.2 1883.86   7
   6   1  -5 44907.2 1562.82   7
  -6  -1   5 45681.5 1991.00   4
  -6   1   4 12131.6 997.973   9
  -6  -1   4 11505.0 971.648   9
  -6   1   4 12414.4 1016.68   8
  -6  -1   4 12246.6 1006.28   8
   6  -1  -4 11224.9 996.074   3
   6   1  -4 13883.8 1147.40   3
   6  -1  -4 14356.4 1009.54   7
  -6  -1   4 14687.1 1079.09   4
   6   1  -4 15356.4 884.013   7
   6   1  -3 58155.2 2436.74  10
  -6   1   3 60027.6 2151.11   9
  -6  -1   3 59402.6 2146.61   9
  -6   1   3 57173.0 1459.39   5
  -6   1   3 57576.1 2326.41   8
  -6  -1   3 59502.5 2365.60   8
   6  -1  -3 59043.7 2339.67   3
  -6  -1   3 58586.1 2340.53   4
   6  -1  -3 61423.6 2253.69   7
   6   1  -3 61346.5 2020.34   7
   6  -1  -2 1499.95 368.577  10
   6   1  -2 2671.95 522.904  10
   6   1  -2 2446.66 246.769   5
  -6   1   2 2293.60 383.194   9
  -6  -1   2 2686.00 394.912   9
  -6  -1   2 2444.73 245.666   5
  -6   1   2 2083.38 444.598   8
  -6  -1   2 3301.42 552.946   8
   6  -1  -2 2381.09 451.798   7
  -6  -1   2 2103.54 205.734   6
  -6  -1   2 2091.79 439.504   4
   6  -1  -1 5694.39 665.060  10
  -6   1   1 7694.61 553.836   9
  -6  -1   1 7176.15 537.606   9
   6   1  -1 6121.65 333.629   5
  -6   1   1 6362.62 763.108   8
  -6  -1   1 6965.18 791.557   4
   6   1  -1 7417.93 791.772  10
  -6   1   1 6743.52 586.316   6
  -6  -1   1 6370.04 472.085   6
   6   1   0 2881.34 509.977  10
  -6   1   0 2942.79 431.677   6
  -6  -1   0 2812.66 381.764   6
  -6   1   0 2791.36 273.094   9
  -6  -1   0 2697.91 269.481   9
   6  -1   0 2825.20 508.801  10
  -6   1   0 3557.85 588.181   8
  -6  -1   0 2869.12 540.050   4
   6   1   0 2397.53 213.250   5
  -6  -1  -1 263.725 220.069   6
   6  -1   1 356.902 245.272  10
  -6   1  -1 58.5479 179.824   6
   6   1   1 254.064 254.422  10
  -6   1  -1 287.251 343.447   8
  -6  -1  -1 277.186 265.582   8
   6   1   1 106.990 109.988   5
  -6  -1  -1 446.726 286.390   4
   6   1   2 15460.8 1191.81  10
   6   1   2 16272.5 1118.45   2
  -6   1  -2 16758.2 1261.30   8
  -6  -1  -2 17637.9 1290.65   8
  -6   1  -2 16879.4 1178.53   6
  -6  -1  -2 15991.4 1084.59   6
   6  -1   2 14571.9 1134.63  10
  -6   1  -3 51568.6 2339.07   8
   6   1   3 52062.1 2230.75   2
  -6  -1  -3 53532.4 2389.75   8
   6   1   3 49042.4 2316.02  10
   6  -1   3 54394.2 2348.59  10
  -6   1  -3 53865.0 2342.02   6
  -6  -1  -3 51721.7 2230.56   6
   6   1   4 718.844 359.588  10
  -6   1  -4 444.492 274.244   6
   6   1   4 671.568 271.170   2
  -6  -1  -4 601.460 295.744   6
   6  -1   4 387.344 241.166  10
   6  -1   4 799.432 347.062   2
  -6   1  -4 267.882 346.447   8
  -6  -1  -4 253.078 265.818   8
   6   1   5 26288.9 1791.32  10
   6  -1   5 27021.0 1792.67   2
  -6   1  -5 28102.6 1706.88   8
  -6  -1  -5 31280.8 1814.71   8
   6   1   5 27315.6 1765.76   2
   6  -1   5 28394.4 1819.17  10
  -6   1  -5 28774.8 1868.42   6
  -6  -1  -5 29555.8 1865.59   6
   6  -1   6 28833.1 1889.89  10
   6   1   6 24857.9 1817.81  10
  -6   1  -6 25204.8 1626.50   8
  -6  -1  -6 25693.7 1687.87   8
   6  -1   6 24572.7 1789.09   2
   6   1   6 24758.6 1786.22   2
  -6   1  -6 28089.6 1967.25   6
  -6  -1  -6 25896.6 1866.97   6
   6  -1   7 10714.2 1197.79  10
   6   1   7 10584.1 1234.14  10
  -6  -1  -7 8486.48 1134.61   6
  -6   1  -7 11059.4 1056.54   8
  -6  -1  -7 8188.75 948.120   8
   6  -1   7 9946.22 1186.54   2
   6   1   7 10694.7 1233.22   2
  -6   1  -8 4232.74 881.009   6
   6  -1   8 2772.30 689.780   2
   6  -1   8 5256.73 932.019  10
   6   1   8 5249.80 934.922  10
   6   1   8 3305.54 781.018   2
  -6  -1  -8 5242.44 976.821   6
  -6   1  -9 4050.08 916.884   6
   6  -1   9 2658.32 715.368  10
   6   1   9 3033.30 771.646  10
   6  -1   9 2558.76 716.337   2
   6   1   9 1935.99 701.219   2
  -6  -1  -9 3384.69 841.922   6
  -6   1 -10 201.961 456.234   6
  -6  -1 -10 489.852 548.834   6
   6  -1  10 495.389 415.480  10
   6   1  10 659.499 496.696  10
   6  -1  10 655.402 386.537   2
   6   1  10 1078.06 569.788   2
   6  -1  11 7999.41 1312.33  10
   6  -2 -13-48.1368 489.797   3
   6   2 -13-179.191 402.266   3
  -6   2  12 3206.70 958.598   9
  -6  -2  12 2248.42 793.243   9
  -6   2  12 1660.84 572.120   1
   6  -2 -12 2450.66 749.220   3
   6   2 -12 1620.88 649.852   3
  -6   2  11 2764.85 788.654   9
  -6  -2  11 3257.87 789.382   9
  -6   2  11 2379.04 679.928   1
   6  -2 -11 2892.32 752.921   3
   6   2 -11 5531.29 1005.94   3
  -6   2  10 342.610 383.121   9
  -6  -2  10 379.101 293.913   9
  -6   2  10 428.044 318.317   1
   6  -2 -10 419.877 433.592   3
   6   2 -10 215.433 363.639   3
  -6   2   9 57685.4 3062.88   9
  -6  -2   9 60492.6 3152.51   9
   6  -2  -9 53143.2 2818.16   3
   6   2  -9 52875.0 2887.13   3
   6  -2  -9 54949.8 2443.04   7
  -6   2   9 57122.9 2730.58   1
  -6   2   8 846.958 342.916   1
  -6   2   8 1030.94 519.808   9
   6   2  -8 1721.27 537.603   3
  -6  -2   8 1009.38 496.556   9
  -6   2   8 1690.89 360.662   8
   6  -2  -8 1557.99 408.595   7
  -6  -2   8 943.938 381.044   4
   6  -2  -8 1050.34 448.366   3
   6  -2  -7 27330.7 1351.00   6
  -6   2   7 23703.0 1728.63   9
  -6   2   7 24389.7 1396.90   8
  -6  -2   7 28909.2 1520.49   8
   6  -2  -7 23763.0 1660.58   3
   6   2  -7 21919.9 1657.67   3
   6  -2  -7 25477.1 1529.12   7
  -6  -2   7 26642.3 1497.49   4
  -6  -2   7 23883.9 1746.56   9
   6  -2  -6 2914.83 564.246   3
  -6   2   6 2715.95 599.605   9
  -6  -2   6 3004.06 598.718   9
  -6   2   6 2490.65 445.003   8
  -6  -2   6 2235.27 457.332   8
   6  -2  -6 2002.36 438.880   7
   6   2  -6 1997.58 540.484   3
  -6  -2   6 2032.15 453.908   4
   6  -2  -5 2888.50 550.960   3
   6   2  -5 3179.44 600.097   3
  -6   2   5 3106.81 579.571   9
  -6  -2   5 3342.78 599.326   9
   6   2  -5 3251.61 497.944   5
  -6   2   5 2808.02 505.395   8
   6   2  -5 3241.72 324.286   7
   6  -2  -5 3342.84 554.282   7
  -6  -2   5 4601.09 642.251   4
   6  -2  -4 5111.66 665.065   3
   6   2  -4 4488.40 518.647   5
  -6  -2   4 5219.32 674.953   9
  -6   2   4 5776.73 704.336   9
   6   2  -4 5466.43 761.519   3
  -6   2   4 5851.88 709.296   8
   6  -2  -4 6017.42 708.975   7
   6   2  -4 5866.54 497.446   7
  -6  -2   4 3999.16 601.637   4
   6   2  -3 6771.28 796.177  10
  -6   2   3 7309.98 728.567   9
   6   2  -3 7266.43 580.050   5
  -6  -2   3 6421.10 680.954   9
  -6   2   3 6915.69 773.482   8
   6  -2  -3 7258.81 759.649   3
   6  -2  -3 7688.16 793.329   7
  -6  -2   3 6844.99 773.701   4
   6  -2  -2 3834.63 556.341  10
   6   2  -2 3945.49 597.642  10
  -6   2   2 3182.32 448.863   9
  -6   2   2 2717.96 192.756   5
  -6  -2   2 3712.79 474.164   9
   6   2  -2 3048.37 357.742   5
  -6   2   2 4353.11 656.708   8
   6  -2  -2 3462.92 537.348   7
  -6  -2   2 2591.45 208.969   6
  -6   2   2 2992.93 207.163   5
  -6  -2   2 3094.58 559.216   4
   6  -2  -1 189362. 4811.88  10
   6   2  -1 181677. 4914.75  10
  -6   2   1 190276. 4209.13   9
  -6  -2   1 196128. 4230.04   9
   6   2  -1 192485. 3933.71   5
   6   2  -1 183944. 4093.24   2
  -6   2   1 182840. 4994.32   8
  -6  -2   1 184091. 4994.80   4
   6  -2  -1 186071. 4937.58   7
  -6  -2   1 193532. 3916.92   6
  -6   2   0 2906.38 450.004   6
  -6  -2   0 3680.70 414.559   6
   6   2   0 3408.97 583.371  10
  -6  -2   0 3862.11 369.986   9
   6   2   0 3299.52 347.824   5
  -6   2   0 3508.21 589.072   8
   6   2   0 2943.08 406.988   2
   6  -2   0 3060.58 498.327  10
  -6  -2   0 3204.71 565.612   4
   6  -2   1 45114.4 1984.31  10
   6   2   1 44747.3 2080.77  10
   6   2   1 46537.4 1519.02   5
   6  -2   1 40926.3 1090.12   5
  -6   2  -1 42842.5 2086.38   8
   6   2   1 45387.0 1776.22   2
  -6  -2  -1 41719.3 2065.51   4
  -6   2  -1 44351.4 1937.76   6
  -6  -2  -1 43619.9 1740.37   6
   6   2   2 6537.34 789.289  10
   6   2   2 6407.47 700.509   2
   6  -2   2 5951.73 711.174  10
  -6   2  -2 5638.30 753.157   8
  -6   2  -2 8462.43 857.025   6
  -6  -2  -2 6332.96 801.133   4
  -6  -2  -2 6546.49 700.220   6
   6  -2   3 34366.7 1807.22  10
  -6   2  -3 34167.9 1882.65   8
   6   2   3 31650.3 1847.63  10
   6   2   3 32625.2 1720.00   2
  -6  -2  -3 34166.3 1893.91   4
  -6   2  -3 33078.9 1838.12   6
  -6  -2  -3 33568.2 1763.95   6
  -6   2  -4 85.6200 238.275   6
  -6  -2  -4 618.209 340.822   6
   6  -2   4 425.593 310.672  10
   6   2   4 899.014 418.402  10
   6   2   4 450.120 319.979   2
  -6   2  -4 123.919 220.877   8
  -6   2  -5 983.532 450.126   6
  -6  -2  -5 977.592 369.924   6
   6  -2   5 1231.58 457.566  10
   6   2   5 919.975 397.636  10
   6   2   5 601.690 307.524   2
   6  -2   5 208.527 259.414   2
  -6   2  -5 653.836 308.806   8
  -6  -2  -5 619.802 296.973   8
  -6  -2  -6 8057.23 1042.66   6
   6  -2   6 6569.06 913.946  10
   6   2   6 6425.49 918.736  10
   6   2   6 5301.67 836.686   2
  -6   2  -6 6953.42 848.356   8
  -6  -2  -6 8343.96 983.809   8
  -6   2  -6 7229.13 1007.55   6
   6  -2   6 6073.13 905.034   2
   6  -2   7 25633.3 1882.61  10
   6   2   7 23994.7 1905.90  10
  -6   2  -7 24936.5 1600.88   8
  -6  -2  -7 27656.0 1785.70   8
   6  -2   7 24906.0 1919.50   2
   6   2   7 23952.5 1872.77   2
  -6   2  -7 26239.0 2026.88   6
  -6  -2  -7 28992.3 2094.93   6
  -6   2  -8-1.30034 341.715   6
   6  -2   8 450.166 429.431   2
  -6  -2  -8 470.530 520.857   6
   6  -2   8 654.760 401.139  10
   6   2   8 477.684 383.883   2
   6   2   8 309.715 394.557  10
   6   2   9 10781.0 1478.42  10
   6  -2   9 9911.31 1303.44  10
   6  -2   9 13481.4 1542.48   2
   6   2   9 12281.0 1495.82   2
  -6   2  -9 14860.5 1698.74   6
  -6  -2  -9 13645.7 1613.69   6
  -6   2 -10 2192.78 778.579   6
   6  -2  10 1324.45 552.155  10
   6   2  10 1176.34 546.376  10
   6  -2  10 960.570 493.236   2
  -6  -2 -10 1521.56 555.957   6
   6   2  10 873.381 571.581   2
   6  -2  11 4936.11 1006.77  10
  -6   3  12 10837.5 1572.35   9
  -6  -3  12 10579.5 1538.61   9
  -6   3  12 11110.1 1415.47   1
   6  -3 -12 9814.40 1347.67   3
   6   3 -12 11905.5 1514.98   3
  -6   3  11 9251.65 1359.36   9
  -6  -3  11 8014.80 1285.26   9
  -6   3  11 5964.32 1024.07   1
   6  -3 -11 5591.43 1026.34   3
   6   3 -11 8091.37 1211.95   3
  -6   3  10 17273.3 1750.35   9
  -6  -3  10 17181.0 1755.84   9
   6  -3 -10 16684.4 1613.45   3
   6   3 -10 13966.2 1517.78   3
   6  -3 -10 14121.9 1307.82   7
  -6   3  10 13116.9 1391.91   1
   6   3  -9 6051.88 980.055   3
  -6   3   9 3684.09 802.842   9
  -6  -3   9 6354.91 1028.29   9
   6  -3  -9 4074.14 695.760   7
   6  -3  -9 6145.55 962.924   3
  -6   3   9 4918.17 823.078   1
   6  -3  -8 15815.2 1172.61   6
  -6   3   8 14671.4 1484.40   9
  -6  -3   8 16218.0 1546.98   9
  -6   3   8 16616.1 1163.40   8
   6  -3  -8 13948.1 1329.60   3
   6   3  -8 16146.7 1493.27   3
   6  -3  -8 14171.6 1255.56   7
  -6  -3   8 15947.9 1220.08   4
   6   3  -7 10094.9 1042.64   5
  -6   3   7 8891.57 1091.70   9
  -6  -3   7 7718.48 998.533   9
  -6   3   7 9911.71 907.324   8
   6  -3  -7 9869.60 1060.46   3
   6   3  -7 10094.2 1113.52   3
   6  -3  -7 9498.78 1007.54   7
  -6  -3   7 9995.74 961.295   4
  -6   3   6 9703.88 1079.64   9
   6   3  -6 8950.06 920.180   5
  -6  -3   6 8208.67 997.350   9
  -6   3   6 10860.0 963.148   8
   6  -3  -6 8111.42 917.509   3
   6   3  -6 8286.66 973.780   3
   6  -3  -6 9046.72 936.040   7
  -6  -3   6 8783.20 915.858   4
  -6   3   5 9402.29 986.658   9
   6   3  -5 10434.5 915.480   5
  -6  -3   5 10557.5 1035.67   9
  -6   3   5 9245.37 890.787   8
   6  -3  -5 11092.8 998.795   3
   6   3  -5 8290.28 942.096   3
   6  -3  -5 10478.8 997.469   7
  -6  -3   5 9581.83 953.143   4
  -6  -3   4 1073.93 362.564   4
   6  -3  -4 1331.30 388.000   3
  -6   3   4 1410.25 402.192   9
   6   3  -4 2038.78 512.423   3
  -6  -3   4 999.794 348.899   9
   6   3  -4 1037.80 318.487   5
  -6   3   4 568.590 307.749   8
   6  -3  -4 1715.31 453.762   7
   6   3  -4 1074.80 205.716   7
   6   3  -3 89372.7 3187.35  10
  -6   3   3 84872.7 2879.75   9
   6   3  -3 95641.6 2731.55   5
  -6   3   3 90580.7 2319.11   5
  -6   3   3 82085.4 3008.38   8
   6  -3  -3 87158.5 2885.21   3
   6  -3  -3 90820.1 3169.94   7
  -6  -3   3 87164.5 3130.13   4
   6  -3  -2 15233.7 1112.65  10
  -6   3   2 16414.6 1059.46   9
   6   3  -2 15957.8 938.511   5
  -6   3   2 14880.1 690.277   5
  -6   3   2 14132.4 1144.00   8
   6   3  -2 16043.4 641.329   2
   6   3  -2 14621.0 1161.66  10
   6  -3  -2 15102.6 1035.65   3
   6  -3  -2 16425.0 1243.38   7
  -6  -3   2 16523.8 1254.83   4
  -6  -3   2 15249.9 621.878   6
   6   3  -1 14989.6 1173.77  10
   6  -3  -1 17067.0 1153.35  10
  -6   3   1 17378.1 1019.61   9
  -6   3   1 17989.2 689.908   5
   6   3  -1 19180.9 995.328   5
  -6   3   1 16740.0 1255.97   8
   6   3  -1 17998.4 837.057   2
   6  -3  -1 16624.3 1263.86   7
  -6  -3   1 16304.8 1272.87   4
  -6  -3   1 18098.9 857.799   6
   6   3   0 41786.2 2022.79  10
  -6   3   0 44281.1 1217.20   5
   6   3   0 41364.8 1563.65   5
  -6   3   0 37658.4 1983.10   8
   6   3   0 38876.0 1490.97   2
   6  -3   0 40993.8 1853.34  10
   6  -3   0 38518.0 2008.35   7
  -6  -3   0 40371.7 2068.40   4
  -6  -3   0 41872.7 1595.07   6
   6  -3   1 8187.47 811.487  10
   6   3   1 7417.59 839.441  10
  -6   3  -1 8346.63 526.475   5
   6   3   1 7983.45 680.331   5
  -6   3  -1 7535.73 882.735   8
   6   3   1 7281.79 672.757   2
  -6   3  -1 7550.57 824.979   6
  -6  -3  -1 7285.93 695.777   6
  -6  -3  -1 6955.28 849.040   4
   6  -3   2 41907.9 1951.92  10
   6   3   2 43821.1 2148.31  10
   6   3   2 43965.7 1768.78   5
  -6   3  -2 40514.3 2092.89   8
   6   3   2 39043.4 1798.14   2
  -6  -3  -2 42244.6 2158.06   4
  -6   3  -2 45947.6 2159.84   6
  -6  -3  -2 44233.6 1969.00   6
   6   3   3 6136.29 839.864  10
  -6   3  -3 7376.83 874.728   8
   6  -3   3 6010.46 731.019  10
   6   3   3 5682.08 716.306   2
  -6  -3  -3 5836.22 758.013   6
  -6   3  -3 5993.59 830.711   6
  -6  -3  -3 4406.79 701.440   4
   6  -3   4 11592.8 1067.41  10
   6   3   4 12833.3 1226.95  10
  -6   3  -4 13419.0 1181.43   8
   6   3   4 14603.3 1217.74   2
  -6  -3  -4 13776.5 1223.62   4
  -6   3  -4 12303.0 1216.86   6
  -6  -3  -4 13944.5 1245.29   6
   6  -3   5 53705.3 2465.18  10
   6   3   5 47241.9 2499.09  10
  -6   3  -5 45885.7 2265.38   8
   6   3   5 41588.0 2277.41   2
  -6   3  -5 47101.6 2559.56   6
  -6  -3  -5 48395.0 2525.05   6
  -6   3  -6 485.099 429.378   6
  -6  -3  -6 682.203 424.190   6
   6  -3   6 198.646 324.895  10
   6   3   6 351.529 354.546  10
   6   3   6 405.521 297.419   2
  -6   3  -6 652.764 375.011   8
   6  -3   6 3.13112 293.806   2
  -6  -3  -7 5364.83 949.039   6
   6  -3   7 4043.55 732.418  10
   6   3   7 5287.77 906.072  10
  -6   3  -7 4721.05 719.177   8
   6   3   7 3424.11 748.099   2
  -6  -3  -7 3593.50 673.479   8
  -6   3  -7 5289.43 923.023   6
   6  -3   7 2851.09 692.997   2
   6  -3   8 1698.01 582.968   2
   6  -3   8 1048.38 421.817  10
   6   3   8 975.909 435.904  10
  -6   3  -8 1596.12 552.438   6
  -6  -3  -8 2721.88 770.947   6
   6   3   8 1438.79 558.065   2
   6  -3   9 98.1595 456.303   2
  -6  -3  -9-13.1162 402.431   6
   6  -3   9 36.7403 252.044  10
   6   3   9 148.879 323.165  10
  -6   3  -9 1052.98 527.163   6
   6   3   9 326.232 320.082   2
   6  -3  10 15491.6 1666.87  10
   6  -3  10 15563.8 1762.30   2
   6   3  10 12599.2 1613.71  10
   6   3  10 18841.2 1953.99   2
  -6   3 -10 17073.9 1911.92   6
  -6  -3 -10 15384.7 1825.54   6
   6  -3  11 1868.20 634.300  10
  -6   4  13 4134.83 939.563   1
  -6   4  12 3107.37 807.389   1
  -6   4  12 4054.58 956.010   9
  -6  -4  12 3443.25 924.897   9
   6  -4 -12 3933.94 930.905   3
   6   4 -12 4556.36 974.191   3
  -6   4  11 1447.10 658.364   9
  -6  -4  11 968.035 616.044   9
  -6   4  11 794.747 458.271   1
   6  -4 -11 309.242 265.051   7
   6  -4 -11 900.292 511.890   3
   6   4 -11 344.081 343.299   3
  -6   4  10 8788.20 1207.04   1
  -6   4  10 12705.5 1577.10   9
  -6  -4  10 13181.9 1601.15   9
   6  -4 -10 12763.1 1419.49   3
   6   4 -10 12760.9 1458.75   3
   6  -4 -10 10992.6 1232.20   7
   6  -4  -9 2389.34 546.471   6
  -6   4   9 1602.29 636.998   9
  -6   4   9 2396.65 661.126   1
  -6  -4   9 2829.65 708.932   9
   6  -4  -9 1942.34 569.788   7
   6  -4  -9 2256.75 610.688   3
   6   4  -9 2408.73 616.764   3
  -6  -4   8 2886.27 584.364   4
  -6   4   8 1996.74 620.221   9
  -6  -4   8 2731.90 715.490   9
   6   4  -8 2533.33 632.485   5
   6   4  -8 2452.36 641.545   3
  -6   4   8 2954.01 509.775   8
   6  -4  -8 3025.50 654.483   7
   6  -4  -8 3496.82 697.392   3
  -6   4   7-7.28211 303.669   9
  -6  -4   7 147.160 288.835   4
  -6  -4   7-78.6429 259.045   9
   6   4  -7 175.709 247.083   5
  -6   4   7 125.393 189.449   8
   6   4  -7 214.056 231.302   3
   6  -4  -7-26.4630 258.819   7
   6  -4  -7 399.724 347.984   3
  -6   4   6 19453.8 1570.32   9
   6   4  -6 18978.0 1407.51   5
  -6  -4   6 18719.4 1520.13   9
  -6   4   6 18374.7 1345.15   8
   6  -4  -6 18371.3 1361.47   3
   6   4  -6 18162.8 1464.62   3
   6  -4  -6 17039.7 1379.41   7
  -6  -4   6 16670.7 1327.03   4
   6  -4  -5 3957.66 626.457   3
  -6  -4   5 3916.77 679.504   4
   6   4  -5 4718.35 735.813   3
  -6   4   5 4044.82 694.971   9
  -6  -4   5 3434.88 633.709   9
   6   4  -5 3317.61 562.320   5
  -6   4   5 3932.95 635.684   8
   6  -4  -5 4905.97 753.541   7
  -6   4   4 11334.7 1052.82   9
   6   4  -4 10671.8 947.186   5
  -6   4   4 10383.4 1014.80   8
   6  -4  -4 10838.4 937.235   3
   6   4  -4 10261.4 1038.81   3
   6  -4  -4 11178.1 1087.31   7
  -6  -4   4 9430.97 989.870   4
   6   4  -3 6316.25 805.735  10
  -6  -4   3 6213.73 825.134   4
  -6   4   3 7006.39 788.203   9
   6   4  -3 6248.43 675.634   5
  -6   4   3 5294.49 537.292   5
  -6   4   3 5193.62 748.939   8
   6  -4  -3 5580.43 645.283   3
   6  -4  -3 6753.67 853.200   7
  -6  -4   2 260.248 337.623   4
  -6  -4   2 151.584 144.280   6
  -6   4   2 263.342 243.014   9
   6  -4  -2 252.549 237.937   3
   6   4  -2 320.380 234.763   5
   6   4  -2 462.962 265.074  10
  -6   4   2 72.0420 317.148   8
  -6   4   2 428.335 178.827   5
   6  -4  -2 150.693 306.139   7
   6   4  -1 14699.0 1171.60  10
  -6   4   1 14711.6 796.152   5
   6   4  -1 13920.7 967.830   5
  -6   4   1 13428.4 1170.15   8
   6  -4  -1 15800.9 1093.32  10
   6  -4  -1 14377.6 1230.84   7
  -6  -4   1 14748.3 1251.42   4
   6   4  -1 14099.7 697.625   2
  -6  -4   1 16371.4 901.823   6
   6  -4   0 8156.73 782.007  10
   6   4   0 8685.10 914.285  10
  -6   4   0 8567.40 603.226   5
   6   4   0 6936.38 696.481   5
  -6   4   0 7619.79 911.290   8
   6  -4   0 8375.48 956.967   7
   6   4   0 8471.69 641.751   2
  -6  -4   0 9164.75 999.694   4
  -6  -4   0 8613.81 729.179   6
   6   4   1 5210.46 733.234  10
  -6   4  -1 5816.95 530.555   5
   6   4   1 6947.49 711.116   5
  -6   4  -1 5977.23 797.042   8
   6  -4   1 5363.37 656.384  10
   6   4   1 5332.78 578.929   2
  -6  -4  -1 7613.51 909.345   4
   6  -4   1 5143.84 758.686   7
  -6  -4  -1 6436.95 692.558   6
   6   4   2 7329.82 903.710  10
   6  -4   2 6356.88 729.470  10
  -6   4  -2 7437.12 666.000   5
   6   4   2 7660.00 788.864   5
  -6   4  -2 7025.07 871.731   8
   6   4   2 6909.60 726.040   2
  -6  -4  -2 7747.72 931.040   4
   6  -4   2 5937.75 840.289   7
  -6   4  -2 7597.04 907.878   6
  -6  -4  -2 8693.33 888.372   6
   6  -4   3 16603.5 1204.07  10
   6   4   3 15997.5 1337.40  10
  -6   4  -3 14686.5 1003.85   5
   6   4   3 18917.7 1293.07   5
  -6   4  -3 16687.6 1359.16   8
   6   4   3 14276.5 1142.67   2
  -6  -4  -3 14882.5 1291.74   4
  -6   4  -3 16111.1 1388.32   6
  -6  -4  -3 15359.9 1264.78   6
  -6   4  -4 1741.91 571.205   6
   6  -4   4 1070.62 388.767  10
   6   4   4 943.816 422.471  10
  -6  -4  -4 819.831 393.553   6
  -6   4  -4 805.609 367.632   8
   6   4   4 976.778 377.031   2
  -6  -4  -4 727.956 382.252   4
  -6   4  -5-178.821 359.177   6
  -6  -4  -5-162.940 291.147   6
   6  -4   5 162.450 203.537  10
   6   4   5-114.204 272.607  10
  -6   4  -5-38.2450 204.279   8
   6   4   5-371.886 365.776   2
  -6  -4  -5 222.600 280.187   4
   6  -4   6 7960.36 963.110  10
  -6  -4  -6 7803.39 1092.63   6
   6   4   6 7167.85 1027.19  10
  -6   4  -6 6757.74 909.991   8
   6   4   6 7251.92 996.846   2
  -6   4  -6 8046.18 1127.94   6
   6  -4   7-50.6311 312.287  10
   6   4   7 364.541 342.213  10
  -6   4  -7 134.788 340.688   8
  -6   4  -7 416.749 301.063   6
  -6  -4  -7 296.138 445.154   6
   6   4   7 392.694 395.894   2
   6  -4   7 139.782 300.325   2
   6  -4   8 19195.1 1677.86  10
   6   4   8 19114.1 1835.38  10
   6  -4   8 18758.0 1792.57   2
   6   4   8 18984.3 1804.41   2
  -6   4  -8 19157.7 1885.93   6
  -6  -4  -8 20557.8 1936.44   6
  -6   4  -9-296.366 503.932   6
   6  -4   9-18.4766 325.903   2
  -6  -4  -9 451.696 396.174   6
   6  -4   9-37.3346 244.185  10
   6   4   9 464.521 426.243   2
  -6  -4 -10-173.485 515.664   6
   6  -4  10 333.811 331.260   2
   6  -4  10-1.33736 335.343  10
   6   4  10 511.939 447.408  10
  -6   4 -10-16.9102 505.324   6
   6   4  10 313.226 492.944   2
   6  -4  11 6697.67 1142.37  10
  -6   5  12 726.930 477.220   1
   6  -5 -12-260.047 298.465   3
   6   5 -12-111.225 314.800   3
  -6   5  11 806.245 553.630   9
  -6   5  11 3139.41 853.946   1
  -6  -5  11 2482.85 757.623   9
   6  -5 -11 2611.17 673.966   7
   6  -5 -11 2640.19 716.262   3
   6   5 -11 755.671 432.548   3
  -6   5  10 243.107 363.651   1
  -6   5  10 44.6283 311.472   9
  -6  -5  10 662.163 410.849   9
   6  -5 -10 204.389 320.003   7
   6  -5 -10-42.4555 285.444   3
   6   5 -10 765.873 431.676   3
  -6   5   9 1951.34 636.642   9
  -6  -5   9 1993.77 697.053   9
   6   5  -9 2488.60 669.142   5
   6  -5  -9 2428.48 627.458   7
   6  -5  -9 1764.07 551.304   3
   6   5  -9 2147.56 648.377   3
   6   5  -8 352.384 407.340   3
  -6  -5   8 779.625 400.008   4
  -6   5   8 109.629 295.931   9
  -6  -5   8 223.725 399.503   9
   6   5  -8-162.576 280.676   5
  -6   5   8 98.8371 217.303   8
   6  -5  -8-36.9683 308.884   7
   6  -5  -8 874.266 462.148   3
  -6  -5   7 7213.47 938.011   4
   6   5  -7 4529.29 825.674   3
   6   5  -7 8917.18 1085.01   5
  -6   5   7 7229.68 1059.96   9
  -6  -5   7 7290.81 1048.40   9
  -6   5   7 6700.82 855.806   8
   6  -5  -7 6935.74 962.112   7
   6  -5  -7 6119.46 833.236   3
  -6   5   6 21803.2 1726.02   9
   6   5  -6 26308.7 1757.81   5
  -6   5   6 23816.8 1609.72   8
   6  -5  -6 22537.9 1507.43   3
   6   5  -6 22779.6 1671.31   3
   6  -5  -6 21296.9 1654.57   7
  -6  -5   6 25727.4 1753.86   4
  -6   5   5 30612.2 1940.93   9
   6   5  -5 31664.4 1854.19   5
  -6   5   5 27273.5 1748.04   8
   6  -5  -5 28416.0 1617.16   3
   6   5  -5 31907.1 1928.94   3
   6  -5  -5 27944.3 1863.16   7
  -6  -5   5 27078.1 1803.92   4
   6   5  -4 7206.16 848.991   5
  -6   5   4 6553.95 874.759   9
  -6   5   4 7992.60 789.666   5
  -6   5   4 7908.32 926.666   8
   6  -5  -4 9376.03 850.512   3
   6   5  -4 9563.54 1029.14   3
   6  -5  -4 8680.50 1018.62   7
  -6  -5   4 8181.92 992.355   4
   6   5  -3 24565.0 1597.54  10
  -6   5   3 22227.5 1509.40   9
   6   5  -3 22864.6 1434.07   5
  -6   5   3 22565.6 1269.01   5
  -6   5   3 22045.4 1577.23   8
   6  -5  -3 21901.6 1247.25   3
   6  -5  -3 24061.6 1677.46   7
  -6  -5   3 23608.9 1646.63   4
  -6  -5   2 1108.78 410.771   4
   6   5  -2 1614.05 431.578  10
   6  -5  -2 1283.08 285.902   3
  -6  -5   2 1378.64 279.567   6
   6   5  -2 1568.79 436.711   5
  -6   5   2 1620.02 460.131   8
  -6   5   2 1478.43 323.210   5
   6  -5  -2 782.578 392.117   7
  -6  -5   1 3489.61 669.740   4
   6   5  -1 2607.11 521.438  10
  -6  -5   1 3542.36 458.622   6
   6  -5  -1 3247.52 442.198   3
  -6   5   1 2854.42 640.547   8
  -6   5   1 3471.52 467.421   5
   6   5  -1 3800.01 573.780   5
   6  -5  -1 3115.48 618.935   7
  -6  -5   0 1288.08 500.601   4
   6  -5   0 1252.90 357.136  10
   6   5   0 629.628 357.568  10
  -6  -5   0 1190.61 357.379   6
  -6   5   0 744.367 266.650   5
  -6   5   0 659.781 323.976   8
   6   5   0 772.825 330.851   5
   6  -5   0 1060.79 411.224   7
  -6  -5  -1-249.010 298.966   4
   6   5   1 447.011 284.969  10
   6  -5   1 464.020 260.176  10
  -6  -5  -1 110.974 226.819   6
  -6   5  -1 403.233 235.665   5
  -6   5  -1-272.826 275.524   8
   6   5   1 235.661 228.777   5
   6  -5   1 249.060 279.271   7
   6   5   1 172.853 211.995   2
  -6  -5  -2 3692.95 710.880   4
   6  -5   2 4021.47 558.746  10
   6   5   2 4077.59 676.648  10
  -6  -5  -2 4285.04 676.721   6
  -6   5  -2 4323.90 556.950   5
  -6   5  -2 2900.75 640.957   8
   6   5   2 3712.46 609.808   5
   6   5   2 3425.09 551.474   2
   6  -5   2 4643.39 785.858   7
   6  -5   3 19552.3 1280.80  10
  -6   5  -3 18170.8 1197.23   5
   6   5   3 16017.1 1364.47  10
   6   5   3 18092.4 1370.67   5
  -6   5  -3 16409.8 1411.30   8
   6  -5   3 16471.7 1463.96   7
  -6  -5  -3 17228.9 1464.48   4
   6   5   3 14755.6 1185.61   2
  -6   5  -3 16868.9 1482.33   6
  -6  -5  -3 17656.7 1421.53   6
   6   5   4 26563.3 1829.54  10
  -6   5  -4 22531.8 1461.04   5
  -6   5  -4 21278.4 1628.22   8
  -6  -5  -4 23623.3 1738.74   4
   6  -5   4 24602.6 1824.67   7
   6   5   4 22848.7 1607.67   2
  -6   5  -4 22808.4 1811.73   6
   6  -5   4 23392.6 1485.93  10
  -6  -5  -4 24205.4 1763.28   6
   6  -5   5 14332.1 1213.58  10
  -6   5  -5 14378.9 1334.33   8
   6   5   5 12780.7 1326.53  10
  -6  -5  -5 15263.0 1407.59   4
   6   5   5 15157.4 1378.99   2
  -6   5  -5 13973.4 1459.21   6
  -6  -5  -5 15757.1 1498.12   6
  -6   5  -6 472.045 402.082   6
   6  -5   6 520.054 374.890  10
   6   5   6 450.688 341.729  10
  -6  -5  -6 1071.14 546.624   6
  -6   5  -6 98.2120 217.101   8
   6   5   6 444.278 398.801   2
  -6  -5  -6 311.737 423.009   4
   6  -5   7 12870.7 1280.02  10
   6   5   7 16083.5 1663.32  10
  -6   5  -7 13863.5 1327.35   8
   6   5   7 11690.0 1376.30   2
   6  -5   7 11054.7 1360.10   2
  -6   5  -7 13469.3 1530.54   6
  -6  -5  -7 15138.7 1632.81   6
  -6   5  -8 2874.67 846.688   6
  -6  -5  -8 4624.63 978.504   6
   6  -5   8 2812.72 687.476  10
   6   5   8 3066.47 763.127  10
   6   5   8 3180.51 828.465   2
   6  -5   8 3479.44 808.336   2
   6  -5   9 2418.76 704.843   2
  -6   5  -9 1367.04 651.643   6
  -6  -5  -9 2862.30 817.127   6
   6   5   9 3132.53 858.330  10
   6   5   9 2002.67 755.684   2
   6  -6 -12 448.153 450.369   7
   6  -6 -12-54.9692 374.985   3
   6   6 -12 678.093 410.281   3
  -6   6  11 10363.4 1525.93   9
  -6  -6  11 9488.12 1430.77   9
   6  -6 -11 7388.37 1200.68   7
   6  -6 -11 8315.24 1195.95   3
   6   6 -11 7982.28 1235.15   3
  -6   6  10 17520.7 1908.46   9
   6   6 -10 17586.6 1832.36   5
  -6  -6  10 15449.0 1795.24   9
   6  -6 -10 13430.9 1433.34   3
   6   6 -10 11339.9 1413.27   3
   6  -6 -10 13222.6 1520.69   7
  -6   6   9 14095.3 1642.36   9
   6   6  -9 11782.6 1431.47   5
  -6  -6   9 10434.2 1436.56   9
   6  -6  -9 15182.7 1443.16   3
   6   6  -9 13180.2 1455.72   3
   6  -6  -9 12884.3 1479.66   7
  -6  -6   9 11493.0 1277.04   4
   6   6  -8 163.674 272.936   3
  -6  -6   8 15.1039 220.037   4
  -6   6   8-260.635 301.630   9
  -6  -6   8-191.657 396.729   9
   6   6  -8 238.926 358.320   5
  -6   6   8 38.7679 232.478   8
   6  -6  -8 318.786 349.155   7
   6  -6  -8 136.509 303.936   3
  -6   6   7 22805.5 1929.22   9
   6   6  -7 23846.6 1866.00   5
  -6   6   7 24157.1 1716.46   8
   6  -6  -7 23517.2 1604.41   3
   6   6  -7 19977.4 1661.74   3
   6  -6  -7 22158.8 1835.63   7
  -6  -6   7 21594.4 1721.00   4
  -6   6   6 20559.2 1746.73   9
   6   6  -6 21242.9 1689.58   5
  -6   6   6 18117.3 1506.69   8
   6  -6  -6 20864.9 1425.20   3
   6   6  -6 17581.3 1508.61   3
   6  -6  -6 20005.3 1710.21   7
  -6  -6   6 21503.3 1676.02   4
  -6  -6   5 1945.23 562.029   4
   6   6  -5 1911.28 547.118   3
  -6   6   5 2204.61 608.381   9
   6   6  -5 2000.81 542.951   5
  -6   6   5 2108.70 563.367   8
  -6   6   5 2344.68 523.729   5
   6  -6  -5 1500.92 510.163   7
   6  -6  -5 2376.65 468.227   3
  -6   6   4 15378.1 1384.31   9
   6   6  -4 13271.1 1223.59   5
  -6   6   4 16268.3 1214.14   5
  -6   6   4 15109.3 1364.00   8
   6  -6  -4 13685.7 1005.73   3
   6   6  -4 13496.9 1230.65   3
   6  -6  -4 14694.5 1405.26   7
  -6  -6   4 14385.5 1369.40   4
  -6  -6   3 4785.38 826.285   4
   6   6  -3 4055.35 672.645   3
   6   6  -3 4306.73 669.700   5
  -6   6   3 3816.46 719.347   8
  -6   6   3 3701.83 571.170   5
   6  -6  -3 3974.39 739.027   7
   6   6  -2 54258.5 2457.04  10
   6   6  -2 57200.5 2509.41   5
  -6   6   2 53927.3 2177.55   5
  -6   6   2 50846.8 2606.14   8
   6  -6  -2 54158.9 2716.60   7
  -6  -6   2 51313.9 2648.38   4
   6   6  -1 39664.8 2048.99  10
  -6   6   1 43836.8 1863.15   5
   6   6  -1 40681.7 2077.79   5
  -6   6   1 37883.4 2222.96   8
   6  -6  -1 36553.6 2221.89   7
  -6  -6   1 38485.8 2275.29   4
   6   6   0 321.691 282.908  10
  -6  -6   0 748.867 314.867   6
  -6   6   0 1027.51 322.930   5
  -6   6   0 658.777 392.979   8
   6   6   0 238.268 201.654   5
   6  -6   0 522.235 392.073   7
  -6  -6   0 743.631 408.779   4
  -6  -6  -1 40172.3 2022.24   6
   6  -6   1 38562.7 1687.22  10
   6   6   1 41432.4 2148.98  10
  -6   6  -1 40443.1 1830.67   5
   6   6   1 40190.7 2098.39   5
  -6   6  -1 36571.5 2213.82   8
   6  -6   1 36076.6 2226.67   7
  -6  -6  -1 39199.4 2302.90   4
  -6  -6  -2 2873.56 647.200   4
   6   6   2 2789.64 615.861  10
  -6  -6  -2 3562.58 654.794   6
  -6   6  -2 2689.58 489.384   5
  -6   6  -2 2967.32 635.788   8
   6   6   2 3069.90 606.764   5
   6  -6   2 3183.60 713.083   7
   6   6   3 23490.3 1701.69  10
  -6   6  -3 22637.1 1481.38   5
   6   6   3 22068.1 1649.32   5
  -6   6  -3 21402.1 1695.86   8
   6  -6   3 23147.0 1811.69   7
  -6  -6  -3 23176.1 1766.98   4
  -6  -6  -3 24082.4 1733.23   6
  -6   6  -4 32994.9 1897.26   5
   6   6   4 34461.8 2134.67   5
  -6   6  -4 33893.6 2161.45   8
   6  -6   4 31272.1 2144.78   7
  -6  -6  -4 32457.6 2133.20   4
  -6   6  -4 37444.3 2421.96   6
   6   6   4 33833.8 2126.31  10
  -6  -6  -4 31565.2 2105.76   6
  -6   6  -5 359.596 427.056   6
   6   6   5-79.9236 255.600  10
  -6  -6  -5 115.507 428.182   6
  -6   6  -5-225.724 224.746   5
  -6   6  -5 102.595 244.887   8
   6   6   5 638.462 508.558   5
   6  -6   5 573.833 388.758   7
  -6  -6  -5 174.095 317.775   4
   6   6   6 17933.4 1669.67  10
  -6   6  -6 15438.5 1469.96   8
  -6  -6  -6 16356.2 1516.30   4
   6  -6   6 18024.3 1703.44   7
  -6   6  -6 17099.6 1750.57   6
  -6  -6  -6 15571.7 1643.50   6
  -6   6  -7 2176.49 754.360   6
   6   6   7 1144.91 551.022  10
  -6  -6  -7 620.029 533.957   6
   6  -6   7 2011.18 624.183   7
  -6   6  -8-371.908 421.502   6
   6   6   8-263.529 367.539  10
  -6  -6  -8 769.718 614.361   6
   6  -6   8 1311.55 643.575   7
   6  -6   8 679.777 524.298   2
  -6   6  -9 10841.7 1587.86   6
  -6  -6  -9 12633.4 1676.64   6
   6   6   9 11620.9 1541.93  10
   6  -6   9 11356.6 1461.08   7
   6  -6   9 9534.27 1430.99   2
   6  -7 -11 1466.25 625.221   7
   6   7 -11 963.995 483.024   3
  -6   7  10 7467.62 1343.41   9
  -6  -7  10 7884.06 1376.63   9
   6   7 -10 6365.33 1203.90   5
   6  -7 -10 8394.23 1313.98   7
   6   7 -10 7667.41 1162.54   3
  -6  -7   9 4008.83 819.606   4
  -6   7   9 3892.67 954.005   9
  -6  -7   9 3194.68 863.245   9
   6   7  -9 3699.33 879.713   5
   6  -7  -9 3758.78 860.906   7
   6   7  -9 4274.72 847.793   3
  -6   7   8 11503.9 1469.37   9
   6   7  -8 11548.5 1427.68   5
  -6  -7   8 9873.83 1378.49   9
   6   7  -8 13920.5 1427.27   3
   6  -7  -8 11688.4 1433.22   7
  -6  -7   8 10092.3 1253.92   4
  -6  -7   7 795.283 450.175   4
  -6   7   7 1079.05 535.435   9
   6   7  -7 716.293 498.274   5
  -6   7   7 795.283 448.033   8
   6   7  -7 658.505 333.781   3
   6  -7  -7 704.861 474.009   7
  -6  -7   6 8626.74 1153.71   4
   6   7  -6 9576.22 1200.23   5
  -6   7   6 7796.85 1126.91   9
  -6   7   6 8263.58 1093.90   8
   6   7  -6 7615.54 1001.84   3
  -6   7   6 8126.25 1022.73   5
   6  -7  -6 7899.62 1130.28   7
  -6  -7   5 1178.49 478.612   4
   6   7  -5 995.548 384.824   3
  -6   7   5 2103.77 633.119   9
   6   7  -5 2316.91 628.039   5
  -6   7   5 1847.88 576.850   8
  -6   7   5 2178.90 560.954   5
   6  -7  -5 1906.60 587.741   7
  -6  -7   4 4254.93 820.868   4
   6   7  -4 4762.79 760.678   3
   6   7  -4 4444.54 771.460   5
  -6   7   4 4191.11 786.606   8
  -6   7   4 4118.82 702.354   5
   6  -7  -4 6735.36 1008.26   7
  -6  -7   3 7879.82 1069.40   4
  -6   7   3 6805.34 833.056   5
   6   7  -3 6605.92 870.556   3
  -6   7   3 7216.39 985.803   8
   6   7  -3 6635.82 904.574   5
   6  -7  -3 6341.27 949.380   7
   6   7  -2 10829.3 1147.85   5
  -6   7   2 13542.5 1137.40   5
  -6   7   2 10990.1 1259.23   8
   6   7  -2 12973.7 1165.82  10
   6  -7  -2 12278.3 1336.43   7
  -6  -7   2 13518.3 1406.48   4
  -6  -7   1 8129.08 1073.86   4
   6   7  -1 7905.97 912.953  10
  -6   7   1 8193.12 919.505   5
  -6   7   1 5874.47 967.272   8
   6   7  -1 6824.72 896.718   5
   6  -7  -1 9371.64 1156.30   7
   6   7   0 32450.3 1886.07  10
  -6   7   0 31473.2 1735.55   5
   6   7   0 29587.8 1917.26   5
  -6   7   0 29720.9 2084.01   8
   6  -7   0 33278.8 2196.83   7
  -6  -7   0 31142.7 2124.86   4
  -6  -7  -1 2752.27 680.064   4
  -6  -7  -1 3644.36 660.927   6
  -6   7  -1 2957.05 556.021   5
  -6   7  -1 3628.52 730.721   8
   6   7   1 2698.95 569.144   5
   6   7   1 3791.49 659.254  10
   6  -7   1 1747.05 541.888   7
  -6  -7  -2 23716.1 1716.50   6
   6   7   2 23586.5 1676.75  10
  -6   7  -2 22404.0 1528.71   5
   6   7   2 24832.5 1796.52   5
  -6   7  -2 22022.9 1799.26   8
   6  -7   2 24033.3 1907.78   7
  -6  -7  -2 21701.7 1790.70   4
  -6  -7  -3 506.695 419.196   4
   6   7   3 1143.04 446.458  10
  -6  -7  -3 226.540 421.738   6
  -6   7  -3 307.392 221.727   5
  -6   7  -3 1205.15 454.237   8
   6   7   3 987.021 468.449   5
   6  -7   3 756.313 391.963   7
  -6  -7  -4 524.726 305.615   4
   6   7   4 548.089 366.327  10
  -6  -7  -4 912.904 475.732   6
  -6   7  -4-182.224 292.386   5
  -6   7  -4 483.345 337.588   8
   6   7   4 511.199 397.277   5
   6  -7   4 1195.02 584.719   7
   6   7   5 4876.70 843.971  10
  -6  -7  -5 2063.55 619.070   6
  -6   7  -5 2549.37 672.606   8
   6   7   5 4023.08 825.652   5
   6  -7   5 4257.84 867.183   7
  -6  -7  -5 2264.27 612.750   4
  -6  -7  -6 816.810 412.247   6
  -6   7  -6 362.406 391.277   8
   6   7   6 592.707 433.491  10
   6   7   6 235.202 321.624   5
   6  -7   6 1968.94 670.901   7
  -6   7  -6 1183.18 612.459   6
  -6  -7  -6 879.012 493.479   4
  -6   7  -7 1689.52 758.025   6
   6   7   7 430.399 415.812  10
  -6  -7  -7 1053.90 598.864   6
   6  -7   7 432.955 313.890   7
  -6   7  -8 7828.67 1389.62   6
  -6  -7  -8 6800.45 1245.54   6
   6   7   8 6104.68 1161.49  10
   6  -7   8 8366.67 1272.87   7
   6  -7   8 6857.42 1153.57   2
   6   8 -10-411.638 410.893   5
  -6  -8   9-361.526 350.320   4
  -6   8   9 440.610 433.651   9
  -6  -8   9-204.098 378.741   9
   6   8  -9 611.968 451.498   5
   6  -8  -9-305.179 483.000   7
  -6  -8   8 6378.29 1046.25   4
  -6   8   8 7027.22 1228.81   9
   6   8  -8 8285.85 1304.15   5
  -6   8   8 9150.98 1243.35   5
   6  -8  -8 5340.03 1077.87   7
  -6  -8   7-229.263 471.460   4
  -6   8   7-149.326 293.460   9
   6   8  -7 162.035 333.617   5
  -6   8   7 912.268 458.426   5
   6  -8  -7 262.225 436.806   7
  -6  -8   6 265.560 320.530   4
   6   8  -6 1445.90 510.458   3
   6   8  -6 123.512 332.959   5
  -6   8   6 808.827 461.694   8
  -6   8   6 449.723 352.831   5
   6  -8  -6 1637.82 611.293   7
  -6  -8   5 1516.98 617.574   4
   6   8  -5 203.696 216.129   3
   6   8  -5 1042.45 478.329   5
  -6   8   5 963.878 465.255   8
  -6   8   5 582.789 337.499   5
   6  -8  -5 891.456 543.031   7
   6   8  -4 13888.8 1434.08   5
  -6   8   4 12176.6 1238.22   5
  -6   8   4 12915.1 1416.74   8
   6   8  -4 14175.8 1299.08   3
   6  -8  -4 15180.5 1568.01   7
  -6  -8   4 15154.9 1578.13   4
  -6  -8   3 625.082 375.499   4
   6   8  -3-18.4865 233.882   3
  -6   8   3 193.660 254.678   8
   6   8  -3 686.769 422.524   5
  -6   8   3 1099.80 529.739   5
   6  -8  -3-47.9868 365.006   7
  -6  -8   2 1447.94 563.303   4
  -6   8   2 1234.85 484.064   8
   6   8  -2 1048.84 470.455   5
  -6   8   2 672.100 354.776   5
   6  -8  -2 784.154 351.524   7
  -6  -8   1 267.988 397.240   4
  -6   8   1 547.138 503.575   8
  -6   8   1 138.836 259.935   5
   6   8  -1-136.639 303.356   5
   6  -8  -1 811.078 557.773   7
  -6  -8   0 1355.61 596.718   4
  -6   8   0 420.563 386.361   8
  -6   8   0 318.866 216.908   5
   6   8   0 975.946 503.507   5
   6   8   0 856.644 361.566  10
   6  -8   0 509.918 401.754   7
  -6  -8  -1 4018.28 793.747   4
   6   8   1 3121.46 620.658  10
  -6   8  -1 1752.86 489.289   5
  -6   8  -1 2597.94 699.704   8
   6   8   1 3337.63 712.695   5
   6  -8   1 2284.45 663.259   7
   6   8   2 199.989 248.696  10
  -6  -8  -2-247.124 243.484   6
  -6   8  -2-269.510 298.704   5
  -6   8  -2 8.45197 281.301   8
   6   8   2-37.7911 314.696   5
  -6  -8  -2 318.063 369.601   4
   6  -8   2-80.4385 322.333   7
  -6  -8  -3 3263.74 729.547   4
   6   8   3 3138.33 669.378  10
  -6  -8  -3 5889.03 980.090   6
  -6   8  -3 5301.07 994.576   8
   6   8   3 3916.24 789.680   5
   6  -8   3 3381.83 782.413   7
  -6  -8  -4 7022.25 1100.92   4
   6   8   4 7449.58 1025.13  10
  -6  -8  -4 7320.30 1129.24   6
  -6   8  -4 7927.32 1180.93   8
   6   8   4 7550.62 1155.87   5
   6  -8   4 6624.35 1077.99   7
  -6  -8  -5 2529.15 700.387   4
  -6  -8  -5 1502.39 672.390   6
  -6   8  -5 901.773 498.155   8
   6   8   5 1628.10 500.266  10
   6   8   5 752.733 548.249   5
   6  -8   5 2124.03 657.241   7
   6   8   6 2953.72 726.387  10
  -6  -8  -6 4964.53 1027.66   6
  -6   8  -6 3072.14 743.138   8
   6   8   6 3992.58 938.853   5
   6  -8   6 3524.94 853.943   7
  -6  -8  -7 1487.17 633.617   6
   6   8   7 376.247 357.650  10
   6   8   7 2053.38 907.787   5
   6  -8   7 1724.63 623.996   7
   6   8   8 2820.75 712.285  10
   6   8   8 3734.91 999.960   5
  -6  -9   9-131.172 364.359   4
  -6  -9   8 5744.71 1099.06   4
   6   9  -8 6701.77 1202.72   5
  -6   9   8 6559.34 1144.22   5
   6  -9  -8 4248.06 1014.19   7
   6   9  -7 17529.2 1875.64   5
  -6   9   7 15736.9 1646.07   5
   6  -9  -7 17845.8 1935.72   7
  -6  -9   7 16160.4 1769.93   4
  -6  -9   6 842.592 465.688   4
   6   9  -6 1818.26 692.199   5
  -6   9   6 2590.57 752.902   5
   6  -9  -6 1246.45 648.426   7
  -6  -9   5 6476.62 1111.27   4
   6  -9  -5 6553.74 968.620   4
  -6   9   5 5632.50 1020.62   8
   6   9  -5 7450.31 1158.88   5
  -6   9   5 4832.35 863.790   5
   6  -9  -5 4374.60 990.758   7
  -6  -9   4 507.158 435.458   4
  -6   9   4 479.535 509.733   8
   6   9  -4 142.128 334.984   5
  -6   9   4 685.365 367.240   5
   6  -9  -4 252.119 292.258   7
  -6  -9   3 7034.15 1137.84   4
  -6   9   3 6611.60 1093.74   8
   6   9  -3 5305.28 953.455   5
  -6   9   3 6166.43 931.618   5
   6  -9  -3 5123.21 976.933   7
  -6  -9   2 4019.79 927.141   4
  -6   9   2 2867.40 784.563   8
   6   9  -2 2915.41 750.204   5
  -6   9   2 3062.79 680.696   5
   6  -9  -2 5089.43 990.892   7
  -6  -9   1 3889.97 864.908   4
  -6   9   1 6334.82 1091.66   8
  -6   9   1 5299.88 842.656   5
   6   9  -1 4343.23 880.576   5
   6  -9  -1 6844.48 1124.65   7
  -6  -9   0 5524.44 1064.67   4
  -6   9   0 3194.11 818.858   8
   6   9   0 3375.67 825.931   5
   6  -9   0 5682.43 1045.15   7
  -6  -9  -1 261.256 404.944   4
  -6   9  -1 48.8722 304.377   8
   6   9   1 752.369 432.232   5
   6  -9   1 713.231 510.960   7
  -6  -9  -2 2932.89 778.492   4
  -6  -9  -2 2285.69 645.746   6
  -6   9  -2 1315.68 605.209   8
   6   9   2 3558.24 852.836   5
   6  -9   2 1823.18 647.114   7
  -6  -9  -3 144.454 331.390   4
  -6  -9  -3-9.90124 402.942   6
  -6   9  -3 105.650 293.382   8
   6   9   3 181.990 353.849   5
   6  -9   3 453.313 393.420   7
  -6  -9  -4 185.326 482.857   4
  -6  -9  -4-82.0872 333.428   6
  -6   9  -4 73.9593 326.936   8
   6   9   4-117.815 330.503   5
   6  -9   4 425.849 427.202   7
  -6  -9  -5 10338.8 1406.28   4
  -6  -9  -5 10504.7 1459.21   6
  -6   9  -5 8218.58 1263.10   8
   6   9   5 9536.72 1415.23   5
   6  -9   5 8021.98 1229.55   7
  -6  -9  -6 6594.82 1217.35   6
  -6   9  -6 4319.88 928.824   8
   6   9   6 6702.46 1192.97   5
   6  -9   6 6317.38 1085.78   7
  -6 -10   7 1743.81 678.615   4
   6  10  -7 1818.62 743.587   5
  -6 -10   6 8490.94 1358.40   4
   6  10  -6 8852.91 1408.07   5
   6 -10  -6 9989.91 1518.87   7
  -6 -10   5-824.890 521.418   4
   6  10  -5 1.48766 376.626   5
   6 -10  -5 653.135 460.325   7
   6  10  -4 18948.2 1896.44   5
   6 -10  -4 23246.2 2212.39   7
  -6 -10   4 23114.1 2160.61   4
   6 -10  -4 20034.7 1798.12   4
  -6 -10   3 2181.94 783.707   4
   6 -10  -3 2213.70 651.514   4
  -6  10   3 3606.19 918.853   8
   6  10  -3 3104.09 803.014   5
   6 -10  -3 3098.72 849.068   7
  -6 -10   2 7771.26 1281.02   4
  -6  10   2 6828.64 1178.88   8
   6  10  -2 5973.43 1057.78   5
   6 -10  -2 4605.53 954.062   7
  -6 -10   1 1343.67 627.422   4
  -6  10   1 391.554 408.426   8
   6  10  -1 311.006 380.037   5
   6 -10  -1 832.550 473.447   7
  -6  10   0 406.261 425.432   8
   6  10   0 378.282 317.567   5
   6 -10   0 211.254 302.748   7
  -6 -10  -1 9753.18 1397.17   4
  -6  10  -1 6648.41 1200.79   8
   6 -10   1 9911.65 1382.31   7
  -6 -10  -2 7791.07 1272.43   4
  -6 -10  -2 6270.73 1070.63   6
  -6  10  -2 7177.21 1251.88   8
   6  10   2 6567.31 1149.67   5
   6 -10   2 6932.25 1139.67   7
  -6 -10  -3 1017.72 535.879   4
  -6 -10  -3 229.925 361.214   6
  -6  10  -3 851.582 457.576   8
   6  10   3 684.252 581.137   5
   6 -10   3 1064.82 445.646   7
  -6 -10  -4 20936.9 2071.25   6
   6  10   4 22795.6 2174.44   5
  -6  10  -4 20677.0 2026.38   8
   6 -10   4 21331.3 2016.65   7
  -6 -10  -4 18909.3 1946.12   4
  -6 -10  -5-117.022 415.394   4
  -6 -10  -5 224.890 358.083   6
   6  10   5-608.039 453.447   5
   6 -10   5-1104.88 522.831   7
   6 -11  -4 1647.08 584.255   4
   6  11  -4 1663.03 655.411   5
   6 -11  -3 1745.82 638.177   4
   6  11  -3 816.451 468.597   5
   6  11  -2 19282.5 1991.11   5
   6 -11  -2 20754.6 2116.53   7
  -6 -11   2 17205.2 1988.07   4
   6 -11  -2 18542.4 1870.60   4
  -6 -11   1-149.923 357.380   4
   6 -11  -1 843.414 548.479   4
   6  11  -1-88.6865 369.301   5
   6 -11  -1 696.400 483.254   7
   6  11   0 19310.4 1997.68   5
   6 -11   0 18899.7 1966.26   7
  -6 -11   0 15203.5 1853.76   4
   6 -11   0 14977.0 1747.18   4
  -6 -11  -1 351.841 466.660   4
   6  11   1 438.466 533.620   5
   6 -11   1-58.9512 298.879   7
  -6 -11  -2 4643.18 1006.95   4
   6  11   2 7327.82 1289.02   5
   6 -11   2 4601.22 1036.88   7
   6 -11   3 128.108 331.203   7
  -7   0  12 2918.43 844.084   9
   7   0 -12 3623.40 933.566   3
  -7   0  11 424.923 556.909   9
   7   0 -11 45.1994 389.197   3
  -7   0  10 16788.8 1736.45   9
   7   0 -10 19037.9 1783.04   3
   7   0  -9 581.595 502.496   3
  -7   0   9 311.447 392.294   9
  -7   0   8 135333. 4764.47   9
   7   0  -8 127853. 4635.25   3
   7   0  -7-227.124 265.723   3
  -7   0   7 200.815 364.272   9
  -7   0   7-196.000 181.076   8
   7   0  -7 13.2532 141.696   7
  -7   0   6 17477.2 1415.14   9
  -7   0   6 18502.5 1306.11   8
   7   0  -6 18601.7 1494.59   3
   7   0  -6 18667.7 1123.46   7
   7   0  -5-356.427 315.323   3
  -7   0   5 292.530 307.578   9
  -7   0   5 82.3298 296.717   8
   7   0  -5 152.352 192.364   7
   7   0  -4 903.054 312.470   3
  -7   0   4 994.418 357.358   9
  -7   0   4 809.078 315.798   8
   7   0  -4 1025.85 314.350   7
  -7   0   3 279.564 231.254   9
  -7   0   3-283.898 241.931   8
   7   0  -3-107.710 192.194   7
  -7   0   2 49614.7 1807.73   9
  -7   0   2 52286.6 2385.38   8
   7   0  -2 49526.3 2312.45  10
  -7   0   1 331.071 195.217   6
   7   0  -1 343.184 303.024  10
  -7   0   1-25.1153 134.439   9
  -7   0   1 266.936 360.203   8
   7   0   0 159263. 4609.45  10
  -7   0   0 156043. 3082.12   9
  -7   0   0 158317. 4702.28   8
  -7   0   0 159445. 3931.75   6
  -7   0  -1 163.982 217.509   6
   7   0   1-267.273 322.034  10
  -7   0  -1 34.6487 265.742   8
  -7   0  -2 80615.3 3204.67   8
   7   0   2 77708.5 3100.22  10
  -7   0  -2 84340.2 2915.00   6
  -7   0  -3 178.177 255.060   6
   7   0   3-55.8329 239.541  10
  -7   0  -3-205.357 284.212   8
   7   0   3 29.1085 201.268   2
  -7   0  -4 2540.42 562.142   6
   7   0   4 2776.66 626.045  10
  -7   0  -4 2726.03 592.574   8
   7   0   4 2197.90 546.891   2
   7   0   5-330.483 308.963   2
  -7   0  -5 339.150 356.994   6
   7   0   5-141.969 327.304  10
  -7   0  -5 96.7296 268.544   8
   7   0   6-207.440 333.058   2
  -7   0  -6-50.1318 306.976   6
   7   0   6 4.29287 260.826  10
  -7   0  -6 910.906 408.205   8
  -7   0  -7 353.311 375.687   6
   7   0   7-28.2491 292.333  10
   7   0   7 127.174 364.746   2
  -7   0  -7 317.133 259.874   8
   7   0   8 26050.0 2124.23  10
   7   0   8 22602.8 1966.30   2
  -7   0  -8 23999.3 2083.01   6
  -7   0  -9-3.05312 525.656   6
   7   0   9 593.135 499.056  10
   7   0   9 362.846 386.957   2
  -7   0 -10 5260.08 1136.43   6
   7   0  10 6547.49 1167.31  10
   7   0  10 5413.71 1070.53   2
  -7   1  12 10292.8 1500.49   9
  -7  -1  12 7967.33 1322.03   9
   7  -1 -12 9131.38 1363.46   3
   7   1 -12 8182.17 1305.86   3
  -7   1  11 2782.98 804.981   9
  -7  -1  11 2759.54 723.731   9
   7  -1 -11 2698.60 805.412   3
   7   1 -11 3477.88 863.822   3
  -7   1  10 2340.66 659.716   9
  -7  -1  10 4195.06 905.988   9
   7  -1 -10 2565.84 742.066   3
   7   1 -10 3023.88 751.594   3
   7   1  -9 9551.24 1220.92   3
  -7   1   9 9804.79 1254.84   9
  -7  -1   9 7983.21 1170.77   9
   7  -1  -9 10084.4 1237.57   3
   7  -1  -8 3306.66 744.294   3
  -7   1   8 2611.22 673.459   9
  -7  -1   8 4595.98 843.560   9
  -7   1   8 3431.31 548.645   8
   7  -1  -8 2984.83 523.659   7
   7   1  -8 3619.04 763.728   3
   7  -1  -7 1452.86 486.795   3
   7   1  -7 1558.91 547.422   3
  -7   1   7 595.005 428.010   9
  -7  -1   7 863.338 340.717   9
  -7   1   7 1581.15 426.211   8
  -7  -1   7 1526.64 393.084   8
  -7  -1   7 1922.84 448.616   4
   7  -1  -7 1093.73 348.140   7
  -7   1   6 30456.8 1883.62   9
  -7  -1   6 31002.3 1897.44   9
  -7   1   6 31255.5 1732.98   8
  -7  -1   6 35906.9 1864.88   8
   7  -1  -6 34221.1 2006.94   3
   7   1  -6 28786.2 1895.08   3
   7   1  -6 31052.2 1333.88   7
   7  -1  -6 30903.0 1618.35   7
  -7  -1   6 31172.7 1727.30   4
  -7   1   5 22187.5 1492.92   9
  -7  -1   5 20657.0 1454.94   9
  -7   1   5 22530.5 1478.42   8
  -7  -1   5 21989.2 1477.01   8
   7  -1  -5 19538.7 1476.33   3
   7   1  -5 23409.3 1646.16   3
   7  -1  -5 24091.8 1409.71   7
   7   1  -5 22435.0 1166.18   7
  -7  -1   5 22758.0 1481.42   4
  -7   1   4 17962.8 1244.98   9
  -7  -1   4 17019.7 1203.44   9
  -7   1   4 16633.1 1281.06   8
  -7  -1   4 17454.2 1308.96   8
   7  -1  -4 17314.9 1324.85   3
   7   1  -4 16758.3 1348.25   3
  -7  -1   4 16019.2 1242.69   4
   7  -1  -4 17749.0 1224.39   7
   7   1  -4 17991.0 1079.93   7
   7  -1  -3 6219.25 821.052  10
   7   1  -3 6021.31 812.839  10
  -7   1   3 5328.52 632.755   9
  -7  -1   3 6373.17 693.678   9
   7  -1  -3 5168.07 687.218   3
  -7   1   3 6624.22 831.637   8
  -7  -1   3 5612.65 754.056   8
   7  -1  -3 5887.54 729.312   7
   7   1  -3 5743.88 640.747   7
  -7  -1   3 6117.58 777.115   4
  -7   1   2 37149.0 1530.03   9
  -7  -1   2 35953.1 1514.19   9
   7   1  -2 33689.3 1897.86  10
  -7   1   2 33944.1 1901.64   8
  -7  -1   2 31906.8 1853.39   8
  -7  -1   2 35422.5 1933.41   4
   7  -1  -2 35395.7 1802.54   7
   7  -1  -2 35789.2 1927.46  10
  -7  -1   2 36049.2 1099.54   6
  -7   1   1 17.5275 175.294   6
   7  -1  -1-51.7898 261.199  10
   7   1  -1 139.037 234.486  10
  -7  -1   1 91.4625 152.973   6
  -7   1   1-7.85694 129.040   9
  -7  -1   1 120.737 145.962   9
  -7   1   1 466.454 356.680   8
  -7  -1   1 331.039 329.730   8
  -7  -1   1 332.007 312.679   4
  -7   1   0 10533.5 529.035   9
  -7  -1   0 9713.75 515.091   9
  -7   1   0 8552.79 958.225   8
  -7  -1   0 9786.68 1034.94   8
   7  -1   0 10531.9 1010.67  10
   7   1   0 8968.41 974.817  10
  -7  -1   0 12489.0 1157.11   4
  -7   1   0 10645.7 842.220   6
  -7  -1   0 10822.8 779.507   6
  -7  -1  -1 4820.59 592.391   6
   7  -1   1 2948.83 568.423  10
   7   1   1 3160.03 582.535  10
   7   1   1 3967.97 312.445   5
   7   1   1 4140.74 569.534   2
  -7   1  -1 5869.14 807.773   8
  -7  -1  -1 3604.80 646.118   8
  -7   1  -1 4232.06 586.636   6
   7  -1   2 14901.0 1245.60  10
   7   1   2 14667.2 1264.95  10
   7   1   2 12714.6 1056.70   2
  -7   1  -2 13651.6 1230.92   8
  -7  -1  -2 13827.3 1251.06   8
  -7   1  -2 13966.0 1123.03   6
  -7  -1  -2 16004.5 1164.06   6
   7  -1   3 42712.4 2229.20  10
   7   1   3 44040.1 2310.32  10
  -7   1  -3 46551.5 2357.48   8
   7   1   3 44398.3 2157.83   2
  -7  -1  -3 42919.1 2283.10   8
  -7   1  -3 47359.9 2269.38   6
  -7  -1  -3 42491.1 2124.07   6
   7   1   4 4584.66 733.161   2
  -7  -1  -4 5881.43 834.301   6
   7  -1   4 5121.36 803.292  10
   7   1   4 4425.02 776.607  10
  -7   1  -4 4810.32 759.977   8
  -7  -1  -4 6852.07 929.044   8
   7  -1   4 5361.41 806.402   2
  -7   1  -4 5580.86 822.318   6
  -7   1  -5 137.782 264.758   6
  -7  -1  -5 460.021 370.006   6
   7  -1   5 223.588 289.646  10
   7   1   5 672.921 409.210  10
  -7   1  -5 412.442 263.667   8
  -7  -1  -5 1519.45 467.982   8
   7   1   5 650.609 372.674   2
   7  -1   5 664.659 354.241   2
   7  -1   6 14824.4 1454.65  10
   7   1   6 16158.9 1553.13  10
  -7   1  -6 15629.5 1369.86   8
  -7  -1  -6 14645.4 1370.17   8
   7  -1   6 14320.8 1431.50   2
   7   1   6 15791.8 1471.92   2
  -7   1  -6 15292.3 1492.60   6
  -7  -1  -6 15001.3 1479.37   6
   7  -1   7 6205.01 998.815   2
  -7   1  -7 8015.40 1165.51   6
  -7  -1  -7 7066.65 1091.11   6
   7  -1   7 7253.19 1082.22  10
   7   1   7 6324.02 1026.69  10
   7   1   7 6498.69 1018.13   2
  -7   1  -7 5712.31 848.880   8
  -7  -1  -7 7259.80 967.091   8
  -7   1  -8 1477.69 652.417   6
  -7  -1  -8 1555.60 609.625   6
   7  -1   8 1014.70 461.761   2
   7  -1   8 1709.75 601.932  10
   7   1   8 804.235 450.043  10
   7   1   8 1345.37 573.193   2
  -7   1  -9 2217.78 762.431   6
  -7  -1  -9 3375.16 908.555   6
   7  -1   9 2327.56 706.512  10
   7   1   9 2757.41 709.347  10
   7  -1   9 2854.22 790.157   2
   7   1   9 2743.44 770.188   2
  -7   1 -10-219.840 377.854   6
  -7  -1 -10-3.37093 488.616   6
   7  -1  10 27.5218 440.156  10
   7   1  10 399.822 467.431  10
   7  -1  10 1045.43 698.794   2
   7   1  10 190.654 366.223   2
  -7   2  12 4860.17 1077.33   9
  -7  -2  12 5634.75 1126.18   9
   7  -2 -12 2501.71 809.719   3
   7   2 -12 6043.33 1109.03   3
  -7   2  11 1.50699 411.091   9
  -7  -2  11 267.230 466.596   9
   7  -2 -11 29.5810 352.467   3
   7   2 -11 812.429 484.628   3
  -7   2  10 3750.63 900.883   9
  -7  -2  10 5802.55 1039.18   9
   7  -2 -10 5255.77 970.884   3
   7   2 -10 2966.51 788.242   3
   7   2  -9 161.526 282.520   3
  -7   2   9 839.435 500.017   9
  -7  -2   9 60.0794 310.041   9
   7  -2  -9 288.185 285.425   3
   7  -2  -8 1277.10 471.457   3
   7   2  -8 2094.32 606.484   3
  -7   2   8 1944.91 570.411   9
  -7  -2   8 1367.09 567.029   9
  -7   2   8 2501.38 477.607   8
   7  -2  -8 2582.95 551.019   7
  -7  -2   8 1985.08 521.772   4
   7   2  -7 8258.29 1063.50   3
  -7   2   7 7140.38 963.163   9
  -7  -2   7 7698.59 1019.24   9
  -7   2   7 8740.38 894.217   8
  -7  -2   7 7127.87 825.893   8
   7  -2  -7 8488.08 1017.82   3
   7  -2  -7 8229.68 888.536   7
  -7  -2   7 8468.75 929.418   4
   7  -2  -6 671.627 395.021   3
   7   2  -6 357.510 345.039   3
  -7   2   6 359.716 345.824   9
  -7  -2   6 407.227 382.698   9
  -7   2   6 410.115 252.436   8
  -7  -2   6 1342.13 427.846   8
   7  -2  -6 1260.75 413.216   7
  -7  -2   6 715.318 390.242   4
   7  -2  -5 6006.36 804.749   3
   7   2  -5 5023.14 782.371   3
  -7   2   5 5741.62 781.250   9
  -7  -2   5 5702.29 773.367   9
  -7   2   5 6347.82 784.457   8
  -7  -2   5 4933.45 697.485   8
   7   2  -5 6073.63 524.214   7
   7  -2  -5 5243.91 713.496   7
  -7  -2   5 6569.73 819.134   4
   7  -2  -4 4377.82 673.112   3
  -7   2   4 3779.75 623.940   9
   7   2  -4 4231.71 719.314   3
  -7  -2   4 4532.36 649.535   9
   7   2  -4 3712.11 459.491   5
  -7   2   4 2567.35 534.674   8
   7  -2  -4 3544.46 605.664   7
   7   2  -4 3275.08 428.305   7
  -7  -2   4 3024.24 577.747   4
   7   2  -3 6781.45 879.315  10
  -7   2   3 8455.76 808.269   9
   7   2  -3 8320.48 616.280   5
  -7  -2   3 8527.62 811.713   9
  -7   2   3 8554.26 949.152   8
   7  -2  -3 8981.49 916.187   3
   7  -2  -3 8744.90 905.815   7
  -7  -2   3 7186.51 872.139   4
  -7   2   2 30894.7 1443.12   9
   7   2  -2 30936.3 1141.03   5
  -7  -2   2 31658.1 1437.48   9
  -7   2   2 29436.8 1781.33   8
   7  -2  -2 30029.3 1724.30  10
  -7  -2   2 28690.3 1762.54   4
   7  -2  -2 27191.7 1658.74   7
   7   2  -2 27976.5 1727.60  10
  -7  -2   2 28031.0 884.018   6
   7  -2  -1 24215.4 1536.81  10
  -7   2   1 24484.2 1137.99   9
  -7  -2   1 24867.3 1155.00   9
   7   2  -1 26699.2 984.099   5
   7   2  -1 24051.8 1594.27  10
   7   2  -1 22980.5 1152.51   2
  -7   2   1 24043.9 1622.22   8
  -7  -2   1 23644.1 1600.90   4
   7  -2  -1 24903.8 1597.76   7
  -7  -2   1 25725.2 1063.85   6
   7   2   0 16095.9 1303.95  10
  -7  -2   0 16583.4 803.840   9
   7   2   0 17779.9 796.271   5
   7   2   0 17138.2 1051.65   2
  -7   2   0 17373.1 1373.62   8
   7  -2   0 15596.1 1229.05  10
  -7  -2   0 13839.7 1255.96   4
  -7   2   0 16376.4 1141.56   6
  -7  -2   0 17024.4 987.965   6
  -7  -2  -1 4628.75 576.446   6
   7  -2   1 5561.61 732.368  10
   7   2   1 4502.26 726.542  10
   7   2   1 5712.79 481.205   5
   7   2   1 5216.55 609.986   2
  -7   2  -1 4455.96 715.447   8
  -7   2  -1 6456.04 763.835   6
  -7  -2  -1 5232.32 784.245   4
  -7   2  -2 2939.14 563.278   6
  -7  -2  -2 2443.92 475.062   6
   7  -2   2 3071.16 588.353  10
   7   2   2 2751.85 606.274  10
   7   2   2 2255.72 452.072   2
  -7   2  -2 3369.16 681.629   8
   7   2   2 2998.03 397.149   5
  -7  -2  -2 3021.11 648.083   4
  -7   2  -3 175.971 313.693   6
  -7  -2  -3 76.0313 244.991   6
   7  -2   3-188.607 224.231  10
   7   2   3 597.191 326.736  10
  -7   2  -3 51.2016 221.456   8
   7   2   3 118.393 240.070   2
  -7   2  -4 3347.63 664.700   6
  -7  -2  -4 3179.50 660.524   6
   7  -2   4 3004.69 615.491  10
   7   2   4 3948.79 742.293  10
   7   2   4 3241.32 632.415   2
  -7   2  -4 3951.65 712.590   8
  -7  -2  -4 3327.19 654.668   8
  -7   2  -5 3974.20 760.029   6
  -7  -2  -5 4265.32 763.823   6
   7   2   5 4512.82 815.761  10
   7   2   5 4998.24 798.839   2
  -7   2  -5 4558.99 754.661   8
   7  -2   5 4957.80 803.682  10
  -7  -2  -5 4847.61 800.183   8
   7  -2   5 5864.02 899.537   2
   7  -2   6 9966.16 1157.63  10
   7   2   6 11754.6 1356.43  10
  -7  -2  -6 8993.29 1154.13   6
  -7   2  -6 10106.8 1088.94   8
  -7  -2  -6 12180.4 1281.99   8
   7   2   6 10903.1 1247.04   2
  -7   2  -6 11692.2 1327.73   6
   7  -2   6 8144.77 1108.88   2
   7  -2   7 26340.3 2008.40  10
   7   2   7 25806.6 2070.46  10
  -7   2  -7 23160.5 1679.86   8
  -7  -2  -7 27280.0 1910.53   8
   7  -2   7 23538.3 1964.36   2
   7   2   7 24396.2 1966.47   2
  -7   2  -7 28673.2 2200.24   6
  -7  -2  -7 25302.9 2026.66   6
  -7   2  -8 6541.23 1134.40   6
   7  -2   8 5730.36 1012.21   2
  -7  -2  -8 4149.33 861.225   6
   7  -2   8 4810.59 912.174  10
   7   2   8 6881.17 1133.18  10
   7   2   8 4340.35 919.614   2
  -7  -2  -9 11991.3 1546.53   6
   7  -2   9 10866.2 1436.10   2
   7  -2   9 9743.90 1318.11  10
   7   2   9 11617.8 1508.32  10
   7   2   9 10473.7 1445.84   2
  -7   2  -9 11508.0 1579.37   6
  -7  -2 -10 3693.23 952.770   6
   7  -2  10 3003.16 800.124  10
   7   2  10 2902.40 877.964   2
  -7   3  12 10256.3 1590.77   9
  -7  -3  12 6048.45 1203.41   9
   7  -3 -12 7220.28 1209.74   3
   7   3 -12 6651.66 1195.64   3
  -7   3  11-117.826 330.127   9
  -7  -3  11 436.928 404.151   9
   7  -3 -11 493.404 561.085   3
   7   3 -11-44.2474 352.285   3
  -7   3  10 8349.64 1286.08   9
  -7  -3  10 8825.00 1311.28   9
   7  -3 -10 9639.31 1270.11   3
   7   3 -10 8972.73 1246.55   3
   7   3  -9 713.078 479.458   3
  -7   3   9 139.849 435.186   9
  -7  -3   9-259.159 318.846   9
   7  -3  -9 225.164 289.845   7
   7  -3  -9 332.481 316.729   3
  -7  -3   8 10981.4 1301.15   9
  -7   3   8 8892.12 1177.75   9
  -7   3   8 11758.7 1059.82   8
   7  -3  -8 9006.78 1123.99   3
   7   3  -8 12026.7 1328.87   3
   7  -3  -8 9962.30 1071.18   7
  -7  -3   8 12429.0 1146.62   4
   7  -3  -7 278.965 371.855   3
   7   3  -7 180.470 246.855   3
  -7   3   7-40.0821 372.234   9
  -7  -3   7 204.613 258.832   9
  -7   3   7 534.751 263.547   8
  -7  -3   7 828.088 415.203   8
   7  -3  -7 747.440 352.477   7
  -7  -3   7 579.297 369.632   4
  -7  -3   6 3911.98 687.779   4
   7  -3  -6 4646.08 729.468   3
   7   3  -6 4459.60 780.563   3
  -7   3   6 3854.63 706.900   9
  -7  -3   6 3112.01 650.795   9
   7   3  -6 4176.61 636.291   5
  -7   3   6 3696.96 611.079   8
   7  -3  -6 2778.48 558.934   7
  -7  -3   5 672.627 386.389   4
   7  -3  -5 743.257 348.245   3
   7   3  -5 717.011 408.959   3
  -7   3   5 810.013 413.840   9
  -7  -3   5 461.185 238.480   9
   7   3  -5 399.315 256.472   5
  -7   3   5 469.044 295.849   8
   7  -3  -5 350.512 279.347   7
  -7   3   4 92975.7 3286.79   9
   7   3  -4 100903. 3005.63   5
  -7  -3   4 97735.1 3342.83   9
  -7   3   4 92579.4 3373.62   8
   7  -3  -4 93269.6 3275.21   3
   7   3  -4 93954.5 3559.79   3
   7  -3  -4 94046.2 3417.60   7
   7   3  -4 100863. 2630.13   7
  -7  -3   4 93810.7 3474.17   4
  -7  -3   3 2534.77 556.945   4
   7   3  -3 3636.87 663.640  10
  -7   3   3 3119.55 548.224   9
   7  -3  -3 3206.24 546.816   3
  -7  -3   3 2745.38 492.029   9
   7   3  -3 3666.01 486.500   5
  -7   3   3 2515.50 543.998   8
   7  -3  -3 2331.46 524.156   7
   7   3  -2 19040.7 1445.84  10
  -7   3   2 20449.5 1240.84   9
  -7  -3   2 22261.8 1266.34   9
   7   3  -2 23828.7 1145.23   5
  -7   3   2 20172.8 1491.50   8
   7   3  -2 21850.5 902.285   2
   7  -3  -2 23750.2 1519.22  10
   7  -3  -2 22304.0 1551.71   7
  -7  -3   2 20791.0 1540.34   4
   7  -3  -1 6232.77 775.770  10
   7   3  -1 5643.65 781.715  10
  -7   3   1 5466.11 565.863   9
   7   3  -1 5780.31 542.098   5
   7   3  -1 5560.12 516.625   2
  -7   3   1 4973.64 757.840   8
   7  -3  -1 5833.99 820.041   7
  -7  -3   1 6084.33 507.130   6
  -7  -3   1 6693.11 888.855   4
   7   3   0 9258.07 696.981   5
  -7   3   0 8302.29 961.043   8
   7   3   0 7509.73 674.374   2
   7   3   0 9752.21 1027.95  10
  -7  -3   0 9277.22 1058.17   4
   7  -3   0 7497.16 846.745  10
   7  -3   0 6430.72 861.162   7
  -7  -3   0 8113.65 691.838   6
   7  -3   1 9197.83 942.015  10
   7   3   1 9799.48 1055.43  10
   7   3   1 9122.07 716.255   5
  -7   3  -1 7899.90 973.873   8
   7   3   1 9947.54 839.120   2
  -7  -3  -1 9072.45 1030.39   4
  -7   3  -1 9069.48 942.162   6
  -7  -3  -1 8321.63 782.371   6
  -7   3  -2 341.281 378.944   6
   7  -3   2 191.183 282.097  10
   7   3   2-134.588 249.758  10
   7   3   2 479.611 266.403   2
  -7   3  -2 947.407 412.242   8
   7   3   2 684.109 277.238   5
  -7  -3  -2 511.460 256.870   6
  -7  -3  -2 504.822 268.658   4
  -7   3  -3 2665.78 591.489   6
  -7  -3  -3 2403.49 548.627   6
   7  -3   3 2591.63 553.794  10
   7   3   3 3156.67 658.298  10
   7   3   3 2734.46 528.871   2
  -7   3  -3 2380.28 616.520   8
  -7  -3  -3 2849.34 624.725   4
   7  -3   4 47814.4 2387.37  10
  -7   3  -4 46005.8 2413.22   8
   7   3   4 46011.9 2337.81   2
  -7  -3  -4 43885.7 2444.77   4
   7   3   4 46179.1 2521.92  10
  -7   3  -4 49466.2 2597.42   6
  -7  -3  -4 50195.5 2497.77   6
   7   3   5 19223.6 1682.29  10
  -7   3  -5 20312.8 1581.19   8
   7   3   5 19690.7 1585.03   2
  -7   3  -5 24312.3 1866.76   6
   7  -3   5 20469.3 1586.53  10
  -7  -3  -5 20826.8 1675.56   6
  -7   3  -6 6510.05 1042.65   6
   7  -3   6 8066.56 1056.61  10
  -7  -3  -6 7924.74 1106.15   6
   7   3   6 7439.09 1092.84  10
   7   3   6 6225.59 949.054   2
  -7   3  -6 7955.46 1002.17   8
  -7  -3  -6 6676.29 971.200   8
   7  -3   6 6006.39 955.867   2
  -7   3  -7 7910.14 1182.41   6
  -7  -3  -7 8122.04 1196.78   6
   7  -3   7 7066.94 1050.08  10
   7   3   7 7705.89 1165.66  10
   7   3   7 6832.78 1066.93   2
  -7   3  -7 6696.85 937.706   8
  -7  -3  -7 8210.10 1071.83   8
   7  -3   7 7406.63 1125.66   2
   7  -3   8 17826.6 1711.90  10
   7   3   8 20643.7 1958.73  10
   7  -3   8 15815.7 1706.15   2
   7   3   8 15843.2 1672.74   2
  -7   3  -8 16981.9 1820.75   6
  -7  -3  -8 17431.2 1820.38   6
   7  -3   9 2514.95 772.154   2
  -7  -3  -9 440.831 454.312   6
   7  -3   9 1380.82 546.034  10
   7   3   9 1179.53 540.728  10
  -7   3  -9 1327.63 604.735   6
   7   3   9 2117.07 696.477   2
   7  -3  10 1280.58 551.040  10
   7  -4 -12 3231.18 836.816   3
   7   4 -12 2064.21 720.839   3
  -7   4  11 2317.48 767.451   9
  -7  -4  11 1261.56 738.727   9
   7  -4 -11 1017.23 534.602   3
   7   4 -11 1011.73 545.411   3
  -7   4  10 8331.12 1267.69   9
  -7  -4  10 7307.61 1199.08   9
   7  -4 -10 4977.89 895.988   7
   7  -4 -10 6538.53 1005.45   3
   7   4 -10 7214.62 1136.77   3
   7   4  -9 6920.81 1094.50   3
  -7   4   9 5074.10 1007.53   9
  -7  -4   9 5954.37 1064.09   9
   7  -4  -9 4859.27 852.466   7
   7  -4  -9 4222.17 787.644   3
  -7   4   8 43645.6 2690.91   9
  -7  -4   8 42330.5 2637.93   9
  -7   4   8 44156.8 2217.17   8
   7  -4  -8 45763.1 2512.71   3
   7   4  -8 40625.2 2537.39   3
   7  -4  -8 42088.4 2414.71   7
  -7  -4   8 44557.8 2372.89   4
  -7  -4   7 4776.96 797.039   4
   7   4  -7 5479.87 881.402   3
  -7   4   7 4443.88 869.948   9
  -7  -4   7 6665.32 1018.62   9
   7   4  -7 7431.88 940.055   5
  -7   4   7 4934.07 738.607   8
   7  -4  -7 5179.78 829.286   7
   7  -4  -7 4938.65 813.210   3
  -7   4   6 26072.9 1862.17   9
   7   4  -6 25546.5 1658.43   5
  -7  -4   6 26797.8 1855.17   9
  -7   4   6 23509.4 1635.58   8
   7  -4  -6 25893.3 1707.08   3
   7   4  -6 24658.9 1809.31   3
   7  -4  -6 22770.0 1674.58   7
  -7  -4   6 23993.9 1702.38   4
  -7  -4   5 1695.95 527.282   4
   7  -4  -5 1680.35 446.351   3
   7   4  -5 1679.48 513.396   3
  -7   4   5 2682.61 625.526   9
  -7  -4   5 2525.52 560.028   9
   7   4  -5 1847.42 461.410   5
  -7   4   5 1771.32 497.481   8
   7  -4  -5 1683.27 477.457   7
  -7  -4   4 586.651 384.428   4
   7  -4  -4 24.3512 172.506   3
  -7   4   4 376.252 339.390   9
   7   4  -4 178.371 288.181   3
  -7  -4   4 491.521 290.545   9
   7   4  -4 28.9744 182.205   5
  -7   4   4-128.134 244.769   8
   7  -4  -4-22.6006 233.917   7
  -7   4   3 23140.5 1486.74   9
   7   4  -3 25355.7 1395.88   5
  -7   4   3 22695.0 1628.87   8
   7   4  -3 24988.0 1703.04  10
   7  -4  -3 27259.1 1545.17   3
   7  -4  -3 24202.1 1685.75   7
  -7  -4   3 24091.0 1702.86   4
  -7  -4   2 7785.98 981.615   4
   7   4  -2 7483.64 928.369  10
  -7   4   2 8598.53 844.961   9
   7   4  -2 7119.58 712.538   5
  -7   4   2 6785.01 866.412   8
   7  -4  -2 8237.91 814.007   3
   7  -4  -2 8678.33 1010.32   7
  -7  -4   1 971.508 445.948   4
   7  -4  -1 1129.51 367.843  10
   7   4  -1 543.818 310.604  10
  -7  -4   1 639.465 226.665   6
   7   4  -1 1208.60 301.887   5
  -7   4   1 503.631 342.527   8
   7  -4  -1 749.554 391.202   7
   7  -4   0 72115.5 2718.87  10
   7   4   0 69899.7 2381.61   5
  -7   4   0 61582.9 2861.58   8
   7   4   0 67734.5 2894.53  10
   7   4   0 67371.8 2181.98   2
   7  -4   0 62473.8 2896.05   7
  -7  -4   0 64103.9 2943.59   4
  -7  -4   0 71110.9 2354.95   6
   7  -4   1 961.791 353.253  10
   7   4   1 1589.52 495.943  10
  -7  -4  -1 765.182 289.625   6
   7   4   1 742.140 295.403   2
  -7   4  -1 973.632 363.838   8
   7   4   1 775.506 281.529   5
   7  -4   1 751.517 306.372   7
  -7  -4  -1 1421.19 528.532   4
   7  -4   2 26934.9 1643.81  10
   7   4   2 26635.1 1488.02   5
  -7   4  -2 26990.7 1829.42   8
   7   4   2 24934.9 1475.35   2
  -7  -4  -2 24152.8 1774.77   4
   7  -4   2 23663.6 1765.61   7
   7   4   2 26095.8 1797.86  10
  -7   4  -2 24795.9 1735.90   6
  -7  -4  -2 29409.1 1672.16   6
  -7   4  -3 4465.72 769.926   6
  -7  -4  -3 4226.35 716.986   6
   7   4   3 2663.62 582.963  10
   7  -4   3 3833.02 652.316  10
   7   4   3 4272.05 665.190   2
  -7   4  -3 4206.15 735.586   8
   7   4   3 4294.22 632.694   5
  -7  -4  -3 3941.39 735.077   4
  -7   4  -4 4285.07 787.701   6
   7   4   4 6533.42 977.846  10
  -7  -4  -4 5832.50 852.587   6
   7  -4   4 5891.55 813.756  10
   7   4   4 6190.38 850.053   2
  -7   4  -4 4774.94 799.461   8
  -7  -4  -4 4905.06 841.781   4
  -7   4  -5 8349.92 1156.60   6
   7  -4   5 8027.44 975.793  10
  -7  -4  -5 5654.21 907.031   6
   7   4   5 6531.14 996.187  10
  -7   4  -5 5442.97 862.847   8
   7   4   5 6862.21 954.439   2
  -7  -4  -5 6861.42 982.365   4
  -7   4  -6 497.818 392.824   6
   7  -4   6 80.7173 286.626  10
  -7  -4  -6 425.595 482.315   6
  -7   4  -6 752.055 379.871   8
   7   4   6 264.391 356.819  10
   7   4   6 406.191 362.188   2
  -7   4  -7 2681.72 766.559   6
  -7  -4  -7 1432.09 579.388   6
   7  -4   7 2601.02 635.424  10
   7   4   7 2064.62 658.330  10
   7   4   7 2306.48 682.969   2
   7  -4   7 1955.67 661.694   2
  -7  -4  -8 10127.2 1404.41   6
   7  -4   8 6532.65 1035.64  10
   7   4   8 9057.50 1350.01  10
  -7   4  -8 7535.57 1223.50   6
   7   4   8 6133.96 1083.43   2
   7  -4   8 9670.51 1361.05   2
  -7   4  -9 1334.85 475.930   6
   7  -4   9 2957.71 805.659   2
   7  -4   9 1059.25 437.043  10
   7   4   9 2089.42 753.359  10
  -7  -4  -9 2704.02 850.369   6
   7   4   9 1532.12 669.698   2
   7  -4  10 836.256 546.172  10
   7  -5 -12 1315.03 631.054   3
  -7   5  11 4574.15 1052.74   9
  -7  -5  11 4458.66 1043.17   9
   7  -5 -11 5449.83 1022.90   3
   7   5 -11 2865.73 782.904   3
  -7   5  10 9804.72 1447.69   9
  -7  -5  10 11467.9 1532.02   9
   7  -5 -10 8207.59 1158.47   7
   7  -5 -10 8375.28 1178.86   3
   7   5 -10 9893.51 1333.04   3
   7   5  -9 10258.9 1283.65   5
  -7   5   9 14046.3 1636.11   9
  -7  -5   9 17111.6 1783.40   9
   7  -5  -9 15772.9 1500.21   3
   7   5  -9 11395.7 1404.76   3
   7  -5  -9 11918.6 1394.04   7
  -7  -5   8 726.223 367.539   4
   7   5  -8 520.462 392.754   3
  -7   5   8 517.369 336.106   9
  -7  -5   8 1511.41 578.612   9
   7   5  -8 1136.26 455.791   5
  -7   5   8 1047.46 391.216   8
   7  -5  -8 709.053 473.411   7
   7  -5  -8 1481.70 577.524   3
  -7   5   7 14070.5 1484.97   9
   7   5  -7 14470.1 1385.70   5
  -7  -5   7 15064.3 1540.95   9
  -7   5   7 14197.4 1303.65   8
   7  -5  -7 17237.1 1437.44   3
   7   5  -7 13097.1 1391.87   3
   7  -5  -7 13464.9 1375.53   7
  -7  -5   7 14157.2 1362.20   4
  -7  -5   6 6709.18 944.002   4
   7   5  -6 4739.96 828.832   3
  -7   5   6 7292.95 1039.86   9
  -7  -5   6 5842.03 921.318   9
   7   5  -6 6407.30 901.413   5
  -7   5   6 7141.92 933.073   8
   7  -5  -6 7047.47 880.650   3
   7  -5  -6 6821.21 963.904   7
   7  -5  -5 6050.42 775.402   3
  -7  -5   5 5472.77 869.087   4
   7   5  -5 6403.55 916.595   3
  -7   5   5 4970.79 807.883   9
   7   5  -5 4281.24 701.113   5
  -7   5   5 4285.13 768.795   8
   7  -5  -5 5760.07 877.959   7
  -7  -5   4 5721.11 870.666   4
  -7   5   4 5819.29 835.127   9
   7   5  -4 5648.42 893.812   3
   7   5  -4 5889.36 756.733   5
  -7   5   4 6187.29 878.295   8
   7  -5  -4 7253.15 794.127   3
   7  -5  -4 5391.98 859.488   7
  -7  -5   3 1191.32 449.558   4
   7   5  -3 975.143 442.716  10
   7  -5  -3 1340.37 349.904   3
  -7   5   3 1189.37 413.679   9
   7   5  -3 2065.48 453.179   5
  -7   5   3 1551.28 492.099   8
   7  -5  -3 1027.42 398.120   7
   7   5  -2 19757.0 1509.82  10
   7   5  -2 18607.9 1278.65   5
  -7   5   2 15964.9 1422.75   8
   7  -5  -2 18201.0 1167.71   3
   7  -5  -2 17476.5 1501.32   7
  -7  -5   2 17010.9 1488.26   4
   7   5  -1 11658.4 1151.92  10
   7   5  -1 13763.2 1080.59   5
  -7   5   1 13278.4 1287.06   8
   7  -5  -1 11973.8 1036.74  10
   7  -5  -1 15273.6 1057.44   3
   7  -5  -1 13077.7 1306.38   7
  -7  -5   1 11462.6 1225.28   4
  -7  -5   0 1425.19 518.544   4
   7  -5   0 3204.28 539.134  10
   7   5   0 2425.98 539.898  10
  -7  -5   0 2138.46 444.569   6
  -7   5   0 1855.29 552.592   8
   7   5   0 2568.91 516.659   5
   7  -5   0 2458.52 632.198   7
   7  -5   1 27490.0 1588.77  10
   7   5   1 29326.1 1897.90  10
   7   5   1 29940.8 1656.61   5
  -7   5  -1 28306.9 1942.41   8
   7  -5   1 27179.4 1935.91   7
  -7  -5  -1 25430.4 1885.26   4
   7   5   1 24213.8 1358.90   2
  -7  -5  -1 27583.7 1608.33   6
   7  -5   2 670.891 262.985  10
   7   5   2 807.792 383.393  10
  -7  -5  -2 1091.18 420.301   6
  -7   5  -2 986.557 400.654   8
   7   5   2 517.408 331.294   5
   7   5   2 1443.90 403.516   2
   7  -5   2 722.337 429.974   7
  -7  -5  -2 1216.03 466.043   4
   7   5   3 14993.1 1415.42  10
   7   5   3 16578.0 1335.27   5
  -7   5  -3 14959.2 1417.57   8
   7  -5   3 17348.7 1322.95  10
  -7  -5  -3 17014.5 1542.17   4
   7  -5   3 15001.0 1493.21   7
   7   5   3 15243.2 1256.80   2
  -7   5  -3 16540.8 1539.22   6
  -7  -5  -3 18271.7 1484.52   6
   7  -5   4 13968.6 1233.40  10
   7   5   4 13331.9 1400.18  10
   7   5   4 15727.3 1340.29   5
  -7   5  -4 12683.3 1322.74   8
  -7  -5  -4 13943.6 1436.01   4
   7  -5   4 13534.0 1432.51   7
   7   5   4 12289.8 1220.31   2
  -7   5  -4 13593.3 1456.43   6
  -7  -5  -4 13514.4 1352.66   6
  -7   5  -5 4566.46 920.421   6
   7  -5   5 2336.06 592.297  10
   7   5   5 1402.91 548.557  10
  -7   5  -5 2774.87 641.585   8
  -7  -5  -5 2275.56 682.495   6
   7   5   5 1242.67 471.136   2
  -7  -5  -5 3676.44 775.445   4
  -7   5  -6 2179.11 696.530   6
  -7  -5  -6 1702.56 625.431   6
   7  -5   6 915.574 367.079  10
   7   5   6 1361.12 583.411  10
  -7   5  -6 891.996 425.302   8
  -7  -5  -6 1873.33 553.473   4
   7   5   6 1649.91 575.218   2
  -7  -5  -7-360.640 382.839   6
  -7   5  -7 142.331 361.951   6
   7  -5   7-48.6270 277.510  10
   7   5   7-61.2584 261.675  10
   7   5   7 616.161 482.887   2
   7  -5   7 224.946 446.878   2
  -7   5  -8 1012.76 590.064   6
  -7  -5  -8 438.678 442.137   6
   7   5   8-40.0654 339.168  10
   7   5   8-106.516 437.272   2
   7  -5   8-13.4160 301.833   2
  -7  -5  -9 2869.05 871.473   6
   7   5   9 2887.37 801.717   2
   7  -6 -11 654.440 437.672   7
   7   6 -11 1385.58 609.631   3
  -7   6  10 2302.79 836.190   9
  -7  -6  10 914.755 594.946   9
   7  -6 -10 860.881 404.864   7
   7  -6 -10 812.309 506.317   3
   7   6 -10 1001.37 475.172   3
   7   6  -9 3618.55 830.365   3
  -7   6   9 2522.87 808.740   9
  -7  -6   9 2928.33 824.280   9
   7   6  -9 1989.84 581.101   5
   7  -6  -9 1249.72 563.310   7
   7  -6  -9 1634.48 564.848   3
  -7  -6   8-194.898 272.709   4
  -7   6   8-1246.35 523.600   9
  -7  -6   8-84.0240 320.772   9
   7   6  -8-542.533 386.168   5
  -7   6   8 350.249 407.463   8
   7   6  -8 84.0102 358.489   3
   7  -6  -8 37.3570 362.799   7
   7  -6  -8 218.537 277.167   3
  -7  -6   7 2217.16 626.305   4
   7   6  -7 2708.96 714.570   3
  -7   6   7 779.495 465.579   9
  -7  -6   7 1019.16 523.917   9
   7   6  -7 3186.75 727.393   5
  -7   6   7 2075.29 599.603   8
   7  -6  -7 964.356 457.177   7
   7  -6  -7 2008.99 534.197   3
  -7  -6   6-265.609 261.441   4
   7   6  -6 199.303 331.339   3
  -7   6   6-68.1559 284.961   9
   7   6  -6 978.864 437.677   5
  -7   6   6 395.238 322.343   8
   7  -6  -6 172.190 262.121   7
  -7  -6   5 8451.08 1099.81   4
  -7   6   5 10496.3 1210.32   9
   7   6  -5 11118.7 1166.43   5
  -7   6   5 10604.3 1197.75   8
   7   6  -5 10345.8 1178.81   3
   7  -6  -5 11917.5 1319.45   7
  -7   6   4 3529.56 693.863   9
   7   6  -4 1896.65 527.079   3
   7   6  -4 2736.88 598.835   5
  -7   6   4 1809.37 560.761   8
  -7  -6   4 3448.98 740.059   4
   7  -6  -4 1880.49 586.623   7
   7   6  -3 14129.9 1238.74   5
  -7   6   3 15941.5 1473.98   8
   7  -6  -3 16388.7 1515.61   7
  -7  -6   3 15138.8 1469.23   4
  -7  -6   2 500.885 391.409   4
   7   6  -2 1029.60 365.952   5
  -7   6   2-69.9087 308.397   8
   7   6  -2 864.087 404.259  10
   7  -6  -2 256.011 371.114   7
  -7  -6   1 4659.33 860.947   4
   7   6  -1 4100.13 697.917  10
  -7   6   1 3778.84 753.379   8
   7   6  -1 2933.43 550.826   5
   7  -6  -1 5215.30 892.070   7
  -7  -6   0 373.008 399.830   4
   7   6   0 262.968 332.666  10
  -7  -6   0 80.3570 221.114   6
  -7   6   0-66.2850 224.296   8
   7   6   0 418.595 322.321   5
   7  -6   0 203.135 278.439   7
   7   6   1 10418.8 1136.01  10
   7   6   1 10225.5 1053.82   5
  -7   6  -1 8825.42 1146.17   8
   7  -6   1 10780.8 1244.59   7
  -7  -6  -1 11339.3 1292.15   4
  -7  -6  -1 10736.3 1031.12   6
  -7  -6  -2 7353.13 1061.56   4
   7   6   2 7775.90 1014.79  10
  -7  -6  -2 5548.45 804.897   6
  -7   6  -2 6949.56 1037.43   8
   7   6   2 6183.99 849.436   5
   7  -6   2 7673.17 1102.50   7
  -7  -6  -3 5610.48 878.502   6
  -7   6  -3 4649.11 845.783   8
   7   6   3 4929.72 786.055   5
   7  -6   3 6541.64 1035.58   7
   7   6   3 3865.72 763.468  10
  -7  -6  -3 4729.27 897.108   4
   7   6   4 11861.3 1322.34  10
   7   6   4 12433.0 1287.22   5
  -7   6  -4 13548.7 1430.68   8
   7  -6   4 10590.2 1338.95   7
  -7  -6  -4 14969.1 1527.50   4
   7   6   4 11590.2 1204.06   2
  -7   6  -4 12252.4 1449.50   6
  -7  -6  -4 11688.8 1319.70   6
   7   6   5 2315.49 611.067   2
  -7   6  -5 2271.73 663.003   6
   7   6   5 2417.53 629.460  10
  -7  -6  -5 2844.84 736.206   6
  -7   6  -5 2074.95 595.578   8
   7   6   5 1942.16 575.422   5
   7  -6   5 3263.26 814.644   7
  -7  -6  -5 2078.39 651.767   4
  -7   6  -6 1759.33 759.000   6
   7   6   6 3381.13 744.441   2
  -7  -6  -6 3939.18 877.373   6
   7   6   6 3903.97 863.861  10
  -7   6  -6 3028.10 691.660   8
   7   6   6 3504.81 809.812   5
   7  -6   6 4349.66 904.541   7
  -7  -6  -6 4364.01 864.729   4
   7   6   7 14678.3 1652.86  10
   7  -6   7 16879.6 1798.68   2
   7  -6   7 13476.2 1608.31   7
  -7   6  -7 14799.2 1800.96   6
  -7  -6  -7 16098.1 1787.23   6
  -7   6  -8 530.306 496.434   6
  -7  -6  -8 677.435 460.866   6
   7   6   8 767.026 556.281  10
   7  -6   8 528.144 638.517   7
   7  -6   8 1551.22 771.226   2
   7  -6   9 7415.80 1232.52   7
   7   7 -11 253.170 367.004   3
   7   7 -10 629.595 432.506   5
   7  -7 -10-354.331 403.261   7
   7   7 -10 39.0005 305.730   3
  -7  -7   9 6932.43 1097.42   4
  -7   7   9 4887.31 1045.58   9
  -7  -7   9 7275.31 1280.70   9
   7   7  -9 5704.79 1107.49   5
   7  -7  -9 6867.59 1191.89   7
   7   7  -9 7159.73 1122.35   3
   7   7  -8 29.3165 390.001   3
  -7  -7   8 1391.07 541.985   4
  -7   7   8 548.521 501.214   9
  -7  -7   8 227.676 469.821   9
   7   7  -8 256.530 351.273   5
  -7   7   8 1043.00 500.448   8
   7  -7  -8 379.262 430.921   7
  -7  -7   7 379.418 340.882   4
   7   7  -7-274.748 358.041   3
  -7   7   7 310.819 527.187   9
  -7  -7   7-289.153 438.478   9
   7   7  -7 252.214 418.095   5
  -7   7   7 290.657 310.760   8
   7  -7  -7 407.437 354.082   7
  -7  -7   6 6679.10 1009.75   4
   7   7  -6 6034.05 943.787   3
  -7   7   6 7279.86 1113.57   9
   7   7  -6 6321.59 987.974   5
  -7   7   6 5078.85 887.592   8
   7  -7  -6 6412.08 1037.58   7
  -7  -7   5 5946.80 1028.06   4
  -7   7   5 5699.36 936.676   9
   7   7  -5 8064.14 1061.49   3
   7   7  -5 7865.21 1061.24   5
  -7   7   5 6014.66 993.274   8
   7  -7  -5 5269.15 930.161   7
   7   7  -4 8340.49 1081.94   5
  -7   7   4 7441.72 1067.10   8
   7   7  -4 8664.29 1071.45   3
   7  -7  -4 10362.9 1272.54   7
  -7  -7   4 10022.6 1262.36   4
  -7  -7   3 4979.39 898.545   4
   7   7  -3 7605.50 983.552   5
   7   7  -3 5941.21 893.813   3
  -7   7   3 5374.58 922.451   8
   7  -7  -3 5057.23 934.989   7
  -7  -7   2 10156.0 1275.96   4
   7   7  -2 9458.46 1088.97   5
  -7   7   2 12066.6 1339.08   8
   7   7  -2 13548.4 1289.50  10
   7  -7  -2 7577.12 1103.89   7
  -7  -7   1 8311.83 1167.00   4
   7   7  -1 10468.9 1124.13   5
  -7   7   1 8751.37 1169.52   8
   7   7  -1 7696.88 981.055  10
   7  -7  -1 6034.84 984.837   7
   7   7   0 6634.71 916.058  10
   7   7   0 9414.34 1071.81   5
  -7   7   0 5990.57 1008.26   8
   7  -7   0 6779.15 1056.22   7
  -7  -7   0 7507.84 1101.62   4
  -7  -7  -1-145.958 339.971   4
   7   7   1 157.179 340.023  10
  -7  -7  -1-36.8969 267.045   6
  -7   7  -1 193.235 515.556   8
   7   7   1 464.778 455.910   5
   7  -7   1 605.916 440.075   7
  -7  -7  -2 958.730 515.999   4
   7   7   2 565.572 420.781  10
  -7  -7  -2 348.565 304.467   6
  -7   7  -2 50.9283 282.307   8
   7   7   2 215.075 366.087   5
   7  -7   2 140.594 330.940   7
  -7  -7  -3 2361.90 659.115   4
   7   7   3 1685.85 578.871  10
  -7  -7  -3 2081.28 557.770   6
  -7   7  -3 2159.44 703.700   8
   7   7   3 2207.84 619.620   5
   7  -7   3 1695.96 626.939   7
  -7  -7  -4 882.561 473.797   6
  -7   7  -4-38.8076 273.430   8
   7   7   4-275.656 417.051  10
   7   7   4 524.683 423.031   5
   7  -7   4 277.018 338.097   7
  -7  -7  -4 239.793 498.228   4
   7   7   5 16150.9 1639.98  10
   7   7   5 15542.5 1595.29   5
  -7   7  -5 18030.6 1720.94   8
   7  -7   5 15586.5 1667.22   7
  -7  -7  -5 14888.1 1566.52   4
  -7  -7  -5 16954.0 1736.10   6
   7   7   6 14608.3 1603.27  10
   7   7   6 15820.6 1659.86   5
  -7   7  -6 15206.9 1573.00   8
  -7  -7  -6 14318.9 1572.08   4
   7  -7   6 17009.1 1794.31   7
  -7  -7  -6 15688.0 1732.46   6
   7   7   7 1695.22 680.685  10
  -7  -7  -7 856.823 465.789   6
   7   7   7 2217.48 703.940   5
   7  -7   7 2941.90 887.235   7
  -7   7  -7 2666.54 788.486   6
   7   7   8 2500.95 793.394  10
   7   7   8 4730.94 1035.80   5
   7  -7   8 2800.57 811.587   7
  -7  -8   9 3534.97 833.418   4
   7   8  -9 5248.48 1067.98   5
   7  -8  -9 4429.60 979.220   7
  -7  -8   8 1989.02 640.817   4
  -7   8   8 1194.32 546.764   9
  -7  -8   8 1129.05 651.230   9
   7   8  -8 1804.24 636.999   5
   7  -8  -8 2660.59 755.822   7
  -7  -8   7 2378.67 657.334   4
   7   8  -7 1359.51 506.483   3
  -7   8   7 2986.57 832.253   9
   7   8  -7 2009.93 693.808   5
  -7   8   7 2004.66 634.308   8
   7  -8  -7 1920.96 723.294   7
  -7  -8   6 2027.88 736.401   4
   7   8  -6 1398.73 516.063   3
   7   8  -6 1713.82 643.753   5
  -7   8   6 852.370 509.221   8
   7  -8  -6 996.829 548.827   7
   7   8  -5 13357.4 1462.87   5
  -7   8   5 13012.3 1497.73   8
   7   8  -5 12027.8 1325.52   3
   7  -8  -5 12758.6 1535.30   7
  -7  -8   5 12440.7 1487.64   4
  -7  -8   4 2638.12 756.624   4
   7   8  -4 4421.33 766.018   3
   7   8  -4 3502.14 739.120   5
  -7   8   4 5265.66 1009.23   8
   7  -8  -4 3941.49 863.248   7
   7   8  -3 21163.1 1750.29   5
  -7   8   3 18996.6 1808.75   8
   7   8  -3 18883.7 1604.85   3
   7  -8  -3 19349.4 1821.95   7
  -7  -8   3 20605.0 1901.38   4
   7   8  -2 12713.6 1345.50   5
  -7   8   2 14450.0 1557.09   8
   7  -8  -2 14831.8 1604.04   7
  -7  -8   2 15068.2 1618.41   4
   7   8  -1 8628.24 1058.43  10
  -7  -8   1 7365.16 1180.56   4
  -7   8   1 8198.56 1210.32   8
   7   8  -1 8523.11 1109.33   5
   7  -8  -1 8847.29 1287.53   7
  -7  -8   0-151.518 406.955   4
   7   8   0 435.270 305.154  10
  -7   8   0 725.106 409.866   8
   7   8   0 605.681 366.665   5
   7  -8   0 1064.21 509.177   7
  -7  -8  -1 671.730 415.258   4
   7   8   1 1967.34 532.131  10
  -7   8  -1 1498.99 546.483   8
   7   8   1 2326.67 689.591   5
   7  -8   1 2200.73 704.181   7
   7   8   2 18943.9 1706.21   5
  -7   8  -2 15092.2 1648.16   8
   7  -8   2 16220.6 1695.69   7
  -7  -8  -2 14785.3 1632.68   4
   7   8   2 14181.2 1416.63  10
  -7  -8  -2 16000.2 1505.24   6
  -7  -8  -3 5169.60 976.201   4
   7   8   3 5242.31 902.964  10
  -7  -8  -3 6516.96 1033.86   6
  -7   8  -3 5856.99 1032.57   8
   7   8   3 5753.87 954.310   5
   7  -8   3 6780.31 1116.50   7
  -7  -8  -4 6442.17 1098.60   4
   7   8   4 5255.59 938.243  10
  -7  -8  -4 3591.60 805.186   6
  -7   8  -4 3999.75 877.272   8
   7   8   4 5897.77 1034.07   5
   7  -8   4 4437.37 951.837   7
   7   8   5 6846.61 1087.69  10
  -7  -8  -5 7471.70 1197.22   6
  -7   8  -5 7648.94 1185.42   8
   7   8   5 8507.89 1264.03   5
   7  -8   5 8046.86 1288.13   7
  -7  -8  -5 8924.11 1285.42   4
   7   8   6 1234.27 530.300  10
  -7  -8  -6 1539.49 612.349   6
  -7   8  -6 1143.05 557.436   8
   7   8   6 2588.11 723.781   5
   7  -8   6 1680.86 649.129   7
   7   8   7 5038.07 1000.93  10
   7   8   7 6885.15 1208.08   5
   7  -8   7 5536.56 1112.03   7
  -7  -9   8 1942.45 731.871   4
   7   9  -8 1767.79 713.490   5
   7   9  -7 21238.6 2080.14   5
   7  -9  -7 19169.9 2049.35   7
  -7  -9   7 19676.2 1972.45   4
  -7  -9   6 3756.03 913.938   4
   7   9  -6 5352.25 1033.07   5
  -7   9   6 5422.66 1002.52   8
   7  -9  -6 5464.40 1085.10   7
  -7  -9   5 2532.30 752.126   4
   7   9  -5 3447.77 805.314   5
  -7   9   5 2810.78 784.965   8
   7  -9  -5 1880.03 703.185   7
  -7  -9   4 636.328 511.719   4
   7   9  -4 1146.44 494.167   5
  -7   9   4 1687.45 636.387   8
   7  -9  -4 2060.32 743.404   7
  -7  -9   3 2253.27 804.574   4
  -7   9   3 1988.11 659.674   8
   7   9  -3 2658.34 706.069   5
   7  -9  -3 1423.00 537.602   7
  -7  -9   2 1628.46 684.002   4
  -7   9   2 2389.30 759.906   8
   7   9  -2 1634.03 555.471   5
   7  -9  -2 2333.66 740.495   7
   7   9  -1 23361.3 1960.96   5
  -7   9   1 25506.1 2199.74   8
   7  -9  -1 24668.9 2160.04   7
  -7  -9   1 24219.9 2166.54   4
  -7  -9   0-257.969 366.083   4
  -7   9   0 165.214 440.994   8
   7   9   0-409.518 387.877   5
   7  -9   0 660.747 544.763   7
   7   9   1 25751.7 2081.78   5
  -7   9  -1 24863.5 2198.54   8
   7  -9   1 26614.4 2263.88   7
  -7  -9  -1 23515.8 2150.63   4
  -7  -9  -2 4252.74 920.135   4
  -7   9  -2 2276.92 725.158   8
   7   9   2 3529.87 814.844   5
   7  -9   2 5579.33 1089.97   7
  -7  -9  -3 7893.33 1274.54   4
  -7  -9  -3 5281.73 993.928   6
  -7   9  -3 7158.73 1183.98   8
   7   9   3 7839.23 1214.80   5
   7  -9   3 7031.38 1178.71   7
  -7  -9  -4 704.901 540.771   4
  -7  -9  -4 1363.94 550.987   6
  -7   9  -4 1206.59 553.152   8
   7   9   4 617.640 452.005   5
   7  -9   4 1485.42 627.635   7
  -7  -9  -5 1684.19 638.262   6
  -7   9  -5 1126.32 564.640   8
   7   9   5 1033.38 566.617   5
   7  -9   5 1410.88 610.278   7
  -7  -9  -5 1910.24 714.688   4
  -7   9  -6 227.105 368.979   8
   7   9   6 1023.46 561.733   5
   7  -9   6 179.536 392.949   7
   7  10  -6 333.463 373.062   5
  -7 -10   5 3746.68 959.511   4
   7  10  -5 7162.12 1246.93   5
  -7 -10   4 454.697 494.584   4
   7 -10  -4-73.4508 351.326   4
  -7  10   4 207.205 459.025   8
   7  10  -4 230.696 380.772   5
   7 -10  -4 529.069 468.634   7
  -7 -10   3 1248.96 652.318   4
  -7  10   3 2030.15 799.919   8
   7  10  -3 1806.39 635.562   5
   7 -10  -3 2665.39 813.811   7
  -7 -10   2 577.397 581.496   4
  -7  10   2 249.985 486.948   8
   7  10  -2 78.2950 365.952   5
   7 -10  -2 593.024 421.742   7
  -7 -10   1 2163.13 829.582   4
  -7  10   1 600.128 497.867   8
   7  10  -1 658.109 457.267   5
   7 -10  -1 1615.10 673.235   7
  -7 -10   0 1005.80 579.925   4
  -7  10   0 675.680 565.838   8
   7  10   0-335.279 520.250   5
   7 -10   0 94.4511 422.484   7
  -7  10  -1 2393.37 764.692   8
   7  10   1 2773.37 829.466   5
   7 -10   1 1735.29 649.395   7
  -7 -10  -1 2005.01 749.314   4
  -7 -10  -2 4115.21 978.315   4
  -7  10  -2 3223.84 879.363   8
   7  10   2 4351.58 1036.51   5
   7 -10   2 5153.00 1066.80   7
  -7 -10  -3 337.550 416.026   4
  -7  10  -3 582.235 479.330   8
   7 -10   3 397.037 401.640   7
  -7 -10  -4 4343.27 1032.74   4
   7  10   4 2239.22 751.760   5
   7 -10   4 2354.98 787.225   7
   7 -11  -4 220.791 367.449   4
   7 -11  -3-8.98455 483.256   4
   7  11  -2 5713.78 1094.09   5
   7  11  -1 1612.49 672.440   5
   7  11   0-919.012 547.217   5
  -8   0  12 7118.27 1308.53   9
   8   0 -12 7268.01 1242.41   3
  -8   0  11 333.369 453.971   9
   8   0 -11 592.512 543.587   3
  -8   0  10 4681.11 1007.30   9
   8   0 -10 2224.26 704.716   3
   8   0  -9 1213.09 557.505   3
  -8   0   9 785.764 483.469   9
   8   0  -8 3593.61 780.075   3
  -8   0   8 4162.09 831.151   9
  -8   0   8 4986.21 709.482   8
   8   0  -7 357.971 346.380   3
  -8   0   7-111.628 304.364   9
  -8   0   7 382.824 255.067   8
   8   0  -6 789.750 434.706   3
  -8   0   6 775.584 406.179   9
  -8   0   6 775.377 393.890   8
   8   0  -6 837.543 315.358   7
   8   0  -5 717.525 392.488   3
  -8   0   5 187.220 325.288   9
  -8   0   5-21.7364 207.654   8
   8   0  -5 202.489 206.730   7
  -8   0   4 44333.3 2076.77   9
  -8   0   4 46396.2 2378.43   8
   8   0  -4 44576.1 2353.51   3
   8   0  -4 46953.0 2093.91   7
   8   0  -3-53.0349 277.867  10
  -8   0   3 55.5057 208.837   9
  -8   0   3 35.1688 239.037   8
   8   0  -3 250.927 261.196   7
   8   0  -2 663.232 307.843  10
  -8   0   2 415.826 216.715   9
  -8   0   2 893.578 396.819   8
  -8   0   1-22.3373 141.389   6
   8   0  -1-28.2000 261.192  10
  -8   0   1 413.026 412.536   8
   8   0   0 108599. 3882.29  10
  -8   0   0 104846. 3931.64   8
  -8   0   0 112835. 3237.85   6
  -8   0  -1 434.997 288.526   6
   8   0   1 503.631 314.031  10
  -8   0  -1 371.656 351.342   8
  -8   0  -2 318.485 263.668   6
   8   0   2 602.922 416.112  10
  -8   0  -2 49.9856 307.358   8
  -8   0  -3 54.2787 238.246   6
   8   0   3 494.795 339.854  10
  -8   0  -3-59.1032 323.654   8
   8   0   3 674.321 396.856   2
  -8   0  -4 290.225 266.616   6
   8   0   4 249.728 294.992  10
  -8   0  -4 17.3432 257.154   8
   8   0   4 1003.34 397.296   2
   8   0   5 179.342 306.449   2
  -8   0  -5 258.493 309.281   6
   8   0   5 1018.68 460.353  10
  -8   0  -5 124.612 248.347   8
   8   0   6 20590.9 1799.66  10
  -8   0  -6 18859.5 1619.97   8
   8   0   6 15912.2 1580.84   2
  -8   0  -6 17033.4 1650.51   6
  -8   0  -7 150.257 320.129   6
   8   0   7 163.236 386.810   2
   8   0   7 157.206 373.974  10
  -8   0  -7 158.752 383.392   8
   8   0   8 45008.8 2946.99  10
   8   0   8 40737.9 2785.52   2
  -8   0  -8 43160.2 2956.91   6
  -8   0  -9-261.387 574.934   6
   8   0   9 208.910 331.981  10
   8   0   9 302.428 348.434   2
  -8   1  12 2430.88 768.431   9
  -8  -1  12 1500.43 726.147   9
   8  -1 -12 1549.15 658.558   3
   8   1 -12 1094.51 676.143   3
  -8   1  11 17872.1 1912.42   9
  -8  -1  11 19578.4 2020.94   9
   8  -1 -11 16272.9 1794.01   3
   8   1 -11 17859.9 1890.44   3
   8   1 -10 186.673 467.406   3
  -8   1  10 366.782 459.252   9
  -8  -1  10-633.889 452.306   9
   8  -1 -10 41.2843 369.630   3
   8  -1  -9 1934.32 619.907   3
   8   1  -9 2454.63 675.160   3
  -8   1   9 2471.45 694.855   9
  -8  -1   9 2210.81 670.268   9
   8  -1  -8 3223.76 751.287   3
   8   1  -8 2504.15 680.176   3
  -8   1   8 3083.30 746.553   9
  -8  -1   8 2599.96 701.523   9
  -8   1   8 2398.92 507.055   8
   8  -1  -7 2718.66 668.922   3
   8   1  -7 1858.66 564.088   3
  -8   1   7 3884.77 747.738   9
  -8  -1   7 2624.83 624.222   9
  -8   1   7 3389.52 622.470   8
  -8  -1   7 2466.26 545.547   8
   8  -1  -7 3326.32 575.565   7
   8  -1  -6 455.552 261.116   3
   8   1  -6 684.959 393.703   3
  -8   1   6 923.157 432.037   9
  -8  -1   6 276.017 368.487   9
  -8   1   6 211.467 253.163   8
  -8  -1   6-21.0088 253.839   8
   8  -1  -6 789.752 351.150   7
   8  -1  -5 7342.85 937.035   3
   8   1  -5 6093.42 913.685   3
  -8   1   5 6908.51 844.709   9
  -8  -1   5 4838.62 721.476   9
  -8   1   5 5980.99 826.930   8
  -8  -1   5 7174.37 913.157   8
  -8  -1   5 7803.17 924.480   4
   8  -1  -5 7730.49 847.924   7
   8   1  -5 7344.62 728.145   7
  -8   1   4 10094.2 959.546   9
  -8  -1   4 11941.1 1028.54   9
  -8   1   4 12105.9 1183.35   8
  -8  -1   4 12073.8 1178.68   8
   8  -1  -4 9764.56 1081.15   3
   8   1  -4 12114.0 1219.81   3
  -8  -1   4 10755.9 1106.16   4
   8  -1  -4 10585.5 1013.35   7
   8   1  -4 10727.6 909.710   7
   8  -1  -3 50302.4 2509.62  10
   8   1  -3 42591.8 2364.82  10
  -8   1   3 46774.1 1989.49   9
  -8  -1   3 46960.3 1981.41   9
  -8   1   3 49020.2 2469.22   8
  -8  -1   3 48982.2 2463.29   8
  -8  -1   3 51584.8 2504.74   4
   8  -1  -3 47418.4 2240.37   7
   8   1  -3 49651.2 2119.17   7
   8  -1  -2 4254.52 729.500  10
   8   1  -2 4454.87 756.949  10
  -8   1   2 4494.11 534.262   9
  -8  -1   2 4247.15 507.377   9
  -8   1   2 4879.89 782.655   8
  -8  -1   2 4590.17 765.446   8
   8  -1  -2 4553.49 701.838   7
   8  -1  -1 7515.73 923.675  10
   8   1  -1 8129.90 963.433  10
  -8   1   1 7564.56 964.784   8
  -8  -1   1 6712.38 924.826   8
  -8   1   1 9771.05 807.803   6
  -8  -1   1 7916.89 625.057   6
  -8   1   0 188.431 151.052   6
   8  -1   0 110.328 310.292  10
   8   1   0-184.578 230.206  10
  -8  -1   0 251.559 234.959   6
  -8   1   0-75.7645 245.192   8
  -8  -1   0 224.329 313.990   8
  -8   1  -1 232.691 252.040   6
  -8  -1  -1 159.608 274.209   6
   8  -1   1-5.23371 241.948  10
   8   1   1 245.196 364.606  10
  -8   1  -1 1147.13 450.025   8
  -8  -1  -1-256.768 324.275   8
   8   1   1 502.025 269.910   2
  -8   1  -2 4696.94 714.886   6
  -8  -1  -2 4318.86 665.536   6
   8  -1   2 4241.29 732.617  10
   8   1   2 5231.45 840.142  10
  -8   1  -2 3279.38 697.788   8
  -8  -1  -2 4185.33 759.981   8
   8   1   2 3580.30 623.736   2
   8   1   3-16.7466 270.850   2
  -8   1  -3 532.092 354.322   6
  -8  -1  -3 585.602 365.628   6
   8  -1   3-83.9352 250.342  10
   8   1   3 759.867 427.645  10
  -8   1  -3-44.5189 271.773   8
  -8  -1  -3 398.264 412.722   8
   8  -1   4 37752.3 2304.87  10
   8   1   4 36137.9 2290.69  10
   8  -1   4 37349.7 2257.09   2
  -8   1  -4 37632.0 2288.63   8
  -8  -1  -4 40934.3 2408.77   8
   8   1   4 37296.5 2182.61   2
  -8   1  -4 35643.3 2184.83   6
  -8  -1  -4 40713.0 2286.59   6
   8  -1   5 22681.1 1819.18  10
   8   1   5 20623.3 1789.38  10
   8  -1   5 20888.7 1742.88   2
  -8   1  -5 23961.1 1820.32   8
  -8  -1  -5 23626.3 1859.72   8
   8   1   5 20758.2 1703.19   2
  -8   1  -5 25889.8 1934.87   6
  -8  -1  -5 24065.4 1842.23   6
   8  -1   6 6632.45 1045.84   2
  -8   1  -6 7871.59 1126.66   6
  -8  -1  -6 5495.03 936.109   6
   8  -1   6 6995.37 1067.23  10
   8   1   6 6444.73 1074.91  10
   8   1   6 5949.73 1016.47   2
  -8   1  -6 6070.08 899.867   8
  -8  -1  -6 9201.16 1153.23   8
  -8   1  -7-243.633 376.615   6
   8  -1   7 109.204 408.690   2
  -8  -1  -7 526.344 477.917   6
   8  -1   7 570.633 503.677  10
   8   1   7 465.238 437.860  10
   8   1   7 578.020 431.953   2
  -8   1  -7 318.037 287.319   8
  -8  -1  -7 455.777 476.973   8
  -8   1  -8 2230.43 697.037   6
  -8  -1  -8 2496.54 754.605   6
   8  -1   8 2034.20 641.710  10
   8   1   8 3000.25 822.255  10
   8   1   8 2442.52 731.442   2
   8  -1   8 1527.06 586.833   2
  -8   1  -9 3904.13 917.906   6
  -8  -1  -9 2809.79 815.536   6
   8  -1   9 5935.17 1125.68  10
   8   1   9 3096.67 863.086  10
   8  -1   9 4218.27 1006.35   2
   8   1   9 5748.86 1070.14   2
  -8   2  12 1158.02 688.654   9
  -8  -2  12 1012.77 609.841   9
   8  -2 -12-283.365 341.611   3
   8   2 -12 1176.58 640.837   3
  -8   2  11 5156.90 1035.64   9
  -8  -2  11 5437.05 1116.96   9
   8  -2 -11 3533.84 842.644   3
   8   2 -11 4208.02 990.096   3
   8   2 -10 93.3529 330.910   3
  -8   2  10 586.349 505.527   9
  -8  -2  10-4.27336 416.760   9
   8  -2 -10 517.422 494.130   3
  -8   2   9 19118.4 1811.92   9
  -8  -2   9 17437.7 1756.90   9
   8  -2  -9 17515.8 1680.62   3
   8   2  -9 19477.6 1827.18   3
   8  -2  -8 4195.73 820.146   3
   8   2  -8 3084.83 760.448   3
  -8   2   8 4279.34 830.818   9
  -8  -2   8 3256.36 737.751   9
  -8   2   8 3561.71 577.987   8
   8  -2  -8 4424.99 708.285   7
  -8  -2   8 3542.70 664.008   4
  -8   2   7 68906.8 3223.79   9
  -8  -2   7 64116.5 3122.57   9
  -8   2   7 66615.1 2829.30   8
  -8  -2   7 74308.5 3034.16   8
   8  -2  -7 65898.7 3141.84   3
   8   2  -7 70196.7 3310.39   3
   8  -2  -7 67222.9 2809.49   7
  -8  -2   7 72288.9 3013.26   4
  -8   2   6 12651.2 1266.08   9
  -8  -2   6 12829.7 1248.40   9
  -8   2   6 12944.3 1183.24   8
  -8  -2   6 13947.1 1281.30   8
   8  -2  -6 10786.6 1168.36   3
   8   2  -6 12609.1 1328.25   3
   8  -2  -6 12849.1 1148.08   7
  -8  -2   6 13541.2 1255.81   4
  -8   2   5 15533.2 1298.40   9
  -8  -2   5 17015.1 1353.79   9
  -8   2   5 14153.3 1277.06   8
  -8  -2   5 10754.2 1141.51   8
   8  -2  -5 12731.7 1219.91   3
   8   2  -5 10939.7 1201.61   3
   8  -2  -5 14142.7 1217.05   7
  -8  -2   5 14222.5 1301.22   4
   8  -2  -4 20.9555 260.545   3
  -8   2   4 635.652 347.019   9
   8   2  -4-135.132 250.694   3
  -8  -2   4 206.752 297.211   9
  -8   2   4 448.367 287.902   8
  -8  -2   4 188.101 314.361   8
   8  -2  -4 341.537 338.185   7
   8   2  -4 175.020 150.218   7
  -8  -2   4-25.7662 263.900   4
   8  -2  -3 654.011 363.723  10
   8   2  -3 496.202 278.942  10
  -8   2   3 419.323 249.772   9
   8  -2  -3 772.208 328.966   3
  -8  -2   3 839.184 281.950   9
  -8   2   3 937.185 405.980   8
  -8  -2   3 1007.70 396.381   8
   8  -2  -3 740.350 342.216   7
  -8  -2   3 90.1705 285.081   4
   8  -2  -2 5382.90 799.922  10
   8   2  -2 6244.42 887.767  10
  -8   2   2 5142.02 582.554   9
  -8  -2   2 5455.54 605.825   9
  -8   2   2 5053.33 809.531   8
  -8  -2   2 4894.23 798.412   8
   8  -2  -2 4012.25 677.247   7
  -8  -2   2 4577.66 769.507   4
   8   2  -1 24011.3 1718.70  10
   8  -2  -1 25693.5 1715.29  10
  -8   2   1 26977.8 1213.10   9
  -8  -2   1 26503.1 1209.75   9
   8   2  -1 24165.3 1287.37   2
  -8   2   1 24428.1 1766.25   8
  -8  -2   1 27386.9 1856.48   8
  -8  -2   1 27643.0 1861.83   4
   8  -2  -1 27279.0 1779.91   7
  -8   2   0 2359.71 488.429   6
  -8  -2   0 2356.93 386.675   6
   8  -2   0 1516.83 464.159  10
   8   2   0 1916.68 508.598  10
  -8   2   0 1868.62 527.411   8
  -8  -2   0 2687.94 688.312   8
  -8  -2   0 2189.32 597.811   4
   8   2   0 1426.72 336.690   2
   8  -2   1 47660.0 2415.75  10
   8   2   1 46318.6 2490.64  10
  -8   2  -1 46547.4 2526.38   8
   8   2   1 48457.4 2138.27   2
  -8  -2  -1 44978.8 2502.59   8
  -8  -2  -1 44790.3 2502.76   4
  -8   2  -1 51582.1 2338.03   6
  -8  -2  -1 50991.3 2095.03   6
  -8   2  -2 5109.45 765.258   6
   8   2   2 4203.63 644.531   2
  -8  -2  -2 4509.92 657.722   6
   8  -2   2 4383.51 748.679  10
   8   2   2 4382.03 795.839  10
  -8   2  -2 3968.70 758.479   8
  -8  -2  -2 4041.75 785.136   8
   8  -2   3 17934.4 1499.19  10
   8   2   3 17137.6 1524.75  10
  -8   2  -3 15345.0 1442.22   8
  -8  -2  -3 16885.1 1543.78   8
   8   2   3 16550.9 1347.43   2
  -8   2  -3 17201.5 1451.58   6
  -8  -2  -3 17894.6 1386.59   6
  -8   2  -4 1108.34 485.546   6
  -8  -2  -4 754.632 391.531   6
   8  -2   4 1695.64 525.391  10
   8   2   4 1378.71 483.548   2
  -8   2  -4 92.0548 241.588   8
   8   2   4 658.621 420.673  10
  -8  -2  -4 894.212 433.823   8
  -8   2  -5 2037.68 613.038   6
  -8  -2  -5 1906.94 539.006   6
   8  -2   5 1290.33 525.832  10
   8   2   5 1885.89 617.822  10
   8   2   5 2787.29 654.408   2
  -8   2  -5 1872.21 532.359   8
  -8  -2  -5 918.050 422.734   8
   8  -2   5 1260.79 454.726   2
  -8   2  -6 3117.21 772.707   6
   8  -2   6 5045.23 876.712  10
   8   2   6 4115.92 876.518  10
   8   2   6 2764.90 739.634   2
  -8   2  -6 4232.85 786.760   8
  -8  -2  -6 3646.78 797.863   6
  -8  -2  -6 2597.09 635.332   8
   8  -2   6 3387.48 786.372   2
   8  -2   7 1631.19 556.978   2
  -8   2  -7 1052.56 519.945   6
  -8  -2  -7 2372.13 716.638   6
   8  -2   7 2033.69 711.404  10
   8   2   7 1072.34 574.049  10
   8   2   7 1440.23 600.076   2
  -8   2  -7 1571.69 513.359   8
  -8  -2  -7 2623.25 685.244   8
  -8   2  -8 1.52016 424.641   6
   8  -2   8 215.261 344.019   2
  -8  -2  -8 757.472 477.423   6
   8  -2   8 546.719 496.007  10
   8   2   8 113.678 326.789  10
   8   2   8 867.274 552.478   2
  -8   2  -9 1453.81 687.131   6
  -8  -2  -9 1408.05 632.764   6
   8  -2   9 332.810 419.998   2
   8  -2   9 325.313 423.877  10
   8   2   9 1740.79 652.071  10
   8   2   9 594.368 453.681   2
   8  -3 -12 977.653 524.305   3
  -8   3  11 1427.74 627.406   9
  -8  -3  11 3467.24 959.193   9
   8  -3 -11 2939.29 802.547   3
   8   3 -11 1960.70 665.453   3
  -8   3  10 23142.8 2130.43   9
  -8  -3  10 18007.6 1890.60   9
   8  -3 -10 20944.8 1930.13   3
   8   3 -10 22444.9 2060.30   3
   8   3  -9 917.772 483.233   3
  -8   3   9 1968.99 632.172   9
  -8  -3   9 720.469 504.492   9
   8  -3  -9 585.142 355.606   7
   8  -3  -9 507.068 450.720   3
   8  -3  -8 1272.56 570.031   3
   8   3  -8 1513.77 541.624   3
  -8   3   8 1582.27 586.317   9
  -8  -3   8 1589.79 523.113   9
  -8   3   8 904.126 324.262   8
   8  -3  -8 1244.24 436.079   7
  -8  -3   8 1520.08 482.548   4
   8   3  -7 733.626 384.116   3
   8  -3  -7 433.027 338.000   3
  -8   3   7 1090.55 512.930   9
  -8  -3   7 429.275 346.670   9
  -8   3   7 826.665 379.445   8
  -8  -3   7 1011.30 472.919   8
   8  -3  -7 82.2338 286.917   7
  -8  -3   7 555.661 388.356   4
  -8   3   6 17976.5 1528.10   9
  -8  -3   6 18971.8 1572.98   9
  -8   3   6 16374.4 1387.16   8
  -8  -3   6 18667.3 1513.79   8
   8  -3  -6 16627.8 1437.29   3
   8   3  -6 14978.3 1470.61   3
   8  -3  -6 18265.3 1464.92   7
  -8  -3   6 18669.0 1514.41   4
  -8   3   5 42857.2 2271.33   9
   8   3  -5 45491.9 1953.90   5
  -8  -3   5 39095.2 2186.26   9
  -8   3   5 40018.4 2239.64   8
   8  -3  -5 41725.0 2249.72   3
   8   3  -5 39990.7 2387.50   3
   8  -3  -5 41726.4 2270.76   7
  -8  -3   5 45906.1 2440.73   4
   8  -3  -4 1950.21 479.247   3
  -8   3   4 3652.65 630.530   9
   8   3  -4 2581.96 616.558   3
  -8  -3   4 3487.32 611.731   9
  -8   3   4 3373.81 662.648   8
   8  -3  -4 4002.41 725.192   7
  -8  -3   4 2792.04 627.788   4
  -8   3   3 7777.03 826.900   9
  -8  -3   3 6533.07 773.340   9
   8   3  -3 6220.52 913.761  10
  -8   3   3 6056.81 869.885   8
   8  -3  -3 8790.40 956.398   3
   8  -3  -3 5890.85 851.621   7
  -8  -3   3 8213.96 1018.73   4
   8  -3  -2 5364.33 789.437  10
   8   3  -2 5073.85 802.600  10
  -8   3   2 4882.26 596.578   9
  -8  -3   2 4703.64 589.177   9
  -8   3   2 4339.61 816.466   8
   8  -3  -2 4014.87 735.346   7
  -8  -3   2 5696.23 857.809   4
   8   3  -1 4564.49 795.745  10
  -8  -3   1 5730.75 580.597   9
   8   3  -1 4823.78 526.819   2
  -8   3   1 4347.40 777.261   8
   8  -3  -1 5368.55 780.406  10
   8  -3  -1 4968.21 790.755   7
  -8  -3   1 4969.55 840.300   4
  -8  -3   0 3888.49 520.706   6
   8  -3   0 4958.68 754.429  10
   8   3   0 4603.50 774.746  10
   8   3   0 3368.71 501.334   2
  -8   3   0 4788.23 793.302   8
   8  -3   0 4353.55 792.332   7
  -8  -3   0 3870.90 722.010   4
  -8   3  -1 1348.38 441.220   6
  -8  -3  -1 2139.65 426.653   6
   8  -3   1 2280.99 550.202  10
   8   3   1 2563.81 582.611  10
   8   3   1 1909.11 429.139   2
  -8   3  -1 1653.21 523.126   8
  -8  -3  -1 2351.54 662.877   4
   8   3   2 38525.2 2306.99  10
   8  -3   2 35446.7 2076.66  10
  -8   3  -2 34336.5 2189.45   8
   8   3   2 35516.9 1887.76   2
  -8  -3  -2 34755.8 2229.24   4
  -8   3  -2 37130.3 2133.85   6
  -8  -3  -2 36246.6 1893.60   6
  -8   3  -3 6490.84 934.958   6
  -8  -3  -3 6086.16 843.005   6
   8  -3   3 6450.83 906.671  10
   8   3   3 7812.39 1047.79  10
  -8   3  -3 8555.44 1085.49   8
   8   3   3 7211.39 883.510   2
  -8  -3  -3 6234.64 968.084   4
   8  -3   4 16272.6 1455.98  10
   8   3   4 15416.1 1526.62  10
  -8   3  -4 15677.9 1468.95   8
   8   3   4 13448.8 1291.32   2
  -8   3  -4 15474.8 1504.24   6
  -8  -3  -4 15018.2 1398.37   6
  -8   3  -5 4490.29 864.226   6
  -8  -3  -5 4525.69 834.666   6
   8   3   5 4562.75 908.741  10
   8  -3   5 2628.71 675.477  10
   8   3   5 4108.43 775.755   2
  -8   3  -5 3372.21 710.630   8
  -8  -3  -5 4391.05 823.755   8
  -8   3  -6 3076.20 826.640   6
  -8  -3  -6 1711.67 568.420   6
   8   3   6 1749.80 600.691  10
   8   3   6 1681.91 557.662   2
  -8   3  -6 1143.12 463.211   8
   8  -3   6 1081.06 475.044  10
  -8  -3  -6 2076.65 655.200   8
   8  -3   6 1472.79 485.895   2
  -8   3  -7 950.026 514.807   6
  -8  -3  -7 237.082 430.426   6
   8  -3   7 377.683 445.430  10
   8   3   7 924.005 559.890  10
   8   3   7-319.547 396.247   2
  -8  -3  -7 184.761 336.899   8
   8  -3   7 1381.79 598.058   2
   8  -3   8-12.1166 284.804   2
  -8   3  -8 591.638 473.194   6
  -8  -3  -8-223.417 456.779   6
   8  -3   8 274.711 321.829  10
   8   3   8 329.928 574.950  10
   8   3   8 69.4789 344.539   2
  -8  -3  -9 539.256 441.277   6
   8  -3   9 1021.13 544.351  10
   8   3   9 225.095 431.955   2
  -8   4  11 524.884 431.205   9
  -8  -4  11 844.805 609.817   9
   8  -4 -11 1512.88 577.351   3
   8   4 -11 360.486 380.550   3
   8   4 -10 2070.66 676.332   3
  -8   4  10 1985.78 714.877   9
  -8  -4  10 3657.09 920.910   9
   8  -4 -10 2358.75 713.363   3
   8   4  -9 1552.22 619.399   3
  -8   4   9 1867.89 668.783   9
  -8  -4   9 910.188 557.097   9
   8  -4  -9 1357.81 521.924   7
   8  -4  -9 638.323 374.617   3
   8   4  -8 1405.70 593.507   3
  -8   4   8 1034.99 507.096   9
  -8  -4   8 1322.00 556.902   9
  -8   4   8 1856.90 535.330   8
   8  -4  -8 1069.34 540.331   7
   8  -4  -8 1427.44 517.958   3
  -8  -4   8 1724.85 513.260   4
   8  -4  -7 430.928 323.808   3
   8   4  -7 538.189 420.309   3
  -8   4   7 190.245 275.791   9
  -8  -4   7 471.948 336.854   9
   8   4  -7 606.366 373.522   5
  -8   4   7 918.707 397.051   8
   8  -4  -7 25.0442 239.815   7
  -8  -4   7 312.120 361.509   4
  -8  -4   6 501.669 332.352   4
   8  -4  -6 297.909 321.432   3
   8   4  -6 1108.35 492.801   3
  -8   4   6 850.215 485.544   9
  -8  -4   6 1571.73 509.022   9
   8   4  -6 585.028 367.003   5
  -8   4   6 401.211 383.793   8
   8  -4  -6 963.553 440.188   7
  -8  -4   5 1132.18 467.799   4
   8  -4  -5-10.0409 253.042   3
   8   4  -5 336.602 319.936   3
  -8   4   5 795.196 414.456   9
  -8  -4   5 741.446 349.056   9
   8   4  -5 46.9638 246.879   5
  -8   4   5 742.590 410.846   8
   8  -4  -5 624.580 405.052   7
  -8  -4   4 1846.17 539.143   4
   8  -4  -4 2098.70 477.123   3
  -8   4   4 1765.26 458.165   9
   8   4  -4 2494.96 646.880   3
  -8  -4   4 2387.52 567.121   9
   8   4  -4 2009.58 435.795   5
  -8   4   4 2141.51 570.467   8
   8  -4  -4 1997.29 534.521   7
   8   4  -3 1270.76 461.645  10
   8  -4  -3 1403.57 428.925   3
  -8   4   3 1440.77 387.329   9
  -8  -4   3 1370.91 412.169   9
   8   4  -3 1089.11 318.617   5
  -8   4   3 1964.67 531.097   8
   8  -4  -3 1629.49 507.384   7
  -8  -4   3 1854.64 562.333   4
   8   4  -2 33155.2 2093.61  10
  -8   4   2 29905.9 1639.49   9
  -8  -4   2 30547.5 1650.91   9
  -8   4   2 32030.8 2063.26   8
   8  -4  -2 33247.9 1817.84   3
   8  -4  -2 29880.9 2001.02   7
  -8  -4   2 34495.7 2192.69   4
   8  -4  -1 7886.18 925.246  10
   8   4  -1 6678.08 917.641  10
  -8   4   1 7057.33 971.867   8
   8  -4  -1 7669.24 1030.12   7
  -8  -4   1 6523.63 997.572   4
   8  -4   0 19815.3 1471.72  10
   8   4   0 19382.6 1587.14  10
  -8   4   0 19471.3 1627.70   8
  -8  -4   0 20374.0 1700.68   4
   8  -4   0 19207.6 1624.90   7
   8  -4   1 3913.04 674.307  10
  -8  -4  -1 5461.98 690.120   6
   8   4   1 4353.57 608.563   2
  -8   4  -1 3657.63 760.911   8
   8   4   1 6572.66 943.899  10
   8  -4   1 6323.16 940.554   7
  -8  -4  -1 5124.51 875.970   4
   8  -4   2 12261.0 1170.47  10
   8   4   2 9742.22 1181.09  10
  -8   4  -2 10998.5 1255.36   8
   8   4   2 10745.3 1013.75   2
  -8  -4  -2 12035.9 1346.07   4
   8  -4   2 9803.39 1239.54   7
  -8   4  -2 9706.97 1146.91   6
  -8  -4  -2 10223.0 1017.61   6
  -8   4  -3 466.496 348.517   6
  -8  -4  -3 285.451 329.079   6
   8  -4   3 540.535 343.363  10
   8   4   3 75.5267 231.831   2
  -8   4  -3 360.404 352.725   8
   8   4   3 7.77175 269.261  10
  -8  -4  -3-395.787 375.986   4
  -8   4  -4 850.851 426.932   6
  -8  -4  -4 1246.45 472.876   6
   8  -4   4 376.578 369.093  10
   8   4   4 656.745 391.550  10
   8   4   4 739.517 378.688   2
  -8   4  -4 416.191 417.972   8
  -8  -4  -4 90.2153 355.885   4
  -8   4  -5 9820.02 1295.62   6
   8  -4   5 10257.7 1187.57  10
  -8  -4  -5 9353.25 1191.73   6
   8   4   5 8242.53 1182.24  10
  -8   4  -5 9198.01 1148.04   8
   8   4   5 8284.63 1088.76   2
   8  -4   6 21866.5 1803.09  10
   8   4   6 22538.7 2007.17  10
   8  -4   6 20933.3 1918.10   2
  -8   4  -6 19111.8 1683.07   8
  -8  -4  -6 21784.3 1921.05   8
   8   4   6 18483.7 1740.65   2
  -8   4  -6 22348.3 2038.79   6
  -8  -4  -6 19199.6 1795.30   6
  -8   4  -7 1952.07 759.444   6
  -8  -4  -7 2409.47 712.796   6
   8  -4   7 2022.09 614.905  10
   8   4   7 2727.18 792.981  10
  -8  -4  -7 2804.86 754.958   8
   8   4   7 1794.35 630.552   2
   8  -4   7 2544.46 771.727   2
   8  -4   8 6924.55 1219.58   2
  -8   4  -8 7610.16 1322.61   6
  -8  -4  -8 6928.43 1215.77   6
   8  -4   8 9177.60 1287.19  10
   8   4   8 8564.44 1342.22  10
   8   4   8 8950.92 1313.28   2
   8  -4   9 455.434 408.577  10
   8  -5 -11 3983.14 885.420   3
   8   5 -11 5031.07 1047.20   3
   8   5 -10 512.562 468.421   3
  -8   5  10 186.627 351.994   9
  -8  -5  10 672.177 609.744   9
   8  -5 -10-244.435 447.908   7
   8  -5 -10 1092.62 508.856   3
   8   5  -9 5299.86 1036.43   3
  -8   5   9 5474.34 1057.72   9
  -8  -5   9 5269.46 1060.53   9
   8  -5  -9 4309.10 892.009   7
   8  -5  -9 5057.84 908.615   3
   8   5  -8 9269.16 1257.10   3
   8   5  -8 9997.42 1215.57   5
  -8   5   8 9076.07 1287.39   9
  -8  -5   8 9767.48 1311.13   9
  -8   5   8 11068.9 1208.31   8
  -8  -5   8 9489.32 1202.19   4
   8  -5  -8 8380.03 1159.01   7
   8  -5  -8 9003.51 1129.69   3
  -8  -5   7 813.099 365.570   4
   8   5  -7 1111.72 502.071   3
  -8   5   7 32.6417 413.300   9
  -8  -5   7 331.494 324.429   9
   8   5  -7 1389.38 500.935   5
  -8   5   7 1422.50 471.000   8
   8  -5  -7 802.653 403.283   7
   8  -5  -7 612.364 371.283   3
  -8  -5   6 1568.06 558.860   4
   8  -5  -6 785.041 380.301   3
   8   5  -6 286.764 428.387   3
  -8   5   6 845.105 493.592   9
  -8  -5   6 1064.19 453.412   9
   8   5  -6 845.840 443.693   5
  -8   5   6 2266.30 613.950   8
   8  -5  -6 389.039 281.037   7
  -8  -5   5 5049.05 896.934   4
   8  -5  -5 4921.66 756.921   3
   8   5  -5 4987.00 871.211   3
  -8   5   5 4731.85 816.374   9
  -8  -5   5 5825.58 897.664   9
   8   5  -5 4685.51 710.999   5
  -8   5   5 5211.00 862.165   8
   8  -5  -5 5106.11 869.619   7
  -8  -5   4 386.060 407.990   4
   8  -5  -4 407.079 311.780   3
  -8   5   4-155.975 299.590   9
   8   5  -4 122.655 327.582   3
  -8  -5   4-188.032 234.343   9
   8   5  -4 228.354 260.156   5
  -8   5   4 41.6163 361.533   8
   8  -5  -4 533.554 441.019   7
   8   5  -3 28095.8 1978.32  10
  -8   5   3 28266.1 1779.61   9
   8   5  -3 31029.0 1708.31   5
  -8   5   3 29662.7 2048.39   8
   8  -5  -3 29693.6 1685.12   3
   8  -5  -3 27079.2 1976.23   7
  -8  -5   3 25521.4 1945.42   4
  -8  -5   2 4760.37 906.940   4
   8   5  -2 4117.59 751.629  10
   8  -5  -2 3718.18 599.646   3
   8   5  -2 3999.81 604.722   5
  -8   5   2 3897.10 802.750   8
   8  -5  -2 3944.24 795.503   7
   8  -5  -1 17789.0 1373.87  10
   8   5  -1 16848.3 1502.96  10
   8   5  -1 19295.0 1281.76   5
  -8   5   1 16135.8 1528.83   8
   8  -5  -1 17695.4 1253.30   3
   8  -5  -1 17082.5 1580.90   7
  -8  -5   1 17742.4 1647.10   4
   8  -5   0 16425.9 1324.64  10
   8   5   0 15826.4 1463.19  10
   8   5   0 18487.1 1271.57   5
  -8   5   0 17786.4 1594.65   8
   8  -5   0 16703.7 1574.19   7
  -8  -5   0 15938.0 1552.25   4
   8  -5   1 5712.18 791.430  10
   8   5   1 6761.49 987.311  10
  -8  -5  -1 5789.08 750.827   6
  -8   5  -1 5748.28 939.731   8
   8  -5   1 5165.91 898.877   7
  -8  -5  -1 5330.94 938.671   4
   8  -5   2 9127.59 1004.74  10
   8   5   2 8012.16 1110.44  10
  -8   5  -2 8739.06 1154.90   8
   8  -5   2 7885.25 1123.49   7
  -8  -5  -2 6819.36 904.612   6
  -8  -5  -2 8224.21 1132.35   4
  -8   5  -3-279.326 310.974   6
   8  -5   3 826.836 351.822  10
   8   5   3-27.7834 345.844  10
  -8  -5  -3 107.094 265.576   6
  -8   5  -3 90.7607 266.660   8
   8   5   3-195.237 308.654   2
   8  -5   3 950.184 464.858   7
  -8  -5  -3-64.9296 407.199   4
  -8   5  -4 404.811 459.575   6
   8  -5   4 334.440 268.190  10
  -8  -5  -4-86.0496 270.800   6
   8   5   4-81.8089 263.506  10
  -8   5  -4 56.0487 336.487   8
   8   5   4-254.341 333.302   2
   8  -5   4 352.863 421.334   7
  -8  -5  -4 329.147 363.513   4
   8  -5   5 12706.8 1317.54  10
   8   5   5 13092.4 1498.25  10
  -8   5  -5 12571.2 1405.65   8
  -8  -5  -5 13096.2 1497.10   4
   8  -5   5 14556.5 1640.48   7
   8   5   5 12829.9 1379.28   2
  -8   5  -5 12139.5 1512.84   6
  -8  -5  -5 12663.4 1413.91   6
   8   5   6 13492.5 1580.05  10
  -8   5  -6 14964.3 1555.20   8
   8   5   6 12919.8 1457.33   2
  -8   5  -6 12788.2 1585.65   6
  -8  -5  -6 13688.1 1535.02   6
  -8   5  -7 5617.02 1194.81   6
  -8  -5  -7 6307.74 1151.77   6
   8   5   7 5050.50 1013.56  10
   8   5   7 4732.98 958.896   2
   8  -5   7 5587.66 1079.45   2
  -8  -5  -8 298.000 432.931   6
   8   5   8 2563.06 783.629   2
  -8   6  10 1532.16 689.630   9
   8  -6 -10 1284.77 598.209   7
   8   6 -10 530.462 461.281   3
  -8   6   9 16685.7 1820.52   9
  -8  -6   9 13542.0 1658.66   9
   8   6  -9 11405.4 1422.53   5
   8   6  -9 15327.9 1689.06   3
   8  -6  -9 15938.1 1685.25   7
  -8  -6   8-76.0319 289.189   4
   8   6  -8 287.419 358.850   3
  -8   6   8 529.845 453.464   9
  -8  -6   8 616.022 496.314   9
   8   6  -8 1808.20 644.083   5
  -8   6   8 315.508 289.861   8
   8  -6  -8 335.201 399.919   7
  -8   6   7 11058.0 1388.65   9
   8   6  -7 14683.1 1467.44   5
  -8  -6   7 14923.5 1587.21   9
  -8   6   7 13776.2 1405.99   8
   8   6  -7 13310.4 1468.50   3
   8  -6  -7 12112.6 1432.07   7
  -8  -6   7 11412.0 1353.89   4
  -8  -6   6 9036.74 1222.60   4
   8   6  -6 6544.38 1029.46   3
   8   6  -6 9408.70 1143.89   5
  -8  -6   6 9817.06 1267.33   9
  -8   6   6 6691.84 1030.71   9
  -8   6   6 7571.55 1063.59   8
   8  -6  -6 7541.25 1112.74   7
  -8  -6   5 8180.78 1171.04   4
   8   6  -5 8410.44 1032.07   5
   8   6  -5 7139.21 1071.44   3
  -8   6   5 8020.89 1069.99   9
  -8  -6   5 7080.97 1013.56   9
  -8   6   5 6435.65 988.576   8
   8  -6  -5 6756.27 1034.42   7
  -8   6   4 17431.0 1536.32   9
   8   6  -4 21750.3 1583.83   5
  -8   6   4 19219.9 1703.12   8
   8   6  -4 19424.2 1695.71   3
   8  -6  -4 20554.0 1805.04   7
  -8  -6   4 22072.1 1866.66   4
  -8  -6   3 946.661 493.312   4
   8   6  -3 851.073 444.059  10
   8   6  -3 1656.87 447.032   5
  -8   6   3 1563.44 546.265   8
   8  -6  -3 1614.81 581.949   7
  -8  -6   2 1442.46 558.936   4
   8   6  -2 2416.85 629.679  10
   8   6  -2 2298.00 512.508   5
  -8   6   2 2676.10 691.759   8
   8  -6  -2 1871.02 573.670   7
   8   6  -1 13419.9 1395.35  10
   8   6  -1 14780.1 1227.62   5
  -8   6   1 10288.6 1285.13   8
   8  -6  -1 14131.6 1494.88   7
  -8  -6   1 16011.6 1609.84   4
  -8  -6   0 5635.49 988.998   4
   8   6   0 5485.90 899.254  10
  -8   6   0 6623.95 1039.41   8
   8   6   0 4796.76 713.130   5
   8  -6   0 3287.84 772.309   7
   8   6   1 14340.3 1447.64  10
   8   6   1 16530.4 1340.94   5
  -8   6  -1 12668.1 1438.89   8
   8  -6   1 18635.4 1754.46   7
  -8  -6  -1 14797.1 1580.58   4
   8   6   2 17577.1 1622.45  10
  -8   6  -2 16118.4 1622.00   8
   8  -6   2 16932.5 1696.19   7
  -8  -6  -2 16791.0 1673.76   4
  -8  -6  -2 15593.8 1377.33   6
   8   6   3 13671.5 1479.43  10
  -8   6  -3 12680.1 1453.98   8
  -8  -6  -3 11375.6 1403.37   4
   8  -6   3 11753.2 1429.41   7
  -8  -6  -3 13448.4 1368.53   6
   8   6   4 2786.05 717.606  10
  -8  -6  -4 1543.56 644.389   6
  -8   6  -4 2176.27 705.220   8
   8  -6   4 2458.10 788.118   7
  -8  -6  -4 3374.60 806.123   4
  -8   6  -5 1389.67 668.263   6
  -8  -6  -5 1581.25 636.059   6
   8   6   5 1790.21 594.537  10
  -8   6  -5 2331.43 663.633   8
   8  -6   5 1203.04 547.702   7
  -8  -6  -5 1595.92 631.404   4
  -8   6  -6 3399.37 864.696   6
  -8  -6  -6 1475.31 636.678   6
   8   6   6 292.346 411.859  10
  -8   6  -6 1364.35 570.609   8
  -8  -6  -6 1443.88 587.020   4
   8  -6   6 3630.39 937.505   7
   8   6   6 1719.37 582.035   2
  -8   6  -7 1242.18 509.222   6
   8   6   7 1148.20 526.239   2
  -8  -6  -7 528.017 459.636   6
   8   6   7 508.838 518.826  10
   8  -6   7 1756.47 656.327   2
   8   7 -10 2940.05 830.005   5
   8  -7 -10 2106.88 760.168   7
   8   7 -10 3302.06 825.549   3
   8   7  -9 3166.62 828.591   3
  -8   7   9 2111.43 802.539   9
  -8  -7   9 1947.06 669.299   9
   8   7  -9 3417.83 834.293   5
   8  -7  -9 2314.02 758.617   7
  -8   7   8 17884.6 1879.09   9
   8   7  -8 19460.4 1862.93   5
  -8  -7   8 18847.6 1960.87   9
  -8   7   8 16631.8 1660.37   8
   8   7  -8 18229.6 1808.15   3
   8  -7  -8 19280.6 1934.05   7
  -8  -7   8 19139.2 1815.72   4
  -8  -7   7 2827.51 794.915   4
   8   7  -7 2830.50 757.811   3
  -8   7   7 3044.78 772.817   9
  -8  -7   7 3546.27 884.703   9
   8   7  -7 3043.06 762.531   5
  -8   7   7 1948.09 636.979   8
   8  -7  -7 3264.96 812.691   7
  -8   7   6 13806.8 1548.07   9
   8   7  -6 18076.4 1652.27   5
  -8  -7   6 14550.4 1589.46   9
  -8   7   6 13067.3 1455.87   8
   8   7  -6 14209.3 1507.28   3
   8  -7  -6 13991.8 1591.72   7
  -8  -7   6 14166.8 1595.08   4
  -8  -7   5 8424.03 1218.51   4
   8   7  -5 7829.52 1108.11   3
   8   7  -5 9009.91 1137.79   5
  -8   7   5 7951.62 1151.64   8
   8  -7  -5 8304.98 1205.91   7
  -8  -7   4 2748.48 749.103   4
   8   7  -4 1292.25 535.598   3
   8   7  -4 2369.42 621.343   5
  -8   7   4 2181.62 664.132   8
   8  -7  -4 3469.79 846.810   7
  -8  -7   3 300.843 456.435   4
   8   7  -3 176.424 334.464   3
   8   7  -3 365.991 344.210   5
  -8   7   3-388.288 405.431   8
   8  -7  -3-117.165 436.778   7
  -8  -7   2-88.4546 365.490   4
   8   7  -2 531.837 411.195  10
   8   7  -2 617.876 283.002   5
  -8   7   2-82.5226 278.328   8
   8  -7  -2 243.030 377.218   7
  -8  -7   1 2302.23 723.741   4
   8   7  -1 2302.50 622.814  10
  -8   7   1 2053.90 695.808   8
   8   7  -1 2911.28 621.893   5
   8  -7  -1 2610.80 706.738   7
   8   7   0 32706.2 2169.74  10
   8   7   0 31910.7 2019.20   5
  -8   7   0 24770.2 2086.80   8
   8  -7   0 33385.3 2433.03   7
  -8  -7   0 30368.6 2316.77   4
  -8  -7  -1 3581.84 835.053   4
   8   7   1 4230.41 814.295  10
  -8   7  -1 4523.59 909.662   8
   8   7   1 4578.86 809.741   5
   8  -7   1 4391.87 877.778   7
  -8  -7  -2 5067.47 979.797   4
   8   7   2 6362.57 996.158  10
  -8   7  -2 4210.90 893.987   8
   8   7   2 5115.14 846.456   5
   8  -7   2 4880.98 985.953   7
   8   7   3 1778.91 568.568  10
  -8  -7  -3 739.618 416.427   6
  -8   7  -3 2665.96 742.464   8
   8  -7   3 1960.75 646.625   7
  -8  -7  -3 1663.17 608.376   4
   8   7   4 12280.9 1450.66  10
  -8   7  -4 15491.6 1662.76   8
   8  -7   4 12603.0 1580.36   7
  -8  -7  -4 12768.2 1555.60   4
  -8  -7  -4 15832.3 1604.49   6
   8   7   5 938.246 462.612  10
  -8  -7  -5 772.887 464.176   6
  -8   7  -5 17.5753 294.643   8
   8  -7   5-196.281 423.051   7
  -8  -7  -5-281.600 509.429   4
   8   7   6-1.49276 244.272  10
  -8  -7  -6 91.4583 377.700   6
   8  -7   6-304.845 362.926   7
  -8  -7  -7 1126.52 607.777   6
   8   8  -9 1261.22 579.174   5
  -8  -8   8 1035.59 509.038   4
  -8   8   8 2030.43 673.342   9
  -8  -8   8 3253.70 891.208   9
   8   8  -8 1941.32 660.384   5
   8  -8  -8 2225.95 784.877   7
  -8  -8   7 583.837 460.415   4
   8   8  -7 122.953 326.528   3
  -8  -8   7 308.774 358.639   9
   8   8  -7 841.714 414.477   5
  -8   8   7 300.974 374.886   8
   8  -8  -7 85.1802 366.829   7
  -8  -8   6 2471.04 720.286   4
   8   8  -6 2870.73 700.816   3
   8   8  -6 1686.75 573.272   5
  -8   8   6 1924.78 644.215   8
   8  -8  -6 2156.48 717.462   7
  -8  -8   5 1355.56 615.078   4
   8   8  -5 15.6180 271.174   3
   8   8  -5 1752.31 596.636   5
  -8   8   5 1000.57 545.168   8
   8  -8  -5 814.577 477.585   7
  -8  -8   4 10253.1 1430.65   4
   8   8  -4 12186.9 1372.29   5
  -8   8   4 11699.2 1458.44   8
   8   8  -4 11122.4 1323.69   3
   8  -8  -4 10995.8 1449.44   7
   8   8  -3 5588.35 953.232   3
   8   8  -3 5091.32 871.654   5
  -8   8   3 4624.29 934.103   8
   8  -8  -3 5283.42 971.835   7
  -8  -8   3 6009.69 1076.24   4
  -8  -8   2 1774.62 599.711   4
  -8   8   2 1049.91 466.206   8
   8   8  -2 1126.90 479.330   5
   8  -8  -2 1663.87 609.760   7
  -8  -8   1 923.369 740.980   4
   8   8  -1 720.489 413.724  10
  -8   8   1 1229.17 652.337   8
   8   8  -1 953.957 419.628   5
   8  -8  -1 120.705 349.532   7
  -8  -8   0 1346.14 508.904   4
   8   8   0 990.010 477.158  10
  -8   8   0 1463.63 647.392   8
   8   8   0 1260.48 517.066   5
   8  -8   0 1823.94 667.126   7
  -8  -8  -1 1553.36 648.555   4
   8   8   1 3288.36 749.571  10
  -8   8  -1 3678.24 925.770   8
   8   8   1 2696.26 693.855   5
   8  -8   1 2035.31 623.470   7
  -8  -8  -2 8465.54 1310.87   4
   8   8   2 12674.8 1419.73  10
   8   8   2 10645.2 1286.29   5
  -8   8  -2 8011.75 1270.72   8
   8  -8   2 10416.0 1438.34   7
   8   8   3 6541.75 1074.81  10
  -8   8  -3 3314.39 840.761   8
   8  -8   3 5894.68 1101.03   7
  -8  -8  -3 4450.38 982.458   4
   8   8   4 8175.77 1232.17  10
  -8   8  -4 6581.92 1133.09   8
   8  -8   4 8293.68 1319.29   7
  -8  -8  -4 6017.56 1125.88   4
   8   8   5 12817.1 1592.55  10
  -8   8  -5 13301.3 1614.59   8
   8  -8   5 16223.9 1879.31   7
  -8  -8  -5 13240.8 1659.83   4
  -8  -8  -5 13992.5 1654.78   6
   8   8   6-506.178 415.665  10
  -8  -8  -6 760.580 489.130   6
  -8   8  -6 472.233 442.739   8
  -8  -9   7-78.2942 346.696   4
   8   9  -7 281.929 314.099   5
  -8   9   7 165.652 308.397   8
   8   9  -6 948.726 498.683   5
  -8   9   6 419.849 505.116   8
  -8  -9   5 4201.83 972.244   4
   8   9  -5 5232.78 1035.07   5
  -8   9   5 2712.69 737.634   8
   8  -9  -5 4960.66 1154.34   7
  -8  -9   4-348.164 539.467   4
   8   9  -4-344.197 388.694   5
  -8   9   4 475.014 453.882   8
   8  -9  -4 634.124 527.557   7
  -8  -9   3 2859.58 865.144   4
   8   9  -3 1289.48 470.600   5
  -8   9   3 2929.00 867.267   8
   8  -9  -3 2725.35 796.013   7
  -8  -9   2 6788.88 1225.47   4
  -8   9   2 6704.92 1208.82   8
   8   9  -2 6522.13 1042.59   5
   8  -9  -2 7032.97 1206.29   7
   8   9  -1 17656.8 1707.22   5
  -8   9   1 17617.0 1925.75   8
   8  -9  -1 18733.4 1943.84   7
  -8  -9   1 21762.9 2128.40   4
  -8  -9   0 2050.51 824.170   4
  -8   9   0 1536.85 650.566   8
   8   9   0 1213.03 511.120   5
   8  -9   0 1237.83 602.755   7
  -8  -9  -1 3049.41 901.559   4
  -8   9  -1 3013.39 854.494   8
   8   9   1 2131.01 669.892   5
   8  -9   1 3128.22 907.746   7
  -8  -9  -2 2289.02 786.191   4
  -8   9  -2 1472.60 624.665   8
   8  -9   2 1231.23 476.434   7
  -8  -9  -3 1539.17 650.284   4
  -8   9  -3 440.406 428.869   8
  -8   9  -4 448.350 364.210   8
  -8  -9  -4 980.263 653.026   4
   8  10  -5 409.017 467.080   5
   8  10  -4 5073.65 1003.24   5
   8  10  -3 1586.63 645.855   5
   8  10  -2 13761.8 1615.36   5
   8  10  -1 1782.22 570.016   5
   8  10   0 274.202 541.084   5
   8  10   1 731.364 565.965   5
  -9   0  11 127.151 401.387   9
   9   0 -11 268.112 338.372   3
  -9   0  10 16369.5 1790.17   9
   9   0 -10 15548.7 1752.73   3
   9   0  -9 550.889 441.500   3
  -9   0   9 234.674 415.915   9
   9   0  -8 9163.62 1265.48   3
  -9   0   8 9420.13 1196.34   9
  -9   0   8 10351.3 1140.78   8
   9   0  -7 27.9913 309.722   3
  -9   0   7 156.026 373.306   9
  -9   0   7-13.9526 205.381   8
  -9   0   6 51987.1 2618.81   9
  -9   0   6 53903.7 2713.35   8
   9   0  -6 51406.0 2826.38   3
   9   0  -5 161.631 255.991   3
  -9   0   5-173.400 204.812   9
  -9   0   5-35.1914 334.531   8
   9   0  -5-153.881 218.522   7
  -9   0   4-1.37810 192.735   9
   9   0  -4 267.651 239.928   3
  -9   0   4 474.717 430.577   8
   9   0  -4-158.410 205.667   7
   9   0  -3 514.624 428.519  10
  -9   0   3 193.522 246.965   9
  -9   0   3-284.095 349.134   8
   9   0  -3 14.8745 261.871   7
   9   0  -2 3593.64 718.632  10
  -9   0   2 2829.49 650.550   8
   9   0  -1 718.841 426.020  10
  -9   0   1-10.5571 373.089   8
   9   0   0 23222.6 1775.97  10
  -9   0   0 19475.8 1698.38   8
  -9   0   0 23490.5 1373.56   6
  -9   0  -1 74.4254 236.309   6
   9   0   1 448.442 410.318  10
  -9   0  -1 212.839 345.685   8
   9   0   2 24917.3 1922.61  10
   9   0   2 22107.4 1652.10   2
  -9   0  -2 26727.2 2007.23   8
  -9   0  -2 28295.6 1748.37   6
  -9   0  -3 145.441 239.948   6
   9   0   3-281.819 268.426  10
  -9   0  -3 154.167 381.088   8
   9   0   3 18.6591 225.071   2
  -9   0  -4 825.910 398.781   6
   9   0   4 1176.72 507.637  10
  -9   0  -4-19.9039 347.543   8
   9   0   4 23.6578 298.109   2
   9   0   5 460.608 365.535   2
  -9   0  -5 225.708 412.368   6
   9   0   5 710.971 495.937  10
  -9   0  -5 61.8681 309.709   8
  -9   0  -6 2786.94 743.954   6
   9   0   6 3774.48 824.542   2
   9   0   6 5986.96 1074.38  10
  -9   0  -6 6885.39 1058.09   8
  -9   0  -7-60.3520 330.599   6
   9   0   7 39.2300 288.681  10
   9   0   7 221.944 323.106   2
  -9   0  -8 4675.46 1006.81   6
   9   0   8 3726.49 899.026  10
   9   0   8 5022.89 1121.84   2
  -9   1  11 1687.59 786.869   9
  -9  -1  11 785.701 577.241   9
   9  -1 -11 500.917 532.819   3
   9   1 -11 2760.68 794.259   3
  -9   1  10 16234.1 1792.39   9
  -9  -1  10 14751.2 1712.71   9
   9  -1 -10 16449.7 1783.75   3
   9   1 -10 12921.5 1612.94   3
   9  -1  -9 2002.24 638.361   3
   9   1  -9 1462.75 620.485   3
  -9   1   9 1415.13 584.321   9
  -9  -1   9 1748.87 595.795   9
   9  -1  -8 1369.83 542.800   3
   9   1  -8 1441.50 574.425   3
  -9   1   8 1095.04 462.239   9
  -9  -1   8 1341.79 449.744   9
  -9   1   8 1604.00 529.148   8
   9  -1  -7 6483.25 1018.32   3
   9   1  -7 8326.35 1163.11   3
  -9   1   7 6189.34 943.949   9
  -9  -1   7 7858.67 1069.64   9
  -9  -1   7 8668.13 1057.94   8
  -9   1   7 6052.56 867.358   8
   9  -1  -6 7189.28 1025.45   3
   9   1  -6 7808.32 1108.41   3
  -9   1   6 8056.38 999.959   9
  -9  -1   6 7313.82 984.522   9
  -9   1   6 8117.72 1018.81   8
  -9  -1   6 6970.89 964.402   8
   9  -1  -6 6622.81 812.606   7
   9  -1  -5 3752.68 758.953   3
   9   1  -5 4955.44 873.589   3
  -9   1   5 4494.01 731.261   9
  -9  -1   5 3645.64 665.911   9
  -9   1   5 3638.98 742.014   8
  -9  -1   5 5245.78 846.761   8
   9  -1  -5 4416.01 718.045   7
  -9   1   4 9265.82 943.433   9
  -9  -1   4 12269.5 1078.83   9
   9  -1  -4 7167.96 997.594   3
  -9   1   4 10800.8 1186.97   8
  -9  -1   4 11027.6 1214.93   8
   9   1  -4 9156.61 1145.05   3
   9  -1  -4 9136.58 1012.28   7
   9   1  -4 10503.1 979.696   7
   9  -1  -3 29202.7 2005.55  10
   9   1  -3 29729.4 2045.28  10
  -9   1   3 30050.5 1573.16   9
  -9  -1   3 26926.1 1513.22   9
  -9   1   3 27007.2 1940.44   8
  -9  -1   3 28573.4 1986.96   8
   9  -1  -3 30275.1 1869.02   7
   9   1  -3 28684.1 1706.60   7
   9  -1  -2 34286.4 2161.66  10
   9   1  -2 31361.1 2105.08  10
  -9   1   2 32639.9 2144.27   8
  -9  -1   2 32002.4 2132.53   8
   9  -1  -2 34972.4 2061.52   7
   9  -1  -1 1444.68 458.964  10
   9   1  -1 661.268 418.741  10
  -9   1   1 360.239 376.551   8
  -9  -1   1 582.061 487.789   8
  -9   1   0 1244.91 371.218   6
   9  -1   0 765.924 378.137  10
   9   1   0 654.952 390.110  10
  -9   1   0 1012.85 428.539   8
  -9  -1   0 524.114 392.618   8
  -9   1  -1 899.452 398.994   6
  -9  -1  -1-55.1522 175.377   6
   9  -1   1 155.794 370.536  10
   9   1   1 342.379 266.612  10
  -9   1  -1 830.492 436.970   8
  -9  -1  -1 153.886 325.748   8
   9   1   1 269.497 271.482   2
  -9   1  -2 617.777 407.556   6
  -9  -1  -2 40.1761 266.320   6
   9   1   2 352.292 334.960  10
  -9   1  -2 374.259 432.949   8
  -9  -1  -2 844.444 500.247   8
   9   1   2 789.585 366.886   2
   9  -1   3 21794.4 1800.59  10
   9   1   3 22043.9 1828.60  10
  -9   1  -3 22238.1 1839.73   8
  -9  -1  -3 20690.0 1809.67   8
   9   1   3 21144.7 1636.39   2
  -9   1  -3 24894.3 1782.78   6
  -9  -1  -3 26865.1 1798.45   6
  -9   1  -4 680.071 435.695   6
   9   1   4 848.047 453.831   2
  -9  -1  -4 711.725 414.935   6
   9  -1   4 477.848 316.763  10
   9   1   4 1286.05 517.996  10
  -9   1  -4 1140.68 497.970   8
  -9  -1  -4 800.993 601.295   8
   9  -1   4 645.044 430.514   2
   9  -1   5 15313.5 1595.65  10
   9   1   5 16280.6 1667.65  10
  -9   1  -5 16922.0 1624.77   8
   9  -1   5 15660.3 1564.22   2
  -9  -1  -5 15963.3 1607.36   8
   9   1   5 14829.4 1511.79   2
  -9   1  -5 14599.7 1520.44   6
  -9  -1  -5 18066.3 1679.94   6
   9  -1   6 3657.90 859.663   2
  -9   1  -6 3441.95 848.925   6
  -9  -1  -6 4361.46 898.964   6
   9  -1   6 5026.62 982.353  10
   9   1   6 4879.35 998.015  10
   9   1   6 2629.50 720.089   2
  -9   1  -6 3667.82 797.972   8
  -9  -1  -6 3797.13 878.588   8
  -9   1  -7 4142.77 955.621   6
  -9  -1  -7 5150.20 998.322   6
   9  -1   7 3419.09 788.664   2
   9  -1   7 6326.58 1148.18  10
   9   1   7 3795.65 892.220  10
   9   1   7 3299.40 822.800   2
  -9  -1  -7 4136.00 872.357   8
  -9   1  -8 145.962 383.908   6
  -9  -1  -8 1156.24 566.166   6
   9  -1   8 769.533 581.857  10
   9   1   8 1.60325 308.082  10
   9  -1   8 296.672 324.681   2
   9   1   8 256.238 360.659   2
  -9   2  11 2850.80 797.090   9
  -9  -2  11 4243.13 1020.64   9
   9  -2 -11 5315.31 1086.61   3
   9   2 -11 3267.52 846.518   3
   9   2 -10 1126.91 638.301   3
  -9   2  10 340.342 474.014   9
  -9  -2  10 90.9864 431.114   9
   9  -2 -10 428.961 410.690   3
   9  -2  -9 3581.83 839.808   3
   9   2  -9 3179.09 836.314   3
  -9   2   9 1626.44 600.863   9
  -9  -2   9 1330.25 514.071   9
   9  -2  -8 648.166 430.844   3
   9   2  -8-425.836 440.203   3
  -9   2   8 668.673 467.557   9
  -9  -2   8 22.9882 283.943   9
  -9   2   8 4.54847 268.164   8
  -9   2   7 13910.3 1426.27   9
  -9  -2   7 11167.9 1290.34   9
  -9   2   7 14425.6 1329.32   8
  -9  -2   7 14553.2 1411.80   8
   9  -2  -7 16443.8 1592.60   3
   9   2  -7 12942.2 1475.91   3
   9  -2  -7 13540.6 1249.43   7
  -9  -2   7 12294.4 1257.05   4
   9  -2  -6 70.3019 242.821   3
   9   2  -6 187.087 374.240   3
  -9   2   6 274.349 324.009   9
  -9  -2   6 182.916 319.772   9
  -9   2   6 481.555 374.854   8
  -9  -2   6 658.034 396.970   8
   9  -2  -6 226.720 293.849   7
  -9  -2   6-83.1293 341.250   4
   9  -2  -5 100.811 228.494   3
   9   2  -5 23.4697 247.139   3
  -9   2   5 363.879 350.164   9
  -9  -2   5-20.3820 291.517   9
  -9   2   5 467.020 378.027   8
  -9  -2   5 453.120 335.070   8
   9  -2  -5 370.356 290.324   7
  -9  -2   5 369.365 383.800   4
   9  -2  -4 4797.06 846.501   3
  -9   2   4 3925.95 646.180   9
  -9  -2   4 3999.39 653.029   9
   9   2  -4 3637.23 801.135   3
  -9   2   4 5001.65 831.272   8
  -9  -2   4 3991.20 792.272   8
   9  -2  -4 4106.23 710.931   7
  -9  -2   4 4693.19 806.248   4
   9  -2  -3 12585.1 1315.54  10
   9   2  -3 12125.0 1328.74  10
  -9   2   3 13941.1 1081.29   9
  -9  -2   3 16877.1 1177.64   9
  -9   2   3 15302.5 1447.32   8
  -9  -2   3 17041.8 1541.55   8
   9  -2  -3 13017.7 1277.56   3
  -9  -2   3 13999.6 1384.65   4
   9  -2  -3 11915.1 1217.41   7
   9  -2  -2 107.505 339.999  10
   9   2  -2-1.05148 265.328  10
  -9   2   2 306.886 390.493   8
  -9  -2   2 887.823 427.196   8
   9  -2  -2 516.310 294.091   7
  -9  -2   2 401.838 368.186   4
   9  -2  -1 31417.7 2033.02  10
   9   2  -1 31183.8 2113.89  10
   9   2  -1 31570.8 1584.01   2
  -9   2   1 32476.0 2170.45   8
  -9  -2   1 31487.5 2164.23   8
  -9  -2   1 30656.5 2110.73   4
   9  -2  -1 31954.9 2063.07   7
   9  -2   0 1239.00 446.052  10
   9   2   0 516.693 338.715  10
  -9   2   0 221.259 369.584   8
  -9  -2   0 293.130 276.105   8
  -9   2   0 952.686 405.883   6
   9   2   0 636.710 292.605   2
   9  -2   1 55461.6 2815.73  10
   9   2   1 52200.1 2849.57  10
  -9   2  -1 56221.3 2971.87   8
  -9  -2  -1 59708.8 3085.82   8
   9   2   1 52172.9 2378.91   2
  -9   2  -1 62146.8 2703.64   6
  -9  -2  -1 64096.1 2463.61   6
  -9   2  -2 1721.26 478.369   6
   9   2   2 1428.34 409.023   2
  -9  -2  -2 2958.32 550.624   6
   9  -2   2 1832.94 511.864  10
   9   2   2 2103.80 599.037  10
  -9   2  -2 2754.68 665.946   8
  -9  -2  -2 1428.23 526.925   8
  -9   2  -3 4503.69 819.696   6
  -9  -2  -3 3886.08 694.512   6
   9   2   3 4049.17 707.286   2
   9  -2   3 5267.54 887.111  10
   9   2   3 3597.39 772.546  10
  -9   2  -3 4045.56 813.611   8
  -9  -2  -3 3049.99 758.641   8
  -9   2  -4 5455.20 902.479   6
  -9  -2  -4 4783.87 830.284   6
   9  -2   4 5535.15 945.988  10
   9   2   4 5870.11 1021.49  10
   9   2   4 3905.21 764.992   2
  -9   2  -4 4716.39 907.826   8
  -9  -2  -4 4299.86 853.098   8
  -9   2  -5 559.566 360.782   6
  -9  -2  -5 822.005 443.515   6
   9  -2   5 617.920 386.332  10
   9   2   5 1233.08 543.369  10
   9   2   5 878.781 430.773   2
  -9   2  -5 302.093 252.482   8
  -9  -2  -5 1514.95 626.698   8
   9  -2   5 886.444 456.908   2
  -9   2  -6 575.565 393.571   6
  -9  -2  -6 91.6361 414.948   6
   9  -2   6 276.752 331.105  10
   9   2   6 346.452 502.685  10
   9   2   6 217.129 318.146   2
  -9   2  -6 326.172 315.795   8
  -9  -2  -6 7.72014 304.088   8
   9  -2   6 354.030 345.431   2
   9  -2   7 16916.0 1773.02  10
   9   2   7 20092.4 2011.99  10
  -9  -2  -7 18710.6 1816.16   8
   9  -2   7 20868.2 2012.58   2
   9   2   7 20512.7 1934.27   2
  -9   2  -7 18508.7 1910.93   6
  -9  -2  -7 21022.3 2016.21   6
  -9   2  -8 666.148 447.996   6
  -9  -2  -8 1784.63 755.380   6
   9  -2   8 775.107 599.895  10
   9   2   8 684.628 569.755   2
  -9   3  11 354.132 534.144   9
  -9  -3  11 302.436 411.220   9
   9  -3 -11 272.133 356.849   3
   9   3 -11 1473.93 698.800   3
   9   3 -10 1118.31 647.745   3
  -9   3  10 1820.22 704.079   9
  -9  -3  10 2049.86 778.539   9
   9  -3 -10 2720.68 757.187   3
   9   3  -9 498.531 515.126   3
  -9   3   9 70.8043 438.585   9
  -9  -3   9-207.406 432.800   9
   9  -3  -9 155.262 311.647   3
   9  -3  -8 2728.63 684.570   3
   9   3  -8 2566.82 745.154   3
  -9   3   8 1241.62 536.526   9
  -9  -3   8 2924.61 792.177   9
  -9   3   8 2160.00 525.742   8
   9  -3  -8 1941.30 565.476   7
  -9  -3   8 2936.33 649.290   4
   9  -3  -7 554.015 358.600   3
   9   3  -7 1206.07 537.030   3
  -9   3   7 728.246 567.539   9
  -9  -3   7 982.704 467.310   9
  -9   3   7 1033.18 404.661   8
  -9  -3   7 1177.58 456.191   8
   9  -3  -7 351.000 317.403   7
  -9  -3   7 1402.88 533.492   4
   9  -3  -6 6717.67 963.884   3
  -9   3   6 11140.1 1236.21   9
  -9  -3   6 8985.73 1100.97   9
  -9   3   6 8574.12 1072.88   8
  -9  -3   6 7922.12 1097.88   8
   9   3  -6 10013.0 1267.69   3
   9  -3  -6 8391.55 1049.49   7
  -9  -3   6 8658.16 1131.64   4
   9  -3  -5 4138.86 744.166   3
  -9   3   5 5414.70 826.145   9
   9   3  -5 5947.33 996.652   3
  -9  -3   5 3004.16 638.114   9
  -9   3   5 3188.61 730.588   8
  -9  -3   5 4954.04 861.800   8
   9  -3  -5 4251.92 756.354   7
  -9  -3   5 5350.83 888.662   4
   9  -3  -4 4555.61 775.516   3
  -9   3   4 5540.94 759.494   9
  -9  -3   4 4822.73 721.775   9
   9   3  -4 5324.07 928.060   3
  -9   3   4 4185.15 754.448   8
  -9  -3   4 5778.38 933.735   8
   9  -3  -4 6067.19 911.000   7
  -9  -3   4 5615.93 954.428   4
   9   3  -3 6061.58 964.998  10
  -9   3   3 5182.01 697.924   9
   9  -3  -3 6991.84 913.215   3
  -9  -3   3 6464.10 774.572   9
  -9   3   3 6851.72 993.428   8
   9  -3  -3 4850.21 831.687   7
  -9  -3   3 5531.10 919.097   4
   9  -3  -2 23141.2 1760.77  10
   9   3  -2 23375.1 1845.21  10
  -9   3   2 21099.6 1730.57   8
  -9  -3   2 26300.8 1984.30   4
   9  -3  -2 24128.9 1827.61   7
   9  -3  -1 1349.36 459.164  10
   9   3  -1 1055.91 455.977  10
  -9   3   1 1033.45 479.485   8
   9  -3  -1 1253.29 459.508   7
  -9  -3   1 1071.50 528.946   4
   9  -3   0 4737.94 803.076  10
   9   3   0 6217.90 983.540  10
  -9   3   0 6803.08 1031.60   8
   9  -3   0 6763.25 1011.67   7
  -9  -3   0 7337.85 1083.26   4
  -9   3  -1 20.6704 313.972   6
   9  -3   1 15.7349 318.453  10
   9   3   1 598.322 361.302  10
   9   3   1-485.639 263.855   2
  -9   3  -1-36.2267 448.404   8
   9  -3   1 556.866 481.635   7
  -9  -3  -1 761.469 498.327   4
  -9   3  -2 694.645 396.381   6
  -9  -3  -2 211.527 250.108   6
   9  -3   2-502.331 334.851  10
   9   3   2-325.725 301.157  10
   9   3   2-57.4683 257.973   2
  -9   3  -2 365.084 465.116   8
  -9  -3  -2 410.891 425.178   8
   9  -3   3 7992.82 1097.98  10
   9   3   3 8842.78 1197.58  10
  -9   3  -3 10190.7 1235.64   8
   9   3   3 8663.44 1034.40   2
  -9  -3  -3 9634.08 1259.19   8
  -9   3  -3 9925.88 1192.67   6
  -9  -3  -3 9677.50 1068.38   6
  -9   3  -4 44.9924 368.855   6
  -9  -3  -4 587.957 451.098   6
   9  -3   4 80.1724 262.653  10
   9   3   4 416.072 360.766  10
   9   3   4 171.660 334.778   2
  -9   3  -4 15.3269 280.295   8
  -9  -3  -4 42.0422 370.861   8
  -9   3  -5 10524.9 1350.05   6
  -9  -3  -5 9701.01 1222.96   6
   9  -3   5 9528.37 1238.81  10
   9   3   5 10724.4 1410.03  10
   9   3   5 7607.22 1100.04   2
   9  -3   5 10261.4 1335.60   2
  -9   3  -5 9863.43 1254.83   8
  -9  -3  -5 9600.58 1311.18   8
  -9   3  -6 8638.18 1335.15   6
  -9  -3  -6 9174.17 1301.28   6
   9  -3   6 8569.81 1200.12  10
   9   3   6 10144.0 1395.13  10
   9   3   6 6413.86 1071.04   2
  -9   3  -6 10238.3 1295.26   8
  -9  -3  -6 8056.24 1205.12   8
   9  -3   6 8692.13 1289.76   2
  -9   3  -7 6341.30 1139.27   6
  -9  -3  -7 6056.70 1087.34   6
   9  -3   7 5199.74 959.782  10
   9   3   7 4158.42 983.583  10
   9   3   7 4322.69 913.714   2
  -9  -3  -7 3825.12 899.042   8
   9  -3   7 6864.78 1192.51   2
  -9  -3  -8 1427.23 711.373   6
   9  -3   8 3347.94 826.125  10
   9   3   8 2739.36 833.307   2
   9  -4 -11 2157.50 761.740   3
   9   4 -10 4316.46 998.169   3
  -9   4  10 5243.97 1128.94   9
  -9  -4  10 2388.07 714.151   9
   9  -4 -10 3255.41 833.654   3
   9   4  -9 1074.06 575.143   3
  -9   4   9 451.212 504.829   9
  -9  -4   9 450.929 519.104   9
   9  -4  -9 1204.64 498.298   3
  -9   4   8 32494.5 2408.39   9
  -9  -4   8 36103.1 2551.46   9
  -9   4   8 33731.5 2160.00   8
   9  -4  -8 30175.1 2191.14   3
   9   4  -8 33827.8 2478.09   3
   9  -4  -8 29339.5 2137.89   7
  -9  -4   8 36812.6 2371.51   4
   9  -4  -7-123.145 320.312   3
   9   4  -7 140.608 313.778   3
  -9   4   7 1299.12 528.119   9
  -9  -4   7 671.393 447.826   9
  -9   4   7 601.272 355.550   8
  -9  -4   7 478.207 462.141   8
   9  -4  -7 433.475 403.884   7
  -9  -4   7 654.139 447.977   4
  -9   4   6 12757.4 1353.74   9
  -9  -4   6 14530.6 1465.75   9
  -9   4   6 12701.0 1332.64   8
   9  -4  -6 10869.8 1216.47   3
   9   4  -6 12854.3 1458.58   3
   9  -4  -6 11582.3 1297.79   7
  -9  -4   6 12484.3 1379.36   4
  -9   4   5 11946.8 1245.49   9
  -9  -4   5 15264.3 1411.37   9
  -9   4   5 11350.3 1295.49   8
   9  -4  -5 12763.9 1288.21   3
   9   4  -5 15214.0 1541.86   3
   9  -4  -5 14575.6 1438.14   7
  -9  -4   5 14034.6 1472.28   4
  -9   4   4 11329.8 1122.96   9
  -9  -4   4 12822.4 1215.59   9
  -9   4   4 10968.5 1250.91   8
   9  -4  -4 12128.9 1197.68   3
   9   4  -4 11496.3 1327.87   3
   9  -4  -4 10620.7 1246.40   7
  -9  -4   4 10089.0 1260.21   4
   9   4  -3 1596.28 529.085  10
   9  -4  -3 1793.25 517.194   3
  -9   4   3 811.219 317.755   9
  -9  -4   3 1007.87 373.146   9
  -9   4   3 912.310 470.230   8
   9  -4  -3 1735.30 494.771   7
  -9  -4   3 1397.18 509.690   4
   9  -4  -2 1762.62 495.633  10
   9   4  -2 1117.26 500.854  10
   9  -4  -2 1711.87 472.020   3
  -9   4   2 1750.89 564.564   8
   9  -4  -2 1222.13 543.459   7
  -9  -4   2 1402.59 520.067   4
   9  -4  -1 269.528 245.291  10
   9   4  -1 63.1956 295.933  10
  -9   4   1 649.167 392.308   8
   9  -4  -1 1074.00 519.367   7
  -9  -4   1 57.5596 325.911   4
   9  -4   0 12869.7 1285.61  10
   9   4   0 16306.2 1571.79  10
  -9   4   0 14031.5 1476.68   8
  -9  -4   0 15235.8 1558.44   4
   9  -4   0 13922.1 1481.17   7
   9  -4   1 1154.24 468.288  10
   9   4   1 1178.68 501.010  10
  -9   4  -1 1497.07 604.073   8
   9  -4   1 1454.77 569.570   7
  -9  -4  -1 1319.72 619.037   4
   9  -4   2 8282.58 1067.61  10
   9   4   2 7947.40 1137.75  10
  -9   4  -2 5490.96 959.665   8
   9  -4   2 8828.47 1212.87   7
  -9   4  -2 8494.02 1112.63   6
  -9  -4  -2 7185.82 1139.55   4
  -9   4  -3 5390.09 936.133   6
  -9  -4  -3 6886.48 930.646   6
   9  -4   3 4744.80 834.499  10
   9   4   3 6392.19 1058.96  10
   9   4   3 4795.39 751.102   2
  -9   4  -3 5818.41 988.762   8
   9  -4   3 7156.04 1133.80   7
  -9  -4  -3 7543.58 1144.33   4
   9  -4   4 14058.9 1431.25  10
   9   4   4 12668.8 1499.55  10
  -9   4  -4 11888.3 1386.23   8
   9   4   4 12328.9 1307.07   2
  -9   4  -4 13407.6 1500.01   6
  -9  -4  -4 13312.2 1366.84   6
  -9   4  -5 77.6537 331.070   6
  -9  -4  -5-209.422 368.301   6
   9  -4   5 1582.20 541.239  10
   9   4   5 428.573 444.031  10
  -9   4  -5 335.146 410.080   8
   9   4   5 956.215 480.236   2
  -9  -4  -5-76.8078 380.448   8
  -9   4  -6 111.058 369.548   6
  -9  -4  -6 20.0176 351.831   6
   9  -4   6 317.445 372.613  10
   9   4   6 51.0457 349.129  10
  -9   4  -6 13.9442 294.549   8
   9   4   6 500.768 412.423   2
  -9  -4  -6 1005.40 553.286   8
   9  -4   6 353.626 396.579   2
  -9   4  -7 991.864 619.783   6
  -9  -4  -7 475.788 359.943   6
   9  -4   7-244.608 369.701  10
   9   4   7 784.590 570.316  10
   9   4   7 2.85993 301.148   2
   9  -4   7 133.797 389.662   2
   9  -4   8 1825.44 637.513  10
   9  -5 -11 75.7045 323.108   3
   9   5 -10-761.078 489.250   3
  -9   5  10 171.240 517.893   9
  -9  -5  10 898.215 543.706   9
   9  -5 -10 649.180 533.661   3
   9   5  -9 6189.28 1125.73   3
  -9   5   9 7058.18 1184.07   9
  -9  -5   9 8417.50 1321.32   9
   9  -5  -9 7411.79 1146.25   7
   9  -5  -9 7531.24 1144.26   3
   9   5  -8 915.569 566.986   3
  -9   5   8 491.923 320.911   9
  -9  -5   8 375.688 382.534   9
  -9   5   8 875.359 440.602   8
   9  -5  -8 1491.97 585.600   7
   9  -5  -8 195.348 301.538   3
  -9  -5   8 178.818 286.850   4
   9  -5  -7 9535.99 1167.56   3
   9   5  -7 10889.1 1397.92   3
  -9   5   7 11663.0 1416.98   9
  -9  -5   7 11192.2 1392.00   9
  -9   5   7 9756.23 1239.09   8
   9  -5  -7 9644.89 1250.38   7
  -9  -5   7 7943.17 1158.12   4
   9  -5  -6 5224.15 870.596   3
   9   5  -6 6294.51 1024.62   3
  -9   5   6 5753.38 950.693   9
  -9  -5   6 5084.45 890.727   9
  -9   5   6 4464.84 831.739   8
   9  -5  -6 4842.93 908.063   7
  -9  -5   6 5908.25 1017.49   4
  -9   5   5 12193.8 1316.53   9
  -9  -5   5 11230.6 1255.55   9
  -9   5   5 11895.8 1346.46   8
   9  -5  -5 11943.9 1206.02   3
   9   5  -5 14979.6 1566.75   3
   9  -5  -5 11184.3 1348.85   7
  -9  -5   5 14293.2 1531.14   4
  -9   5   4 14444.9 1340.99   9
  -9  -5   4 17607.3 1463.90   9
  -9   5   4 14635.9 1503.79   8
   9  -5  -4 13736.9 1261.78   3
   9  -5  -4 16031.5 1594.74   7
  -9  -5   4 15331.1 1588.51   4
   9   5  -3 7031.50 1055.69  10
  -9  -5   3 7730.02 925.112   9
  -9   5   3 6692.62 1037.72   8
   9  -5  -3 9232.70 1005.14   3
   9  -5  -3 8311.53 1157.47   7
   9   5  -2 2127.37 653.127  10
   9  -5  -2 3029.78 594.490   3
  -9   5   2 2308.35 651.241   8
   9  -5  -2 2474.68 670.261   7
  -9  -5   2 2226.77 676.593   4
   9  -5  -1 4838.61 804.485  10
   9   5  -1 3483.16 734.890  10
  -9   5   1 3694.21 879.561   8
   9  -5  -1 4162.25 854.416   7
  -9  -5   1 4341.43 917.543   4
   9  -5   0 2153.64 541.085  10
   9   5   0 1650.38 597.211  10
  -9   5   0 2069.53 647.029   8
   9  -5   0 1944.80 607.420   7
  -9  -5   0 1634.78 579.016   4
   9  -5   1 2155.66 539.621  10
   9   5   1 2613.34 706.684  10
  -9   5  -1 3161.49 769.412   8
   9  -5   1 3413.51 815.603   7
  -9  -5  -1 2547.14 749.422   4
   9  -5   2 14103.6 1364.42  10
   9   5   2 14537.0 1552.67  10
  -9   5  -2 11428.1 1415.01   8
   9  -5   2 12506.9 1497.88   7
  -9  -5  -2 10413.9 1386.74   4
   9  -5   3 19813.0 1650.62  10
   9   5   3 18424.6 1791.43  10
  -9   5  -3 18369.1 1778.87   8
  -9  -5  -3 17833.5 1809.63   4
   9  -5   3 19853.1 1920.61   7
  -9   5  -4 840.249 499.888   6
  -9  -5  -4 181.280 410.423   6
   9  -5   4 372.102 356.777  10
   9   5   4 137.191 373.533  10
  -9   5  -4 452.515 435.626   8
   9  -5   4-273.174 390.087   7
  -9  -5  -4 113.359 357.116   4
  -9   5  -5 11206.6 1480.97   6
  -9  -5  -5 9346.54 1271.47   6
   9   5   5 9422.58 1356.30  10
  -9   5  -5 7436.57 1149.01   8
   9  -5   5 12289.8 1583.89   7
  -9   5  -6 1533.04 652.555   6
  -9  -5  -6 1469.14 586.746   6
   9   5   6 4334.42 969.024  10
   9  -5   6 3856.08 915.305   2
  -9   5  -6 898.768 336.108   8
  -9  -5  -6 1504.64 585.048   8
   9  -5   6 1730.27 684.410   7
  -9  -5  -7 325.167 479.670   6
   9   5   7 333.943 465.351   2
   9  -6 -10 389.291 444.462   7
   9   6  -9 31.9829 316.285   3
  -9   6   9 1290.83 574.737   9
  -9  -6   9 1035.17 674.831   9
   9  -6  -9 1495.62 648.084   7
  -9  -6   8 3556.70 839.724   4
   9   6  -8 2058.07 667.093   3
  -9   6   8 2155.26 726.727   9
  -9  -6   8 3698.08 879.999   9
  -9   6   8 4215.37 886.149   8
   9  -6  -8 2667.96 784.160   7
  -9  -6   7 356.006 335.800   4
   9   6  -7 559.394 488.758   3
  -9   6   7 615.191 408.773   9
  -9  -6   7-88.8362 276.799   9
  -9   6   7 428.610 470.609   8
   9  -6  -7 8.07806 486.812   7
  -9   6   6 11866.8 1394.50   9
  -9  -6   6 11979.1 1391.51   9
  -9   6   6 12688.8 1440.50   8
   9   6  -6 11421.4 1399.93   3
   9  -6  -6 11433.6 1430.42   7
  -9  -6   6 13435.1 1534.41   4
  -9  -6   5 226.126 376.599   4
   9   6  -5 911.712 472.051   3
  -9   6   5-238.270 307.847   9
  -9  -6   5-161.961 290.464   9
  -9   6   5 260.387 406.184   8
   9  -6  -5 899.990 500.662   7
  -9  -6   4 1501.34 607.827   4
   9   6  -4 1071.80 505.395   3
  -9  -6   4 471.970 271.684   9
  -9   6   4 1062.17 513.333   8
   9  -6  -4 1552.30 603.910   7
  -9  -6   3 7383.92 1206.37   4
   9   6  -3 5855.50 975.653  10
  -9   6   3 6347.52 1052.30   8
   9  -6  -3 7420.86 1159.45   7
  -9  -6   2 10355.2 1370.51   4
   9   6  -2 9678.52 1254.48  10
  -9   6   2 8526.64 1215.44   8
   9  -6  -2 8028.81 1157.95   7
   9   6  -1 11594.9 1376.40  10
  -9   6   1 10384.9 1331.16   8
  -9  -6   1 12258.5 1501.07   4
   9  -6  -1 10356.1 1342.26   7
   9   6   0 828.403 397.555  10
  -9   6   0 251.641 349.849   8
   9  -6   0 928.992 457.388   7
  -9  -6   0 1019.52 594.055   4
   9   6   1 6159.01 1036.97  10
  -9   6  -1 4693.75 907.685   8
   9  -6   1 5031.46 1000.04   7
  -9  -6  -1 6912.13 1139.53   4
   9   6   2 19127.9 1811.45  10
  -9   6  -2 19471.0 1883.14   8
   9  -6   2 19154.0 1914.71   7
  -9  -6  -2 19957.3 1942.92   4
   9   6   3 3993.21 917.220  10
  -9   6  -3 3829.46 836.943   8
   9  -6   3 3256.98 824.699   7
  -9  -6  -3 2655.19 758.421   4
   9   6   4 288.875 520.825  10
  -9   6  -4 346.518 340.576   8
   9  -6   4 396.007 336.431   7
  -9  -6  -4-323.044 398.947   4
  -9  -6  -5 2130.99 654.574   6
   9   6   5 2683.78 798.757  10
  -9   6  -5 1558.82 646.689   8
  -9  -6  -5 1332.64 547.350   4
   9  -6   5 2265.30 770.093   7
  -9   6  -5 3552.23 900.489   6
  -9  -6  -6 10950.7 1460.00   6
   9   6   6 13631.9 1699.33  10
  -9   6  -6 13663.9 1591.59   8
   9  -6   6 13303.3 1719.26   7
   9   7  -9 570.179 324.920   3
  -9  -7   8 3990.78 903.342   4
   9   7  -8 4617.52 989.494   3
  -9   7   8 3818.72 905.823   9
  -9  -7   8 5208.01 1071.85   9
   9  -7  -8 6512.33 1167.85   7
  -9  -7   7 4012.33 984.437   4
   9   7  -7 3536.95 806.382   3
  -9   7   7 4716.11 1026.26   9
  -9  -7   7 3592.29 903.729   9
  -9   7   7 3843.68 842.772   8
   9  -7  -7 2650.00 765.014   7
  -9  -7   6-168.727 436.074   4
   9   7  -6 265.805 452.832   3
  -9   7   6-1016.55 500.744   9
  -9  -7   6 208.233 377.260   9
  -9   7   6 96.0874 317.215   8
   9  -7  -6 226.307 339.529   7
  -9  -7   5 2098.65 695.818   4
   9   7  -5 2516.63 695.891   3
  -9  -7   5 2267.73 670.583   9
  -9   7   5 1246.98 644.174   8
   9  -7  -5 1568.42 594.072   7
  -9  -7   4 1571.26 602.863   4
   9   7  -4 1953.00 625.794   3
  -9   7   4 1179.68 503.030   8
   9  -7  -4 1098.57 558.549   7
  -9  -7   3-96.8004 399.832   4
   9   7  -3-57.3456 316.674   3
  -9   7   3 501.189 421.643   8
   9  -7  -3-18.3061 311.123   7
   9   7  -2 23717.6 1971.76  10
  -9   7   2 22947.4 2056.45   8
   9  -7  -2 25318.4 2174.55   7
  -9  -7   2 24046.4 2155.68   4
  -9  -7   1 11964.9 1514.34   4
   9   7  -1 11776.7 1372.54  10
  -9   7   1 9453.34 1346.55   8
   9  -7  -1 10881.2 1416.51   7
   9   7   0 8638.59 1207.63  10
  -9   7   0 10905.5 1446.19   8
   9  -7   0 10873.3 1447.70   7
  -9  -7   0 11470.1 1515.68   4
   9   7   1 539.367 441.245  10
  -9   7  -1 400.490 418.644   8
   9  -7   1 1811.69 678.478   7
  -9  -7  -1 1061.39 631.489   4
   9   7   2 16940.9 1761.93  10
  -9   7  -2 16045.7 1771.90   8
   9  -7   2 16837.5 1833.77   7
  -9  -7  -2 15488.2 1767.03   4
   9   7   3 683.284 478.442  10
  -9   7  -3 649.493 358.630   8
   9  -7   3 1161.04 612.998   7
  -9  -7  -3 92.2027 389.922   4
   9   7   4 1998.10 668.730  10
  -9   7  -4 4120.07 973.824   8
   9  -7   4 1685.51 684.126   7
  -9  -7  -4 2163.94 718.992   4
   9   7   5 2883.53 826.729  10
  -9   7  -5 3040.49 849.017   8
   9  -7   5 1246.99 691.738   7
  -9  -7  -5 2392.78 817.827   4
  -9   7  -6 942.499 547.327   8
   9   8  -8 3593.97 836.939   3
  -9  -8   7 4394.79 999.775   4
   9   8  -7 2427.64 767.562   3
  -9  -8   7 2700.65 745.420   9
  -9   8   7 2350.05 724.001   8
  -9  -8   6 5212.77 1082.40   4
   9   8  -6 4723.68 943.886   3
  -9  -8   6 4044.65 907.384   9
  -9   8   6 4796.93 1015.89   8
   9  -8  -6 3851.45 972.511   7
  -9  -8   5 7731.99 1292.38   4
   9   8  -5 6476.16 1094.79   3
  -9   8   5 7441.63 1228.95   8
   9  -8  -5 6035.56 1160.42   7
  -9  -8   4 1100.81 525.938   4
   9   8  -4 1466.96 604.704   3
  -9   8   4 1842.08 700.854   8
   9  -8  -4 2379.44 763.349   7
  -9  -8   3 8919.57 1415.81   4
   9   8  -3 9093.09 1254.42   3
  -9   8   3 8665.87 1347.21   8
   9  -8  -3 9664.51 1425.11   7
  -9  -8   2 1961.93 761.659   4
   9   8  -2 1278.18 522.353  10
  -9   8   2 803.627 593.094   8
   9  -8  -2 1392.82 591.183   7
  -9  -8   1 1579.56 717.254   4
   9   8  -1 2017.77 601.841  10
  -9   8   1 1730.54 627.578   8
   9  -8  -1 1289.46 624.026   7
  -9  -8   0 2981.12 800.475   4
   9   8   0 3087.77 757.918  10
  -9   8   0 2221.65 765.743   8
   9  -8   0 4218.21 971.533   7
   9   8   1-52.8147 379.552  10
  -9   8  -1 1246.31 652.898   8
   9  -8   1 681.093 485.092   7
  -9  -8  -1 550.590 469.532   4
   9   8   2 337.408 356.896  10
  -9   8  -2 741.423 447.825   8
   9  -8   2 1168.30 544.911   7
  -9  -8  -2-6.49262 450.704   4
   9   8   3 1589.39 633.326  10
  -9   8  -3 172.861 327.909   8
   9  -8   3 961.780 538.959   7
  -9  -8  -3 1330.08 585.522   4
   9   8   4 4553.56 951.017  10
  -9  -8  -4 2853.85 920.523   4
  -9   9   3 2260.87 844.693   8
  -9  -9   2 2104.98 750.776   4
  -9   9   2 933.506 544.067   8
   9  -9  -2 352.214 519.184   7
  -9  -9   1 65.1291 415.412   4
   9  -9  -1 313.722 443.473   7
 -10   0  11-342.187 405.754   9
  10   0 -10 7356.56 1248.11   3
 -10   0  10 5079.30 1073.93   9
  10   0  -9 202.597 472.956   3
 -10   0   9 728.919 496.426   9
  10   0  -8 4755.83 952.559   3
 -10   0   8 6396.83 1049.52   9
  10   0  -7 265.410 347.341   3
 -10   0   7 512.541 417.513   9
 -10   0   7 766.789 397.645   8
 -10   0   6 18549.6 1558.01   9
 -10   0   6 17306.3 1616.05   8
  10   0  -6 16995.6 1671.60   3
  10   0  -5 540.394 500.887   3
 -10   0   5 44.0252 235.105   9
 -10   0   5 91.2052 274.734   8
  10   0  -5-189.449 250.480   7
 -10   0   4-199.164 406.789   8
  10   0  -4 122.156 315.704   7
  10   0  -3-63.8028 290.299  10
 -10   0   3 22.1560 308.341   8
  10   0  -3 167.909 283.303   7
  10   0  -2 7223.17 1099.22  10
 -10   0   2 10152.9 1278.42   8
  10   0  -2 8184.16 1048.17   7
  10   0  -1 76.0778 322.892  10
 -10   0   1 32.5996 342.540   8
  10   0   0 54249.4 2983.94  10
 -10   0   0 60048.9 3214.43   8
  10   0   1-37.1374 278.497  10
 -10   0  -1-30.2004 318.354   8
  10   0   2 19021.0 1770.08  10
  10   0   2 16312.8 1491.86   2
 -10   0  -2 15226.6 1614.23   8
 -10   0  -2 19868.0 1538.92   6
 -10   0  -3 400.361 288.307   6
  10   0   3 319.973 479.539  10
 -10   0  -3 621.529 492.976   8
  10   0   3 101.229 270.926   2
  10   0   4 1216.25 399.394   2
 -10   0  -4 2865.23 714.802   6
  10   0   4 1816.30 580.092  10
 -10   0  -4 1574.13 602.680   8
  10   0   5-83.6736 312.078   2
 -10   0  -5 271.499 290.186   6
  10   0   5-50.0471 410.601  10
 -10   0  -5 5.42454 316.151   8
 -10   0  -6 4709.17 962.064   6
  10   0   6 3021.22 781.035   2
  10   0   6 5790.36 1081.32  10
 -10   0  -6 4082.99 866.071   8
 -10   0  -7-528.607 464.605   6
  10   0   7 822.129 496.879  10
  10   0   7-283.058 421.295   2
 -10   1  11 2201.77 866.221   9
 -10  -1  11 2487.38 825.520   9
  10  -1 -10 288.456 426.853   3
  10   1 -10 252.677 338.934   3
 -10   1  10 635.097 531.933   9
 -10  -1  10 463.567 413.251   9
  10   1  -9 11024.0 1469.21   3
 -10   1   9 12861.8 1530.28   9
 -10  -1   9 12137.2 1477.94   9
  10  -1  -9 12831.0 1567.49   3
  10  -1  -8 1522.04 671.727   3
  10   1  -8 1109.53 446.229   3
 -10   1   8 1842.69 655.785   9
 -10  -1   8 866.327 464.572   9
  10  -1  -7 1391.41 586.339   3
  10   1  -7 706.298 470.556   3
 -10   1   7 739.156 449.351   9
 -10  -1   7 552.770 423.625   9
 -10   1   7 530.460 328.050   8
 -10  -1   7 4.37595 305.631   8
  10  -1  -6 4460.82 876.410   3
  10   1  -6 3047.41 718.165   3
 -10   1   6 2726.49 627.226   9
 -10  -1   6 2844.09 652.787   9
 -10   1   6 4006.11 800.721   8
 -10  -1   6 3010.61 686.016   8
  10  -1  -5 8208.38 1147.63   3
  10   1  -5 6510.79 1051.55   3
 -10   1   5 7369.65 941.663   9
 -10  -1   5 5761.21 831.267   9
 -10   1   5 6068.42 968.295   8
 -10  -1   5 5524.50 970.190   8
  10  -1  -5 6918.60 937.428   7
 -10   1   4 21960.9 1833.40   8
 -10  -1   4 21240.4 1822.62   8
  10  -1  -4 22480.1 1816.71   3
  10   1  -4 20650.9 1814.95   3
  10  -1  -4 20532.0 1599.96   7
  10   1  -4 20095.8 1468.62   7
  10  -1  -3 3844.37 825.635  10
  10   1  -3 3751.51 808.042  10
  10  -1  -3 4811.41 840.516   3
 -10   1   3 3320.47 767.005   8
 -10  -1   3 4629.62 858.677   8
  10  -1  -3 5323.75 858.348   7
  10   1  -3 5193.74 791.350   7
  10  -1  -2 2590.55 664.200  10
  10   1  -2 2600.55 669.174  10
 -10   1   2 3591.99 773.284   8
 -10  -1   2 3927.02 813.459   8
  10  -1  -2 2631.09 663.911   7
  10  -1  -1 14818.3 1513.28  10
  10   1  -1 14660.0 1522.79  10
 -10   1   1 16474.7 1624.50   8
 -10  -1   1 15680.8 1603.42   8
  10  -1  -1 16273.6 1528.45   7
  10  -1   0 260.622 332.774  10
  10   1   0 232.930 367.161  10
 -10   1   0 872.876 453.288   8
 -10  -1   0 1468.65 626.910   8
  10   1   0 310.312 245.300   2
 -10   1  -1 1856.79 520.008   6
  10  -1   1 956.299 447.216  10
  10   1   1 705.527 446.592  10
 -10   1  -1 694.099 404.129   8
 -10  -1  -1 1585.25 617.561   8
  10   1   1 502.254 343.657   2
  10  -1   2 11167.8 1346.09  10
  10   1   2 13217.6 1501.01  10
 -10   1  -2 14677.9 1575.82   8
  10   1   2 12183.0 1225.46   2
 -10  -1  -2 9952.40 1332.52   8
 -10   1  -2 14446.8 1335.94   6
  10   1   3 1093.06 415.172   2
 -10   1  -3 466.400 353.878   6
 -10  -1  -3 1141.64 477.848   6
  10  -1   3 741.634 609.685  10
  10   1   3 233.513 385.607  10
 -10   1  -3 691.040 486.309   8
 -10  -1  -3 668.094 495.101   8
  10  -1   3 740.363 435.539   2
  10  -1   4 16305.9 1683.47  10
  10   1   4 14859.4 1652.38  10
  10  -1   4 14915.0 1564.57   2
 -10   1  -4 12005.6 1504.53   8
 -10  -1  -4 17989.5 1833.42   8
  10   1   4 15948.3 1567.96   2
 -10   1  -4 13437.4 1421.66   6
 -10  -1  -4 12286.7 1367.36   6
 -10   1  -5 1072.36 497.013   6
 -10  -1  -5 891.784 492.150   6
  10   1   5 331.672 395.510   2
  10  -1   5 466.090 379.589  10
  10   1   5 520.485 427.013  10
 -10   1  -5 958.381 493.165   8
 -10  -1  -5 109.295 317.253   8
  10  -1   5 1020.85 559.918   2
  10  -1   6 6174.05 1090.88   2
 -10   1  -6 5240.28 1020.44   6
 -10  -1  -6 7569.08 1175.94   6
  10  -1   6 6093.77 1130.10  10
  10   1   6 9312.25 1394.76  10
  10   1   6 6174.45 1099.10   2
 -10   1  -6 6887.11 1125.65   8
 -10  -1  -6 6993.41 1148.01   8
 -10   1  -7 3430.01 904.921   6
 -10  -1  -7 1664.20 632.052   6
  10  -1   7 2485.05 760.140   2
  10  -1   7 1534.35 626.615  10
  10   1   7 1595.88 652.126   2
  10   2 -10 4168.38 954.271   3
 -10   2  10 1872.44 667.934   9
 -10  -2  10 2058.72 728.999   9
  10  -2 -10 2427.92 766.381   3
  10  -2  -9 10653.3 1441.72   3
  10   2  -9 9786.69 1414.69   3
 -10   2   9 12954.1 1552.53   9
 -10  -2   9 10245.1 1390.91   9
  10  -2  -8 4963.23 956.821   3
  10   2  -8 5025.95 1010.74   3
 -10   2   8 4077.60 878.730   9
 -10  -2   8 5962.77 1035.42   9
 -10   2   8 4039.14 777.487   8
 -10   2   7 13275.5 1435.96   9
 -10  -2   7 17916.8 1675.09   9
 -10   2   7 17425.1 1591.51   8
 -10  -2   7 17439.0 1645.16   8
  10  -2  -7 18743.3 1756.34   3
  10   2  -7 15936.4 1683.13   3
  10  -2  -6 1520.08 542.925   3
  10   2  -6 1609.04 578.647   3
 -10   2   6 1735.92 585.775   9
 -10  -2   6 611.351 404.312   9
 -10   2   6 857.744 426.956   8
 -10  -2   6 1764.28 573.393   8
  10  -2  -6 756.608 352.762   7
 -10   2   5 12799.2 1258.25   9
 -10  -2   5 14823.6 1325.17   9
 -10   2   5 13213.4 1426.45   8
 -10  -2   5 13782.2 1470.89   8
  10  -2  -5 12294.2 1375.37   3
  10   2  -5 12764.8 1463.54   3
  10  -2  -5 13425.8 1333.95   7
  10   2  -4 7455.55 1117.84   3
 -10   2   4 7887.66 1101.21   8
 -10  -2   4 8149.31 1142.51   8
  10  -2  -4 9813.45 1192.51   3
  10  -2  -4 9174.30 1105.23   7
  10  -2  -3 1329.37 493.147  10
  10   2  -3 1060.86 571.715  10
  10  -2  -3 210.301 283.942   3
 -10   2   3 1313.97 566.132   8
 -10  -2   3 874.810 534.105   8
  10  -2  -3 1136.17 421.542   7
  10  -2  -2 307.801 382.416  10
  10   2  -2 321.557 282.803  10
 -10   2   2-203.840 337.684   8
 -10  -2   2 477.984 336.485   8
  10  -2  -2 921.140 447.897   7
  10  -2  -1 728.632 454.631  10
  10   2  -1 45.6396 253.100  10
 -10   2   1 563.994 444.495   8
 -10  -2   1 362.088 441.961   8
  10  -2  -1-302.999 364.297   7
  10  -2   0 1379.47 524.242  10
  10   2   0 1280.37 599.880  10
 -10   2   0 729.022 508.182   8
 -10  -2   0 1339.13 469.815   8
  10  -2   0 490.362 438.259   7
 -10   2  -1 4010.10 701.563   6
  10   2   1 3281.72 639.141   2
  10  -2   1 3302.87 758.285  10
  10   2   1 4186.09 873.794  10
 -10   2  -1 1275.81 521.328   8
 -10  -2  -1 4043.06 908.601   8
 -10   2  -2 417.913 400.111   6
  10   2   2 1060.67 381.010   2
  10  -2   2 310.854 291.231  10
  10   2   2 1912.01 628.342  10
 -10   2  -2 1226.43 540.743   8
 -10  -2  -2 371.159 436.110   8
 -10   2  -3 7641.72 1081.84   6
 -10  -2  -3 8344.36 1048.33   6
  10  -2   3 9149.08 1233.87  10
  10   2   3 6901.52 956.070   2
  10   2   3 9234.51 1275.07  10
 -10   2  -3 7966.58 1192.64   8
 -10  -2  -3 7106.20 1155.80   8
 -10   2  -4 5575.28 966.123   6
 -10  -2  -4 6192.72 960.793   6
  10  -2   4 7067.66 1127.97  10
  10   2   4 6919.20 1185.11  10
  10   2   4 5467.68 952.873   2
 -10   2  -4 4329.62 904.663   8
 -10  -2  -4 5367.26 1013.96   8
  10  -2   4 4076.54 879.099   2
 -10   2  -5 1139.84 527.183   6
 -10  -2  -5 1235.38 578.960   6
  10  -2   5 317.453 351.697  10
  10   2   5 1107.50 591.532  10
  10   2   5 983.461 484.659   2
 -10   2  -5 1226.11 559.686   8
 -10  -2  -5 1578.27 652.642   8
  10  -2   5 706.258 431.566   2
  10  -2   6 1610.95 659.660   2
 -10   2  -6 1409.91 571.891   6
 -10  -2  -6 1302.44 527.150   6
  10  -2   6 1930.28 685.270  10
  10   2   6 1289.37 617.969  10
  10   2   6 1058.30 480.530   2
 -10   2  -6 1194.64 510.683   8
 -10  -2  -6 1167.40 603.174   8
 -10   2  -7 4734.22 1037.96   6
 -10  -2  -7 3658.96 939.921   6
  10  -2   7 3500.88 880.093  10
  10   2   7 5648.47 1087.80   2
  10   3 -10 3975.85 939.244   3
 -10   3  10 3309.79 874.682   9
 -10  -3  10 3432.81 946.864   9
  10  -3 -10 2659.11 759.691   3
  10  -3  -9 1051.30 546.096   3
  10   3  -9 1127.97 510.429   3
 -10   3   9 1486.14 606.328   9
 -10  -3   9 1536.09 627.160   9
  10  -3  -8 6895.91 1111.07   3
  10   3  -8 5625.44 1054.86   3
 -10   3   8 6718.78 1104.28   9
 -10  -3   8 6278.78 1051.75   9
 -10   3   8 6865.56 1014.22   8
 -10  -3   8 7352.31 1068.85   4
  10  -3  -7 4386.63 874.930   3
  10   3  -7 3233.71 814.416   3
 -10   3   7 4017.68 859.102   9
 -10  -3   7 4101.09 839.604   9
 -10   3   7 4745.24 845.179   8
 -10  -3   7 3424.09 779.324   8
  10  -3  -7 4579.93 821.446   7
 -10  -3   7 4748.99 915.392   4
  10  -3  -6 5580.85 935.400   3
  10   3  -6 4437.54 891.770   3
 -10   3   6 5081.70 881.628   9
 -10  -3   6 6114.40 949.407   9
 -10   3   6 5357.33 901.814   8
 -10  -3   6 7210.26 1087.34   8
  10  -3  -6 5604.04 880.061   7
 -10  -3   6 8606.98 1207.07   4
  10  -3  -5 6950.66 1026.83   3
 -10  -3   5 9020.64 1075.51   9
 -10   3   5 8785.08 1041.74   9
  10   3  -5 8721.70 1233.13   3
 -10   3   5 8326.32 1138.54   8
 -10  -3   5 6910.09 1076.01   8
  10  -3  -5 9212.92 1177.54   7
 -10  -3   5 9420.63 1238.52   4
  10  -3  -4 4544.20 827.171   3
  10   3  -4 3021.01 739.053   3
 -10   3   4 3344.94 765.175   8
 -10  -3   4 5301.93 930.973   8
  10  -3  -4 2877.76 704.405   7
 -10  -3   4 4118.91 832.417   4
  10   3  -3 1624.58 501.342  10
  10  -3  -3 2855.64 663.755   3
 -10   3   3 2427.72 639.135   8
 -10  -3   3 1479.12 536.936   8
  10  -3  -3 2786.16 695.599   7
 -10  -3   3 3152.53 793.999   4
  10  -3  -2 16351.1 1577.10  10
  10   3  -2 17495.8 1685.63  10
 -10   3   2 17418.9 1678.75   8
 -10  -3   2 18152.2 1744.34   8
 -10  -3   2 16387.7 1655.09   4
  10  -3  -2 17881.5 1663.96   7
  10  -3  -1-164.301 281.054  10
 -10   3   1 755.694 510.835   8
 -10  -3   1-229.317 462.308   8
  10  -3  -1 71.6525 262.661   7
 -10  -3   1-179.807 387.486   4
  10  -3   0 3722.86 777.101  10
  10   3   0 3982.04 844.993  10
 -10   3   0 3087.90 739.126   8
 -10  -3   0 6442.29 1099.78   8
 -10  -3   0 6308.81 1054.96   4
  10  -3   0 4494.68 839.527   7
  10  -3   1 313.356 340.987  10
 -10   3  -1 362.963 375.696   8
 -10  -3  -1 143.796 311.021   8
  10  -3   1 697.958 465.354   7
 -10   3  -2 2786.60 630.389   6
  10  -3   2 3147.24 815.046  10
  10   3   2 1884.68 645.218  10
 -10   3  -2 2148.77 701.132   8
 -10  -3  -2 983.025 552.858   8
 -10   3  -3 3030.49 787.871   6
  10  -3   3 3176.35 729.900  10
  10   3   3 2434.23 778.616  10
 -10   3  -3 3013.19 767.588   8
 -10  -3  -3 2759.18 767.701   8
 -10   3  -4 7668.09 1178.14   6
 -10  -3  -4 6707.98 1008.23   6
  10  -3   4 7634.60 1147.37  10
  10   3   4 6935.07 1206.02  10
  10   3   4 5530.93 905.170   2
 -10   3  -4 8205.67 1231.95   8
 -10  -3  -4 6551.25 1111.25   8
 -10   3  -5 890.834 482.045   6
 -10  -3  -5 1419.83 525.902   6
  10  -3   5 939.351 461.893  10
  10   3   5 2455.61 728.189  10
  10   3   5 1075.35 482.590   2
 -10   3  -5 1631.16 629.327   8
 -10  -3  -5 1100.97 457.375   8
  10  -3   5 971.793 466.448   2
  10  -3   6 16398.4 1777.00  10
  10   3   6 13144.0 1690.57  10
 -10   3  -6 12970.2 1549.53   8
  10  -3   6 14394.3 1710.70   2
 -10  -3  -6 16454.2 1803.89   8
  10   3   6 15499.8 1684.56   2
 -10   3  -6 17522.1 1870.04   6
 -10  -3  -6 15111.2 1672.94   6
 -10  -3  -7 647.439 532.365   6
  10  -3   7 236.621 393.415  10
  10   3   7-137.126 364.869   2
 -10   4  10 8507.56 1424.62   9
 -10  -4  10 7376.83 1299.13   9
  10  -4 -10 9647.43 1377.88   3
  10   4  -9-618.696 468.329   3
 -10   4   9 357.058 460.437   9
 -10  -4   9 626.057 471.136   9
  10  -4  -9-5.47959 466.733   3
  10  -4  -8 1604.29 537.749   3
  10   4  -8 1707.74 622.323   3
 -10   4   8 1397.54 580.674   9
 -10  -4   8 2148.08 715.074   9
 -10   4   8 1219.03 457.250   8
  10  -4  -8 1419.75 549.044   7
 -10  -4   8 1262.50 593.320   4
  10  -4  -7 452.532 496.137   3
  10   4  -7 302.171 338.104   3
 -10   4   7 448.056 365.384   9
 -10  -4   7 1166.29 565.878   9
 -10   4   7 412.748 320.399   8
 -10  -4   7 765.799 480.205   8
  10  -4  -7 756.158 427.805   7
 -10  -4   7 261.166 385.419   4
 -10   4   6 15522.8 1498.23   9
 -10  -4   6 14704.8 1469.84   9
 -10   4   6 15394.1 1573.15   8
 -10  -4   6 13875.6 1534.07   8
  10  -4  -6 15517.6 1515.43   3
  10   4  -6 14594.6 1630.42   3
  10  -4  -6 15649.9 1575.04   7
 -10  -4   6 16988.9 1709.14   4
 -10   4   5 14841.1 1397.55   9
 -10  -4   5 16033.9 1479.21   9
 -10   4   5 14022.3 1521.03   8
 -10  -4   5 17515.9 1744.20   8
  10  -4  -5 15560.9 1480.52   3
  10   4  -5 15203.1 1643.63   3
  10  -4  -5 15556.5 1558.00   7
 -10  -4   5 16648.4 1707.31   4
  10  -4  -4 4004.95 779.539   3
  10   4  -4 3815.01 878.087   3
 -10   4   4 5811.22 986.162   8
 -10  -4   4 5009.23 963.881   8
  10  -4  -4 4345.68 841.396   7
 -10  -4   4 5087.45 979.844   4
  10   4  -3 475.129 391.550  10
  10  -4  -3 325.186 334.726   3
 -10   4   3 628.663 416.022   8
  10  -4  -3 1106.59 494.794   7
 -10  -4   3 1885.14 700.737   4
  10   4  -2 9215.68 1273.69  10
 -10   4   2 8735.63 1210.55   8
  10  -4  -2 12779.9 1289.33   3
  10  -4  -2 11130.2 1356.20   7
 -10  -4   2 10009.2 1394.92   4
  10  -4  -1 2906.61 705.817  10
  10   4  -1 1843.29 591.510  10
 -10   4   1 2547.66 708.805   8
  10  -4  -1 2366.32 701.232   7
 -10  -4   1 2823.20 768.169   4
  10  -4   0 24315.4 1905.81  10
  10   4   0 25616.4 2104.64  10
 -10   4   0 23448.2 2023.26   8
 -10  -4   0 26075.8 2180.19   4
  10  -4   0 26002.3 2130.41   7
  10  -4   1-145.536 370.040  10
  10   4   1 281.484 421.068  10
 -10   4  -1 115.385 426.806   8
  10  -4   1-29.9529 311.584   7
 -10  -4  -1 419.822 378.162   4
  10  -4   2 37461.4 2410.19  10
  10   4   2 33596.5 2499.93  10
 -10   4  -2 30870.2 2361.87   8
 -10  -4  -2 39358.6 2769.10   8
 -10  -4  -2 38794.6 2712.47   4
  10  -4   2 35134.0 2587.56   7
  10  -4   3 12503.1 1436.70  10
  10   4   3 12958.3 1566.78  10
 -10   4  -3 11945.0 1468.70   8
 -10  -4  -3 11046.1 1481.93   8
  10  -4   3 11281.5 1486.63   7
 -10   4  -3 12837.8 1496.39   6
 -10   4  -4 533.276 453.512   6
  10  -4   4 759.654 407.025  10
  10   4   4 834.905 536.417  10
 -10   4  -4 717.115 515.498   8
 -10  -4  -4 1381.13 651.314   8
 -10   4  -5 478.774 444.266   6
  10  -4   5 1821.02 576.138  10
  10   4   5 1792.54 698.096  10
 -10   4  -5 1241.15 544.893   8
 -10  -4  -5 2027.07 698.615   8
 -10   4  -6 92.6197 410.116   6
 -10  -4  -6 384.203 416.807   6
  10  -4   6 209.597 348.444  10
 -10   4  -6 697.289 400.366   8
 -10  -4  -6 853.689 508.204   8
  10  -4   7 1197.21 482.900  10
  10   5  -9 11089.9 1539.53   3
 -10   5   9 11035.3 1525.61   9
 -10  -5   9 8681.51 1378.80   9
  10  -5  -9 10458.2 1398.36   3
  10   5  -8 1179.75 625.898   3
 -10   5   8 1652.00 645.748   9
 -10  -5   8 1644.11 602.688   9
  10  -5  -8 523.036 479.081   7
 -10  -5   8 948.355 586.516   4
  10  -5  -8 1288.93 555.077   3
  10  -5  -7 297.434 337.387   3
  10   5  -7 917.521 507.589   3
 -10   5   7 1239.56 528.363   9
 -10  -5   7 837.008 441.158   9
 -10   5   7 730.803 432.727   8
 -10  -5   7 659.801 364.294   8
  10  -5  -7 692.479 521.507   7
 -10  -5   7 1300.59 547.602   4
  10  -5  -6 2415.96 637.197   3
  10   5  -6 2665.00 780.966   3
 -10   5   6 2775.55 740.771   9
 -10  -5   6 2455.65 664.457   9
 -10   5   6 1417.72 544.358   8
  10  -5  -6 3746.74 859.752   7
 -10  -5   6 2732.79 792.909   4
  10   5  -5 500.506 547.244   3
 -10   5   5 236.786 320.747   8
  10  -5  -5 260.376 450.819   7
 -10  -5   5 197.532 374.270   4
  10   5  -4 2490.62 766.716   3
 -10   5   4 2636.30 687.379   8
  10  -5  -4 4171.22 902.160   7
 -10  -5   4 3779.12 875.482   4
  10   5  -3 6626.58 1117.61  10
 -10   5   3 6531.66 1105.98   8
  10  -5  -3 7199.29 1142.92   7
 -10  -5   3 4485.00 962.198   4
  10   5  -2 11283.8 1427.56  10
 -10   5   2 10746.1 1391.05   8
  10  -5  -2 12206.9 1475.44   7
 -10  -5   2 13121.9 1571.30   4
  10  -5  -1 26546.2 1957.00  10
  10   5  -1 25453.5 2115.24  10
 -10   5   1 24763.4 2110.58   8
  10  -5  -1 21449.9 1973.24   7
 -10  -5   1 23330.2 2107.64   4
  10  -5   0 1220.39 484.140  10
  10   5   0 1130.66 550.608  10
 -10   5   0 1846.08 693.461   8
  10  -5   0 1458.89 602.865   7
 -10  -5   0 377.170 507.197   4
  10  -5   1 6267.94 919.143  10
  10   5   1 6698.18 1139.55  10
 -10   5  -1 6038.35 1079.63   8
  10  -5   1 7709.96 1247.95   7
 -10  -5  -1 8038.85 1322.91   4
  10  -5   2 1435.18 482.716  10
  10   5   2 1951.53 709.501  10
 -10   5  -2 2849.89 806.813   8
  10  -5   2 1995.87 714.163   7
 -10  -5  -2 2504.13 782.066   4
  10   5   3 3088.00 781.705  10
 -10   5  -3 3474.01 807.100   8
 -10  -5  -3 3510.87 840.134   4
  10  -5   3 4641.78 1004.80   7
  10   5   4 5879.50 1123.04  10
 -10   5  -4 5602.21 1067.41   8
  10  -5   4 6603.56 1232.66   7
 -10   5  -4 6566.37 1148.30   6
 -10   5  -5-223.631 394.192   6
  10   5   5 242.344 324.338  10
 -10   5  -5 79.5461 410.378   8
 -10  -5  -5-3.24143 545.248   8
  10  -5   5 1077.76 648.230   7
 -10   5  -6 2582.01 736.135   8
 -10  -5  -6 3185.45 865.591   8
  10  -6  -9 1467.11 629.416   7
  10   6  -8-420.558 428.869   3
 -10  -6   8 366.186 418.191   9
  10  -6  -8 267.766 461.683   7
 -10  -6   8-197.830 376.853   4
  10   6  -7 10239.4 1437.29   3
 -10   6   7 6837.71 1162.97   9
 -10  -6   7 10241.7 1412.63   9
 -10   6   7 11131.0 1405.66   8
  10  -6  -7 8180.08 1274.75   7
 -10  -6   7 8668.59 1307.71   4
  10   6  -6 825.140 547.163   3
 -10   6   6 1705.33 680.226   9
 -10  -6   6 829.142 485.398   9
 -10   6   6 2084.79 692.770   8
  10  -6  -6 1927.65 693.336   7
 -10  -6   6 1418.69 612.207   4
  10   6  -5 209.603 426.721   3
 -10   6   5 76.8242 364.953   8
  10  -6  -5 544.516 463.951   7
 -10  -6   5 199.201 394.283   4
  10   6  -4 7884.28 1217.00   3
 -10   6   4 8144.93 1252.93   8
  10  -6  -4 9567.80 1353.06   7
 -10  -6   4 9437.25 1376.68   4
  10   6  -3 2302.28 682.697  10
 -10   6   3 2057.06 733.651   8
  10  -6  -3 1050.65 502.358   7
 -10  -6   3 837.517 520.999   4
  10   6  -2 666.249 515.598  10
 -10   6   2 79.7355 436.504   8
  10  -6  -2 413.124 406.448   7
 -10  -6   2 724.678 578.963   4
  10   6  -1 352.123 408.363  10
 -10   6   1 1221.46 624.315   8
  10  -6  -1 551.221 568.768   7
 -10  -6   1 242.417 496.566   4
  10   6   0 341.535 365.175  10
 -10   6   0 92.3603 328.012   8
  10  -6   0 97.7231 522.683   7
 -10  -6   0-321.233 419.773   4
  10   6   1 3028.05 828.594  10
 -10   6  -1 4350.81 972.477   8
  10  -6   1 5129.10 1050.04   7
 -10  -6  -1 4454.03 1040.07   4
  10   6   2 320.006 459.923  10
 -10   6  -2 18.0597 311.760   8
  10  -6   2 235.651 406.473   7
  10   6   3 715.328 490.479  10
 -10   6  -3 338.695 382.330   8
  10  -6   3-178.125 337.187   7
 -10  -6  -3 540.680 556.061   4
  10   6   4 9.63309 353.942  10
 -10   6  -4 97.8759 329.260   8
 -10  -6  -4 63.5446 371.783   4
  10  -6   4 80.3796 421.788   7
 -10   6  -5 4324.80 952.487   8
 -10  -7   8 2939.28 866.589   4
  10   7  -7 1577.90 623.402   3
 -10   7   7 426.409 402.237   9
 -10  -7   7 534.287 452.098   9
  10  -7  -7 528.532 459.744   7
 -10  -7   7 1080.68 612.202   4
  10   7  -6 7027.06 1181.12   3
 -10  -7   6 6094.16 1093.39   9
 -10   7   6 5480.20 1036.55   8
  10  -7  -6 4703.77 994.983   7
 -10  -7   6 7268.69 1276.13   4
  10   7  -5 4827.42 988.371   3
 -10   7   5 4703.19 1073.66   8
  10  -7  -5 3445.80 933.895   7
 -10  -7   5 4500.80 1002.11   4
 -10   7   4 12531.9 1582.91   8
  10   7  -4 12630.6 1552.44   3
  10  -7  -4 11161.1 1488.29   7
 -10  -7   4 11803.7 1618.41   4
  10   7  -3 1691.74 642.743   3
 -10   7   3 2317.59 747.120   8
  10  -7  -3 1745.72 658.621   7
 -10  -7   3 2238.22 789.085   4
  10   7  -2 1954.52 661.957  10
 -10   7   2 1307.61 614.580   8
  10  -7  -2 3080.19 834.741   7
 -10  -7   2 2144.04 723.586   4
  10   7  -1 3199.43 797.550  10
 -10   7   1 4475.90 963.350   8
  10  -7  -1 3013.92 902.596   7
 -10  -7   1 3752.26 911.032   4
  10   7   0 737.671 593.661  10
 -10   7   0 1207.11 524.047   8
  10  -7   0 1529.62 644.860   7
 -10  -7   0 1536.97 640.335   4
  10   7   1 893.949 555.885  10
 -10   7  -1 267.812 435.345   8
  10  -7   1 827.182 548.751   7
 -10  -7  -1 917.766 505.694   4
  10   7   2 11638.7 1524.21  10
 -10   7  -2 12872.6 1680.38   8
 -10  -7  -2 14582.9 1818.06   4
  10  -7   2 14539.0 1781.50   7
  10   7   3 1693.02 636.450  10
 -10   7  -3 1637.01 695.824   8
 -10  -7  -3 2690.23 869.519   4
  10   8  -6 3574.50 861.023   3
  10   8  -5 12781.9 1573.35   3
  10   8  -4 2644.11 840.010   3
 -10   8   4 2261.43 782.576   8
  10   8  -3 6141.70 1138.88   3
 -10   8   3 7209.44 1286.53   8
 -10  -8   2 6563.42 1259.09   4
 -10   8   2 7871.34 1365.02   8
  10  -8  -2 8060.25 1331.54   7
  10   8  -1 160.966 377.729  10
  10   8   0 5091.51 1049.06  10
  10   8   1 154.389 334.737  10
  10   8   2 747.556 459.969  10
 -11   0  10 1272.06 600.420   9
  11   0  -9 830.828 517.131   3
 -11   0   9-78.2296 460.802   9
  11   0  -8 3612.01 877.207   3
 -11   0   8 4504.99 905.977   9
  11   0  -7 1063.33 649.524   3
 -11   0   7-423.741 299.274   8
  11   0  -6 3010.22 733.258   3
 -11   0   6 3604.53 866.623   8
  11   0  -5 1140.36 637.593   3
 -11   0   5 318.143 312.171   8
 -11   0   4 1315.94 483.900   8
  11   0  -4 2378.52 611.377   7
  11   0  -3-162.541 435.666  10
 -11   0   3 322.048 545.800   8
  11   0  -3 564.776 363.183   7
  11   0  -2 588.755 469.959  10
 -11   0   2 861.564 453.970   8
  11   0  -2 600.190 439.892   7
  11   0  -1-307.069 349.811  10
 -11   0   1 228.854 441.491   8
  11   0   0 782.342 419.638  10
 -11   0   0 1062.31 611.143   8
  11   0   1 612.089 498.001  10
 -11   0  -1 196.053 373.622   8
  11   0   1 326.068 317.640   2
  11   0   2 4449.71 920.485  10
 -11   0  -2 5457.78 1005.19   8
  11   0   2 3932.53 787.709   2
 -11   0  -3-292.382 432.038   8
  11   0   3 340.540 333.843   2
  11   0   4 6570.48 1087.87   2
  11   0   4 6860.04 1162.91  10
 -11   0  -4 7043.80 1211.12   8
 -11   0  -5 132.695 324.290   6
  11   0   5 753.112 455.676   2
 -11   0  -5 97.7779 367.317   8
 -11   0  -6 1213.14 553.542   6
  11   0   6 1207.20 510.320   2
 -11   0  -6 418.002 466.835   8
 -11   1  10 442.648 451.659   9
 -11  -1  10 640.295 556.122   9
  11  -1  -9 1570.42 616.381   3
  11   1  -9 1357.20 613.530   3
 -11   1   9 1597.53 577.974   9
 -11  -1   9 1164.73 543.854   9
  11  -1  -8 8.84619 353.318   3
  11   1  -8 732.752 519.779   3
 -11   1   8 244.901 398.729   9
 -11  -1   8 575.427 419.386   9
  11  -1  -7 10050.5 1367.82   3
  11   1  -7 10157.4 1421.16   3
 -11  -1   7 13327.7 1487.27   8
 -11   1   7 9655.75 1268.08   8
  11  -1  -6 413.350 372.687   3
  11   1  -6-356.545 365.423   3
 -11   1   6-488.786 387.945   8
 -11  -1   6 14.1030 330.859   8
  11  -1  -5 10020.9 1323.97   3
  11   1  -5 10443.0 1403.46   3
 -11   1   5 9173.50 1262.55   8
 -11  -1   5 10915.0 1374.77   8
  11  -1  -5 9801.54 1154.42   7
 -11   1   4 10991.4 1395.35   8
 -11  -1   4 14393.7 1600.33   8
  11  -1  -4 13084.6 1485.61   3
  11   1  -4 12874.2 1494.60   3
  11  -1  -4 14215.4 1416.33   7
  11  -1  -3 14767.2 1619.12  10
  11   1  -3 15640.4 1700.18  10
 -11   1   3 17879.8 1758.80   8
 -11  -1   3 17725.0 1793.22   8
  11  -1  -3 16028.6 1617.52   3
  11  -1  -3 17275.9 1603.87   7
  11   1  -3 14696.9 1423.37   7
  11  -1  -2 564.100 416.535  10
  11   1  -2 1369.57 527.794  10
 -11   1   2 923.460 498.692   8
 -11  -1   2 1027.23 534.458   8
  11  -1  -2 549.073 395.782   7
  11  -1  -1 7231.25 1125.85  10
  11   1  -1 7295.94 1165.47  10
 -11   1   1 7547.00 1182.51   8
 -11  -1   1 3997.24 881.918   8
  11  -1  -1 7172.49 1081.02   7
  11  -1   0 2985.49 758.668  10
  11   1   0 4471.76 893.429  10
 -11   1   0 2563.69 730.490   8
 -11  -1   0 5524.66 1030.61   8
  11  -1   1 5722.10 1003.76  10
  11   1   1 5284.21 992.963  10
 -11   1  -1 4394.69 925.720   8
 -11  -1  -1 6658.71 1174.51   8
  11   1   2 16.1851 281.096   2
  11  -1   2-114.864 302.757  10
  11   1   2 210.073 482.431  10
  11  -1   2 27.5812 280.413   2
 -11   1  -2 481.643 458.540   8
 -11  -1  -2-53.3493 346.673   8
  11   1   3 2635.36 698.273   2
  11  -1   3 2418.28 779.024  10
  11   1   3 1902.92 730.918  10
 -11   1  -3 3553.51 868.543   8
 -11  -1  -3 4412.22 986.823   8
  11  -1   3 4466.17 903.202   2
 -11   1  -4 56.9738 269.359   6
  11   1   4-805.774 424.850   2
  11  -1   4 32.9831 282.454  10
  11   1   4 866.427 566.094  10
 -11   1  -4-142.183 360.396   8
 -11  -1  -4 285.978 364.818   8
  11  -1   4 742.092 444.120   2
  11  -1   5 22301.9 2139.25  10
  11   1   5 19439.1 2056.10  10
 -11   1  -5 18103.0 1922.34   8
 -11  -1  -5 16576.2 1864.56   8
  11  -1   5 19628.5 1955.27   2
  11   1   5 19621.6 1886.27   2
 -11   1  -5 16924.8 1765.20   6
 -11   1  -6 3330.64 919.348   6
 -11  -1  -6 1717.92 654.478   6
  11   1   6 512.002 422.014   2
 -11   1  -6 2300.20 765.009   8
 -11  -1  -6 2910.28 850.126   8
 -11   2  10 640.275 482.923   9
 -11  -2  10 62.8294 482.190   9
  11  -2  -9 10828.3 1469.69   3
  11   2  -9 9247.73 1452.16   3
 -11   2   9 8783.96 1311.29   9
 -11  -2   9 10030.5 1413.08   9
  11  -2  -8 1229.63 564.697   3
  11   2  -8 1062.79 554.794   3
 -11   2   8 1012.75 565.719   9
 -11  -2   8 1146.58 558.727   9
  11  -2  -7 9553.03 1320.05   3
  11   2  -7 11913.5 1532.72   3
 -11   2   7 7322.96 1125.29   8
 -11  -2   7 9232.84 1280.85   8
  11  -2  -6 863.844 473.188   3
  11   2  -6 339.607 442.266   3
 -11   2   6 1726.02 597.167   8
 -11  -2   6 870.003 497.592   8
  11   2  -5 7806.06 1226.64   3
 -11   2   5 9977.47 1317.40   8
 -11  -2   5 7223.13 1138.83   8
  11  -2  -5 11776.8 1397.62   3
  11  -2  -5 9833.75 1210.52   7
  11  -2  -4 4844.98 893.978   3
  11   2  -4 6428.10 1111.60   3
 -11   2   4 3914.57 874.003   8
 -11  -2   4 4424.47 913.452   8
  11  -2  -4 4166.23 813.736   7
  11   2  -3 7415.59 1154.43  10
  11  -2  -3 8248.71 1147.94   3
 -11   2   3 8278.08 1220.17   8
 -11  -2   3 7135.64 1182.65   8
  11  -2  -3 8503.05 1163.86   7
  11  -2  -2 1146.78 512.537  10
  11   2  -2 910.492 494.990  10
 -11   2   2 913.708 477.694   8
 -11  -2   2 1534.21 630.289   8
  11  -2  -2 793.700 374.617   7
  11  -2  -1 15122.5 1591.82  10
  11   2  -1 16255.4 1706.23  10
 -11   2   1 20564.4 1928.51   8
 -11  -2   1 16136.8 1735.95   8
  11  -2  -1 16374.8 1659.17   7
  11  -2   0 3969.70 865.286  10
  11   2   0 5389.69 1025.23  10
 -11   2   0 2940.51 827.422   8
 -11  -2   0 3695.36 929.988   8
  11  -2   0 3505.88 830.398   7
  11  -2   1 31497.5 2361.36  10
  11   2   1 33090.1 2525.84  10
 -11   2  -1 27484.5 2300.84   8
 -11  -2  -1 31637.0 2502.94   8
  11  -2   2 7127.79 1159.32  10
  11   2   2 6493.26 1124.25  10
 -11   2  -2 6346.08 1137.71   8
 -11  -2  -2 7497.98 1224.84   8
  11  -2   3 15008.5 1681.76  10
  11   2   3 16229.4 1824.28  10
  11  -2   3 15988.8 1680.77   2
 -11   2  -3 16735.1 1830.07   8
 -11  -2  -3 18117.8 1950.53   8
 -11   2  -3 17381.6 1680.86   6
 -11   2  -4-227.466 470.641   6
  11  -2   4 104.615 304.962  10
  11   2   4-99.0919 358.697  10
  11   2   4-148.341 395.386   2
 -11   2  -4 428.247 456.734   8
 -11  -2  -4 433.152 486.739   8
  11  -2   4-44.6350 320.811   2
 -11   2  -5 1675.50 628.628   6
  11  -2   5 3386.56 873.366  10
  11   2   5 1397.29 535.831   2
 -11   2  -5 3314.56 898.319   8
 -11  -2  -5 1714.99 598.437   8
  11  -2   5 3084.83 826.520   2
 -11   2  -6 206.397 359.254   6
  11   2   6 784.341 515.580   2
 -11   2  -6-76.1713 315.678   8
 -11  -2  -6 575.676 474.257   8
  11  -3  -9 1179.66 565.086   3
 -11   3   9 1977.82 728.453   9
 -11  -3   9 357.815 439.826   9
  11  -3  -8 6955.11 1160.32   3
  11   3  -8 8001.37 1316.77   3
 -11   3   8 6957.17 1159.85   9
 -11  -3   8 9826.63 1343.18   9
  11  -3  -7 482.539 467.390   3
  11   3  -7-292.792 372.581   3
 -11   3   7 377.825 390.773   8
 -11  -3   7 130.960 382.312   8
  11  -3  -6-231.929 310.226   3
  11   3  -6 94.4634 333.284   3
 -11   3   6-261.386 394.899   8
 -11  -3   6-99.4089 383.630   8
  11  -3  -6 51.0599 294.139   7
  11  -3  -5 10388.0 1291.57   3
  11   3  -5 10930.1 1460.36   3
 -11  -3   5 14501.6 1637.30   8
 -11   3   5 10704.8 1353.98   8
 -11  -3   5 12173.3 1502.98   4
  11  -3  -5 12059.9 1381.33   7
  11  -3  -4 20.3038 267.224   3
  11   3  -4 280.390 402.670   3
 -11  -3   4-1.39631 339.484   8
 -11  -3   4-429.025 387.142   4
  11  -3  -4 418.198 406.155   7
  11   3  -3 7953.70 1245.07  10
  11  -3  -3 8665.35 1175.10   3
 -11   3   3 9346.98 1293.33   8
 -11  -3   3 10099.6 1396.48   8
 -11  -3   3 8624.79 1300.62   4
  11  -3  -3 9767.14 1279.25   7
  11  -3  -2 1590.76 610.832  10
  11   3  -2 2004.90 595.821  10
  11  -3  -2 2969.89 782.149   3
 -11   3   2 2080.84 659.114   8
 -11  -3   2 2615.41 843.400   8
  11  -3  -2 1418.28 738.218   7
  11  -3  -1 3697.78 866.645  10
  11   3  -1 3393.55 845.569  10
 -11   3   1 3459.11 827.752   8
 -11  -3   1 2164.43 763.043   8
  11  -3  -1 3091.77 739.460   7
  11  -3   0 11250.9 1390.36  10
  11   3   0 9694.53 1379.95  10
 -11   3   0 9085.77 1287.80   8
 -11  -3   0 11673.5 1508.47   8
  11  -3   0 9844.28 1341.46   7
  11  -3   1 626.880 406.052  10
  11   3   1 493.962 392.686  10
 -11   3  -1 273.836 569.439   8
 -11  -3  -1 440.036 520.633   8
  11  -3   1 691.500 518.638   7
  11  -3   2-50.8214 350.765  10
  11   3   2 261.649 534.535  10
 -11   3  -2 691.207 540.815   8
 -11  -3  -2 242.711 519.578   8
  11  -3   2 852.746 570.764   7
 -11   3  -2 455.104 347.993   6
 -11   3  -3 11322.8 1393.64   6
  11  -3   3 12601.8 1536.06  10
  11   3   3 13175.0 1646.81  10
 -11   3  -3 8836.27 1333.49   8
 -11  -3  -3 12677.1 1614.74   8
 -11   3  -4 7570.50 1195.07   6
  11  -3   4 8310.50 1246.33  10
  11   3   4 7328.52 1238.73  10
  11  -3   4 7107.07 1201.19   2
 -11   3  -4 7250.40 1205.07   8
 -11  -3  -4 6868.06 1285.99   8
 -11   3  -5 5296.61 1063.76   6
  11  -3   5 5757.76 1096.27  10
 -11   3  -5 3556.95 887.532   8
 -11  -3  -5 3972.55 939.183   8
 -11   3  -6 639.899 450.836   8
 -11   4   9 1467.52 693.738   9
  11  -4  -9 2837.29 830.739   3
  11  -4  -8 1135.90 551.975   3
  11   4  -8 1175.05 676.793   3
 -11   4   8 958.000 412.690   9
 -11  -4   8 153.294 377.497   9
  11  -4  -7 721.660 541.696   3
  11   4  -7 232.566 444.745   3
 -11   4   7-141.240 364.116   8
 -11  -4   7 1322.41 597.042   8
  11  -4  -7 746.034 469.301   7
 -11  -4   7 744.100 451.031   4
  11  -4  -6 9943.93 1267.46   3
  11   4  -6 10703.5 1490.54   3
 -11   4   6 9558.95 1322.91   8
 -11  -4   6 9546.05 1381.67   8
  11  -4  -6 10605.0 1360.30   7
 -11  -4   6 7666.07 1249.05   4
  11  -4  -5 295.169 435.550   3
  11   4  -5 269.127 477.619   3
 -11   4   5 122.762 347.311   8
 -11  -4   5 363.232 392.928   8
  11  -4  -5-207.653 305.057   7
 -11  -4   5 1495.43 597.824   4
  11  -4  -4 656.243 416.832   3
  11   4  -4 833.962 503.296   3
 -11   4   4 74.3096 271.750   8
 -11  -4   4 769.791 541.450   8
  11  -4  -4 413.576 476.539   7
 -11  -4   4 1276.17 614.214   4
  11   4  -3 1721.07 660.658  10
  11  -4  -3 1269.70 484.679   3
 -11   4   3 1577.31 620.020   8
 -11  -4   3 1143.93 480.222   8
  11  -4  -3 2186.62 709.639   7
 -11  -4   3 1912.16 749.613   4
  11   4  -2 159.865 442.643  10
  11  -4  -2 1177.68 520.746   3
 -11   4   2 583.334 538.388   8
 -11  -4   2 152.485 351.024   8
  11  -4  -2 37.6144 341.000   7
 -11  -4   2-131.068 345.365   4
  11  -4  -1 1560.00 627.124  10
  11   4  -1 1303.59 621.059  10
 -11   4   1 1788.38 682.480   8
 -11  -4   1 1943.87 679.459   8
  11  -4  -1 2102.67 698.483   7
 -11  -4   1 1839.54 678.589   4
  11  -4   0 469.788 345.922  10
  11   4   0 271.630 351.634  10
 -11   4   0 595.386 514.574   8
 -11  -4   0 1153.61 615.691   8
 -11  -4   0 510.960 465.414   4
  11  -4   0 1913.77 722.371   7
  11  -4   1 1493.11 617.940  10
  11   4   1 1261.11 502.195  10
 -11   4  -1 540.623 434.490   8
 -11  -4  -1 2291.11 837.789   8
  11  -4   1 995.088 537.605   7
  11  -4   2 1536.04 542.977  10
  11   4   2 1775.42 664.361  10
 -11   4  -2 2530.80 778.868   8
 -11  -4  -2 2230.20 755.503   8
  11  -4   2 1803.71 725.640   7
  11  -4   3 2446.69 720.061  10
  11   4   3 3557.16 901.146  10
 -11   4  -3 3281.02 807.510   8
 -11  -4  -3 3454.69 899.306   8
  11  -4   3 4439.64 1030.71   7
 -11   4  -3 5379.65 1019.85   6
 -11   4  -4-505.817 432.410   6
  11  -4   4-280.126 340.100  10
 -11   4  -4 112.591 327.384   8
 -11  -4  -4 227.720 429.708   8
 -11   4  -5 1514.20 618.197   6
  11  -4   5 808.908 361.319  10
 -11   4  -5 970.710 550.340   8
  11  -5  -8 496.269 409.290   7
 -11  -5   8 24.0894 389.960   4
  11   5  -7 3967.03 958.541   3
 -11   5   7 3453.73 844.808   8
 -11  -5   7 5208.25 1026.08   8
  11  -5  -7 4048.07 890.278   7
 -11  -5   7 6635.78 1215.99   4
  11   5  -6 3757.48 910.448   3
 -11   5   6 4355.87 955.987   8
 -11  -5   6 5056.93 1066.71   8
  11  -5  -6 5399.98 983.767   7
 -11  -5   6 5485.61 1104.09   4
  11   5  -5 9382.73 1364.92   3
 -11   5   5 6412.20 1140.97   8
 -11  -5   5 8851.31 1359.09   8
  11  -5  -5 9853.90 1353.65   7
 -11  -5   5 5870.94 1138.92   4
  11   5  -4 552.500 510.253   3
 -11   5   4-83.0831 335.973   8
 -11  -5   4 797.033 579.629   8
  11  -5  -4-28.7400 308.233   7
 -11  -5   4 206.479 435.541   4
  11   5  -3 4237.47 977.828  10
 -11   5   3 4121.97 966.130   8
  11  -5  -3 3626.97 887.104   7
 -11  -5   3 3844.50 889.569   4
  11   5  -2 3354.30 849.261  10
 -11   5   2 1261.22 539.423   8
  11  -5  -2 2953.51 823.921   7
 -11  -5   2 2414.81 777.198   4
  11  -5  -1 3513.60 789.228  10
  11   5  -1 4081.75 945.443  10
 -11   5   1 4126.93 949.061   8
  11  -5  -1 3716.77 856.027   7
 -11  -5   1 3419.85 908.413   4
  11  -5   0 8443.87 1196.41  10
  11   5   0 8824.45 1321.75  10
 -11   5   0 7023.82 1214.70   8
  11  -5   0 7218.27 1219.06   7
 -11  -5   0 6823.94 1255.50   4
  11   5   1 1981.91 736.250  10
 -11   5  -1 1802.15 739.293   8
  11  -5   1 1699.42 627.037   7
 -11  -5  -1 1760.67 681.813   4
  11   5   2 1014.79 595.290  10
 -11   5  -2 644.089 482.658   8
 -11  -5  -2 555.933 389.178   8
  11  -5   2 1101.34 653.824   7
  11   5   3 3379.58 890.934  10
 -11   5  -3 3466.42 904.041   8
 -11  -5  -3 2657.90 886.729   8
 -11   6   7 7392.95 1212.79   8
 -11  -6   7 4674.99 1012.58   8
  11  -6  -7 7252.02 1245.52   7
 -11  -6   7 5993.81 1158.42   4
  11   6  -6 173.786 347.637   3
 -11   6   6 808.566 579.948   8
 -11  -6   6 522.680 415.911   8
  11  -6  -6-295.578 547.512   7
 -11  -6   6 179.319 458.996   4
  11   6  -5-245.235 338.014   3
 -11   6   5 1312.01 581.463   8
  11  -6  -5 33.7203 390.646   7
 -11  -6   5 870.412 552.599   4
 -11   6   4 20232.8 2029.84   8
  11   6  -4 23516.0 2194.97   3
 -11  -6   4 23452.4 2276.00   4
  11   6  -3 648.730 469.562  10
  11   6  -3 165.344 328.612   3
 -11   6   3-564.635 497.368   8
  11  -6  -3 808.270 442.163   7
 -11  -6   3 299.071 507.192   4
  11   6  -2 3815.22 925.430  10
 -11   6   2 4298.36 974.025   8
  11  -6  -2 3014.96 800.660   7
 -11  -6   2 4522.64 1023.60   4
  11   6  -1 6938.97 1195.36  10
 -11   6   1 9026.05 1371.06   8
  11  -6  -1 9677.24 1410.04   7
 -11  -6   1 9739.79 1495.53   4
  11   6   0 542.909 557.873  10
 -11   6   0 506.560 511.643   8
  11  -6   0-33.2257 346.772   7
 -11  -6   0 449.745 486.200   4
  11   6   1 6990.26 1232.55  10
 -11   6  -1 9338.97 1453.87   8
  11  -6   1 10182.6 1537.83   7
 -11  -6  -1 8132.31 1351.33   4
  11   6   2 1648.67 650.068  10
  11   7  -4 1801.79 641.809   3
  11   7  -3 1183.34 629.405   3
  11   7  -2 2368.59 807.254  10
  11   7  -1-25.3822 417.167  10
  11   7   0 14856.0 1753.42  10
  11   7   1 687.633 485.534  10
  12   0  -7-55.0503 375.802   3
 -12   0   7 446.298 414.861   8
 -12   0   6 15507.9 1709.31   8
  12   0  -6 15558.9 1755.18   3
  12   0  -5 314.923 486.015   3
 -12   0   5 2938.14 830.426   8
  12   0  -4 9084.25 1349.32   3
 -12   0   4 10651.9 1467.86   8
  12   0  -3 637.208 473.769  10
  12   0  -3 356.820 366.040   3
 -12   0   3 600.891 470.418   8
  12   0  -3 131.454 347.363   7
  12   0  -2 39029.9 2807.02  10
 -12   0   2 31009.8 2516.66   8
  12   0  -2 37545.4 2505.43   7
  12   0  -1-799.484 488.301  10
 -12   0   1 164.865 437.393   8
  12   0  -1-19.8170 344.265   7
  12   0   0 1952.26 685.942  10
 -12   0   0 1014.40 603.857   8
  12   0   1-147.998 362.024  10
 -12   0  -1-108.714 405.991   8
  12   0   2 51470.6 3316.28  10
 -12   0  -2 46311.8 3209.78   8
  12   0   3-230.006 379.772   2
  12   0   3-218.494 470.684  10
 -12   0  -3-185.824 439.949   8
  12   0   4 1384.62 640.021   2
  12  -1  -8 3195.02 942.227   3
  12  -1  -7 3116.41 798.504   3
  12   1  -7 2692.80 772.088   3
 -12   1   7 1751.55 630.156   8
 -12  -1   7 3146.02 795.223   8
  12  -1  -6 11540.9 1497.91   3
  12   1  -6 12573.0 1601.01   3
 -12  -1   6 14256.2 1673.51   8
 -12   1   6 10394.2 1417.39   8
  12  -1  -5 1343.19 612.572   3
  12   1  -5 2169.22 673.912   3
 -12   1   5 1067.59 490.143   8
 -12  -1   5 1094.58 634.594   8
  12  -1  -4 7114.95 1193.95   3
  12   1  -4 6279.94 1161.66   3
 -12   1   4 7724.86 1287.19   8
 -12  -1   4 6935.79 1228.30   8
  12  -1  -4 7821.62 1136.08   7
  12  -1  -3 442.084 494.391  10
  12   1  -3 536.144 481.337  10
  12  -1  -3-58.7308 461.626   3
 -12   1   3 221.511 301.446   8
 -12  -1   3 344.462 416.627   8
  12  -1  -3 178.694 400.818   7
  12  -1  -2 10336.0 1448.75  10
  12   1  -2 11386.2 1515.32  10
 -12   1   2 8221.48 1335.54   8
 -12  -1   2 9026.26 1364.94   8
  12   1  -2 11880.5 1395.76   7
  12  -1  -2 10885.1 1373.49   7
  12  -1  -1 1889.07 682.249  10
  12   1  -1 2486.27 681.017  10
 -12   1   1 3023.44 906.814   8
 -12  -1   1 2066.77 762.670   8
  12  -1  -1 2520.72 746.939   7
  12   1   0 365.923 438.548  10
 -12   1   0 470.938 316.434   8
 -12  -1   0 637.887 469.166   8
  12  -1   1 4073.94 930.916  10
  12   1   1 3638.21 932.140  10
 -12  -1  -1 3738.43 973.442   8
  12  -1   2 7225.77 1212.39  10
  12   1   2 6547.86 1193.36  10
 -12   1  -2 9492.15 1448.02   8
 -12  -1  -2 8066.91 1346.88   8
  12  -1   2 9649.26 1272.85   2
  12  -1   3 772.563 531.699  10
  12   1   3 2383.87 891.791  10
 -12   1  -3 1347.07 645.169   8
 -12  -1  -3 983.215 583.646   8
  12  -1   3-250.246 352.447   2
  12  -1   4 889.187 598.660   2
  12  -2  -8 109.121 370.236   3
  12  -2  -7 1329.87 536.967   3
  12   2  -7 2520.17 844.476   3
 -12   2   7 3689.11 912.809   8
 -12  -2   7 2688.83 806.106   8
  12  -2  -6 764.056 635.678   3
  12   2  -6-437.881 416.775   3
 -12   2   6 655.739 431.222   8
 -12  -2   6 222.374 454.535   8
  12  -2  -5 266.367 339.441   3
  12   2  -5-140.683 393.152   3
 -12   2   5-269.092 429.681   8
 -12  -2   5 405.521 356.689   8
  12  -2  -5 765.998 473.106   7
  12  -2  -4 1302.41 647.140   3
  12   2  -4 306.086 426.574   3
 -12   2   4 82.7318 329.338   8
 -12  -2   4 1446.18 716.534   8
  12  -2  -4 752.162 491.402   7
  12   2  -3 4392.94 1043.22  10
  12  -2  -3 3452.99 849.255   3
 -12   2   3 4116.88 1001.42   8
 -12  -2   3 4249.76 924.832   8
  12  -2  -3 3867.38 894.630   7
  12  -2  -2 315.945 334.819  10
  12   2  -2 667.527 508.223  10
 -12   2   2 253.776 463.577   8
 -12  -2   2 754.904 569.335   8
  12  -2  -2 930.902 504.951   7
  12  -2  -1 429.832 382.434  10
  12   2  -1 146.947 474.152  10
 -12   2   1 454.816 492.896   8
 -12  -2   1-273.662 398.657   8
  12  -2  -1 757.672 490.535   7
  12  -2   0-205.627 330.281  10
  12   2   0 403.852 533.054  10
 -12   2   0-36.1583 404.896   8
 -12  -2   0-133.219 431.278   8
  12  -2   0 168.207 303.401   7
  12  -2   1 1394.53 600.567  10
  12   2   1 944.147 526.382  10
 -12   2  -1 896.043 547.863   8
 -12  -2  -1-90.5822 362.963   8
  12  -2   1 1798.25 706.166   7
  12  -2   2 1788.32 681.747  10
  12   2   2 33.1121 295.388  10
 -12   2  -2 1062.71 717.537   8
 -12  -2  -2 785.193 554.345   8
  12  -2   3 2732.17 837.939  10
 -12   2  -3 2624.79 802.393   8
 -12  -2  -3 1903.23 803.736   8
  12  -2   3 3047.11 786.922   2
  12  -3  -8-852.048 521.224   3
  12  -3  -7 95.8694 426.247   3
 -12   3   7 233.302 357.598   8
 -12  -3   7 1161.74 585.868   8
  12  -3  -6 1474.87 600.651   3
  12   3  -6 1970.34 727.708   3
 -12   3   6 2368.34 681.488   8
 -12  -3   6 2481.67 767.932   8
  12  -3  -5 34.3072 439.623   3
  12   3  -5 831.542 627.163   3
 -12   3   5 1010.06 567.851   8
 -12  -3   5 539.998 542.419   8
  12  -3  -5 562.954 552.198   7
 -12   3   4 25513.0 2221.25   8
 -12  -3   4 17877.9 1961.43   8
  12  -3  -4 21618.3 1963.66   3
  12   3  -4 21333.9 2102.29   3
  12  -3  -4 19404.7 1885.41   7
  12   3  -3 467.890 503.830  10
  12  -3  -3-99.5800 472.560   3
 -12   3   3 760.036 666.056   8
 -12  -3   3 531.544 444.286   8
  12  -3  -3 1069.51 585.544   7
  12  -3  -2 2772.97 760.265  10
  12   3  -2 2383.14 761.679  10
  12  -3  -2 1506.28 579.048   3
 -12   3   2 1640.67 638.179   8
 -12  -3   2 2183.46 739.220   8
  12  -3  -2 1877.81 641.895   7
  12  -3  -1 1159.27 533.255  10
  12   3  -1 894.752 471.544  10
 -12   3   1 1582.51 634.173   8
 -12  -3   1 922.169 682.986   8
  12  -3  -1 1338.29 576.357   7
  12  -3   0 7586.73 1209.34  10
  12   3   0 11337.1 1534.18  10
 -12   3   0 8561.38 1387.07   8
 -12  -3   0 7936.66 1399.61   8
  12  -3   0 7289.62 1242.57   7
  12  -3   1 293.043 370.849  10
  12   3   1 543.197 288.956  10
 -12   3  -1 1244.84 651.675   8
 -12  -3  -1 736.829 688.851   8
  12  -3   1 930.313 617.761   7
  12  -3   2 1767.33 702.704  10
  12   3   2 588.463 489.934  10
 -12   3  -2 1313.98 624.264   8
 -12  -3  -2 1803.09 780.926   8
  12  -3   2 3121.11 870.158   7
  12  -3   3 2160.43 620.476  10
  12  -4  -7 3735.80 891.758   3
 -12   4   7 3135.72 834.222   8
 -12  -4   7 2929.98 880.589   8
  12  -4  -6 2963.49 781.604   3
 -12   4   6 3195.50 799.668   8
 -12  -4   6 2721.27 819.577   8
 -12  -4   6 2600.97 718.304   4
  12  -4  -6 4500.52 946.868   7
  12  -4  -5 608.191 418.961   3
  12   4  -5 433.773 577.871   3
 -12   4   5-223.888 462.021   8
 -12  -4   5 531.348 544.824   8
 -12  -4   5 635.040 594.012   4
  12  -4  -5 736.162 446.742   7
  12  -4  -4 677.607 523.545   3
  12   4  -4 45.4759 352.026   3
 -12   4   4 147.666 392.862   8
 -12  -4   4 959.646 653.914   8
 -12  -4   4 747.201 547.549   4
  12  -4  -4-498.182 403.358   7
  12   4  -3 21461.2 2180.61  10
 -12   4   3 20621.0 2067.74   8
 -12  -4   3 24205.9 2309.29   8
  12  -4  -3 22650.0 1948.29   3
  12  -4  -3 21151.0 2077.57   7
  12   4  -2 2593.54 833.285  10
 -12   4   2 2828.80 824.334   8
 -12  -4   2 3272.05 897.417   8
  12  -4  -2 1704.35 629.953   7
  12  -4  -1 763.312 450.653  10
  12   4  -1 1354.92 681.773  10
 -12   4   1 785.948 531.185   8
 -12  -4   1 451.512 494.598   8
  12  -4  -1 579.507 309.085   7
  12  -4   0 17639.4 1835.26  10
  12   4   0 19405.0 2040.49  10
 -12   4   0 18408.3 1976.66   8
 -12  -4   0 19381.8 2116.95   8
  12  -4   0 18587.4 2010.27   7
  12  -4   1 446.637 505.616  10
  12   4   1 520.680 565.813  10
 -12   4  -1 711.011 495.296   8
  12  -4   1-374.142 422.200   7
  12  -4   2 3441.58 838.703  10
  12  -4   3 3947.83 927.585  10
 -12  -5   6 1297.69 622.071   8
  12  -5  -6 461.888 476.670   7
 -12   5   5 429.575 332.949   8
 -12  -5   5-895.677 544.607   8
  12  -5  -5-943.335 542.565   7
 -12   5   4 16035.6 1877.95   8
 -12  -5   4 21827.7 2232.87   8
  12  -5  -4 17246.5 1929.74   7
 -12  -5   4 22826.1 2273.82   4
  12   5  -3 632.175 510.455  10
  12   5  -3 58.2464 329.005   3
 -12   5   3 266.875 407.503   8
 -12  -5   3 279.831 657.151   8
  12  -5  -3 441.432 402.923   7
 -12  -5   3 561.449 589.501   4
  12   5  -2 4673.60 1074.02  10
 -12  -5   2 4828.48 1103.64   8
  12  -5  -2 5568.55 1154.67   7
  12   5  -1 3683.65 957.234  10
  12  -5  -1 2970.14 890.343   7
 -13   0   7-6.24306 239.070   8
 -13   0   6 1066.71 585.622   8
 -13   0   5-200.171 349.762   8
  13   0  -4 1871.86 766.879   3
 -13   0   4 1038.86 606.053   8
  13   0  -3 203.624 394.738   3
 -13   0   3-926.189 545.073   8
  13   0  -2 1175.60 606.528  10
 -13   0   2 1010.72 739.880   8
  13   0  -2 2333.60 734.629   7
  13   0  -1-151.801 507.584  10
  13   0  -1-50.3276 369.546   7
  13   0   0 11948.4 1588.19   7
 -13   1   7 771.777 469.968   8
 -13  -1   7-571.576 437.078   8
 -13   1   6-201.337 375.815   8
 -13  -1   6-32.3857 363.553   8
  13  -1  -5 9946.52 1453.01   3
 -13   1   5 11125.6 1557.80   8
 -13  -1   5 12119.0 1638.41   8
  13  -1  -4 1738.62 686.422   3
  13   1  -4 2529.19 833.117   3
 -13   1   4 2231.23 743.247   8
 -13  -1   4 2929.25 912.058   8
  13   1  -3 6860.95 1301.17  10
  13  -1  -3 3923.33 919.802   3
  13   1  -3 5660.16 1139.23   3
 -13   1   3 4225.63 1048.42   8
 -13  -1   3 6684.69 1261.29   8
  13  -1  -3 4044.94 913.918   7
  13  -1  -2 2313.90 797.554  10
  13   1  -2 2612.71 865.139  10
 -13   1   2 2813.15 902.346   8
 -13  -1   2 1238.11 610.685   8
  13  -1  -2 2119.59 776.171   7
  13  -1  -1 3968.59 1016.92  10
  13  -1  -1 3168.57 853.641   7
  13   1  -1 2180.81 687.790   7
  13  -1   0 250.698 377.294  10
  13  -1   0 212.467 569.503   7
  13  -2  -5 1637.79 640.226   3
 -13  -2   5 1179.27 580.539   8
  13  -2  -4-196.138 377.955   3
 -13  -2   4 150.611 452.751   8
  13  -2  -4 207.156 435.881   7
  13  -2  -3 1975.38 668.012   3
  13  -2  -3 734.967 525.576   7
  13  -2  -2 8593.84 1410.52  10
  13  -2  -2 6534.89 1183.95   3
  13  -2  -2 6915.94 1216.97   7
  13  -2  -1 18179.3 1987.19  10
  13  -2  -1 19852.2 2072.84   7
  13  -2   0 1487.92 682.856  10
  13  -2   0 1285.37 580.196   7
  13  -3  -5 3296.00 814.185   3
  13  -3  -4 2463.36 758.896   3
  13  -3  -4 775.223 468.008   7
  13  -3  -3 8903.45 1328.23   3
  13  -3  -3 10201.8 1471.81   7
  13  -3  -2 660.941 508.833   3
  13  -3  -2 1642.43 672.889   7
  13  -3  -1 3312.13 898.182  10
  13  -3   0 392.346 549.911  10
  13  -4  -1-276.306 401.273  10
   0   0   0    0.00    0.00   0
TITL 40_6purp-full_abs in P2(1)/c
REM P2(1)/c (#14 in standard setting)
CELL 0.71073   9.149397   8.699095   9.641270  90.0000 100.1405  90.0000
ZERR    4.00   0.000156   0.000145   0.000167   0.0000   0.0016   0.0000
LATT  1
SYMM -x, y+1/2,-z+1/2
SFAC B O P Mn Cs
UNIT 4.00 36.00 8.00 4.00 4.00
TREF
HKLF 4
END
;
_shelx_hkl_checksum              72050
loop_
_space_group_symop_operation_xyz
'x, y, z'
'-x, y+1/2, -z+1/2'
'-x, -y, -z'
'x, -y-1/2, z-1/2'
loop_
_atom_site_label
_atom_site_type_symbol
_atom_site_fract_x
_atom_site_fract_y
_atom_site_fract_z
_atom_site_U_iso_or_equiv
_atom_site_adp_type
_atom_site_occupancy
_atom_site_site_symmetry_order
_atom_site_calc_flag
_atom_site_refinement_flags_posn
Cs1 Cs 0.20305(3) 0.39124(3) 0.04851(2) 0.01891(7) Uani 1 1 d .
Mn Mn 0.20759(5) 0.65194(6) 0.42822(5) 0.00612(10) Uani 1 1 d .
P1 P 0.07196(9) -0.06458(10) 0.19875(9) 0.00546(16) Uani 1 1 d .
P2 P 0.58210(9) 0.24207(10) 0.29421(9) 0.00557(16) Uani 1 1 d .
B B 0.3457(4) 0.0524(4) 0.1928(4) 0.0075(7) Uani 1 1 d .
O1 O 0.6372(3) 0.2323(3) 0.4523(2) 0.0104(5) Uani 1 1 d .
O2 O 0.1904(3) 0.0666(3) 0.2128(2) 0.0098(5) Uani 1 1 d .
O3 O -0.0803(3) 0.0094(3) 0.1824(2) 0.0104(5) Uani 1 1 d .
O4 O 0.4176(2) 0.1888(3) 0.2677(3) 0.0095(5) Uani 1 1 d .
O5 O 0.0880(3) -0.1623(3) 0.0698(3) 0.0114(5) Uani 1 1 d .
O6 O 0.0947(3) -0.1564(3) 0.3333(2) 0.0101(5) Uani 1 1 d .
O7 O 0.4183(3) -0.0893(3) 0.2587(2) 0.0090(5) Uani 1 1 d .
O8 O 0.6669(3) 0.1376(3) 0.2109(2) 0.0109(5) Uani 1 1 d .
O9 O 0.3461(3) 0.0551(3) 0.0425(3) 0.0124(5) Uani 1 1 d D
H H 0.431(3) 0.075(6) 0.015(6) 0.051(18) Uiso 1 1 d D
loop_
_atom_site_aniso_label
_atom_site_aniso_U_11
_atom_site_aniso_U_22
_atom_site_aniso_U_33
_atom_site_aniso_U_23
_atom_site_aniso_U_13
_atom_site_aniso_U_12
Cs1 0.02185(13) 0.01692(13) 0.01733(12) 0.00437(9) 0.00173(9) 0.00185(9)
Mn 0.0047(2) 0.0078(2) 0.0059(2) -0.00025(17) 0.00112(17) -0.00123(17)
P1 0.0039(4) 0.0067(4) 0.0056(4) 0.0001(3) 0.0005(3) 0.0007(3)
P2 0.0044(4) 0.0055(4) 0.0067(4) -0.0004(3) 0.0007(3) -0.0005(3)
B 0.0051(16) 0.0052(16) 0.0115(17) -0.0002(13) -0.0003(13) -0.0023(13)
O1 0.0123(12) 0.0118(12) 0.0062(11) 0.0000(9) -0.0008(9) -0.0034(9)
O2 0.0060(11) 0.0095(12) 0.0137(12) -0.0006(9) 0.0017(9) -0.0010(9)
O3 0.0056(11) 0.0139(12) 0.0120(12) 0.0039(10) 0.0021(9) 0.0040(9)
O4 0.0039(11) 0.0090(12) 0.0154(12) -0.0047(9) 0.0007(9) -0.0009(9)
O5 0.0134(12) 0.0118(12) 0.0109(12) -0.0049(9) 0.0072(9) -0.0033(10)
O6 0.0117(12) 0.0111(12) 0.0076(11) 0.0035(9) 0.0024(9) 0.0028(9)
O7 0.0081(11) 0.0069(11) 0.0108(11) -0.0007(9) -0.0012(9) 0.0023(9)
O8 0.0129(12) 0.0094(12) 0.0122(12) 0.0017(9) 0.0071(9) 0.0009(9)
O9 0.0125(13) 0.0160(13) 0.0082(11) 0.0012(9) 0.0007(10) -0.0022(10)
loop_
_atom_type_symbol
_atom_type_description
_atom_type_scat_dispersion_real
_atom_type_scat_dispersion_imag
_atom_type_scat_source
O O 0.0106 0.0060 'International Tables Vol C Tables 4.2.6.8 and 6.1.1.4'
P P 0.1023 0.0942 'International Tables Vol C Tables 4.2.6.8 and 6.1.1.4'
Mn Mn 0.3368 0.7283 'International Tables Vol C Tables 4.2.6.8 and 6.1.1.4'
Cs Cs -0.3680 2.1192 'International Tables Vol C Tables 4.2.6.8 and 6.1.1.4'
B B 0.0013 0.0007 'International Tables Vol C Tables 4.2.6.8 and 6.1.1.4'
H H 0.0000 0.0000 'International Tables Vol C Tables 4.2.6.8 and 6.1.1.4'
loop_
_geom_angle_atom_site_label_1
_geom_angle_atom_site_label_2
_geom_angle_atom_site_label_3
_geom_angle
_geom_angle_site_symmetry_1
_geom_angle_site_symmetry_3
O6 Cs1 O4 159.72(6) 4_565 .
O6 Cs1 O6 98.19(6) 4_565 2
O4 Cs1 O6 99.18(6) . 2
O6 Cs1 O3 100.72(6) 4_565 2
O4 Cs1 O3 84.33(6) . 2
O6 Cs1 O3 45.26(6) 2 2
O6 Cs1 O9 137.64(6) 4_565 .
O4 Cs1 O9 45.25(6) . .
O6 Cs1 O9 105.51(6) 2 .
O3 Cs1 O9 120.94(6) 2 .
O6 Cs1 O8 91.18(6) 4_565 2_655
O4 Cs1 O8 77.41(6) . 2_655
O6 Cs1 O8 93.45(6) 2 2_655
O3 Cs1 O8 48.43(6) 2 2_655
O9 Cs1 O8 121.21(6) . 2_655
O6 Cs1 O2 46.05(6) 4_565 4_565
O4 Cs1 O2 129.85(6) . 4_565
O6 Cs1 O2 119.60(6) 2 4_565
O3 Cs1 O2 145.55(6) 2 4_565
O9 Cs1 O2 91.59(6) . 4_565
O8 Cs1 O2 125.93(6) 2_655 4_565
O6 Cs1 O2 157.68(6) 4_565 .
O4 Cs1 O2 42.27(6) . .
O6 Cs1 O2 66.64(6) 2 .
O3 Cs1 O2 80.50(6) 2 .
O9 Cs1 O2 42.82(6) . .
O8 Cs1 O2 105.48(6) 2_655 .
O2 Cs1 O2 125.96(5) 4_565 .
O6 Cs1 O1 55.15(6) 4_565 2_655
O4 Cs1 O1 106.20(6) . 2_655
O6 Cs1 O1 121.86(6) 2 2_655
O3 Cs1 O1 86.09(6) 2 2_655
O9 Cs1 O1 129.45(6) . 2_655
O8 Cs1 O1 45.50(6) 2_655 2_655
O2 Cs1 O1 80.45(6) 4_565 2_655
O2 Cs1 O1 146.53(6) . 2_655
O6 Cs1 O5 94.11(6) 4_565 3
O4 Cs1 O5 105.02(6) . 3
O6 Cs1 O5 50.40(6) 2 3
O3 Cs1 O5 95.51(6) 2 3
O9 Cs1 O5 75.83(6) . 3
O8 Cs1 O5 143.85(6) 2_655 3
O2 Cs1 O5 80.86(6) 4_565 3
O2 Cs1 O5 63.67(6) . 3
O1 Cs1 O5 148.74(6) 2_655 3
O6 Cs1 B 162.67(8) 4_565 .
O4 Cs1 B 25.65(7) . .
O6 Cs1 B 91.82(8) 2 .
O3 Cs1 B 96.38(8) 2 .
O9 Cs1 B 25.03(8) . .
O8 Cs1 B 102.35(8) 2_655 .
O2 Cs1 B 116.62(8) 4_565 .
O2 Cs1 B 25.34(7) . .
O1 Cs1 B 129.57(7) 2_655 .
O5 Cs1 B 81.39(7) 3 .
O6 Cs1 O7 117.69(6) 4_565 2_655
O4 Cs1 O7 42.20(5) . 2_655
O6 Cs1 O7 128.77(6) 2 2_655
O3 Cs1 O7 90.55(6) 2 2_655
O9 Cs1 O7 72.34(6) . 2_655
O8 Cs1 O7 53.42(6) 2_655 2_655
O2 Cs1 O7 111.64(6) 4_565 2_655
O2 Cs1 O7 84.47(5) . 2_655
O1 Cs1 O7 65.02(5) 2_655 2_655
O5 Cs1 O7 145.91(6) 3 2_655
B Cs1 O7 64.59(7) . 2_655
O5 Mn O3 93.50(11) 4_566 2
O5 Mn O8 178.14(11) 4_566 2_655
O3 Mn O8 87.04(10) 2 2_655
O5 Mn O1 90.16(11) 4_566 3_666
O3 Mn O1 169.79(11) 2 3_666
O8 Mn O1 89.02(10) 2_655 3_666
O5 Mn O6 88.50(10) 4_566 1_565
O3 Mn O6 93.91(10) 2 1_565
O8 Mn O6 93.23(10) 2_655 1_565
O1 Mn O6 95.71(10) 3_666 1_565
O5 Mn O9 91.76(10) 4_566 4_566
O3 Mn O9 89.40(10) 2 4_566
O8 Mn O9 86.47(10) 2_655 4_566
O1 Mn O9 80.95(10) 3_666 4_566
O6 Mn O9 176.65(10) 1_565 4_566
O5 Mn Cs1 73.57(8) 4_566 4_576
O3 Mn Cs1 138.55(8) 2 4_576
O8 Mn Cs1 107.16(7) 2_655 4_576
O1 Mn Cs1 51.66(7) 3_666 4_576
O6 Mn Cs1 47.73(7) 1_565 4_576
O9 Mn Cs1 129.24(6) 4_566 4_576
O5 Mn Cs1 135.87(8) 4_566 .
O3 Mn Cs1 42.55(7) 2 .
O8 Mn Cs1 44.55(7) 2_655 .
O1 Mn Cs1 132.36(7) 3_666 .
O6 Mn Cs1 96.79(7) 1_565 .
O9 Mn Cs1 85.34(6) 4_566 .
Cs1 Mn Cs1 138.181(13) 4_576 .
O5 Mn Cs1 47.53(7) 4_566 2
O3 Mn Cs1 83.74(7) 2 2
O8 Mn Cs1 134.32(8) 2_655 2
O1 Mn Cs1 105.66(7) 3_666 2
O6 Mn Cs1 43.30(6) 1_565 2
O9 Mn Cs1 137.83(6) 4_566 2
Cs1 Mn Cs1 58.220(9) 4_576 2
Cs1 Mn Cs1 114.752(11) . 2
O6 P1 O3 107.41(13) . .
O6 P1 O5 112.67(14) . .
O3 P1 O5 111.60(14) . .
O6 P1 O2 108.91(14) . .
O3 P1 O2 108.01(14) . .
O5 P1 O2 108.11(13) . .
O6 P1 Cs1 57.12(10) . 4_566
O3 P1 Cs1 93.80(10) . 4_566
O5 P1 Cs1 154.59(10) . 4_566
O2 P1 Cs1 60.95(9) . 4_566
O6 P1 Cs1 53.38(9) . 2_545
O3 P1 Cs1 54.03(9) . 2_545
O5 P1 Cs1 128.99(10) . 2_545
O2 P1 Cs1 122.89(9) . 2_545
Cs1 P1 Cs1 66.622(15) 4_566 2_545
O6 P1 Cs1 96.15(10) . 3
O3 P1 Cs1 77.45(10) . 3
O5 P1 Cs1 45.98(9) . 3
O2 P1 Cs1 150.66(9) . 3
Cs1 P1 Cs1 148.38(2) 4_566 3
Cs1 P1 Cs1 84.192(17) 2_545 3
O8 P2 O1 112.83(14) . .
O8 P2 O4 107.83(14) . .
O1 P2 O4 106.78(13) . .
O8 P2 O7 111.38(13) . 2_655
O1 P2 O7 111.28(13) . 2_655
O4 P2 O7 106.36(13) . 2_655
O8 P2 Cs1 56.78(9) . 2_645
O1 P2 Cs1 59.89(10) . 2_645
O4 P2 Cs1 104.16(10) . 2_645
O7 P2 Cs1 149.45(9) 2_655 2_645
O8 P2 Cs1 110.34(10) . .
O1 P2 Cs1 134.57(10) . .
O4 P2 Cs1 45.12(9) . .
O7 P2 Cs1 63.48(9) 2_655 .
Cs1 P2 Cs1 145.08(2) 2_645 .
O9 B O2 107.5(3) . .
O9 B O4 113.3(3) . .
O2 B O4 103.0(3) . .
O9 B O7 111.1(3) . .
O2 B O7 112.5(3) . .
O4 B O7 109.2(3) . .
O9 B Cs1 69.33(17) . .
O2 B Cs1 70.89(17) . .
O4 B Cs1 67.21(16) . .
O7 B Cs1 175.9(2) . .
O9 B Cs1 159.2(2) . 4_566
O2 B Cs1 52.83(15) . 4_566
O4 B Cs1 70.14(17) . 4_566
O7 B Cs1 85.56(18) . 4_566
Cs1 B Cs1 94.96(9) . 4_566
P2 O1 Mn 130.02(15) . 3_666
P2 O1 Cs1 96.67(11) . 2_645
Mn O1 Cs1 100.88(9) 3_666 2_645
B O2 P1 126.7(2) . .
B O2 Cs1 105.94(19) . 4_566
P1 O2 Cs1 94.09(10) . 4_566
B O2 Cs1 83.77(18) . .
P1 O2 Cs1 132.51(12) . .
Cs1 O2 Cs1 113.00(7) 4_566 .
P1 O3 Mn 142.91(15) . 2_545
P1 O3 Cs1 103.21(11) . 2_545
Mn O3 Cs1 113.62(9) 2_545 2_545
B O4 P2 130.8(2) . .
B O4 Cs1 87.14(18) . .
P2 O4 Cs1 114.49(12) . .
B O4 Cs1 87.60(18) . 4_566
P2 O4 Cs1 124.25(12) . 4_566
Cs1 O4 Cs1 104.41(6) . 4_566
P1 O5 Mn 134.97(15) . 4_565
P1 O5 Cs1 114.85(11) . 3
Mn O5 Cs1 107.88(9) 4_565 3
P1 O6 Mn 141.64(15) . 1_545
P1 O6 Cs1 99.15(12) . 4_566
Mn O6 Cs1 102.86(9) 1_545 4_566
P1 O6 Cs1 104.12(11) . 2_545
Mn O6 Cs1 109.79(9) 1_545 2_545
Cs1 O6 Cs1 81.81(6) 4_566 2_545
B O7 P2 131.9(2) . 2_645
B O7 Cs1 124.75(18) . 2_645
P2 O7 Cs1 94.06(10) 2_645 2_645
P2 O8 Mn 139.31(15) . 2_645
P2 O8 Cs1 100.12(11) . 2_645
Mn O8 Cs1 110.82(10) 2_645 2_645
B O9 Mn 111.0(2) . 4_565
B O9 Cs1 85.64(18) . .
Mn O9 Cs1 121.11(9) 4_565 .
B O9 H 118(4) . .
Mn O9 H 116(4) 4_565 .
Cs1 O9 H 102(4) . .
loop_
_geom_bond_atom_site_label_1
_geom_bond_atom_site_label_2
_geom_bond_distance
_geom_bond_site_symmetry_2
Cs1 O6 3.144(2) 4_565
Cs1 O4 3.156(2) .
Cs1 O6 3.160(2) 2
Cs1 O3 3.174(2) 2
Cs1 O9 3.208(3) .
Cs1 O8 3.228(2) 2_655
Cs1 O2 3.239(2) 4_565
Cs1 O2 3.250(2) .
Cs1 O1 3.308(2) 2_655
Cs1 O5 3.360(2) 3
Cs1 B 3.419(4) .
Cs1 O7 3.636(2) 2_655
Mn O5 1.896(2) 4_566
Mn O3 1.896(2) 2
Mn O8 1.917(2) 2_655
Mn O1 1.945(2) 3_666
Mn O6 2.086(2) 1_565
Mn O9 2.361(3) 4_566
Mn Cs1 4.1419(6) 4_576
Mn Cs1 4.3356(6) 2
P1 O6 1.507(2) .
P1 O3 1.517(2) .
P1 O5 1.534(2) .
P1 O2 1.564(2) .
P1 Cs1 3.6959(9) 4_566
P1 Cs1 3.8179(8) 2_545
P1 Cs1 4.2399(9) 3
P2 O8 1.514(2) .
P2 O1 1.521(2) .
P2 O4 1.552(2) .
P2 O7 1.553(2) 2_655
P2 Cs1 3.7984(9) 2_645
B O9 1.451(4) .
B O2 1.472(4) .
B O4 1.482(4) .
B O7 1.488(4) .
B Cs1 3.909(4) 4_566
O1 Mn 1.945(2) 3_666
O1 Cs1 3.308(2) 2_645
O2 Cs1 3.239(2) 4_566
O3 Mn 1.896(2) 2_545
O3 Cs1 3.174(2) 2_545
O4 Cs1 3.680(2) 4_566
O5 Mn 1.896(2) 4_565
O5 Cs1 3.360(2) 3
O6 Mn 2.086(2) 1_545
O6 Cs1 3.144(2) 4_566
O6 Cs1 3.160(2) 2_545
O7 P2 1.553(2) 2_645
O7 Cs1 3.636(2) 2_645
O8 Mn 1.917(2) 2_645
O8 Cs1 3.228(2) 2_645
O9 Mn 2.361(3) 4_565
O9 H 0.882(10) .
loop_
_geom_hbond_atom_site_label_D
_geom_hbond_atom_site_label_H
_geom_hbond_atom_site_label_A
_geom_hbond_distance_DH
_geom_hbond_distance_HA
_geom_hbond_distance_DA
_geom_hbond_angle_DHA
_geom_hbond_site_symmetry_A
O9 H O9 0.882(10) 2.48(4) 3.215(5) 141(5) 3_655

_cod_database_fobs_code 2108555
