#------------------------------------------------------------------------------
#$Date: 2019-11-09 07:41:52 +0200 (Sat, 09 Nov 2019) $
#$Revision: 225414 $
#$URL: file:///home/coder/svn-repositories/cod/cif/2/10/85/2108516.cif $
#------------------------------------------------------------------------------
#
# This file is available in the Crystallography Open Database (COD),
# http://www.crystallography.net/. The original data for this entry
# were provided by IUCr Journals, http://journals.iucr.org/.
#
# The file may be used within the scientific community so long as
# proper attribution is given to the journal article from which the
# data were obtained.
#
data_2108516
loop_
_publ_author_name
'Medviediev, Volodymyr'
'Daszkiewicz, Marek'
_publ_section_title
;
 Structural, theoretic and spectroscopic analysis of
 2-methyl-5-nitroaniline salts with various inorganic acids
;
_journal_issue                   6
_journal_name_full               'Acta Crystallographica Section B'
_journal_page_first
;
;
_journal_paper_doi               10.1107/S2052520619012472
_journal_volume                  75
_journal_year                    2019
_chemical_formula_moiety         'C7 H9 N2 O2, I'
_chemical_formula_sum            'C7 H9 I N2 O2'
_chemical_formula_weight         280.06
_space_group_crystal_system      triclinic
_space_group_IT_number           2
_space_group_name_Hall           '-P 1'
_space_group_name_H-M_alt        'P -1'
_atom_sites_solution_hydrogens   geom
_atom_sites_solution_primary     dual
_audit_creation_date             2018-06-21
_audit_creation_method
;
Olex2 1.2
(compiled 2018.05.29 svn.r3508 for OlexSys, GUI svn.r5506)
;
_cell_angle_alpha                72.140(2)
_cell_angle_beta                 84.002(2)
_cell_angle_gamma                81.830(2)
_cell_formula_units_Z            2
_cell_length_a                   6.5954(2)
_cell_length_b                   8.7764(2)
_cell_length_c                   8.8564(3)
_cell_measurement_reflns_used    6516
_cell_measurement_temperature    295(1)
_cell_measurement_theta_max      29.7750
_cell_measurement_theta_min      2.9840
_cell_volume                     481.98(3)
_computing_cell_refinement       'CrysAlisPro 1.171.38.43 (Rigaku OD, 2015)'
_computing_data_collection       'CrysAlisPro 1.171.38.43 (Rigaku OD, 2015)'
_computing_data_reduction        'CrysAlisPro 1.171.38.43 (Rigaku OD, 2015)'
_computing_molecular_graphics    'Olex2 (Dolomanov et al., 2009)'
_computing_publication_material  'Olex2 (Dolomanov et al., 2009)'
_computing_structure_refinement  'ShelXL (Sheldrick, 2015)'
_computing_structure_solution    'ShelXT (Sheldrick, 2015)'
_diffrn_ambient_environment      air
_diffrn_ambient_temperature      295(1)
_diffrn_detector                 'CCD plate'
_diffrn_detector_area_resol_mean 10.6249
_diffrn_detector_type            Atlas
_diffrn_measured_fraction_theta_full 0.999
_diffrn_measured_fraction_theta_max 0.999
_diffrn_measurement_details
;
List of Runs (angles in degrees, time in seconds):

  # Type    Start    End  Width  t~exp~   \w     \q     \k     \f   Frames
--------------------------------------------------------------------------
  1  \w    -63.00  70.70   0.70    1.00    --   19.82 -19.00  60.00  191
  2  \w    -15.00 101.20   0.70    1.00    --   19.82  77.00 -30.00  166
  3  \w     -9.00  97.40   0.70    1.00    --   19.82  37.00  60.00  152
  4  \w    -25.00  21.20   0.70    1.00    --  -21.07 -99.00  60.00   66
  5  \w   -112.00 -35.00   0.70    1.00    --  -21.07-178.00  90.00  110
  6  \w    -25.00  62.50   0.70    1.00    --   19.82 -99.00-150.00  125
  7  \w     -9.00  97.40   0.70    1.00    --   19.82  37.00-120.00  152
  8  \w    -56.00  50.40   0.70    1.00    --   19.82 -57.00 -90.00  152
  9  \w    -58.00  48.40   0.70    1.00    --   19.82 -37.00 -60.00  152
 10  \w    -25.00  62.50   0.70    1.00    --   19.82 -99.00 -30.00  125
 11  \w    -25.00  21.20   0.70    1.00    --  -21.07 -99.00  30.00   66
 12  \w   -111.00 -32.60   0.70    1.00    --  -21.07 178.00 -30.00  112
 13  \w    -25.00  21.20   0.70    1.00    --  -21.07 -99.00-180.00   66
;
_diffrn_measurement_device       'four-circle diffractometer'
_diffrn_measurement_device_type  'Xcalibur, Atlas'
_diffrn_measurement_method       '\w scans'
_diffrn_orient_matrix_type
'CrysAlisPro convention (1999,Acta A55,543-557)'
_diffrn_orient_matrix_UB_11      -0.0839109000
_diffrn_orient_matrix_UB_12      -0.0014819000
_diffrn_orient_matrix_UB_13      -0.0433177000
_diffrn_orient_matrix_UB_21      -0.0693292000
_diffrn_orient_matrix_UB_22      0.0143430000
_diffrn_orient_matrix_UB_23      0.0623243000
_diffrn_orient_matrix_UB_31      -0.0025171000
_diffrn_orient_matrix_UB_32      0.0842658000
_diffrn_orient_matrix_UB_33      -0.0367304000
_diffrn_radiation_monochromator  graphite
_diffrn_radiation_probe          x-ray
_diffrn_radiation_type           MoK\a
_diffrn_radiation_wavelength     0.71073
_diffrn_reflns_av_R_equivalents  0.0291
_diffrn_reflns_av_unetI/netI     0.0188
_diffrn_reflns_Laue_measured_fraction_full 0.999
_diffrn_reflns_Laue_measured_fraction_max 0.999
_diffrn_reflns_limit_h_max       8
_diffrn_reflns_limit_h_min       -8
_diffrn_reflns_limit_k_max       11
_diffrn_reflns_limit_k_min       -11
_diffrn_reflns_limit_l_max       11
_diffrn_reflns_limit_l_min       -11
_diffrn_reflns_number            14289
_diffrn_reflns_point_group_measured_fraction_full 0.999
_diffrn_reflns_point_group_measured_fraction_max 0.999
_diffrn_reflns_theta_full        25.242
_diffrn_reflns_theta_max         28.696
_diffrn_reflns_theta_min         2.892
_diffrn_source                   'fine-focus sealed X-ray tube'
_diffrn_source_type              'Enhance (Mo) X-ray Source'
_exptl_absorpt_coefficient_mu    3.287
_exptl_absorpt_correction_T_max  0.719
_exptl_absorpt_correction_T_min  0.274
_exptl_absorpt_correction_type   gaussian
_exptl_absorpt_process_details
;
CrysAlisPro 1.171.38.43 (Rigaku Oxford Diffraction, 2015)
Numerical absorption correction based on gaussian integration over
   a multifaceted crystal model
Empirical absorption correction using spherical harmonics,
 implemented in SCALE3 ABSPACK scaling algorithm.
;
_exptl_crystal_colour            'clear light yellow'
_exptl_crystal_colour_lustre     clear
_exptl_crystal_colour_modifier   light
_exptl_crystal_colour_primary    yellow
_exptl_crystal_density_diffrn    1.930
_exptl_crystal_description       plate
_exptl_crystal_F_000             268
_exptl_crystal_size_max          0.484
_exptl_crystal_size_mid          0.372
_exptl_crystal_size_min          0.107
_refine_diff_density_max         0.657
_refine_diff_density_min         -0.793
_refine_diff_density_rms         0.069
_refine_ls_extinction_coef       0.0379(13)
_refine_ls_extinction_expression Fc^*^=kFc[1+0.001xFc^2^\l^3^/sin(2\q)]^-1/4^
_refine_ls_extinction_method     'SHELXL-2018/1 (Sheldrick 2018)'
_refine_ls_goodness_of_fit_ref   1.079
_refine_ls_hydrogen_treatment    constr
_refine_ls_matrix_type           full
_refine_ls_number_parameters     112
_refine_ls_number_reflns         2472
_refine_ls_number_restraints     0
_refine_ls_restrained_S_all      1.079
_refine_ls_R_factor_all          0.0253
_refine_ls_R_factor_gt           0.0221
_refine_ls_shift/su_max          0.001
_refine_ls_shift/su_mean         <0.001
_refine_ls_structure_factor_coef Fsqd
_refine_ls_weighting_details
'w=1/[\s^2^(Fo^2^)+(0.0209P)^2^+0.2291P] where P=(Fo^2^+2Fc^2^)/3'
_refine_ls_weighting_scheme      calc
_refine_ls_wR_factor_gt          0.0483
_refine_ls_wR_factor_ref         0.0495
_reflns_Friedel_coverage         0.000
_reflns_number_gt                2281
_reflns_number_total             2472
_reflns_threshold_expression     'I > 2\s(I)'
_cod_data_source_file            aw5028sup1.cif
_cod_data_source_block           2
_cod_database_code               2108516
_shelx_shelxl_version_number     2018/1
_chemical_oxdiff_formula         'C7 H9 N2 O2 I1'
_shelx_space_group_comment
;
The symmetry employed for this shelxl refinement is uniquely defined
by the following loop, which should always be used as a source of
symmetry information in preference to the above space-group names.
They are only intended as comments.
;
_shelx_estimated_absorpt_t_max   0.720
_shelx_estimated_absorpt_t_min   0.299
_reflns_odcompleteness_completeness 100.00
_reflns_odcompleteness_iscentric 1
_reflns_odcompleteness_theta     26.32
_olex2_refinement_description
;
1. Fixed Uiso
 At 1.2 times of:
  All C(H) groups, All N(H,H,H) groups
 At 1.5 times of:
  All C(H,H,H) groups
2.a Aromatic/amide H refined with riding coordinates:
 C3(H3), C4(H4), C6(H6)
2.b Idealised Me refined as rotating group:
 N1(H1a,H1b,H1c), C7(H7a,H7b,H7c)
;
_shelx_res_file
;
TITL V308_7.res in P-1
    v308_7.res
    created by SHELXL-2018/1 at 12:16:04 on 09-Apr-2018
CELL 0.71073 6.5954 8.7764 8.8564 72.14 84.002 81.83
ZERR 2 0.0002 0.0002 0.0003 0.002 0.002 0.002
LATT 1
SFAC C H I N O
UNIT 14 18 2 4 4
EQIV $1 2-X,1-Y,1-Z
EQIV $2 1-X,1-Y,1-Z

L.S. 16
PLAN  20
SIZE 0.107 0.372 0.484
TEMP 21.9(10)
HTAB N1 I1
HTAB N1 I1_$1
HTAB N1 I1_$2
BOND $H
conf
list 4
fmap 2
acta
SHEL 10 0.74
OMIT 0 1 0
OMIT 0 0 1
REM <olex2.extras>
REM <HklSrc "%.\\V308_7.hkl">
REM </olex2.extras>

WGHT    0.020900    0.229100
EXTI    0.037853
FVAR       0.70696
I1    3    0.785810    0.515054    0.246374    11.00000    0.04580    0.04790 =
         0.03675   -0.00647   -0.00244   -0.01056
O1    5    0.706509   -0.273312    0.616656    11.00000    0.11354    0.03695 =
         0.12220   -0.02851   -0.03365   -0.00866
O2    5    0.743621   -0.058226    0.418922    11.00000    0.09979    0.06798 =
         0.07031   -0.03404   -0.00271   -0.01964
N1    4    0.742057    0.384318    0.666037    11.00000    0.04320    0.03029 =
         0.03799   -0.00571   -0.00432   -0.00807
AFIX 137
H1A   2    0.843423    0.414094    0.705521    11.00000   -1.20000
H1B   2    0.622298    0.430639    0.696262    11.00000   -1.20000
H1C   2    0.758228    0.414880    0.560390    11.00000   -1.20000
AFIX   0
N2    4    0.732745   -0.129954    0.560298    11.00000    0.04553    0.03694 =
         0.09516   -0.02847   -0.01635    0.00033
C1    1    0.745731    0.208008    0.725442    11.00000    0.03078    0.02761 =
         0.03957   -0.00379   -0.00430   -0.00650
C2    1    0.747734    0.134021    0.889291    11.00000    0.03478    0.04087 =
         0.03968   -0.00245   -0.00454   -0.00776
C3    1    0.753261   -0.033286    0.941326    11.00000    0.04738    0.04203 =
         0.04565    0.00781   -0.00662   -0.00735
AFIX  43
H3    2    0.758303   -0.087070    1.049386    11.00000   -1.20000
AFIX   0
C4    1    0.751417   -0.121027    0.835987    11.00000    0.04363    0.03027 =
         0.07422    0.00017   -0.01000   -0.00622
AFIX  43
H4    2    0.755373   -0.232634    0.872486    11.00000   -1.20000
AFIX   0
C5    1    0.743667   -0.041081    0.676859    11.00000    0.03316    0.03074 =
         0.05969   -0.01206   -0.00701   -0.00344
C6    1    0.742379    0.125174    0.617409    11.00000    0.03504    0.03342 =
         0.04410   -0.00588   -0.00646   -0.00673
AFIX  43
H6    2    0.739373    0.177943    0.509029    11.00000   -1.20000
AFIX   0
C7    1    0.741038    0.229660    1.004436    11.00000    0.05519    0.06085 =
         0.03871   -0.01041   -0.00363   -0.01182
AFIX 137
H7A   2    0.617986    0.304073    0.993725    11.00000   -1.50000
H7B   2    0.858469    0.288173    0.982345    11.00000   -1.50000
H7C   2    0.742373    0.157925    1.110905    11.00000   -1.50000
AFIX   0
HKLF 4




REM  V308_7.res in P-1
REM R1 =  0.0221 for    2281 Fo > 4sig(Fo)  and  0.0253 for all    2472 data
REM    112 parameters refined using      0 restraints

END

WGHT      0.0209      0.2291

REM Highest difference peak  0.657,  deepest hole -0.793,  1-sigma level  0.069
Q1    1   0.7787  0.5812  0.2845  11.00000  0.05    0.66
Q2    1   0.8112  0.4278  0.3004  11.00000  0.05    0.41
Q3    1   0.7436  0.0425  0.6526  11.00000  0.05    0.35
Q4    1   0.6968 -0.2987  0.7141  11.00000  0.05    0.31
Q5    1   0.7362  0.0484  0.9073  11.00000  0.05    0.28
Q6    1   0.8024 -0.2624  0.5704  11.00000  0.05    0.27
Q7    1   0.7135 -0.0577  0.7556  11.00000  0.05    0.27
Q8    1   0.7556 -0.0679  0.6381  11.00000  0.05    0.27
Q9    1   0.6951  0.4990  0.2342  11.00000  0.05    0.26
Q10   1   0.7789  0.3362  1.1555  11.00000  0.05    0.25
Q11   1   0.8122 -0.1341  0.4658  11.00000  0.05    0.24
Q12   1   0.7546 -0.0616  0.8781  11.00000  0.05    0.23
Q13   1   0.7425  0.2708  0.7009  11.00000  0.05    0.23
Q14   1   0.8090  0.5476  0.4215  11.00000  0.05    0.21
Q15   1   0.7944 -0.1415  0.8257  11.00000  0.05    0.21
Q16   1   0.7172  0.3643  1.0214  11.00000  0.05    0.20
Q17   1   0.7477  0.5082  0.1218  11.00000  0.05    0.20
Q18   1   0.7282 -0.0581  1.0071  11.00000  0.05    0.20
Q19   1   0.6891  0.4947  0.9733  11.00000  0.05    0.20
Q20   1   0.7950  0.1706  0.6619  11.00000  0.05    0.20
;
_shelx_res_checksum              5389
_shelx_hkl_file
;
   0   0   1   -0.18    0.48
   0   0  -2 2133.32   24.35
   0   0  -2 2107.22   25.14
   0   0   2 2374.52   23.93
   0   0  -2 2160.56   23.86
   0   0  -2 2397.03   23.72
   0   0   2 2419.82   25.08
   0   0   2 2220.74   24.99
   0   0  -2 2385.28   24.46
   0   0   2 2215.86   25.40
   0   0  -3  231.84    9.97
   0   0  -3  215.49    9.32
   0   0  -3  250.49    9.71
   0   0  -3  221.17    7.23
   0   0   3  249.82   10.27
   0   0   3  231.07    9.34
   0   0   3  256.86    9.78
   0   0  -3  229.63    9.08
   0   0  -3  235.79   10.17
   0   0  -4 1338.20   24.18
   0   0   4 1348.14   26.55
   0   0  -4 1216.36   19.40
   0   0  -4 1269.63   25.54
   0   0  -4 1313.54   26.48
   0   0  -4 1323.04   25.94
   0   0   4 1374.32   26.13
   0   0   4 1304.40   23.80
   0   0  -4 1266.20   25.18
   0   0  -5   42.28    5.46
   0   0  -5   41.46    5.70
   0   0  -5   33.58    5.22
   0   0  -5   40.43    4.85
   0   0   5   40.44    5.45
   0   0  -5   37.52    4.01
   0   0   5   37.13    4.55
   0   0   6 1026.82   23.99
   0   0  -6 1055.15   27.81
   0   0   6 1024.98   16.96
   0   0  -6  988.65   26.75
   0   0   6 1112.80   28.12
   0   0  -6 1065.84   21.64
   0   0  -6 1046.08   26.82
   0   0   7    4.08    3.18
   0   0   7    0.68    2.36
   0   0  -7    2.41    2.98
   0   0  -7   -0.08    3.14
   0   0  -7   -1.67    3.20
   0   0   7    4.78    1.50
   0   0  -8  449.53   20.43
   0   0  -8  426.54   19.54
   0   0   8  458.98   20.47
   0   0   8  410.71   16.77
   0   0  -8  402.21   19.87
   0   0  -9   20.35    5.52
   0   0  -9   13.80    5.06
   0   0   9   19.31    4.40
   0   0  -9   19.94    5.79
   0   0   9   27.32    5.90
   0   0 -10  148.79   13.50
   0   0  10  130.85   12.46
   0   0 -10  132.79   12.29
   0   0  10  120.96   10.04
   0   0 -10  123.62   12.24
   0   0 -11    2.50    3.05
   0   0 -11    8.11    3.65
   0   0 -11    6.33    4.10
   0   0  11    2.78    2.95
   0   0  11   11.83    4.35
   0   0 -12   41.24    7.99
   0   0  12   57.59    8.92
   0   1 -11   12.90    4.84
   0   1 -11    7.44    4.18
   0  -1  11   11.58    4.69
   0   1 -11    9.94    4.44
   0   1 -10  156.83   13.96
   0   1 -10  149.77   13.12
   0   1 -10  119.15   12.13
   0  -1  10  158.42   13.80
   0   1  -9   36.83    6.83
   0  -1   9   31.35    4.80
   0   1  -9   39.19    6.91
   0   1  -9   27.27    5.77
   0  -1   9   30.13    6.25
   0   1  -8  364.77   18.89
   0   1  -8  367.71   18.03
   0  -1   8  376.61   19.17
   0   1  -8  376.39   19.12
   0  -1   8  345.03   14.56
   0  -1   7   81.64    5.62
   0   1  -7   79.06    8.10
   0   1  -7   82.64    8.85
   0  -1   7   73.25    6.54
   0   1  -7   86.88    9.09
   0  -1   7   90.20    9.24
   0   1  -6  734.55   17.10
   0  -1   6  750.11   16.43
   0   1  -6  787.35   23.01
   0  -1   6  748.13   19.02
   0   1  -6  774.18   24.54
   0  -1   6  808.80   24.96
   0   1  -6  783.75   24.38
   0   1  -5   32.62    3.75
   0  -1   5   30.54    3.34
   0   1  -5   30.42    5.00
   0   1  -5   34.21    4.95
   0   1  -5   34.34    4.06
   0  -1   5   35.77    5.49
   0  -1   5   32.03    3.98
   0   1  -5   35.11    3.60
   0   1  -5   35.66    5.41
   0   1  -4 2715.49   39.49
   0   1  -4 2624.80   35.64
   0   1  -4 2672.80   26.92
   0   1  -4 2827.45   31.33
   0  -1   4 2987.75   41.32
   0  -1   4 2707.87   30.87
   0  -1   4 2808.43   36.02
   0   1  -4 2904.03   31.77
   0  -1   4 2798.06   23.72
   0  -1   4 2654.09   28.46
   0  -1   4 2771.52   37.93
   0   1  -4 2759.90   38.14
   0  -1   3  115.02    6.95
   0  -1   3  106.94    6.81
   0   1  -3  112.15    5.55
   0   1  -3  112.33    7.44
   0  -1   3  108.07    6.61
   0   1  -3  108.56    5.70
   0   1  -3   97.87    4.47
   0  -1   3  111.89    7.48
   0  -1   3  107.66    4.67
   0  -1   3  113.02    5.51
   0   1  -3  110.10    7.24
   0   1  -3  105.94    6.46
   0  -1   3  114.77    7.56
   0  -1   3  113.24    5.67
   0   1  -3  114.85    7.27
   0  -1   3  108.69    5.94
   0  -1   3  118.02    7.36
   0  -1   2 3622.58   34.16
   0  -1   2 3729.88   34.36
   0  -1   2 3841.19   30.90
   0   1  -2 3520.52   25.22
   0  -1   2 3890.93   32.83
   0   1  -2 3743.06   29.22
   0  -1   2 3692.09   27.26
   0  -1   2 3609.92   28.58
   0   1  -2 3762.85   21.45
   0   1  -2 3884.99   30.13
   0  -1   2 4005.38   38.27
   0   1  -2 3939.45   37.10
   0  -1   2 3908.46   27.14
   0   1  -2 3567.13   33.52
   0   1  -2 3600.55   31.43
   0  -1   2 3701.63   34.92
   0  -1   1  175.14    4.43
   0  -1   1  179.00    6.27
   0  -1   1  180.47    5.14
   0   1  -1  179.55    4.39
   0   1  -1  187.99    5.02
   0   1  -1  181.93    6.03
   0  -1   1  178.88    5.98
   0   1  -1  185.92    6.48
   0   1  -1  187.27    5.15
   0  -1   1  182.01    6.54
   0   1  -1  177.24    5.06
   0  -1   1  177.09    5.78
   0   1  -1  174.40    5.27
   0  -1   1  182.44    5.10
   0  -1   1  179.01    5.51
   0  -1   1  169.07    4.83
   0   1   0    0.52    0.31
   0   1   1   74.46    2.35
   0   1   1   31.84    2.46
   0   1   2 3937.35   17.80
   0  -1  -2 3701.60   33.35
   0  -1  -2 3872.52   26.93
   0   1   2 3935.83   21.51
   0   1   2 3718.99   34.24
   0   1   2 3759.30   25.29
   0   1   3  148.30    5.88
   0  -1  -3  153.05    6.22
   0  -1  -3  145.83    7.45
   0   1   3  148.51    8.47
   0   1   3  152.70    7.11
   0  -1  -3  163.15    8.30
   0  -1  -3  153.76    7.88
   0   1   4 1944.29   32.20
   0   1   4 1972.90   30.75
   0  -1  -4 2017.84   27.71
   0   1   4 1923.72   25.62
   0  -1  -4 1983.43   31.82
   0  -1  -4 2031.36   32.46
   0  -1  -4 2102.64   33.27
   0   1   5    0.54    1.89
   0  -1  -5    5.09    2.96
   0   1   5    3.39    2.65
   0  -1  -5    6.47    3.04
   0  -1  -6  683.12   22.24
   0   1   6  703.51   21.52
   0  -1  -6  721.22   22.77
   0   1   6  710.01   20.85
   0  -1  -6  752.07   23.06
   0  -1  -7    2.68    2.98
   0   1   7    1.69    3.13
   0   1   7   -0.03    2.44
   0  -1  -7    8.43    3.64
   0  -1  -7    9.51    4.56
   0  -1  -8  553.20   22.33
   0  -1  -8  571.21   22.76
   0   1   8  514.90   19.82
   0  -1  -8  533.38   22.78
   0   1   8  518.85   21.09
   0   1   9   10.95    4.60
   0  -1  -9   11.05    4.78
   0  -1  -9   11.19    4.71
   0  -1  -9   10.11    4.07
   0   1   9    7.40    3.29
   0  -1 -10  176.17   14.74
   0  -1 -10  182.90   14.32
   0   1  10  159.99   12.09
   0   1  10  168.87   13.65
   0  -1 -10  154.72   13.37
   0  -1 -11   12.29    4.01
   0   1  11    6.16    3.48
   0  -1 -11    8.22    4.16
   0  -1 -11    3.37    4.52
   0   1  11   10.04    4.34
   0   1  12   45.55    8.19
   0  -1 -12   61.69    9.42
   0  -1 -12   53.86    8.74
   0   1  12   50.26    7.73
   0  -1 -12   52.59    9.02
   0   2 -11   43.09    8.15
   0   2 -11   32.00    6.80
   0   2 -11   47.89    8.41
   0  -2  11   57.18    9.31
   0   2 -10   99.47   11.44
   0  -2  10   95.61   11.14
   0   2 -10   93.53   10.64
   0   2 -10  106.52   12.03
   0   2  -9   23.62    5.96
   0  -2   9   26.76    6.58
   0   2  -9   25.29    5.76
   0   2  -9   24.59    6.03
   0  -2   8  166.76   13.42
   0   2  -8  143.79   11.44
   0   2  -8  167.89   13.23
   0  -2   8  134.69    8.55
   0   2  -8  139.44   12.28
   0   2  -7   14.50    4.11
   0   2  -7   13.33    4.37
   0   2  -7   18.96    5.04
   0  -2   7   16.49    3.13
   0  -2   7   20.63    5.54
   0  -2   6  789.12   25.68
   0   2  -6  794.12   23.32
   0   2  -6  754.31   25.12
   0  -2   6  733.08   17.25
   0   2  -6  760.08   17.41
   0   2  -6  775.89   24.78
   0   2  -6  715.20   14.70
   0   2  -5   27.50    5.14
   0   2  -5   28.62    3.23
   0   2  -5   27.20    2.74
   0  -2   5   27.70    3.60
   0   2  -5   26.58    5.06
   0  -2   5   23.94    5.09
   0   2  -5   28.98    4.61
   0  -2   5   29.12    3.36
   0  -2   5   27.87    3.28
   0  -2   4 1256.31   23.54
   0   2  -4 1265.12   18.22
   0   2  -4 1279.89   24.73
   0   2  -4 1300.82   27.22
   0  -2   4 1320.73   20.82
   0  -2   4 1326.53   29.45
   0   2  -4 1259.21   22.82
   0   2  -4 1213.51   15.42
   0   2  -4 1277.75   28.73
   0  -2   4 1278.63   23.17
   0  -2   4 1245.01   18.38
   0  -2   3  293.38    9.80
   0  -2   3  287.04    7.01
   0  -2   3  308.97   10.56
   0  -2   3  277.55   11.88
   0   2  -3  298.43   11.90
   0  -2   3  304.80   13.27
   0   2  -3  305.66   10.32
   0  -2   3  320.27   11.10
   0  -2   3  299.86   12.48
   0   2  -3  295.50   11.39
   0  -2   3  299.47   10.45
   0   2  -3  270.06    6.91
   0   2  -3  293.16    5.99
   0   2  -3  312.03   10.98
   0   2  -2 2333.05   27.23
   0  -2   2 2302.80   25.06
   0  -2   2 2270.76   25.82
   0   2  -2 2244.13   25.66
   0  -2   2 2256.18   27.32
   0  -2   2 2429.98   33.40
   0   2  -2 2334.56   22.43
   0  -2   2 2362.72   26.55
   0  -2   2 2389.16   30.87
   0  -2   2 2315.75   31.97
   0   2  -2 2389.51   25.33
   0  -2   2 2402.38   23.77
   0  -2   2 2313.76   28.27
   0  -2   1  173.07    5.93
   0  -2   1  184.98    7.50
   0   2  -1  181.10    7.39
   0  -2   1  183.80    6.98
   0   2  -1  174.78    4.64
   0   2  -1  175.82    5.83
   0   2  -1  182.49    6.02
   0  -2   1  181.71    6.59
   0  -2   1  170.27    2.89
   0  -2   1  176.29    6.15
   0   2  -1  194.64    6.60
   0   2  -1  188.02    7.10
   0  -2   1  197.06    7.78
   0  -2   1  190.48    6.27
   0  -2   1  177.02    4.77
   0  -2   0 2756.23   22.68
   0  -2   0 2562.58   19.88
   0  -2   0 2474.49   19.24
   0   2   0 2728.42   13.29
   0   2   0 2774.58   22.51
   0   2   0 2675.57   14.68
   0   2   0 2606.40   20.24
   0  -2   0 2501.80   19.10
   0   2   0 2681.74   22.77
   0  -2   0 2634.72   21.90
   0  -2   0 2723.83   16.74
   0   2   0 2487.31   19.53
   0  -2   0 2678.25   12.87
   0   2   0 2752.92   16.44
   0   2   1  380.75    4.86
   0   2   1  382.37    9.01
   0  -2  -1  385.67    6.67
   0  -2  -1  386.90    6.26
   0   2   1  378.06    6.20
   0  -2  -1  409.45    8.00
   0   2   1  391.78    8.03
   0  -2  -1  377.41    4.96
   0   2   1  389.32    6.86
   0  -2  -1  386.84   10.54
   0   2   1  372.59    6.76
   0  -2  -1  387.84    6.92
   0  -2  -2 2939.67   18.78
   0   2   2 2777.86   31.12
   0   2   2 3015.81   21.53
   0  -2  -2 3018.69   20.54
   0  -2  -2 2839.45   33.07
   0   2   2 2962.09   17.06
   0   2   2 2819.66   16.99
   0  -2  -2 2951.02   15.88
   0  -2  -3   87.30    6.69
   0  -2  -3   89.25    3.89
   0   2   3   87.06    6.85
   0   2   3   87.26    4.35
   0   2   3   83.53    3.70
   0   2   3   78.98    3.47
   0  -2  -3   88.90    4.95
   0   2   4 1458.83   22.22
   0   2   4 1457.45   30.08
   0   2   4 1422.38   15.57
   0  -2  -4 1443.16   29.59
   0  -2  -4 1452.50   26.50
   0  -2  -4 1468.78   20.20
   0  -2  -4 1422.52   24.21
   0   2   4 1421.67   18.36
   0  -2  -5   27.79    4.94
   0   2   5   24.86    4.89
   0  -2  -5   24.81    3.49
   0   2   5   17.05    2.92
   0   2   5   21.82    2.24
   0  -2  -5   23.51    4.30
   0  -2  -6 1131.60   28.13
   0   2   6 1176.70   29.42
   0   2   6 1092.41   22.62
   0  -2  -6 1143.83   29.23
   0  -2  -7  112.70   10.57
   0   2   7   99.11    5.15
   0   2   7  101.80    8.18
   0   2   7  108.86    9.68
   0  -2  -7  107.17    9.42
   0   2   8  362.82    9.69
   0   2   8  365.20   16.83
   0  -2  -8  386.04   18.46
   0   2   8  363.65   17.61
   0  -2  -8  374.35   19.20
   0  -2  -8  393.20   19.34
   0   2   9    0.77    2.55
   0  -2  -9    3.81    4.06
   0  -2  -9   -1.12    2.98
   0   2   9    0.04    3.55
   0  -2  -9    3.98    3.38
   0   2  10  250.47   16.13
   0  -2 -10  245.90   16.35
   0  -2 -10  250.10   17.80
   0  -2 -10  239.38   16.57
   0   2  11    0.31    2.78
   0  -2 -11   -0.99    3.05
   0  -2 -11    3.68    3.11
   0  -2 -11   -0.09    3.44
   0   2  11   -0.58    2.98
   0   2  12   57.21    8.32
   0  -2 -12   60.74    9.25
   0  -2 -12   65.32   10.37
   0  -2 -12   58.68    9.25
   0   2  12   54.17    8.56
   0   2  13    1.72    3.32
   0   3 -11   -3.02    2.03
   0   3 -10   24.05    5.59
   0   3 -10   34.22    7.08
   0  -3  10   33.62    7.55
   0   3 -10   24.04    6.40
   0  -3   9   37.41    7.56
   0   3  -9   26.98    5.90
   0   3  -9   29.27    5.96
   0   3  -9   20.05    5.70
   0   3  -8  230.28   14.60
   0   3  -8  221.94   15.66
   0  -3   8  246.81   16.75
   0   3  -8  243.08   16.43
   0   3  -7   62.12    8.38
   0   3  -7   66.11    8.37
   0  -3   7   67.52    8.80
   0  -3   7   54.29    4.62
   0   3  -7   52.30    6.88
   0  -3   6  466.33   14.11
   0   3  -6  436.22   11.47
   0  -3   6  441.14   11.90
   0   3  -6  440.50   19.71
   0   3  -6  444.96   17.86
   0   3  -6  423.92    9.53
   0  -3   6  496.79   21.36
   0   3  -6  451.57   20.45
   0   3  -5   77.22    7.02
   0  -3   5   70.96    4.30
   0  -3   5   80.46    8.58
   0  -3   5   76.86    6.05
   0   3  -5   69.50    7.76
   0   3  -5   74.76    3.61
   0   3  -5   68.50    4.11
   0   3  -5   69.47    7.88
   0  -3   5   80.04    7.35
   0  -3   4 1009.88   27.47
   0  -3   4  996.31   21.22
   0   3  -4 1023.62   21.73
   0   3  -4  934.61   10.16
   0  -3   4  951.51   12.29
   0   3  -4 1003.45   24.55
   0   3  -4 1000.53   25.55
   0  -3   4 1014.19   22.98
   0  -3   3  169.05    8.59
   0  -3   3  183.12    8.46
   0  -3   3  175.25    9.10
   0   3  -3  180.91    9.57
   0  -3   3  181.54   11.06
   0   3  -3  178.87    9.34
   0  -3   3  160.14    8.64
   0   3  -3  167.31    7.56
   0  -3   2 2688.05   35.57
   0  -3   2 2777.55   33.03
   0   3  -2 2655.67   30.35
   0   3  -2 2667.94   24.52
   0   3  -2 2768.45   31.20
   0  -3   2 2719.00   25.89
   0  -3   2 2635.92   32.49
   0  -3   2 2685.35   30.70
   0  -3   2 2799.51   39.03
   0   3  -2 2706.39   31.19
   0  -3   1  544.61   14.76
   0   3  -1  509.96   13.42
   0   3  -1  520.62   12.88
   0  -3   1  535.67   13.47
   0  -3   1  541.78   14.54
   0  -3   1  515.81    9.25
   0   3  -1  539.87   14.94
   0  -3   1  506.47    6.49
   0  -3   1  519.49   12.41
   0  -3   1  528.61   11.75
   0   3  -1  502.10    8.82
   0   3  -1  513.22   10.91
   0  -3   1  529.32    9.09
   0   3  -1  513.28   12.00
   0  -3   1  532.91   13.37
   0  -3   1  533.98   12.00
   0  -3   0 2622.15   24.30
   0  -3   0 2713.18   27.21
   0  -3   0 2695.68   20.70
   0  -3   0 2703.26   27.95
   0   3   0 2833.51   28.12
   0   3   0 2571.43   24.29
   0   3   0 2778.85   29.20
   0   3   0 2738.12   17.08
   0  -3   0 2667.77   17.78
   0  -3   0 2648.40   21.16
   0   3   0 2664.76   25.41
   0  -3   0 2626.40   15.80
   0  -3   0 2656.21   24.64
   0   3   0 2719.84   20.28
   0   3   1  330.58    4.99
   0   3   1  342.13    7.94
   0   3   1  336.76    7.71
   0  -3  -1  334.76    7.86
   0  -3  -1  330.52    7.43
   0  -3  -1  327.47    5.02
   0  -3  -1  348.35    8.58
   0   3   1  344.29    9.44
   0  -3  -1  337.10    9.18
   0  -3  -1  333.27    8.09
   0  -3  -1  349.28   11.62
   0   3   1  319.34    8.41
   0   3   1  329.03    8.72
   0  -3  -1  322.74    5.98
   0   3   2 1164.60   13.00
   0  -3  -2 1185.33   15.30
   0  -3  -2 1211.44   16.61
   0   3   2 1202.42   20.96
   0  -3  -2 1152.13   24.12
   0   3   2 1191.73   16.99
   0   3   2 1146.21   11.81
   0  -3  -2 1202.73   11.25
   0   3   2 1188.81   15.16
   0   3   2 1135.93   13.77
   0  -3  -2 1132.67   12.92
   0  -3  -2 1160.29   13.41
   0   3   3  235.10    7.53
   0   3   3  227.87    5.99
   0   3   3  240.04    5.63
   0  -3  -3  225.70    5.49
   0   3   3  235.20    7.20
   0  -3  -3  231.63    6.75
   0   3   3  227.53   10.85
   0  -3  -3  232.04   12.03
   0  -3  -3  235.67    7.11
   0   3   3  228.90    5.98
   0   3   3  227.20    7.32
   0   3   4 1908.56   21.62
   0  -3  -4 1927.70   20.25
   0  -3  -4 1975.52   25.36
   0   3   4 1872.81   35.34
   0   3   4 1863.11   17.85
   0   3   4 1844.13   18.55
   0  -3  -5    8.65    3.45
   0  -3  -5    7.05    2.14
   0   3   5   17.24    2.80
   0   3   5    5.75    2.58
   0   3   5    9.23    5.01
   0  -3  -5   18.69    4.27
   0   3   6 1221.50   18.61
   0   3   6 1304.98   32.93
   0   3   6 1232.69   21.35
   0  -3  -6 1268.32   31.48
   0  -3  -6 1339.67   29.58
   0   3   7   81.11    5.04
   0   3   7   84.66    8.98
   0  -3  -7   98.82    8.95
   0   3   7   82.74    6.64
   0  -3  -7   79.74    8.89
   0  -3  -7   79.78    3.80
   0   3   8  607.38   13.74
   0   3   8  582.76   18.99
   0   3   8  638.58   24.49
   0  -3  -8  624.85   24.70
   0  -3  -8  659.24   23.67
   0  -3  -9    4.54    3.73
   0  -3  -9    6.99    3.52
   0   3   9    4.39    3.47
   0  -3  -9    4.59    3.93
   0   3   9    3.61    2.63
   0  -3 -10  172.37   15.09
   0   3  10  170.88   13.43
   0   3  10  169.87   12.76
   0  -3 -10  183.87   14.76
   0  -3 -10  170.47   13.47
   0   3  11    1.60    2.85
   0  -3 -11    5.00    3.02
   0  -3 -11    3.07    3.24
   0  -3 -11    0.02    4.38
   0   3  11    2.63    2.93
   0  -3 -12   47.05    8.57
   0   3  12   47.12    7.77
   0  -3 -12   40.71    8.63
   0  -3 -12   44.19    7.86
   0   3  12   40.43    7.17
   0   3  13   -2.28    3.47
   0   4 -10   46.22    8.61
   0   4 -10   45.77    7.77
   0  -4  10   39.13    7.63
   0   4 -10   55.63    9.22
   0   4  -9   31.06    7.03
   0  -4   9   24.20    6.33
   0  -4   9   21.13    5.40
   0   4  -9   23.32    6.68
   0   4  -9   17.25    4.36
   0  -4   8  125.29   12.58
   0   4  -8  115.41   12.04
   0   4  -8  120.23   10.81
   0   4  -8  108.73   11.46
   0   4  -7   51.46    7.89
   0   4  -7   34.84    5.80
   0   4  -7   44.71    7.57
   0  -4   7   56.33    8.41
   0  -4   7   52.82    5.72
   0   4  -6  361.15   19.02
   0   4  -6  341.78   16.12
   0  -4   6  358.52   19.03
   0  -4   6  348.12   13.93
   0  -4   6  386.78   17.06
   0   4  -6  375.53   19.17
   0  -4   5  157.35    9.66
   0   4  -5  156.75    9.82
   0   4  -5  170.08   12.03
   0  -4   5  144.16   11.77
   0   4  -5  151.25   11.66
   0  -4   5  158.94   10.81
   0   4  -4 1423.31   31.51
   0   4  -4 1377.48   25.27
   0  -4   4 1347.17   28.33
   0  -4   4 1342.30   27.74
   0   4  -4 1385.02   30.22
   0  -4   4 1467.96   34.70
   0  -4   3  142.92    7.68
   0  -4   3  140.57    8.66
   0   4  -3  128.40    6.72
   0  -4   3  127.99    7.42
   0   4  -3  147.90    9.01
   0   4  -3  132.01    8.65
   0  -4   3  138.37   10.42
   0  -4   3  141.76    9.32
   0   4  -2 1100.49   16.62
   0   4  -2 1194.81   26.07
   0  -4   2 1135.98   18.23
   0   4  -2 1166.07   23.17
   0   4  -2 1156.50   21.28
   0  -4   2 1129.04   17.59
   0  -4   2 1101.61   21.95
   0  -4   2 1172.23   27.37
   0  -4   2 1130.99   26.17
   0   4  -2 1142.70   22.06
   0   4  -1  920.54   22.03
   0   4  -1  871.40   19.08
   0  -4   1  839.60   12.74
   0  -4   1  871.28   18.61
   0  -4   1  856.23   10.05
   0   4  -1  850.87   12.65
   0   4  -1  858.44   17.51
   0  -4   1  878.73   16.90
   0  -4   1  868.10   12.84
   0   4  -1  870.44   15.66
   0  -4   1  845.12   19.92
   0   4  -1  884.08   20.05
   0  -4   1  872.24   23.57
   0   4   0 1170.43   19.81
   0  -4   0 1174.61   13.51
   0  -4   0 1171.76   18.13
   0   4   0 1217.38   15.66
   0   4   0 1239.52   22.90
   0  -4   0 1173.26   18.93
   0  -4   0 1184.74   14.47
   0  -4   0 1220.90   19.29
   0  -4   0 1196.85   21.05
   0   4   0 1203.07   12.34
   0  -4   0 1159.61   16.02
   0   4   0 1193.00   19.28
   0  -4   0 1168.04   12.07
   0   4   0 1221.46   21.54
   0  -4  -1  388.39    7.78
   0   4   1  387.56   11.82
   0  -4  -1  425.18   10.45
   0  -4  -1  410.38   10.95
   0  -4  -1  413.45   12.04
   0   4   1  405.69    9.95
   0  -4  -1  389.33    7.95
   0   4   1  401.40   10.30
   0  -4  -1  415.73   12.77
   0  -4  -1  387.24    9.71
   0  -4  -1  389.73    6.16
   0   4   1  383.58    6.09
   0   4   1  422.01   11.89
   0  -4  -1  390.71   10.52
   0  -4  -2 1412.52   17.02
   0  -4  -2 1358.96   17.77
   0  -4  -2 1382.69   18.63
   0   4   2 1358.91   12.76
   0   4   2 1392.19   22.83
   0   4   2 1393.44   19.07
   0  -4  -2 1456.37   30.05
   0   4   2 1350.10   18.42
   0  -4  -2 1461.05   21.54
   0   4   2 1428.38   22.07
   0  -4  -2 1363.35   13.82
   0   4   2 1358.84   17.03
   0   4   3  701.62   11.47
   0  -4  -3  711.43   11.36
   0   4   3  727.98   19.37
   0  -4  -3  716.76    9.97
   0  -4  -3  710.96   14.53
   0   4   3  703.92   15.38
   0  -4  -3  727.84   12.21
   0  -4  -3  762.24   23.41
   0   4   3  758.05   14.35
   0   4   3  701.13   11.92
   0   4   3  705.72   12.65
   0  -4  -4 1167.99   18.25
   0   4   4 1124.24   15.62
   0  -4  -4 1187.51   14.59
   0   4   4 1141.48   14.04
   0  -4  -4 1157.47   18.02
   0   4   4 1154.49   27.98
   0   4   4 1157.19   15.71
   0   4   4 1173.15   18.33
   0   4   4 1190.78   20.08
   0  -4  -5   14.90    3.03
   0   4   5   16.65    2.68
   0   4   5   12.90    2.04
   0   4   5   14.38    2.06
   0   4   5   21.00    5.02
   0  -4  -5   18.61    2.45
   0   4   5   12.78    2.13
   0  -4  -6  731.33   16.96
   0  -4  -6  776.35   24.23
   0   4   6  741.84   15.14
   0  -4  -6  758.82   21.43
   0   4   6  696.41   16.00
   0   4   6  731.50   13.66
   0   4   6  779.98   26.73
   0  -4  -7   24.47    3.15
   0   4   7   28.69    3.81
   0   4   7   31.19    6.05
   0   4   7   24.41    3.32
   0  -4  -7   29.32    6.25
   0  -4  -7   24.45    4.96
   0  -4  -8  409.15   10.04
   0  -4  -8  415.93   21.18
   0   4   8  432.64   21.15
   0   4   8  398.52   14.40
   0   4   8  398.40   12.67
   0  -4  -8  429.14   18.99
   0  -4  -9   17.39    4.50
   0   4   9   15.02    3.88
   0   4   9   17.70    4.99
   0  -4  -9   18.70    5.60
   0   4  10  102.94    9.25
   0  -4 -10  101.91   11.70
   0  -4 -10  106.52   10.66
   0  -4 -10  114.90   12.31
   0   4  10  125.99   12.35
   0  -4 -11    0.84    2.22
   0   4  11    0.63    3.42
   0  -4 -11    6.96    4.70
   0  -4 -11    1.92    3.02
   0   4  11   -2.12    2.87
   0   4  12   62.46    9.33
   0  -4 -12   52.19    8.21
   0  -4 -12   51.43    8.66
   0  -4 -12   60.77   10.64
   0  -4 -13   -3.98    3.11
   0  -5   9   32.39    6.60
   0   5  -9   17.12    4.65
   0   5  -9   28.68    6.81
   0   5  -9   14.74    5.20
   0  -5   9   27.50    6.75
   0   5  -8   95.52   11.46
   0  -5   8   83.19    9.95
   0  -5   8  111.52   12.41
   0   5  -8  114.57   10.69
   0   5  -8  103.14   11.84
   0   5  -7   53.35    8.42
   0  -5   7   63.00    8.90
   0   5  -7   60.41    8.75
   0   5  -7   59.24    7.52
   0  -5   7   61.60    8.23
   0  -5   6  266.58   17.21
   0   5  -6  250.62   16.72
   0  -5   6  256.55   13.36
   0   5  -6  254.00   16.55
   0   5  -6  258.06   13.97
   0  -5   6  230.64   14.44
   0  -5   6  267.15   15.29
   0  -5   5  241.57   13.48
   0  -5   5  229.63   15.45
   0  -5   5  241.83   13.16
   0   5  -5  246.43   15.21
   0   5  -5  269.26   15.70
   0   5  -5  248.83   12.39
   0  -5   5  275.13   14.98
   0  -5   4  101.75    8.82
   0   5  -4   96.22    8.73
   0  -5   4   91.11    8.32
   0  -5   4   84.27    9.11
   0   5  -4   98.44    8.87
   0  -5   4   85.55    7.23
   0   5  -4   97.35    6.98
   0  -5   3  484.27   14.56
   0   5  -3  522.22   17.99
   0   5  -3  500.54   17.10
   0  -5   3  488.85   18.92
   0  -5   3  480.34   17.24
   0  -5   3  500.24   20.45
   0   5  -3  506.70   13.72
   0   5  -2  543.26   15.52
   0  -5   2  510.30   19.56
   0   5  -2  513.14   12.23
   0  -5   2  544.15   17.20
   0  -5   2  544.89   20.26
   0  -5   2  523.41   12.77
   0   5  -2  557.93   18.05
   0   5  -2  533.35   16.67
   0  -5   2  515.49   12.61
   0   5  -2  525.87   18.87
   0  -5   2  484.42    6.75
   0   5  -1   92.25    7.49
   0  -5   1   74.23    6.87
   0   5  -1   94.54    6.76
   0  -5   1   81.99    8.41
   0  -5   1   83.36    4.49
   0  -5   1   84.62    3.68
   0  -5   1   86.73    4.46
   0  -5   1   85.53    6.66
   0   5  -1   78.28    7.55
   0   5  -1   78.87    4.34
   0   5  -1   93.15    7.26
   0   5  -1   77.99    5.23
   0  -5   0 1124.68   17.90
   0   5   0 1161.98   24.93
   0  -5   0 1140.29   20.15
   0  -5   0 1076.13   13.89
   0   5   0 1090.32   12.52
   0  -5   0 1089.65   12.91
   0  -5   0 1095.21   15.28
   0   5   0 1116.25   22.13
   0   5   0 1090.30   21.00
   0  -5   0 1072.45   14.67
   0   5   0 1143.63   23.73
   0  -5   0 1089.63   21.54
   0   5   1  230.81    7.71
   0  -5  -1  212.04    6.74
   0  -5  -1  222.64    6.69
   0   5   1  229.12    9.06
   0   5   1  236.49   10.64
   0   5   1  223.07    5.16
   0  -5  -1  234.70    8.73
   0  -5  -1  225.50    5.21
   0  -5  -1  237.17    9.49
   0   5   1  238.60   10.47
   0  -5  -1  242.58    8.93
   0  -5  -2  836.73   22.38
   0  -5  -2  823.85   12.07
   0  -5  -2  839.06   16.20
   0   5   2  816.86   10.18
   0   5   2  858.88   18.00
   0  -5  -2  794.11   16.04
   0   5   2  854.97   19.74
   0  -5  -2  825.83   15.00
   0   5   2  885.11   18.40
   0   5   2  828.84   15.75
   0   5   3   56.28    5.33
   0  -5  -3   71.33    4.49
   0  -5  -3   69.78    5.06
   0   5   3   65.35    3.47
   0   5   3   69.28    4.89
   0  -5  -3   72.18    3.62
   0   5   3   47.40    5.15
   0  -5  -3   61.76    4.06
   0   5   3   60.14    4.10
   0   5   4 1106.31   22.21
   0   5   4 1092.76   27.20
   0   5   4 1083.09   16.57
   0  -5  -4 1073.88   13.67
   0  -5  -4 1064.33   16.45
   0   5   4 1063.02   16.46
   0   5   4 1076.47   17.69
   0   5   5   97.01    5.27
   0   5   5   98.43    5.32
   0  -5  -5  100.92    6.31
   0  -5  -5   88.92    4.63
   0   5   5   96.31    4.58
   0   5   5   85.14    6.42
   0   5   5  102.24    9.60
   0   5   6  529.59   12.33
   0  -5  -6  523.50   16.81
   0  -5  -6  521.88   13.18
   0   5   6  519.47   12.78
   0   5   6  548.00   12.43
   0   5   6  504.44   15.38
   0  -5  -7   28.02    5.85
   0   5   7   41.32    4.16
   0   5   7   41.40    7.35
   0   5   7   25.77    3.23
   0  -5  -7   20.17    3.65
   0   5   7   26.50    4.02
   0  -5  -7   35.32    5.49
   0   5   7   39.75    3.70
   0  -5  -8  255.65   16.87
   0   5   8  238.17   10.43
   0   5   8  223.62   10.79
   0   5   8  225.84   15.92
   0  -5  -8  229.33   13.95
   0  -5  -8  232.74   10.09
   0   5   8  223.82    8.75
   0  -5  -9    8.94    4.10
   0   5   9    0.39    1.49
   0   5   9    8.35    2.63
   0   5   9    9.73    4.71
   0  -5  -9   12.22    3.94
   0  -5 -10   99.06   11.61
   0  -5 -10  110.62   10.75
   0   5  10  100.23    8.54
   0   5  10  115.26   12.06
   0  -5 -11    6.28    4.59
   0  -5 -11    8.54    5.22
   0  -5 -11    9.05    4.48
   0   5  11    2.85    3.10
   0  -5 -12   39.71    7.73
   0   5  12   30.56    6.77
   0  -5 -12   39.61    7.07
   0  -5 -13   -5.18    3.10
   0  -6   9   13.46    4.49
   0  -6   8   28.09    7.24
   0  -6   8   28.87    6.02
   0   6  -8   22.41    6.75
   0   6  -8   26.63    6.35
   0  -6   7   76.26    9.27
   0  -6   7   80.41   10.65
   0   6  -7   82.76    8.92
   0   6  -7   60.49    9.39
   0   6  -7   76.24   10.24
   0  -6   6   78.08    8.74
   0  -6   6   80.27   10.11
   0  -6   6   81.17    8.47
   0  -6   6   75.43    9.04
   0   6  -6   81.68    8.17
   0   6  -6   87.20   10.59
   0   6  -6   87.81   10.47
   0   6  -5   87.10    9.90
   0  -6   5   79.70    8.98
   0   6  -5   80.92    7.43
   0  -6   5   69.19    7.46
   0  -6   5   91.43   10.34
   0   6  -5   94.50    9.89
   0  -6   5   84.80    8.73
   0  -6   4  308.51   15.91
   0   6  -4  347.03   13.34
   0  -6   4  326.79   18.25
   0   6  -4  329.55   16.95
   0  -6   4  304.65   16.21
   0   6  -4  334.10   16.56
   0  -6   4  319.83   13.94
   0   6  -3  170.63   10.54
   0  -6   3  158.95   11.78
   0   6  -3  172.18   11.37
   0  -6   3  188.13   11.93
   0   6  -3  173.88    8.45
   0  -6   3  168.54   12.75
   0  -6   3  167.99    8.79
   0  -6   2  264.04   13.24
   0  -6   2  247.28    9.38
   0  -6   2  280.78    9.78
   0  -6   2  256.23   14.77
   0   6  -2  257.95    9.12
   0   6  -2  264.20   12.89
   0  -6   2  253.87   15.07
   0   6  -2  270.85   11.68
   0   6  -2  262.55   13.70
   0  -6   2  255.03    5.29
   0   6  -1  180.96   11.25
   0   6  -1  186.49   10.22
   0   6  -1  199.49   11.58
   0   6  -1  186.47    8.69
   0   6  -1  196.22   12.57
   0  -6   1  187.11    6.91
   0  -6   1  206.08   12.25
   0  -6   1  189.15    6.01
   0  -6   1  189.51    7.26
   0  -6   1  175.67   10.42
   0   6  -1  191.75    7.19
   0  -6   1  179.83   13.01
   0  -6   0  392.96   19.39
   0   6   0  364.36   15.02
   0   6   0  372.87    7.56
   0  -6   0  396.14   13.30
   0  -6   0  379.39    8.23
   0   6   0  396.13   16.45
   0  -6   0  383.25   11.83
   0  -6   0  370.80    9.72
   0  -6   0  351.42    9.15
   0  -6   0  370.82   14.32
   0  -6   0  362.59    8.03
   0   6   0  395.69   14.89
   0   6   1   58.08    4.07
   0   6   1   64.21    6.52
   0  -6  -1   68.50    5.55
   0  -6  -1   63.18    3.98
   0   6   1   55.89    5.46
   0  -6  -1   57.27    4.05
   0  -6  -1   55.82    2.86
   0   6   1   50.05    5.78
   0  -6  -1   57.50    4.65
   0  -6  -2 1033.13   15.07
   0   6   2 1104.26   23.69
   0   6   2 1067.17   20.34
   0   6   2 1038.61   11.74
   0  -6  -2 1036.46   24.21
   0   6   2 1116.26   24.98
   0   6   2 1119.17   21.13
   0  -6  -2 1041.59   16.37
   0  -6  -2 1103.56   20.98
   0  -6  -3  102.18    6.69
   0  -6  -3  106.23    4.84
   0   6   3  109.31    7.19
   0   6   3   99.75    6.04
   0   6   3  100.56    7.41
   0   6   3   97.32    7.65
   0   6   3  104.34    4.24
   0  -6  -4  343.38    8.22
   0   6   4  328.88    8.89
   0  -6  -4  343.13    9.35
   0   6   4  335.27   13.76
   0   6   4  342.14   15.26
   0   6   4  346.10   10.63
   0   6   4  341.04   11.70
   0   6   5  123.11   10.49
   0  -6  -5  131.62    5.44
   0   6   5  122.00    8.49
   0   6   5  132.60    7.08
   0  -6  -5  136.19    6.99
   0   6   5  125.95    6.46
   0   6   5  132.35    6.66
   0   6   6  454.95   12.61
   0   6   6  467.23   22.04
   0  -6  -6  461.46   11.68
   0   6   6  454.59   12.36
   0   6   6  446.41   16.38
   0  -6  -6  465.94   15.11
   0  -6  -7   29.27    4.97
   0   6   7   37.93    3.63
   0   6   7   36.86    3.75
   0  -6  -7   26.12    4.85
   0   6   7   30.27    4.68
   0   6   7   41.67    7.70
   0  -6  -7   33.85    6.30
   0   6   7   36.50    3.89
   0   6   8  230.85    9.64
   0  -6  -8  240.25   14.11
   0   6   8  240.74   10.11
   0   6   8  210.66    8.75
   0  -6  -8  222.13   11.69
   0  -6  -8  213.98   15.73
   0   6   8  199.48   11.41
   0   6   8  224.48   16.72
   0   6   9   25.88    6.42
   0   6   9   32.73    4.31
   0  -6  -9   23.98    6.47
   0   6   9   26.15    4.03
   0   6   9   23.38    4.00
   0  -6  -9   26.72    5.41
   0  -6 -10   90.53   11.23
   0  -6 -10   77.98    8.98
   0   6  10   94.41   11.27
   0  -6 -11   -2.51    2.44
   0   6  11   -7.49    3.82
   0  -6 -11    0.70    2.59
   0  -6 -12   34.58    7.96
   0   6  12   25.90    6.78
   0  -6 -12   36.55    7.65
   0   7  -8   26.26    7.22
   0   7  -7   46.50    8.29
   0  -7   7   43.11    8.32
   0   7  -7   35.61    8.04
   0  -7   7   33.12    6.85
   0  -7   7   28.16    6.69
   0   7  -6   55.29    9.25
   0  -7   6   54.39    8.39
   0   7  -6   67.59    9.71
   0  -7   6   47.64    6.95
   0  -7   6   49.70    7.39
   0  -7   6   57.18    8.60
   0  -7   5   67.84    7.55
   0  -7   5   74.09    9.28
   0   7  -5   80.24    9.48
   0  -7   5   91.86   10.98
   0  -7   5   68.64    8.57
   0   7  -5   73.31    9.64
   0   7  -5   91.60    8.01
   0   7  -4   95.95   10.00
   0  -7   4   71.20    9.11
   0  -7   4   91.69    9.79
   0  -7   4   85.19    7.46
   0   7  -4   96.74    9.36
   0  -7   4   83.10    9.25
   0   7  -4   94.91    7.28
   0   7  -3  103.23    9.67
   0   7  -3  108.15    8.86
   0   7  -3  104.63    6.87
   0  -7   3  103.27    7.16
   0  -7   3  107.40    9.84
   0  -7   3   98.94   10.38
   0  -7   3   90.21    9.92
   0  -7   2  219.94   13.19
   0  -7   2  197.11   14.35
   0   7  -2  225.89    9.02
   0   7  -2  228.77   14.00
   0  -7   2  206.74    8.71
   0   7  -2  227.06   11.46
   0   7  -2  231.07   13.14
   0  -7   2  199.34   13.76
   0  -7   1  169.06   10.21
   0  -7   1  169.43    6.14
   0  -7   1  165.72    6.76
   0   7  -1  177.56   10.94
   0   7  -1  158.68   11.37
   0  -7   1  168.42   11.16
   0   7  -1  178.39   12.19
   0  -7   1  158.79   11.85
   0  -7   1  143.02   12.58
   0  -7   0  216.38    6.56
   0   7   0  215.89    5.75
   0  -7   0  232.71   12.82
   0  -7   0  216.01    7.81
   0   7   0  239.59   13.08
   0  -7   0  223.32   11.09
   0   7   0  227.01   13.24
   0  -7   0  227.76    8.20
   0  -7   0  228.08   16.03
   0   7   0  250.77   14.65
   0  -7  -1   97.42    5.86
   0  -7  -1  112.48    5.62
   0   7   1  129.13   10.05
   0   7   1  110.23    9.24
   0  -7  -1  109.83    4.12
   0  -7  -1  111.33    6.35
   0   7   1  109.97    8.24
   0   7   1  111.63    5.65
   0  -7  -1  116.65    6.59
   0  -7  -1  117.65    7.88
   0  -7  -1  124.03    8.34
   0  -7  -1  110.97   11.70
   0  -7  -2  442.89   11.41
   0  -7  -2  446.74   11.11
   0   7   2  477.33   15.62
   0   7   2  494.50   18.52
   0  -7  -2  492.39   15.32
   0  -7  -2  488.41   24.30
   0   7   2  444.12    7.79
   0   7   2  460.59   13.53
   0   7   2  510.79   18.47
   0   7   3  188.75   11.56
   0   7   3  213.22   11.38
   0  -7  -3  206.89    7.41
   0   7   3  200.52    5.73
   0   7   3  211.49   10.67
   0  -7  -3  198.50   10.00
   0  -7  -3  185.57    6.72
   0   7   3  213.51    9.82
   0  -7  -4  868.65   14.02
   0   7   4  889.54   24.68
   0  -7  -4  849.59   14.94
   0   7   4  834.40   13.50
   0   7   4  882.90   21.91
   0   7   4  887.26   19.12
   0   7   4  866.22   24.27
   0   7   5  176.60    8.33
   0  -7  -5  175.40    6.25
   0  -7  -5  179.03    7.87
   0   7   5  167.47    9.21
   0   7   5  167.01   11.97
   0   7   5  164.93   10.87
   0   7   5  175.41    7.35
   0   7   6  183.73    9.26
   0  -7  -6  172.55   13.32
   0   7   6  181.73   13.67
   0  -7  -6  181.75    9.23
   0   7   6  156.27   10.73
   0   7   6  188.46    8.56
   0   7   7   90.90    6.48
   0   7   7   72.33    7.57
   0   7   7   88.64   10.69
   0  -7  -7   78.84    8.66
   0  -7  -7   86.63    7.62
   0   7   7   94.10    6.30
   0   7   8   56.86    7.04
   0   7   8   76.51   10.52
   0   7   8   71.33    5.75
   0  -7  -8   71.17    9.58
   0  -7  -8   73.17    7.82
   0  -7  -8   55.77    6.91
   0  -7  -9   11.88    3.83
   0   7   9   15.23    5.37
   0  -7  -9   20.20    6.14
   0   7   9    7.89    2.83
   0  -7 -10   43.36    8.25
   0   7  10   55.91    9.47
   0  -7 -10   59.67    7.87
   0   7  11    4.42    3.06
   0  -7 -11   12.87    5.09
   0  -7 -12   28.58    7.38
   0   8  -7   16.04    5.45
   0   8  -6   20.85    6.64
   0  -8   6    7.73    4.67
   0   8  -6    7.89    4.28
   0  -8   6    5.90    3.87
   0   8  -5   96.79   11.45
   0  -8   5   80.74   10.09
   0  -8   5   83.92   10.51
   0   8  -5   98.24   10.78
   0  -8   5  105.61   12.12
   0   8  -4   31.70    6.75
   0  -8   4   24.97    5.89
   0   8  -4   33.90    6.05
   0  -8   4   35.98    7.13
   0  -8   4   31.51    6.57
   0  -8   3   94.45   10.07
   0  -8   3   95.21   10.55
   0  -8   3   96.05   10.73
   0   8  -3  106.31   10.57
   0   8  -3   99.62    9.04
   0  -8   2  112.67    9.65
   0  -8   2   97.86    9.94
   0   8  -2  120.20   10.43
   0   8  -2  115.10   11.08
   0  -8   2   95.75   10.40
   0  -8   2  107.80    6.49
   0  -8   2  105.23   11.42
   0  -8   1  143.76   11.92
   0  -8   1  159.53   11.80
   0   8  -1  171.06   12.83
   0  -8   1  156.81   13.95
   0  -8   1  168.53   11.11
   0   8  -1  172.56   11.66
   0   8  -1  185.24   13.43
   0  -8   1  169.08    6.97
   0  -8   0  274.80   15.40
   0  -8   0  276.85    7.58
   0  -8   0  280.71   15.16
   0   8   0  277.84    6.04
   0  -8   0  276.72   18.57
   0   8   0  294.82   16.30
   0  -8   0  291.15   13.63
   0  -8   0  275.20    9.47
   0   8   0  273.68   15.31
   0   8   1  229.26   13.12
   0   8   1  208.83    7.67
   0  -8  -1  203.64   12.10
   0   8   1  207.10   13.50
   0  -8  -1  198.44    5.51
   0   8   1  220.73   14.53
   0  -8  -1  208.24   11.24
   0  -8  -1  204.18   16.65
   0  -8  -1  211.02    9.30
   0   8   2   97.33    9.21
   0  -8  -2  102.20    7.91
   0   8   2  100.08    8.25
   0  -8  -2   89.90    7.26
   0   8   2  103.71    6.60
   0   8   2   99.61    9.43
   0  -8  -2  101.74   12.17
   0   8   3   92.20    8.98
   0  -8  -3   91.80   12.18
   0   8   3  101.56    7.85
   0  -8  -3  100.86    7.77
   0   8   3   93.96    7.22
   0   8   3   96.21    8.82
   0   8   4   67.34    6.98
   0   8   4   61.92    7.42
   0   8   4   62.86    6.95
   0   8   4   63.40    5.94
   0  -8  -4   66.16    4.40
   0  -8  -4   60.50    9.75
   0  -8  -5   64.88    4.77
   0   8   5   78.56    6.37
   0   8   5   70.64    7.00
   0  -8  -5   64.72    9.84
   0   8   5   62.41    7.49
   0   8   5   82.28    8.56
   0  -8  -6   98.29   11.15
   0  -8  -6  101.74    6.91
   0   8   6   98.78    9.55
   0   8   6   92.06    6.64
   0   8   6  106.48    8.19
   0   8   6  106.47   10.57
   0  -8  -7   29.31    4.46
   0   8   7   28.94    3.87
   0   8   7   31.08    4.59
   0  -8  -7   25.25    6.10
   0   8   7   22.81    5.06
   0   8   7   26.89    6.48
   0   8   8   74.38    8.59
   0   8   8   62.03    9.77
   0  -8  -8   68.19    9.68
   0  -8  -8   64.71    8.21
   0   8   9    3.14    3.11
   0  -8  -9    4.21    3.31
   0  -8  -9   10.83    3.60
   0   8   9    8.35    4.29
   0  -8 -10   20.76    6.62
   0   8  10   26.68    7.04
   0   8  11    9.36    5.19
   0  -8 -11    3.77    3.31
   0   9  -6    3.78    3.65
   0  -9   6    0.24    4.80
   0  -9   5   12.63    5.40
   0   9  -5   26.57    6.68
   0  -9   5    8.76    4.45
   0  -9   5    9.17    5.05
   0   9  -5   21.82    5.61
   0  -9   4   15.52    5.53
   0   9  -4   10.76    4.90
   0  -9   4    5.84    4.64
   0   9  -4    9.49    4.12
   0  -9   4   12.34    4.83
   0   9  -3   19.35    5.34
   0  -9   3   32.17    7.46
   0  -9   3   11.54    4.63
   0  -9   3   28.37    6.22
   0  -9   3   20.84    5.28
   0   9  -2   44.57    7.14
   0  -9   2   42.09    7.36
   0  -9   2   29.13    7.02
   0  -9   2   37.81    6.96
   0  -9   2   39.44    6.66
   0  -9   1   28.36    7.00
   0   9  -1   32.58    6.74
   0  -9   1   27.69    5.81
   0  -9   1   27.84    5.89
   0  -9   1   30.05    5.44
   0   9   0   80.88    9.57
   0  -9   0   70.09    8.45
   0  -9   0   72.77    7.67
   0  -9   0   71.48    8.78
   0  -9   0   89.90   11.63
   0   9   0   85.67    9.66
   0   9   1  106.44   10.66
   0  -9  -1  105.07    8.76
   0   9   1  106.04    9.98
   0  -9  -1   90.27    6.50
   0  -9  -1   84.89    8.79
   0   9   1  114.76   11.62
   0  -9  -1   96.63   12.42
   0   9   2  101.59   10.43
   0   9   2  112.63    9.76
   0  -9  -2   99.50    7.45
   0  -9  -2  112.78    9.06
   0  -9  -2  110.92   13.21
   0  -9  -2  102.14    8.68
   0   9   2  111.36    6.81
   0   9   2  117.16   11.36
   0   9   3  125.07   11.37
   0  -9  -3  111.02   14.03
   0   9   3  139.38   11.66
   0  -9  -3  127.01    8.71
   0   9   3  137.62   10.07
   0   9   3  137.56    8.72
   0  -9  -3  139.45    9.69
   0   9   4   47.11    5.76
   0   9   4   40.06    5.58
   0   9   4   38.80    6.78
   0  -9  -4   39.80    9.12
   0   9   4   54.13    7.28
   0  -9  -4   43.40    5.72
   0   9   5   32.15    4.75
   0   9   5   28.12    5.40
   0   9   5   31.73    6.34
   0  -9  -5   30.50    8.27
   0   9   5   42.47    6.33
   0  -9  -6   64.31   10.08
   0   9   6   78.83    6.82
   0   9   6   75.94    9.19
   0   9   6   65.52    7.29
   0   9   6   66.32    8.50
   0   9   7   21.65    5.49
   0  -9  -7   31.87    6.96
   0   9   7   29.18    6.49
   0   9   8   36.27    7.58
   0  -9  -8   36.55    7.07
   0   9   8   37.05    6.73
   0  -9  -8   34.95    7.37
   0   9   9    5.53    2.68
   0  -9  -9    9.89    4.58
   0   9   9    9.83    5.06
   0  -9  -9   11.34    4.03
   0  -9 -10   22.01    6.50
   0   9  10   40.92    8.80
   0  -9 -11    7.14    4.78
   0 -10   5   10.67    6.58
   0 -10   4   15.53    5.80
   0 -10   4   11.58    5.88
   0 -10   4    9.32    4.97
   0 -10   4   13.47    4.86
   0  10  -4   27.34    7.06
   0 -10   3   31.50    7.68
   0  10  -3   30.99    6.57
   0 -10   3   37.49    7.14
   0 -10   3   39.83    7.96
   0 -10   3   33.37    6.81
   0 -10   2   23.83    6.25
   0 -10   2   28.81    7.24
   0 -10   2   19.76    5.17
   0 -10   2   11.86    4.85
   0 -10   1   56.53    7.56
   0 -10   1   55.07    9.75
   0 -10   1   52.14    7.78
   0 -10   1   49.96    8.23
   0  10  -1   51.07    8.53
   0 -10   0   22.85    6.72
   0  10   0   18.94    5.91
   0 -10   0   20.50    5.05
   0 -10   0   21.13    5.98
   0 -10   0   19.41    5.01
   0 -10  -1   63.64   10.94
   0 -10  -1   63.31    7.62
   0 -10  -1   55.19    8.44
   0  10   1   51.73    8.49
   0 -10  -1   50.32    7.30
   0  10   1   48.82    7.84
   0 -10  -2   56.97   10.55
   0 -10  -2   65.70    6.30
   0  10   2   78.72    9.03
   0 -10  -2   62.27    7.33
   0  10   2   64.65    9.09
   0  10   3   47.45    7.93
   0 -10  -3   48.39    6.59
   0  10   3   49.76    8.20
   0 -10  -3   47.83   10.11
   0 -10  -3   41.34    5.49
   0  10   3   61.14    7.65
   0  10   3   53.10    5.50
   0  10   4   54.74    8.52
   0  10   4   58.01    6.56
   0 -10  -4   61.41    7.19
   0  10   4   54.68    6.88
   0  10   4   60.45    8.46
   0 -10  -4   70.22   12.26
   0  10   5   54.34    7.08
   0  10   5   48.81    6.30
   0  10   5   45.11    7.22
   0  10   5   48.91    7.95
   0 -10  -5   44.32    9.70
   0 -10  -6    8.04    5.59
   0  10   6   12.72    4.39
   0  10   6   22.79    5.92
   0 -10  -7    5.07    4.12
   0  10   7   -0.43    3.15
   0  10   7    1.12    2.91
   0 -10  -7    5.59    3.50
   0  10   8   39.25    7.76
   0 -10  -8   35.22    7.91
   0  10   8   35.48    7.70
   0 -10  -8   38.33    7.56
   0 -10  -9   13.29    4.39
   0  10   9    9.20    4.99
   0 -10  -9    7.68    4.37
   0 -10 -10   27.82    7.39
   0  10  10   17.63    6.58
   0 -10 -11   14.01    5.12
   0 -11   3   35.67    6.88
   0 -11   3   15.16    5.87
   0 -11   2   17.67    6.31
   0 -11   2   12.88    5.05
   0 -11   2   12.46    4.04
   0 -11   1   32.28    7.07
   0 -11   1   41.01    6.91
   0 -11   1   41.46    9.13
   0  11   0   44.56    8.70
   0 -11   0   30.63    8.42
   0 -11   0   34.44    6.53
   0 -11   0   37.44    7.65
   0 -11  -1   36.69    8.83
   0 -11  -1   35.73    6.50
   0  11   1   35.71    8.03
   0 -11  -1   42.04    7.82
   0  11   2    1.22    2.72
   0 -11  -2    6.56    4.97
   0 -11  -2    8.40    4.45
   0  11   2   10.98    3.98
   0 -11  -2    1.01    2.91
   0 -11  -3   42.35    5.51
   0  11   3   45.75    8.08
   0  11   3   42.90    7.20
   0 -11  -3   41.35    6.23
   0 -11  -3   29.64    9.22
   0  11   4   13.56    4.99
   0 -11  -4    5.18    2.97
   0  11   4   -0.23    2.58
   0 -11  -4   18.94    8.48
   0  11   4    9.91    4.42
   0  11   5   18.20    5.43
   0  11   5   19.12    4.45
   0 -11  -5   10.58    6.26
   0  11   5    8.98    4.80
   0 -11  -6   14.27    7.14
   0  11   6   13.09    4.27
   0  11   6   23.30    6.39
   0 -11  -7   29.30    7.60
   0  11   7   24.15    5.99
   0  11   7   30.12    7.44
   0 -11  -8   12.49    5.95
   0  11   8   11.11    4.69
   0  11   8   11.24    4.84
   0  11   9    7.01    4.16
   0 -12   0    8.62    4.52
   0 -12  -1   10.39    5.57
   0 -12  -1   24.20    5.88
   0 -12  -2    1.93    4.89
   0  12   2    4.41    4.16
   0 -12  -2   -2.06    3.87
   0 -12  -2    3.37    3.56
   0 -12  -3    0.06    3.41
   0  12   3   -0.67    2.90
   0 -12  -3    9.78    6.77
   0 -12  -3    4.70    3.09
   0 -12  -4   11.72    6.04
   0  12   4    5.88    4.25
   0  12   5   -1.44    3.23
   0 -12  -5    6.41    3.07
   0  12   6    9.04    4.11
   0 -12  -6    9.93    6.99
   0 -12  -6   11.31    4.36
   0  12   7   -8.33    5.08
   0 -12  -7   18.45    7.32
   0  12   8   12.18    5.48
   0  12   8   13.47    4.27
   0 -12  -8    6.41    5.47
   0 -13  -3   10.97    4.29
   1 -12  -8   -2.86    4.53
  -1  12   7   -0.09    1.21
   1 -12  -7    1.71    5.75
   1 -12  -6    7.96    6.09
   1 -12  -6    9.61    5.29
  -1  12   6   24.24    6.75
  -1  12   5    3.86    3.18
   1 -12  -5    2.59    5.26
   1 -12  -5    4.45    5.11
   1 -12  -4   17.73    5.77
  -1  12   4   18.99    6.14
   1 -12  -4   35.73    9.70
   1 -12  -3    6.64    6.89
  -1  12   3   11.59    4.83
   1 -12  -3   12.16    5.29
   1 -12  -2   14.31    4.48
   1 -12  -1   21.53    4.92
   1 -12   0    6.21    3.41
  -1  11   9    3.14    4.68
   1 -11  -8    0.48    2.99
  -1  11   8    8.58    4.33
  -1  11   8    7.84    4.75
  -1  11   7   12.48    5.34
  -1  11   7    5.89    3.96
   1 -11  -7   10.55    5.18
  -1  11   6    2.99    3.40
   1 -11  -6   10.89    6.02
  -1  11   6    0.02    3.33
  -1  11   5   22.25    5.67
   1 -11  -5   20.86    7.32
  -1  11   4   15.36    5.02
   1 -11  -4   16.36    7.58
   1 -11  -3   48.10    6.59
  -1  11   3   55.87    9.03
   1 -11  -3   36.55    9.61
   1 -11  -3   46.20    8.47
  -1  11   2   14.79    5.30
   1 -11  -2   14.46    4.21
   1 -11  -2   12.71    5.59
   1 -11  -2    6.38    5.16
   1 -11  -1   20.26    6.34
   1 -11  -1   16.25    4.14
  -1  11   1   10.08    4.66
   1 -11  -1    7.68    5.80
   1 -11   0   15.19    5.81
   1 -11   0    7.53    5.86
  -1  11   0   17.44    6.22
   1 -11   0    9.22    3.39
   1 -11   1    1.90    2.57
  -1  11  -1    0.18    4.81
   1 -11   1    1.21    3.75
   1 -11   1    6.57    5.80
   1 -11   2   -5.84    3.35
   1 -11   2   -0.41    4.55
   1 -11   3   -6.06    4.21
   1 -10 -10   14.77    5.14
  -1  10   9    5.03    4.65
   1 -10  -9   15.98    5.55
  -1  10   9    7.57    4.95
   1 -10  -8    8.76    4.80
  -1  10   8   16.00    5.89
  -1  10   8    6.68    3.49
   1 -10  -7   28.48    7.43
  -1  10   7   26.81    6.54
  -1  10   7   19.38    6.17
  -1  10   6   21.58    5.79
   1 -10  -6   23.04    7.50
  -1  10   6   18.01    5.23
  -1  10   5   54.78    8.36
  -1  10   5   45.50    6.95
   1 -10  -5   43.67    9.54
  -1  10   4   17.62    4.19
   1 -10  -4   13.81    6.93
  -1  10   4   15.92    4.71
   1 -10  -3   14.13    6.70
  -1  10   3   21.18    5.56
   1 -10  -3   24.31    6.06
   1 -10  -3   26.13    4.77
   1 -10  -2   22.31    6.02
   1 -10  -2   12.27    6.30
   1 -10  -2   16.92    4.09
  -1  10   2   18.25    5.70
  -1  10   1   48.53    8.08
   1 -10  -1   31.49    8.43
   1 -10  -1   33.78    5.57
   1 -10  -1   36.58    7.40
   1 -10   0   20.91    6.89
   1 -10   0   21.83    4.90
   1 -10   0   24.83    6.45
  -1  10   0   20.61    5.83
   1 -10   1   21.71    7.18
   1 -10   1   28.62    5.38
  -1  10  -1   31.24    6.87
   1 -10   1   26.60    6.48
   1 -10   2   27.66    7.39
   1 -10   2   22.06    5.28
   1 -10   2   20.12    5.85
   1 -10   2   25.60    6.49
  -1  10  -2   34.85    7.26
   1 -10   3    4.07    4.30
   1 -10   3   12.37    6.06
   1 -10   3    8.26    4.36
   1 -10   3   17.30    5.49
   1 -10   4   -0.26    4.58
   1 -10   4   13.13    5.10
   1 -10   4   11.56    4.38
   1 -10   4   18.14    6.20
  -1   9  10    7.67    5.14
   1  -9 -10   17.52    5.52
  -1   9   9   25.16    6.08
   1  -9  -9   20.49    6.25
  -1   9   9   36.81    7.93
  -1   9   8    7.02    5.38
   1  -9  -8    2.84    2.74
  -1   9   8    4.34    3.62
  -1   9   7   55.82    8.32
   1  -9  -7   63.06    9.33
  -1   9   7   76.26   10.81
   1  -9  -6   20.84    6.38
  -1   9   6   26.07    6.13
  -1   9   6   29.21    5.88
  -1   9   5  119.79   11.27
   1  -9  -5  113.29    7.34
  -1   9   5  124.41   11.15
   1  -9  -5  121.23   13.50
   1  -9  -4    8.68    4.97
  -1   9   4    7.82    3.40
  -1   9   4   12.24    3.77
  -1   9   4   10.12    4.20
   1  -9  -3   78.13   12.54
  -1   9   3   90.35    8.83
  -1   9   3   86.34    7.59
  -1   9   3   84.96    9.59
   1  -9  -3   83.24    7.29
   1  -9  -2   34.48    7.98
   1  -9  -2   23.38    5.57
  -1   9   2   22.69    5.18
  -1   9   2   30.99    3.99
   1  -9  -2   26.29    4.58
   1  -9  -1   69.84    7.70
   1  -9  -1   75.88   11.52
   1  -9  -1   77.80    7.33
   1  -9  -1   71.30    9.05
  -1   9   1   78.46    9.21
   1  -9  -1   63.38    5.42
   1  -9   0   66.14    7.88
   1  -9   0   80.94   11.88
   1  -9   0   71.48    9.20
   1  -9   0   81.11    7.82
  -1   9   0   80.08    9.44
   1  -9   1   85.09    8.37
   1  -9   1   78.61    9.87
  -1   9  -1   91.11   10.09
   1  -9   1   76.41   11.11
   1  -9   1   73.85    8.90
   1  -9   2   55.26    7.34
  -1   9  -2   63.46    9.07
   1  -9   2   47.76    8.85
   1  -9   2   59.34    8.42
   1  -9   2   60.33    8.84
   1  -9   3   41.64    7.00
   1  -9   3   62.42    8.97
  -1   9  -3   39.73    7.32
  -1   9  -3   57.96    8.36
   1  -9   3   38.36    7.91
   1  -9   3   38.64    8.04
  -1   9  -4   70.42    9.77
   1  -9   4   70.10   10.09
   1  -9   4   68.69   10.39
   1  -9   4   68.49    9.83
   1  -9   5   19.81    6.17
   1  -9   5   37.70    7.63
   1  -9   5   30.66    7.75
  -1   9  -5   28.52    6.74
   1  -9   6   26.77    7.27
  -1   8  11   19.46    7.23
   1  -8 -11   25.37    6.72
   1  -8 -10   -0.53    3.22
  -1   8  10    7.27    5.16
  -1   8   9   62.79    8.34
  -1   8   9   54.95    9.74
   1  -8  -9   66.94    9.89
  -1   8   8    5.53    4.33
  -1   8   8    4.97    3.57
   1  -8  -8    4.72    3.08
   1  -8  -8    5.61    3.15
  -1   8   7   90.14    9.62
  -1   8   7  118.35   13.30
   1  -8  -7   95.48    7.97
   1  -8  -7   90.46    9.86
   1  -8  -6   13.42    3.13
  -1   8   6   11.90    4.20
   1  -8  -6   18.04    5.31
  -1   8   6   13.54    5.04
  -1   8   5  172.19   12.38
   1  -8  -5  156.02   14.44
  -1   8   5  170.89   11.70
  -1   8   5  140.04    8.11
  -1   8   5  177.53   13.58
   1  -8  -5  166.55    8.72
   1  -8  -4   65.56   10.21
  -1   8   4   62.02    6.09
  -1   8   4   64.98    7.61
  -1   8   4   58.24    7.43
  -1   8   3  552.06   18.68
  -1   8   3  497.74   20.59
   1  -8  -3  512.99   16.28
   1  -8  -3  469.97   12.74
  -1   8   3  510.41   18.33
   1  -8  -3  489.58   26.77
   1  -8  -2   20.18    2.71
  -1   8   2   18.76    4.46
   1  -8  -2   20.72    6.75
  -1   8   2   26.11    3.88
   1  -8  -2   20.48    3.86
  -1   8   2   17.30    4.48
   1  -8  -2   17.85    3.64
   1  -8  -1   97.48    7.53
  -1   8   1  107.04    9.79
   1  -8  -1  104.13    5.69
   1  -8  -1  101.69   12.51
   1  -8  -1  100.91    8.80
  -1   8   1   96.50    5.90
   1  -8  -1  106.01    9.89
   1  -8   0   13.89    3.48
  -1   8   0   13.75    1.76
  -1   8   0   22.33    5.20
   1  -8   0   16.07    2.54
   1  -8   0   14.91    2.51
   1  -8   0   20.59    6.40
   1  -8   0   18.98    4.54
   1  -8   0   17.22    4.76
  -1   8  -1   67.87    8.28
   1  -8   1   67.03   10.02
   1  -8   1   65.39    8.48
   1  -8   1   67.69    5.25
   1  -8   1   67.93    8.35
   1  -8   1   74.66    7.37
  -1   8  -2   85.51    8.97
  -1   8  -2   72.87    8.83
   1  -8   2   75.74    6.11
   1  -8   2   80.52    9.30
   1  -8   2   97.21   10.59
   1  -8   2   72.08    7.66
   1  -8   2   61.12    9.39
  -1   8  -3  116.79    8.45
   1  -8   3  111.44   11.37
   1  -8   3  109.42   11.98
   1  -8   3  117.82   11.84
   1  -8   3  110.97    8.12
  -1   8  -3  120.03   11.24
  -1   8  -3  105.93   10.84
  -1   8  -4   10.03    3.91
   1  -8   4   11.90    5.50
   1  -8   4   10.41    4.86
   1  -8   4    5.38    2.74
   1  -8   4   13.38    4.64
  -1   8  -4   13.82    3.45
   1  -8   5   71.46   10.36
   1  -8   5   74.28   10.34
  -1   8  -5   74.39    9.62
   1  -8   5   58.99    8.98
  -1   8  -5   71.44   10.28
   1  -8   6   22.84    6.36
  -1   8  -6   12.49    4.83
  -1   8  -6   17.21    6.76
   1  -8   6   21.03    6.05
   1  -8   6   16.86    5.69
  -1   7  11   40.31    8.32
   1  -7 -11   38.47    8.13
  -1   7  10   -2.42    4.14
   1  -7 -10   -0.06    3.67
   1  -7 -10    1.92    3.01
  -1   7   9  103.19   12.43
   1  -7  -9   97.61   10.24
   1  -7  -9   93.54   11.39
  -1   7   9   88.42    9.20
  -1   7   8    7.63    4.30
   1  -7  -8   -0.17    2.21
  -1   7   8    9.63    3.55
   1  -7  -8    8.79    3.33
   1  -7  -7  226.62   12.12
  -1   7   7  226.84   17.45
  -1   7   7  188.72   12.63
   1  -7  -7  229.88   13.95
   1  -7  -6    2.15    1.92
  -1   7   6    1.04    1.29
  -1   7   6    1.49    1.45
   1  -7  -6   -1.03    3.18
  -1   7   6    3.35    2.97
  -1   7   6    2.75    3.60
   1  -7  -5  202.58   14.35
  -1   7   5  216.69   12.71
  -1   7   5  226.54    8.81
   1  -7  -5  224.39    9.91
  -1   7   5  223.31   15.41
  -1   7   5  231.10   11.72
   1  -7  -4    0.58    3.77
  -1   7   4   -0.34    2.45
  -1   7   4    3.51    2.72
  -1   7   4   -1.04    2.95
  -1   7   4    2.12    1.80
  -1   7   3   21.93    3.64
   1  -7  -3   39.00    4.49
   1  -7  -3   45.55    8.39
   1  -7  -3   38.80    2.50
  -1   7   3   29.85    5.05
  -1   7   3   38.79    5.86
  -1   7   3   35.76    3.36
   1  -7  -3   36.08    3.43
  -1   7   3   37.23    5.62
   1  -7  -2   90.25    6.89
  -1   7   2   89.95    7.47
   1  -7  -2   91.22    6.66
   1  -7  -2   75.57   11.03
  -1   7   2   78.76    7.88
  -1   7   2   84.41    6.95
   1  -7  -2   88.48    5.19
  -1   7   2   82.26    4.85
   1  -7  -1  489.15   14.98
   1  -7  -1  495.90   17.98
  -1   7   1  480.96   18.49
  -1   7   1  464.84   11.45
   1  -7  -1  457.88   24.21
   1  -7  -1  483.67   18.78
  -1   7   1  478.71   13.49
   1  -7  -1  485.64   11.72
  -1   7   1  504.16   18.85
   1  -7   0  126.02    7.70
   1  -7   0  131.62    6.44
   1  -7   0  123.79    9.92
  -1   7   0  125.90    5.31
  -1   7   0  119.36    9.56
   1  -7   0  139.29    8.44
   1  -7   0  120.71   12.34
   1  -7   0  129.48   10.38
   1  -7   1  330.55   19.62
   1  -7   1  328.34    7.64
   1  -7   1  329.08   10.93
  -1   7  -1  345.79   15.60
   1  -7   1  319.60   16.53
  -1   7  -1  343.81   16.29
   1  -7   1  312.65   16.10
   1  -7   1  351.66   14.08
   1  -7   2   65.33    9.24
  -1   7  -2   56.03    5.36
  -1   7  -2   53.37    7.01
   1  -7   2   52.85    7.43
   1  -7   2   53.40    7.57
   1  -7   2   54.78    5.16
  -1   7  -2   63.93    7.43
  -1   7  -3  181.09   10.09
  -1   7  -3  189.43   12.84
   1  -7   3  175.62   14.00
   1  -7   3  167.13   13.04
  -1   7  -3  201.14   12.35
   1  -7   3  179.58    9.96
  -1   7  -3  174.00   12.55
  -1   7  -4   74.20    8.43
  -1   7  -4   84.20    7.50
   1  -7   4   67.61    7.02
   1  -7   4   73.75    9.41
  -1   7  -4   79.80    9.28
   1  -7   4   85.16   10.14
   1  -7   4   69.55    9.38
  -1   7  -4   77.46    8.67
   1  -7   5   95.91   11.03
  -1   7  -5  100.40    8.88
  -1   7  -5   92.02   10.68
   1  -7   5   76.60    9.56
   1  -7   5   90.42    8.71
  -1   7  -5   81.33    9.73
   1  -7   5   95.65   11.18
   1  -7   6   36.54    7.59
  -1   7  -6   41.61    7.96
   1  -7   6   31.47    6.27
  -1   7  -6   30.89    6.84
  -1   7  -6   34.67    5.89
   1  -7   6   27.52    5.74
   1  -7   6   27.90    6.66
  -1   7  -7   39.90    8.23
   1  -7   7   37.45    6.69
   1  -7   7   41.31    7.87
  -1   7  -7   28.73    7.41
   1  -7   8   12.00    4.14
   1  -6 -12    2.32    3.69
   1  -6 -11   36.93    6.96
   1  -6 -11   31.92    7.37
  -1   6  11   40.96    8.27
   1  -6 -10    4.25    4.09
  -1   6  10    5.15    3.92
   1  -6 -10   -0.46    2.53
   1  -6  -9  123.70   11.66
  -1   6   9  144.47   13.81
   1  -6  -9  127.78   13.20
  -1   6   9  116.16    9.68
   1  -6  -8    0.29    1.95
  -1   6   8    0.37    3.45
   1  -6  -8    1.56    2.44
  -1   6   8    3.07    2.68
   1  -6  -7  199.30   11.45
  -1   6   7  200.15   15.64
  -1   6   7  197.32    6.00
   1  -6  -7  199.38   11.35
  -1   6   7  192.91    6.91
  -1   6   7  157.92   10.62
   1  -6  -6   -0.29    0.73
  -1   6   6    3.42    3.86
   1  -6  -6    0.10    1.59
  -1   6   6    6.79    1.94
   1  -6  -6    1.37    2.18
  -1   6   6    2.12    2.43
  -1   6   6    0.81    0.91
  -1   6   5  407.06   21.25
  -1   6   5  365.01   15.05
  -1   6   5  377.57   12.44
   1  -6  -5  357.40   16.96
   1  -6  -5  355.80   12.31
  -1   6   5  368.03    9.47
  -1   6   4   92.57    6.95
  -1   6   4   87.11    7.47
   1  -6  -4   92.66    9.61
  -1   6   4   95.98    5.30
  -1   6   4  110.74   10.35
   1  -6  -4   97.62    5.18
  -1   6   3  693.25   15.70
  -1   6   3  676.76   22.44
   1  -6  -3  685.85   14.54
  -1   6   3  687.82   13.70
  -1   6   3  687.12   19.92
   1  -6  -3  659.86   13.04
   1  -6  -3  653.77   25.67
   1  -6  -3  691.06   15.79
   1  -6  -3  627.30    7.76
  -1   6   3  686.86   19.97
   1  -6  -2  160.37    7.09
  -1   6   2  154.27   10.34
  -1   6   2  134.73    8.94
  -1   6   2  156.87    9.69
  -1   6   2  147.64    8.33
  -1   6   2  156.28    6.33
   1  -6  -2  148.49   13.55
   1  -6  -2  154.41    7.81
   1  -6  -2  171.88    7.97
   1  -6  -2  156.36    6.49
  -1   6   1  643.61   19.28
  -1   6   1  595.50   12.31
   1  -6  -1  627.35   12.70
   1  -6  -1  614.61   26.32
  -1   6   1  615.22   16.01
   1  -6  -1  613.08   18.52
  -1   6   1  611.46   19.08
   1  -6  -1  634.93   15.40
   1  -6   0  127.47    6.03
  -1   6   0  131.80    9.09
   1  -6   0  120.47    7.15
   1  -6   0  126.20   12.09
   1  -6   0  126.56    9.31
  -1   6   0  118.82    5.59
  -1   6   0  119.13    5.95
   1  -6   0  128.23    9.56
  -1   6  -1  757.81   21.02
   1  -6   1  707.79   15.20
  -1   6  -1  712.57   16.34
  -1   6  -1  716.99   21.34
   1  -6   1  697.19   10.59
   1  -6   1  710.89   27.07
   1  -6   1  716.77   23.45
   1  -6   1  688.79   21.86
  -1   6  -1  647.05    7.43
   1  -6   1  677.72   12.28
  -1   6  -2   90.72    6.36
   1  -6   2   77.80    8.63
   1  -6   2   85.79    9.70
   1  -6   2   87.73    8.55
  -1   6  -2   85.85    7.88
  -1   6  -2   77.90    6.69
   1  -6   2   85.95    6.07
  -1   6  -2   90.15    8.05
  -1   6  -3  342.70   16.09
   1  -6   3  348.80   18.18
   1  -6   3  335.65   17.94
  -1   6  -3  328.28   14.76
   1  -6   3  310.33   16.33
  -1   6  -3  317.20   15.11
   1  -6   3  317.67   12.73
  -1   6  -3  333.05   12.85
   1  -6   4  117.94   10.97
   1  -6   4  109.33    8.40
   1  -6   4  103.94   10.21
  -1   6  -4  115.68    8.49
   1  -6   4   90.91   10.12
  -1   6  -4  116.52   10.28
  -1   6  -4  118.79    9.82
  -1   6  -4  116.02    9.92
   1  -6   5  122.47   10.89
   1  -6   5  131.29   12.04
   1  -6   5  143.70   12.99
  -1   6  -5  138.73   10.13
   1  -6   5  117.69    9.69
  -1   6  -5  146.94   12.55
  -1   6  -5  125.23   11.22
  -1   6  -6   17.53    5.13
  -1   6  -6   22.64    6.18
   1  -6   6   21.80    5.88
   1  -6   6    9.41    3.77
  -1   6  -6   15.80    4.20
   1  -6   6   10.52    4.10
   1  -6   6   16.65    5.23
  -1   6  -7  108.18   10.76
  -1   6  -7  106.78   12.37
   1  -6   7  121.16   12.77
  -1   6  -7   96.27   11.66
   1  -6   7  102.09   10.76
  -1   6  -8   15.54    5.80
  -1   6  -8   18.93    5.08
   1  -6   8   19.33    6.07
   1  -6   8   14.35    4.52
  -1   6  -8   23.71    6.54
   1  -6   9   24.26    6.02
   1  -5 -12   -4.90    3.55
   1  -5 -12   -2.55    4.12
  -1   5  12   -0.96    2.33
   1  -5 -11  101.12   11.32
   1  -5 -11   97.30   12.39
  -1   5  11  112.78   12.60
  -1   5  10   -3.76    3.66
   1  -5 -10   -1.36    3.43
   1  -5 -10    5.09    3.79
   1  -5  -9  142.91   12.61
  -1   5   9  160.39   14.13
  -1   5   9  141.53    9.84
   1  -5  -9  168.04   14.72
  -1   5   9  146.49    8.57
   1  -5  -8    1.70    1.52
  -1   5   8    0.86    1.13
   1  -5  -8    0.56    2.15
  -1   5   8    1.76    2.03
  -1   5   8    2.85    3.50
  -1   5   8    0.42    1.41
   1  -5  -8    0.15    3.09
  -1   5   7  356.84   14.56
  -1   5   7  332.28    6.89
  -1   5   7  383.48    9.80
  -1   5   7  385.41   10.27
   1  -5  -7  360.88   12.92
   1  -5  -7  389.82   16.42
  -1   5   7  408.66   21.28
  -1   5   6   31.69    2.49
   1  -5  -6   27.01    4.22
  -1   5   6   26.74    4.36
   1  -5  -6   27.14    4.38
  -1   5   6   27.36    2.49
   1  -5  -6   29.25    3.27
  -1   5   6   35.67    6.82
  -1   5   6   30.57    2.52
  -1   5   5  687.32   26.10
   1  -5  -5  665.08   16.59
  -1   5   5  668.59   18.63
   1  -5  -5  652.91   20.01
  -1   5   5  653.33   12.78
  -1   5   5  666.62   10.85
   1  -5  -4    2.76    2.85
  -1   5   4    2.73    2.11
  -1   5   4    3.36    1.35
  -1   5   4    5.71    3.94
   1  -5  -4    5.02    1.96
  -1   5   4    4.66    1.88
  -1   5   3  955.21   19.97
  -1   5   3  937.41   15.75
   1  -5  -3  921.93   26.84
   1  -5  -3  963.42   14.95
  -1   5   3  969.65   16.77
  -1   5   3  930.82   27.01
   1  -5  -3  889.53   16.28
  -1   5   3  973.54   15.33
  -1   5   3  969.06   21.41
   1  -5  -3  953.90   13.37
   1  -5  -2   81.95    6.16
   1  -5  -2   70.92    4.26
  -1   5   2   75.89    6.14
  -1   5   2   77.22    5.16
  -1   5   2   73.88    6.52
   1  -5  -2   71.55    4.36
   1  -5  -2   74.19    4.21
   1  -5  -2   76.05    4.85
   1  -5  -2   84.58    5.01
  -1   5   2   69.70    6.77
  -1   5   2   74.86    4.31
   1  -5  -2   64.04    8.07
   1  -5  -1  863.17   16.00
  -1   5   1  873.84   14.10
   1  -5  -1  877.97   16.01
   1  -5  -1  858.70   15.94
   1  -5  -1  857.18   28.60
   1  -5  -1  903.64   14.36
   1  -5  -1  862.55   15.88
   1  -5  -1  820.23   18.54
  -1   5   1  875.50   20.30
  -1   5   1  907.03   20.01
   1  -5  -1  914.49   16.27
  -1   5   1  865.29   19.69
  -1   5   0  351.83   10.25
   1  -5   0  362.90   10.88
  -1   5   0  363.44   13.40
   1  -5   0  361.20    9.51
   1  -5   0  325.97   13.53
   1  -5   0  368.38   14.07
  -1   5   0  347.89    9.35
   1  -5   0  378.93   10.71
   1  -5   0  360.11   18.02
  -1   5  -1 1178.98   12.80
  -1   5  -1 1163.03   24.26
  -1   5  -1 1179.05   19.55
   1  -5   1 1157.70   27.65
   1  -5   1 1245.90   32.40
   1  -5   1 1199.59   15.14
   1  -5   1 1181.86   26.66
   1  -5   1 1172.85   18.41
   1  -5   2   43.05    4.13
  -1   5  -2   37.28    4.01
  -1   5  -2   47.85    5.13
   1  -5   2   43.90    5.90
  -1   5  -2   43.59    5.14
   1  -5   2   48.98    7.01
   1  -5   2   28.87    5.16
  -1   5  -2   45.67    5.45
  -1   5  -3 1080.44   26.16
   1  -5   3  988.08   28.18
   1  -5   3 1061.90   29.88
   1  -5   3 1019.50   21.49
  -1   5  -3 1063.54   24.79
  -1   5  -3 1038.85   21.71
  -1   5  -3 1081.46   24.98
   1  -5   3 1046.68   27.68
  -1   5  -4    8.16    3.88
  -1   5  -4    9.76    3.34
   1  -5   4    7.80    2.84
   1  -5   4    4.70    3.61
  -1   5  -4    8.98    2.82
  -1   5  -4    7.59    3.13
   1  -5   4    8.53    3.60
   1  -5   4   10.59    3.91
  -1   5  -5  407.01   19.10
   1  -5   5  407.17   19.50
   1  -5   5  395.71   17.21
  -1   5  -5  431.27   17.02
   1  -5   5  425.19   21.09
   1  -5   5  431.46   18.37
  -1   5  -5  413.39   19.32
   1  -5   6   53.83    7.88
   1  -5   6   54.05    6.99
  -1   5  -6   42.00    7.22
   1  -5   6   53.54    7.30
  -1   5  -6   56.37    8.39
  -1   5  -6   51.71    7.01
   1  -5   6   60.57    8.89
  -1   5  -7   64.28    9.53
   1  -5   7   69.41    9.63
   1  -5   7   46.44    7.18
  -1   5  -7   72.01    9.81
  -1   5  -7   56.90    7.72
  -1   5  -8   23.02    6.43
   1  -5   8   13.94    4.87
  -1   5  -8   17.56    5.84
  -1   5  -8   12.93    4.50
   1  -5   8   28.94    7.06
  -1   5  -9   35.14    6.85
  -1   5  -9   37.49    7.81
  -1   5  -9   41.22    8.28
   1  -5   9   31.14    6.55
   1  -5   9   43.02    7.95
  -1   5 -10    8.62    4.19
   1  -4 -12    9.45    5.33
   1  -4 -12    8.96    4.54
   1  -4 -12   -0.04    3.52
  -1   4  12   -2.32    3.21
   1  -4 -11   71.66   10.64
   1  -4 -11   73.60   11.31
   1  -4 -11   67.20    9.38
  -1   4  11   69.69    9.81
   1  -4 -10    3.23    3.72
  -1   4  10    0.75    2.48
   1  -4 -10    1.26    2.89
  -1   4  10    2.65    3.79
  -1   4   9  204.16   15.31
  -1   4   9  204.38   10.87
   1  -4  -9  196.76   15.71
   1  -4  -9  229.74   15.79
  -1   4   9  205.87   11.22
   1  -4  -8   -0.48    2.79
  -1   4   8    0.74    1.91
   1  -4  -8    3.22    3.06
  -1   4   8   -2.85    3.20
  -1   4   8    1.18    2.04
   1  -4  -7  541.20   19.82
   1  -4  -7  552.70   12.58
  -1   4   7  511.80   13.54
  -1   4   7  510.45   16.08
   1  -4  -7  578.93   17.01
  -1   4   7  502.31    8.36
  -1   4   7  550.51   23.65
  -1   4   6    3.04    3.55
   1  -4  -6    0.04    1.66
   1  -4  -6    1.53    2.20
  -1   4   6    0.85    1.15
  -1   4   6    1.31    1.06
   1  -4  -6   -0.41    1.69
  -1   4   6    0.38    1.65
  -1   4   6    0.11    0.50
  -1   4   5  727.62    9.68
  -1   4   5  811.51   26.93
  -1   4   5  748.68   10.83
   1  -4  -5  741.37   17.70
  -1   4   5  765.77   18.17
   1  -4  -5  726.48   14.30
  -1   4   5  743.14   10.75
   1  -4  -5  809.51   18.70
  -1   4   4    6.45    3.62
  -1   4   4    4.20    1.01
   1  -4  -4    3.07    1.03
  -1   4   4    4.64    2.15
  -1   4   4    4.55    0.68
   1  -4  -4    4.05    2.30
   1  -4  -4    6.17    2.05
  -1   4   4    7.16    1.38
  -1   4   4    9.21    2.11
  -1   4   3 1454.98   18.53
  -1   4   3 1446.74   19.82
  -1   4   3 1482.89   23.90
   1  -4  -3 1404.32   28.50
  -1   4   3 1456.35   19.25
  -1   4   3 1401.08   14.29
   1  -4  -3 1365.20   14.42
  -1   4   3 1396.89   32.44
  -1   4   2   24.79    3.36
  -1   4   2   21.70    4.50
  -1   4   2   27.11    2.60
  -1   4   2   26.36    2.60
   1  -4  -2   28.59    3.73
  -1   4   2   26.58    2.62
   1  -4  -2   24.28    4.65
   1  -4  -2   31.72    1.45
  -1   4   2   24.18    3.25
   1  -4  -2   28.35    2.43
   1  -4  -2   36.15    3.17
   1  -4  -2   23.47    1.72
   1  -4  -2   27.40    2.92
   1  -4  -2   29.20    2.69
   1  -4  -1 2277.67   21.27
  -1   4   1 2356.68   27.64
   1  -4  -1 2376.02   26.97
  -1   4   1 2254.51   32.96
   1  -4  -1 2244.79   22.15
   1  -4  -1 2241.59   40.56
   1  -4  -1 2327.47   24.13
   1  -4  -1 2112.31   23.59
  -1   4   1 2342.14   21.68
  -1   4   1 2421.92   29.99
   1  -4  -1 2282.22   25.08
   1  -4  -1 2404.60   22.68
  -1   4   0  171.32    6.65
   1  -4   0  189.44    9.14
  -1   4   0  178.06    8.04
   1  -4   0  185.83    8.98
  -1   4   0  184.25    8.45
   1  -4   0  190.90    7.91
   1  -4   0  178.73    8.99
  -1   4   0  171.02    7.61
   1  -4   0  196.18   12.12
   1  -4   0  186.45    7.25
   1  -4   0  189.77    7.03
  -1   4   0  181.60    6.26
   1  -4   0  190.06    6.43
   1  -4   0  185.64    6.88
   1  -4   1 1483.32   19.38
   1  -4   1 1477.14   28.55
  -1   4  -1 1509.43   19.95
  -1   4  -1 1414.83   16.49
   1  -4   1 1543.69   32.82
   1  -4   1 1543.99   20.51
  -1   4  -1 1490.50   20.43
   1  -4   1 1492.02   14.82
   1  -4   1 1506.81   27.06
  -1   4  -1 1504.46   24.42
  -1   4  -1 1562.06   24.92
   1  -4   2   57.28    6.01
   1  -4   2   49.55    4.17
   1  -4   2   52.09    6.54
  -1   4  -2   54.20    4.42
  -1   4  -2   59.30    5.13
  -1   4  -2   50.16    4.86
   1  -4   2   55.35    6.53
  -1   4  -2   54.64    5.30
  -1   4  -3  485.35   15.03
  -1   4  -3  477.63   16.26
  -1   4  -3  491.42   14.15
   1  -4   3  523.40   18.83
   1  -4   3  502.80   18.09
  -1   4  -3  527.68   16.52
   1  -4   3  524.65   20.00
   1  -4   3  517.48   14.70
  -1   4  -4  109.15    8.75
   1  -4   4  114.75    9.54
  -1   4  -4  114.44    7.87
   1  -4   4  104.86    8.65
  -1   4  -4  107.75    8.79
   1  -4   4  105.48    7.96
  -1   4  -4  108.77    7.73
   1  -4   4  115.24   10.33
  -1   4  -5  306.62   14.03
  -1   4  -5  325.60   16.42
  -1   4  -5  313.69   16.00
   1  -4   5  312.68   14.46
   1  -4   5  305.95   17.34
   1  -4   5  330.83   16.52
   1  -4   5  314.49   14.96
  -1   4  -6   19.41    5.39
   1  -4   6   20.96    5.01
   1  -4   6   13.59    3.53
  -1   4  -6   19.04    4.74
  -1   4  -6   16.26    4.88
   1  -4   6   19.55    5.29
   1  -4   7  157.17   12.86
   1  -4   7  202.58   15.36
  -1   4  -7  206.24   14.09
  -1   4  -7  200.88   15.14
  -1   4  -7  202.47   15.85
  -1   4  -8   33.36    7.15
  -1   4  -8   29.96    6.06
  -1   4  -8   30.73    7.33
   1  -4   8   35.01    7.06
   1  -4   8   29.24    6.47
   1  -4   9  103.04   12.10
  -1   4  -9   78.70   10.54
  -1   4  -9   87.16   10.23
   1  -4   9   77.09    9.92
  -1   4  -9   75.79   10.37
   1  -4  10    8.56    3.97
  -1   4 -10    5.19    3.37
  -1   3  12    3.33    3.01
   1  -3 -12    2.26    3.82
   1  -3 -12    4.64    3.36
   1  -3 -12    5.96    4.05
   1  -3 -11   90.01   10.87
   1  -3 -11   93.05   12.43
   1  -3 -11   84.11   11.09
  -1   3  11   94.15   10.07
  -1   3  11   77.48    9.84
   1  -3 -10   15.40    5.66
   1  -3 -10    9.10    4.42
  -1   3  10    1.11    3.26
   1  -3 -10   15.97    5.80
  -1   3  10   11.97    3.89
  -1   3   9  226.91   13.26
   1  -3  -9  202.15   15.91
   1  -3  -9  180.05   14.07
  -1   3   9  219.75   10.39
  -1   3   9  202.30   14.67
  -1   3   8   29.21    4.83
   1  -3  -8   30.75    6.66
   1  -3  -8   32.83    6.46
  -1   3   8   33.33    4.33
  -1   3   8   37.16    6.69
  -1   3   7  218.79    7.38
   1  -3  -7  206.19   13.64
  -1   3   7  229.36   14.96
  -1   3   7  204.82    9.65
  -1   3   7  207.68   10.05
   1  -3  -7  213.54   13.32
  -1   3   6   14.46    4.56
  -1   3   6   16.01    2.88
   1  -3  -6   14.72    3.84
   1  -3  -6   14.87    1.97
  -1   3   6   12.06    2.54
   1  -3  -6   10.98    2.76
   1  -3  -5 1212.16   18.09
  -1   3   5 1156.11   20.54
   1  -3  -5 1212.49   23.39
  -1   3   5 1154.51   16.53
   1  -3  -5 1158.76   20.37
  -1   3   5 1207.47   31.19
  -1   3   4  388.00    7.36
   1  -3  -4  409.47   12.03
   1  -3  -4  392.01   11.41
  -1   3   4  417.36   11.90
  -1   3   4  396.61    6.75
   1  -3  -4  376.43    9.60
  -1   3   4  432.23   18.15
  -1   3   3 2358.00   17.70
   1  -3  -3 2513.52   38.19
   1  -3  -3 2441.84   30.76
  -1   3   3 2509.70   27.45
  -1   3   3 2536.00   40.34
  -1   3   3 2479.25   25.14
  -1   3   3 2450.48   22.23
  -1   3   3 2340.45   13.48
   1  -3  -2   47.09    3.74
   1  -3  -2   39.88    1.94
   1  -3  -2   43.34    4.31
  -1   3   2   42.20    2.27
  -1   3   2   40.24    2.94
   1  -3  -2   39.10    2.99
  -1   3   2   39.66    3.59
   1  -3  -2   40.22    2.31
  -1   3   2   42.81    2.70
  -1   3   2   36.88    4.81
   1  -3  -2   41.99    4.66
  -1   3   2   44.17    3.34
   1  -3  -1 2252.38   23.60
   1  -3  -1 2209.65   18.11
   1  -3  -1 2408.32   25.96
  -1   3   1 2296.64   29.22
   1  -3  -1 2143.81   32.99
  -1   3   1 2353.35   20.08
  -1   3   1 2276.27   25.53
   1  -3  -1 2448.99   24.83
   1  -3  -1 2362.98   18.81
   1  -3  -1 2301.89   22.72
   1  -3  -1 2226.87   16.14
   1  -3  -1 2225.83   19.58
   1  -3  -1 2232.50   21.83
  -1   3   1 2248.07   22.36
   1  -3   0  128.23    6.87
  -1   3   0  117.34    5.92
   1  -3   0  120.91    6.07
   1  -3   0  119.50    5.22
  -1   3   0  117.00    5.01
   1  -3   0  122.30    5.62
   1  -3   0  123.17    5.68
  -1   3   0  109.49    5.25
   1  -3   0  119.20    5.08
  -1   3   0  121.14    4.71
   1  -3   0  120.49    8.62
   1  -3   0  119.90    4.68
   1  -3   0  107.85    5.48
  -1   3   0  127.33    5.90
   1  -3   0  127.03    6.68
   1  -3   0  127.28    5.89
   1  -3   1 1229.55   18.35
  -1   3  -1 1261.79   23.02
  -1   3  -1 1264.39   19.56
   1  -3   1 1262.81   19.35
   1  -3   1 1186.82   25.76
  -1   3  -1 1185.49   16.64
  -1   3  -1 1240.26   19.25
  -1   3  -1 1233.69   18.27
   1  -3   1 1232.93   16.88
   1  -3   1 1251.68   20.35
   1  -3   1 1196.99   24.49
   1  -3   1 1187.15   10.83
   1  -3   1 1204.26   21.95
   1  -3   1 1130.71   21.53
   1  -3   1 1254.18   16.55
  -1   3  -1 1208.21   13.02
   1  -3   1 1275.55   22.40
  -1   3  -1 1267.55   16.76
   1  -3   2    2.25    1.43
   1  -3   2   -0.13    1.13
  -1   3  -2    1.59    1.46
   1  -3   2    3.46    2.34
  -1   3  -2    0.75    1.73
   1  -3   2    0.18    2.28
  -1   3  -2    0.77    1.55
  -1   3  -2    0.82    1.39
   1  -3   2    2.34    1.46
  -1   3  -2    1.33    0.51
  -1   3  -2    0.48    1.53
   1  -3   2    0.81    2.46
  -1   3  -3 1454.88   25.85
  -1   3  -3 1306.65   13.15
  -1   3  -3 1434.50   22.94
   1  -3   3 1408.73   27.78
   1  -3   3 1448.12   31.49
   1  -3   3 1383.28   27.68
   1  -3   3 1350.12   24.06
  -1   3  -3 1449.06   25.75
   1  -3   3 1429.28   23.42
  -1   3  -3 1382.39   22.13
  -1   3  -4   30.43    4.82
  -1   3  -4   38.04    5.05
   1  -3   4   38.43    5.58
  -1   3  -4   31.55    2.74
   1  -3   4   32.35    2.33
  -1   3  -4   25.35    3.57
   1  -3   4   27.94    5.46
  -1   3  -4   40.30    4.64
   1  -3   4   37.55    5.02
   1  -3   4   34.23    4.53
   1  -3   5  724.67   25.15
   1  -3   5  668.36   21.16
  -1   3  -5  656.54   22.34
   1  -3   5  633.83   12.00
  -1   3  -5  641.04   13.27
  -1   3  -5  663.13   22.05
   1  -3   5  655.16   21.53
   1  -3   5  658.96   18.94
  -1   3  -5  709.58   20.87
   1  -3   6   51.18    7.98
  -1   3  -6   45.29    7.02
  -1   3  -6   46.72    6.68
  -1   3  -6   53.67    7.64
   1  -3   6   40.75    6.56
   1  -3   6   43.18    3.81
  -1   3  -6   45.53    4.03
   1  -3   7  341.90   19.39
  -1   3  -7  305.35   18.32
   1  -3   7  281.79   16.74
  -1   3  -7  308.26   16.82
  -1   3  -7  315.63   17.87
   1  -3   7  297.75   10.60
   1  -3   8   15.30    4.95
  -1   3  -8   14.60    4.42
  -1   3  -8   14.87    5.10
   1  -3   8   18.02    5.65
  -1   3  -8   16.95    5.28
  -1   3  -9  150.62   14.22
   1  -3   9  135.34   12.87
  -1   3  -9  135.22   13.01
   1  -3   9  147.22   13.81
  -1   3  -9  136.27   12.42
  -1   3 -10   16.87    4.78
  -1   3 -10   16.67    5.43
   1  -3  10    7.92    4.43
   1  -3  10   20.67    5.85
  -1   3 -10   21.18    5.98
  -1   3 -11   65.50    9.58
  -1   2  12    7.17    4.10
   1  -2 -12   12.92    4.40
  -1   2  12   13.93    4.53
   1  -2 -12   10.89    6.00
   1  -2 -12    7.48    4.45
   1  -2 -11   56.59    8.92
  -1   2  11   52.75    7.72
  -1   2  11   50.61    7.88
   1  -2 -11   67.40    9.62
   1  -2 -11   51.18    9.38
   1  -2 -10   18.59    5.58
   1  -2 -10   17.46    5.59
  -1   2  10   11.80    3.82
  -1   2  10   20.23    5.26
   1  -2 -10   24.35    6.62
   1  -2  -9  180.58   14.27
   1  -2  -9  211.86   15.30
  -1   2   9  195.16    9.49
  -1   2   9  162.38   12.62
  -1   2   9  212.24   13.45
   1  -2  -9  197.27   15.52
  -1   2   8   11.51    3.87
   1  -2  -8   11.90    4.58
  -1   2   8   10.45    3.70
   1  -2  -8    8.08    3.72
   1  -2  -8   10.69    4.36
  -1   2   7  912.37   24.08
   1  -2  -7  880.06   28.05
   1  -2  -7  925.55   29.06
  -1   2   7  833.13   16.78
  -1   2   7  881.89   27.62
   1  -2  -6    9.65    4.12
  -1   2   6   13.55    4.64
  -1   2   6    3.50    1.43
  -1   2   6    4.23    2.96
   1  -2  -5 1287.59   23.60
  -1   2   5 1357.96   31.16
  -1   2   5 1285.01   21.98
   1  -2  -5 1326.66   25.90
   1  -2  -4  186.88    8.42
   1  -2  -4  195.47    5.94
   1  -2  -4  183.49    7.81
  -1   2   4  179.07   10.94
  -1   2   4  172.29    6.70
   1  -2  -3 2009.73   22.75
  -1   2   3 2008.28   16.72
   1  -2  -3 2003.74   21.40
  -1   2   3 2075.03   23.64
   1  -2  -3 2096.82   32.87
  -1   2   3 2136.58   33.99
   1  -2  -2   69.57    5.02
  -1   2   2   65.87    4.00
   1  -2  -2   66.81    4.51
  -1   2   2   68.57    4.88
  -1   2   2   58.11    5.03
   1  -2  -2   61.70    3.63
  -1   2   2   66.36    3.63
  -1   2   1 3936.52   18.64
   1  -2  -1 3952.31   29.09
   1  -2  -1 4099.06   29.19
   1  -2  -1 3877.71   35.71
  -1   2   1 4129.77   29.07
  -1   2   1 4150.92   38.67
   1  -2  -1 3896.24   35.48
   1  -2  -1 4023.22   24.80
   1  -2  -1 3940.76   24.31
   1  -2  -1 4041.58   18.64
  -1   2   1 4114.53   24.60
  -1   2   1 4089.80   32.12
   1  -2  -1 3924.49   17.24
   1  -2   0  341.69    9.40
   1  -2   0  314.85   11.06
   1  -2   0  340.37    8.04
  -1   2   0  317.59    8.05
  -1   2   0  336.53    7.52
   1  -2   0  333.65    6.80
  -1   2   0  355.15    7.27
   1  -2   0  342.64    8.46
  -1   2   0  327.38   10.98
  -1   2   0  340.43    7.99
  -1   2   0  344.27    8.41
   1  -2   0  322.87    8.28
   1  -2   0  344.90    7.77
   1  -2   0  343.35    7.58
   1  -2   0  348.90    7.17
  -1   2   0  326.54    7.20
   1  -2   1 2407.88   31.86
   1  -2   1 2479.00   23.31
  -1   2  -1 2362.92   14.81
   1  -2   1 2322.73   22.90
  -1   2  -1 2327.92   20.66
   1  -2   1 2215.32   24.31
  -1   2  -1 2358.33   22.53
  -1   2  -1 2376.76   27.41
   1  -2   1 2268.58   12.24
  -1   2  -1 2268.87   21.65
  -1   2  -1 2258.74   28.91
   1  -2   1 2350.79   21.20
   1  -2   1 2446.25   28.07
  -1   2  -1 2351.09   21.48
  -1   2  -1 2224.78   26.43
   1  -2   1 2409.87   22.64
   1  -2   1 2324.41   20.55
  -1   2  -1 2368.77   23.10
   1  -2   2   42.14    4.48
   1  -2   2   52.40    4.06
  -1   2  -2   46.04    4.72
   1  -2   2   50.69    3.67
   1  -2   2   44.19    3.69
  -1   2  -2   42.88    3.45
   1  -2   2   46.18    4.68
  -1   2  -2   48.22    3.41
  -1   2  -2   46.58    4.52
  -1   2  -2   46.72    3.90
   1  -2   2   44.66    3.48
  -1   2  -2   47.39    2.23
  -1   2  -2   44.33    3.79
   1  -2   2   49.50    3.72
  -1   2  -2   49.18    4.54
   1  -2   2   47.24    4.71
  -1   2  -3 1578.84   16.13
   1  -2   3 1608.61   29.69
  -1   2  -3 1679.53   26.11
   1  -2   3 1581.37   21.71
   1  -2   3 1658.77   29.13
  -1   2  -3 1596.09   27.59
  -1   2  -3 1557.83   20.01
   1  -2   3 1543.36   25.67
  -1   2  -3 1594.16   25.26
  -1   2  -3 1586.51   23.23
   1  -2   3 1611.31   23.57
  -1   2  -3 1634.15   25.98
   1  -2   3 1570.37   23.64
   1  -2   3 1613.93   15.67
  -1   2  -4   84.55    7.10
  -1   2  -4   89.40    6.66
   1  -2   4   94.87    7.62
  -1   2  -4   78.55    6.96
   1  -2   4   80.10    6.76
   1  -2   4   81.00    5.45
  -1   2  -4   79.45    4.82
  -1   2  -4   89.51    5.40
  -1   2  -4   70.01    3.03
   1  -2   4   83.17    4.54
   1  -2   4   81.11    6.30
  -1   2  -4   70.64    2.66
  -1   2  -4   80.63    6.27
   1  -2   4   73.22    7.76
  -1   2  -5 1066.36   13.73
  -1   2  -5 1134.62   27.86
   1  -2   5 1092.26   18.46
  -1   2  -5 1135.77   28.11
  -1   2  -5 1139.20   20.91
   1  -2   5 1199.26   31.20
   1  -2   5 1082.31   20.82
  -1   2  -5 1110.60   13.68
  -1   2  -5 1151.90   26.50
   1  -2   6   19.61    3.15
  -1   2  -6   22.24    3.61
  -1   2  -6   20.71    4.73
  -1   2  -6   18.38    2.31
   1  -2   6   23.61    3.46
  -1   2  -6   20.63    5.04
  -1   2  -6   19.47    2.30
   1  -2   6   20.21    5.38
  -1   2  -6   23.85    5.26
  -1   2  -7  573.45   22.20
  -1   2  -7  606.29   23.63
   1  -2   7  640.25   25.30
  -1   2  -7  567.26   23.99
   1  -2   7  568.61   16.50
  -1   2  -7  590.74   13.24
  -1   2  -8   17.92    4.93
   1  -2   8   19.95    3.58
  -1   2  -8   24.78    6.14
  -1   2  -8   19.91    5.44
   1  -2   8   23.24    5.94
  -1   2  -9  176.66   14.42
  -1   2  -9  180.39   13.97
   1  -2   9  198.76   15.60
  -1   2  -9  196.10   15.41
   1  -2   9  173.91   14.29
  -1   2 -10    6.66    3.81
  -1   2 -10    0.83    2.96
  -1   2 -10    5.63    3.69
   1  -2  10    3.14    4.06
   1  -2  10    5.34    3.80
  -1   2 -11   66.67    9.33
   1  -2  11   66.62    9.69
  -1   2 -11   58.41    9.19
   1  -2  11   67.59   10.16
  -1   2 -11   78.42   10.65
  -1   1  12   15.97    5.20
  -1   1  12   15.55    4.48
   1  -1 -12    4.60    3.99
   1  -1 -12   19.68    5.31
   1  -1 -11   80.53   10.36
   1  -1 -11   84.02   10.43
   1  -1 -11   74.80   10.45
  -1   1  11   83.82    9.28
  -1   1  11   97.92   10.63
  -1   1  10    7.31    3.99
   1  -1 -10    3.91    4.21
   1  -1 -10    7.93    3.80
   1  -1 -10   -2.73    3.41
  -1   1  10   10.28    3.84
   1  -1  -9  216.16   15.38
   1  -1  -9  209.62   15.68
  -1   1   9  189.95   13.04
   1  -1  -9  242.01   16.15
  -1   1   9  238.23   14.73
  -1   1   8  104.19    9.42
  -1   1   8   98.36    9.23
   1  -1  -8   97.34   10.38
   1  -1  -8   91.73    9.90
   1  -1  -8   98.96   10.12
   1  -1  -7  695.57   24.57
  -1   1   7  610.99   16.37
   1  -1  -7  729.31   25.39
  -1   1   7  643.23   22.28
   1  -1  -7  659.95   15.06
   1  -1  -7  684.18   24.81
  -1   1   7  741.11   22.80
  -1   1   6   37.03    5.53
   1  -1  -6   49.36    6.62
   1  -1  -6   37.94    5.87
  -1   1   6   37.61    3.88
   1  -1  -6   34.35    5.90
  -1   1   6   33.03    4.87
   1  -1  -6   34.17    3.30
  -1   1   5 1650.94   28.61
  -1   1   5 1627.89   32.35
   1  -1  -5 1642.20   30.97
  -1   1   5 1558.07   24.68
  -1   1   4  176.98   10.24
   1  -1  -4  151.86    9.03
  -1   1   4  181.26    8.66
  -1   1   4  152.90    6.87
  -1   1   4  158.44    8.10
  -1   1   4  154.02    5.80
   1  -1  -4  157.20    8.87
   1  -1  -4  173.15    8.70
  -1   1   3 2939.56   19.94
   1  -1  -3 2884.37   29.01
  -1   1   3 2815.42   17.80
  -1   1   3 2813.49   23.85
  -1   1   3 2935.06   29.14
   1  -1  -3 2661.79   33.60
  -1   1   3 2874.96   29.03
  -1   1   3 3054.77   36.48
   1  -1  -3 3009.86   36.43
  -1   1   2  484.59    8.75
  -1   1   2  479.50    9.36
   1  -1  -2  475.54    8.18
   1  -1  -2  493.45   13.28
   1  -1  -2  499.57    9.82
  -1   1   2  484.74    9.73
   1  -1  -2  507.72   12.26
  -1   1   2  478.36   11.88
   1  -1  -1 2846.47   22.62
  -1   1   1 2871.55   24.47
  -1   1   1 3005.89   23.41
   1  -1  -1 2996.80   18.79
   1  -1  -1 2999.50   26.27
   1  -1  -1 2859.61   19.49
  -1   1   1 3061.79   27.14
  -1   1   1 2866.74   19.50
   1  -1   0  209.39    5.01
   1  -1   0  207.22    4.89
  -1   1   0  207.42    5.01
   1  -1   0  213.14    6.38
  -1   1   0  207.78    5.14
   1  -1   0  209.38    3.89
   1  -1   0  204.35    5.11
  -1   1   0  215.99    5.45
   1  -1   0  197.76    6.63
  -1   1   0  213.51    5.56
  -1   1   0  203.90    4.05
  -1   1   0  209.65    6.87
   1  -1   0  220.28    5.18
  -1   1   0  216.32    6.13
  -1   1  -1 4643.24   24.47
  -1   1  -1 4990.06   26.82
   1  -1   1 4696.80   36.29
   1  -1   1 4640.52   27.93
  -1   1  -1 4776.19   29.55
   1  -1   1 4970.22   27.28
  -1   1  -1 4677.54   27.42
   1  -1   1 5010.79   27.61
  -1   1  -1 4797.97   34.37
   1  -1   1 4783.91   35.17
  -1   1  -1 4882.40   26.88
   1  -1   1 4951.86   26.94
   1  -1   1 4634.70   25.11
  -1   1  -1 5018.48   27.73
  -1   1  -1 4855.31   21.84
  -1   1  -1 4862.48   37.17
   1  -1   1 4792.78   27.86
   1  -1   1 4930.69   18.04
  -1   1  -1 4926.73   19.35
   1  -1   2   13.56    1.74
   1  -1   2   22.06    3.57
   1  -1   2   21.17    2.36
  -1   1  -2    8.20    1.64
  -1   1  -2   14.40    1.75
  -1   1  -2   10.20    1.20
   1  -1   2    6.62    2.40
   1  -1   2   15.92    2.96
   1  -1   2   25.66    2.95
  -1   1  -2   29.54    3.27
   1  -1   2   11.67    1.50
  -1   1  -2   25.22    3.33
  -1   1  -2   23.50    2.65
  -1   1  -2   20.17    2.65
   1  -1   2   15.90    2.27
   1  -1   2   14.62    2.29
  -1   1  -2    6.69    2.22
  -1   1  -2   16.75    2.52
  -1   1  -3 1173.11   11.96
  -1   1  -3 1226.16   22.59
   1  -1   3 1145.54   21.78
   1  -1   3 1211.25   19.92
  -1   1  -3 1168.15   13.84
  -1   1  -3 1236.79   21.22
  -1   1  -3 1207.36   22.38
  -1   1  -3 1203.05   19.93
   1  -1   3 1195.05   14.49
   1  -1   3 1217.52   21.73
   1  -1   3 1206.78   20.65
  -1   1  -3 1221.87   18.71
   1  -1   3 1214.81   15.36
  -1   1  -3 1209.89   20.53
  -1   1  -3 1149.45   15.08
  -1   1  -4  107.03    5.77
   1  -1   4  106.96    8.00
  -1   1  -4  108.02    7.82
  -1   1  -4   98.04    6.90
  -1   1  -4  116.38    7.60
  -1   1  -4  103.35    5.71
   1  -1   4  103.47    4.76
  -1   1  -4  118.08    7.77
   1  -1   4  103.84    5.54
  -1   1  -5  965.13   20.24
   1  -1   5  946.56   19.25
   1  -1   5  950.37   15.60
  -1   1  -5 1010.27   24.79
   1  -1   5 1012.90   26.74
  -1   1  -5 1003.42   18.20
  -1   1  -5 1005.93   25.55
  -1   1  -5  973.80   25.09
  -1   1  -6    5.85    3.41
  -1   1  -6    4.64    3.05
   1  -1   6    5.76    1.62
  -1   1  -6    4.91    3.46
   1  -1   6    0.91    1.98
   1  -1   6    3.24    3.41
   1  -1   7  564.25   22.98
  -1   1  -7  549.36   22.62
  -1   1  -7  536.73   21.39
  -1   1  -7  546.80   15.08
   1  -1   7  531.99   17.32
   1  -1   7  554.65   12.83
  -1   1  -7  548.58   21.36
   1  -1   8    4.68    2.51
  -1   1  -8    6.89    3.91
  -1   1  -8    7.46    3.94
  -1   1  -8    5.38    3.62
   1  -1   8    4.95    3.82
  -1   1  -9  267.91   16.83
   1  -1   9  292.89   18.37
   1  -1   9  246.05   12.98
  -1   1  -9  260.63   16.85
  -1   1  -9  267.26   17.52
  -1   1 -10   -1.24    2.91
  -1   1 -10   -2.89    3.34
  -1   1 -10    8.68    4.37
   1  -1  10    7.51    4.17
  -1   1 -11   47.76    7.97
   1  -1  11   45.16    8.10
  -1   1 -11   48.81    8.46
  -1   1 -11   54.67    8.76
   1  -1  11   61.35    9.54
  -1   0  12   14.37    4.87
  -1   0  11   57.75    8.66
   1   0 -11   57.18    8.99
   1   0 -11   63.42    9.18
  -1   0  11   56.78    7.44
   1   0 -11   57.61    9.13
  -1   0  10   28.09    5.33
   1   0 -10   30.38    6.73
  -1   0  10   36.41    6.89
   1   0 -10   38.21    7.09
   1   0 -10   39.07    7.27
   1   0  -9  223.31   15.67
  -1   0   9  184.54   12.31
  -1   0   9  206.72   14.30
   1   0  -9  205.26   14.54
   1   0  -9  180.29   14.33
  -1   0   8   37.47    5.59
   1   0  -8   45.03    7.23
   1   0  -8   50.86    7.28
  -1   0   8   42.61    6.71
   1   0  -8   58.00    8.12
   1   0  -7  569.95   13.64
  -1   0   7  576.41   20.06
   1   0  -7  615.63   22.55
   1   0  -7  640.13   23.99
  -1   0   7  623.59   21.91
   1   0  -7  592.44   22.96
   1   0  -6  147.63   11.08
  -1   0   6  138.92    9.62
   1   0  -6  137.45    6.27
   1   0  -6  144.31   10.85
  -1   0   6  156.05   10.45
   1   0  -6  142.81   10.42
   1   0  -5 1600.57   19.20
  -1   0   5 1622.13   30.48
   1   0  -5 1660.63   32.42
   1   0  -5 1737.24   34.95
   1   0  -5 1692.63   33.13
  -1   0   5 1694.25   31.39
  -1   0   4  603.04   17.49
   1   0  -4  589.35   17.73
  -1   0   4  575.85   13.81
   1   0  -4  584.89   16.11
   1   0  -4  589.42   16.78
   1   0  -4  607.84   17.75
  -1   0   4  559.75   14.84
   1   0  -4  552.41    9.82
   1   0  -4  578.65   15.68
  -1   0   4  574.91   16.78
   1   0  -3 2963.05   32.60
  -1   0   3 2734.64   25.02
   1   0  -3 2893.92   32.51
  -1   0   3 2889.23   32.35
   1   0  -3 2817.18   31.69
  -1   0   3 2870.59   28.96
  -1   0   3 2944.42   32.95
  -1   0   3 2860.83   32.02
   1   0  -2  749.66    9.76
   1   0  -2  746.82   11.14
  -1   0   2  749.37   13.11
   1   0  -2  742.25   13.11
  -1   0   2  730.91    9.24
  -1   0   2  754.17   10.87
  -1   0   2  734.53   12.91
  -1   0   2  738.97   13.92
   1   0  -2  727.76   14.01
   1   0  -2  738.34   13.26
   1   0  -1  314.01    4.77
  -1   0   1  302.11    4.73
   1   0  -1  322.89    6.33
   1   0  -1  343.92    7.59
  -1   0   1  312.17    4.58
   1   0  -1  323.35    6.52
  -1   0   1  313.57    6.29
   1   0  -1  309.34    4.48
  -1   0   1  342.82    7.47
  -1   0   0   68.60    2.44
   1   0   0   84.90    2.72
  -1   0   0   66.33    2.70
  -1   0   0   94.88    2.77
   1   0   0   57.85    2.14
  -1   0  -1  572.25    7.89
  -1   0  -1  575.44    7.17
  -1   0  -1  566.09    8.19
   1   0   1  573.00    7.91
  -1   0  -1  574.43    8.13
  -1   0  -1  575.98    7.96
   1   0   1  547.13    7.10
   1   0   1  572.88    8.34
   1   0   1  556.16    7.53
   1   0   1  557.63    8.00
  -1   0  -1  556.05    7.27
   1   0   1  543.11    7.78
   1   0   1  552.11    7.98
  -1   0  -1  554.32    8.05
   1   0   2    0.17    1.03
  -1   0  -2    1.08    0.82
   1   0   2    1.29    1.02
  -1   0  -2    1.78    1.64
  -1   0  -2   -0.04    1.17
  -1   0  -2    1.24    0.90
   1   0   2    0.41    1.33
   1   0   2    3.93    1.84
   1   0   2    1.50    1.10
  -1   0  -2    1.91    1.20
  -1   0  -2    0.36    0.45
  -1   0  -2    1.59    1.28
   1   0   2   -0.07    1.15
   1   0   3 3516.28   33.01
  -1   0  -3 3326.93   31.84
   1   0   3 3156.28   35.37
  -1   0  -3 3505.79   26.39
  -1   0  -3 3449.62   28.21
   1   0   3 3541.25   32.29
  -1   0  -3 3251.87   15.55
   1   0   3 3360.25   28.58
   1   0   3 3391.35   14.62
  -1   0  -3 3212.24   35.23
  -1   0  -3 3301.66   33.06
   1   0   3 3384.09   33.60
   1   0   4    7.54    0.89
  -1   0  -4    4.11    2.19
  -1   0  -4    7.37    1.90
  -1   0  -4    8.33    2.27
  -1   0  -4    5.29    2.45
  -1   0  -4    6.61    1.43
   1   0   4    6.49    2.23
   1   0   4    5.30    2.41
   1   0   4    7.61    2.01
  -1   0  -4    2.68    2.38
  -1   0  -5 1780.24   33.48
  -1   0  -5 1764.97   20.64
  -1   0  -5 1793.69   32.90
  -1   0  -5 1834.08   29.10
   1   0   5 1766.35   31.14
  -1   0  -5 1771.14   32.74
   1   0   5 1719.37   28.12
   1   0   6    2.03    3.05
  -1   0  -6    4.06    3.33
   1   0   6    3.74    2.41
  -1   0  -6    3.45    3.37
  -1   0  -6    4.74    1.32
  -1   0  -6    4.82    3.11
   1   0   6    3.68    0.90
   1   0   7  689.10    9.67
   1   0   7  705.01   21.23
   1   0   7  743.65   25.45
  -1   0  -7  733.87   24.45
  -1   0  -7  706.20   24.74
  -1   0  -7  756.44   24.77
  -1   0  -8    1.31    2.85
  -1   0  -8    4.21    3.37
  -1   0  -8    4.29    3.44
   1   0   8    3.09    2.45
   1   0   8    3.18    3.32
  -1   0  -9  255.82   16.15
   1   0   9  246.55   13.71
   1   0   9  259.62   16.98
  -1   0  -9  242.92   16.18
  -1   0  -9  257.18   16.57
  -1   0 -10    8.10    4.22
   1   0  10    1.43    4.00
   1   0  10    4.12    2.51
  -1   0 -10    4.43    3.82
  -1   0 -10    1.07    3.47
   1   0  11   79.44   10.43
  -1   0 -11   90.06   10.96
  -1   0 -11   88.00   11.08
  -1   0 -11   87.14   10.89
   1   0  12    6.65    3.92
  -1   0 -12    2.99    2.63
   1   1 -11   45.52    8.07
   1   1 -11   43.78    7.67
   1   1 -11   34.46    7.29
  -1  -1  11   34.89    7.34
   1   1 -10   25.92    6.09
   1   1 -10   35.69    7.39
   1   1 -10   47.09    7.75
  -1  -1  10   24.70    6.00
  -1  -1  10   34.31    5.18
  -1  -1   9  179.78   13.89
   1   1  -9  201.77   15.03
   1   1  -9  205.74   15.26
  -1  -1   9  187.49   11.68
   1   1  -9  216.06   14.76
   1   1  -8   32.74    5.97
  -1  -1   8   31.16    4.74
   1   1  -8   36.77    6.47
   1   1  -8   30.08    6.32
  -1  -1   8   36.12    6.45
   1   1  -7  429.27   19.36
   1   1  -7  410.54   12.12
   1   1  -7  468.11   20.72
  -1  -1   7  434.91   16.40
  -1  -1   7  444.61   19.41
   1   1  -7  436.78   18.54
   1   1  -6  235.54   12.86
   1   1  -6  220.14   13.26
  -1  -1   6  229.48   13.31
   1   1  -6  232.54   13.94
  -1  -1   6  215.73   11.23
   1   1  -6  208.14    8.21
  -1  -1   5  827.51   23.48
  -1  -1   5  757.97    9.29
   1   1  -5  796.98   18.81
   1   1  -5  849.74   22.56
   1   1  -5  881.94   25.12
   1   1  -5  755.09   14.37
  -1  -1   5  812.97   20.21
   1   1  -5  759.20   17.78
   1   1  -5  818.79   23.13
   1   1  -4   63.73    3.90
  -1  -1   4   63.71    5.71
   1   1  -4   68.56    6.49
  -1  -1   4   71.04    6.80
   1   1  -4   61.84    4.87
   1   1  -4   54.79    5.56
  -1  -1   4   59.62    3.10
   1   1  -4   66.19    6.84
  -1  -1   4   74.61    5.86
   1   1  -4   65.06    5.14
  -1  -1   4   64.15    5.61
   1   1  -3 1112.30   23.44
   1   1  -3 1139.03   21.25
  -1  -1   3 1124.36   19.56
   1   1  -3 1061.31   21.38
  -1  -1   3 1135.17   14.63
  -1  -1   3 1144.68   18.76
  -1  -1   3 1149.73   23.63
  -1  -1   3 1124.28   20.45
  -1  -1   3 1141.41   18.40
   1   1  -3 1115.52   18.18
   1   1  -3 1130.87   18.04
  -1  -1   3 1134.05   22.09
  -1  -1   2  836.46   14.27
   1   1  -2  824.45   13.88
  -1  -1   2  836.31   13.01
  -1  -1   2  832.55   13.70
  -1  -1   2  821.72    9.37
  -1  -1   2  826.14   16.62
   1   1  -2  803.18   15.96
   1   1  -2  825.46   13.46
  -1  -1   2  797.66   12.05
   1   1  -2  829.58   16.32
  -1  -1   2  801.21   15.93
   1   1  -2  809.16   12.94
   1   1  -1 4499.31   27.79
  -1  -1   1 4603.26   25.95
  -1  -1   1 4463.94   29.78
  -1  -1   1 4540.79   24.92
   1   1  -1 4811.96   25.84
   1   1  -1 4737.47   26.41
   1   1   0  254.48    4.22
  -1  -1   0  264.51    5.43
   1   1   0  265.78    5.37
   1   1   0  251.88    5.08
  -1  -1   0  261.37    5.56
   1   1   0  260.62    5.49
  -1  -1   0  269.87    5.55
  -1  -1   0  266.07    5.29
   1   1   0  258.90    3.48
  -1  -1   0  258.94    4.30
   1   1   0  266.97    5.70
  -1  -1   0  281.16    5.20
   1   1   1 2563.33   16.12
   1   1   1 2552.97   17.38
  -1  -1  -1 2565.86   18.05
   1   1   1 2564.84   12.55
   1   1   1 2529.24   18.05
   1   1   1 2489.98   18.03
  -1  -1  -1 2550.12   14.62
  -1  -1  -1 2532.44   17.60
  -1  -1  -1 2588.79   18.34
   1   1   1 2571.74   14.41
  -1  -1  -1 2552.12   15.35
   1   1   2    4.18    1.12
   1   1   2    1.54    1.17
   1   1   2    6.02    1.65
  -1  -1  -2    3.00    1.12
  -1  -1  -2    3.35    1.05
  -1  -1  -2    7.62    1.77
   1   1   2    4.01    1.26
  -1  -1  -2    1.61    0.95
   1   1   3 3250.58   35.02
  -1  -1  -3 3590.49   29.08
   1   1   3 3409.51   31.52
  -1  -1  -3 3309.37   33.98
  -1  -1  -3 3459.13   30.87
   1   1   3 3471.70   28.43
  -1  -1  -3 3407.69   29.55
   1   1   3 3359.64   31.12
  -1  -1  -4   61.65    5.35
  -1  -1  -4   63.08    4.76
  -1  -1  -4   64.10    6.09
  -1  -1  -4   59.14    5.61
   1   1   4   63.08    5.55
   1   1   4   66.64    5.42
   1   1   4   62.53    4.73
   1   1   4   59.79    5.83
  -1  -1  -4   66.60    5.14
  -1  -1  -5 1774.70   32.18
  -1  -1  -5 1789.85   33.27
  -1  -1  -5 1871.07   32.63
   1   1   5 1771.72   30.72
   1   1   5 1882.41   28.92
  -1  -1  -6  103.44    8.97
   1   1   6  102.87    7.98
  -1  -1  -6   92.23    8.52
  -1  -1  -6  105.84    8.97
   1   1   6  111.60    8.86
  -1  -1  -6   99.99    4.62
  -1  -1  -7  784.60   25.11
   1   1   7  728.81   22.90
  -1  -1  -7  768.12   24.92
  -1  -1  -7  748.94   24.51
  -1  -1  -7  691.74   11.59
   1   1   7  699.67   22.45
   1   1   8    8.09    3.57
  -1  -1  -8   17.97    5.08
  -1  -1  -8    5.41    3.55
   1   1   8    6.46    3.88
  -1  -1  -8   17.55    4.65
   1   1   9  271.69   16.98
  -1  -1  -9  229.28   15.32
  -1  -1  -9  261.28   16.46
  -1  -1  -9  255.82   16.52
   1   1   9  249.94   14.60
  -1  -1 -10    8.60    4.59
   1   1  10   23.11    6.55
  -1  -1 -10   19.10    5.40
   1   1  10   12.76    4.03
  -1  -1 -10   19.01    5.43
  -1  -1 -11   99.69   11.54
  -1  -1 -11  117.71   12.22
  -1  -1 -11  110.77   11.88
   1   1  11  127.41   12.79
   1   1  11  106.13   10.36
   1   1  12   -4.25    4.35
  -1  -1 -12    3.94    4.01
  -1  -1 -12    0.29    3.28
   1   1  12   -1.96    3.11
  -1  -1 -12    4.59    3.15
  -1  -2  11   32.04    7.52
   1   2 -11   35.39    6.87
  -1  -2  10   16.16    4.95
   1   2 -10   16.93    5.00
   1   2 -10   12.26    4.95
   1   2 -10   15.64    5.24
  -1  -2   9  124.64   12.12
   1   2  -9  124.83   12.21
   1   2  -9  145.06   12.89
   1   2  -9  134.58   11.65
  -1  -2   8  153.05    9.43
   1   2  -8  158.66   12.93
  -1  -2   8  145.49   12.48
   1   2  -8  136.14   12.25
   1   2  -8  142.52   11.25
   1   2  -7  412.10   19.44
   1   2  -7  456.68   20.67
  -1  -2   7  456.62   20.66
   1   2  -7  443.79   18.33
  -1  -2   7  450.36   15.38
   1   2  -6  228.71   13.64
  -1  -2   6  230.06   14.12
  -1  -2   6  238.04    7.22
   1   2  -6  234.40   12.66
   1   2  -6  262.03   14.89
  -1  -2   6  233.53   10.61
  -1  -2   5  866.96   14.94
   1   2  -5  894.10   25.03
   1   2  -5  902.63   25.71
   1   2  -5  894.44   22.47
  -1  -2   5  878.80   25.73
  -1  -2   5  899.56   19.66
   1   2  -5  867.61   17.85
   1   2  -4  566.57   18.35
   1   2  -4  563.79   13.37
  -1  -2   4  579.83   13.87
  -1  -2   4  610.99   20.31
   1   2  -4  607.85   16.93
  -1  -2   4  579.70   13.07
   1   2  -4  623.61   19.97
  -1  -2   4  585.74   14.61
   1   2  -3 1450.42   28.11
   1   2  -3 1371.11   18.50
  -1  -2   3 1414.68   25.38
   1   2  -3 1521.20   26.31
   1   2  -3 1479.11   25.04
  -1  -2   3 1578.07   27.75
  -1  -2   3 1462.39   27.06
   1   2  -3 1433.58   23.02
   1   2  -3 1554.67   26.03
  -1  -2   3 1458.17   19.20
  -1  -2   3 1474.92   19.32
  -1  -2   3 1442.26   19.54
   1   2  -2  218.18    8.33
  -1  -2   2  231.82    8.86
   1   2  -2  217.76    8.32
  -1  -2   2  233.03    8.81
   1   2  -2  220.88    7.64
   1   2  -2  232.80   10.03
   1   2  -2  238.71    8.72
  -1  -2   2  209.45    6.13
  -1  -2   2  219.39    6.43
   1   2  -2  223.79    6.53
  -1  -2   2  233.06   10.24
  -1  -2   2  233.21    8.87
  -1  -2   2  216.39    5.68
  -1  -2   1 2318.61   22.96
  -1  -2   1 2076.72   15.26
   1   2  -1 2009.21   24.68
   1   2  -1 2235.24   22.32
   1   2  -1 2237.72   22.70
   1   2  -1 2104.97   18.12
   1   2  -1 2086.63   19.68
  -1  -2   1 2103.43   17.51
  -1  -2   1 1991.20   23.41
   1   2  -1 2109.12   17.15
  -1  -2   1 2328.31   23.39
  -1  -2   1 2162.63   20.90
   1   2   0  149.64    5.13
   1   2   0  154.97    4.30
   1   2   0  145.95    5.18
  -1  -2   0  149.28    4.23
  -1  -2   0  147.93    4.66
  -1  -2   0  157.77    5.45
  -1  -2   0  154.06    6.59
   1   2   0  148.28    4.08
  -1  -2   0  149.13    5.13
   1   2   0  155.00    4.85
   1   2   0  145.20    4.96
  -1  -2   0  158.20    4.29
  -1  -2   0  146.00    4.96
  -1  -2   0  146.96    2.95
  -1  -2   0  147.36    4.19
  -1  -2  -1 3660.72   24.04
  -1  -2  -1 3719.39   24.91
  -1  -2  -1 3629.26   22.90
  -1  -2  -1 3538.58   23.50
   1   2   1 3634.61   24.06
   1   2   1 3526.24   23.43
   1   2   1 3835.23   13.58
   1   2   1 3727.07   24.52
  -1  -2  -2 1112.14   13.37
   1   2   2 1135.88   13.53
  -1  -2  -2 1139.47   16.43
  -1  -2  -2 1093.22   12.33
   1   2   2 1132.70   14.55
   1   2   2 1087.99   12.40
  -1  -2  -2 1099.13   16.47
  -1  -2  -2 1104.16    9.41
   1   2   2 1128.03   16.13
   1   2   2 1131.07   14.27
  -1  -2  -3 1887.42   13.30
  -1  -2  -3 1858.14   27.55
  -1  -2  -3 1866.24   20.14
  -1  -2  -3 1869.09   19.43
  -1  -2  -3 1980.22   25.54
   1   2   3 1917.54   25.16
   1   2   3 1792.95   22.24
   1   2   3 1845.53   16.37
   1   2   3 1800.29   26.94
   1   2   3 1834.25   19.40
  -1  -2  -4   17.47    2.45
   1   2   4   16.94    2.95
  -1  -2  -4   14.36    2.75
   1   2   4   11.30    2.16
   1   2   4   15.64    3.10
  -1  -2  -4   14.31    3.36
  -1  -2  -5 1510.93   31.04
   1   2   5 1444.07   29.24
  -1  -2  -5 1533.49   28.89
   1   2   5 1448.18   22.97
   1   2   5 1494.34   27.70
  -1  -2  -6  230.27   12.65
   1   2   6  220.51   10.34
  -1  -2  -6  220.72   12.88
  -1  -2  -6  233.89   12.62
   1   2   6  211.89   12.82
  -1  -2  -7 1005.97   28.94
   1   2   7  929.10   27.27
  -1  -2  -7  995.46   28.43
  -1  -2  -7  981.54   27.29
   1   2   7  924.25   23.59
  -1  -2  -8  185.21   12.85
  -1  -2  -8  182.57   13.08
   1   2   8  193.18   12.15
   1   2   8  164.40   12.17
  -1  -2  -8  187.23   13.57
  -1  -2  -9  231.57   15.84
  -1  -2  -9  225.60   15.32
  -1  -2  -9  177.12   13.26
   1   2   9  231.18   14.71
   1   2   9  226.23   14.56
  -1  -2 -10    1.23    2.72
  -1  -2 -10    2.87    3.22
  -1  -2 -10   -5.11    4.04
   1   2  10    1.21    1.82
  -1  -2 -11   69.06    9.33
  -1  -2 -11   81.15   10.25
   1   2  11   66.76    8.76
   1   2  11   73.54    9.68
  -1  -2 -11   67.61    9.80
  -1  -2 -12    2.06    4.03
   1   2  12   -0.02    2.91
  -1  -2 -12   -6.60    4.09
  -1  -2 -12    5.18    4.37
   1   2  12    2.90    4.60
   1   3 -11   39.88    7.38
   1   3 -10   45.70    8.12
   1   3 -10   60.34    8.68
   1   3 -10   53.54    8.85
  -1  -3  10   46.85    8.31
   1   3  -9   83.22   10.42
   1   3  -9   94.23    9.96
  -1  -3   9   92.06   11.02
   1   3  -9   86.85   10.47
   1   3  -8   87.68   10.07
  -1  -3   8   99.49   10.87
   1   3  -8  102.85   10.95
   1   3  -8   92.80    9.31
   1   3  -7  215.91   14.58
   1   3  -7  213.77   12.84
  -1  -3   7  214.23   15.11
  -1  -3   7  209.29    9.54
   1   3  -7  220.67   14.79
   1   3  -6  294.40   16.02
  -1  -3   6  275.00   10.02
  -1  -3   6  283.04   16.41
   1   3  -6  272.40   15.35
   1   3  -6  261.03    9.78
   1   3  -6  261.43   13.25
  -1  -3   6  282.62   10.38
   1   3  -5  466.18   18.96
   1   3  -5  434.98   12.05
  -1  -3   5  436.52   13.16
   1   3  -5  420.30   18.01
  -1  -3   5  416.81   19.02
   1   3  -5  429.16   15.71
  -1  -3   5  429.56   12.07
  -1  -3   5  426.12   14.49
   1   3  -4  348.89   12.76
  -1  -3   4  356.76   12.34
  -1  -3   4  357.20   10.09
  -1  -3   4  378.57   17.12
   1   3  -4  347.35   14.78
   1   3  -4  368.48   10.09
   1   3  -4  380.16   16.02
  -1  -3   4  372.21   12.36
   1   3  -3 1087.29   19.35
   1   3  -3 1050.79   22.34
   1   3  -3 1107.25   23.94
  -1  -3   3 1093.94   15.66
  -1  -3   3 1075.58   18.90
  -1  -3   3 1055.46   15.31
   1   3  -3 1045.18   15.31
  -1  -3   3 1153.03   25.92
   1   3  -3 1124.09   24.61
   1   3  -3 1109.11   25.12
  -1  -3   2  253.52   11.38
  -1  -3   2  252.82    5.50
  -1  -3   2  252.37    5.40
   1   3  -2  260.88    9.68
   1   3  -2  256.51   10.43
   1   3  -2  269.99    7.61
   1   3  -2  248.35   10.85
   1   3  -2  242.14    9.93
  -1  -3   2  265.66   11.61
  -1  -3   2  243.22    8.17
  -1  -3   2  249.17    6.66
  -1  -3   2  271.36    9.99
   1   3  -2  260.48    7.09
   1   3  -1 1098.35   10.11
  -1  -3   1 1140.01   17.11
  -1  -3   1 1157.17   18.89
   1   3  -1 1117.95   18.42
  -1  -3   1 1092.29   20.32
  -1  -3   1 1172.03   20.04
   1   3  -1 1195.55   19.84
  -1  -3   1 1113.28   11.12
   1   3  -1 1153.94   18.80
   1   3  -1 1115.85   16.53
   1   3  -1 1125.59   14.21
  -1  -3   1 1089.99   13.44
  -1  -3   1 1167.36   22.21
  -1  -3   0 1161.77   20.21
   1   3   0 1105.70   11.90
  -1  -3   0 1162.27   14.32
  -1  -3   0 1145.18    8.67
  -1  -3   0 1170.61   14.94
  -1  -3   0 1182.16   13.22
   1   3   0 1195.10   17.63
   1   3   0 1176.99   13.25
  -1  -3   0 1128.74   16.58
   1   3   0 1182.11   16.94
  -1  -3   0 1207.37   17.89
  -1  -3   0 1181.30   17.05
  -1  -3   0 1180.93   16.73
   1   3   0 1164.22   14.99
   1   3   0 1196.44   15.28
   1   3   1 2406.23   23.40
  -1  -3  -1 2441.53   23.47
   1   3   1 2381.89   20.70
  -1  -3  -1 2430.16   26.13
   1   3   1 2411.96   22.77
  -1  -3  -1 2457.70   22.89
  -1  -3  -1 2345.86   20.20
  -1  -3  -1 2375.61   22.57
   1   3   1 2493.76   28.20
  -1  -3  -1 2351.75   22.18
   1   3   1 2319.13   22.48
  -1  -3  -1 2219.30   22.05
   1   3   2  393.19   10.67
  -1  -3  -2  389.94    8.56
   1   3   2  369.78    9.88
  -1  -3  -2  360.53    9.09
  -1  -3  -2  396.76   10.90
  -1  -3  -2  384.92    9.11
  -1  -3  -2  380.62   10.83
   1   3   2  379.50    9.26
  -1  -3  -2  376.60    9.31
   1   3   2  373.92    8.87
   1   3   2  376.60    9.09
  -1  -3  -3 2185.07   21.11
   1   3   3 2052.91   21.73
   1   3   3 2174.71   16.83
   1   3   3 2124.85   21.18
   1   3   3 2258.53   28.82
   1   3   3 2215.57   23.95
   1   3   3 2151.55   23.60
  -1  -3  -3 2178.74   20.13
  -1  -3  -3 2349.27   30.66
   1   3   3 2045.25   21.91
  -1  -3  -3 2096.38   30.63
  -1  -3  -3 2243.02   20.32
   1   3   4 1628.03   20.94
  -1  -3  -4 1623.97   24.02
   1   3   4 1658.24   19.67
  -1  -3  -4 1624.57   15.99
   1   3   4 1663.35   20.55
  -1  -3  -4 1726.98   21.05
  -1  -3  -4 1657.05   30.16
   1   3   4 1658.98   28.52
   1   3   5 1143.44   19.20
   1   3   5 1101.21   21.50
   1   3   5 1087.60   26.47
  -1  -3  -5 1160.05   24.26
  -1  -3  -5 1217.61   28.33
  -1  -3  -5 1139.60   19.56
   1   3   5 1085.90   15.28
  -1  -3  -6   58.46    7.14
   1   3   6   69.66    5.67
   1   3   6   56.09    7.46
  -1  -3  -6   71.56    7.04
   1   3   6   63.94    3.52
   1   3   7  216.66   10.77
   1   3   7  259.80   15.62
  -1  -3  -7  239.15   14.48
  -1  -3  -7  222.41   12.83
  -1  -3  -8    6.38    4.15
   1   3   8    6.62    3.63
  -1  -3  -8    4.48    3.20
   1   3   8    6.23    3.11
  -1  -3  -8    8.14    4.28
   1   3   9  237.34   13.94
  -1  -3  -9  246.74   16.13
   1   3   9  247.72   15.92
  -1  -3  -9  226.86   14.58
  -1  -3  -9  239.95   16.53
  -1  -3 -10    5.03    4.48
   1   3  10    8.42    4.07
  -1  -3 -10    1.16    2.16
  -1  -3 -10    6.49    3.66
   1   3  10    5.57    3.41
   1   3  11   89.56   10.30
  -1  -3 -11  115.34   12.60
   1   3  11  110.32   11.53
  -1  -3 -11   91.18   10.91
  -1  -3 -11   69.65    8.86
  -1  -3 -12    3.59    3.33
  -1  -3 -12    0.51    2.06
   1   3  12   -0.80    3.11
  -1  -3 -12    2.78    3.74
   1   3  12   -2.47    2.60
   1   3  13   30.51    6.58
  -1  -3 -13   33.45    6.73
   1   3  13   16.20    5.56
   1   4 -10   40.83    6.75
   1   4  -9   46.59    8.39
   1   4  -9   43.12    7.88
  -1  -4   9   44.07    8.24
   1   4  -9   44.59    6.83
   1   4  -8  120.09   11.97
  -1  -4   8  103.27   11.46
   1   4  -8  105.98    9.81
   1   4  -8  104.83   11.38
   1   4  -7  119.37   11.27
  -1  -4   7  124.43   12.03
   1   4  -7  111.92   11.04
   1   4  -7  131.77   10.09
  -1  -4   6  143.16    8.61
  -1  -4   6  140.91    9.64
   1   4  -6  148.96   10.12
  -1  -4   6  143.23   12.45
   1   4  -6  152.05   12.04
   1   4  -6  144.27   11.94
   1   4  -5  178.46   10.28
  -1  -4   5  185.30    6.23
   1   4  -5  186.19   12.50
  -1  -4   5  176.92   10.32
  -1  -4   5  177.88    9.78
   1   4  -5  182.54    7.13
  -1  -4   5  169.87   12.93
   1   4  -5  166.65   11.80
   1   4  -4  466.69   18.39
  -1  -4   4  454.03   15.78
   1   4  -4  460.48   17.60
  -1  -4   4  452.23    8.57
  -1  -4   4  486.77   20.69
  -1  -4   4  449.38   14.94
   1   4  -4  472.29   10.69
   1   4  -4  430.83   13.92
   1   4  -3  291.85    8.06
  -1  -4   3  266.16    5.02
   1   4  -3  279.08    9.40
  -1  -4   3  292.17   11.19
   1   4  -3  285.84   13.28
   1   4  -3  276.51   13.40
  -1  -4   3  261.26    5.81
   1   4  -3  284.42   13.62
  -1  -4   3  287.06    7.81
  -1  -4   3  287.66   14.15
   1   4  -3  271.66   12.14
  -1  -4   2  469.15   13.07
  -1  -4   2  481.89   12.16
   1   4  -2  493.10   16.34
   1   4  -2  500.39   14.30
  -1  -4   2  460.78    9.33
   1   4  -2  452.91   14.31
  -1  -4   2  473.18   16.48
   1   4  -2  469.34   15.28
  -1  -4   2  437.56    6.31
   1   4  -2  459.64    9.55
  -1  -4   2  472.75   15.81
   1   4  -2  470.12   10.04
  -1  -4   2  426.65    6.29
   1   4  -1 1282.31   20.49
  -1  -4   1 1257.89   13.00
   1   4  -1 1333.59   20.03
  -1  -4   1 1256.39   20.35
   1   4  -1 1330.65   23.00
  -1  -4   1 1293.93   15.11
  -1  -4   1 1292.73   24.24
  -1  -4   1 1239.25   15.47
   1   4  -1 1332.02   24.10
   1   4  -1 1246.62   11.49
   1   4   0    3.75    1.01
   1   4   0    3.23    1.63
  -1  -4   0    5.40    0.66
  -1  -4   0    2.95    1.76
   1   4   0    4.91    1.95
   1   4   0    4.56    1.93
  -1  -4   0    8.88    2.12
  -1  -4   0    4.09    1.35
  -1  -4   0    7.37    0.81
   1   4   0    3.64    1.10
  -1  -4   0    6.78    1.97
  -1  -4   0    3.30    1.01
  -1  -4   0    7.27    1.54
   1   4   1 2449.86   27.50
  -1  -4  -1 2491.87   27.78
   1   4   1 2568.75   32.69
   1   4   1 2403.35   22.19
  -1  -4  -1 2370.73   24.49
  -1  -4  -1 2437.43   26.70
  -1  -4  -1 2408.29   26.04
  -1  -4  -1 2253.33   19.32
  -1  -4  -1 2518.20   30.61
   1   4   1 2425.65   25.97
  -1  -4  -1 2400.32   24.73
  -1  -4  -1 2445.64   26.15
   1   4   2  665.44   13.89
  -1  -4  -2  670.28   13.35
  -1  -4  -2  691.99   12.41
  -1  -4  -2  673.92   13.64
   1   4   2  669.28   13.81
  -1  -4  -2  643.38   13.61
   1   4   2  656.51   13.75
  -1  -4  -2  662.97   16.03
  -1  -4  -2  652.51   14.50
   1   4   2  647.31   13.17
   1   4   2  667.75   16.16
   1   4   3 1456.79   20.27
   1   4   3 1441.80   23.14
  -1  -4  -3 1540.47   27.67
  -1  -4  -3 1371.23   15.11
   1   4   3 1504.96   24.29
  -1  -4  -3 1452.22   24.86
  -1  -4  -3 1444.08   20.14
  -1  -4  -3 1436.63   18.22
   1   4   3 1372.16   19.10
  -1  -4  -4  249.35    7.95
   1   4   4  246.77    8.61
   1   4   4  259.69    8.18
   1   4   4  251.63   11.55
   1   4   4  247.24    8.56
  -1  -4  -4  247.03    7.96
  -1  -4  -4  246.61   12.30
  -1  -4  -4  266.02    9.49
   1   4   4  244.91    9.36
  -1  -4  -5  664.24   14.40
   1   4   5  640.42   14.39
   1   4   5  680.09   14.62
  -1  -4  -5  633.90   21.17
   1   4   5  648.43   20.83
   1   4   5  667.11   15.06
  -1  -4  -5  646.31   12.01
  -1  -4  -5  671.72   17.61
   1   4   5  672.08   13.89
   1   4   6  171.47    7.66
  -1  -4  -6  164.25   11.67
   1   4   6  164.95    8.42
   1   4   6  165.17   11.96
  -1  -4  -6  160.17    9.88
   1   4   6  171.40    8.19
   1   4   7  564.54   16.27
   1   4   7  574.93   12.89
  -1  -4  -7  562.22   22.40
   1   4   7  542.66   23.57
  -1  -4  -7  556.64   19.48
  -1  -4  -8   57.38    8.00
   1   4   8   52.12    3.01
   1   4   8   52.29    5.79
   1   4   8   55.02    8.04
  -1  -4  -8   61.89    7.27
   1   4   9  217.45   12.51
  -1  -4  -9  242.41   14.80
   1   4   9  228.83   16.28
  -1  -4  -9  242.14   16.18
  -1  -4 -10   17.06    6.21
  -1  -4 -10   12.98    4.75
  -1  -4 -10   22.69    5.36
   1   4  10   14.38    4.20
   1   4  10    7.99    4.29
   1   4  11   76.96    9.27
  -1  -4 -11   75.17   10.00
  -1  -4 -11   79.69    9.51
  -1  -4 -11   93.88   11.89
   1   4  11   80.09   10.28
   1   4  12    3.45    3.63
  -1  -4 -12   -4.02    4.74
   1   4  12    4.81    3.63
  -1  -4 -12    4.21    3.97
  -1  -4 -12   -3.21    2.93
  -1  -4 -13   30.62    6.57
   1   5  -9   24.79    6.08
  -1  -5   9   25.31    6.58
   1   5  -9   27.83    6.66
   1   5  -8   72.72    9.90
   1   5  -8   60.35    7.60
   1   5  -8   64.63    9.21
  -1  -5   8   61.07    9.45
   1   5  -7   29.07    6.39
   1   5  -7   15.44    3.94
   1   5  -7   33.97    6.28
  -1  -5   7   31.48    6.80
   1   5  -6  153.19   10.43
  -1  -5   6  175.06   11.82
   1   5  -6  151.11   12.90
  -1  -5   6  147.13    9.81
   1   5  -6  158.81   12.80
  -1  -5   6  136.40   12.54
   1   5  -5  291.25   12.98
   1   5  -5  297.68   16.41
  -1  -5   5  302.51   14.05
  -1  -5   5  283.09   17.41
  -1  -5   5  301.15   14.48
   1   5  -5  326.50   17.15
  -1  -5   4   44.79    7.19
   1   5  -4   56.62    6.89
   1   5  -4   48.41    6.62
  -1  -5   4   45.91    5.89
  -1  -5   4   44.32    5.47
   1   5  -4   46.72    4.71
   1   5  -4   47.02    3.34
   1   5  -3  775.96   23.81
   1   5  -3  770.76   21.55
  -1  -5   3  785.44   20.20
   1   5  -3  777.84   24.44
   1   5  -3  787.83   15.65
   1   5  -3  781.57   22.16
  -1  -5   3  798.34   25.31
  -1  -5   3  779.77   12.62
  -1  -5   2  403.07   11.44
   1   5  -2  414.80   14.00
   1   5  -2  414.85   15.88
   1   5  -2  415.57   14.35
   1   5  -2  403.86   16.63
   1   5  -2  389.06    8.98
  -1  -5   2  395.49   16.07
  -1  -5   2  385.87   13.46
  -1  -5   2  395.40    9.07
   1   5  -1  920.84   22.56
   1   5  -1  892.14   19.19
  -1  -5   1  861.54   12.77
   1   5  -1  884.76   17.00
  -1  -5   1  846.54   20.98
   1   5  -1  854.94   10.40
   1   5  -1  882.97   21.09
  -1  -5   1  857.04   13.93
  -1  -5   1  872.11   12.83
   1   5   0 1196.39   25.92
  -1  -5   0 1059.43    9.11
  -1  -5   0 1096.04   16.68
   1   5   0 1180.40   22.23
  -1  -5   0 1066.95   20.06
  -1  -5   0 1059.60   17.92
   1   5   0 1123.31   20.13
  -1  -5   0 1131.97   21.00
   1   5   0 1109.15   13.35
   1   5   0 1164.70   23.46
  -1  -5   0 1051.50   10.01
   1   5   0 1121.12   15.43
  -1  -5  -1  646.26   12.03
   1   5   1  671.23   16.58
  -1  -5  -1  629.17    7.94
  -1  -5  -1  644.58   16.24
   1   5   1  662.22   12.33
   1   5   1  668.96   15.89
  -1  -5  -1  695.08   14.30
  -1  -5  -1  694.87   15.85
   1   5   1  688.59   18.99
   1   5   2  610.15   17.46
  -1  -5  -2  580.65   14.47
  -1  -5  -2  539.73    6.92
  -1  -5  -2  584.46   12.46
  -1  -5  -2  597.41   17.52
   1   5   2  564.69   13.64
   1   5   2  594.39   14.77
   1   5   2  565.21   13.38
   1   5   3  849.82    9.67
  -1  -5  -3  902.11   18.51
  -1  -5  -3  801.82    9.39
   1   5   3  947.35   21.39
  -1  -5  -3  879.39   15.43
   1   5   3  848.02   16.47
   1   5   3  898.27   19.45
   1   5   3  880.01   17.58
   1   5   4  290.88   12.64
   1   5   4  259.70    9.55
  -1  -5  -4  279.25    8.77
   1   5   4  259.57    9.25
  -1  -5  -4  260.37    8.51
   1   5   4  269.00    7.86
  -1  -5  -4  271.88   12.70
  -1  -5  -5  681.34   22.68
   1   5   5  640.53   13.91
   1   5   5  661.07   15.40
  -1  -5  -5  621.03   13.88
   1   5   5  657.58   21.22
  -1  -5  -5  641.58   14.06
  -1  -5  -5  647.76   16.52
   1   5   5  636.93   15.14
   1   5   5  634.71   17.29
   1   5   6  336.23   11.69
   1   5   6  348.61   11.36
   1   5   6  324.02   11.21
  -1  -5  -6  320.15    9.77
   1   5   6  305.31   16.47
  -1  -5  -6  336.15   16.98
  -1  -5  -6  334.08   13.59
   1   5   6  311.24   12.14
   1   5   7  356.37   12.88
   1   5   7  350.08   12.25
   1   5   7  344.74   18.90
  -1  -5  -7  376.37   18.81
  -1  -5  -7  346.75   15.20
   1   5   7  366.23   12.82
   1   5   7  348.09   12.86
   1   5   8   54.46    4.63
   1   5   8   48.79    5.09
   1   5   8   53.22    5.60
  -1  -5  -8   47.87    7.72
  -1  -5  -8   48.41    6.41
   1   5   8   47.62    7.99
   1   5   9  159.17   14.07
   1   5   9  149.35    9.13
   1   5   9  149.71    9.96
  -1  -5  -9  171.68   14.09
  -1  -5  -9  155.16   11.59
  -1  -5 -10   13.81    4.07
   1   5  10   20.05    4.38
  -1  -5 -10   20.22    5.42
   1   5  10   24.23    6.14
   1   5  11  108.60   12.33
  -1  -5 -11  126.90   13.18
   1   5  11  116.31   10.68
  -1  -5 -11  122.47   11.43
  -1  -5 -11  118.08   13.40
   1   5  12    9.82    4.06
  -1  -5 -12   11.89    4.73
   1   5  12    6.11    3.35
  -1  -5 -12   14.68    5.83
  -1  -5 -12    5.24    3.22
  -1  -6   9    8.05    3.18
  -1  -6   8   53.48    8.07
   1   6  -8   48.14    8.30
   1   6  -8   53.33    8.99
  -1  -6   8   42.26    8.16
   1   6  -7   52.49    8.75
  -1  -6   7   52.36    7.53
  -1  -6   7   62.43    9.53
   1   6  -7   49.85    8.24
  -1  -6   6   76.03    9.77
  -1  -6   6   66.89    7.51
   1   6  -6   72.41    9.35
   1   6  -6   76.11    7.56
   1   6  -6   74.30    9.55
  -1  -6   6   73.56    8.54
  -1  -6   6   60.08    7.49
  -1  -6   5   64.21    7.75
  -1  -6   5   46.29    6.25
  -1  -6   5   62.89    9.06
   1   6  -5   64.75    8.40
  -1  -6   5   60.90    7.23
   1   6  -5   60.94    6.09
   1   6  -5   76.53    9.05
   1   6  -4  310.62   16.32
   1   6  -4  307.05   11.49
  -1  -6   4  301.88   14.66
  -1  -6   4  267.92   14.81
  -1  -6   4  297.72   17.94
   1   6  -4  293.16   15.76
  -1  -6   4  307.60   13.83
   1   6  -3  236.14   14.60
   1   6  -3  272.57   13.92
   1   6  -3  235.68   12.55
   1   6  -3  232.94    8.66
  -1  -6   3  232.46   14.01
  -1  -6   3  236.28    6.89
  -1  -6   3  243.13   12.52
  -1  -6   3  229.72   14.75
  -1  -6   3  245.41   10.71
  -1  -6   2  406.16   11.82
   1   6  -2  445.06   18.02
  -1  -6   2  428.03   18.20
   1   6  -2  427.71   18.52
  -1  -6   2  376.77   14.90
   1   6  -2  415.43    9.50
   1   6  -2  425.00   14.72
   1   6  -2  415.93   15.80
  -1  -6   2  414.84    9.73
  -1  -6   2  404.59   11.40
   1   6  -1  502.79   15.98
   1   6  -1  486.15   17.32
  -1  -6   1  498.94   16.43
  -1  -6   1  445.76    7.41
  -1  -6   1  502.20    9.78
  -1  -6   1  470.78   10.00
   1   6  -1  504.20   13.59
   1   6  -1  505.52   18.83
  -1  -6   1  488.76   11.22
  -1  -6   0  605.48   13.36
   1   6   0  644.88   21.12
   1   6   0  582.06   10.06
  -1  -6   0  569.64    8.49
   1   6   0  599.23   12.48
   1   6   0  610.71   16.55
  -1  -6   0  556.94   15.85
   1   6   0  594.15   17.69
   1   6   0  598.31   19.06
  -1  -6   0  532.33   13.24
  -1  -6   0  582.63   16.69
  -1  -6   0  539.59    6.70
   1   6   1  354.64    9.51
  -1  -6  -1  357.42   10.41
  -1  -6  -1  349.35    6.59
   1   6   1  378.59   14.27
  -1  -6  -1  347.55   13.21
   1   6   1  377.26   15.63
  -1  -6  -1  380.99   13.07
   1   6   1  370.42   13.10
  -1  -6  -1  365.87   11.23
   1   6   2  577.91   16.54
   1   6   2  618.20   16.14
   1   6   2  606.08   19.41
  -1  -6  -2  563.48    9.73
   1   6   2  570.98   13.98
  -1  -6  -2  597.35   15.45
  -1  -6  -2  625.02   16.58
  -1  -6  -2  583.13   19.64
  -1  -6  -2  562.88    9.46
  -1  -6  -3  525.93    6.63
   1   6   3  571.44   14.91
   1   6   3  584.50   18.80
  -1  -6  -3  583.89   13.41
   1   6   3  576.69   15.99
   1   6   3  604.46   16.32
  -1  -6  -3  584.60   16.05
   1   6   4  458.31   13.28
  -1  -6  -4  494.77   12.22
   1   6   4  479.99   14.33
   1   6   4  489.38   16.62
   1   6   4  470.44    8.91
  -1  -6  -4  471.99   10.17
   1   6   4  488.94   17.16
   1   6   5  317.17   11.29
   1   6   5  315.61   13.85
   1   6   5  315.35   11.60
  -1  -6  -5  336.06   16.13
   1   6   5  300.41    9.31
  -1  -6  -5  302.88   10.41
   1   6   5  322.87   15.20
   1   6   6   77.71    7.16
   1   6   6   83.43    6.18
   1   6   6   87.47    5.69
   1   6   6   89.21    6.37
  -1  -6  -6   73.53    8.55
   1   6   6   73.12    8.33
  -1  -6  -6   75.56    6.33
   1   6   7  192.69    9.71
   1   6   7  186.05    9.41
   1   6   7  171.11   13.78
   1   6   7  182.53    8.78
  -1  -6  -7  182.72   13.62
  -1  -6  -7  149.14    9.52
   1   6   7  187.64   10.91
   1   6   8   73.43    6.21
   1   6   8   64.59    5.95
   1   6   8   64.93    9.53
   1   6   8   50.14    5.55
  -1  -6  -8   57.21    6.63
  -1  -6  -8   67.00    8.97
   1   6   8   59.40    5.90
   1   6   9  140.46    9.37
   1   6   9  140.48   13.97
  -1  -6  -9  117.08   11.84
  -1  -6  -9  122.53   10.11
   1   6   9  147.41    9.81
   1   6   9  119.98    8.16
   1   6  10   42.37    5.86
  -1  -6 -10   40.70    6.53
  -1  -6 -10   42.94    8.02
   1   6  10   43.61    5.87
   1   6  10   28.86    6.72
  -1  -6 -11   30.32    6.95
  -1  -6 -11   32.55    6.13
   1   6  11   44.02    8.46
  -1  -6 -12   19.98    6.69
  -1  -6 -12    5.03    3.83
   1   6  12   18.25    6.04
   1   7  -8   34.15    7.43
   1   7  -7    9.53    4.76
   1   7  -7   15.54    5.00
  -1  -7   7    8.17    4.77
  -1  -7   6   91.78   10.09
   1   7  -6   83.04   10.32
   1   7  -6   98.54   11.84
  -1  -7   6   83.68   10.92
  -1  -7   6   74.10    8.31
  -1  -7   5   41.33    7.59
   1   7  -5   51.47    8.17
  -1  -7   5   43.02    6.87
  -1  -7   5   37.59    6.27
   1   7  -5   43.01    7.41
  -1  -7   5   34.99    5.59
   1   7  -4  198.18    9.33
   1   7  -4  204.54   14.22
  -1  -7   4  177.64   13.18
   1   7  -4  202.58   13.47
  -1  -7   4  179.70   14.68
  -1  -7   4  185.68   12.64
  -1  -7   4  184.07   10.72
  -1  -7   3   88.88    8.44
   1   7  -3   84.41    5.28
  -1  -7   3  100.10   10.94
  -1  -7   3   93.19    9.91
   1   7  -3   93.69    9.05
   1   7  -3   94.74    8.40
  -1  -7   3   82.46    6.19
   1   7  -2  213.13   13.78
  -1  -7   2  206.47    8.12
   1   7  -2  210.53   12.33
  -1  -7   2  213.60    7.28
   1   7  -2  210.24    7.00
  -1  -7   2  210.92   14.84
   1   7  -2  223.08   11.26
  -1  -7   2  193.93   13.52
   1   7  -2  214.46   14.48
  -1  -7   2  208.89   12.17
   1   7  -1  257.68   14.85
  -1  -7   1  229.59    7.41
  -1  -7   1  236.11    8.33
   1   7  -1  266.13   14.18
   1   7  -1  242.26   12.32
  -1  -7   1  244.09    6.89
   1   7  -1  241.80   10.12
  -1  -7   1  232.61   13.26
  -1  -7   1  247.09   12.78
   1   7   0  505.28   19.58
   1   7   0  491.93   17.85
  -1  -7   0  466.91    8.49
   1   7   0  512.96   20.48
  -1  -7   0  466.19   15.80
  -1  -7   0  442.05    5.54
  -1  -7   0  486.18   12.80
  -1  -7   0  505.77   17.03
  -1  -7   0  458.73   11.54
   1   7   0  480.57    9.22
  -1  -7  -1  315.17    6.78
   1   7   1  320.10   14.81
   1   7   1  329.07    9.47
   1   7   1  330.90   13.98
  -1  -7  -1  345.93   13.71
  -1  -7  -1  321.45   11.17
  -1  -7  -1  307.28   10.92
   1   7   1  336.94   16.22
  -1  -7  -1  328.42   13.25
  -1  -7  -2  428.17   14.91
   1   7   2  414.02   14.67
   1   7   2  395.54   12.08
  -1  -7  -2  390.82    9.70
  -1  -7  -2  372.83    8.37
   1   7   2  403.28   17.56
   1   7   2  416.31   15.92
  -1  -7  -2  410.98   13.59
  -1  -7  -3    3.88    0.82
   1   7   3    2.26    2.17
   1   7   3    0.69    3.04
   1   7   3    1.57    2.39
  -1  -7  -3    1.48    0.57
   1   7   3    0.83    1.89
  -1  -7  -3    0.40    2.51
   1   7   4   58.31    6.93
   1   7   4   60.13    5.55
  -1  -7  -4   45.83    1.92
   1   7   4   61.58    6.34
  -1  -7  -4   45.87    2.66
   1   7   4   51.58    2.50
   1   7   4   56.06    5.78
   1   7   5  193.78   10.00
   1   7   5  211.03    9.87
  -1  -7  -5  188.01   12.39
   1   7   5  202.49   12.30
  -1  -7  -5  188.74    7.27
   1   7   5  198.45    6.77
   1   7   5  214.03   12.68
   1   7   6   93.75    7.07
   1   7   6   81.78    6.45
   1   7   6   79.86    8.71
   1   7   6   77.54    7.84
  -1  -7  -6   82.83    5.99
  -1  -7  -6   83.10    9.23
   1   7   7  198.39   12.59
   1   7   7  214.53   10.64
  -1  -7  -7  204.02   10.52
  -1  -7  -7  229.11   15.62
   1   7   7  194.35   14.66
   1   7   7  230.23   10.87
   1   7   8   73.07    5.99
   1   7   8   73.23    6.56
  -1  -7  -8   52.64    8.28
   1   7   8   59.15    6.90
   1   7   8   82.75    6.85
  -1  -7  -8   62.81    6.58
   1   7   8   67.69    9.67
   1   7   9   99.35    7.95
  -1  -7  -9   92.12   11.13
   1   7   9   90.35   11.59
   1   7   9   93.21    7.30
   1   7  10   24.41    6.75
  -1  -7 -10   16.57    5.17
   1   7  10   14.83    3.61
   1   7  11   34.10    7.97
  -1  -7 -11   33.19    7.34
  -1  -7 -12   -0.52    2.36
   1   8  -7    1.18    2.61
   1   8  -6   36.31    7.83
   1   8  -6   44.55    7.43
  -1  -8   6   44.00    7.52
  -1  -8   6   33.18    7.63
   1   8  -5   47.67    8.01
  -1  -8   5   36.26    6.79
   1   8  -5   50.22    8.01
  -1  -8   5   34.48    6.99
  -1  -8   5   33.28    7.69
   1   8  -4   48.94    7.90
  -1  -8   4   53.42    7.71
   1   8  -4   51.63    7.28
  -1  -8   4   56.12    8.20
  -1  -8   4   61.04    9.31
   1   8  -3   63.99    7.92
   1   8  -3   48.75    6.31
  -1  -8   3   42.20    7.55
  -1  -8   3   59.48    7.66
  -1  -8   3   49.60    8.32
   1   8  -2  202.64   14.58
   1   8  -2  216.21   13.45
   1   8  -2  211.46   11.39
  -1  -8   2  184.91   14.71
  -1  -8   2  192.80   12.78
  -1  -8   2  165.13   13.36
  -1  -8   2  195.76   13.05
   1   8  -1   24.71    5.25
  -1  -8   1   21.82    5.04
   1   8  -1   20.56    4.32
   1   8  -1   23.41    5.55
  -1  -8   1   19.84    2.78
  -1  -8   1   20.08    5.81
   1   8  -1   24.17    3.60
  -1  -8   1   19.61    4.49
  -1  -8   1   28.54    5.22
  -1  -8   0   97.53    8.40
   1   8   0   96.43    3.96
   1   8   0  109.99   10.32
  -1  -8   0   93.15    6.06
  -1  -8   0  101.09    8.96
   1   8   0   96.36   10.05
   1   8   0   89.29    8.61
  -1  -8  -1   69.03    6.91
  -1  -8  -1   61.52    5.33
   1   8   1   65.38    8.25
   1   8   1   56.16    4.09
   1   8   1   67.43    7.15
   1   8   1   58.76    7.31
  -1  -8  -2  163.86   10.23
   1   8   2  156.23   12.08
   1   8   2  155.04    7.82
   1   8   2  169.18   10.50
   1   8   2  176.13   11.75
  -1  -8  -2  162.14    9.04
  -1  -8  -3  443.36   15.88
   1   8   3  434.64   17.43
  -1  -8  -3  390.28    6.42
   1   8   3  465.34   15.12
   1   8   3  440.80   19.66
  -1  -8  -3  465.51   16.69
   1   8   3  440.50   16.25
  -1  -8  -4  283.40   13.49
   1   8   4  272.02   12.23
   1   8   4  255.47   15.15
   1   8   4  266.11   12.71
   1   8   4  274.88   13.46
   1   8   5  103.73    7.69
   1   8   5   99.51    9.55
  -1  -8  -5  105.18    9.58
   1   8   5  109.38    9.24
   1   8   5  111.95    8.52
   1   8   6   78.70    8.71
   1   8   6   92.45    7.80
   1   8   6   91.01    9.51
  -1  -8  -6   94.11    9.93
   1   8   6   88.27    7.03
   1   8   7   94.21    7.45
  -1  -8  -7   75.21    9.39
   1   8   7   87.92    9.98
   1   8   7   70.08    8.35
   1   8   7   83.01    7.23
   1   8   8   44.81    6.86
   1   8   8   50.67    5.63
   1   8   8   58.80    6.20
  -1  -8  -8   50.44    8.57
   1   8   8   48.86    8.55
   1   8   9   59.63    6.35
  -1  -8  -9   56.54    7.82
  -1  -8  -9   48.61    8.68
   1   8   9   56.59    9.66
  -1  -8 -10   37.95    7.90
   1   8  10   37.75    8.25
   1   8  11   24.72    7.25
  -1  -8 -11   29.28    6.71
  -1  -8 -12   12.24    4.49
   1   9  -6   33.43    7.35
  -1  -9   5    8.92    4.77
   1   9  -5   11.40    4.10
  -1  -9   5    5.61    3.96
   1   9  -5   13.35    5.13
  -1  -9   5    6.92    4.87
  -1  -9   4  120.80   12.08
   1   9  -4  143.04   13.53
  -1  -9   4  105.38   11.86
   1   9  -4  121.93   11.33
  -1  -9   4  111.06   12.62
  -1  -9   4  117.47   12.50
  -1  -9   3   14.52    5.04
  -1  -9   3   23.42    6.15
   1   9  -3   19.93    4.47
   1   9  -3   19.17    5.21
  -1  -9   3   17.92    5.15
  -1  -9   3   14.70    4.89
  -1  -9   2  137.25   12.00
   1   9  -2  154.03   12.36
  -1  -9   2  141.82   13.82
  -1  -9   2  105.74   11.61
  -1  -9   2  159.82   12.63
   1   9  -1   21.97    6.11
  -1  -9   1   30.57    6.42
  -1  -9   1   24.45    6.61
   1   9  -1   35.71    6.91
  -1  -9   1   32.61    5.86
  -1  -9   1   28.63    5.70
  -1  -9   0  171.91   11.80
   1   9   0  187.72   14.54
  -1  -9   0  166.86   15.53
  -1  -9   0  165.14   12.41
  -1  -9   0  171.53    8.57
   1   9   0  180.74   13.17
   1   9   1   36.00    5.99
  -1  -9  -1   34.38    5.63
   1   9   1   37.88    6.84
   1   9   1   38.71    7.03
  -1  -9  -1   36.87    5.89
  -1  -9  -1   36.67    4.35
   1   9   2  101.73   10.64
   1   9   2  104.07    9.20
  -1  -9  -2  109.20    9.19
   1   9   2  101.76    6.42
   1   9   2  105.29   10.08
  -1  -9  -2   89.51    7.16
   1   9   3   50.27    7.77
   1   9   3   64.12    7.66
  -1  -9  -3   53.69    6.15
   1   9   3   58.23    5.58
   1   9   3   61.12    6.82
  -1  -9  -3   56.43    6.68
   1   9   4   72.15    9.02
  -1  -9  -4   79.80    7.98
   1   9   4   80.04    7.34
   1   9   4   91.37    8.99
  -1  -9  -4   66.20    7.08
   1   9   4   93.72    8.03
  -1  -9  -5   76.69    8.57
   1   9   5   79.67    8.04
   1   9   5   73.67    7.17
   1   9   5   70.80    8.89
   1   9   5   69.85    7.63
   1   9   6  115.44    8.65
   1   9   6  102.75   10.69
   1   9   6  104.34   10.07
  -1  -9  -6   90.73   10.14
   1   9   6  106.88    9.14
   1   9   7   54.80    8.21
   1   9   7   59.04    6.81
  -1  -9  -7   60.69    8.88
   1   9   7   45.66    7.74
   1   9   7   47.55    5.75
   1   9   8   31.28    4.95
  -1  -9  -8   34.53    6.90
   1   9   8   38.29    7.00
   1   9   8   35.93    7.61
   1   9   9   15.94    6.04
  -1  -9  -9   23.72    6.95
  -1  -9  -9   14.71    5.06
  -1  -9 -10   38.01    7.93
   1   9  10   48.54    9.67
  -1  -9 -11    3.49    4.73
  -1 -10   5    1.16    3.40
  -1 -10   4   21.81    6.74
  -1 -10   4   22.11    6.26
   1  10  -4   39.15    8.20
  -1 -10   4   30.58    6.87
  -1 -10   4   30.16    6.71
   1  10  -3    3.78    3.23
  -1 -10   3    1.72    2.24
  -1 -10   3    1.86    4.55
  -1 -10   3    0.36    3.92
  -1 -10   3    5.21    3.92
  -1 -10   2   53.97    8.46
  -1 -10   2   72.16    9.17
  -1 -10   2   58.09    9.90
  -1 -10   2   52.15    8.81
  -1 -10   1    6.43    3.66
  -1 -10   1   11.78    4.54
   1  10  -1   12.72    5.31
  -1 -10   1    5.77    4.64
  -1 -10   1    9.49    4.05
   1  10   0   77.06   10.58
   1  10   0   79.02    9.77
  -1 -10   0   72.85   11.20
  -1 -10   0   77.43    9.49
  -1 -10   0   82.08    8.96
  -1 -10   0   59.12    8.37
   1  10   1   15.36    4.88
   1  10   1   11.04    5.24
   1  10   1   10.32    4.60
  -1 -10  -1    4.50    4.67
  -1 -10  -1   11.21    3.91
  -1 -10  -1   10.62    4.02
  -1 -10  -2   46.33    6.72
   1  10   2   66.01    9.02
   1  10   2   56.56    8.80
  -1 -10  -2   53.97    6.96
  -1 -10  -2   61.45    6.35
   1  10   2   62.39    7.90
  -1 -10  -2   56.88   10.26
  -1 -10  -3    3.44    2.36
  -1 -10  -3   11.64    4.33
  -1 -10  -3    8.30    5.81
   1  10   3    4.19    1.89
   1  10   3    5.81    3.61
   1  10   3   10.16    4.31
   1  10   3    7.16    3.61
   1  10   4   50.26    8.07
   1  10   4   50.57    5.94
   1  10   4   53.03    7.75
  -1 -10  -4   59.52    7.00
  -1 -10  -4   56.08    7.19
   1  10   4   56.82    6.97
   1  10   5   43.42    7.88
   1  10   5   41.16    5.76
  -1 -10  -5   28.96    5.38
   1  10   5   49.57    7.34
   1  10   5   34.00    5.51
   1  10   6   70.88   10.08
   1  10   6   87.96    9.08
   1  10   6   77.34    8.89
   1  10   6   83.57    8.05
   1  10   7   15.76    5.53
   1  10   7   15.50    3.72
  -1 -10  -7    9.69    5.53
   1  10   7   18.56    4.97
   1  10   8   42.51    7.96
  -1 -10  -8   49.18    8.19
  -1 -10  -8   32.67    7.25
   1  10   8   49.82    8.44
  -1 -10  -9   12.44    5.11
  -1 -10  -9    2.05    3.42
   1  10   9    7.13    4.29
  -1 -10 -10    3.05    3.14
   1  10  10    7.54    4.64
  -1 -10 -11   -0.52    1.66
  -1 -11   3    1.68    4.47
  -1 -11   3   -2.81    2.33
  -1 -11   3    1.22    4.54
  -1 -11   2   11.87    5.35
  -1 -11   2   18.58    5.56
  -1 -11   2   25.26    6.49
  -1 -11   2   17.92    5.18
  -1 -11   1   -5.21    3.84
  -1 -11   1   11.14    4.04
  -1 -11   1    5.93    4.10
  -1 -11   1    4.00    3.94
   1  11   0   25.63    6.76
  -1 -11   0   32.47    6.44
  -1 -11   0   32.83    6.94
  -1 -11   0   28.83    8.52
  -1 -11   0   34.38    7.33
  -1 -11  -1   10.04    4.51
   1  11   1   -2.55    3.62
   1  11   1    2.90    3.39
  -1 -11  -1    6.46    5.52
  -1 -11  -1   -0.48    3.17
   1  11   2   30.86    7.51
  -1 -11  -2   40.42    9.48
  -1 -11  -2   36.70    6.35
   1  11   2   41.60    7.33
   1  11   2   30.38    6.66
  -1 -11  -3   22.18    7.25
   1  11   3   26.06    6.04
   1  11   3   26.99    6.00
  -1 -11  -3   24.12    5.27
   1  11   3   26.49    7.28
  -1 -11  -3   16.93    4.03
  -1 -11  -4   39.89    5.95
   1  11   4   28.34    6.94
  -1 -11  -4   33.63    8.86
   1  11   4   36.99    6.52
  -1 -11  -4   35.21    6.41
   1  11   4   37.00    7.26
   1  11   5    1.52    3.05
   1  11   5    1.03    2.91
  -1 -11  -5    6.92    5.56
   1  11   5   15.16    4.10
  -1 -11  -5   12.32    3.96
   1  11   5    9.67    4.66
   1  11   6   11.74    4.48
  -1 -11  -6    7.17    3.61
   1  11   6    9.24    4.86
  -1 -11  -6    6.45    5.69
   1  11   6   14.94    3.96
   1  11   7   15.56    5.18
   1  11   7    6.92    4.36
  -1 -11  -7    9.88    6.30
  -1 -11  -7   16.67    5.26
  -1 -11  -8   17.76    5.47
   1  11   8   12.78    5.66
  -1 -11  -8    6.05    5.06
   1  11   8   19.78    5.71
  -1 -11  -9    8.85    4.20
   1  11   9    6.85    4.31
  -1 -12   0   20.11    5.45
  -1 -12  -1   16.08    5.10
   1  12   1   21.22    6.10
  -1 -12  -1   22.48    7.67
  -1 -12  -1   17.84    6.12
  -1 -12  -2   39.44    7.10
   1  12   2   26.40    6.49
  -1 -12  -2   48.02   10.98
  -1 -12  -2   35.20    7.26
  -1 -12  -3    4.73    3.02
   1  12   3    4.32    3.39
   1  12   3    2.34    3.66
  -1 -12  -3    7.67    5.44
  -1 -12  -4   40.45    7.03
   1  12   4   45.74    7.88
   1  12   4   51.01    9.27
  -1 -12  -4   31.56    8.92
   1  12   4   24.79    7.02
  -1 -12  -5    0.93    2.28
   1  12   5    5.30    4.68
  -1 -12  -5    1.04    5.35
  -1 -12  -6   20.69    7.65
   1  12   6   25.74    7.07
  -1 -12  -6   20.38    5.14
   1  12   7    4.95    4.26
  -1 -12  -7    3.25    5.37
   1  12   7   -6.51    3.16
  -1 -12  -7    4.74    3.29
  -1 -12  -8    6.44    4.60
   1  12   8    4.78    4.80
   1  12   8   11.58    3.85
  -1 -12  -9   -5.42    3.63
  -2  11   9   -8.04    4.95
  -2  11   8    4.38    3.68
   2 -11  -8    7.38    5.07
   2 -11  -8   12.32    6.01
  -2  11   8    8.30    3.94
   2 -11  -7   14.94    6.08
  -2  11   7    1.90    3.73
   2 -11  -7    9.83    5.79
  -2  11   7    4.86    4.71
  -2  11   6    9.16    4.77
   2 -11  -6   16.20    5.65
   2 -11  -6    2.30    4.81
   2 -11  -5    1.12    5.09
   2 -11  -5    7.15    4.61
  -2  11   5   -0.20    3.01
  -2  11   4    4.16    3.82
   2 -11  -4    6.90    6.58
   2 -11  -4   17.94    6.32
   2 -11  -3    9.80    4.62
  -2  11   3   12.74    5.11
   2 -11  -3   12.95    6.70
  -2  11   2    0.32    4.36
   2 -11  -2    6.00    7.25
   2 -11  -2    9.75    5.40
  -2  11   1   13.12    4.75
   2 -11  -1   17.17    6.20
   2 -11  -1    7.65    5.66
   2 -11   0   45.20    9.13
  -2  11   0   44.16    8.48
   2 -11   0   35.69    9.88
  -2  10   9    4.50    3.62
  -2  10   9   -1.76    3.67
  -2  10   8   22.12    6.08
  -2  10   8   25.85    7.35
   2 -10  -8   24.49    6.85
  -2  10   7   -1.11    3.13
  -2  10   7    6.72    4.52
   2 -10  -7   -4.49    4.49
   2 -10  -7   11.97    5.65
  -2  10   6   17.66    5.52
  -2  10   6   26.55    6.30
   2 -10  -6   15.51    5.50
   2 -10  -6   17.70    6.51
  -2  10   5   13.92    4.78
   2 -10  -5    9.07    4.51
  -2  10   5    4.56    3.35
   2 -10  -5    4.78    5.47
   2 -10  -4   62.50    9.58
  -2  10   4   48.61    6.94
  -2  10   4   58.68    8.87
   2 -10  -4   56.53   11.20
   2 -10  -3    5.87    4.09
   2 -10  -3    0.50    5.00
  -2  10   3    5.73    3.27
  -2  10   2   55.08    8.74
   2 -10  -2   61.95    9.62
   2 -10  -2   61.25   11.96
   2 -10  -2   59.30    6.48
   2 -10  -1   12.69    6.91
   2 -10  -1   11.87    3.74
  -2  10   1   19.83    5.62
   2 -10  -1   14.18    5.61
   2 -10   0   27.46    7.06
  -2  10   0   23.28    6.14
   2 -10   0   20.57    7.68
   2 -10   0   20.52    4.60
  -2  10  -1   15.99    5.30
   2 -10   1   21.06    6.52
   2 -10   1   16.57    7.07
   2 -10   1   15.38    4.07
   2 -10   2   28.09    7.50
   2 -10   2   22.48    7.73
  -2  10  -2   25.01    5.88
   2 -10   2   23.34    4.84
  -2  10  -3   13.93    5.33
   2 -10   3   11.47    6.13
   2 -10   3   16.76    4.85
   2 -10   3    6.97    5.61
   2 -10   4   28.62    6.28
   2  -9 -10   22.85    6.76
  -2   9   9    1.28    4.22
  -2   9   9   -5.48    4.09
  -2   9   8   35.10    7.04
   2  -9  -8   24.16    6.07
  -2   9   8   30.49    7.89
  -2   9   7    5.29    4.66
  -2   9   7    2.24    3.22
   2  -9  -7    5.26    3.86
   2  -9  -6   49.51    5.87
  -2   9   6   46.96    7.66
  -2   9   6   36.49    7.91
   2  -9  -6   51.92    9.09
  -2   9   5    1.87    3.32
  -2   9   5   -0.02    2.66
   2  -9  -5   -2.44    4.68
   2  -9  -5    2.58    3.31
   2  -9  -4   46.95    7.64
  -2   9   4   59.15    7.94
   2  -9  -4   47.84    9.85
  -2   9   4   63.43    8.66
  -2   9   3   25.52    4.99
   2  -9  -3   22.40    5.69
   2  -9  -3   27.47    4.30
   2  -9  -3   23.32    7.74
  -2   9   3   22.53    5.99
  -2   9   2  107.96   10.83
   2  -9  -2  105.96   11.30
   2  -9  -2  119.18    8.31
  -2   9   2  122.19    9.00
   2  -9  -2  100.06   14.72
   2  -9  -1    8.33    5.33
  -2   9   1    7.97    4.48
   2  -9  -1    6.36    2.70
   2  -9  -1   16.87    5.40
   2  -9   0   63.81    6.63
  -2   9   0   77.66    9.39
   2  -9   0   72.84    9.70
   2  -9   0   66.99   11.21
   2  -9   1    1.07    2.45
   2  -9   1    3.25    4.18
   2  -9   1    6.78    3.28
  -2   9  -1   -1.45    3.45
   2  -9   1    1.09    5.30
  -2   9  -2   46.65    7.61
   2  -9   2   34.23    8.03
   2  -9   2   51.45    8.12
   2  -9   2   37.95    8.04
   2  -9   2   52.89    6.89
   2  -9   3    7.82    5.38
   2  -9   3    0.50    4.42
  -2   9  -3    8.64    3.98
   2  -9   3    0.92    2.79
   2  -9   3    1.89    2.95
  -2   9  -4   17.75    5.64
   2  -9   4   32.54    8.35
   2  -9   4   20.70    5.69
   2  -9   4   15.86    6.11
  -2   9  -4   16.67    5.37
   2  -9   4   11.94    5.23
   2  -9   5    1.13    4.88
   2  -9   5   14.41    6.04
   2  -9   5   11.41    4.84
  -2   8  10   20.98    7.16
   2  -8 -10   18.18    5.74
  -2   8   9    0.38    3.00
   2  -8  -9    2.34    2.91
  -2   8   9   -0.44    3.80
   2  -8  -8   55.14    7.17
  -2   8   8   52.30    7.85
   2  -8  -8   50.33    7.10
  -2   8   7   -0.04    3.01
  -2   8   7    3.74    4.12
   2  -8  -7    1.87    3.20
   2  -8  -7   -1.73    2.20
   2  -8  -6   82.38    7.35
   2  -8  -6   82.33    9.88
  -2   8   6   72.26    8.74
  -2   8   6   91.25   11.89
  -2   8   5    1.89    3.74
   2  -8  -5   -0.94    3.94
  -2   8   5    3.41    3.35
   2  -8  -4   46.94    7.31
   2  -8  -4   41.04    8.63
  -2   8   4   65.88    8.73
  -2   8   4   56.23    7.38
   2  -8  -3   14.14    4.49
  -2   8   3   16.62    4.72
   2  -8  -3   16.34    6.31
  -2   8   3   10.39    4.43
   2  -8  -3   12.41    2.89
  -2   8   2  114.37    9.28
   2  -8  -2  115.35   10.86
  -2   8   2  128.54   10.79
   2  -8  -2  105.70   14.26
   2  -8  -2  118.26    7.34
   2  -8  -2  119.06    7.57
   2  -8  -1   31.54    6.30
  -2   8   1   32.30    5.92
   2  -8  -1   38.98    4.75
   2  -8  -1   34.53    4.06
  -2   8   1   38.29    4.82
   2  -8  -1   34.52    4.25
   2  -8  -1   30.08    8.68
  -2   8   0  275.44   15.76
   2  -8   0  270.25   16.93
   2  -8   0  286.18   13.38
   2  -8   0  275.89   20.76
   2  -8   0  282.51   12.47
   2  -8   0  290.15   11.69
  -2   8  -1   15.49    4.70
   2  -8   1   26.71    6.35
   2  -8   1   24.26    3.82
   2  -8   1   20.42    6.84
   2  -8   1   27.52    5.26
   2  -8   1   22.97    4.16
   2  -8   2   96.85   10.34
   2  -8   2  104.14   11.62
   2  -8   2  107.99   12.83
   2  -8   2   96.12    7.54
   2  -8   2  110.98    9.09
  -2   8  -2   98.97    9.87
  -2   8  -3   28.81    4.92
  -2   8  -3   19.82    5.14
   2  -8   3   18.44    6.13
  -2   8  -3   24.16    5.91
   2  -8   3   19.53    3.88
   2  -8   3   26.40    6.38
   2  -8   3   18.95    6.14
  -2   8  -4   39.23    5.99
   2  -8   4   53.61    6.80
  -2   8  -4   50.85    8.14
   2  -8   4   40.27    7.90
  -2   8  -4   50.47    7.88
   2  -8   4   39.48    7.62
   2  -8   4   43.54    8.40
  -2   8  -5   29.79    5.81
  -2   8  -5   32.56    7.16
   2  -8   5   24.67    6.73
   2  -8   5   41.70    8.58
   2  -8   5   35.01    7.62
   2  -8   5   24.32    5.07
   2  -8   6   24.37    6.28
   2  -8   6   30.44    7.20
  -2   8  -6   33.34    7.55
   2  -8   6   27.71    7.34
  -2   7  11    5.49    3.42
   2  -7 -11    2.97    3.80
   2  -7 -11   -7.01    4.24
   2  -7 -10   38.52    8.27
  -2   7  10   40.25    8.26
   2  -7 -10   29.85    6.59
  -2   7   9    2.35    2.96
  -2   7   9    0.39    3.20
   2  -7  -9    2.27    2.61
  -2   7   8   49.49    7.47
   2  -7  -8   41.74    5.86
   2  -7  -8   56.61    7.19
  -2   7   7   11.92    4.29
   2  -7  -7    3.51    3.09
   2  -7  -7    5.65    3.12
  -2   7   7   12.20    5.83
  -2   7   6  138.08   11.00
   2  -7  -6  130.90   10.99
   2  -7  -6  133.40    9.15
  -2   7   6  123.31   13.29
  -2   7   5   17.21    5.62
   2  -7  -5    2.33    3.43
   2  -7  -5   12.52    3.07
  -2   7   5   13.52    3.90
  -2   7   4  626.77   22.11
   2  -7  -4  616.28   25.92
  -2   7   4  630.58   26.92
   2  -7  -3   10.15    3.94
   2  -7  -3    8.77    5.16
  -2   7   3   14.02    4.50
   2  -7  -3   10.59    2.80
  -2   7   3   13.36    3.87
   2  -7  -2  393.96   18.06
   2  -7  -2  342.28   21.80
   2  -7  -2  377.40   12.13
   2  -7  -2  357.20   12.15
  -2   7   2  337.79   16.26
  -2   7   2  375.08   16.87
   2  -7  -2  360.42    7.49
   2  -7  -1    1.41    1.59
  -2   7   1    4.14    2.25
  -2   7   1    3.05    2.68
   2  -7  -1    3.12    3.46
   2  -7  -1   -3.04    4.69
   2  -7  -1    1.95    1.77
   2  -7  -1    3.04    1.59
   2  -7   0  255.20   15.27
   2  -7   0  237.71   11.23
   2  -7   0  199.10   16.74
  -2   7   0  229.84   10.06
   2  -7   0  237.82   10.18
   2  -7   0  247.90   10.70
  -2   7   0  240.77   13.51
   2  -7   1   13.59    2.98
  -2   7  -1   16.22    4.38
   2  -7   1   21.96    5.57
   2  -7   1   17.45    5.88
  -2   7  -1   10.87    1.76
   2  -7   1   14.55    3.42
   2  -7   1   12.14    3.57
  -2   7  -2  239.39   13.98
  -2   7  -2  232.75   13.82
  -2   7  -2  245.47   12.17
   2  -7   2  244.47   17.72
   2  -7   2  232.01   14.95
   2  -7   2  233.24   15.86
   2  -7   2  225.99   10.98
  -2   7  -3    4.35    2.53
   2  -7   3    2.88    3.49
  -2   7  -3    4.00    2.72
  -2   7  -3    0.33    1.83
   2  -7   3    6.05    2.83
   2  -7   3    2.90    4.11
   2  -7   3    3.52    3.71
  -2   7  -4  120.54   11.59
   2  -7   4   95.78   11.53
   2  -7   4   82.94   10.25
   2  -7   4  109.21   11.82
  -2   7  -4   97.39    9.67
  -2   7  -4   99.32    8.86
   2  -7   4  101.25    8.94
   2  -7   5   15.02    5.49
  -2   7  -5   17.58    4.86
   2  -7   5    9.73    5.31
  -2   7  -5   12.56    4.18
   2  -7   5    7.54    3.54
  -2   7  -5   22.94    5.82
   2  -7   5   10.04    4.37
   2  -7   6   64.37    9.18
  -2   7  -6   60.84    9.49
   2  -7   6   78.17   11.03
  -2   7  -6   72.31   10.17
  -2   7  -6   74.45    8.85
   2  -7   6   70.21    8.83
   2  -7   6   78.75   10.70
  -2   7  -7   10.72    4.68
  -2   7  -7   10.39    3.99
  -2   7  -7    7.08    5.09
   2  -7   7    4.10    3.84
   2  -7   7    2.36    3.39
   2  -7   8   28.61    6.89
   2  -6 -12   24.26    5.89
   2  -6 -11   10.73    5.91
   2  -6 -11    5.26    3.96
  -2   6  11    3.10    3.39
  -2   6  10   51.57    9.22
   2  -6 -10   61.02   10.04
   2  -6 -10   59.25    8.76
  -2   6   9    1.90    3.19
  -2   6   9    5.24    4.16
   2  -6  -9    4.83    3.54
  -2   6   8  166.46   15.30
  -2   6   8  138.01   11.03
   2  -6  -8  143.24    8.90
   2  -6  -8  128.82   10.79
  -2   6   7    2.77    2.98
  -2   6   7    0.02    3.27
   2  -6  -7    1.75    2.11
   2  -6  -7    0.43    2.41
  -2   6   6  335.91   16.08
   2  -6  -6  322.68   13.84
   2  -6  -6  324.25   15.16
  -2   6   6  349.49   20.93
   2  -6  -5   -0.66    2.70
  -2   6   5    0.50    2.37
   2  -6  -5    2.42    2.02
  -2   6   5    1.16    3.65
  -2   6   4  279.85   17.72
  -2   6   4  278.61   13.78
   2  -6  -4  262.15   15.39
   2  -6  -4  270.88    7.72
  -2   6   3    5.26    3.11
   2  -6  -3    7.45    1.70
   2  -6  -3    6.13    1.37
   2  -6  -3    6.20    4.16
   2  -6  -3    7.93    3.38
  -2   6   3    9.95    4.09
   2  -6  -3    4.02    2.21
  -2   6   2  730.78   24.98
   2  -6  -2  718.74   14.08
   2  -6  -2  686.54    8.09
   2  -6  -2  768.20   15.52
   2  -6  -2  737.31   22.64
   2  -6  -2  677.43   27.17
   2  -6  -2  755.56   16.86
  -2   6   2  732.53   21.45
  -2   6   1    7.29    3.48
   2  -6  -1    4.08    4.49
  -2   6   1    1.86    2.53
   2  -6  -1    5.62    1.97
   2  -6  -1    9.86    2.01
   2  -6  -1    4.92    2.18
   2  -6  -1    4.22    3.46
   2  -6   0  350.78   11.64
  -2   6   0  347.27   14.88
   2  -6   0  350.01   16.72
   2  -6   0  344.81   12.18
   2  -6   0  340.24   20.44
   2  -6   0  346.99   11.23
  -2   6   0  338.89   13.29
   2  -6   0  359.27   11.52
   2  -6   1    7.02    2.24
  -2   6  -1    8.24    3.33
   2  -6   1    6.77    2.86
  -2   6  -1    9.05    2.63
   2  -6   1    6.67    5.05
  -2   6  -1    6.01    1.27
   2  -6   1    7.85    3.65
   2  -6   1    7.34    1.57
  -2   6  -1    6.14    2.02
  -2   6  -1    9.51    3.31
   2  -6   2  280.25   14.99
   2  -6   2  303.11   16.90
  -2   6  -2  296.33   12.67
   2  -6   2  307.79   18.53
  -2   6  -2  304.18   14.39
  -2   6  -2  290.33    6.67
  -2   6  -2  308.17   14.65
   2  -6   2  286.93   11.84
  -2   6  -3   10.32    2.96
  -2   6  -3    8.36    3.32
  -2   6  -3    6.34    3.43
   2  -6   3   10.11    4.60
   2  -6   3    6.10    2.52
   2  -6   3    6.34    3.92
   2  -6   3    7.52    3.98
  -2   6  -4  312.05   14.74
  -2   6  -4  322.62   15.72
   2  -6   4  336.25   19.42
  -2   6  -4  334.90   16.83
   2  -6   4  296.56   17.66
  -2   6  -4  312.67   17.06
   2  -6   4  322.15   19.01
   2  -6   4  308.78   14.53
  -2   6  -5    1.39    2.77
   2  -6   5    4.11    3.07
   2  -6   5    1.90    3.63
  -2   6  -5    8.49    3.58
  -2   6  -5    4.96    2.59
  -2   6  -5    6.08    3.54
   2  -6   5    4.04    4.58
   2  -6   5    6.23    4.25
  -2   6  -6   95.82   10.86
   2  -6   6   83.76   10.50
   2  -6   6   87.95    9.67
  -2   6  -6   99.08    9.90
   2  -6   6  104.35   11.94
  -2   6  -6   98.30   11.19
   2  -6   6   87.81    9.57
  -2   6  -7   19.65    5.80
   2  -6   7   23.44    6.20
  -2   6  -7   16.73    5.09
   2  -6   7   18.76    5.99
  -2   6  -7   12.49    5.16
   2  -6   8   30.18    7.32
  -2   6  -8   23.37    6.82
  -2   6  -8   29.61    7.17
  -2   6  -8   32.01    6.73
   2  -6   8   45.93    9.03
  -2   6  -9   -2.99    3.36
   2  -5 -12    7.92    3.87
  -2   5  11    3.62    3.50
   2  -5 -11    2.15    3.21
   2  -5 -11    4.75    3.40
   2  -5 -10   68.90   10.25
  -2   5  10   72.20   10.34
   2  -5 -10   39.49    7.58
  -2   5   9    3.38    2.58
  -2   5   9    9.35    4.58
   2  -5  -9    5.18    2.37
   2  -5  -8  113.96   10.28
  -2   5   8  151.28   14.14
  -2   5   8  141.52   10.63
  -2   5   7    3.18    2.66
   2  -5  -7    3.30    2.01
  -2   5   7    5.29    4.01
   2  -5  -7    6.35    3.10
  -2   5   7    5.85    1.18
  -2   5   6  348.19   15.18
   2  -5  -6  365.84   14.07
   2  -5  -6  368.57   14.77
  -2   5   6  387.81   21.10
  -2   5   5    3.49    2.51
   2  -5  -5    4.64    2.47
   2  -5  -5    3.01    2.70
  -2   5   5    4.16    3.95
  -2   5   4  767.15   21.24
  -2   5   4  757.94   14.73
   2  -5  -4  767.96    9.99
   2  -5  -4  770.51   22.94
  -2   5   4  803.50   28.62
   2  -5  -3   31.86    2.03
  -2   5   3   27.63    4.64
   2  -5  -3   31.29    2.74
  -2   5   3   36.03    6.52
   2  -5  -3   28.24    5.61
   2  -5  -3   29.64    3.72
  -2   5   3   33.63    3.05
   2  -5  -2  663.90   11.50
   2  -5  -2  683.82   24.12
   2  -5  -2  724.12   20.58
  -2   5   2  706.96   23.58
   2  -5  -2  696.01   14.91
   2  -5  -2  721.34   15.84
  -2   5   2  708.74   19.41
   2  -5  -2  718.65   13.10
   2  -5  -1    6.85    2.03
   2  -5  -1    8.70    1.92
  -2   5   1   12.20    3.27
   2  -5  -1    8.67    3.38
  -2   5   1    5.61    2.82
   2  -5  -1    6.66    4.07
   2  -5  -1   12.11    1.78
   2  -5  -1    8.15    1.90
   2  -5  -1    8.78    2.63
   2  -5   0  770.57   22.54
   2  -5   0  774.53   15.96
   2  -5   0  803.85   16.17
   2  -5   0  804.65   15.25
  -2   5   0  772.36   20.19
   2  -5   0  815.99   16.80
   2  -5   0  786.04   28.31
  -2   5   0  734.38   18.93
  -2   5  -1   15.21    3.52
   2  -5   1   16.58    3.01
  -2   5  -1   14.94    3.33
  -2   5  -1   12.08    2.89
   2  -5   1   16.58    4.22
  -2   5  -1   11.13    2.41
   2  -5   1   12.94    3.16
   2  -5   1   13.35    1.85
   2  -5   1    9.79    5.26
  -2   5  -2  440.07   15.56
   2  -5   2  457.47   19.29
  -2   5  -2  430.25    8.22
  -2   5  -2  478.58   15.00
   2  -5   2  431.27   16.92
   2  -5   2  474.93   21.40
  -2   5  -2  457.96   16.57
   2  -5   2  454.66   14.10
  -2   5  -2  420.04   10.13
  -2   5  -3  106.97    8.06
  -2   5  -3  103.36    8.50
   2  -5   3  111.15   10.55
  -2   5  -3  103.01    7.71
   2  -5   3  110.28   10.40
   2  -5   3   95.67    9.36
  -2   5  -3   95.40    3.65
   2  -5   3  106.56    7.60
   2  -5   4  127.67   11.47
   2  -5   4  128.91   11.82
  -2   5  -4  141.10    9.55
  -2   5  -4  135.40   10.55
  -2   5  -4  139.63   10.39
   2  -5   4  131.89   11.20
  -2   5  -4  139.24    9.63
   2  -5   4  152.11    9.93
   2  -5   5   42.39    7.55
  -2   5  -5   44.08    6.31
   2  -5   5   41.20    6.58
  -2   5  -5   40.59    6.59
  -2   5  -5   36.80    5.39
  -2   5  -5   38.38    6.70
   2  -5   5   40.27    5.99
   2  -5   5   34.17    7.00
  -2   5  -6  262.01   15.38
  -2   5  -6  249.65   16.56
  -2   5  -6  284.42   17.74
   2  -5   6  245.70   15.22
   2  -5   6  256.21   17.87
  -2   5  -7    6.72    3.97
  -2   5  -7   -0.45    3.45
   2  -5   7   -2.14    2.83
   2  -5   7   -6.86    4.45
  -2   5  -7    2.16    3.24
  -2   5  -8  106.97   12.57
   2  -5   8  122.86   13.46
  -2   5  -8  112.69   12.02
  -2   5  -8  129.09   14.37
   2  -5   8  108.90   12.23
   2  -5   9    3.92    4.18
  -2   5  -9    6.03    4.79
  -2   5  -9   -2.49    3.76
   2  -5   9    4.97    3.81
  -2   5  -9    4.98    3.68
   2  -4 -12   29.96    6.60
  -2   4  12   29.64    6.70
  -2   4  11    6.86    4.43
   2  -4 -11    3.37    4.83
   2  -4 -11    0.79    2.90
   2  -4 -11    4.69    3.73
   2  -4 -10   64.25   10.23
   2  -4 -10   81.70   10.71
  -2   4  10   71.52    9.95
  -2   4   9    3.51    2.54
  -2   4   9    9.70    3.95
   2  -4  -9   10.89    4.71
   2  -4  -9   -1.42    3.06
  -2   4   9    7.34    2.56
  -2   4   8  246.28   10.43
   2  -4  -8  205.13   13.89
  -2   4   8  247.24   17.19
  -2   4   8  224.92   12.66
  -2   4   7   19.69    1.78
  -2   4   7   25.43    6.27
   2  -4  -7   17.04    4.13
  -2   4   7   16.52    2.54
  -2   4   7   16.95    3.89
   2  -4  -6  432.78   16.21
  -2   4   6  449.19   16.35
  -2   4   6  438.05    9.38
   2  -4  -6  455.38   13.34
  -2   4   6  417.58   20.92
   2  -4  -5   36.86    4.80
   2  -4  -5   40.99    4.58
  -2   4   5   38.29    1.85
  -2   4   5   42.72    7.03
  -2   4   5   34.73    4.77
  -2   4   4  826.68   14.53
   2  -4  -4  866.42   21.10
  -2   4   4  828.10   20.36
  -2   4   3   27.62    2.46
   2  -4  -3   26.39    2.03
   2  -4  -3   25.28    4.71
   2  -4  -3   24.90    3.42
  -2   4   3   24.48    3.95
  -2   4   2 1150.05   22.76
   2  -4  -2 1099.94   11.74
   2  -4  -2 1091.06   26.99
   2  -4  -2 1132.12   16.73
   2  -4  -2 1152.16   19.41
   2  -4  -2 1135.41   23.38
  -2   4   2 1152.57   26.52
   2  -4  -1   -0.04    1.51
  -2   4   1   -0.21    1.95
   2  -4  -1    0.55    0.96
   2  -4  -1    1.59    2.38
   2  -4  -1    3.06    1.50
  -2   4   1    0.24    1.18
   2  -4  -1    1.09    2.78
  -2   4   1    1.69    2.15
   2  -4  -1    0.62    0.98
   2  -4  -1    1.39    0.75
   2  -4  -1    0.82    1.47
   2  -4   0  981.47   28.30
   2  -4   0 1020.19   23.85
   2  -4   0  962.74   15.25
  -2   4   0  967.87   19.17
  -2   4   0  973.33   20.41
  -2   4   0  950.43   19.16
   2  -4   0  955.43   17.11
  -2   4   0  984.75   18.59
   2  -4   0  959.97   14.32
   2  -4   0  931.46   16.63
   2  -4   0  963.29   19.07
  -2   4  -1   39.07    3.67
  -2   4  -1   46.05    4.65
  -2   4  -1   46.42    4.40
   2  -4   1   45.11    4.35
   2  -4   1   46.22    6.88
   2  -4   1   45.28    2.95
   2  -4   1   43.67    4.04
  -2   4  -1   45.44    5.01
  -2   4  -1   43.91    4.78
   2  -4   1   41.11    5.70
  -2   4  -2  918.19   21.01
  -2   4  -2  901.84   19.32
  -2   4  -2  900.99   14.80
   2  -4   2  881.57   21.60
   2  -4   2  917.12   27.41
  -2   4  -2  891.68   12.45
  -2   4  -2  912.66   20.02
   2  -4   2  848.44    8.53
   2  -4   2  908.25   18.84
   2  -4   2  907.52   25.55
  -2   4  -3    9.22    3.12
   2  -4   3   11.81    2.98
  -2   4  -3   10.07    2.62
   2  -4   3   11.16    4.60
  -2   4  -3   15.78    3.39
   2  -4   3   12.65    4.47
  -2   4  -3   11.88    3.30
  -2   4  -3   10.68    1.46
   2  -4   3   10.41    3.48
   2  -4   4 1176.06   31.94
  -2   4  -4 1125.07   23.53
   2  -4   4 1143.55   31.90
  -2   4  -4 1201.05   28.44
   2  -4   4 1119.93   29.68
  -2   4  -4 1139.66   27.58
  -2   4  -4 1078.71   14.43
  -2   4  -4 1153.42   25.96
   2  -4   4 1139.59   25.48
  -2   4  -5    6.59    3.46
   2  -4   5    1.13    2.31
  -2   4  -5    2.38    2.57
  -2   4  -5    3.77    2.64
   2  -4   5    9.41    4.67
   2  -4   5    5.63    3.13
   2  -4   5    1.21    3.67
  -2   4  -5    3.88    2.32
  -2   4  -6  346.89   18.34
   2  -4   6  344.94   19.87
  -2   4  -6  367.57   19.14
  -2   4  -6  352.08   17.40
   2  -4   7    3.10    3.37
  -2   4  -7    5.50    3.26
  -2   4  -7    5.67    3.98
  -2   4  -7    2.74    3.35
   2  -4   7    1.11    3.18
   2  -4   8  125.07   13.05
  -2   4  -8  117.77   13.08
   2  -4   8   97.32   11.17
  -2   4  -8  123.05   12.24
  -2   4  -8  114.70   12.35
   2  -4   9    2.77    4.06
  -2   4  -9   -1.06    3.23
   2  -4   9    6.18    4.08
  -2   4  -9   -0.16    2.86
  -2   4  -9   -0.42    3.56
   2  -4  10   51.57    8.76
  -2   4 -10   42.45    7.96
  -2   3  12   22.37    5.32
   2  -3 -12   18.02    6.01
   2  -3 -11    7.21    5.03
  -2   3  11    5.87    4.01
   2  -3 -11   10.60    4.77
   2  -3 -11   16.21    4.97
  -2   3  10  100.44    9.33
   2  -3 -10  104.11   12.54
   2  -3 -10   91.79   11.79
   2  -3 -10   95.21   11.47
  -2   3  10   91.89   10.78
  -2   3   9   13.84    3.46
   2  -3  -9   24.36    6.15
  -2   3   9   16.35    5.43
   2  -3  -9   20.56    5.58
  -2   3   9   18.97    4.03
   2  -3  -8  359.11   18.84
  -2   3   8  378.74   20.48
  -2   3   8  390.63   15.56
  -2   3   8  373.32   15.84
  -2   3   7    8.91    3.91
   2  -3  -7   10.46    3.60
  -2   3   7    8.34    2.72
  -2   3   7    7.17    1.99
  -2   3   7    7.25    2.85
  -2   3   6  733.70   13.19
  -2   3   6  710.04   19.67
  -2   3   6  737.72   16.60
   2  -3  -6  773.09   21.88
  -2   3   6  783.06   27.40
  -2   3   5  157.86    9.04
  -2   3   5  141.06    3.05
  -2   3   5  161.63    6.47
   2  -3  -5  170.70    9.50
  -2   3   5  173.68   12.99
  -2   3   4 1068.89   21.92
   2  -3  -4 1082.03   21.01
  -2   3   4 1039.43   11.95
   2  -3  -4 1114.57   20.30
  -2   3   3  508.36   14.56
  -2   3   3  508.35    9.32
  -2   3   3  514.43   16.51
   2  -3  -3  535.58   15.07
  -2   3   3  554.04   18.21
   2  -3  -3  488.77   12.95
  -2   3   2  969.38   21.42
   2  -3  -2  913.92   12.72
   2  -3  -2  934.29   18.62
   2  -3  -2  976.17   21.61
  -2   3   2  948.28   16.44
  -2   3   2  953.88   23.59
   2  -3  -2  930.43   16.52
   2  -3  -2  952.85   22.71
  -2   3   2  906.59   10.34
  -2   3   2  940.01   18.83
   2  -3  -1   38.22    4.28
   2  -3  -1   32.01    3.38
   2  -3  -1   32.11    3.30
   2  -3  -1   34.66    1.88
  -2   3   1   30.83    3.68
   2  -3  -1   34.93    3.56
  -2   3   1   26.56    2.22
   2  -3  -1   32.10    4.59
   2  -3  -1   34.78    3.32
   2  -3  -1   36.26    3.98
  -2   3   1   35.07    3.26
   2  -3  -1   33.28    1.98
  -2   3   1   36.65    3.84
   2  -3  -1   35.33    2.68
   2  -3   0 2124.36   31.58
   2  -3   0 2195.48   26.07
   2  -3   0 2033.36   26.77
  -2   3   0 2140.94   25.21
   2  -3   0 1971.01   34.94
  -2   3   0 2019.61   24.16
   2  -3   0 2049.73   19.15
  -2   3   0 2111.89   25.24
  -2   3   0 2209.28   24.75
   2  -3   0 2115.78   23.37
   2  -3   0 2204.78   24.49
   2  -3   0 2221.14   26.03
  -2   3   0 2139.22   27.26
  -2   3  -1    7.03    2.05
  -2   3  -1    5.26    1.76
   2  -3   1    5.27    3.22
  -2   3  -1    5.73    2.03
  -2   3  -1    5.47    2.03
   2  -3   1    7.92    3.63
   2  -3   1    7.06    2.01
   2  -3   1    6.00    1.81
   2  -3   1    6.42    1.26
  -2   3  -1    8.10    2.39
  -2   3  -2 1936.90   27.09
  -2   3  -2 1875.20   25.42
  -2   3  -2 1891.51   19.09
   2  -3   2 1948.16   36.56
  -2   3  -2 1959.78   27.60
   2  -3   2 1913.55   28.46
   2  -3   2 1855.44   14.04
   2  -3   2 1925.82   26.08
  -2   3  -3   19.89    3.12
   2  -3   3   14.92    3.04
   2  -3   3   19.65    4.99
  -2   3  -3   18.17    3.57
  -2   3  -3   17.44    1.97
  -2   3  -3   18.69    3.32
   2  -3   3   22.29    4.80
  -2   3  -3   23.28    3.79
   2  -3   3   17.13    3.81
  -2   3  -4  794.61   21.65
  -2   3  -4  794.40   17.45
   2  -3   4  800.13   24.89
  -2   3  -4  823.11   21.00
   2  -3   4  760.57   23.68
  -2   3  -4  758.66   13.37
   2  -3   4  772.60   22.74
  -2   3  -4  768.77   21.35
   2  -3   4  784.26   20.34
   2  -3   5   17.32    4.33
  -2   3  -5   16.77    3.39
  -2   3  -5   16.90    2.66
  -2   3  -5   22.28    4.69
   2  -3   5   10.27    4.67
  -2   3  -5   23.56    4.66
  -2   3  -5   16.24    4.24
   2  -3   6  390.01   11.78
  -2   3  -6  408.00   19.00
  -2   3  -6  399.19   17.89
   2  -3   6  445.08   21.81
  -2   3  -6  406.69   19.32
   2  -3   6  398.24   18.16
  -2   3  -7   -1.00    3.30
   2  -3   7    0.08    2.60
   2  -3   7   -0.25    1.41
  -2   3  -7    1.38    2.81
  -2   3  -7   -0.50    2.97
   2  -3   7    0.14    3.66
  -2   3  -8  214.71   15.83
  -2   3  -8  227.37   16.02
   2  -3   8  233.69   17.29
  -2   3  -8  233.74   17.80
   2  -3   8  193.97   15.46
   2  -3   9   -4.83    4.45
  -2   3  -9    6.72    4.31
  -2   3  -9   -0.95    3.08
  -2   3  -9   -4.25    4.22
   2  -3   9    3.66    3.94
   2  -3  10   31.39    7.02
  -2   3 -10   34.20    7.48
  -2   3 -10   38.05    7.54
  -2   3 -10   42.85    8.40
   2  -3  10   47.32    8.65
  -2   2  12   30.30    6.87
   2  -2 -11   20.93    6.34
  -2   2  11   24.18    5.78
   2  -2 -11   11.30    4.90
   2  -2 -11   13.79    5.17
  -2   2  11   20.28    5.62
   2  -2 -10  138.24   13.73
   2  -2 -10  146.45   14.32
  -2   2  10  145.43   11.70
   2  -2 -10  144.68   14.03
  -2   2  10  110.00   11.43
   2  -2  -9   42.68    8.13
  -2   2   9   30.04    5.87
   2  -2  -9   46.94    8.08
  -2   2   9   38.67    5.96
   2  -2  -9   46.10    8.04
   2  -2  -8  193.38   14.54
  -2   2   8  200.21   11.99
   2  -2  -8  193.96   14.44
  -2   2   8  197.52   14.40
  -2   2   7  255.19   10.76
   2  -2  -7  257.96    7.15
   2  -2  -7  284.43   15.67
  -2   2   7  274.07   16.45
  -2   2   7  257.32    6.89
  -2   2   6  646.20   15.56
  -2   2   6  679.35   18.60
   2  -2  -6  684.22   21.34
  -2   2   6  693.29   24.85
  -2   2   5  138.09    5.67
  -2   2   5  145.51   10.92
  -2   2   5  148.96    7.95
   2  -2  -5  131.98    8.53
  -2   2   4  919.84   17.37
  -2   2   4  950.18   17.26
   2  -2  -4  974.64   19.91
  -2   2   4  967.25   24.81
   2  -2  -3  172.29    7.72
   2  -2  -3  178.33    6.48
  -2   2   3  164.03    9.12
  -2   2   3  169.57    8.16
  -2   2   3  173.69    5.89
   2  -2  -2 1617.73   21.06
  -2   2   2 1582.72   24.80
  -2   2   2 1552.38   26.29
   2  -2  -2 1531.06   22.96
  -2   2   2 1558.78   11.86
   2  -2  -2 1537.11   20.49
  -2   2   2 1581.04   11.12
  -2   2   2 1560.01   20.79
   2  -2  -2 1593.52   27.12
  -2   2   1   37.29    3.58
  -2   2   1   34.70    3.53
  -2   2   1   36.44    3.09
   2  -2  -1   33.54    4.01
   2  -2  -1   36.82    1.92
   2  -2  -1   33.11    3.09
  -2   2   1   36.69    4.38
   2  -2  -1   32.43    3.64
   2  -2  -1   40.97    3.41
  -2   2   1   32.51    4.11
   2  -2  -1   41.21    3.87
  -2   2   1   35.60    1.91
   2  -2   0 2092.12   21.94
   2  -2   0 1892.68   28.94
  -2   2   0 2007.52   22.79
   2  -2   0 2116.55   23.27
  -2   2   0 2058.79   26.34
  -2   2   0 2012.82   18.54
   2  -2   0 2011.24   29.03
  -2   2   0 1920.82   29.78
   2  -2   0 1983.42   21.33
  -2   2   0 2055.50   25.38
   2  -2   0 2040.20   22.34
   2  -2   0 1980.00   16.83
  -2   2   0 2106.95   22.67
  -2   2   0 2020.36   23.54
  -2   2  -1   85.48    4.84
   2  -2   1   88.94    7.02
  -2   2  -1   79.35    4.09
   2  -2   1   93.19    5.08
   2  -2   1   80.11    4.65
   2  -2   1   91.09    4.62
  -2   2  -1   82.93    4.73
   2  -2   1   93.46    7.05
   2  -2   1   90.05    5.07
  -2   2  -1   88.54    5.00
  -2   2  -1   90.24    6.69
   2  -2   1   84.35    5.06
  -2   2  -1   83.44    6.22
  -2   2  -1   86.77    4.56
   2  -2   1   88.72    3.87
  -2   2  -1   86.93    5.09
  -2   2  -1   87.99    4.94
   2  -2   2 1866.06   24.31
   2  -2   2 1803.41   23.04
  -2   2  -2 1852.01   26.50
   2  -2   2 1862.74   33.11
  -2   2  -2 1841.12   19.09
  -2   2  -2 1833.67   24.39
  -2   2  -2 1758.44   17.43
  -2   2  -2 1775.84   21.45
  -2   2  -2 1813.53   29.83
   2  -2   2 1831.16   32.05
  -2   2  -2 1841.45   23.83
  -2   2  -2 1842.17   25.00
   2  -2   2 1773.16   14.90
   2  -2   2 1842.86   23.96
   2  -2   2 1774.76   24.12
  -2   2  -2 1785.98   23.63
  -2   2  -3   42.89    4.64
   2  -2   3   41.48    4.75
   2  -2   3   35.69    3.49
  -2   2  -3   45.31    4.48
  -2   2  -3   40.53    4.55
  -2   2  -3   38.27    3.64
   2  -2   3   53.26    6.64
  -2   2  -3   53.59    2.83
  -2   2  -3   31.58    2.75
   2  -2   3   28.07    3.95
   2  -2   4  976.51   18.04
   2  -2   4  972.62   16.62
  -2   2  -4  962.35   16.02
  -2   2  -4  972.66   22.51
  -2   2  -4  957.56   16.45
   2  -2   4  936.10   23.80
  -2   2  -4  931.96   11.51
  -2   2  -4  989.84   22.00
   2  -2   4  967.18   21.85
  -2   2  -4  999.19   22.68
  -2   2  -5   63.65    6.72
  -2   2  -5   58.48    4.42
   2  -2   5   61.75    4.80
  -2   2  -5   56.93    6.54
   2  -2   5   54.44    6.93
  -2   2  -5   58.37    6.69
  -2   2  -5   56.46    4.59
   2  -2   5   55.96    4.66
  -2   2  -5   59.53    3.19
   2  -2   5   60.94    6.52
   2  -2   6  570.30   23.37
   2  -2   6  553.82   14.56
  -2   2  -6  591.28   21.91
   2  -2   6  586.47   15.86
  -2   2  -6  593.94   21.35
  -2   2  -6  609.55   22.48
  -2   2  -6  600.50   11.12
   2  -2   6  607.25   21.84
  -2   2  -7   23.42    5.56
   2  -2   7   14.03    4.37
   2  -2   7   22.98    3.77
  -2   2  -7   19.24    5.11
  -2   2  -7   18.88    2.37
   2  -2   7   24.47    6.00
  -2   2  -7   23.06    5.48
   2  -2   8  141.95   13.26
  -2   2  -8  138.37   12.31
   2  -2   8  125.45    8.55
  -2   2  -8  125.36   11.85
  -2   2  -8  132.33   12.84
   2  -2   8  129.36   12.46
  -2   2  -9   -5.12    4.00
   2  -2   9    3.72    3.53
  -2   2  -9    1.19    3.46
  -2   2  -9    2.05    2.90
   2  -2   9    8.62    4.81
  -2   2 -10   99.75   11.36
  -2   2 -10  100.77   12.08
   2  -2  10   98.53   12.24
   2  -2  10   92.25   11.67
  -2   2 -10   99.54   11.71
  -2   2 -11   14.91    4.85
  -2   2 -11   22.02    5.87
  -2   1  12   42.28    7.09
  -2   1  12   26.39    6.19
  -2   1  11   30.10    6.54
  -2   1  11   21.08    5.22
   2  -1 -11   31.79    7.18
   2  -1 -11   36.94    7.57
   2  -1 -11   32.96    7.23
   2  -1 -10   85.10   10.55
  -2   1  10   98.20   10.10
   2  -1 -10   99.34   11.85
   2  -1 -10   84.94   10.53
  -2   1  10   67.36    8.56
   2  -1  -9   83.73   10.45
  -2   1   9   55.45    7.74
   2  -1  -9   85.25   10.23
  -2   1   9   73.45    8.37
   2  -1  -9   69.02    9.49
   2  -1  -8  304.84   18.09
  -2   1   8  283.82   15.04
   2  -1  -8  297.08   18.38
  -2   1   8  262.53   15.91
   2  -1  -8  335.53   18.93
   2  -1  -7   84.78    2.82
  -2   1   7   86.74    5.80
  -2   1   7  121.74    9.47
   2  -1  -7   95.67    9.78
  -2   1   7   99.24    9.95
   2  -1  -7  117.64   10.78
   2  -1  -7  104.34    9.86
  -2   1   6  360.31   13.04
  -2   1   6  375.25   15.09
   2  -1  -6  385.07   16.94
  -2   1   6  399.22   18.18
  -2   1   6  343.46    9.88
  -2   1   5  165.26    7.72
  -2   1   5  157.45    4.83
  -2   1   5  156.52    5.35
  -2   1   5  156.45    9.08
   2  -1  -5  179.24   10.27
  -2   1   5  163.66   10.88
  -2   1   4 1323.48   16.87
   2  -1  -4 1275.88   23.68
  -2   1   4 1269.82   17.12
  -2   1   4 1333.39   23.19
  -2   1   4 1282.93   26.56
   2  -1  -3  208.01    4.34
  -2   1   3  203.99   10.50
  -2   1   3  207.47    9.48
  -2   1   3  201.45    7.73
   2  -1  -3  203.80    8.39
   2  -1  -3  212.10   10.61
  -2   1   3  198.79    4.77
   2  -1  -2 2342.41   20.28
   2  -1  -2 2332.94   13.28
  -2   1   2 2455.73   28.29
   2  -1  -2 2462.48   31.05
  -2   1   2 2542.87   31.95
   2  -1  -2 2364.79   25.06
  -2   1   2 2451.29   25.32
  -2   1   2 2336.34   13.10
  -2   1   2 2380.51   28.05
   2  -1  -2 2360.45   13.42
  -2   1   1  404.55    7.03
   2  -1  -1  404.24    5.81
   2  -1  -1  403.50    9.47
  -2   1   1  425.20   11.63
   2  -1  -1  389.19   10.22
   2  -1  -1  399.62    9.52
  -2   1   1  408.36    9.56
   2  -1  -1  422.91   11.10
  -2   1   1  405.58    8.77
  -2   1   1  413.19   11.77
   2  -1   0  417.49    8.07
  -2   1   0  420.43   11.26
   2  -1   0  431.96    7.85
  -2   1   0  410.57    7.58
  -2   1   0  407.11    9.39
   2  -1   0  402.34    9.34
  -2   1   0  416.27   12.12
   2  -1   0  426.44   12.63
   2  -1   0  426.42    9.53
  -2   1   0  417.67   10.11
   2  -1   0  421.61    9.56
  -2   1   0  435.61    9.64
  -2   1  -1   99.33    4.53
  -2   1  -1   98.77    4.47
   2  -1   1   90.12    4.08
   2  -1   1   94.36    4.36
  -2   1  -1   99.14    4.97
   2  -1   1   96.41    4.85
   2  -1   1   96.82    4.92
  -2   1  -1   92.83    4.76
  -2   1  -1  108.06    7.08
  -2   1  -1  113.60    4.83
  -2   1  -1  110.67    4.82
   2  -1   1   93.76    4.78
   2  -1   1  100.38    4.18
  -2   1  -1   96.18    6.03
  -2   1  -1  100.62    4.87
   2  -1   1   92.79    6.72
  -2   1  -2 2866.72   37.26
   2  -1   2 2843.92   27.83
  -2   1  -2 2923.33   24.89
  -2   1  -2 2942.57   33.54
  -2   1  -2 2869.67   28.35
   2  -1   2 2860.54   27.95
  -2   1  -2 2874.29   23.25
  -2   1  -2 2919.53   29.05
  -2   1  -2 2870.35   28.29
   2  -1   2 2907.47   28.62
   2  -1   2 2849.75   28.22
   2  -1   2 3016.49   25.68
  -2   1  -2 2886.18   22.54
   2  -1   2 2858.08   20.89
  -2   1  -2 2887.37   28.24
   2  -1   2 2985.54   27.51
  -2   1  -2 2898.71   25.82
  -2   1  -3   92.60    4.17
  -2   1  -3  108.08    6.12
  -2   1  -3   96.91    6.37
  -2   1  -3   99.02    6.07
  -2   1  -3   98.70    4.92
   2  -1   3  101.64    6.32
   2  -1   3  101.23    5.25
  -2   1  -3  100.73    6.09
  -2   1  -3  100.87    4.33
   2  -1   3  104.57    6.42
   2  -1   3  104.13    6.16
  -2   1  -4 2229.41   32.18
  -2   1  -4 2115.98   19.96
   2  -1   4 2178.65   32.85
  -2   1  -4 2289.33   31.28
  -2   1  -4 2184.01   31.80
   2  -1   4 2072.56   25.66
  -2   1  -4 2123.59   21.15
  -2   1  -4 2148.05   25.16
  -2   1  -4 2241.70   32.19
   2  -1   4 2190.00   31.24
  -2   1  -5   95.79    4.55
  -2   1  -5   99.48    8.12
  -2   1  -5  100.82    7.97
   2  -1   5   89.34    7.90
   2  -1   5  102.11    6.48
  -2   1  -5  102.73    6.30
  -2   1  -5   96.99    7.99
  -2   1  -5   98.11    5.14
   2  -1   5   97.10    7.80
  -2   1  -6  587.10   21.00
   2  -1   6  574.86   16.85
   2  -1   6  581.42   21.51
  -2   1  -6  608.18   21.75
  -2   1  -6  615.71   21.65
  -2   1  -6  601.58   13.93
   2  -1   6  607.86   21.25
   2  -1   7    5.46    3.88
  -2   1  -7    2.00    2.85
  -2   1  -7    3.79    3.14
   2  -1   7    3.91    2.67
  -2   1  -7    1.33    2.74
   2  -1   7    4.63    3.61
  -2   1  -7    0.48    1.43
  -2   1  -8  299.62   17.25
   2  -1   8  280.71   13.76
   2  -1   8  311.39   19.06
  -2   1  -8  295.76   18.78
  -2   1  -8  296.44   17.58
  -2   1  -8  254.35   10.59
   2  -1   8  291.86   18.23
   2  -1   9   -0.06    1.60
  -2   1  -9   -4.49    3.29
  -2   1  -9    3.23    3.42
  -2   1  -9    4.05    3.19
   2  -1   9   -0.78    3.59
   2  -1   9   -6.05    4.06
  -2   1 -10  114.37   11.91
   2  -1  10  143.52   14.11
  -2   1 -10  111.24   12.57
   2  -1  10  130.92   13.33
  -2   1 -10  139.07   13.09
   2  -1  11    9.43    4.60
  -2   1 -11    3.71    3.63
  -2   1 -11    6.89    3.76
  -2   1 -11    0.99    3.18
   2  -1  11   -0.93    2.95
  -2   0  12   30.28    6.53
   2   0 -11   22.38    5.97
   2   0 -11   34.24    7.51
   2   0 -11   26.67    6.43
  -2   0  11   30.85    5.85
  -2   0  11   22.46    5.67
  -2   0  10   52.18    7.39
   2   0 -10   70.07   10.04
  -2   0  10   62.71    8.62
   2   0 -10   61.60    8.93
   2   0 -10   61.97    9.43
  -2   0   9   73.67    8.47
   2   0  -9   76.33    9.90
   2   0  -9   84.65    9.94
   2   0  -9   82.62   10.49
  -2   0   9   83.59    9.31
   2   0  -8  227.53   15.59
   2   0  -8  209.49   14.69
  -2   0   8  209.56   13.65
   2   0  -8  214.68   15.62
  -2   0   8  203.08   13.48
   2   0  -7  110.99   10.48
  -2   0   7  116.87    9.71
   2   0  -7  102.33   10.63
  -2   0   7  103.49    9.44
   2   0  -7  116.08   10.66
  -2   0   6  520.73   15.59
   2   0  -6  576.78   21.62
   2   0  -6  548.53   20.27
  -2   0   6  529.93   20.06
  -2   0   6  519.71   19.01
   2   0  -6  541.33   21.25
  -2   0   5  315.02   10.34
   2   0  -5  340.79   15.10
  -2   0   5  296.09    5.63
  -2   0   5  325.60   14.20
   2   0  -5  318.04   14.42
  -2   0   5  325.79   14.52
  -2   0   5  309.45   12.07
  -2   0   4  717.11   15.41
  -2   0   4  725.75   18.11
   2   0  -4  681.77   18.35
  -2   0   4  674.41   12.65
  -2   0   4  742.47   19.18
  -2   0   3   88.67    5.88
   2   0  -3   95.39    4.23
  -2   0   3   96.50    4.09
   2   0  -3   95.44    6.15
   2   0  -3   96.24    4.85
  -2   0   3   91.72    6.49
   2   0  -3   92.90    6.55
  -2   0   3   95.14    4.55
  -2   0   2 1836.95   16.22
  -2   0   2 1820.48   15.83
   2   0  -2 1865.37   21.83
   2   0  -2 1851.12   22.43
   2   0  -2 1819.01   15.30
  -2   0   2 1919.29   22.28
   2   0  -2 1865.87   16.83
  -2   0   2 1935.73   25.32
   2   0  -2 1942.60   25.82
  -2   0   2 1898.15   23.22
  -2   0   1  413.50    7.18
  -2   0   1  449.26    8.81
   2   0  -1  416.18    7.35
   2   0  -1  395.00    9.09
  -2   0   1  414.42    9.23
  -2   0   1  431.79   10.86
   2   0  -1  402.27    7.01
   2   0  -1  411.45   10.49
  -2   0   0 9805.34   41.66
   2   0   0 9999.00   41.78
   2   0   0 9719.86   42.29
   2   0   0 9728.93   25.34
  -2   0   0 9678.88   42.73
   2   0   0 9970.65   45.86
  -2   0   0 9875.48   46.61
  -2   0  -1 1391.74   17.00
  -2   0  -1 1393.80   16.69
   2   0   1 1408.30   16.11
   2   0   1 1374.55   16.10
  -2   0  -1 1340.78   15.82
  -2   0  -1 1382.48   16.44
   2   0   1 1396.50   16.59
   2   0   1 1380.67   12.19
  -2   0  -1 1409.10   16.60
   2   0   1 1418.35   16.71
  -2   0  -1 1407.57   11.72
   2   0   2 1371.02   17.48
   2   0   2 1339.27   18.26
  -2   0  -2 1273.79   17.62
   2   0   2 1299.49   17.36
  -2   0  -2 1332.80   15.34
  -2   0  -2 1318.70   17.18
   2   0   2 1367.90   17.95
  -2   0  -2 1298.39   17.59
   2   0   2 1342.00   17.37
  -2   0  -2 1359.75   16.29
   2   0   2 1311.83   15.46
   2   0   2 1245.20   17.20
  -2   0  -2 1335.84   17.78
  -2   0  -3  779.26   13.04
  -2   0  -3  773.18   15.05
  -2   0  -3  785.65   16.02
   2   0   3  774.29   15.63
  -2   0  -3  797.48   14.45
  -2   0  -3  759.57   16.02
  -2   0  -3  735.25   14.92
   2   0   3  790.52   15.38
   2   0   3  815.87   17.81
   2   0   3  781.66   14.71
  -2   0  -3  745.90   18.81
   2   0   3  799.13   16.29
   2   0   3  784.54   15.55
  -2   0  -3  774.47    9.52
  -2   0  -4  838.60    9.18
   2   0   4  880.19   17.58
   2   0   4  879.55   19.04
  -2   0  -4  906.98   20.03
  -2   0  -4  907.47   20.28
  -2   0  -4  847.86   16.59
  -2   0  -4  907.59   18.94
  -2   0  -4  892.40   18.01
  -2   0  -4  886.94   15.34
   2   0   4  865.65   21.29
   2   0   4  902.43   19.28
  -2   0  -5   93.69    7.92
   2   0   5   97.57    7.45
  -2   0  -5   95.45    7.74
  -2   0  -5   91.35    6.02
  -2   0  -5   97.57    7.33
   2   0   5   83.42    6.24
  -2   0  -5   96.33    5.82
   2   0   5   97.57    7.62
   2   0   6  781.49   23.11
  -2   0  -6  834.62   24.14
   2   0   6  777.87   20.71
  -2   0  -6  793.63   24.52
  -2   0  -6  796.89   17.87
  -2   0  -6  788.18   23.24
  -2   0  -6  788.81   18.20
   2   0   6  794.80   23.73
   2   0   7   83.79    8.96
   2   0   7   92.12    8.02
  -2   0  -7   89.93    9.61
  -2   0  -7   91.11    8.99
  -2   0  -7   94.10    6.38
  -2   0  -7  107.38    9.99
  -2   0  -7  102.82    7.45
   2   0   7  101.65    9.84
  -2   0  -8  342.08   17.77
   2   0   8  322.64   15.61
   2   0   8  301.18   17.74
  -2   0  -8  339.57   18.62
  -2   0  -8  329.75   18.90
  -2   0  -8  343.61   14.23
   2   0   8  333.94   19.13
   2   0   9    6.11    3.10
   2   0   9   10.01    4.47
  -2   0  -9   11.19    4.77
  -2   0  -9   13.26    4.00
  -2   0  -9   10.18    4.36
   2   0   9   15.22    5.69
  -2   0  -9   10.06    2.98
  -2   0 -10  117.26   11.98
   2   0  10  121.13   13.03
  -2   0 -10  138.64   13.11
   2   0  10  102.34    9.55
  -2   0 -10  130.70   13.21
   2   0  10  124.48   12.76
  -2   0 -11    7.80    4.20
  -2   0 -11    5.91    3.66
  -2   0 -11    9.12    4.37
   2   0  11   10.88    4.55
   2   0  11    7.01    4.49
   2   1 -11   33.20    7.12
   2   1 -11   30.34    6.60
   2   1 -11   23.84    6.45
  -2  -1  11   37.48    6.82
   2   1 -10   74.29    9.48
  -2  -1  10   54.15    7.11
   2   1 -10   80.47   10.62
   2   1 -10   71.86    9.76
  -2  -1  10   53.75    8.29
   2   1  -9  116.27   11.67
   2   1  -9  103.30   10.71
  -2  -1   9   86.61   10.10
   2   1  -9  106.86   11.58
  -2  -1   9   91.84    8.92
   2   1  -8  160.45   12.48
  -2  -1   8  152.01   11.10
   2   1  -8  172.07   13.35
  -2  -1   8  167.90   12.96
   2   1  -8  182.48   14.53
   2   1  -7  292.87   15.86
  -2  -1   7  276.33   15.84
   2   1  -7  268.46   16.72
   2   1  -7  288.11   16.30
  -2  -1   7  268.74   14.23
  -2  -1   6  367.28   17.32
   2   1  -6  418.29   19.81
   2   1  -6  398.09   17.44
  -2  -1   6  381.34   16.21
   2   1  -6  400.76   17.86
   2   1  -5  338.93   15.29
   2   1  -5  360.29   15.17
  -2  -1   5  350.99   15.69
   2   1  -5  347.33   16.46
  -2  -1   5  338.93   14.20
   2   1  -4 1467.66   25.03
   2   1  -4 1494.14   29.08
   2   1  -4 1461.25   23.04
  -2  -1   4 1503.35   23.58
   2   1  -4 1455.63   29.25
  -2  -1   4 1495.17   27.91
  -2  -1   4 1442.91   26.12
  -2  -1   4 1516.26   25.62
  -2  -1   4 1478.10   25.68
   2   1  -3  669.37   17.45
   2   1  -3  700.82   14.71
   2   1  -3  714.87   13.95
   2   1  -3  701.16   17.44
  -2  -1   3  707.35   16.34
   2   1  -3  691.96   16.65
  -2  -1   3  732.38   14.20
  -2  -1   3  702.18   15.28
  -2  -1   3  714.26   15.05
   2   1  -2 2487.42   22.47
  -2  -1   2 2435.23   22.94
   2   1  -2 2524.25   28.50
   2   1  -2 2392.97   28.34
   2   1  -2 2368.00   26.90
  -2  -1   2 2547.57   24.09
  -2  -1   2 2549.68   26.08
   2   1  -2 2497.48   23.68
  -2  -1   2 2607.80   27.60
   2   1  -1  894.74   13.23
   2   1  -1  925.37   12.81
   2   1  -1  889.55   13.65
  -2  -1   1  907.28   12.96
   2   1  -1  917.43   12.77
   2   1  -1  901.28   13.81
  -2  -1   1  917.71   13.41
  -2  -1   1  940.34   15.13
   2   1  -1  927.53   15.58
  -2  -1   1  917.84   13.13
   2   1   0  463.56    8.93
  -2  -1   0  481.34   10.02
   2   1   0  478.97    9.37
  -2  -1   0  481.63    8.02
   2   1   0  475.89    8.07
   2   1   0  474.52    8.82
  -2  -1   0  502.75    9.69
  -2  -1   0  491.69    8.88
  -2  -1   0  472.88   10.18
   2   1   0  462.84   10.15
  -2  -1   0  487.90    9.26
  -2  -1   0  487.24    7.89
   2   1   1 1260.70   16.38
  -2  -1  -1 1316.58   16.78
   2   1   1 1246.41   15.74
  -2  -1  -1 1303.98   16.32
  -2  -1  -1 1266.66   14.06
   2   1   1 1231.41   14.00
   2   1   1 1256.50   13.24
   2   1   1 1270.80   14.44
  -2  -1  -1 1284.19   16.49
   2   1   1 1290.25   16.50
  -2  -1  -1 1308.78   14.73
  -2  -1  -2 2488.21   20.19
   2   1   2 2488.21   24.80
   2   1   2 2591.47   24.58
  -2  -1  -2 2551.83   24.75
  -2  -1  -2 2596.44   24.24
  -2  -1  -2 2478.67   22.81
   2   1   2 2523.89   23.80
   2   1   2 2464.09   20.87
  -2  -1  -2 2516.91   23.79
   2   1   2 2504.66   22.32
   2   1   2 2493.79   23.56
  -2  -1  -2 2439.65   22.37
   2   1   3  881.19   16.84
   2   1   3  885.06   15.94
  -2  -1  -3  860.18   16.88
   2   1   3  848.92   16.16
  -2  -1  -3  887.26   15.92
  -2  -1  -3  888.61   16.46
  -2  -1  -3  871.15   14.28
   2   1   3  898.02   14.85
  -2  -1  -3  856.41   15.12
   2   1   3  876.08   15.42
  -2  -1  -3  886.65   16.12
   2   1   4 1148.20   20.40
  -2  -1  -4 1153.41   20.34
  -2  -1  -4 1172.92   19.76
   2   1   4 1179.60   20.47
  -2  -1  -4 1149.94   22.43
  -2  -1  -4 1155.67   19.29
   2   1   4 1166.04   20.84
  -2  -1  -4 1114.51   22.46
   2   1   4 1161.62   21.14
  -2  -1  -5  258.20   10.22
  -2  -1  -5  253.36   12.11
   2   1   5  258.73   11.12
   2   1   5  255.68   11.22
  -2  -1  -5  249.76   12.18
  -2  -1  -5  253.59   10.86
   2   1   5  258.29   11.58
  -2  -1  -6  513.39   13.53
  -2  -1  -6  534.15   20.07
  -2  -1  -6  550.95   18.60
  -2  -1  -6  543.60   16.49
   2   1   6  549.94   17.91
   2   1   6  543.95   18.22
  -2  -1  -6  567.84   19.59
   2   1   7   90.67    8.49
  -2  -1  -7  106.91    9.68
   2   1   7   97.66    8.79
  -2  -1  -7  104.96   10.01
  -2  -1  -7   98.61    9.18
  -2  -1  -7  103.61    6.28
  -2  -1  -7  104.43    8.17
  -2  -1  -8  387.40   19.57
  -2  -1  -8  419.14   20.67
   2   1   8  373.58   18.36
   2   1   8  350.16   17.16
  -2  -1  -8  423.58   19.45
  -2  -1  -8  407.65   17.06
  -2  -1  -9   26.00    5.80
  -2  -1  -9   22.14    5.40
  -2  -1  -9   17.87    5.42
   2   1   9   20.00    5.05
   2   1   9   21.94    5.66
  -2  -1  -9   21.14    4.60
  -2  -1 -10  156.02   13.43
   2   1  10  149.16   14.15
  -2  -1 -10  151.93   13.64
  -2  -1 -10  136.77   12.98
   2   1  10  134.96   11.33
  -2  -1 -10  144.27   10.64
   2   1  10  140.20   13.50
   2   1  11    4.14    3.04
   2   1  11    2.97    3.51
  -2  -1 -11    7.29    4.59
  -2  -1 -11    0.92    4.25
  -2  -1 -11    1.22    3.07
   2   1  11    6.31    4.27
  -2  -1 -12   64.10    9.58
  -2  -1 -12   42.54    8.16
  -2  -1 -12   44.69    8.36
   2   1  12   37.79    7.79
   2   1  12   48.37    8.72
   2   2 -11   79.00    9.94
  -2  -2  11   68.27   10.20
   2   2 -10   38.55    7.00
   2   2 -10   38.85    6.72
   2   2 -10   36.41    7.32
  -2  -2  10   40.60    7.47
   2   2  -9   74.00    8.89
  -2  -2   9   78.16    9.85
   2   2  -9   92.71   10.90
   2   2  -9   76.31    9.85
   2   2  -8   51.72    7.62
   2   2  -8   54.73    7.38
   2   2  -8   59.71    8.59
  -2  -2   8   49.94    6.09
  -2  -2   8   57.31    8.22
   2   2  -7  121.19   10.75
  -2  -2   7  124.41   11.30
   2   2  -7  121.40   11.40
  -2  -2   7  121.52    9.18
   2   2  -7  134.95   10.54
  -2  -2   6  340.46   14.50
  -2  -2   6  344.67    8.66
   2   2  -6  388.72   17.76
   2   2  -6  371.10   16.25
  -2  -2   6  357.09   18.04
   2   2  -6  381.19   18.84
   2   2  -5  305.33   14.63
   2   2  -5  322.44   14.17
  -2  -2   5  307.40   15.60
   2   2  -5  308.75   16.19
  -2  -2   5  290.08   12.61
   2   2  -4  609.22   16.90
   2   2  -4  600.02   17.75
  -2  -2   4  625.86   11.78
   2   2  -4  606.65   19.03
   2   2  -4  604.11   17.85
   2   2  -4  634.10   21.38
  -2  -2   4  618.40   19.56
  -2  -2   4  628.55   16.62
  -2  -2   4  600.37   15.67
  -2  -2   3  926.90   12.46
  -2  -2   3  944.54   16.74
  -2  -2   3  997.19   19.84
   2   2  -3  949.05   18.97
   2   2  -3  946.01   21.31
   2   2  -3  952.19   22.57
   2   2  -3  991.73   19.05
  -2  -2   3  953.92   18.18
   2   2  -3  944.26   18.89
   2   2  -3  957.90   19.44
  -2  -2   2 1110.74   18.70
   2   2  -2 1048.39   18.15
  -2  -2   2 1071.27   17.47
   2   2  -2 1060.43   19.05
  -2  -2   2 1092.47   20.86
   2   2  -2 1088.55   20.51
  -2  -2   2 1100.10   19.79
  -2  -2   2 1115.62   17.78
   2   2  -2 1066.77   17.57
  -2  -2   2 1073.90   18.38
   2   2  -2 1084.06   18.26
   2   2  -1  915.84   13.30
  -2  -2   1  911.00   15.27
  -2  -2   1  939.71   15.80
   2   2  -1  926.81   15.10
   2   2  -1  901.86   15.07
  -2  -2   1  953.85   15.96
  -2  -2   1  907.18   13.14
  -2  -2   1  924.50   15.22
   2   2  -1  904.61   15.61
   2   2  -1  937.25   15.14
   2   2   0 1649.59   11.86
   2   2   0 1627.14   19.11
  -2  -2   0 1627.33   19.60
   2   2   0 1567.54   19.05
   2   2   0 1646.72   12.49
  -2  -2   0 1669.29   18.01
  -2  -2   0 1681.46   14.03
   2   2   0 1577.48   15.69
  -2  -2   0 1634.46   19.34
   2   2   0 1588.04   14.97
  -2  -2   0 1630.06   18.77
  -2  -2   0 1640.25   15.31
  -2  -2   0 1671.68   19.83
   2   2   0 1721.45   20.48
   2   2   1 1075.35   15.46
  -2  -2  -1 1093.21   14.46
   2   2   1 1113.46   11.91
  -2  -2  -1 1060.42    7.56
   2   2   1 1143.84   14.77
  -2  -2  -1 1128.06   16.07
   2   2   1 1123.91   15.90
  -2  -2  -1 1121.31   16.17
  -2  -2  -1 1090.84   11.35
   2   2   1 1072.56   15.80
   2   2   1 1099.79   12.09
  -2  -2  -1 1117.35   16.36
  -2  -2  -1 1124.78   12.38
   2   2   1 1147.72   16.66
   2   2   2 1962.00   21.73
  -2  -2  -2 1943.22   22.98
   2   2   2 2007.37   23.09
  -2  -2  -2 2002.43   22.39
   2   2   2 2003.16   20.83
   2   2   2 1926.97   17.85
   2   2   2 1949.42   15.67
   2   2   2 1978.77   20.56
  -2  -2  -2 1929.82   18.81
  -2  -2  -2 1964.15   22.70
   2   2   2 2000.02   22.92
  -2  -2  -2 1955.04   18.58
  -2  -2  -3  950.25   12.91
   2   2   3  961.18   17.95
   2   2   3  928.59   18.02
  -2  -2  -3  953.74   16.26
  -2  -2  -3  936.92   16.50
  -2  -2  -3  944.40   17.58
  -2  -2  -3  911.49   12.69
   2   2   3  923.76   13.62
   2   2   3  976.33   16.70
  -2  -2  -3  979.25   17.34
   2   2   3  932.12   14.68
   2   2   4  870.51   19.10
   2   2   4  881.52   17.17
  -2  -2  -4  875.90   15.28
   2   2   4  908.40   17.40
  -2  -2  -4  871.16   19.55
  -2  -2  -4  877.89   18.24
  -2  -2  -4  875.54   18.98
   2   2   4  848.80   16.81
   2   2   5  369.30   14.10
  -2  -2  -5  377.09   14.46
   2   2   5  359.53   12.26
  -2  -2  -5  375.00   15.02
  -2  -2  -5  373.52   12.15
   2   2   5  361.64   13.43
  -2  -2  -5  377.34   13.22
   2   2   5  377.60   13.40
   2   2   6  702.72   21.75
  -2  -2  -6  726.28   22.40
   2   2   6  736.51   19.44
  -2  -2  -6  748.21   23.79
  -2  -2  -6  705.14   19.74
  -2  -2  -7    4.54    3.76
  -2  -2  -7    7.44    4.33
  -2  -2  -7   10.26    4.57
   2   2   7    4.76    3.79
   2   2   7   16.86    4.16
   2   2   8  267.50   14.59
   2   2   8  271.32   16.17
  -2  -2  -8  279.32   16.93
  -2  -2  -8  282.35   16.29
  -2  -2  -8  285.75   16.38
   2   2   9   44.34    7.12
  -2  -2  -9   40.46    7.02
  -2  -2  -9   56.96    8.42
  -2  -2  -9   50.21    7.71
   2   2   9   36.12    6.37
  -2  -2 -10  194.33   15.27
   2   2  10  173.03   14.31
  -2  -2 -10  201.25   15.37
  -2  -2 -10  180.06   14.72
  -2  -2 -10  199.64   13.37
   2   2  11   20.00    5.92
  -2  -2 -11   12.40    5.24
  -2  -2 -11   11.54    4.82
  -2  -2 -11   17.05    5.30
  -2  -2 -11   17.77    4.87
   2   2  11   17.94    5.08
   2   2  11   20.19    6.00
   2   2  12   49.85    8.91
  -2  -2 -12   60.01    9.17
  -2  -2 -12   40.06    7.93
  -2  -2 -12   60.61    9.09
   2   2  12   49.33    7.74
   2   2  12   51.85    9.21
   2   3 -10   14.47    5.37
   2   3 -10   -2.60    3.02
   2   3 -10   11.89    4.91
  -2  -3  10    8.06    4.42
   2   3  -9   72.89    8.79
   2   3  -9   87.86   10.65
  -2  -3   9   60.60    9.16
   2   3  -9   84.37   10.32
   2   3  -8   86.73   10.00
   2   3  -8  104.81    9.66
  -2  -3   8   86.89   10.50
   2   3  -8  102.93   11.16
   2   3  -7  171.94   13.06
  -2  -3   7  165.95    9.81
   2   3  -7  164.27   11.15
  -2  -3   7  152.03   13.07
   2   3  -7  154.25   12.77
   2   3  -6  212.63   11.91
   2   3  -6  215.49   13.79
  -2  -3   6  206.84    8.62
  -2  -3   6  203.38   14.53
   2   3  -6  210.49   14.18
  -2  -3   6  208.09   10.59
  -2  -3   5  343.32   11.30
   2   3  -5  355.30   14.24
   2   3  -5  323.49   15.84
   2   3  -5  356.28   17.19
  -2  -3   5  311.24   16.89
  -2  -3   5  339.32   13.08
  -2  -3   4  459.75   12.00
   2   3  -4  497.34   18.02
   2   3  -4  474.18   16.55
   2   3  -4  478.76   17.06
   2   3  -4  489.25   15.17
   2   3  -4  486.34   19.01
  -2  -3   4  473.10   18.19
  -2  -3   4  460.17   13.72
  -2  -3   4  464.25   13.22
   2   3  -3  690.07   18.23
  -2  -3   3  673.43   13.56
  -2  -3   3  646.64   12.98
   2   3  -3  685.98   15.96
   2   3  -3  694.80   21.10
  -2  -3   3  655.65   14.67
   2   3  -3  679.62   18.00
   2   3  -3  659.37   15.62
   2   3  -3  700.84   18.50
   2   3  -2 1290.47   22.38
   2   3  -2 1252.86   20.81
   2   3  -2 1247.50   18.22
  -2  -3   2 1338.12   23.48
  -2  -3   2 1272.34   23.71
   2   3  -2 1271.99   25.72
  -2  -3   2 1303.00   20.11
  -2  -3   2 1306.91   19.33
   2   3  -2 1330.35   20.66
   2   3  -2 1294.99   22.39
  -2  -3   1 1327.58   19.28
   2   3  -1 1298.54   17.38
  -2  -3   1 1355.36   19.25
   2   3  -1 1252.60   14.01
   2   3  -1 1282.77   21.52
  -2  -3   1 1330.84   16.01
  -2  -3   1 1331.51   18.90
   2   3  -1 1317.56   20.98
   2   3  -1 1356.82   19.88
  -2  -3   1 1333.84   17.40
   2   3  -1 1361.35   21.04
  -2  -3   0 1473.36   20.69
   2   3   0 1470.74   20.57
   2   3   0 1423.27   15.13
  -2  -3   0 1430.25   15.65
  -2  -3   0 1455.06   21.22
   2   3   0 1451.78   20.83
  -2  -3   0 1487.94   19.88
   2   3   0 1421.39   17.64
  -2  -3   0 1429.83   13.40
  -2  -3   0 1489.31   19.60
   2   3   0 1479.11   20.21
  -2  -3   0 1448.21   18.34
  -2  -3  -1  943.18   15.74
   2   3   1  935.33   16.09
  -2  -3  -1  939.45   16.16
  -2  -3  -1  964.01   15.94
   2   3   1  942.29   15.55
  -2  -3  -1  932.93   10.88
  -2  -3  -1  909.92   16.28
   2   3   1  913.05   16.21
  -2  -3  -1  947.43   15.68
   2   3   1  916.40   14.92
   2   3   1  917.91   10.74
   2   3   1  920.42    9.62
   2   3   1  920.91    9.65
  -2  -3  -1  906.57    8.39
  -2  -3  -1  942.79   19.58
  -2  -3  -1  950.91   16.20
  -2  -3  -1  934.46    9.85
   2   3   1  959.18   16.62
  -2  -3  -2  592.08   12.74
  -2  -3  -2  584.70    9.70
   2   3   2  573.39   12.95
  -2  -3  -2  621.34   14.14
   2   3   2  598.66   13.11
  -2  -3  -2  620.00   13.82
  -2  -3  -2  631.15   13.20
   2   3   2  605.47   12.77
   2   3   2  582.88    8.69
   2   3   2  569.31    6.41
   2   3   2  587.22   12.83
  -2  -3  -2  610.47   13.68
   2   3   2  604.23   12.59
  -2  -3  -3   25.24    2.91
   2   3   3   27.11    3.31
   2   3   3   18.17    2.63
  -2  -3  -3   22.71    2.48
  -2  -3  -3   30.75    3.16
   2   3   3   19.83    3.26
   2   3   3   23.80    2.16
   2   3   3   16.12    2.85
  -2  -3  -3   18.94    3.12
   2   3   3   23.68    2.29
   2   3   4 1493.39   22.44
  -2  -3  -4 1416.36   16.96
  -2  -3  -4 1356.95   15.17
   2   3   4 1428.62   25.59
  -2  -3  -4 1410.19   24.67
   2   3   4 1444.13   28.27
   2   3   4 1401.18   21.55
  -2  -3  -4 1439.04   24.56
   2   3   4 1425.05   20.40
  -2  -3  -5  332.66   14.20
   2   3   5  364.97   14.76
  -2  -3  -5  329.96   10.40
   2   3   5  357.04   12.98
   2   3   5  351.77   11.83
   2   3   6  847.01   19.98
   2   3   6  831.13   24.40
  -2  -3  -6  840.67   25.50
  -2  -3  -6  844.12   20.06
  -2  -3  -7  431.49   19.61
  -2  -3  -7  418.39   16.59
   2   3   7  442.49   16.16
   2   3   7  381.40   18.29
  -2  -3  -7  456.34   18.83
  -2  -3  -8  454.59   20.50
   2   3   8  430.47   17.38
   2   3   8  426.67   21.30
  -2  -3  -8  413.61   20.29
  -2  -3  -8  407.41   18.77
   2   3   9   72.33    8.20
  -2  -3  -9   59.26    8.18
  -2  -3  -9   50.80    7.71
  -2  -3  -9   58.95    8.29
   2   3   9   42.96    7.32
   2   3  10  141.89   12.85
  -2  -3 -10  130.42   12.51
   2   3  10  129.03   11.66
  -2  -3 -10  130.70   12.45
  -2  -3 -10  120.49   11.88
  -2  -3 -11   33.11    6.24
  -2  -3 -11   30.20    6.88
  -2  -3 -11   25.31    6.71
  -2  -3 -11   32.59    7.14
   2   3  11   32.97    6.57
   2   3  11   20.14    5.74
   2   3  12   21.66    6.30
   2   3  12   28.99    6.13
  -2  -3 -12   30.10    7.51
  -2  -3 -12   38.93    7.53
  -2  -3 -12   38.24    7.47
   2   3  12   36.36    8.02
  -2  -3 -12   29.65    6.01
   2   3  13    8.62    3.69
  -2  -3 -13   19.83    5.68
   2   4  -9   47.25    8.58
   2   4  -9   53.27    7.51
   2   4  -9   60.30    8.92
  -2  -4   9   59.51    9.28
   2   4  -8   42.41    7.30
   2   4  -8   41.42    7.58
   2   4  -8   33.18    5.64
  -2  -4   8   33.39    7.29
   2   4  -7  131.56   11.92
   2   4  -7  147.77   10.60
  -2  -4   7  115.21   12.18
   2   4  -7  132.97   12.00
  -2  -4   6  142.19    7.82
  -2  -4   6  142.98    8.70
   2   4  -6  143.89    9.85
  -2  -4   6  133.91    8.22
  -2  -4   6  132.59   12.59
   2   4  -6  142.89   11.82
   2   4  -6  142.58   11.75
  -2  -4   5  350.47   12.98
   2   4  -5  344.71   17.06
   2   4  -5  354.68   13.85
   2   4  -5  389.66   18.17
  -2  -4   5  348.96   18.74
  -2  -4   5  344.18   11.80
  -2  -4   4  794.30   17.99
   2   4  -4  769.73   22.80
   2   4  -4  758.26   22.98
   2   4  -4  755.79   18.16
   2   4  -4  805.15   24.51
  -2  -4   4  744.89   24.45
  -2  -4   4  750.93   17.14
   2   4  -4  750.29   17.75
  -2  -4   4  764.09   16.29
   2   4  -4  783.15   23.85
  -2  -4   3  502.13   11.22
  -2  -4   3  525.69   13.73
   2   4  -3  546.42   17.00
   2   4  -3  550.95   18.07
   2   4  -3  512.92   13.11
   2   4  -3  571.13   19.08
  -2  -4   3  517.02   13.08
   2   4  -3  526.81   13.99
  -2  -4   3  513.23   11.46
   2   4  -3  538.29   17.68
  -2  -4   2  473.02   10.59
   2   4  -2  471.25   13.73
   2   4  -2  493.52   15.85
   2   4  -2  483.16    9.75
   2   4  -2  465.33   15.81
  -2  -4   2  495.99   13.00
   2   4  -2  477.00   15.23
  -2  -4   2  475.48   11.93
   2   4  -2  475.11   12.76
   2   4  -1 1718.93   26.88
   2   4  -1 1632.51   22.22
  -2  -4   1 1673.77   24.59
  -2  -4   1 1646.80   19.74
   2   4  -1 1694.61   26.70
  -2  -4   1 1662.85   23.46
   2   4  -1 1579.37   25.85
  -2  -4   1 1661.07   18.07
  -2  -4   1 1639.58   21.63
   2   4  -1 1702.94   23.39
   2   4   0  371.30   11.76
   2   4   0  370.60    9.12
  -2  -4   0  384.70    9.73
  -2  -4   0  385.04    9.98
  -2  -4   0  380.60   10.61
   2   4   0  370.72   10.58
  -2  -4   0  385.85    8.79
  -2  -4   0  394.86   11.68
  -2  -4   0  372.87    6.32
   2   4   0  394.32    9.75
   2   4   0  390.19   11.24
   2   4   0  376.00   12.04
   2   4   1 1044.46   18.83
   2   4   1 1017.57   16.28
  -2  -4  -1 1027.44   14.52
  -2  -4  -1 1062.17   17.81
   2   4   1 1024.64   19.07
   2   4   1 1025.40   11.20
  -2  -4  -1 1072.94   18.67
  -2  -4  -1 1023.05   17.82
  -2  -4  -2  705.01   15.34
  -2  -4  -2  721.12   16.75
   2   4   2  724.33   15.48
  -2  -4  -2  720.21   14.81
   2   4   2  696.75   14.81
  -2  -4  -2  734.21   16.23
  -2  -4  -2  674.23   11.75
  -2  -4  -2  690.92    9.81
   2   4   2  682.32    7.59
  -2  -4  -2  700.20   15.55
   2   4   2  703.10   15.57
  -2  -4  -3 1424.98   21.31
   2   4   3 1393.32   21.92
   2   4   3 1404.48   22.21
  -2  -4  -3 1399.51   19.87
   2   4   3 1461.38   23.84
   2   4   3 1377.44   20.50
  -2  -4  -3 1414.49   24.10
   2   4   3 1383.70   14.56
   2   4   4  735.57   16.41
   2   4   4  703.39   16.15
  -2  -4  -4  751.53   18.31
   2   4   4  730.47   19.01
  -2  -4  -4  709.65    9.65
   2   4   4  699.79   11.57
   2   4   4  725.50   15.68
  -2  -4  -4  721.83   18.41
   2   4   4  701.95   13.25
  -2  -4  -4  710.47   13.55
   2   4   5  282.81   13.20
   2   4   5  305.26   11.13
  -2  -4  -5  287.97    7.72
  -2  -4  -5  278.15   13.44
  -2  -4  -5  293.57    8.58
   2   4   5  289.19   10.01
   2   4   6  525.41   15.77
   2   4   6  486.13   19.13
  -2  -4  -6  523.70   20.68
  -2  -4  -6  470.32   13.64
   2   4   6  516.20   15.90
  -2  -4  -6  473.73    8.57
   2   4   7  224.23   11.22
  -2  -4  -7  201.25   10.74
   2   4   7  226.95   14.64
  -2  -4  -7  229.68   14.55
   2   4   8  260.94   13.13
   2   4   8  248.43   16.81
  -2  -4  -8  239.82   15.51
  -2  -4  -8  250.49   13.86
   2   4   9  108.14    9.43
  -2  -4  -9   84.09    9.87
   2   4   9  105.74   11.72
  -2  -4  -9  107.89   11.29
  -2  -4  -9  110.85   10.50
  -2  -4 -10   72.95    9.81
   2   4  10   77.72   10.09
  -2  -4 -10   86.82   10.43
  -2  -4 -10   70.08    9.02
   2   4  10   79.29    8.90
  -2  -4 -11   25.74    6.81
  -2  -4 -11   27.86    6.75
  -2  -4 -11   30.00    6.22
   2   4  11   33.33    6.54
   2   4  11   19.81    5.66
  -2  -4 -12   36.94    7.66
  -2  -4 -12   45.12    7.46
  -2  -4 -12   29.38    7.23
   2   4  12   41.12    8.28
   2   4  12   40.37    8.14
   2   4  12   48.72    8.38
  -2  -4 -12   46.11    7.93
  -2  -4 -13   13.33    4.27
   2   4  13   -6.32    4.18
  -2  -5   9   48.58    8.91
   2   5  -9   47.81    8.31
   2   5  -9   40.75    8.03
   2   5  -8   37.72    7.23
   2   5  -8   54.93    8.43
  -2  -5   8   37.63    7.55
   2   5  -7  130.16    9.87
   2   5  -7  136.45   12.69
  -2  -5   7  120.78   12.74
   2   5  -7  130.38   12.21
  -2  -5   6   87.09    7.83
   2   5  -6   95.49   10.35
   2   5  -6   92.29    7.79
  -2  -5   6   90.09    7.62
  -2  -5   6   86.38   10.51
   2   5  -6   92.29   10.02
   2   5  -5  405.58   14.68
  -2  -5   5  397.02   15.33
  -2  -5   5  410.54   16.54
   2   5  -5  418.44   19.25
  -2  -5   5  435.42   22.08
   2   5  -5  391.97   18.91
  -2  -5   4   -0.46    3.03
  -2  -5   4    3.52    2.11
   2   5  -4    1.59    2.30
   2   5  -4    0.85    2.46
   2   5  -4   -0.85    3.25
   2   5  -4    1.89    1.89
   2   5  -4    2.79    2.68
  -2  -5   4    1.91    1.71
  -2  -5   4    2.82    1.19
   2   5  -3  787.41   21.48
   2   5  -3  791.38   23.41
   2   5  -3  773.83   23.87
   2   5  -3  753.74   22.47
  -2  -5   3  767.24   24.12
  -2  -5   3  772.65   16.14
  -2  -5   3  765.56   18.76
  -2  -5   3  725.33   12.52
   2   5  -3  745.32   16.92
  -2  -5   3  763.19   12.79
   2   5  -3  768.72   14.50
   2   5  -2  226.10   12.02
  -2  -5   2  209.84    6.91
   2   5  -2  217.45    5.58
   2   5  -2  215.71   11.22
  -2  -5   2  215.18    8.82
   2   5  -2  236.67   10.67
  -2  -5   2  219.82    8.44
   2   5  -2  227.82    9.31
   2   5  -2  222.05   11.53
   2   5  -1  392.83   14.57
  -2  -5   1  385.58    9.99
  -2  -5   1  394.60   13.73
   2   5  -1  394.40   12.66
  -2  -5   1  391.97   13.64
  -2  -5   1  386.62    8.84
   2   5  -1  417.40   14.53
  -2  -5   1  385.30   11.09
   2   5  -1  395.39   12.16
   2   5  -1  406.55   12.59
   2   5   0  535.44   15.53
   2   5   0  510.30   11.05
   2   5   0  532.94   15.85
  -2  -5   0  525.16   13.26
  -2  -5   0  545.69   15.34
   2   5   0  537.33   11.47
  -2  -5   0  523.61   11.76
   2   5   0  516.05   12.93
  -2  -5   0  485.84    6.54
  -2  -5   0  530.33   12.68
   2   5   1  834.70   19.09
  -2  -5  -1  853.09   17.64
   2   5   1  826.96   15.33
  -2  -5  -1  820.18   15.36
   2   5   1  799.58    8.91
  -2  -5  -1  834.10   17.11
  -2  -5  -1  866.37   18.56
   2   5   1  866.83   18.68
  -2  -5  -2  332.11    6.28
   2   5   2  332.50   11.48
   2   5   2  345.01   10.83
   2   5   2  349.36   12.05
  -2  -5  -2  358.07   10.04
  -2  -5  -2  349.26   11.86
  -2  -5  -2  351.91   11.74
  -2  -5  -3  397.54   12.94
   2   5   3  394.61   12.36
   2   5   3  386.87   12.75
   2   5   3  399.97   12.85
  -2  -5  -3  396.70   10.63
   2   5   3  369.83    6.09
  -2  -5  -3  373.95   12.98
   2   5   4  562.78   15.12
   2   5   4  561.41   15.40
  -2  -5  -4  562.45   16.15
   2   5   4  567.71   17.17
  -2  -5  -4  563.60   17.08
   2   5   4  548.04   10.47
  -2  -5  -5  381.09   10.87
   2   5   5  414.76   13.63
  -2  -5  -5  401.83   16.24
   2   5   5  431.07   16.58
   2   5   5  427.57   12.98
  -2  -5  -5  395.38    8.06
   2   5   5  412.38   11.53
   2   5   5  393.84   13.22
   2   5   6  346.31   12.62
   2   5   6  317.46   15.84
  -2  -5  -6  329.55   16.98
  -2  -5  -6  306.29    8.96
  -2  -5  -6  327.57    9.98
   2   5   6  315.23    9.94
   2   5   6  338.47   13.05
   2   5   6  332.07   12.79
  -2  -5  -7  188.52   13.54
   2   5   7  210.69   10.79
   2   5   7  185.51   13.44
   2   5   7  225.10   11.06
  -2  -5  -7  197.99    9.60
   2   5   8  137.00    9.51
  -2  -5  -8  113.28    8.60
   2   5   8  120.09   12.06
  -2  -5  -8  115.08   11.29
   2   5   9   78.01    7.94
   2   5   9   85.07   11.15
  -2  -5  -9   90.86   10.34
  -2  -5  -9   88.88    8.87
  -2  -5 -10   62.66    9.27
   2   5  10   63.55    7.65
  -2  -5 -10   62.68    9.08
  -2  -5 -10   62.01    8.09
   2   5  10   61.59    9.75
  -2  -5 -11   28.59    7.10
  -2  -5 -11   32.24    6.19
   2   5  11   32.11    6.48
  -2  -5 -11   34.42    7.68
   2   5  11   28.47    7.47
  -2  -5 -12   34.34    7.73
  -2  -5 -12   30.75    7.32
   2   5  12   16.31    4.89
   2   5  12   24.97    6.67
   2   5  13   -4.96    3.61
  -2  -5 -13   10.54    4.31
   2   6  -8    6.83    4.00
   2   6  -8   -0.76    2.59
  -2  -6   8    1.38    3.85
   2   6  -7  112.02   12.06
  -2  -6   7  119.07   13.22
   2   6  -7  138.32   12.93
  -2  -6   6   21.66    6.06
   2   6  -6   23.95    5.67
  -2  -6   6   19.93    4.57
   2   6  -6   15.27    5.16
   2   6  -5  181.74   13.51
  -2  -6   5  162.84   10.94
   2   6  -5  168.98   12.89
  -2  -6   5  173.28   11.84
  -2  -6   5  184.39   15.36
   2   6  -5  177.57    9.56
   2   6  -4  108.33   10.59
   2   6  -4  112.28    9.95
   2   6  -4  103.57    9.51
  -2  -6   4  107.06   11.14
  -2  -6   4  107.07    8.54
  -2  -6   4  111.72    6.48
   2   6  -4   99.40    6.14
   2   6  -3  334.47   16.75
   2   6  -3  354.76   15.64
   2   6  -3  335.66   17.13
   2   6  -3  333.78   15.65
  -2  -6   3  302.79   16.43
   2   6  -3  333.38    8.84
  -2  -6   3  307.80   10.31
  -2  -6   3  279.67    6.14
  -2  -6   3  324.35   13.62
  -2  -6   2   60.38    3.72
   2   6  -2   63.68    6.16
  -2  -6   2   61.70    3.15
   2   6  -2   63.37    7.40
   2   6  -2   59.78    2.50
   2   6  -2   60.49    6.83
  -2  -6   2   61.12    4.88
   2   6  -2   60.80    6.18
  -2  -6   2   57.33    4.62
   2   6  -1  437.70   16.42
   2   6  -1  419.41   13.04
   2   6  -1  451.46   17.33
  -2  -6   1  394.12   10.80
  -2  -6   1  438.54   16.18
  -2  -6   1  407.38    8.86
  -2  -6   1  418.25   12.14
   2   6  -1  430.38   14.33
  -2  -6   1  415.42   15.50
   2   6   0  155.22    6.25
   2   6   0  159.92    8.20
   2   6   0  154.50    9.72
  -2  -6   0  150.12    7.50
   2   6   0  161.98    6.43
  -2  -6   0  165.35    7.72
  -2  -6   0  161.78    7.91
  -2  -6   0  173.53    9.72
   2   6   0  153.42    9.35
  -2  -6  -1  352.30   13.17
   2   6   1  348.63   13.18
   2   6   1  332.24   13.45
   2   6   1  317.53    9.82
   2   6   1  330.19    6.28
  -2  -6  -1  324.01   12.09
  -2  -6  -1  323.03    6.81
  -2  -6  -1  338.63   11.58
  -2  -6  -2  618.29   17.13
   2   6   2  577.22   16.31
   2   6   2  564.73   14.37
  -2  -6  -2  511.12    6.29
  -2  -6  -2  513.61    6.90
  -2  -6  -2  563.77   15.61
   2   6   2  587.49   17.09
  -2  -6  -3  448.06   14.89
   2   6   3  443.24   14.94
   2   6   3  450.62   14.31
   2   6   3  455.82   14.19
  -2  -6  -3  442.67   11.00
  -2  -6  -3  430.22   14.59
   2   6   4  120.20    7.67
   2   6   4  112.14    7.98
  -2  -6  -4  127.39    7.94
   2   6   4  111.35    7.58
  -2  -6  -4  112.64    8.21
   2   6   4  106.87    3.87
   2   6   5  416.93   14.61
   2   6   5  417.48   16.84
  -2  -6  -5  428.19   17.20
   2   6   5  431.62   14.52
  -2  -6  -5  431.54   16.81
   2   6   5  414.33   10.38
   2   6   6  264.48   10.96
   2   6   6  259.70   14.56
  -2  -6  -6  260.24   15.45
   2   6   6  268.55   11.92
  -2  -6  -6  253.59    7.11
   2   6   6  250.15   11.52
   2   6   7  178.52   10.12
   2   6   7  177.48   10.19
   2   6   7  156.92   12.60
  -2  -6  -7  154.71   12.61
  -2  -6  -7  165.23    7.72
   2   6   7  179.05    9.68
   2   6   8  146.84    9.92
   2   6   8  133.69    9.20
   2   6   8  129.76   12.59
  -2  -6  -8  128.65   11.96
  -2  -6  -8  119.77    7.97
   2   6   8  143.97    9.38
   2   6   9   90.13    8.04
   2   6   9  108.41    8.82
   2   6   9   83.99   11.32
  -2  -6  -9   89.10   10.55
  -2  -6  -9   85.12    7.99
   2   6   9  101.09    8.84
   2   6  10   61.43    7.68
   2   6  10   70.58    7.57
   2   6  10   60.61    7.17
  -2  -6 -10   51.18    8.56
  -2  -6 -10   56.32    7.35
   2   6  10   62.78   10.19
  -2  -6 -11   11.33    4.51
   2   6  11   12.90    4.23
   2   6  11   22.69    5.25
  -2  -6 -11    8.41    5.05
   2   6  11   10.71    4.70
  -2  -6 -12   42.57    8.68
  -2  -6 -12   20.88    6.34
   2   6  12   31.59    6.34
   2   6  12   37.58    8.04
   2   7  -7   47.16    8.63
   2   7  -7   63.76    9.45
  -2  -7   7   54.65    9.59
   2   7  -6    6.25    4.28
   2   7  -6   11.63    4.80
  -2  -7   6   13.77    5.55
  -2  -7   5  130.38   10.67
   2   7  -5  146.31   13.12
  -2  -7   5  123.39   10.99
   2   7  -5  137.35   11.86
  -2  -7   5  136.48   13.98
  -2  -7   5  120.64    9.58
  -2  -7   4   20.87    4.79
  -2  -7   4   17.86    3.79
   2   7  -4   21.82    5.33
  -2  -7   4   17.03    4.88
   2   7  -4   22.70    5.26
  -2  -7   4   18.42    5.65
   2   7  -3  211.56   13.18
   2   7  -3  204.50   14.52
   2   7  -3  209.71   12.66
  -2  -7   3  221.25   15.36
  -2  -7   3  220.36   12.49
  -2  -7   3  194.04    8.24
  -2  -7   3  186.76    9.49
   2   7  -3  211.00   14.51
  -2  -7   2   50.42    6.59
  -2  -7   2   41.60    5.57
   2   7  -2   50.28    7.07
   2   7  -2   51.53    7.53
   2   7  -2   46.65    5.96
   2   7  -2   51.06    5.77
  -2  -7   2   44.63    6.62
  -2  -7   2   47.12    4.33
  -2  -7   2   48.84    4.12
   2   7  -1  316.20   15.31
   2   7  -1  332.44   13.97
   2   7  -1  315.97   11.52
  -2  -7   1  308.93   10.98
  -2  -7   1  303.13    6.98
  -2  -7   1  316.71   14.77
   2   7  -1  310.49   15.96
   2   7   0   64.06    6.85
  -2  -7   0   69.67    6.89
   2   7   0   60.16    4.21
  -2  -7   0   58.13    5.23
  -2  -7   0   58.30    5.23
  -2  -7   0   60.46    5.14
   2   7   0   71.35    7.67
  -2  -7  -1  268.28    7.30
   2   7   1  274.69    9.42
   2   7   1  276.32   13.62
  -2  -7  -1  255.40   12.18
  -2  -7  -1  272.62   11.05
   2   7   1  272.58   12.88
  -2  -7  -2  274.33   12.55
   2   7   2  271.87   12.39
   2   7   2  271.19   10.38
   2   7   2  257.17   12.75
  -2  -7  -2  276.32   11.59
   2   7   3  563.43   16.27
   2   7   3  573.17   18.29
  -2  -7  -3  568.90   11.89
  -2  -7  -3  584.74   18.07
  -2  -7  -3  578.33   17.73
   2   7   3  559.56   17.40
   2   7   4  529.93   21.54
   2   7   4  510.21   17.04
  -2  -7  -4  503.31   15.24
   2   7   4  523.86   16.55
  -2  -7  -4  550.10   18.19
   2   7   4  534.74   17.45
  -2  -7  -4  532.66   18.18
   2   7   5  397.15   14.58
   2   7   5  421.76   15.49
   2   7   5  429.66   17.20
   2   7   5  419.85   19.24
  -2  -7  -5  377.11   15.93
   2   7   5  407.78    8.84
  -2  -7  -5  435.72   17.55
   2   7   5  407.03    8.62
   2   7   6   64.59    6.42
   2   7   6   61.03    6.11
   2   7   6   49.33    7.16
   2   7   6   58.86    7.41
  -2  -7  -6   53.30    7.39
   2   7   6   51.51    4.26
   2   7   7  231.56   11.97
   2   7   7  229.11   12.14
   2   7   7  215.50   14.84
  -2  -7  -7  213.71   15.17
   2   7   8   30.27    4.90
   2   7   8   30.22    4.82
  -2  -7  -8   36.25    7.11
   2   7   8   31.15    4.58
   2   7   8   35.16    6.92
   2   7   9   51.26    6.36
   2   7   9   63.89    6.93
  -2  -7  -9   37.66    7.22
   2   7   9   51.00    8.99
   2   7   9   59.22    6.41
   2   7  10   29.87    5.38
  -2  -7 -10   27.49    6.52
   2   7  10   25.22    4.73
   2   7  10   23.51    6.95
  -2  -7 -11   28.16    6.83
   2   7  11   25.13    5.32
   2   7  11   27.67    7.42
   2   7  12   23.54    6.46
  -2  -7 -12   20.97    5.85
  -2  -7 -12   26.11    6.62
   2   8  -7   45.77    8.32
   2   8  -6   13.92    5.48
  -2  -8   6    8.07    5.16
   2   8  -6   -2.01    3.10
  -2  -8   5  124.17   11.33
   2   8  -5  122.43   12.65
   2   8  -5  115.63   11.47
  -2  -8   5  121.75   13.78
  -2  -8   5  115.72   11.20
  -2  -8   4    1.35    3.60
  -2  -8   4    7.37    3.39
  -2  -8   4    7.51    4.19
   2   8  -4    1.30    2.94
   2   8  -4    2.92    3.10
  -2  -8   3  155.50   12.76
   2   8  -3  175.32   14.34
   2   8  -3  171.60   12.66
   2   8  -3  150.27   13.63
  -2  -8   3  146.58   13.03
   2   8  -3  181.04   11.94
  -2  -8   3  173.40   14.57
  -2  -8   3  152.25   11.39
  -2  -8   2   15.98    4.64
  -2  -8   2   38.65    6.29
   2   8  -2   26.78    5.16
   2   8  -2   23.83    5.60
   2   8  -2   35.96    6.89
   2   8  -2   36.47    5.00
  -2  -8   2   26.06    4.96
  -2  -8   1  307.56   15.68
   2   8  -1  318.97   14.80
   2   8  -1  329.51   12.08
  -2  -8   1  305.74   11.31
   2   8  -1  331.30   17.05
   2   8  -1  336.32   18.13
   2   8   0   89.53    8.72
   2   8   0  101.86    9.75
  -2  -8   0   92.41    6.59
  -2  -8   0   97.20    8.60
   2   8   1  333.42   10.54
   2   8   1  358.97   17.02
  -2  -8  -1  355.65   13.29
  -2  -8  -1  363.32   15.67
   2   8   1  344.65   15.91
   2   8   2    9.60    3.27
   2   8   2    5.38    3.46
   2   8   2   11.17    2.43
  -2  -8  -2   12.36    3.68
  -2  -8  -2   15.26    3.36
  -2  -8  -3  214.37   11.92
   2   8   3  195.35   11.23
   2   8   3  200.29   10.09
  -2  -8  -3  190.78    6.21
   2   8   3  205.87   12.07
  -2  -8  -3  187.17   10.67
  -2  -8  -4   15.52    4.08
   2   8   4   17.99    4.22
  -2  -8  -4   13.84    2.92
   2   8   4   11.86    3.34
   2   8   4    8.17    4.45
  -2  -8  -4   11.78    3.32
   2   8   4    9.05    3.26
   2   8   5  208.70   11.35
   2   8   5  212.00   14.81
   2   8   5  188.94   11.47
   2   8   5  230.29   12.84
  -2  -8  -5  203.92   11.41
  -2  -8  -5  211.97   12.81
   2   8   6   35.13    5.23
   2   8   6   30.36    6.26
   2   8   6   32.06    5.01
  -2  -8  -6   32.94    5.66
   2   8   6   36.32    5.92
   2   8   6   28.60    2.73
  -2  -8  -6   40.03    6.31
   2   8   7  104.68    8.47
   2   8   7  121.36   11.29
  -2  -8  -7   92.43   10.17
   2   8   7  101.73    8.50
  -2  -8  -7   99.38   10.44
   2   8   7   97.74    6.26
   2   8   8   38.68    5.36
   2   8   8   35.33    5.64
  -2  -8  -8   34.72    6.58
   2   8   8   40.58    7.56
   2   8   8   31.60    4.49
   2   8   9   31.78    5.22
   2   8   9   38.52    5.70
  -2  -8  -9   40.49    7.61
   2   8   9   36.82    8.06
   2   8  10   14.93    4.25
  -2  -8 -10   15.66    5.01
   2   8  10    9.43    5.20
  -2  -8 -11   40.11    7.69
   2   8  11   15.82    6.30
  -2  -8 -12   11.99    4.68
   2   9  -5   19.09    5.85
  -2  -9   5   28.36    7.79
  -2  -9   5   26.55    7.03
  -2  -9   4   -1.64    3.14
  -2  -9   4    4.67    4.16
   2   9  -4    6.24    3.80
  -2  -9   4   -0.88    3.03
   2   9  -4    0.49    2.91
  -2  -9   4    1.67    3.51
  -2  -9   3   45.79    7.75
   2   9  -3   53.30    9.14
  -2  -9   3   57.12    9.34
  -2  -9   3   46.71    7.36
   2   9  -3   55.76    8.12
   2   9  -3   51.23    6.72
  -2  -9   3   50.00    8.30
  -2  -9   2   12.32    4.53
  -2  -9   2    7.53    4.35
   2   9  -2   13.65    5.46
  -2  -9   2    7.61    3.41
   2   9  -2    6.90    3.68
   2   9  -2    6.38    4.54
  -2  -9   2    3.61    3.42
   2   9  -2    7.24    2.77
   2   9  -1   81.87    9.74
   2   9  -1   73.20    9.63
  -2  -9   1   85.27    9.18
  -2  -9   1   62.86    8.48
   2   9   0   15.92    4.93
   2   9   0   13.88    5.17
  -2  -9   0   17.07    4.42
  -2  -9   0   15.20    3.04
   2   9   1  210.48   13.42
   2   9   1  208.22    8.43
  -2  -9  -1  224.71   13.48
   2   9   1  202.45   14.23
  -2  -9  -1  194.99   10.35
   2   9   2   18.14    4.54
   2   9   2   27.01    3.62
  -2  -9  -2   14.87    4.18
   2   9   2   22.07    5.37
  -2  -9  -2   23.71    4.14
   2   9   3  203.75   13.40
  -2  -9  -3  236.89   13.43
   2   9   3  234.65   11.12
  -2  -9  -3  228.55   12.21
   2   9   3  229.17   13.13
  -2  -9  -4    5.11    3.26
   2   9   4    5.36    3.07
   2   9   4    3.90    3.09
   2   9   4    5.15    2.62
  -2  -9  -4    2.70    2.55
   2   9   5   73.61    7.42
   2   9   5   77.64    8.19
   2   9   5   72.50    7.58
  -2  -9  -5   48.39    6.57
   2   9   6   40.80    5.64
   2   9   6   47.87    6.53
  -2  -9  -6   34.24    5.50
   2   9   6   37.39    6.19
  -2  -9  -6   37.13    6.45
   2   9   7   80.75    7.94
   2   9   7   76.68    9.33
  -2  -9  -7   87.77    9.56
   2   9   7   79.75    8.18
  -2  -9  -7   88.52    9.92
   2   9   8   12.39    3.54
  -2  -9  -8   15.17    5.20
   2   9   8    9.93    3.52
  -2  -9  -8   10.09    4.31
   2   9   8   12.05    4.60
   2   9   9   29.55    5.37
  -2  -9  -9   21.89    6.07
  -2  -9  -9   30.98    7.42
   2   9   9   30.01    7.35
  -2  -9 -10    6.25    3.88
  -2  -9 -10   16.53    5.52
   2   9  10    4.52    4.05
  -2  -9 -11    7.04    3.81
   2  10  -4    0.56    3.05
  -2 -10   4    4.50    4.34
  -2 -10   4   -0.41    3.23
  -2 -10   4   10.91    5.06
  -2 -10   3   43.21    8.73
  -2 -10   3   36.10    7.70
  -2 -10   3   50.14    8.06
  -2 -10   3   56.40    8.92
   2  10  -3   53.16    8.46
   2  10  -2   -0.21    3.89
  -2 -10   2    2.15    2.98
  -2 -10   2    1.58    3.56
  -2 -10   2    0.43    3.25
  -2 -10   2    2.19    3.88
  -2 -10   1   83.04    9.55
  -2 -10   1   59.95    8.81
  -2 -10   1   73.55    8.95
   2  10  -1   79.62   11.03
   2  10  -1   79.56   10.36
  -2 -10   1   74.03   11.10
  -2 -10   0    4.22    3.58
   2  10   0    0.67    2.97
  -2 -10   0    5.94    3.03
   2  10   0    5.90    4.28
   2  10   1  105.45   11.49
  -2 -10  -1  114.20    8.53
   2  10   1  112.65   10.92
  -2 -10  -1  126.04   10.94
   2  10   2   27.29    5.83
  -2 -10  -2   23.54    5.60
   2  10   2   20.47    5.75
  -2 -10  -2   25.61    4.21
   2  10   3  106.32    7.65
   2  10   3   92.69   10.25
  -2 -10  -3  109.38    9.85
  -2 -10  -3  102.36    8.66
   2  10   3  110.42   10.20
   2  10   4   15.09    4.46
   2  10   4   20.68    3.95
   2  10   4   11.13    4.02
  -2 -10  -4    7.35    3.69
  -2 -10  -4   17.02    4.31
   2  10   5   93.62    9.76
  -2 -10  -5   80.45    8.61
   2  10   5   87.24    8.32
   2  10   5   82.73    8.50
  -2 -10  -6   -0.99    2.85
   2  10   6    5.24    3.35
   2  10   6    7.28    3.23
   2  10   6    0.62    2.51
   2  10   7    6.32    2.82
  -2 -10  -7   10.14    4.43
   2  10   7    6.73    3.39
   2  10   7    9.00    4.27
   2  10   8   14.21    4.10
   2  10   8   24.10    6.29
  -2 -10  -8   19.63    5.70
   2  10   9   31.40    7.41
  -2 -10  -9   33.48    7.12
  -2 -10 -10   25.13    6.74
   2  10  10   13.32    6.10
  -2 -11   3   21.75    7.14
  -2 -11   3   33.32    7.29
  -2 -11   2    3.13    3.11
  -2 -11   2   -5.62    3.79
  -2 -11   2   -4.95    4.48
   2  11  -1   77.59   11.26
  -2 -11   1   57.65    8.73
  -2 -11   1   57.27    8.99
  -2 -11   1   58.61   10.61
  -2 -11   1   46.33    8.40
  -2 -11   0   16.17    4.86
  -2 -11   0    6.84    3.72
   2  11   0   13.71    6.09
  -2 -11   0   11.86    4.43
   2  11   0    9.40    5.02
  -2 -11   0    8.19    4.86
  -2 -11  -1   60.42    8.57
   2  11   1   69.28    9.49
  -2 -11  -1   57.72    8.18
   2  11   1   60.12    9.57
  -2 -11  -1   46.49    9.96
   2  11   2   -0.30    2.99
   2  11   2    0.90    3.78
  -2 -11  -2    2.56    3.32
  -2 -11  -3   70.44    8.78
   2  11   3   64.57    9.24
   2  11   3   79.98    9.52
  -2 -11  -3   70.79    7.58
   2  11   4    3.20    3.02
   2  11   4    0.44    2.97
  -2 -11  -4    3.55    3.84
  -2 -11  -4   -0.20    1.85
   2  11   5   43.61    6.77
  -2 -11  -5   46.19    6.93
   2  11   5   44.82    7.44
   2  11   5   35.09    5.45
   2  11   6   -1.61    2.36
  -2 -11  -6    2.39    2.80
   2  11   6    8.39    4.09
   2  11   6    3.98    2.68
   2  11   7   46.33    6.86
   2  11   7   53.38    8.16
   2  11   7   40.75    7.04
  -2 -11  -7   58.09    8.57
  -2 -11  -8   -0.53    2.44
   2  11   8   -4.51    4.02
   2  11   9   18.99    5.38
  -2 -12   1   43.90    8.30
  -2 -12   0   19.51    5.74
   2  12   0   26.29    6.56
  -2 -12  -1   15.55    5.04
   2  12   1   19.18    6.20
  -2 -12  -1   18.91    5.79
   2  12   1   21.31    7.43
  -2 -12  -1   28.59    8.76
   2  12   2   -2.18    3.83
   2  12   2    5.72    4.41
  -2 -12  -2   11.15    6.59
  -2 -12  -2  -10.21    4.57
  -2 -12  -3    1.36    3.51
   2  12   3    5.10    3.71
   2  12   3    9.01    4.65
  -2 -12  -3    0.81    6.37
  -2 -12  -4    4.25    3.39
   2  12   4    6.16    4.09
   2  12   4    8.37    4.24
  -2 -12  -4    9.59    6.84
  -2 -12  -4   -0.13    2.16
   2  12   5    8.84    3.77
   2  12   5   14.17    4.92
  -2 -12  -5    9.20    3.67
   2  12   6    9.39    4.01
  -2 -12  -6    3.76    2.69
   2  12   6    3.08    3.94
  -2 -12  -7   18.20    7.33
   2  12   7   12.01    4.34
  -2 -12  -7   18.00    5.27
  -2 -12  -8   -0.80    4.92
   2  12   8    5.52    2.76
  -2 -12  -9   -2.50    5.27
   2  13   3   19.02    6.20
   2  13   4    2.19    2.61
   2  13   4    3.76    4.43
   2  13   5   -2.86    3.44
  -2 -13  -6   -5.80    3.15
   3 -11  -7   12.76    6.28
  -3  11   7    5.90    3.15
   3 -11  -7   12.85    5.83
   3 -11  -6    2.66    4.35
   3 -11  -6   -2.07    6.08
   3 -11  -5   16.72    6.41
  -3  11   5   10.98    5.23
   3 -11  -5    9.74    6.59
   3 -11  -4    0.95    4.04
   3 -11  -4    1.38    4.78
  -3  11   4   -4.61    3.71
   3 -11  -3   24.28    7.21
  -3  11   3   32.79    7.88
   3 -11  -3   21.98    7.91
  -3  11   2    0.64    3.75
   3 -11  -2    4.51    4.87
   3 -11  -2    1.70    5.74
  -3  10   9    0.64    3.95
  -3  10   8   -7.19    4.27
  -3  10   8    5.20    4.06
  -3  10   7    8.62    5.29
  -3  10   7   14.84    5.76
   3 -10  -7    4.85    4.55
   3 -10  -7    8.70    5.09
  -3  10   6   -4.44    3.48
  -3  10   6   -4.73    4.64
   3 -10  -6   -2.13    4.43
   3 -10  -6   -0.55    3.55
  -3  10   5   17.08    6.04
   3 -10  -5   28.14    7.80
  -3  10   5   27.55    6.54
   3 -10  -5   31.52    8.67
   3 -10  -4    1.85    4.96
  -3  10   4    1.07    2.69
   3 -10  -4    2.39    5.70
  -3  10   4    1.85    3.67
  -3  10   3   15.39    5.46
   3 -10  -3   24.17    9.18
   3 -10  -3   14.47    6.05
   3 -10  -2    1.09    3.61
  -3  10   2   -3.00    3.53
   3 -10  -2   -0.59    7.44
  -3  10   1   31.92    6.89
   3 -10  -1   40.52    8.66
   3 -10  -1   36.85   10.35
   3 -10   0    2.07    5.26
  -3  10   0   -1.02    2.42
   3 -10   0    3.29    4.96
   3 -10   1   16.03    6.90
  -3  10  -1   23.97    6.11
   3 -10   1   20.21    7.78
  -3  10  -2    3.60    3.08
   3 -10   2   13.06    6.46
  -3  10  -3   12.11    5.24
  -3   9   9    3.92    3.89
  -3   9   9    8.42    6.14
  -3   9   8    5.83    4.72
  -3   9   8   -1.11    3.52
  -3   9   7   33.97    7.08
   3  -9  -7   34.82    7.96
  -3   9   7   37.98    8.89
   3  -9  -7   34.65    7.28
   3  -9  -7   40.04    6.38
   3  -9  -6   -2.66    4.00
  -3   9   6    1.58    5.21
   3  -9  -6   -0.63    3.09
   3  -9  -6    1.76    2.11
  -3   9   6    0.10    3.80
  -3   9   5   61.96    8.73
   3  -9  -5   52.47    8.98
  -3   9   5   51.94    9.45
   3  -9  -5   52.30    9.85
  -3   9   4    6.87    4.07
  -3   9   4    1.38    2.57
   3  -9  -4    5.39    5.10
   3  -9  -4    9.13    4.75
   3  -9  -3   41.04    8.19
  -3   9   3   45.53    7.49
  -3   9   3   39.24    6.81
   3  -9  -3   28.96    8.82
   3  -9  -3   51.19    5.86
  -3   9   2    3.43    3.86
   3  -9  -2    1.08    3.79
  -3   9   2    1.88    2.36
   3  -9  -2    5.43    6.10
   3  -9  -2    0.25    2.04
  -3   9   1   58.52    8.37
   3  -9  -1   56.03    9.21
   3  -9  -1   43.79   10.83
   3  -9  -1   51.16    5.80
  -3   9   0    9.42    4.28
   3  -9   0    1.45    5.29
   3  -9   0   11.52    5.24
   3  -9   1   50.27    9.47
  -3   9  -1   57.30    8.41
   3  -9   1   76.06   12.20
   3  -9   2    8.14    4.95
  -3   9  -2   13.47    4.89
   3  -9   2    5.16    5.00
  -3   9  -3   30.09    6.58
   3  -9   3   39.63    8.75
   3  -9   3   41.54    9.18
   3  -9   4   25.03    7.54
  -3   9  -4   11.23    4.45
   3  -9   4   15.33    6.47
  -3   9  -5   19.07    6.02
  -3   8   9   30.61    7.23
  -3   8   9   36.04    8.29
   3  -8  -9   32.62    6.55
  -3   8   8    0.59    3.19
  -3   8   8    7.29    4.81
   3  -8  -8   -0.73    2.85
  -3   8   7   50.50    8.15
   3  -8  -7   49.37    8.26
  -3   8   7   59.71   10.65
   3  -8  -7   54.85    7.07
   3  -8  -7   46.70    7.40
   3  -8  -6    1.43    3.87
  -3   8   6    6.50    3.66
  -3   8   6    5.17    4.99
   3  -8  -6    3.63    3.90
   3  -8  -6    3.72    2.19
  -3   8   5   85.90    9.88
   3  -8  -5  101.19   11.14
   3  -8  -5  103.69   11.75
  -3   8   5   97.29   12.69
  -3   8   4    3.10    3.46
   3  -8  -4    3.42    3.59
   3  -8  -4    3.94    4.70
  -3   8   4    6.13    4.09
   3  -8  -4    0.45    2.39
  -3   8   3  241.30   15.41
   3  -8  -3  241.11   16.78
   3  -8  -3  226.02   18.72
   3  -8  -3  247.96   12.17
  -3   8   3  238.46   16.68
   3  -8  -2    4.09    2.30
   3  -8  -2    2.40    1.55
   3  -8  -2    3.29    4.18
  -3   8   2    1.09    2.79
   3  -8  -2    9.60    6.43
  -3   8   2    5.52    3.48
   3  -8  -1   53.28    8.90
   3  -8  -1   59.00    5.33
  -3   8   1   65.32    8.23
   3  -8  -1   53.78   10.81
   3  -8  -1   52.74    5.80
  -3   8   1   58.32    6.96
  -3   8   0    2.65    3.01
   3  -8   0    2.43    3.92
   3  -8   0   -4.67    5.08
   3  -8   0    3.10    1.97
   3  -8   0    0.20    2.03
   3  -8   1   50.61    5.87
   3  -8   1   59.03   10.39
   3  -8   1   50.50    5.94
   3  -8   1   59.58    9.48
  -3   8  -1   54.31    7.72
   3  -8   1   50.35    5.58
   3  -8   2    7.05    2.79
   3  -8   2   14.68    6.39
   3  -8   2    7.16    5.52
  -3   8  -2    3.02    3.35
   3  -8   2    3.19    2.01
   3  -8   2    6.94    3.23
  -3   8  -3   81.26    9.44
  -3   8  -3   72.91    8.25
   3  -8   3   71.25    9.09
   3  -8   3   85.33    8.35
   3  -8   3   78.29   11.43
   3  -8   3   78.95   11.72
   3  -8   3   85.13    8.26
   3  -8   4   -3.44    2.78
  -3   8  -4   -7.97    3.99
   3  -8   4    4.61    5.13
  -3   8  -4    1.52    3.28
  -3   8  -4    5.60    3.24
   3  -8   4    0.75    4.02
   3  -8   4   -4.77    3.79
   3  -8   5   50.11    7.60
  -3   8  -5   57.88    8.59
   3  -8   5   71.15   11.47
  -3   8  -5   63.77    9.69
  -3   8  -5   55.67    7.93
   3  -8   5   53.29    9.38
   3  -8   6   -0.61    2.85
   3  -7 -11    3.17    2.35
  -3   7  10   14.03    5.61
   3  -7 -10   -2.78    3.25
  -3   7   9   39.70    7.36
  -3   7   9   45.37    9.04
   3  -7  -9   45.79    7.37
  -3   7   8    5.33    3.24
  -3   7   8    5.25    4.35
   3  -7  -8    4.53    3.21
  -3   7   7   83.77    9.69
   3  -7  -7   93.14    9.78
   3  -7  -7   90.04    8.97
   3  -7  -7  102.36    9.42
  -3   7   7  113.68   13.65
  -3   7   6    9.20    3.49
   3  -7  -6    6.19    3.70
   3  -7  -6    8.07    3.89
   3  -7  -6   13.05    3.85
  -3   7   6   10.81    5.05
   3  -7  -5  108.74   10.87
  -3   7   5  107.25   10.21
   3  -7  -5  103.99   10.70
  -3   7   5  123.39   13.37
   3  -7  -4   16.43    5.21
   3  -7  -4   18.95    5.98
  -3   7   4   16.55    4.63
  -3   7   4   18.17    6.28
   3  -7  -4   24.75    4.43
  -3   7   3   25.27    5.28
  -3   7   3   27.99    6.95
   3  -7  -3   31.38    6.53
   3  -7  -3   22.04    6.82
   3  -7  -3   26.87    4.38
   3  -7  -2   -0.24    2.12
   3  -7  -2    2.92    3.34
  -3   7   2    0.98    2.75
   3  -7  -2    2.01    1.62
  -3   7   2    2.81    3.99
   3  -7  -2    0.80    4.51
   3  -7  -1  257.09    9.60
  -3   7   1  246.14   14.24
   3  -7  -1  258.12    7.75
   3  -7  -1  249.84   16.41
   3  -7  -1  264.09   20.12
   3  -7  -1  263.86   11.93
  -3   7   1  254.66   15.31
   3  -7   0    1.21    1.99
  -3   7   0    5.88    2.62
  -3   7   0    3.93    3.08
   3  -7   0    1.69    3.89
   3  -7   0    4.48    1.89
   3  -7   0    0.65    4.36
   3  -7   0    4.39    1.78
  -3   7  -1  182.79   12.41
   3  -7   1  187.09   10.31
   3  -7   1  197.66   17.22
   3  -7   1  190.84   10.68
  -3   7  -1  164.25    9.62
   3  -7   1  169.15   14.36
   3  -7   1  186.44    9.48
   3  -7   2    2.88    2.00
   3  -7   2    1.52    4.17
  -3   7  -2    3.12    2.49
  -3   7  -2   -0.01    2.37
   3  -7   2    3.53    4.36
   3  -7   2   -0.96    2.14
   3  -7   2   -2.87    2.12
  -3   7  -3  131.94   10.80
   3  -7   3  130.88   13.60
  -3   7  -3  131.10   10.38
   3  -7   3  110.96   10.52
   3  -7   3  139.80   14.04
   3  -7   3  138.85   10.09
  -3   7  -3  128.07   11.17
   3  -7   4    7.66    3.43
  -3   7  -4    6.20    3.19
   3  -7   4    5.26    5.13
  -3   7  -4    6.13    3.29
   3  -7   4    2.78    3.88
  -3   7  -4    6.96    3.55
   3  -7   4    4.23    3.99
  -3   7  -5   89.14    9.71
  -3   7  -5   71.15    9.74
  -3   7  -5   70.97    8.63
   3  -7   5   56.50    9.75
   3  -7   5   72.96    8.56
   3  -7   5   66.56   10.26
   3  -7   6    2.69    2.37
  -3   7  -6    5.33    3.91
  -3   7  -6    2.86    2.88
   3  -7   6    4.23    2.91
  -3   7  -7   18.11    5.28
   3  -7   7   25.41    6.70
   3  -6 -11   21.59    6.58
  -3   6  10    7.82    4.64
   3  -6 -10   -0.02    3.71
  -3   6  10    8.22    3.21
  -3   6   9   51.12    7.99
   3  -6  -9   45.05    7.52
  -3   6   8   15.89    4.49
  -3   6   8   21.55    6.24
   3  -6  -8    8.66    3.51
   3  -6  -7   69.03    7.28
  -3   6   7   73.82    8.61
   3  -6  -7   79.84    8.30
  -3   6   7   77.28   11.15
  -3   6   6   24.64    5.41
   3  -6  -6   26.33    5.29
   3  -6  -6   27.06    5.04
   3  -6  -6   19.40    4.20
  -3   6   6   26.27    6.67
  -3   6   5  182.21   12.61
   3  -6  -5  167.23   12.19
   3  -6  -5  185.36   12.54
  -3   6   5  185.60   15.92
  -3   6   4    0.73    2.63
   3  -6  -4    1.88    2.39
  -3   6   4   -1.06    3.33
   3  -6  -4    0.35    3.11
   3  -6  -4    1.53    2.32
  -3   6   3  326.02   15.58
   3  -6  -3  354.44   17.66
   3  -6  -3  313.30   17.96
   3  -6  -3  344.03   13.40
  -3   6   3  365.24   20.31
   3  -6  -2    0.12    1.94
  -3   6   2   -0.26    2.59
   3  -6  -2    0.68    1.25
   3  -6  -2    0.11    2.98
  -3   6   2   -0.10    3.18
   3  -6  -2    2.82    4.18
   3  -6  -1  355.28    9.92
   3  -6  -1  354.19    8.39
  -3   6   1  350.59   15.81
   3  -6  -1  351.96   18.05
   3  -6  -1  327.73   20.16
   3  -6  -1  360.57   13.36
  -3   6   1  326.77   16.67
   3  -6   0    1.77    1.99
   3  -6   0    1.50    1.33
   3  -6   0    0.80    5.08
  -3   6   0    1.95    1.94
   3  -6   0    0.45    3.11
   3  -6   0    1.92    1.46
  -3   6   0    1.04    2.41
  -3   6  -1  376.50   16.16
   3  -6   1  399.95   20.32
  -3   6  -1  357.94   14.64
   3  -6   1  377.97   13.43
   3  -6   1  362.43   11.86
   3  -6   1  357.80   21.85
   3  -6   1  382.60   14.23
  -3   6  -1  336.03   13.47
   3  -6   2    2.78    4.27
  -3   6  -2    0.15    2.21
  -3   6  -2   -0.12    2.76
  -3   6  -2    0.40    1.81
   3  -6   2    3.01    3.99
   3  -6   2    1.57    2.10
  -3   6  -2   -0.97    1.64
   3  -6   2   -2.92    2.41
  -3   6  -3  181.61   11.62
   3  -6   3  194.16   15.46
   3  -6   3  178.37   12.35
  -3   6  -3  186.49   12.56
  -3   6  -3  181.40   11.57
   3  -6   3  181.56   15.24
   3  -6   3  178.32   10.95
  -3   6  -4   10.29    3.98
   3  -6   4   14.73    5.46
  -3   6  -4   15.67    4.21
  -3   6  -4    9.35    3.67
   3  -6   4    9.63    4.90
   3  -6   4    9.08    3.54
   3  -6   4    9.10    4.34
  -3   6  -5  109.85    9.68
   3  -6   5  103.50   12.18
  -3   6  -5  115.00   11.42
  -3   6  -5  101.88    9.87
   3  -6   5   74.88   10.08
   3  -6   5   64.58    7.83
  -3   6  -6    1.21    2.79
  -3   6  -6   -2.06    3.30
  -3   6  -6   -1.06    2.95
   3  -6   6    1.35    2.03
   3  -6   6   -3.61    3.41
  -3   6  -7   80.12   10.99
  -3   6  -7   81.72   10.40
   3  -6   7   77.27   11.14
   3  -6   7   84.89   10.25
  -3   6  -8    5.20    3.07
   3  -6   8    7.81    4.86
   3  -6   8    1.80    3.25
  -3   5  11   43.11    8.89
   3  -5 -11   30.08    8.17
   3  -5 -11   34.66    7.61
  -3   5  10    6.27    3.48
  -3   5  10   15.42    5.72
   3  -5 -10   22.55    6.30
   3  -5 -10   12.67    5.12
  -3   5   9   57.78    7.84
   3  -5  -9   61.05    8.52
  -3   5   9   49.19    9.00
  -3   5   8   20.13    4.84
   3  -5  -8   28.01    5.53
  -3   5   8   23.22    6.49
  -3   5   7  138.57   10.96
   3  -5  -7  144.24    9.01
   3  -5  -7  138.73   10.88
  -3   5   7  167.90   15.24
  -3   5   6   11.91    5.01
   3  -5  -6    9.78    3.18
  -3   5   6    9.98    3.67
   3  -5  -6   13.78    3.90
   3  -5  -5  244.12   13.11
  -3   5   5  247.91   13.58
   3  -5  -5  263.53   13.25
   3  -5  -5  255.20   12.58
  -3   5   5  260.32   17.97
  -3   5   4   48.38    6.30
   3  -5  -4   38.67    5.72
   3  -5  -4   41.20    1.97
  -3   5   4   50.46    7.74
   3  -5  -4   47.95    6.41
   3  -5  -4   43.66    5.18
  -3   5   4   41.50    3.21
   3  -5  -3  443.87   18.12
   3  -5  -3  443.55   19.16
  -3   5   3  443.07   17.07
   3  -5  -3  417.54   14.58
   3  -5  -3  418.40    9.86
  -3   5   3  439.16   20.11
   3  -5  -2   10.00    3.80
   3  -5  -2   10.15    2.83
   3  -5  -2   13.63    2.55
   3  -5  -2    8.63    4.34
  -3   5   2   15.45    3.92
   3  -5  -2   11.13    1.64
  -3   5   2   18.78    4.80
   3  -5  -1  489.71    9.85
   3  -5  -1  486.48   12.61
   3  -5  -1  480.18   19.66
   3  -5  -1  450.50   21.25
   3  -5  -1  505.86    9.33
   3  -5  -1  498.99   14.98
  -3   5   1  496.02   17.39
  -3   5   1  480.46   18.07
   3  -5   0    2.21    1.38
   3  -5   0    3.04    2.13
  -3   5   0    5.23    2.90
   3  -5   0    1.97    3.65
  -3   5   0    0.63    2.07
  -3   5   0    5.09    2.08
   3  -5   0    2.81    4.52
   3  -5   0    5.19    1.80
   3  -5   1  673.25   24.96
  -3   5  -1  648.02   19.48
  -3   5  -1  676.20   19.03
   3  -5   1  669.14   16.40
   3  -5   1  675.36   27.77
  -3   5  -1  632.51   17.90
   3  -5   1  654.34   17.77
   3  -5   1  613.58   12.99
   3  -5   2   27.22    4.15
  -3   5  -2   23.99    4.29
  -3   5  -2   23.89    2.85
  -3   5  -2   21.98    3.37
  -3   5  -2   27.74    4.50
   3  -5   2   26.92    6.50
   3  -5   2   22.07    6.13
   3  -5   2   25.42    2.21
   3  -5   2   22.31    4.04
  -3   5  -2   24.68    4.55
  -3   5  -3  584.85   20.48
  -3   5  -3  588.20   18.97
   3  -5   3  616.65   25.86
  -3   5  -3  560.46   14.23
   3  -5   3  607.19   20.86
  -3   5  -3  611.28   19.73
   3  -5   3  594.43   25.23
   3  -5   3  590.80   18.86
   3  -5   4   90.14    9.47
   3  -5   4   88.74   10.69
  -3   5  -4   88.01    5.21
  -3   5  -4  103.98    9.38
  -3   5  -4   97.72    8.72
   3  -5   4   93.04   10.26
   3  -5   4  101.42    8.60
  -3   5  -4  108.44    8.48
   3  -5   5  245.65   17.16
  -3   5  -5  222.76   14.77
  -3   5  -5  256.94   14.79
   3  -5   5  179.41   14.42
   3  -5   5  199.13   13.01
  -3   5  -5  259.66   13.30
   3  -5   6    0.23    3.19
  -3   5  -6    1.68    2.56
  -3   5  -6    2.80    3.37
  -3   5  -6    5.28    3.74
  -3   5  -6    1.51    2.88
   3  -5   6   -6.53    4.97
  -3   5  -7   44.80    7.82
  -3   5  -7   42.83    7.33
  -3   5  -7   55.00    9.00
   3  -5   7   45.56    8.46
   3  -5   7   50.90    8.29
   3  -5   8   -7.04    4.80
  -3   5  -8    5.63    4.47
  -3   5  -8    9.38    4.32
  -3   5  -8   -0.37    4.60
   3  -5   8    3.76    4.51
  -3   5  -9   39.15    7.74
   3  -5   9   31.99    7.60
   3  -4 -11   23.30    7.54
  -3   4  11   24.24    6.63
   3  -4 -11   29.22    7.65
   3  -4 -11   40.16    8.21
  -3   4  10   22.00    4.93
   3  -4 -10   15.68    6.24
  -3   4  10   32.25    7.42
   3  -4 -10   19.29    6.12
  -3   4   9   65.88    8.12
   3  -4  -9   69.28    9.24
  -3   4   9   85.92   11.55
  -3   4   8   38.50    6.28
   3  -4  -8   38.80    6.74
  -3   4   8   31.97    7.29
   3  -4  -7  222.43    8.91
   3  -4  -7  235.65   14.02
  -3   4   7  215.44    7.91
  -3   4   7  208.30   16.50
  -3   4   7  221.71   13.55
  -3   4   6   58.48    3.23
   3  -4  -6   70.11    7.20
   3  -4  -6   60.52    5.27
  -3   4   6   65.15    9.30
  -3   4   6   50.92    6.63
   3  -4  -5  324.32   13.02
  -3   4   5  302.91   14.63
   3  -4  -5  319.33   13.78
  -3   4   5  303.21    9.31
  -3   4   5  340.64   18.90
   3  -4  -4  158.63    9.64
  -3   4   4  155.85    5.68
  -3   4   4  160.26   10.33
   3  -4  -4  171.27   10.22
   3  -4  -4  164.65    9.41
  -3   4   4  171.45   12.46
  -3   4   3  550.80   17.86
   3  -4  -3  513.22    9.22
   3  -4  -3  564.88   18.60
   3  -4  -3  563.52   19.34
   3  -4  -3  546.96   15.95
  -3   4   3  523.87    8.62
  -3   4   3  585.03   20.99
  -3   4   2   72.03    7.11
   3  -4  -2   68.92    3.00
   3  -4  -2   61.87    6.85
   3  -4  -2   70.26    5.01
  -3   4   2   62.36    6.14
   3  -4  -2   74.98    7.89
   3  -4  -2   66.89    5.61
   3  -4  -1  990.28   10.96
  -3   4   1 1016.29   22.98
   3  -4  -1 1032.13   26.69
  -3   4   1  975.75   23.04
   3  -4  -1 1044.94   12.92
   3  -4  -1  960.16   22.27
   3  -4  -1  975.30   27.78
  -3   4   1  928.20   16.71
   3  -4  -1  966.66   16.71
   3  -4  -1 1017.34   20.47
   3  -4   0  328.68   12.53
  -3   4   0  352.44   13.52
  -3   4   0  323.98   12.40
   3  -4   0  337.83    9.07
   3  -4   0  358.22   16.59
   3  -4   0  343.22    7.74
  -3   4   0  331.46   11.93
   3  -4   0  335.51   17.49
   3  -4   0  352.09   12.21
   3  -4   0  347.97   11.16
  -3   4  -1  831.04   20.19
  -3   4  -1  823.45   16.18
  -3   4  -1  830.67   18.77
   3  -4   1  851.92   26.44
  -3   4  -1  840.32   19.98
   3  -4   1  830.62   16.86
   3  -4   1  801.09   28.08
   3  -4   1  883.24   19.71
   3  -4   1  786.89   14.66
  -3   4  -2   35.39    3.44
  -3   4  -2   33.72    4.60
   3  -4   2   29.83    6.48
  -3   4  -2   32.26    4.46
   3  -4   2   31.55    4.18
   3  -4   2   28.05    6.58
   3  -4   2   35.03    4.49
   3  -4   2   31.60    2.67
  -3   4  -2   32.51    4.36
  -3   4  -3  258.12   11.46
   3  -4   3  255.79   12.60
  -3   4  -3  266.26   12.67
  -3   4  -3  271.72   12.61
   3  -4   3  257.59   15.99
   3  -4   3  274.35   16.66
  -3   4  -3  261.55    8.70
   3  -4   3  260.86   12.07
   3  -4   3  242.49    5.39
   3  -4   4    3.86    2.86
   3  -4   4    4.53    4.41
  -3   4  -4    3.91    3.25
  -3   4  -4    4.13    2.40
  -3   4  -4   -0.02    2.44
   3  -4   4   -1.11    2.86
  -3   4  -4    0.72    1.25
  -3   4  -5  180.07    9.98
  -3   4  -5  180.30   12.31
  -3   4  -5  185.90   12.27
   3  -4   5  147.35   12.08
  -3   4  -5  190.83   12.97
   3  -4   5  187.16   12.11
  -3   4  -6   12.68    3.02
   3  -4   6    6.64    3.75
  -3   4  -6    6.81    3.67
  -3   4  -6   11.74    4.31
  -3   4  -6   15.65    5.01
   3  -4   6    5.19    4.24
  -3   4  -7  153.77   13.60
  -3   4  -7  138.99   12.54
   3  -4   7  131.30   13.96
  -3   4  -7  153.55   14.02
   3  -4   7  128.51   12.25
   3  -4   8    5.22    3.61
  -3   4  -8   -7.16    3.76
  -3   4  -8    5.56    3.88
  -3   4  -8   -0.24    3.71
   3  -4   8   -1.85    4.18
   3  -4   9   62.27   10.01
  -3   4  -9   58.84    9.50
  -3   4  -9   57.15    9.37
  -3   4  -9   68.22   11.14
   3  -4   9   63.70   10.57
   3  -3 -11   29.16    8.02
  -3   3  11   27.64    6.87
   3  -3 -11   30.29    7.81
   3  -3 -11   24.81    6.96
   3  -3 -10   39.21    8.57
   3  -3 -10   39.49    8.48
  -3   3  10   31.10    7.13
   3  -3 -10   32.56    7.36
  -3   3   9   77.45    7.56
   3  -3  -9   73.47   10.05
  -3   3   9   68.67    7.95
  -3   3   9   74.08   10.39
  -3   3   8  109.75    8.26
   3  -3  -8  100.72   10.42
  -3   3   8   84.74   10.69
  -3   3   7   70.03    6.12
   3  -3  -7   52.89    7.03
  -3   3   7   68.16    9.36
  -3   3   6  110.70    6.84
   3  -3  -6  110.90    8.98
   3  -3  -6  109.73    5.22
   3  -3  -5  492.77   12.55
  -3   3   5  495.26   12.38
   3  -3  -5  504.72   17.18
  -3   3   5  508.02   21.46
   3  -3  -4    3.32    2.43
  -3   3   4    3.99    1.09
  -3   3   4    9.02    3.86
   3  -3  -4   10.57    3.14
  -3   3   4    0.89    1.27
  -3   3   3  975.73   10.87
  -3   3   3 1061.20   26.01
  -3   3   3 1017.30    9.82
   3  -3  -3  980.06   10.84
   3  -3  -3 1050.67   21.33
   3  -3  -3 1070.64   22.90
  -3   3   3 1044.73   23.37
   3  -3  -2  284.61    5.27
  -3   3   2  308.98   12.46
   3  -3  -2  320.98   13.39
  -3   3   2  296.53    5.99
   3  -3  -2  321.72   11.52
  -3   3   2  327.95   13.33
   3  -3  -1  877.39   23.14
  -3   3   1  875.15   20.13
  -3   3   1  859.74   20.03
   3  -3  -1  856.87   11.58
  -3   3   1  863.19   12.82
   3  -3  -1  873.26   23.33
   3  -3  -1  877.77   18.29
  -3   3   1  844.51   23.30
  -3   3   0   49.53    4.84
   3  -3   0   50.42    6.64
   3  -3   0   54.52    3.61
  -3   3   0   49.75    4.84
  -3   3   0   53.67    4.04
   3  -3   0   45.83    6.32
   3  -3   0   49.43    2.32
  -3   3   0   52.13    5.63
   3  -3   0   55.52    4.83
   3  -3   0   54.81    4.40
  -3   3  -1  593.69   15.83
   3  -3   1  603.90   13.37
   3  -3   1  595.60   21.28
  -3   3  -1  611.10   13.81
  -3   3  -1  608.62   15.09
  -3   3  -1  595.53   16.03
  -3   3  -1  583.52   15.19
  -3   3  -1  585.33   16.29
   3  -3   1  606.26   15.66
   3  -3   1  596.88   12.66
  -3   3  -2  148.86    7.90
  -3   3  -2  144.38    6.68
  -3   3  -2  155.30    8.31
   3  -3   2  153.50    7.93
  -3   3  -2  145.78    8.36
  -3   3  -2  142.54    7.11
   3  -3   2  155.35    8.49
   3  -3   2  144.05    5.66
   3  -3   3  808.30   26.42
  -3   3  -3  796.73   15.55
  -3   3  -3  805.46   20.75
   3  -3   3  817.53   20.54
  -3   3  -3  799.91   19.78
  -3   3  -3  752.47   13.90
  -3   3  -3  793.07   17.95
   3  -3   3  797.12   19.95
   3  -3   3  766.53   11.46
  -3   3  -4   56.18    5.12
  -3   3  -4   47.30    5.74
  -3   3  -4   42.62    5.56
   3  -3   4   47.03    6.13
  -3   3  -4   42.39    3.85
  -3   3  -4   37.16    2.70
   3  -3   4   46.78    5.69
  -3   3  -5  407.59   13.27
  -3   3  -5  421.49   17.42
  -3   3  -5  390.59   17.00
   3  -3   5  385.84   18.08
  -3   3  -5  424.23   18.16
   3  -3   5  399.85   16.83
  -3   3  -6   12.45    4.29
   3  -3   6   15.30    4.14
  -3   3  -6   12.30    2.89
  -3   3  -6   11.30    4.11
  -3   3  -6   22.36    5.29
   3  -3   6   17.31    5.75
  -3   3  -7  175.84   13.51
   3  -3   7  198.12   15.81
  -3   3  -7  178.59   13.80
  -3   3  -7  205.98   15.36
   3  -3   7  177.21   13.70
   3  -3   8    3.40    3.40
  -3   3  -8   10.46    4.78
  -3   3  -8    2.78    3.65
  -3   3  -8    2.68    3.56
   3  -3   8    1.40    3.87
   3  -3   9   80.50   10.86
  -3   3  -9   84.26   10.90
  -3   3  -9   93.29   11.50
   3  -3   9  118.53   13.52
  -3   3  -9   82.64   11.70
   3  -3  10    5.48    3.60
  -3   3 -10    3.61    3.04
  -3   3 -10   -5.64    3.73
  -3   3 -10   -3.47    3.74
   3  -3  10    7.53    4.41
   3  -2 -11   15.97    6.18
  -3   2  11   13.92    5.65
   3  -2 -11   15.24    5.55
   3  -2 -11   12.18    5.01
   3  -2 -10   45.35    8.86
   3  -2 -10   42.99    8.49
  -3   2  10   41.72    8.01
   3  -2 -10   49.19    9.15
  -3   2  10   39.39    6.13
   3  -2  -9   72.72    9.99
   3  -2  -9   71.81    9.99
  -3   2   9   69.27    7.70
   3  -2  -9   65.02    9.86
  -3   2   9   60.51    9.06
   3  -2  -8   20.03    5.39
  -3   2   8   12.38    4.44
  -3   2   8   17.38    3.93
  -3   2   7  321.70   14.08
   3  -2  -7  344.90   17.47
  -3   2   7  336.12   19.26
  -3   2   6   84.00    6.94
   3  -2  -6  100.53    8.87
  -3   2   6   89.86    4.35
  -3   2   6   98.57   10.04
  -3   2   5  439.02    7.06
  -3   2   5  460.72   13.71
  -3   2   5  466.11   14.65
   3  -2  -5  452.71   16.58
  -3   2   5  493.65   19.96
   3  -2  -4  377.63    9.27
  -3   2   4  393.56   13.78
  -3   2   4  387.15   11.17
   3  -2  -4  389.39   14.08
  -3   2   4  409.81   16.59
  -3   2   3  895.91   22.19
   3  -2  -3  881.72   16.64
  -3   2   3  872.77   12.24
   3  -2  -3  825.00    8.22
  -3   2   3  905.65   22.24
   3  -2  -3  869.30   19.05
   3  -2  -2  191.46    3.96
   3  -2  -2  209.78    9.39
  -3   2   2  198.07    9.80
  -3   2   2  208.44    5.84
   3  -2  -2  214.05    9.06
  -3   2   2  217.65   11.59
  -3   2   1 1782.23   17.52
  -3   2   1 1791.01   24.69
   3  -2  -1 1848.00   25.43
  -3   2   1 1838.66   30.47
   3  -2  -1 1856.94   31.42
  -3   2   0  712.20   16.29
   3  -2   0  764.72   12.86
   3  -2   0  748.95   21.43
   3  -2   0  748.22   14.44
  -3   2   0  746.67   16.42
  -3   2   0  718.75   12.73
  -3   2   0  746.31   18.30
  -3   2   0  747.78   17.83
   3  -2   0  780.53   16.40
   3  -2   0  743.23   15.64
  -3   2  -1  929.15   17.94
  -3   2  -1  956.23   17.27
   3  -2   1  926.29   15.83
  -3   2  -1  944.17   16.49
   3  -2   1  914.81   16.55
  -3   2  -1  935.04   18.85
  -3   2  -1  954.38   17.06
   3  -2   1  944.47   25.47
  -3   2  -1  948.48   18.49
   3  -2   1  981.64   18.75
   3  -2   1  909.40   15.66
  -3   2  -2  329.08   10.48
  -3   2  -2  326.10   10.47
  -3   2  -2  319.64    9.99
   3  -2   2  313.97   15.35
   3  -2   2  332.21   10.78
  -3   2  -2  326.21   11.64
  -3   2  -2  326.53   10.16
   3  -2   2  337.21   11.63
   3  -2   2  334.91    8.95
  -3   2  -3  875.27   16.68
   3  -2   3  884.85   19.91
  -3   2  -3  877.45   20.49
  -3   2  -3  878.45   16.87
  -3   2  -3  857.89   15.59
   3  -2   3  858.74   19.72
   3  -2   3  838.61   13.33
  -3   2  -3  880.67   18.79
  -3   2  -4   52.09    4.34
  -3   2  -4   49.79    5.54
  -3   2  -4   58.48    6.11
   3  -2   4   63.10    6.42
  -3   2  -4   58.46    6.43
  -3   2  -4   54.74    3.97
   3  -2   4   56.12    6.16
  -3   2  -5  636.00   20.04
  -3   2  -5  613.71   14.18
   3  -2   5  610.28   16.54
  -3   2  -5  611.64   20.36
   3  -2   5  602.39   20.85
  -3   2  -5  660.00   21.22
  -3   2  -5  613.46   12.67
   3  -2   5  621.49   20.09
  -3   2  -6   29.20    3.33
  -3   2  -6   25.55    5.22
   3  -2   6   29.24    5.37
   3  -2   6   29.40    4.11
  -3   2  -6   35.83    5.84
  -3   2  -6   30.52    5.49
  -3   2  -6   24.49    2.72
   3  -2   6   24.22    5.28
   3  -2   7  360.31   14.53
  -3   2  -7  370.95   19.19
   3  -2   7  361.36   20.03
  -3   2  -7  390.82   19.88
   3  -2   7  370.40   19.12
   3  -2   8    5.35    4.12
  -3   2  -8    0.02    3.53
   3  -2   8    4.32    2.03
  -3   2  -8    0.85    3.27
  -3   2  -8   -1.17    2.59
   3  -2   8   10.21    5.31
  -3   2  -9  127.27   12.66
   3  -2   9  128.18   13.81
  -3   2  -9  116.15   12.58
  -3   2  -9  107.48   12.72
   3  -2   9  113.38   12.79
   3  -2  10   13.83    5.37
  -3   2 -10   27.18    6.13
  -3   2 -10   15.04    4.96
  -3   2 -10   20.36    6.14
   3  -2  10   24.88    6.89
   3  -1 -11   21.54    6.39
  -3   1  11   28.91    6.28
   3  -1 -11   30.20    7.19
   3  -1 -11   18.46    5.71
  -3   1  11   24.43    5.89
   3  -1 -10   28.34    7.18
   3  -1 -10   20.19    6.15
  -3   1  10   32.96    6.76
   3  -1 -10   29.39    7.21
  -3   1  10   26.25    5.81
   3  -1  -9   68.77    9.95
  -3   1   9   68.56    8.13
   3  -1  -9   52.78    8.60
  -3   1   9   45.07    7.49
   3  -1  -9   65.12    9.75
  -3   1   8  182.17   12.25
   3  -1  -8  170.29   13.81
   3  -1  -8  166.96   14.15
  -3   1   8  139.62   12.65
   3  -1  -8  206.26   15.53
  -3   1   7  234.85   13.14
   3  -1  -7  254.90   15.72
   3  -1  -7  241.22   15.27
  -3   1   7  218.98   15.28
  -3   1   6  214.54    8.92
  -3   1   6  198.30    6.67
  -3   1   6  206.84   11.79
   3  -1  -6  207.87   12.78
  -3   1   6  194.69   13.39
  -3   1   6  206.05    6.25
  -3   1   5  539.86   11.71
  -3   1   5  563.52   13.61
  -3   1   5  557.48   17.23
   3  -1  -5  581.87   19.05
  -3   1   5  556.39   20.21
  -3   1   4  403.49    8.46
  -3   1   4  389.23   15.24
  -3   1   4  393.93   12.64
   3  -1  -4  417.41   14.61
  -3   1   4  401.09   12.30
  -3   1   4  413.34   17.16
   3  -1  -4  406.51    7.84
  -3   1   3  965.32   11.60
   3  -1  -3  949.01   10.95
  -3   1   3  999.71   21.41
   3  -1  -3  952.94   20.04
   3  -1  -3  991.33   20.21
   3  -1  -3  947.87   12.08
  -3   1   3  979.21   24.18
  -3   1   3  974.01   21.91
   3  -1  -2  762.51    9.93
  -3   1   2  761.38   11.91
  -3   1   2  761.89   12.59
   3  -1  -2  773.25   10.87
  -3   1   2  772.72   18.04
  -3   1   2  774.66   19.61
   3  -1  -2  783.38   16.70
  -3   1   2  795.06   20.04
  -3   1   1 1587.54   21.81
   3  -1  -1 1603.90   15.58
  -3   1   1 1617.01   18.24
   3  -1  -1 1617.24   23.03
  -3   1   1 1647.37   26.56
   3  -1   0  813.00   13.41
  -3   1   0  819.35   18.82
   3  -1   0  821.57   12.80
  -3   1   0  814.78   13.40
  -3   1   0  799.74   15.77
   3  -1   0  813.83   16.15
  -3   1   0  810.99   17.37
   3  -1   0  808.14   16.11
  -3   1  -1 2230.70   26.25
   3  -1   1 2287.95   24.48
  -3   1  -1 2190.60   27.12
  -3   1  -1 2219.94   24.40
  -3   1  -1 2230.47   35.69
  -3   1  -1 2322.15   27.29
   3  -1   1 2212.18   26.99
   3  -1   1 2215.90   24.73
  -3   1  -1 2218.69   21.41
   3  -1   1 2159.52   21.57
  -3   1  -2  423.73   11.60
  -3   1  -2  453.51   10.81
   3  -1   2  443.69   11.17
   3  -1   2  440.58   11.99
  -3   1  -2  432.26   10.93
  -3   1  -2  436.07   12.72
  -3   1  -2  432.80   11.42
   3  -1   2  454.24   12.73
   3  -1   2  428.71   10.51
   3  -1   3  465.04   13.46
   3  -1   3  474.80   13.80
  -3   1  -3  466.44   14.17
  -3   1  -3  463.78   12.32
  -3   1  -3  460.18   11.58
   3  -1   3  476.12   13.99
   3  -1   3  451.43   10.60
  -3   1  -3  470.00   10.96
  -3   1  -4  376.47    9.56
   3  -1   4  353.00   11.91
  -3   1  -4  352.16   12.37
   3  -1   4  364.21   13.60
  -3   1  -4  371.74   13.89
  -3   1  -4  377.65   13.68
  -3   1  -4  365.48   10.59
   3  -1   4  373.48   13.64
  -3   1  -5  499.65   16.93
  -3   1  -5  516.88   10.99
   3  -1   5  515.77   15.52
   3  -1   5  542.69   18.50
  -3   1  -5  519.12   18.03
  -3   1  -5  537.78   18.08
  -3   1  -5  496.58   12.77
   3  -1   5  539.30   17.98
  -3   1  -6   79.19    7.96
  -3   1  -6   91.13    4.57
   3  -1   6   79.06    6.81
   3  -1   6   87.73    8.55
  -3   1  -6   84.88    8.40
  -3   1  -6   92.99    8.42
  -3   1  -6   85.74    5.79
   3  -1   6   79.76    7.93
   3  -1   7  265.46   13.22
   3  -1   7  278.32   16.45
  -3   1  -7  291.39   16.65
  -3   1  -7  281.63   16.13
  -3   1  -7  280.36   10.82
   3  -1   7  279.56   16.08
  -3   1  -7  262.06   15.53
   3  -1   8   81.68    8.03
   3  -1   8   85.52   10.45
  -3   1  -8   85.78   10.27
  -3   1  -8   68.12    9.14
  -3   1  -8   58.70    8.03
   3  -1   8   77.02    9.51
   3  -1   9  143.16   10.81
  -3   1  -9  142.71   12.93
   3  -1   9  173.83   15.70
  -3   1  -9  151.79   14.04
  -3   1  -9  147.12   14.26
   3  -1   9  147.37   14.19
   3  -1  10    4.94    3.71
  -3   1 -10   -0.59    3.26
  -3   1 -10    8.26    4.75
  -3   1 -10    3.17    3.54
   3  -1  10   11.74    5.55
   3  -1  11   34.61    7.68
  -3   1 -11   35.71    7.40
  -3   1 -11   27.47    6.95
  -3   1 -11   29.50    7.14
   3  -1  11   34.74    7.80
   3   0 -11   14.74    5.54
  -3   0  11   15.29    4.55
   3   0 -11   22.67    6.32
  -3   0  11   18.05    4.97
   3   0 -10   62.84    9.55
  -3   0  10   59.91    8.59
   3   0 -10   59.90    9.33
   3   0 -10   54.03    9.82
  -3   0  10   60.48    8.51
   3   0  -9   62.11    9.29
   3   0  -9   64.12    9.28
  -3   0   9   61.98    8.24
   3   0  -9   54.97    8.87
  -3   0   9   56.13    8.15
   3   0  -8  122.66   11.77
   3   0  -8  121.54   11.82
  -3   0   8  106.69   10.13
   3   0  -8  105.17   11.84
  -3   0   8  100.54   10.45
   3   0  -7  197.39   14.00
   3   0  -7  177.95   13.08
  -3   0   7  178.01   12.36
   3   0  -7  182.82   13.94
  -3   0   7  163.59   12.83
   3   0  -6  357.48   17.56
  -3   0   6  304.12    7.46
  -3   0   6  323.16   15.82
   3   0  -6  325.63   16.59
  -3   0   6  316.99   10.68
  -3   0   6  309.20   16.21
  -3   0   5  537.74   12.48
   3   0  -5  569.29   19.90
  -3   0   5  570.06   14.80
  -3   0   5  569.77   12.91
  -3   0   5  564.05   18.38
   3   0  -5  598.31   19.95
  -3   0   5  592.37   20.03
  -3   0   4  852.73   15.66
  -3   0   4  865.05   14.24
   3   0  -4  871.31   14.87
   3   0  -4  898.35   21.94
  -3   0   4  871.08   23.43
   3   0  -4  868.74   16.90
   3   0  -3  930.35   14.77
  -3   0   3  927.84   14.42
  -3   0   3  916.72   20.27
   3   0  -3  911.21   13.40
   3   0  -3  983.03   20.47
  -3   0   3  950.69   22.29
  -3   0   2 1025.52   14.19
   3   0  -2 1035.69   13.98
  -3   0   2 1026.41   12.46
   3   0  -2 1023.67   18.73
  -3   0   2 1061.75   21.92
   3   0  -2 1017.44   14.03
   3   0  -1   81.27    4.00
  -3   0   1   85.20    5.18
  -3   0   1   83.87    4.57
  -3   0   1   81.59    3.00
   3   0  -1   86.89    4.34
   3   0  -1   86.93    4.93
   3   0  -1   74.91    5.00
  -3   0   1   81.69    5.09
  -3   0   1   91.32    6.16
  -3   0   0  470.92   14.14
   3   0   0  475.06   10.70
  -3   0   0  477.05   10.94
  -3   0   0  477.12   11.39
   3   0   0  478.09   11.36
   3   0   0  475.34   11.80
  -3   0   0  473.67   12.74
  -3   0   0  497.04   11.94
   3   0   0  443.93   12.00
   3   0   0  476.76   10.05
   3   0   0  452.07    7.50
   3   0   1  351.58    6.77
  -3   0  -1  365.59   10.70
  -3   0  -1  334.24   13.05
   3   0   1  370.17   10.08
   3   0   1  343.86    6.88
  -3   0  -1  363.72    9.87
  -3   0  -1  354.20   10.08
   3   0   1  357.45   10.16
   3   0   1  344.98   10.06
  -3   0  -1  359.64   10.67
   3   0   1  369.27   10.41
  -3   0  -1  373.38   10.58
  -3   0  -2  455.22    9.00
  -3   0  -2  488.82   12.53
   3   0   2  466.69   10.28
   3   0   2  477.53   12.31
  -3   0  -2  468.17   11.96
  -3   0  -2  484.06   12.53
   3   0   2  483.90   12.20
  -3   0  -2  471.64   12.17
   3   0   2  478.83   12.33
   3   0   2  472.72   11.48
   3   0   3 1684.61   24.63
  -3   0  -3 1618.03   20.51
   3   0   3 1686.86   25.16
  -3   0  -3 1690.97   25.46
   3   0   3 1692.55   24.93
  -3   0  -3 1644.33   22.84
   3   0   3 1693.31   25.01
   3   0   3 1637.18   21.51
  -3   0  -3 1622.72   18.58
   3   0   4  257.24   10.47
   3   0   4  268.37   12.16
  -3   0  -4  267.16   10.29
   3   0   4  279.83   11.36
  -3   0  -4  252.92    6.78
  -3   0  -4  245.75   10.93
  -3   0  -4  263.36   10.65
  -3   0  -4  262.81    9.63
   3   0   4  266.96   11.11
  -3   0  -5  759.12   10.63
  -3   0  -5  798.14   20.61
   3   0   5  768.81   20.72
  -3   0  -5  760.64   19.90
  -3   0  -5  780.60   21.53
   3   0   5  782.45   19.61
  -3   0  -5  759.98   17.15
   3   0   5  786.37   20.99
  -3   0  -6  140.67   10.16
   3   0   6  144.76   10.27
  -3   0  -6  148.68   10.68
  -3   0  -6  130.06    9.38
  -3   0  -6  145.90    8.21
   3   0   6  136.44    9.18
   3   0   6  155.76   10.56
   3   0   7  346.41   15.58
   3   0   7  376.04   17.88
  -3   0  -7  370.45   18.42
  -3   0  -7  384.99   17.85
  -3   0  -7  378.13   13.95
   3   0   7  359.51   17.87
  -3   0  -7  369.82   17.74
   3   0   8   67.29    7.64
  -3   0  -8   54.36    7.56
   3   0   8   75.91    9.11
  -3   0  -8   64.92    8.91
  -3   0  -8   76.45    9.27
  -3   0  -8   71.42    6.75
   3   0   8   61.56    8.58
  -3   0  -9  147.37   12.66
   3   0   9  138.85   13.40
  -3   0  -9  120.29   12.32
  -3   0  -9  138.21   13.36
  -3   0  -9  136.77    9.19
   3   0   9  124.67   12.91
   3   0   9  116.81   10.36
   3   0  10    9.51    4.39
  -3   0 -10   16.45    4.93
  -3   0 -10   21.80    6.19
   3   0  10   16.69    4.45
  -3   0 -10   16.35    5.69
   3   0  10   17.28    5.67
  -3   0 -11   55.65    9.02
   3   0  11   47.04    9.10
  -3   0 -11   62.08   10.11
  -3   0 -11   50.53    8.97
   3   0  11   47.93    9.22
   3   1 -11    9.05    4.61
  -3  -1  11    3.45    3.37
   3   1 -10   58.64    9.05
  -3  -1  10   50.15    7.41
  -3  -1  10   63.73    9.17
   3   1 -10   56.18    8.43
   3   1 -10   68.71   10.04
   3   1  -9   41.40    7.38
   3   1  -9   58.77    8.32
  -3  -1   9   63.09    8.67
  -3  -1   9   54.55    7.62
   3   1  -9   57.07    9.00
   3   1  -8   88.42   10.02
   3   1  -8   88.08    9.98
  -3  -1   8   80.42    9.50
   3   1  -8   90.60   11.02
  -3  -1   8   72.80    8.67
   3   1  -7  129.96   11.33
   3   1  -7  123.25   10.92
  -3  -1   7  117.05   10.93
   3   1  -7  141.43   13.12
  -3  -1   7  117.46   10.54
   3   1  -6  362.69   17.34
   3   1  -6  347.21   16.47
  -3  -1   6  366.96   17.79
   3   1  -6  342.23   17.99
  -3  -1   6  330.44   16.18
   3   1  -5  247.58   13.37
   3   1  -5  237.93   13.48
  -3  -1   5  247.82   12.97
  -3  -1   5  223.22   12.53
  -3  -1   5  213.00   11.73
  -3  -1   4  393.01   14.07
   3   1  -4  384.85   11.61
   3   1  -4  377.31   12.45
   3   1  -4  382.51   15.36
   3   1  -4  405.06   15.47
  -3  -1   4  386.44   11.60
  -3  -1   4  378.89   14.81
   3   1  -3  328.61   12.73
  -3  -1   3  338.62   10.34
   3   1  -3  344.11   10.43
  -3  -1   3  328.40   11.76
  -3  -1   3  341.22   10.07
   3   1  -3  335.68    9.70
   3   1  -3  353.16   12.88
  -3  -1   3  333.36   12.77
  -3  -1   2 1115.53   17.24
   3   1  -2 1152.06   20.15
   3   1  -2 1152.62   16.88
   3   1  -2 1137.81   20.25
   3   1  -2 1132.77   19.41
  -3  -1   2 1177.26   22.11
   3   1  -2 1170.67   17.42
   3   1  -1 1827.30   20.81
  -3  -1   1 1764.55   18.04
  -3  -1   1 1814.92   21.00
   3   1  -1 1797.73   20.98
   3   1  -1 1770.55   19.84
   3   1  -1 1830.35   20.97
   3   1  -1 1801.79   22.79
  -3  -1   1 1803.35   22.79
  -3  -1   1 1835.42   25.83
   3   1   0  958.01   15.61
   3   1   0  928.36   14.93
  -3  -1   0  939.46   17.37
  -3  -1   0  955.55   16.18
   3   1   0  921.60   14.57
  -3  -1   0  915.72   12.11
   3   1   0  927.81   15.63
  -3  -1   0  927.47   15.54
  -3  -1   0  931.75   17.76
   3   1   0  946.68   17.81
  -3  -1  -1 1078.40   18.59
   3   1   1 1051.32   17.27
  -3  -1  -1 1106.14   17.93
  -3  -1  -1 1058.38   15.91
   3   1   1 1043.88   16.14
   3   1   1 1087.21   16.80
  -3  -1  -1 1077.58   18.49
   3   1   1 1094.47   18.58
  -3  -1  -1 1072.93   17.00
   3   1   1 1054.34   13.55
   3   1   2  293.73   10.04
  -3  -1  -2  277.50    5.40
   3   1   2  308.12   10.02
   3   1   2  301.16    8.01
  -3  -1  -2  289.48    9.08
   3   1   2  302.85    8.88
   3   1   2  295.97    9.33
   3   1   2  293.95    9.15
  -3  -1  -2  294.83    9.73
   3   1   2  303.27    9.69
  -3  -1  -2  299.92    9.32
   3   1   3 1396.16   22.97
  -3  -1  -3 1457.96   17.91
  -3  -1  -3 1419.60   22.25
   3   1   3 1429.33   20.77
  -3  -1  -3 1443.99   22.38
   3   1   3 1405.52   21.46
   3   1   3 1422.76   21.32
   3   1   4  570.99   15.68
  -3  -1  -4  582.35   15.98
  -3  -1  -4  581.73   14.66
  -3  -1  -4  600.90   14.65
  -3  -1  -4  565.11   14.63
   3   1   4  570.95   15.24
   3   1   4  568.41   15.86
   3   1   5  819.71   20.66
  -3  -1  -5  813.05   20.97
  -3  -1  -5  781.21    8.41
   3   1   5  887.32   21.29
  -3  -1  -5  868.38   22.08
  -3  -1  -5  867.04   19.61
  -3  -1  -5  834.60   19.03
   3   1   5  865.01   20.83
   3   1   6  354.98   14.96
  -3  -1  -6  361.06   15.70
   3   1   6  356.18   14.97
  -3  -1  -6  347.05   15.86
  -3  -1  -6  354.20   14.29
  -3  -1  -6  374.03   13.93
   3   1   6  379.02   15.62
  -3  -1  -7  340.44   17.51
  -3  -1  -7  324.62   15.95
   3   1   7  323.47   15.77
  -3  -1  -7  326.38   15.72
  -3  -1  -7  337.09   14.15
   3   1   7  328.13   16.41
   3   1   7  336.03   15.93
   3   1   8   46.14    7.53
   3   1   8   53.65    7.36
   3   1   8   52.46    7.49
  -3  -1  -8   58.40    8.44
  -3  -1  -8   53.68    7.41
  -3  -1  -8   47.78    6.85
  -3  -1  -8   62.95    6.81
  -3  -1  -9  130.29   11.68
   3   1   9  133.22   12.23
  -3  -1  -9  137.17   13.12
   3   1   9  131.93   11.66
  -3  -1  -9   97.43   10.71
  -3  -1  -9  138.37   10.31
   3   1   9  143.26   13.43
   3   1  10   57.66    9.69
  -3  -1 -10   63.49    8.83
   3   1  10   60.56    8.13
  -3  -1 -10   60.60    9.13
  -3  -1 -10   64.22    9.67
   3   1  10   62.47    9.62
  -3  -1 -10   68.70    7.48
   3   1  11   58.48    9.93
   3   1  11   62.98    8.41
  -3  -1 -11   69.46   10.17
  -3  -1 -11   69.33   10.24
   3   1  11   70.87   10.84
  -3  -1 -11   69.51    9.34
  -3  -1 -12    5.73    2.85
  -3  -1 -12    1.69    1.91
   3   2 -11    6.37    3.59
   3   2 -10   34.34    6.98
   3   2 -10   26.87    6.11
   3   2 -10   36.53    7.53
  -3  -2  10   28.37    6.75
   3   2  -9   38.70    7.43
   3   2  -9   31.71    6.42
   3   2  -9   37.67    7.50
  -3  -2   9   32.90    6.98
   3   2  -8  201.43   14.77
   3   2  -8  201.10   14.07
  -3  -2   8  186.62   14.83
   3   2  -8  218.42   16.71
  -3  -2   8  200.15   13.27
   3   2  -7  115.37   10.69
   3   2  -7  125.63   10.71
  -3  -2   7  129.68   11.98
   3   2  -7  118.84   11.95
  -3  -2   7  119.60   10.12
   3   2  -6  361.30   17.01
  -3  -2   6  325.97   17.70
   3   2  -6  347.36   19.14
   3   2  -6  349.34   16.93
  -3  -2   6  317.60   15.34
   3   2  -5  246.43   12.57
   3   2  -5  262.58   13.77
   3   2  -5  229.36   11.32
   3   2  -5  265.90   13.36
   3   2  -5  257.54   15.08
  -3  -2   5  232.31   13.51
  -3  -2   5  240.68   12.64
  -3  -2   5  247.46   12.21
   3   2  -4  807.05   20.10
  -3  -2   4  779.24   19.26
   3   2  -4  807.03   19.04
  -3  -2   4  723.85    8.83
   3   2  -4  774.69   21.55
   3   2  -4  804.07   23.46
  -3  -2   4  774.58   20.48
   3   2  -3  543.58   14.91
  -3  -2   3  523.05   14.55
   3   2  -3  525.09   16.07
   3   2  -3  537.08   14.35
   3   2  -3  537.42   17.18
  -3  -2   3  538.59   15.77
   3   2  -2  716.65   15.51
   3   2  -2  707.42   16.09
   3   2  -2  727.72   15.27
   3   2  -2  704.33   16.82
  -3  -2   2  722.37   16.99
  -3  -2   1  604.51   14.47
   3   2  -1  628.61   11.25
  -3  -2   1  606.80   13.70
  -3  -2   1  633.97   14.24
   3   2  -1  618.19   13.66
  -3  -2   1  632.45   12.77
   3   2  -1  579.04   10.79
   3   2  -1  610.77   13.65
   3   2  -1  608.43   12.82
   3   2  -1  617.25   13.66
  -3  -2   1  613.26   13.01
  -3  -2   1  604.65   14.83
  -3  -2   0  923.53   14.58
   3   2   0  926.01   16.15
  -3  -2   0  875.85   16.97
   3   2   0  913.22   16.42
   3   2   0  898.74   13.10
  -3  -2   0  938.81   16.61
   3   2   0  904.82   14.72
  -3  -2   0  901.19   14.66
  -3  -2   0  892.92   17.56
  -3  -2  -1 1416.90   18.00
  -3  -2  -1 1417.07   21.73
   3   2   1 1484.34   18.51
   3   2   1 1451.80   21.10
  -3  -2  -1 1416.88   16.76
   3   2   1 1397.70   17.03
   3   2   1 1452.76   18.10
  -3  -2  -1 1460.33   22.17
  -3  -2  -1 1417.12   18.29
   3   2   1 1420.31   20.45
   3   2   2 1432.21   21.39
   3   2   2 1358.57   21.76
   3   2   2 1412.86   21.30
  -3  -2  -2 1374.04   18.21
   3   2   2 1386.00   19.13
   3   2   2 1378.75   17.17
   3   2   2 1399.64   18.57
  -3  -2  -2 1415.35   22.32
  -3  -2  -2 1368.77   18.71
   3   2   2 1405.93   18.79
   3   2   3  643.30   16.03
  -3  -2  -3  633.80   12.27
  -3  -2  -3  629.26   13.93
   3   2   3  624.71   14.82
   3   2   3  649.02   15.48
   3   2   3  625.41   12.48
  -3  -2  -3  625.56   15.33
   3   2   3  625.11   13.48
  -3  -2  -3  618.44   13.83
  -3  -2  -4  343.01   11.83
   3   2   4  375.13   13.23
   3   2   4  367.97   12.53
  -3  -2  -4  357.79   12.24
   3   2   4  359.36   10.78
  -3  -2  -4  370.73   12.70
   3   2   4  366.29   11.49
  -3  -2  -5  622.32    8.33
   3   2   5  655.38   17.87
   3   2   5  665.12   19.27
  -3  -2  -5  630.91   18.26
  -3  -2  -5  652.85   18.77
  -3  -2  -5  647.16   15.69
  -3  -2  -5  659.74   17.94
   3   2   5  668.80   17.46
  -3  -2  -6  587.87   19.26
   3   2   6  588.25   19.78
   3   2   6  574.40   18.24
  -3  -2  -6  585.86   20.17
  -3  -2  -6  581.98   16.92
  -3  -2  -6  595.40   18.43
   3   2   6  564.23   18.48
  -3  -2  -7  425.56   17.94
   3   2   7  421.58   18.37
   3   2   7  439.84   17.45
  -3  -2  -7  413.09   19.08
  -3  -2  -7  428.07   16.67
  -3  -2  -7  414.35   16.81
   3   2   7  440.56   18.30
   3   2   8  327.62   17.58
  -3  -2  -8  360.89   17.67
   3   2   8  356.56   17.30
  -3  -2  -8  358.86   19.74
  -3  -2  -8  362.27   17.39
  -3  -2  -8  358.53   16.93
   3   2   8  352.62   18.54
   3   2   9   77.56    9.31
  -3  -2  -9   79.98    9.06
   3   2   9   98.71   10.26
  -3  -2  -9   99.90   11.12
  -3  -2  -9   89.91    9.92
  -3  -2  -9   96.04    9.46
   3   2   9  107.56   11.57
  -3  -2 -10   14.29    5.11
   3   2  10   29.62    7.02
  -3  -2 -10   20.63    5.24
  -3  -2 -10   17.86    4.51
  -3  -2 -10   27.08    6.09
   3   2  10   21.99    5.34
   3   2  10   22.42    5.87
   3   2  11   39.36    8.62
  -3  -2 -11   31.57    7.13
  -3  -2 -11   40.86    8.17
   3   2  11   24.36    5.80
  -3  -2 -11   34.84    7.31
   3   2  11   38.19    7.96
   3   2  12    0.73    4.01
  -3  -2 -12   -4.01    4.11
   3   2  12    8.31    3.55
  -3  -2 -12    7.77    3.96
   3   2  12   -0.02    4.02
   3   3 -10   78.40   10.38
   3   3 -10   62.11    8.51
  -3  -3  10   47.09    8.74
   3   3  -9   30.81    6.66
   3   3  -9   20.81    4.94
   3   3  -9   29.78    7.00
  -3  -3   9   12.20    5.39
   3   3  -8  129.11   12.01
   3   3  -8  142.44   11.33
  -3  -3   8  127.91   12.99
   3   3  -8  148.03   13.73
  -3  -3   7   40.90    7.64
   3   3  -7   37.61    6.51
   3   3  -7   37.13    5.79
   3   3  -7   45.12    7.59
  -3  -3   7   38.45    5.38
   3   3  -6  374.48   17.99
   3   3  -6  373.00   16.46
  -3  -3   6  365.78   19.74
   3   3  -6  368.46   19.72
  -3  -3   6  361.76   15.99
   3   3  -5   90.82    8.35
   3   3  -5   85.37    8.23
  -3  -3   5   85.32    4.66
   3   3  -5   89.90    7.79
   3   3  -5   88.76    7.90
   3   3  -5  106.51   10.31
  -3  -3   5   94.25    9.42
  -3  -3   5   95.50    7.87
  -3  -3   5   88.88    7.32
  -3  -3   4  518.94   10.96
   3   3  -4  508.94   18.22
   3   3  -4  522.28   17.12
   3   3  -4  550.11   17.32
   3   3  -4  572.02   21.66
  -3  -3   4  529.57   16.63
   3   3  -4  543.68   18.02
  -3  -3   4  510.88   15.18
  -3  -3   3  294.47   10.53
   3   3  -3  299.77   12.47
   3   3  -3  310.74   11.30
   3   3  -3  310.74   12.25
   3   3  -3  328.32   14.51
   3   3  -3  293.22   12.08
  -3  -3   3  313.94   11.91
   3   3  -2  692.28   17.07
   3   3  -2  688.85   15.56
   3   3  -2  694.28   16.72
   3   3  -2  706.67   18.44
  -3  -3   2  684.79   16.60
   3   3  -1  348.61   11.37
   3   3  -1  330.31    8.43
  -3  -3   1  343.33   10.87
   3   3  -1  335.14    7.26
  -3  -3   1  340.69   10.88
   3   3  -1  339.11   10.98
  -3  -3   1  340.77    9.51
  -3  -3   1  346.99   11.54
   3   3  -1  326.11   11.07
  -3  -3   1  331.33   10.67
  -3  -3   0 1676.77   23.94
   3   3   0 1609.41   23.51
   3   3   0 1620.13   23.84
  -3  -3   0 1595.73   18.06
   3   3   0 1549.25   14.73
   3   3   0 1539.36   19.43
   3   3   0 1546.57   18.29
   3   3   0 1608.76   14.03
  -3  -3   0 1599.79   18.68
  -3  -3   0 1602.76   23.99
  -3  -3   0 1601.01   21.93
  -3  -3  -1  664.68   13.95
  -3  -3  -1  601.37    7.17
   3   3   1  635.20   14.79
   3   3   1  636.46   14.48
   3   3   1  649.97   13.87
   3   3   1  654.07   15.19
  -3  -3  -1  645.03    9.90
   3   3   1  629.84   10.37
   3   3   1  643.68   11.33
  -3  -3  -1  644.88   15.30
  -3  -3  -1  646.36   11.58
   3   3   2 1140.90   20.74
   3   3   2 1131.37   20.46
  -3  -3  -2 1083.07    9.60
  -3  -3  -2 1115.46   15.02
  -3  -3  -2 1164.61   18.83
   3   3   2 1133.30   16.89
   3   3   2 1153.25   20.05
   3   3   2 1101.02   15.36
  -3  -3  -2 1137.73   20.86
  -3  -3  -2 1141.97   15.99
   3   3   3  690.82   16.37
  -3  -3  -3  626.80   13.20
   3   3   3  690.33   15.89
   3   3   3  650.62   16.63
   3   3   3  642.87   11.19
   3   3   3  648.60   15.54
   3   3   3  667.73   13.07
  -3  -3  -3  675.02   16.73
   3   3   4 1788.73   27.40
   3   3   4 1742.11   29.32
  -3  -3  -4 1652.86   24.62
  -3  -3  -4 1715.28   25.52
  -3  -3  -4 1653.03   21.27
   3   3   4 1658.10   21.37
  -3  -3  -4 1727.45   28.21
   3   3   4 1674.78   22.97
  -3  -3  -5  338.66    7.61
   3   3   5  380.70   13.63
  -3  -3  -5  359.87   13.79
   3   3   5  343.51   14.27
  -3  -3  -5  348.02   13.64
  -3  -3  -5  364.39   10.71
   3   3   5  367.33   12.30
  -3  -3  -5  374.61   14.21
   3   3   5  362.90   12.36
  -3  -3  -6  236.88   12.53
   3   3   6  231.00   12.84
  -3  -3  -6  222.78   12.51
   3   3   6  237.16   11.65
  -3  -3  -6  246.48   10.18
  -3  -3  -6  247.62   12.65
   3   3   6  244.74   11.53
   3   3   7   72.06    7.21
   3   3   7   71.37    8.16
  -3  -3  -7   71.48    8.30
  -3  -3  -7   71.83    7.82
  -3  -3  -7   67.90    6.32
  -3  -3  -7   70.13    7.71
   3   3   7   71.91    7.39
  -3  -3  -8   82.07    8.84
   3   3   8   95.83    8.89
  -3  -3  -8   96.12   10.57
  -3  -3  -8   73.53    7.47
   3   3   8   84.73    9.46
  -3  -3  -8   87.65    9.11
   3   3   8   74.72    8.56
  -3  -3  -9   97.62   10.29
   3   3   9   94.42    9.73
   3   3   9   78.96   10.11
  -3  -3  -9  105.17   11.63
  -3  -3  -9  103.28    9.93
  -3  -3  -9  107.12   10.82
   3   3   9   97.03   10.76
   3   3  10   48.38    8.66
  -3  -3 -10   46.52    7.61
  -3  -3 -10   42.88    7.95
   3   3  10   48.28    8.18
  -3  -3 -10   43.17    7.60
   3   3  10   52.62    8.10
  -3  -3 -10   45.17    7.33
   3   3  11   76.52   11.09
  -3  -3 -11   60.11    9.05
  -3  -3 -11   57.59    9.31
   3   3  11   54.85    8.73
  -3  -3 -11   62.61    9.44
   3   3  11   52.35    8.56
  -3  -3 -11   49.04    7.60
   3   3  12   21.22    6.52
  -3  -3 -12   18.75    5.43
  -3  -3 -12    7.75    4.13
   3   3  12   14.56    4.75
  -3  -3 -12   16.28    4.91
   3   3  12   31.21    7.45
   3   4  -9   -2.45    2.87
  -3  -4   9    0.06    3.63
   3   4  -8  131.71   12.49
   3   4  -8  136.35   10.91
  -3  -4   8  113.92   12.83
   3   4  -8  119.79   12.28
  -3  -4   7   25.01    6.37
   3   4  -7   18.04    5.27
   3   4  -7   21.72    4.36
   3   4  -7   21.65    5.50
   3   4  -6  202.35   13.85
   3   4  -6  241.26   12.53
   3   4  -6  216.49   15.16
  -3  -4   6  211.38   15.93
  -3  -4   6  210.72   11.49
   3   4  -5   13.26    4.29
  -3  -4   5   12.10    2.47
   3   4  -5   12.81    4.06
   3   4  -5   12.43    3.89
   3   4  -5   12.48    3.18
  -3  -4   5   12.56    2.97
   3   4  -5   12.30    4.13
  -3  -4   5    8.28    2.95
  -3  -4   5   17.99    5.01
  -3  -4   4  550.28   15.32
   3   4  -4  549.06   19.38
  -3  -4   4  557.76   13.75
   3   4  -4  546.94   19.63
   3   4  -4  526.94   18.97
   3   4  -4  548.29   15.83
   3   4  -4  578.45   22.12
  -3  -4   4  556.93   21.09
  -3  -4   4  551.47   17.00
   3   4  -3   19.32    4.10
   3   4  -3   21.21    3.84
   3   4  -3   17.27    3.88
   3   4  -3   13.97    2.69
   3   4  -3   22.37    4.54
  -3  -4   3   17.23    2.83
  -3  -4   3   18.14    3.33
  -3  -4   2  677.04   15.94
   3   4  -2  683.40   16.17
   3   4  -2  671.36   18.39
   3   4  -2  687.03   13.57
   3   4  -2  714.15   21.20
   3   4  -2  680.90   18.55
  -3  -4   2  672.56   16.84
   3   4  -1  459.21   14.53
   3   4  -1  437.40   11.05
  -3  -4   1  447.31   12.92
   3   4  -1  441.72   14.16
   3   4  -1  409.13    6.50
   3   4  -1  415.44    8.35
   3   4  -1  439.39   14.27
  -3  -4   1  451.01   10.76
  -3  -4   1  456.69   12.89
  -3  -4   1  455.51   13.48
  -3  -4   1  445.25   13.74
   3   4   0  275.62   10.84
   3   4   0  287.69    7.61
   3   4   0  292.83   11.17
   3   4   0  287.90    9.60
  -3  -4   0  282.95   10.50
  -3  -4   0  269.36    7.28
  -3  -4   0  289.08   10.64
  -3  -4   0  287.24    8.42
  -3  -4  -1  750.36   16.54
   3   4   1  760.09   16.11
   3   4   1  790.71   17.62
  -3  -4  -1  736.15   10.95
   3   4   1  741.66   17.53
   3   4   1  732.65   10.50
   3   4   1  749.70   12.18
   3   4   1  741.72   11.13
  -3  -4  -1  753.20   17.34
  -3  -4  -1  743.98   11.37
  -3  -4  -2 1188.24   20.80
  -3  -4  -2 1152.06   13.09
   3   4   2 1197.00   21.36
   3   4   2 1173.90   21.62
   3   4   2 1184.54   22.15
  -3  -4  -2 1137.90   13.49
   3   4   2 1146.32   17.94
   3   4   2 1130.28   11.46
   3   4   2 1110.23   11.64
   3   4   2 1133.83   14.00
  -3  -4  -2 1181.81   22.65
  -3  -4  -2 1124.18   14.53
  -3  -4  -3  430.30   13.53
   3   4   3  417.19   13.56
   3   4   3  426.10   13.67
  -3  -4  -3  415.73   10.09
   3   4   3  406.90   13.35
   3   4   3  392.22    7.33
   3   4   3  412.17   13.29
   3   4   3  376.78    9.02
  -3  -4  -3  403.57   13.65
  -3  -4  -4  553.85   13.60
   3   4   4  578.03   15.81
   3   4   4  588.40   16.34
   3   4   4  577.29   16.41
  -3  -4  -4  553.54   14.12
   3   4   4  548.24   18.03
   3   4   4  556.05   11.65
  -3  -4  -4  575.26   17.19
   3   4   4  560.53   12.44
   3   4   4  572.54   17.19
  -3  -4  -5  139.79    5.95
   3   4   5  143.49    9.63
   3   4   5  143.87    8.48
  -3  -4  -5  146.38    8.86
   3   4   5  148.14    7.85
  -3  -4  -5  154.33    9.73
   3   4   5  143.00    7.32
  -3  -4  -6  374.26    7.90
   3   4   6  400.46   15.10
   3   4   6  382.75   16.92
  -3  -4  -6  398.61   16.44
  -3  -4  -6  390.81   11.48
   3   4   6  369.59   14.20
  -3  -4  -6  400.24   16.66
   3   4   6  371.13   13.38
   3   4   7  241.67   12.63
  -3  -4  -7  215.78   12.95
   3   4   7  229.51   14.37
  -3  -4  -7  218.51   13.93
  -3  -4  -7  212.50    9.92
  -3  -4  -7  225.70   13.84
   3   4   7  218.51   11.92
  -3  -4  -8  154.30   11.99
   3   4   8  153.57   10.98
   3   4   8  134.43   12.11
  -3  -4  -8  148.92   12.92
  -3  -4  -8  134.26    9.16
  -3  -4  -8  150.45   12.12
   3   4   8  147.14   11.04
  -3  -4  -9  103.06   10.78
   3   4   9  115.34   10.20
   3   4   9  103.45   11.66
  -3  -4  -9   93.52   11.16
  -3  -4  -9   92.94    8.80
  -3  -4  -9   97.73   10.76
   3   4   9   89.96    9.93
   3   4  10   68.99   10.02
   3   4  10   59.13    8.23
  -3  -4 -10   36.28    7.11
  -3  -4 -10   60.06    9.28
  -3  -4 -10   52.90    7.34
   3   4  10   62.23    9.66
  -3  -4 -10   57.84    8.87
   3   4  11   26.77    7.75
  -3  -4 -11   33.36    7.00
  -3  -4 -11   37.37    7.85
   3   4  11   32.65    7.19
  -3  -4 -11   45.72    8.11
   3   4  11   36.47    7.42
  -3  -4 -11   44.35    7.83
   3   4  12   22.61    6.78
  -3  -4 -12    7.57    4.44
  -3  -4 -12   13.61    5.40
   3   4  12   15.46    5.39
  -3  -4 -12    8.28    3.82
   3   4  12   20.71    5.87
  -3  -4 -12   29.10    6.39
   3   5  -9    1.25    3.51
   3   5  -8   68.25    9.04
   3   5  -8   75.63   10.10
  -3  -5   8   64.06   10.00
  -3  -5   7   -4.55    4.49
   3   5  -7    3.93    3.50
   3   5  -7    3.46    3.55
   3   5  -6  190.71   10.78
   3   5  -6  185.72   13.92
   3   5  -6  177.88   13.71
  -3  -5   6  190.09   16.01
   3   5  -5   78.11    9.14
   3   5  -5   74.58    6.24
  -3  -5   5   86.53    6.74
   3   5  -5   78.99    8.68
   3   5  -5   70.51    8.43
  -3  -5   5   74.03    9.70
  -3  -5   5   82.10    7.10
  -3  -5   4  139.44    8.05
   3   5  -4  149.24   10.60
   3   5  -4  140.85   10.88
   3   5  -4  137.50    7.47
   3   5  -4  149.75   11.30
   3   5  -4  166.18   12.06
  -3  -5   4  134.17   11.44
  -3  -5   4  138.45    8.57
  -3  -5   4  140.12    7.53
  -3  -5   3  203.76    8.34
   3   5  -3  210.98   11.25
   3   5  -3  210.12   12.31
   3   5  -3  206.95   12.21
   3   5  -3  203.24    7.68
  -3  -5   3  204.82    9.32
   3   5  -3  205.57   12.46
  -3  -5   3  197.38    9.64
   3   5  -2  591.52   18.96
   3   5  -2  582.58   16.26
  -3  -5   2  560.89   14.49
   3   5  -2  545.35    8.70
   3   5  -2  553.26   18.59
   3   5  -2  594.77   19.29
  -3  -5   2  554.60   14.00
  -3  -5   2  591.07   16.22
   3   5  -1  140.00    7.12
  -3  -5   1  149.20    8.98
  -3  -5   1  144.54    7.54
   3   5  -1  156.59    9.50
   3   5  -1  154.87    9.36
   3   5  -1  158.09    9.21
  -3  -5   1  148.61    6.09
  -3  -5   1  160.78    8.35
  -3  -5   0 1161.71   19.21
   3   5   0 1152.11   21.34
   3   5   0 1163.84   24.18
   3   5   0 1200.95   24.22
   3   5   0 1188.33   18.38
  -3  -5   0 1160.35   13.92
  -3  -5   0 1180.05   22.27
  -3  -5   0 1208.10   23.81
   3   5   1  154.73    8.73
  -3  -5  -1  148.95    6.13
   3   5   1  151.31    8.75
   3   5   1  149.92    7.41
   3   5   1  150.17    6.36
  -3  -5  -1  158.80    8.49
  -3  -5  -1  157.22    4.49
  -3  -5  -1  151.90    8.37
  -3  -5  -2  887.88   19.94
   3   5   2  887.48   20.23
   3   5   2  884.96   18.88
  -3  -5  -2  851.76   13.86
   3   5   2  898.44   20.99
  -3  -5  -2  824.71    9.55
   3   5   2  856.03   10.28
  -3  -5  -2  879.34   20.08
   3   5   3  221.75   10.23
  -3  -5  -3  208.26    7.12
   3   5   3  219.06   10.59
  -3  -5  -3  215.10    6.72
   3   5   3  209.90    9.94
   3   5   3  215.54    5.95
  -3  -5  -3  232.35   10.94
  -3  -5  -3  228.31   10.30
   3   5   4  594.15   17.11
   3   5   4  561.32   16.91
   3   5   4  585.30   17.84
  -3  -5  -4  579.93   13.84
   3   5   4  559.45   11.39
  -3  -5  -4  564.52   17.89
  -3  -5  -5  182.34    7.95
   3   5   5  181.99   10.09
   3   5   5  187.08   10.18
   3   5   5  178.61    9.45
  -3  -5  -5  178.57    9.47
   3   5   5  174.58    6.53
   3   5   5  181.30   10.90
  -3  -5  -5  176.61   10.74
   3   5   5  168.64    7.40
  -3  -5  -6  488.61   11.52
   3   5   6  510.68   16.74
   3   5   6  513.93   17.37
   3   5   6  532.39   20.16
  -3  -5  -6  515.91   18.48
   3   5   6  524.87   17.50
  -3  -5  -6  518.23   11.42
   3   5   6  510.08   14.14
  -3  -5  -6  521.27   19.52
   3   5   6  510.09   14.72
   3   5   7  115.78    8.60
   3   5   7  106.31   10.16
  -3  -5  -7  110.34   10.13
  -3  -5  -7  103.04    6.20
  -3  -5  -7  103.85    9.68
   3   5   7  113.72    8.20
   3   5   7  116.76    9.02
   3   5   8  149.22   10.49
   3   5   8  123.47   12.05
  -3  -5  -8  139.60   12.53
  -3  -5  -8  141.68    8.64
  -3  -5  -8  146.03   12.43
   3   5   8  132.04   10.01
   3   5   9   61.31    7.65
  -3  -5  -9   50.11    7.79
  -3  -5  -9   38.39    7.20
  -3  -5  -9   56.11    6.36
   3   5   9   50.11    8.53
  -3  -5  -9   59.99    8.73
   3   5   9   54.17    7.44
   3   5  10   55.81    8.72
  -3  -5 -10   52.30    8.63
  -3  -5 -10   63.23    9.50
  -3  -5 -10   60.19    7.51
   3   5  10   57.71   10.00
   3   5  10   53.42    7.77
  -3  -5 -10   54.45    9.55
   3   5  11   65.37   10.01
   3   5  11   71.83    9.60
  -3  -5 -11   63.71    9.72
  -3  -5 -11   67.33   10.31
   3   5  11   59.85    9.82
  -3  -5 -11   77.58   10.94
   3   5  12   37.00    8.53
  -3  -5 -12   12.20    5.90
  -3  -5 -12   34.05    7.52
   3   5  12   28.02    6.56
   3   5  12   26.99    6.39
  -3  -5 -12   29.03    6.80
  -3  -5 -13   -1.44    2.28
   3   6  -8   59.11    8.64
   3   6  -8   56.75    8.93
   3   6  -7   12.06    4.54
   3   6  -7    3.58    3.04
  -3  -6   7    8.13    4.55
   3   6  -6   79.40    9.67
   3   6  -6   89.77   10.00
  -3  -6   6   89.24   11.83
   3   6  -5    1.93    3.07
  -3  -6   5    2.55    3.74
   3   6  -5    3.62    2.86
  -3  -6   4  361.55   14.34
   3   6  -4  328.19   17.87
   3   6  -4  343.71   16.73
   3   6  -4  343.07   18.21
   3   6  -4  328.16   16.72
  -3  -6   4  336.10   19.07
  -3  -6   4  334.73   13.22
  -3  -6   3   40.72    3.62
   3   6  -3   36.65    6.12
   3   6  -3   39.63    5.43
   3   6  -3   35.35    2.49
  -3  -6   3   41.18    4.89
   3   6  -3   25.99    5.37
   3   6  -3   39.95    5.74
  -3  -6   3   41.65    4.74
   3   6  -2  581.35   17.57
   3   6  -2  554.68   20.41
   3   6  -2  551.41   18.69
  -3  -6   2  561.54   16.21
   3   6  -2  547.57   19.76
  -3  -6   2  566.51   19.68
   3   6  -1   65.59    5.57
   3   6  -1   62.07    6.77
  -3  -6   1   63.46    5.27
   3   6  -1   42.19    4.83
  -3  -6   1   60.37    3.76
  -3  -6   1   70.92    5.85
   3   6  -1   61.97    6.62
  -3  -6   1   67.74    6.87
   3   6   0  714.89   16.31
   3   6   0  703.72   20.45
   3   6   0  706.34   20.82
   3   6   0  743.14   15.79
  -3  -6   0  667.74    9.12
  -3  -6   0  694.28   17.89
  -3  -6   0  729.59   20.33
  -3  -6  -1   31.29    4.59
   3   6   1   33.10    3.83
   3   6   1   34.83    5.03
   3   6   1   34.71    2.42
   3   6   1   38.80    5.13
  -3  -6  -1   32.60    4.39
   3   6   2  650.53   18.47
   3   6   2  654.57   16.74
  -3  -6  -2  632.99   14.01
   3   6   2  658.54   19.11
  -3  -6  -2  672.88   18.36
  -3  -6  -2  670.51   18.73
  -3  -6  -3  149.20    9.06
   3   6   3  157.07    9.26
  -3  -6  -3  153.38    7.06
   3   6   3  150.59    8.77
   3   6   3  157.58    9.59
  -3  -6  -3  148.92    4.99
   3   6   3  138.19    3.36
  -3  -6  -3  164.40    9.59
   3   6   4  719.07   19.56
   3   6   4  698.43   19.95
   3   6   4  702.46   20.05
  -3  -6  -4  661.64   14.12
   3   6   4  662.60   10.55
  -3  -6  -4  691.90   20.44
   3   6   5   82.58    7.15
   3   6   5   83.51    7.26
   3   6   5   83.58    7.75
  -3  -6  -5   79.58    6.20
   3   6   5   68.08    4.31
  -3  -6  -5   68.44    7.13
   3   6   6  209.67   10.83
   3   6   6  205.29   11.60
   3   6   6  207.31   12.90
  -3  -6  -6  179.77   10.84
   3   6   6  195.45   11.01
  -3  -6  -6  205.55   12.87
   3   6   6  198.76    8.60
   3   6   7   42.13    5.44
   3   6   7   38.94    5.49
   3   6   7   37.20    5.46
  -3  -6  -7   35.45    5.82
  -3  -6  -7   36.53    3.21
   3   6   7   34.26    5.90
   3   6   7   41.19    4.77
  -3  -6  -7   31.77    6.08
   3   6   8  146.52   10.67
   3   6   8  140.20   10.01
   3   6   8  153.74   10.87
   3   6   8  119.23   11.94
  -3  -6  -8  114.55   11.47
  -3  -6  -8  135.33    7.31
  -3  -6  -8  124.56   11.78
   3   6   8  156.96   10.25
   3   6   9   57.84    7.34
  -3  -6  -9   52.52    8.43
   3   6   9   49.37    6.56
   3   6   9   41.44    6.30
  -3  -6  -9   44.27    7.83
   3   6   9   46.71    8.34
   3   6   9   55.01    7.23
   3   6  10   84.08    8.88
   3   6  10   88.13    9.59
   3   6  10   91.11    9.46
  -3  -6 -10   77.68   10.05
  -3  -6 -10   70.14    9.97
   3   6  10   73.18   11.23
  -3  -6 -10   85.25   11.45
   3   6  10   83.56    9.81
   3   6  11    5.03    4.42
   3   6  11   18.11    5.27
  -3  -6 -11    6.60    5.03
   3   6  11    6.45    3.76
  -3  -6 -11   13.06    5.45
   3   6  11   19.13    6.19
   3   6  11    8.50    4.14
  -3  -6 -11   -7.90    5.05
   3   6  12   25.83    6.99
   3   6  12   35.38    7.07
  -3  -6 -12   30.34    7.28
  -3  -6 -12   23.89    6.73
  -3  -6 -12   41.24    8.16
   3   6  12   18.58    6.40
   3   6  12   21.02    5.91
   3   7  -7   -8.55    4.17
   3   7  -7    1.31    3.04
   3   7  -6   91.51   10.97
   3   7  -6   89.73   10.44
  -3  -7   6   90.78   12.10
   3   7  -5    6.10    3.90
  -3  -7   5    5.28    2.95
   3   7  -5   -0.41    3.03
  -3  -7   5   -5.51    4.16
  -3  -7   4  189.55   11.65
   3   7  -4  194.43   13.46
   3   7  -4  186.81   14.74
   3   7  -4  185.23   13.02
  -3  -7   4  220.63   16.44
   3   7  -4  208.93   15.40
  -3  -7   3   -2.60    3.26
   3   7  -3    4.23    3.21
  -3  -7   3    4.78    2.70
  -3  -7   3    6.75    3.74
   3   7  -3    1.72    2.67
   3   7  -3    8.65    4.15
   3   7  -3    7.09    3.05
  -3  -7   3    2.24    2.04
   3   7  -2  279.85   15.53
  -3  -7   2  280.29   15.14
   3   7  -2  276.77   13.35
   3   7  -2  287.71   16.24
   3   7  -2  294.55   13.84
  -3  -7   2  274.96   11.61
  -3  -7   1   34.15    5.46
   3   7  -1   39.38    6.02
   3   7  -1   39.14    4.90
   3   7  -1   33.89    5.90
   3   7  -1   37.74    4.54
  -3  -7   1   41.75    4.80
   3   7   0  617.50   20.92
   3   7   0  633.33   21.55
   3   7   0  620.32   13.64
  -3  -7   0  598.39   17.25
  -3  -7   0  624.76   20.16
   3   7   1   40.30    4.20
   3   7   1   26.63    4.76
   3   7   1   33.28    5.41
   3   7   1   30.28    2.03
  -3  -7  -1   32.96    4.46
  -3  -7  -1   30.50    4.97
   3   7   2  455.41   16.86
   3   7   2  450.04   14.20
  -3  -7  -2  455.12   16.65
   3   7   2  455.73   17.22
  -3  -7  -2  460.78   15.97
   3   7   3   67.63    6.65
   3   7   3   60.35    5.77
  -3  -7  -3   65.94    6.89
   3   7   3   65.77    6.79
  -3  -7  -3   62.11    2.51
  -3  -7  -3   61.05    6.40
   3   7   4  105.01    8.18
   3   7   4   96.91    7.85
  -3  -7  -4  108.62    5.38
   3   7   4  111.47    8.76
  -3  -7  -4  104.95    8.56
   3   7   5   47.74    5.81
   3   7   5   55.30    6.46
   3   7   5   44.56    5.89
  -3  -7  -5   52.70    4.91
   3   7   5   45.41    2.95
  -3  -7  -5   52.80    6.61
   3   7   6  168.09   11.98
   3   7   6  173.53   11.00
  -3  -7  -6  163.17   10.05
   3   7   6  170.17   10.67
  -3  -7  -6  172.40   12.19
   3   7   6  174.96    7.26
   3   7   7   80.45    7.94
   3   7   7   94.49    9.95
  -3  -7  -7   76.99    8.22
   3   7   7   93.13    8.47
  -3  -7  -7   83.59    9.50
   3   7   7   90.80    6.28
   3   7   8  137.71    9.81
   3   7   8  144.84   10.76
   3   7   8  138.83   12.67
  -3  -7  -8  124.75   11.49
   3   7   8  135.14   10.36
  -3  -7  -8  119.31   11.72
   3   7   8  142.40    9.10
   3   7   9   24.69    4.61
   3   7   9   29.36    5.66
   3   7   9   24.59    5.15
  -3  -7  -9   21.56    6.24
  -3  -7  -9   21.81    6.19
   3   7   9   27.98    5.08
   3   7   9   21.22    6.03
   3   7  10   36.88    6.38
   3   7  10   45.95    7.10
   3   7  10   39.94    6.48
  -3  -7 -10   38.82    7.74
   3   7  10   35.55    5.92
   3   7  10   30.12    7.86
  -3  -7 -10   37.64    7.67
   3   7  11    9.91    4.42
   3   7  11   13.01    4.77
  -3  -7 -11   13.56    5.53
  -3  -7 -11    9.00    4.06
   3   7  11    9.51    4.24
   3   7  11   13.26    6.11
  -3  -7 -11    3.36    4.10
   3   7  12   20.48    6.00
   3   7  12   31.78    6.84
  -3  -7 -12   35.16    8.44
  -3  -7 -12   22.76    6.60
  -3  -7 -12   21.20    6.91
   3   8  -6   48.99    8.62
   3   8  -6   54.61    8.22
  -3  -8   5    1.18    3.63
   3   8  -5    9.92    3.99
   3   8  -5   13.66    4.28
  -3  -8   4   56.13    7.28
   3   8  -4   75.08   10.32
   3   8  -4   61.63    8.47
   3   8  -4   63.63    8.22
  -3  -8   4   70.59   10.46
  -3  -8   4   53.07    8.71
  -3  -8   3   -0.13    3.59
  -3  -8   3    1.70    2.54
   3   8  -3   -0.12    2.63
   3   8  -3    3.10    3.19
   3   8  -3   -7.12    4.33
   3   8  -3   -0.38    1.95
  -3  -8   3   -2.51    3.50
   3   8  -2  207.76   14.51
   3   8  -2  194.12   14.65
   3   8  -2  200.57   11.39
   3   8  -2  204.42   12.49
  -3  -8   2  184.23    9.74
  -3  -8   2  193.15   13.56
  -3  -8   1   -1.66    2.62
   3   8  -1    2.22    3.44
   3   8  -1    5.36    2.40
   3   8  -1    3.37    3.22
   3   8  -1    0.67    1.46
  -3  -8   1    0.81    1.65
   3   8   0  137.75   10.80
   3   8   0  141.91   11.44
   3   8   0  123.32    5.99
  -3  -8   0  130.44    8.55
  -3  -8   0  140.31   10.58
  -3  -8  -1    0.85    3.16
   3   8   1    4.25    3.16
   3   8   1    1.51    2.94
   3   8   1    3.56    1.84
  -3  -8  -1    2.35    2.02
  -3  -8  -2  273.93   14.01
   3   8   2  267.61   13.90
   3   8   2  275.45   11.39
  -3  -8  -2  266.92   12.81
   3   8   2  254.85   14.30
  -3  -8  -3  125.26    9.69
   3   8   3  140.56   10.02
   3   8   3  129.92   10.00
   3   8   3  133.45    8.65
  -3  -8  -3  150.99   10.05
  -3  -8  -4  326.41   15.45
   3   8   4  326.05   14.92
   3   8   4  316.49   14.17
   3   8   4  302.50   14.93
  -3  -8  -4  308.09   14.84
   3   8   5   17.54    4.40
  -3  -8  -5   19.04    4.59
   3   8   5   16.34    4.39
  -3  -8  -5   13.84    2.67
   3   8   5   14.06    3.95
   3   8   6  142.54   10.26
   3   8   6  144.97   10.59
   3   8   6  132.11   10.76
  -3  -8  -6  146.72    9.22
  -3  -8  -6  135.29   11.19
   3   8   7   23.56    4.89
  -3  -8  -7   15.53    4.08
   3   8   7   24.92    4.97
   3   8   7   22.16    5.17
  -3  -8  -7   29.77    5.98
   3   8   8   88.59    8.89
  -3  -8  -8   76.37    8.90
   3   8   8  102.90    9.28
   3   8   8   81.95   10.12
  -3  -8  -8   88.72   10.43
   3   8   9   12.34    3.94
   3   8   9   17.77    4.57
  -3  -8  -9   15.09    4.88
   3   8   9   18.25    5.90
  -3  -8  -9   21.07    5.88
   3   8  10   51.56    7.16
   3   8  10   58.03    7.76
  -3  -8 -10   47.02    8.41
   3   8  10   51.89    7.05
   3   8  10   51.48    9.56
  -3  -8 -10   60.48   10.07
  -3  -8 -11   -0.59    3.11
   3   8  11    7.75    3.71
  -3  -8 -11    0.99    3.48
   3   8  11    7.30    4.89
  -3  -8 -12   14.00    5.13
  -3  -8 -12    0.70    3.91
   3   9  -5    0.85    3.28
   3   9  -4  120.27   12.32
  -3  -9   4  126.37   13.06
  -3  -9   4  123.81   14.20
  -3  -9   4  113.98   13.01
  -3  -9   3   -4.50    4.20
   3   9  -3   -0.97    3.77
  -3  -9   3   -1.43    3.05
   3   9  -3   -5.51    3.66
   3   9  -3    4.88    4.62
  -3  -9   3   -2.96    3.67
   3   9  -2  162.53   14.05
  -3  -9   2  140.39   11.36
   3   9  -2  156.58   14.16
  -3  -9   2  122.90   12.48
   3   9  -2  151.26   11.65
  -3  -9   2  168.46   13.63
  -3  -9   1    4.01    3.64
   3   9  -1   -2.69    3.40
   3   9  -1    1.61    3.38
  -3  -9   1   -0.14    1.40
  -3  -9   0  176.48   12.57
   3   9   0  160.77   13.26
   3   9   0  182.35   13.29
  -3  -9   0  167.35   10.02
  -3  -9  -1   -0.38    2.95
   3   9   1    3.27    3.04
   3   9   1    1.88    3.34
  -3  -9  -1    0.67    1.99
   3   9   2  148.44   11.30
   3   9   2  136.89   11.44
  -3  -9  -2  142.48   11.03
   3   9   2  144.55    8.46
  -3  -9  -2  139.15    9.74
  -3  -9  -3    7.04    3.78
   3   9   3    4.60    3.17
   3   9   3    6.60    2.47
   3   9   3    7.49    3.94
  -3  -9  -3    0.57    2.43
  -3  -9  -4  150.76   11.24
   3   9   4  136.28   10.53
   3   9   4  140.71   11.04
  -3  -9  -4  109.07    9.24
   3   9   4  143.65    9.80
   3   9   5   10.70    3.55
   3   9   5    4.01    2.84
   3   9   5    6.86    3.01
  -3  -9  -5    6.91    3.34
   3   9   6  126.69   10.23
   3   9   6  125.97   10.53
   3   9   6  139.47   11.10
  -3  -9  -6  138.47   11.65
   3   9   7    3.34    2.94
   3   9   7    6.15    3.78
   3   9   7   10.12    3.78
  -3  -9  -7    6.81    3.50
   3   9   8   69.57    8.09
   3   9   8   59.42    7.71
  -3  -9  -8   57.92    8.70
   3   9   8   51.99    8.19
   3   9   9   -0.56    2.85
   3   9   9    6.60    3.41
  -3  -9  -9    7.19    3.66
   3   9   9   -4.38    4.21
  -3  -9  -9    5.82    3.83
   3   9  10   53.95    7.71
  -3  -9 -10   50.24    9.13
   3   9  10   47.34    9.08
  -3  -9 -10   56.02    9.98
  -3  -9 -11   -2.10    2.65
   3  10  -4   25.11    5.82
  -3 -10   4   18.76    6.53
  -3 -10   3   -0.16    3.96
  -3 -10   3    8.68    4.07
   3  10  -3    4.33    5.01
  -3 -10   3    0.20    3.19
   3  10  -3    4.09    3.56
  -3 -10   3   -0.39    3.79
  -3 -10   2   62.51    8.95
   3  10  -2   50.80    8.76
  -3 -10   2   57.34    7.90
   3  10  -2   47.71    8.87
  -3 -10   2   63.37    9.37
  -3 -10   1    1.71    2.85
   3  10  -1    0.19    3.15
   3  10  -1   -1.53    3.99
  -3 -10   1    1.81    3.27
  -3 -10   0   69.24    8.80
   3  10   0   83.85    9.93
   3  10   0   84.89   10.61
  -3 -10  -1    1.04    3.05
   3  10   1    1.76    3.53
   3  10   1    5.75    4.68
  -3 -10  -1    3.16    2.27
   3  10   2   68.61    9.23
  -3 -10  -2   61.31    8.03
  -3 -10  -2   55.45    6.52
   3  10   2   67.12    8.38
  -3 -10  -3   -0.84    3.11
   3  10   3    0.45    2.98
   3  10   3   -0.95    1.74
   3  10   3    0.94    3.08
  -3 -10  -3    2.02    2.62
  -3 -10  -4   88.33    9.40
   3  10   4   77.57    9.11
   3  10   4   76.68    7.39
  -3 -10  -4   60.08    7.22
   3  10   4   81.92    8.93
   3  10   5   11.62    4.28
   3  10   5    4.47    2.72
   3  10   5    9.89    3.69
  -3 -10  -5    2.11    2.76
   3  10   6  113.14   10.14
   3  10   6  116.21   10.47
   3  10   6  116.69   10.81
  -3 -10  -6  116.83   11.08
   3  10   7    3.31    2.90
   3  10   7    0.86    2.70
   3  10   7    0.41    2.35
  -3 -10  -7    4.05    3.26
   3  10   8   72.33    8.43
   3  10   8   51.47    7.59
   3  10   8   58.72    8.72
  -3 -10  -8   57.55    9.02
   3  10   9    0.87    3.35
   3  10   9    8.56    4.62
   3  10  10    3.55    3.83
  -3 -11   2   13.70    5.22
  -3 -11   2    6.19    4.39
  -3 -11   2   16.98    5.92
   3  11  -1   27.56    7.47
  -3 -11   1   15.63    5.14
  -3 -11   1    8.43    4.04
   3  11  -1   23.73    6.95
  -3 -11   1   19.47    5.57
  -3 -11   0   27.45    6.44
   3  11   0   35.40    7.34
   3  11   0   29.78    7.26
  -3 -11   0   27.40    6.39
  -3 -11  -1    0.08    2.68
   3  11   1    3.20    3.79
   3  11   1    6.22    4.77
   3  11   2   38.77    7.14
   3  11   2   42.39    8.14
  -3 -11  -2   38.75    6.96
  -3 -11  -2   34.85    5.50
   3  11   3    3.69    3.68
   3  11   3    3.62    4.01
  -3 -11  -3   -0.37    2.72
  -3 -11  -3    1.88    2.88
  -3 -11  -4   27.81    6.11
   3  11   4   36.81    6.63
   3  11   4   40.44    7.49
  -3 -11  -4   32.22    5.67
   3  11   5    3.29    2.97
   3  11   5   -0.48    3.85
   3  11   5    0.45    1.97
  -3 -11  -5    4.61    3.62
   3  11   6   27.29    5.87
   3  11   6   19.43    5.49
   3  11   6   18.06    4.48
  -3 -11  -6   18.09    5.15
   3  11   7    1.96    3.74
   3  11   7    8.42    4.08
   3  11   7    3.44    2.54
  -3 -11  -7    4.16    3.49
   3  11   8   21.48    5.24
  -3 -11  -8   20.74    5.50
   3  11   8   22.70    6.24
   3  11   8   20.53    5.76
   3  11   9   -5.27    3.65
  -3 -12   0   15.48    4.94
  -3 -12   0   11.39    5.08
   3  12   1    1.40    3.81
  -3 -12  -1    2.30    2.65
   3  12   2   36.79    7.17
   3  12   2   43.14    8.95
  -3 -12  -2   49.24    8.02
  -3 -12  -3    8.87    4.16
   3  12   3    6.81    3.78
   3  12   3   -4.31    4.59
  -3 -12  -4   43.93    7.56
   3  12   4   34.94    6.89
   3  12   4   37.75    7.82
  -3 -12  -4   39.13    6.49
   3  12   5   -0.43    2.48
  -3 -12  -5   -1.07    2.50
   3  12   6   31.90    7.26
   3  12   6   40.55    7.35
  -3 -12  -6   27.39    6.06
   3  12   7    5.69    3.65
   3  12   7    0.94    3.64
   3  12   7    4.50    2.95
  -3 -12  -7    8.58    3.78
   3  12   8    6.67    3.79
  -4  10   7    9.12    5.60
  -4  10   6   15.52    5.67
   4 -10  -6   12.32    5.83
  -4  10   6   10.33    4.76
   4 -10  -6   16.87    5.89
   4 -10  -5   -0.20    4.26
  -4  10   5    4.08    3.62
  -4  10   5    5.14    3.95
   4 -10  -5    4.96    4.91
  -4  10   4   20.19    5.79
   4 -10  -4   21.90    7.55
   4 -10  -4   23.00    8.39
   4 -10  -3    1.98    5.34
  -4  10   3   -0.44    2.70
   4 -10  -3    5.07    5.77
  -4  10   2   18.25    6.36
   4 -10  -2   21.75    7.72
   4 -10  -2   35.43    9.98
  -4  10   1    0.95    3.68
   4 -10  -1   -2.54    5.24
   4 -10  -1    0.40    4.26
  -4  10   0   12.46    4.77
   4 -10   0   12.73    7.01
  -4   9   9    4.51    4.22
  -4   9   8   12.14    5.34
  -4   9   8   15.71    5.85
  -4   9   7    6.19    3.96
  -4   9   7   -3.98    4.71
   4  -9  -7    1.04    2.19
  -4   9   6   21.31    6.56
   4  -9  -6    5.25    5.20
  -4   9   6   24.81    7.39
   4  -9  -6   17.25    6.17
   4  -9  -6   16.52    4.39
  -4   9   5    3.18    3.59
   4  -9  -5    9.53    4.87
   4  -9  -5    1.95    4.30
  -4   9   5    1.81    4.74
  -4   9   4   25.68    6.33
   4  -9  -4   17.50    6.95
   4  -9  -4   26.27    7.44
  -4   9   4   26.06    7.30
   4  -9  -4   22.56    4.82
   4  -9  -3    7.39    5.99
  -4   9   3    5.47    3.85
  -4   9   3    0.17    2.78
   4  -9  -3    0.31    2.23
  -4   9   2   47.95    8.07
   4  -9  -2   49.94   10.00
   4  -9  -2   46.23   10.45
   4  -9  -2   49.20    6.35
   4  -9  -1    0.77    2.12
  -4   9   1   -3.28    3.68
   4  -9  -1   10.61    6.24
   4  -9  -1    9.75    6.76
  -4   9   0   25.11    5.91
   4  -9   0   25.93    4.97
   4  -9   0   37.18    8.87
   4  -9   0   32.88    9.78
  -4   9  -1   10.45    4.56
   4  -9   1    5.13    5.65
   4  -9   1    5.78    6.40
  -4   9  -2   20.55    6.01
   4  -9   2   30.10    8.55
   4  -9   2   26.63    8.24
  -4   9  -3   -0.74    3.26
  -4   9  -4    6.80    3.88
  -4   8   9   -9.65    4.84
   4  -8  -9   -2.37    1.86
  -4   8   8    6.34    4.13
  -4   8   8   14.24    6.16
   4  -8  -8   11.76    4.14
  -4   8   7    0.55    4.46
   4  -8  -7    6.87    3.39
  -4   8   7    1.20    2.80
  -4   8   6   16.17    5.16
   4  -8  -6   14.15    5.31
   4  -8  -6   22.79    4.93
   4  -8  -5    3.36    5.28
   4  -8  -5    8.00    5.05
  -4   8   5    8.90    4.96
  -4   8   5    0.98    2.91
  -4   8   4   15.18    4.82
   4  -8  -4   14.32    5.87
   4  -8  -4   16.20    5.78
  -4   8   4   14.49    6.13
   4  -8  -4   18.27    4.08
  -4   8   3    3.36    4.29
   4  -8  -3   -1.49    4.31
   4  -8  -3    0.02    4.07
  -4   8   3    2.93    2.98
   4  -8  -3    0.87    2.19
  -4   8   2   58.58    9.26
  -4   8   2   44.56    7.42
   4  -8  -2   57.92    9.90
   4  -8  -2   44.57    9.79
   4  -8  -2   41.31    5.77
  -4   8   1    7.63    3.92
  -4   8   1   -0.79    3.18
   4  -8  -1   -5.25    4.86
   4  -8  -1   -0.44    2.48
   4  -8  -1    2.26    5.11
  -4   8   0  131.55   11.94
   4  -8   0  125.58   14.23
   4  -8   0  143.65   16.85
   4  -8   0  135.09   10.15
   4  -8   1    0.16    2.32
  -4   8  -1    0.78    3.17
   4  -8   1    1.51    4.26
   4  -8   1    5.41    6.00
  -4   8  -2   45.33    7.30
   4  -8   2   35.15    8.70
   4  -8   2   40.43    8.78
   4  -8   2   43.32    6.27
   4  -8   3    5.40    3.06
  -4   8  -3   -6.04    3.63
   4  -8   3    2.16    5.30
   4  -8   4   21.10    5.42
  -4   8  -4   33.82    6.37
   4  -8   4   18.36    6.87
  -4   8  -4   23.81    5.78
   4  -8   5    2.19    2.78
  -4   8  -5   17.99    4.74
  -4   7  10   11.50    5.16
   4  -7 -10   15.32    4.73
  -4   7   9   10.30    4.76
  -4   7   9   -3.69    5.24
   4  -7  -9    0.83    2.96
  -4   7   8   22.14    6.42
   4  -7  -8   15.95    5.11
  -4   7   8   27.19    7.77
  -4   7   7    2.03    3.08
   4  -7  -7    6.35    2.84
  -4   7   7    5.59    4.88
  -4   7   6   34.35    6.88
   4  -7  -6   30.10    6.28
   4  -7  -6   29.43    5.31
  -4   7   6   47.97   10.04
   4  -7  -5    3.28    3.83
   4  -7  -5   -0.34    3.29
  -4   7   5    5.28    5.60
  -4   7   5    2.18    3.25
  -4   7   4  211.35   14.70
   4  -7  -4  207.22   16.57
   4  -7  -4  231.78   16.67
   4  -7  -4  215.14   12.73
  -4   7   4  216.16   18.39
   4  -7  -3    3.81    4.33
  -4   7   3    6.87    3.93
  -4   7   3    6.30    4.13
   4  -7  -3    7.55    4.51
   4  -7  -3    4.35    3.12
  -4   7   2  127.90   11.33
   4  -7  -2  141.37   13.74
   4  -7  -2  130.99   14.24
   4  -7  -2  153.71   10.35
  -4   7   2  143.06   13.41
   4  -7  -1   11.50    3.66
  -4   7   1   16.98    4.81
   4  -7  -1   20.05    6.62
  -4   7   1   17.68    5.11
   4  -7  -1   11.96    6.21
  -4   7   0   91.17    9.37
   4  -7   0   98.90   12.30
   4  -7   0   86.89   12.83
   4  -7   0   95.01    8.33
  -4   7   0   90.54    9.23
  -4   7  -1   10.27    4.08
   4  -7   1   14.04    6.01
   4  -7   1    6.04    2.84
   4  -7   1   12.58    6.91
   4  -7   1    8.60    2.55
  -4   7  -2   97.20    9.73
   4  -7   2  100.70    8.22
   4  -7   2  112.24   13.93
   4  -7   2   95.95    8.74
   4  -7   2   92.14   12.34
   4  -7   3    6.79    3.12
  -4   7  -3   13.30    4.29
   4  -7   3   12.06    6.17
  -4   7  -3    3.29    3.57
   4  -7   3   14.28    4.07
   4  -7   4   46.84    6.94
  -4   7  -4   43.91    6.83
  -4   7  -4   54.04    8.02
   4  -7   4   44.47    9.60
  -4   7  -4   59.51    8.11
   4  -7   4   48.85    7.26
   4  -7   5   -0.73    1.95
  -4   7  -5   -1.98    2.77
  -4   7  -5    0.25    3.11
  -4   7  -5   -4.09    3.36
   4  -7   6   31.80    6.91
  -4   7  -6   41.31    8.33
  -4   7  -6   41.53    7.53
   4  -7   6   24.42    6.73
   4  -6 -10    9.64    4.62
  -4   6  10    9.85    4.86
  -4   6   9    6.35    3.50
  -4   6   9    9.31    4.52
   4  -6  -9   11.16    4.09
  -4   6   8   41.62    7.51
   4  -6  -8   41.56    7.10
  -4   6   8   49.20    9.84
  -4   6   7   12.12    4.76
   4  -6  -7   12.00    4.06
  -4   6   7   16.14    6.51
   4  -6  -6  101.90    9.27
   4  -6  -6  101.54    9.41
  -4   6   6  103.88   10.60
  -4   6   6  115.96   13.91
   4  -6  -5   25.61    5.65
  -4   6   5   30.86    7.31
  -4   6   5   26.08    5.89
   4  -6  -4   76.45    9.55
   4  -6  -4   77.98    7.65
  -4   6   4   61.43    8.03
  -4   6   4   80.10   10.56
  -4   6   3   65.10    8.11
   4  -6  -3   61.92    8.82
   4  -6  -3   64.64    8.86
   4  -6  -3   68.90    7.06
  -4   6   3   70.96    9.49
   4  -6  -2  218.21   15.92
  -4   6   2  234.00   14.09
   4  -6  -2  226.95   16.58
   4  -6  -2  225.82   12.10
  -4   6   2  241.12   15.99
  -4   6   1   46.11    7.20
  -4   6   1   46.98    6.54
   4  -6  -1   35.47    8.26
   4  -6  -1   51.76    8.77
   4  -6  -1   49.88    6.00
  -4   6   0  141.09   10.74
   4  -6   0  152.40   14.05
   4  -6   0  122.51    6.46
   4  -6   0  125.28   13.88
   4  -6   0  126.07    9.23
   4  -6   0  138.24    5.95
  -4   6   0  150.64   11.41
   4  -6   1   13.46    2.50
  -4   6  -1   19.57    4.53
   4  -6   1   10.50    5.13
   4  -6   1   14.54    3.58
  -4   6  -1   23.66    4.78
   4  -6   1   23.28    7.29
   4  -6   1   13.78    3.11
  -4   6  -2  132.96    9.13
  -4   6  -2  135.61   10.36
   4  -6   2  151.11   14.55
  -4   6  -2  133.09   10.26
   4  -6   2  138.61    9.24
   4  -6   2  134.77    9.93
   4  -6   3   15.18    4.27
  -4   6  -3   13.70    3.83
   4  -6   3   11.75    6.20
  -4   6  -3   19.99    4.65
  -4   6  -3   16.42    4.40
   4  -6   3   14.68    4.18
  -4   6  -4  123.07   10.13
   4  -6   4  132.66   14.03
  -4   6  -4  158.45   12.60
  -4   6  -4  128.18   11.20
   4  -6   4  124.70   10.95
   4  -6   5   18.09    4.66
  -4   6  -5    4.61    3.12
  -4   6  -5    4.89    4.10
  -4   6  -5    8.68    4.10
   4  -6   5    3.07    3.29
   4  -6   6   47.71    7.54
  -4   6  -6   49.13    8.35
  -4   6  -6   44.44    7.69
   4  -6   6   48.99    8.84
  -4   6  -7   10.08    4.24
  -4   6  -7   -0.38    2.12
   4  -6   7    4.69    3.91
  -4   5  10   18.47    5.06
  -4   5  10    3.22    4.20
   4  -5 -10   14.35    5.54
  -4   5   9   19.47    5.56
   4  -5  -9   13.81    4.58
  -4   5   9   26.98    7.87
  -4   5   8   31.11    6.60
   4  -5  -8   34.54    6.56
  -4   5   8   37.30    7.98
  -4   5   7   31.27    7.56
  -4   5   7   26.12    5.48
   4  -5  -7   34.37    6.25
  -4   5   6  101.18    9.92
   4  -5  -6   97.78    7.91
   4  -5  -6   78.09    8.29
  -4   5   6  111.12   12.74
  -4   5   5   51.12    7.12
   4  -5  -5   43.80    6.04
  -4   5   5   56.24    8.93
  -4   5   4  227.95   13.72
   4  -5  -4  218.27   13.76
   4  -5  -4  208.34   11.90
  -4   5   4  234.11   16.14
   4  -5  -3  112.27   10.86
  -4   5   3  106.79    9.31
   4  -5  -3  113.26    8.65
  -4   5   3  118.84   11.08
  -4   5   2  220.88   13.04
   4  -5  -2  208.10   14.62
  -4   5   2  220.17   14.08
   4  -5  -2  222.47   11.55
  -4   5   1  106.98    9.20
  -4   5   1   95.46    8.54
   4  -5  -1   97.97   10.71
   4  -5  -1   97.72    4.64
  -4   5   1   84.11    6.02
   4  -5  -1   96.25    7.76
   4  -5   0  238.03    6.43
  -4   5   0  241.48   13.15
   4  -5   0  244.84   16.82
   4  -5   0  245.61    8.82
   4  -5   0  233.73   11.82
  -4   5   0  237.77   13.05
  -4   5  -1   81.06    7.67
  -4   5  -1   81.79    7.40
   4  -5   1   88.56   10.68
   4  -5   1   76.67    5.77
  -4   5  -1   86.97    7.79
   4  -5   1   76.58    7.07
   4  -5   1   84.28    4.77
  -4   5  -2  145.41   10.06
   4  -5   2  155.63   14.10
  -4   5  -2  156.20    9.76
   4  -5   2  161.07    9.36
  -4   5  -2  151.13   10.40
   4  -5   2  134.22    9.46
   4  -5   3    4.75    2.75
  -4   5  -3    2.25    2.71
  -4   5  -3    2.15    2.49
   4  -5   3    5.95    4.94
  -4   5  -3    0.60    2.38
   4  -5   3    2.07    2.44
  -4   5  -3    1.47    1.70
  -4   5  -4   54.75    6.51
  -4   5  -4   38.73    5.89
  -4   5  -4   56.95    7.45
   4  -5   4   57.47    7.46
   4  -5   4   42.30    6.02
   4  -5   5    2.32    2.80
  -4   5  -5    1.94    2.39
  -4   5  -5   -0.04    3.12
  -4   5  -5    0.07    2.34
   4  -5   5    0.20    2.53
  -4   5  -6  123.65   12.06
  -4   5  -6  134.65   12.46
   4  -5   6   96.13   11.39
   4  -5   6  113.86   11.26
   4  -5   7   -2.78    3.38
  -4   5  -7    0.37    2.85
  -4   5  -7    9.36    4.10
   4  -5   7   10.92    5.14
   4  -5   8   41.11    7.81
  -4   5  -8   50.70    8.83
  -4   5  -8   62.80    9.51
   4  -5   8   58.71   10.22
  -4   4  10   14.50    5.99
   4  -4 -10   17.43    5.64
  -4   4  10   23.04    5.42
  -4   4   9   22.01    5.75
   4  -4  -9   22.43    5.93
  -4   4   9   18.27    6.31
   4  -4  -8   62.93    8.69
  -4   4   8   73.18   10.91
  -4   4   8   50.51    7.99
  -4   4   7   46.43    7.32
  -4   4   7   52.49    9.42
   4  -4  -7   59.55    8.01
  -4   4   6   92.43    9.50
   4  -4  -6  110.34    6.81
   4  -4  -6  111.24    9.72
  -4   4   6  107.38   11.93
  -4   4   5   86.89    9.06
   4  -4  -5   70.68    6.17
   4  -4  -5  104.44    8.89
  -4   4   5   99.74   10.70
  -4   4   4  269.11   14.52
   4  -4  -4  264.78   12.94
   4  -4  -4  262.80   13.03
  -4   4   4  252.12   15.64
  -4   4   4  247.50    5.10
  -4   4   3   48.93    6.86
  -4   4   3   57.98    6.85
   4  -4  -3   55.08    7.01
   4  -4  -3   50.36    3.70
   4  -4  -3   51.95    5.89
   4  -4  -2  302.97    7.14
  -4   4   2  325.34   15.12
  -4   4   2  325.37   15.73
   4  -4  -2  360.32   18.45
  -4   4   2  300.12    8.03
   4  -4  -2  351.47   13.96
  -4   4   1  106.16    8.53
   4  -4  -1   90.95    6.11
  -4   4   1   95.97    8.32
   4  -4  -1   97.32   10.33
   4  -4  -1  106.19    4.87
  -4   4   1   96.55    5.71
   4  -4  -1  107.35    7.88
  -4   4   0  287.95   13.32
   4  -4   0  288.36    9.36
   4  -4   0  293.52   17.58
  -4   4   0  269.45   12.85
   4  -4   0  259.33    4.94
  -4   4   0  262.53   10.78
   4  -4   0  279.85   12.53
   4  -4   1   27.85    6.73
  -4   4  -1   22.71    4.26
   4  -4   1   24.62    4.39
   4  -4   1   26.23    3.58
  -4   4  -1   26.75    4.54
  -4   4  -2  307.58   13.30
   4  -4   2  321.91   18.95
  -4   4  -2  310.69   13.17
   4  -4   2  312.84   12.25
  -4   4  -2  306.94   13.95
   4  -4   2  320.79   13.79
  -4   4  -3  104.99    7.89
   4  -4   3   94.30   11.00
  -4   4  -3  116.88    8.83
   4  -4   3  118.94    8.76
  -4   4  -3  119.59    9.22
   4  -4   3  111.18    8.80
  -4   4  -4  442.03   15.92
  -4   4  -4  482.59   18.83
   4  -4   4  472.28   18.83
  -4   4  -4  460.41   18.92
   4  -4   4  467.97   18.77
  -4   4  -5   26.33    4.29
  -4   4  -5   16.93    4.40
  -4   4  -5   24.01    5.12
   4  -4   5   23.61    5.28
   4  -4   5   18.50    5.17
  -4   4  -6  141.95    9.30
  -4   4  -6  142.91   12.10
   4  -4   6  153.89   13.33
  -4   4  -6  150.37   12.79
   4  -4   6  142.46   12.13
   4  -4   7   25.29    6.29
  -4   4  -7   20.52    5.76
  -4   4  -7   19.65    5.70
   4  -4   7   29.66    7.05
   4  -4   8   51.31    8.76
  -4   4  -8   52.38    8.90
  -4   4  -8   53.58    9.12
   4  -4   8   53.80   10.31
  -4   4  -9    0.13    3.52
  -4   4  -9    7.52    4.61
  -4   3  10   20.19    5.27
   4  -3 -10   22.75    6.77
   4  -3 -10   18.51    6.12
  -4   3  10   15.07    5.48
   4  -3 -10   19.39    6.02
  -4   3   9   30.15    6.42
   4  -3  -9   42.04    8.02
  -4   3   9   35.78    7.69
   4  -3  -8   97.14   10.58
  -4   3   8  117.63   13.39
  -4   3   7   54.95    9.13
  -4   3   7   57.46    5.66
   4  -3  -7   53.38    7.64
  -4   3   6  185.08    8.97
   4  -3  -6  208.66   13.13
  -4   3   6  196.65   15.26
   4  -3  -5  259.56    9.09
  -4   3   5  246.02    7.62
  -4   3   5  247.10    9.59
   4  -3  -5  271.99   13.84
  -4   3   5  239.97   15.42
  -4   3   4  213.63    5.45
   4  -3  -4  246.50   10.57
  -4   3   4  242.63    7.00
  -4   3   4  228.84   14.09
  -4   3   4  218.93    7.79
   4  -3  -4  242.33   12.50
  -4   3   3  401.07   17.13
   4  -3  -3  371.40   14.48
  -4   3   3  399.86    8.49
   4  -3  -3  404.58   15.02
  -4   3   2  295.44   13.59
  -4   3   2  317.80   14.37
   4  -3  -2  267.58   13.60
  -4   3   2  285.66    7.66
   4  -3  -2  315.85   12.83
  -4   3   2  296.77   16.09
   4  -3  -2  295.12    6.12
  -4   3   1  262.45   12.36
   4  -3  -1  268.47   14.97
  -4   3   1  261.58   12.65
  -4   3   1  264.67    8.39
   4  -3  -1  262.58   11.75
  -4   3   1  261.48   14.42
   4  -3   0  661.57   13.91
   4  -3   0  662.19   24.52
  -4   3   0  628.66   18.32
  -4   3   0  635.13   14.76
  -4   3   0  640.02   20.96
   4  -3   0  659.08   18.10
  -4   3  -1  212.77   10.47
   4  -3   1  213.38   14.51
   4  -3   1  214.16    8.80
  -4   3  -1  205.60   10.55
  -4   3  -1  207.28   11.28
   4  -3   1  205.02   10.36
  -4   3  -2  538.32   16.49
  -4   3  -2  538.66   15.81
  -4   3  -2  540.98   17.55
  -4   3  -2  529.03   16.73
   4  -3   2  551.47   17.32
   4  -3   2  546.18   15.53
  -4   3  -3  117.03    7.70
  -4   3  -3  133.24    8.62
   4  -3   3  123.61    8.38
  -4   3  -3  110.56    8.50
  -4   3  -3  114.92    7.15
   4  -3   3  124.49    8.89
   4  -3   3  113.11    5.81
  -4   3  -4  244.00   10.87
   4  -3   4  265.01   13.42
  -4   3  -4  270.29   13.92
  -4   3  -4  241.40   12.30
  -4   3  -4  239.51    9.30
   4  -3   4  247.94   13.09
  -4   3  -5  105.52    9.01
   4  -3   5   80.47    8.49
  -4   3  -5   99.41    9.47
  -4   3  -5   80.29    4.81
   4  -3   5   98.24    9.00
  -4   3  -5  104.45    7.33
  -4   3  -6  161.03    8.91
  -4   3  -6  153.98   11.83
   4  -3   6  154.52   12.83
  -4   3  -6  162.81   12.78
   4  -3   6  157.27   12.20
   4  -3   7   31.01    6.81
  -4   3  -7   29.79    6.08
  -4   3  -7   29.76    6.27
   4  -3   7   26.86    6.72
  -4   3  -8   88.38   10.54
   4  -3   8   85.40   11.50
  -4   3  -8  113.73   12.42
  -4   3  -8   94.51   11.75
   4  -3   8   98.12   11.54
   4  -3   9    3.41    3.77
  -4   3  -9   10.09    5.15
  -4   3  -9   17.07    5.71
  -4   3  -9   23.88    6.25
   4  -3   9   12.63    5.45
  -4   2  11   17.70    5.71
   4  -2 -10   39.20    8.46
   4  -2 -10   27.11    7.06
  -4   2  10   22.04    7.16
   4  -2 -10   30.51    7.63
   4  -2  -9   67.80   10.29
   4  -2  -9   60.91    9.66
  -4   2   9   64.09    9.73
  -4   2   8   26.02    6.81
   4  -2  -8   40.45    7.48
  -4   2   8   43.48    5.97
  -4   2   7  290.11   13.80
   4  -2  -7  266.92   16.13
  -4   2   7  256.21   17.95
  -4   2   6  165.57   10.15
   4  -2  -6  157.77   11.56
  -4   2   6  154.05   12.93
  -4   2   5  238.38   10.61
   4  -2  -5  250.36   13.31
  -4   2   5  258.95   15.21
  -4   2   4  197.31   12.36
  -4   2   4  198.26    7.51
   4  -2  -4  187.45   10.89
   4  -2  -4  199.29   10.99
   4  -2  -3  301.15    5.67
  -4   2   3  341.47    9.37
   4  -2  -3  331.41    7.35
  -4   2   3  343.66   15.09
   4  -2  -3  338.71   13.42
  -4   2   3  340.41   16.87
   4  -2  -2  307.84    6.76
  -4   2   2  326.75   13.81
  -4   2   2  312.10    8.84
   4  -2  -2  309.23   12.45
  -4   2   2  318.23   15.49
  -4   2   1  224.48    7.73
   4  -2  -1  237.69   10.69
  -4   2   1  256.63   13.04
   4  -2   0  587.56   13.08
  -4   2   0  589.48   13.41
   4  -2   0  609.30   16.73
  -4   2   0  600.74   18.49
  -4   2  -1  337.85   12.45
   4  -2   1  339.34   10.96
  -4   2  -1  321.73   12.47
  -4   2  -1  345.30   13.33
   4  -2   1  355.36   13.03
  -4   2  -2  526.50   14.92
  -4   2  -2  523.08   14.01
   4  -2   2  526.56   14.69
  -4   2  -2  514.23   16.21
  -4   2  -2  492.26   15.11
   4  -2   2  519.15   16.14
  -4   2  -3  258.14   10.36
  -4   2  -3  255.12   10.53
   4  -2   3  244.38   11.14
  -4   2  -3  266.99   12.56
  -4   2  -3  259.10   10.74
   4  -2   3  262.03   12.13
   4  -2   3  238.75    8.87
  -4   2  -4  270.34   10.43
  -4   2  -4  256.23   11.53
   4  -2   4  274.05   13.07
  -4   2  -4  268.52   13.34
  -4   2  -4  250.90   10.22
   4  -2   4  268.34   13.09
   4  -2   4  259.64    8.95
  -4   2  -5  171.89    8.18
  -4   2  -5  156.03   10.05
   4  -2   5  166.18   11.25
  -4   2  -5  165.39   11.34
  -4   2  -5  158.67    8.00
   4  -2   5  164.11   11.06
  -4   2  -6  194.34    8.58
  -4   2  -6  181.68   11.99
   4  -2   6  202.00   13.69
  -4   2  -6  201.29   13.52
  -4   2  -6  197.88    8.51
   4  -2   6  212.12   13.54
  -4   2  -7   89.57    9.56
   4  -2   7   77.17    9.46
  -4   2  -7   79.59    9.30
  -4   2  -7   87.13    9.71
   4  -2   7   83.40    9.64
   4  -2   8   48.64    8.08
  -4   2  -8   35.18    6.46
  -4   2  -8   56.39    8.92
  -4   2  -8   42.30    7.76
   4  -2   8   50.95    8.78
   4  -2   9    7.69    4.54
  -4   2  -9   12.56    5.50
  -4   2  -9   21.91    6.58
   4  -2   9    9.44    5.50
  -4   2  -9   15.29    5.44
   4  -2  10   44.59    9.39
  -4   2 -10   39.20    8.09
  -4   2 -10   47.41    9.44
  -4   2 -10   49.07    9.75
   4  -2  10   55.18   10.00
  -4   1  11   31.54    6.91
   4  -1 -10   16.60    5.75
   4  -1 -10   11.24    4.80
  -4   1  10    6.30    3.13
   4  -1 -10   16.74    6.11
   4  -1  -9   78.23   10.63
   4  -1  -9   75.45   10.40
  -4   1   9   89.04    9.30
   4  -1  -9   66.37   10.27
  -4   1   9   68.99    9.99
  -4   1   8   48.31    8.17
   4  -1  -8   58.19    8.91
  -4   1   8   54.22    7.00
   4  -1  -8   50.80    8.13
   4  -1  -7  135.85   12.07
  -4   1   7  119.73    9.91
   4  -1  -7  134.77   11.94
  -4   1   7  122.96   12.23
  -4   1   6   62.45    6.84
   4  -1  -6   66.24    7.94
  -4   1   6   45.97    7.15
  -4   1   5  279.44    8.25
   4  -1  -5  287.66   14.56
  -4   1   5  292.31   12.63
  -4   1   5  270.56   14.91
   4  -1  -4  268.48    8.12
  -4   1   4  281.82   14.09
   4  -1  -4  261.08    6.96
   4  -1  -4  273.89   13.03
  -4   1   4  287.73   15.42
   4  -1  -3  443.56    9.33
  -4   1   3  445.44   16.63
  -4   1   3  435.22   11.74
   4  -1  -3  444.70    9.47
   4  -1  -3  475.34   15.64
  -4   1   3  460.12   18.30
  -4   1   2  428.01   10.93
   4  -1  -2  452.34    9.38
  -4   1   2  462.74   11.68
   4  -1  -2  459.59   10.36
   4  -1  -2  472.96   14.87
  -4   1   2  469.86   17.31
   4  -1  -1  540.90   11.02
  -4   1   1  566.51   12.86
  -4   1   1  534.24   14.73
   4  -1  -1  546.38   15.57
  -4   1   1  527.70   17.42
   4  -1   0   74.08    4.89
   4  -1   0   68.89    4.23
  -4   1   0   74.06    4.87
   4  -1   0   76.13    5.94
  -4   1   0   75.90    6.44
   4  -1   1  300.22    5.97
   4  -1   1  313.36   10.53
   4  -1   1  303.36    8.81
  -4   1  -1  333.50   12.20
   4  -1   1  320.38   11.85
  -4   1  -1  317.89   12.43
  -4   1  -2  845.26   17.86
  -4   1  -2  821.42   15.28
   4  -1   2  851.38   18.55
   4  -1   2  799.96   15.79
  -4   1  -2  803.65   19.38
  -4   1  -2  813.95   18.81
   4  -1   2  862.92   19.76
  -4   1  -3  345.37   11.10
   4  -1   3  343.17   12.83
  -4   1  -3  339.34   13.32
  -4   1  -3  330.09   10.75
  -4   1  -3  329.53   11.91
   4  -1   3  350.80   13.29
  -4   1  -4  708.71   15.24
  -4   1  -4  697.87   17.35
   4  -1   4  711.49   19.89
  -4   1  -4  725.81   20.74
  -4   1  -4  671.51   17.07
   4  -1   4  712.88   20.25
  -4   1  -5  250.34    8.76
   4  -1   5  240.76   11.80
  -4   1  -5  250.39   11.73
   4  -1   5  243.83   12.91
  -4   1  -5  263.40   13.64
  -4   1  -5  240.41   10.41
   4  -1   5  251.85   13.08
  -4   1  -6  199.02    7.45
  -4   1  -6  162.91   10.79
   4  -1   6  189.23   12.49
  -4   1  -6  202.90   13.14
   4  -1   6  177.02   10.83
  -4   1  -6  187.85    9.48
   4  -1   6  203.88   12.82
   4  -1   7   44.34    5.95
   4  -1   7   41.95    6.72
  -4   1  -7   33.59    6.21
  -4   1  -7   42.36    6.97
  -4   1  -7   51.39    7.24
   4  -1   7   46.03    7.14
  -4   1  -7   48.02    5.19
   4  -1   8  112.67    9.80
  -4   1  -8   86.73    9.63
   4  -1   8  116.96   12.06
  -4   1  -8  125.18   12.30
  -4   1  -8  142.59   12.91
   4  -1   8  134.29   12.48
   4  -1   9   18.16    5.61
  -4   1  -9   17.56    4.78
   4  -1   9   15.03    3.94
  -4   1  -9   18.77    6.09
  -4   1  -9   37.64    7.60
   4  -1   9   22.65    6.21
   4  -1  10   52.60    9.20
  -4   1 -10   63.09    8.91
  -4   1 -10   49.69    9.38
  -4   1 -10   62.57   10.31
   4  -1  10   48.58    9.72
  -4   1 -11   20.09    5.98
   4   0 -10    7.17    4.39
   4   0 -10   11.06    4.77
  -4   0  10   12.53    4.91
   4   0 -10    3.35    3.21
  -4   0  10    1.29    2.87
   4   0  -9   84.67   10.76
  -4   0   9   89.46    9.90
   4   0  -9   69.76    9.89
   4   0  -9   89.96   11.92
  -4   0   9   73.26   10.12
  -4   0   8   19.48    5.62
   4   0  -8   40.39    7.32
   4   0  -8   29.95    6.57
   4   0  -8   43.03    8.03
  -4   0   8   22.49    5.13
   4   0  -7  158.55   12.93
  -4   0   7  141.81   11.63
   4   0  -7  156.20   13.19
  -4   0   7  138.75   12.43
   4   0  -6  100.23    9.93
  -4   0   6   89.25    8.68
   4   0  -6   96.23    9.48
  -4   0   6   94.43    9.44
   4   0  -5  348.10   16.12
   4   0  -5  331.43   10.42
   4   0  -5  339.05   15.99
  -4   0   5  338.62   14.40
  -4   0   5  344.81   17.32
  -4   0   5  309.65   15.37
   4   0  -4  114.67    6.28
   4   0  -4  127.03    5.98
   4   0  -4  128.74    9.07
  -4   0   4  119.22    9.75
  -4   0   4  118.35    6.04
  -4   0   4  119.54    9.06
  -4   0   3  336.07    9.67
  -4   0   3  307.30   13.24
   4   0  -3  319.88    9.11
   4   0  -3  353.87   13.71
   4   0  -3  332.95   13.15
  -4   0   3  312.17   14.34
   4   0  -3  333.84    9.61
   4   0  -2  439.95   10.52
  -4   0   2  435.35   10.46
   4   0  -2  448.72   11.00
   4   0  -2  456.32   14.27
  -4   0   2  447.99   16.30
  -4   0   2  440.51    8.74
  -4   0   1  745.28    9.66
   4   0  -1  769.56   14.09
  -4   0   1  789.14   18.16
   4   0  -1  761.24   14.80
   4   0  -1  779.46   17.95
  -4   0   1  812.28   20.45
   4   0   0 2588.29   26.87
  -4   0   0 2542.89   37.57
   4   0   0 2602.24   32.01
  -4   0   0 2536.64   34.41
   4   0   1 1131.49   13.18
   4   0   1 1108.89   19.80
   4   0   1 1080.86   13.49
  -4   0  -1 1153.28   20.92
   4   0   1 1140.95   21.12
  -4   0  -1 1102.84   21.98
   4   0   2  263.81    7.55
  -4   0  -2  271.69    7.29
   4   0   2  276.37   10.75
   4   0   2  280.56    8.41
  -4   0  -2  274.34   10.73
   4   0   2  269.37   10.72
  -4   0  -2  283.47   11.21
  -4   0  -3  703.17   13.54
   4   0   3  709.02   16.41
   4   0   3  739.79   18.42
  -4   0  -3  737.96   18.64
  -4   0  -3  704.54   17.45
   4   0   3  736.09   18.29
  -4   0  -4  228.63    8.07
   4   0   4  219.70   10.81
  -4   0  -4  219.85    8.84
   4   0   4  220.52   10.93
  -4   0  -4  223.79   11.16
  -4   0  -4  226.85   10.27
   4   0   4  240.05   11.30
  -4   0  -5  292.39    8.52
  -4   0  -5  295.43   12.01
   4   0   5  298.02   13.73
  -4   0  -5  292.03   13.78
   4   0   5  296.29   13.14
  -4   0  -5  289.20   11.90
   4   0   5  301.00   13.62
  -4   0  -6  226.85    6.61
   4   0   6  229.78   12.55
  -4   0  -6  229.31   12.13
   4   0   6  244.48   13.58
  -4   0  -6  238.89   13.73
  -4   0  -6  231.45   12.66
  -4   0  -6  240.43   11.39
   4   0   6  253.09   13.73
   4   0   7  162.74   11.39
  -4   0  -7  175.94   12.17
   4   0   7  194.28   13.32
  -4   0  -7  186.11   13.31
  -4   0  -7  206.33   13.20
  -4   0  -7  194.35   10.76
   4   0   7  186.26   12.95
   4   0   8  108.16    9.94
   4   0   8  119.61   11.57
  -4   0  -8  112.98   11.45
  -4   0  -8  130.02   11.60
  -4   0  -8  127.14   11.73
  -4   0  -8  123.30    9.02
   4   0   8  130.81   12.02
   4   0   9   48.98    8.30
  -4   0  -9   37.90    6.15
   4   0   9   47.86    7.13
  -4   0  -9   51.06    8.83
  -4   0  -9   42.92    7.88
   4   0   9   37.35    7.34
   4   0  10   49.28    9.50
  -4   0 -10   40.12    7.20
   4   0  10   38.30    6.55
  -4   0 -10   61.83    9.93
  -4   0 -10   46.15    8.79
   4   0  10   45.02    8.96
  -4   0 -11   21.34    5.95
  -4   0 -11   19.44    6.69
  -4   0 -11   32.80    7.86
   4   0  11   12.63    5.33
   4   1 -10   14.46    4.86
   4   1 -10    1.51    2.99
   4   1 -10   14.53    6.27
  -4  -1  10    3.11    3.48
   4   1  -9   86.55   10.62
   4   1  -9   99.42   11.34
  -4  -1   9   87.09   10.65
   4   1  -9   99.19   12.68
  -4  -1   9   81.40   10.12
   4   1  -8   22.37    5.52
  -4  -1   8   24.76    5.90
   4   1  -8   12.04    4.72
   4   1  -8   27.58    7.15
  -4  -1   8   25.26    5.94
   4   1  -7  244.24   15.69
   4   1  -7  246.83   15.66
  -4  -1   7  266.17   16.88
   4   1  -7  271.19   17.88
  -4  -1   7  236.07   15.82
   4   1  -6   48.04    6.93
  -4  -1   6   53.12    7.31
   4   1  -6   59.03    8.23
  -4  -1   6   44.69    6.51
   4   1  -5  380.00   14.22
  -4  -1   5  366.69   16.26
   4   1  -5  357.06   16.38
   4   1  -5  373.81   12.85
   4   1  -5  372.89   17.33
  -4  -1   5  359.40   16.01
  -4  -1   5  344.33   16.96
  -4  -1   4  290.25   13.37
   4   1  -4  290.92   13.83
   4   1  -4  275.95   10.16
   4   1  -4  284.53   13.75
  -4  -1   4  288.09   14.41
   4   1  -4  275.84   10.85
  -4  -1   3  687.42   19.13
   4   1  -3  714.60   19.30
   4   1  -3  698.96   15.02
   4   1  -3  726.21   19.71
  -4  -1   3  713.42   21.25
   4   1  -3  723.68   15.99
   4   1  -2  432.14   11.70
  -4  -1   2  470.51   11.39
   4   1  -2  446.73   11.84
   4   1  -2  459.91   13.31
  -4  -1   2  469.71   11.03
   4   1  -2  477.17   14.74
   4   1  -2  452.66   13.96
  -4  -1   2  460.24   15.82
   4   1  -1  954.83   17.00
   4   1  -1  921.91   17.16
   4   1  -1  913.32   18.84
  -4  -1   1  903.17   21.36
  -4  -1   1  913.66   13.81
  -4  -1   0   52.74    3.31
   4   1   0   46.80    2.00
   4   1   0   49.18    4.36
   4   1   0   55.19    4.74
   4   1   0   51.24    4.33
  -4  -1   0   62.90    5.79
   4   1   1 1297.42   20.96
   4   1   1 1302.30   21.74
  -4  -1  -1 1246.11   20.51
   4   1   1 1303.30   21.84
  -4  -1  -1 1287.05   23.89
   4   1   1 1265.42   16.25
   4   1   2  449.24   13.50
   4   1   2  421.57    9.25
  -4  -1  -2  437.04   12.77
   4   1   2  438.44   10.34
   4   1   2  468.00   13.34
  -4  -1  -2  464.39   14.30
   4   1   3  802.90   19.64
  -4  -1  -3  777.54   11.99
   4   1   3  835.88   19.64
  -4  -1  -3  800.98   18.46
  -4  -1  -3  799.16   18.89
   4   1   3  786.19   18.15
   4   1   4  244.14   11.44
  -4  -1  -4  237.07    8.39
   4   1   4  235.29   11.14
  -4  -1  -4  240.52   11.16
  -4  -1  -4  251.08   11.15
   4   1   4  243.67   10.97
   4   1   5  378.57   15.12
  -4  -1  -5  366.21   12.70
   4   1   5  369.17   14.93
  -4  -1  -5  372.72   15.09
  -4  -1  -5  382.76   14.45
   4   1   5  366.75   14.36
  -4  -1  -5  352.98    8.60
  -4  -1  -6  150.86    4.40
   4   1   6  145.87   10.29
  -4  -1  -6  152.37    9.73
   4   1   6  181.35   11.38
  -4  -1  -6  153.66   10.78
  -4  -1  -6  163.87    9.95
   4   1   6  179.69   11.17
   4   1   7  224.39   13.62
  -4  -1  -7  227.62   13.38
   4   1   7  234.20   14.06
  -4  -1  -7  220.35   14.27
  -4  -1  -7  229.89   13.18
  -4  -1  -7  226.61   12.30
   4   1   7  242.64   14.17
   4   1   8  110.83   10.35
  -4  -1  -8  108.34   10.33
   4   1   8  121.36   11.14
  -4  -1  -8  132.82   12.33
  -4  -1  -8  116.11   10.44
  -4  -1  -8  126.24    9.84
   4   1   8  128.76   11.48
   4   1   9   57.54    8.83
   4   1   9   66.31    8.63
  -4  -1  -9   66.32    8.49
   4   1   9   63.70    9.14
  -4  -1  -9   58.67    9.12
  -4  -1  -9   57.63    8.46
  -4  -1  -9   65.79    7.37
   4   1  10   52.04    9.34
  -4  -1 -10   55.37    8.44
   4   1  10   53.33    8.21
  -4  -1 -10   43.45    8.30
  -4  -1 -10   41.45    7.86
   4   1  10   47.09    8.45
   4   1  11   13.37    5.95
  -4  -1 -11   24.92    6.09
   4   1  11   11.01    4.08
  -4  -1 -11    6.79    4.09
  -4  -1 -11   12.71    5.35
   4   1  11   20.26    6.91
  -4  -1 -12   10.84    5.11
   4   2 -10    7.68    3.63
   4   2 -10   -2.30    3.66
  -4  -2  10    3.22    4.13
   4   2  -9   78.21    9.90
   4   2  -9   69.60    9.01
   4   2  -9   81.10   11.42
  -4  -2   9   58.51    9.10
   4   2  -8    2.45    2.99
   4   2  -8   -0.97    2.68
   4   2  -8   -4.03    3.99
  -4  -2   8   -0.24    2.15
  -4  -2   8    5.12    4.14
   4   2  -7  128.96   11.42
  -4  -2   7  127.09   12.46
   4   2  -7  126.20   13.00
   4   2  -7  130.09   11.30
  -4  -2   7  126.81   11.33
  -4  -2   6   42.64    6.88
   4   2  -6   38.96    6.12
   4   2  -6   44.46    6.50
   4   2  -6   42.40    7.46
  -4  -2   6   37.12    5.77
  -4  -2   6   33.88    6.11
   4   2  -5  316.64   14.14
  -4  -2   5  295.39   14.27
   4   2  -5  336.28   15.74
   4   2  -5  329.28   13.47
   4   2  -5  323.94   17.10
  -4  -2   5  318.90   15.95
  -4  -2   5  319.61   15.84
   4   2  -4   60.60    5.84
  -4  -2   4   54.56    5.88
   4   2  -4   57.07    6.40
   4   2  -4   57.31    5.43
   4   2  -4   55.04    6.64
  -4  -2   4   61.92    6.91
   4   2  -3  747.97   18.00
   4   2  -3  718.92   18.87
   4   2  -3  753.92   17.44
   4   2  -3  796.86   21.65
  -4  -2   3  764.14   21.29
   4   2  -2  142.63    7.60
   4   2  -2  141.53    7.47
   4   2  -2  133.18    7.18
   4   2  -2  142.76    8.34
   4   2  -2  130.72    7.55
  -4  -2   2  141.60    8.83
  -4  -2   2  120.98    6.60
   4   2  -1  893.98   18.10
   4   2  -1  899.09   13.46
   4   2  -1  913.61   18.40
   4   2  -1  874.07   16.06
   4   2  -1  891.58   18.60
   4   2  -1  916.30   18.27
  -4  -2   1  899.76   21.11
  -4  -2   1  896.44   16.08
  -4  -2   0  300.51    8.97
   4   2   0  287.45   10.16
   4   2   0  292.49   10.57
   4   2   0  296.73    9.31
   4   2   0  306.86   10.23
  -4  -2   0  293.55   11.86
  -4  -2  -1  959.20   15.99
   4   2   1 1015.58   19.33
   4   2   1  999.16   19.92
  -4  -2  -1  958.56   16.74
   4   2   1  955.17   17.04
   4   2   1  967.81   18.10
  -4  -2  -1  963.35   20.87
   4   2   1  984.96   16.37
   4   2   2  357.45   10.21
   4   2   2  364.55   12.17
   4   2   2  363.82   12.32
  -4  -2  -2  335.54   10.51
   4   2   2  349.08   11.00
  -4  -2  -2  338.72   12.50
   4   2   3 1031.39   22.38
   4   2   3 1059.12   21.86
  -4  -2  -3  959.24   10.68
  -4  -2  -3  992.99   19.40
   4   2   3 1023.64   19.73
  -4  -2  -3 1063.58   22.40
   4   2   4  142.98    8.98
   4   2   4  150.62    9.04
  -4  -2  -4  148.97    6.32
  -4  -2  -4  132.00    7.91
  -4  -2  -4  146.76    8.85
   4   2   4  157.65    8.39
  -4  -2  -5  462.58   14.12
   4   2   5  454.35   16.88
   4   2   5  469.86   16.64
  -4  -2  -5  466.92   16.30
  -4  -2  -5  484.42   16.54
   4   2   5  468.57   15.58
  -4  -2  -6  143.92    3.98
  -4  -2  -6  142.90    4.43
   4   2   6  165.66   11.10
  -4  -2  -6  155.14    9.89
   4   2   6  157.00   10.48
  -4  -2  -6  158.63   10.83
  -4  -2  -6  159.68   10.39
   4   2   6  160.02   10.04
   4   2   7   44.38    6.50
  -4  -2  -7   36.05    5.88
   4   2   7   40.36    6.28
  -4  -2  -7   40.42    6.78
  -4  -2  -7   39.10    5.60
   4   2   7   39.89    6.12
  -4  -2  -7   36.40    5.92
   4   2   8   54.45    7.47
  -4  -2  -8   77.36    8.49
   4   2   8   97.54    9.77
  -4  -2  -8   82.63    9.74
  -4  -2  -8   80.56    8.31
  -4  -2  -8   91.35    8.70
   4   2   8   95.96    9.80
   4   2   9   93.82   10.50
  -4  -2  -9   87.37    9.42
   4   2   9   96.32   10.59
  -4  -2  -9  101.35   11.72
  -4  -2  -9   93.79    9.74
  -4  -2  -9   98.07    9.82
   4   2   9  107.90   11.46
  -4  -2 -10   70.77    9.14
   4   2  10   68.42    9.82
  -4  -2 -10   76.86   10.98
   4   2  10   50.01    8.06
  -4  -2 -10   45.94    7.49
  -4  -2 -10   62.75    8.07
   4   2  10   81.13   10.93
   4   2  11   33.91    8.21
  -4  -2 -11   48.09    7.90
  -4  -2 -11   45.72    8.86
   4   2  11   40.69    7.71
  -4  -2 -11   30.53    6.93
   4   2  11   42.94    8.83
  -4  -2 -12   30.81    6.71
   4   2  12   25.89    5.87
  -4  -2 -12    9.94    4.28
   4   3  -9   60.31    8.88
   4   3  -9   67.60   10.23
  -4  -3   9   69.15   10.25
  -4  -3   8   17.67    5.80
   4   3  -8   11.74    4.70
   4   3  -8   11.72    4.30
   4   3  -8   12.70    5.20
   4   3  -7  130.06   11.48
   4   3  -7  149.88   11.65
  -4  -3   7  128.49   13.40
   4   3  -7  146.74   14.12
  -4  -3   7  128.27   11.19
  -4  -3   6   24.36    6.06
   4   3  -6   21.53    4.92
   4   3  -6   18.74    4.37
  -4  -3   6   21.06    4.49
   4   3  -6   12.52    4.97
  -4  -3   6   17.18    4.47
  -4  -3   5  303.80   14.20
   4   3  -5  313.92   15.34
   4   3  -5  316.23   15.38
   4   3  -5  318.41   14.67
   4   3  -5  343.07   15.60
   4   3  -5  326.76   18.27
  -4  -3   5  344.59   17.54
  -4  -3   5  295.85   15.05
  -4  -3   4   43.09    5.20
  -4  -3   4   40.50    2.61
   4   3  -4   35.02    5.23
   4   3  -4   44.77    5.75
   4   3  -4   37.18    5.05
   4   3  -4   42.93    6.67
  -4  -3   4   48.91    6.03
   4   3  -3  588.26   17.32
   4   3  -3  597.37   17.35
   4   3  -3  582.70   17.49
   4   3  -3  609.24   20.08
  -4  -3   3  590.31   18.58
   4   3  -2  145.86    8.41
   4   3  -2  141.77    7.09
   4   3  -2  132.73    7.93
   4   3  -2  141.94    6.49
   4   3  -2  133.31    8.43
  -4  -3   2  135.01    8.67
  -4  -3   2  137.14    7.82
   4   3  -1  961.48   20.18
   4   3  -1  940.43   13.33
   4   3  -1  911.37   19.89
   4   3  -1  929.55   15.21
   4   3  -1  956.44   19.81
   4   3  -1  928.94   18.36
  -4  -3   1  962.37   21.89
  -4  -3   1  925.89   18.62
  -4  -3   0  231.22    8.92
   4   3   0  242.08   10.16
   4   3   0  205.22    3.69
   4   3   0  254.79   10.62
   4   3   0  221.08    7.41
   4   3   0  233.39    8.83
   4   3   0  226.42    8.57
  -4  -3   0  235.15   10.80
  -4  -3  -1  813.63   16.56
   4   3   1  799.29   18.85
  -4  -3  -1  820.78   14.14
   4   3   1  788.65   14.42
   4   3   1  809.20   15.65
  -4  -3  -1  826.30   19.77
  -4  -3  -1  833.45   16.08
   4   3   1  819.96   18.37
   4   3   2   74.59    6.24
   4   3   2   79.04    6.12
   4   3   2   75.52    6.20
  -4  -3  -2   73.80    4.69
   4   3   2   78.01    5.15
   4   3   2   70.95    4.85
  -4  -3  -2   79.74    6.51
   4   3   3  273.43   11.57
   4   3   3  283.93   12.06
   4   3   3  259.72   11.17
  -4  -3  -3  239.92    4.69
  -4  -3  -3  261.80    9.45
   4   3   3  266.88    8.70
   4   3   3  273.28    9.67
  -4  -3  -3  290.12   12.45
   4   3   4  338.35   13.87
   4   3   4  333.96   13.18
  -4  -3  -4  324.25    9.52
  -4  -3  -4  322.61   11.62
   4   3   4  318.89   10.27
   4   3   4  314.26   11.14
  -4  -3  -4  343.67   13.84
  -4  -3  -5  463.40   12.21
   4   3   5  461.11   17.29
   4   3   5  507.30   17.07
  -4  -3  -5  465.26   14.82
  -4  -3  -5  461.56   15.62
  -4  -3  -5  465.16   17.10
   4   3   5  450.52   14.57
   4   3   6  205.94   12.63
   4   3   6  203.65   11.79
  -4  -3  -6  210.25   11.41
  -4  -3  -6  196.27    5.86
  -4  -3  -6  204.00   11.77
  -4  -3  -6  209.09   12.10
   4   3   6  206.10   10.78
   4   3   7  499.88   20.99
  -4  -3  -7  500.41   18.98
   4   3   7  512.91   19.74
  -4  -3  -7  535.05   21.07
  -4  -3  -7  512.76   16.86
  -4  -3  -7  502.14   19.79
   4   3   7  510.68   18.74
   4   3   8  137.17   12.21
  -4  -3  -8  132.46   10.77
   4   3   8  117.81   10.33
  -4  -3  -8  118.16   11.44
  -4  -3  -8  127.07    9.44
  -4  -3  -8  128.18   10.97
   4   3   8  136.04   10.92
   4   3   9  117.77   12.18
  -4  -3  -9  111.86   10.48
   4   3   9  108.74   10.83
  -4  -3  -9  123.64   12.71
  -4  -3  -9  109.37    9.76
  -4  -3  -9  106.64   10.70
   4   3   9  117.53   11.38
   4   3  10   32.99    7.13
  -4  -3 -10   36.22    6.58
  -4  -3 -10   34.40    7.89
   4   3  10   33.59    7.17
  -4  -3 -10   36.82    6.43
   4   3  10   37.07    7.39
  -4  -3 -10   38.56    7.11
   4   3  11   53.73    9.49
  -4  -3 -11   45.26    7.61
  -4  -3 -11   61.13    9.66
   4   3  11   47.73    8.47
  -4  -3 -11   31.53    7.01
   4   3  11   53.13    9.24
  -4  -3 -11   45.72    7.62
  -4  -3 -12   12.98    4.93
   4   3  12   16.71    5.43
   4   4  -9   50.86    8.18
   4   4  -8    8.93    4.56
  -4  -4   8    8.23    4.47
   4   4  -7  111.88   11.03
  -4  -4   7  135.11   13.94
   4   4  -7  106.37   11.73
   4   4  -6   12.93    4.25
  -4  -4   6    7.64    3.28
   4   4  -6    9.08    3.34
   4   4  -6   13.15    5.21
  -4  -4   6   14.09    5.66
  -4  -4   6    8.87    3.51
   4   4  -5  268.79   15.24
   4   4  -5  285.54   15.25
   4   4  -5  291.92   15.37
   4   4  -5  315.46   14.09
   4   4  -5  295.31   17.84
  -4  -4   5  305.32   17.78
  -4  -4   5  261.54   14.22
  -4  -4   5  262.40   12.91
  -4  -4   4  141.74    8.89
  -4  -4   4  144.30    6.38
   4   4  -4  153.78   10.44
   4   4  -4  155.60   10.62
   4   4  -4  159.77    9.47
   4   4  -4  166.78   13.00
   4   4  -4  159.80   10.92
  -4  -4   4  157.37   10.40
   4   4  -3  485.25   15.78
   4   4  -3  499.36   17.64
   4   4  -3  496.40   14.78
   4   4  -3  507.30   19.85
  -4  -4   3  497.39   17.16
   4   4  -3  528.33   18.28
   4   4  -2   25.82    4.39
   4   4  -2   24.33    3.49
   4   4  -2   27.00    2.67
   4   4  -2   20.29    3.94
  -4  -4   2   24.35    4.20
   4   4  -2   25.56    4.62
  -4  -4   2   24.36    4.24
   4   4  -1 1210.64   24.75
   4   4  -1 1168.74   16.93
   4   4  -1 1144.42   23.94
   4   4  -1 1161.71   15.03
   4   4  -1 1230.89   24.17
  -4  -4   1 1186.62   24.75
  -4  -4   1 1196.97   23.36
  -4  -4   0    2.55    1.42
   4   4   0    2.58    2.49
  -4  -4   0    1.01    1.99
   4   4   0    2.30    0.94
   4   4   0    4.46    2.65
   4   4   0    6.11    1.33
   4   4   0    6.61    2.28
  -4  -4   0    2.16    2.38
   4   4   0    1.85    1.59
  -4  -4  -1  847.11   18.56
   4   4   1  838.22   19.75
   4   4   1  842.51   20.36
   4   4   1  809.13   13.45
   4   4   1  810.91   14.83
   4   4   1  794.64   14.71
  -4  -4  -1  808.91   20.13
  -4  -4  -1  801.23   15.06
  -4  -4  -2   93.72    6.44
   4   4   2   96.79    7.09
   4   4   2   92.33    6.83
   4   4   2   88.58    6.96
  -4  -4  -2   97.45    4.83
   4   4   2   92.22    5.42
   4   4   2   90.38    5.09
  -4  -4  -2   94.93    7.22
  -4  -4  -2   90.13    5.18
   4   4   3 1098.49   23.27
   4   4   3 1090.82   23.83
  -4  -4  -3  996.89   10.10
   4   4   3 1098.20   23.81
  -4  -4  -3  960.10   13.43
  -4  -4  -3 1037.36   17.55
   4   4   3 1081.38   21.28
   4   4   3 1028.86   15.23
   4   4   3 1058.52   17.86
  -4  -4  -3 1109.27   24.73
  -4  -4  -3 1046.61   18.43
   4   4   4  139.76    8.94
   4   4   4  127.78    8.92
   4   4   4  134.83    8.58
   4   4   4  127.98    8.79
  -4  -4  -4  128.70    6.74
  -4  -4  -4  126.08    7.02
   4   4   4  121.81    5.77
   4   4   4  134.28    6.93
  -4  -4  -4  136.00    9.27
  -4  -4  -5  437.77   12.55
   4   4   5  489.60   17.07
   4   4   5  479.45   16.55
   4   4   5  450.58   17.49
  -4  -4  -5  426.84   14.27
  -4  -4  -5  462.46   15.01
   4   4   5  462.86   13.10
  -4  -4  -5  463.94   17.35
   4   4   5  446.05   13.61
  -4  -4  -6   85.93    4.64
   4   4   6   86.54    7.82
   4   4   6   97.96    9.12
  -4  -4  -6   82.97    7.38
  -4  -4  -6   82.63    7.41
  -4  -4  -6   90.82    8.44
   4   4   6   89.52    6.94
   4   4   7  302.17   15.13
   4   4   7  273.15   15.96
  -4  -4  -7  283.05   14.35
  -4  -4  -7  289.92   15.23
  -4  -4  -7  295.29   15.82
   4   4   7  295.09   13.63
   4   4   8   56.98    7.55
  -4  -4  -8   45.15    6.38
  -4  -4  -8   35.50    6.13
  -4  -4  -8   44.66    5.33
   4   4   8   43.73    7.12
   4   4   8   43.48    6.14
  -4  -4  -8   48.39    7.21
   4   4   9  130.79   13.24
   4   4   9  139.19   11.85
  -4  -4  -9  134.30   11.62
  -4  -4  -9  136.08   13.17
  -4  -4  -9  149.48   10.61
  -4  -4  -9  155.00   13.35
   4   4   9  139.62   11.80
   4   4  10   22.77    6.10
  -4  -4 -10   15.47    4.90
  -4  -4 -10   15.96    5.53
   4   4  10    9.61    4.55
  -4  -4 -10   15.01    4.23
   4   4  10   21.38    5.88
  -4  -4 -10   29.25    6.88
   4   4  11   42.73    8.60
  -4  -4 -11   42.64    7.70
  -4  -4 -11   42.17    8.24
   4   4  11   47.46    8.99
  -4  -4 -11   32.14    6.19
   4   4  11   41.30    7.88
  -4  -4 -11   52.24    8.52
   4   4  12   16.60    5.76
  -4  -4 -12   12.96    4.45
   4   4  12   10.47    4.73
   4   4  12   19.44    6.26
  -4  -4 -12    8.92    3.79
   4   5  -8    2.72    2.92
   4   5  -8   -1.75    2.80
  -4  -5   8   -0.62    3.42
   4   5  -7   94.06   10.56
  -4  -5   7   95.17   12.67
   4   5  -7   97.64   11.41
  -4  -5   6    3.04    3.74
   4   5  -6    2.24    2.61
   4   5  -6    1.75    3.54
  -4  -5   6    3.46    2.11
   4   5  -5  289.06   17.01
   4   5  -5  276.31   15.85
   4   5  -5  298.13   16.88
   4   5  -5  320.17   18.37
  -4  -5   5  301.64   18.61
  -4  -5   5  277.18   14.40
  -4  -5   5  296.56   13.43
  -4  -5   4   31.37    4.43
   4   5  -4   22.96    5.15
  -4  -5   4   34.26    3.96
   4   5  -4   39.22    5.86
   4   5  -4   27.34    5.47
   4   5  -4   25.54    3.57
   4   5  -4   34.84    6.18
  -4  -5   4   35.24    5.23
   4   5  -3  561.36   20.28
   4   5  -3  562.87   17.80
  -4  -5   3  559.98   16.18
   4   5  -3  599.46   20.91
   4   5  -3  564.70   13.49
   4   5  -3  567.99   22.02
  -4  -5   3  567.53   18.50
  -4  -5   2    3.80    2.77
   4   5  -2   15.54    3.83
   4   5  -2    7.30    2.34
   4   5  -2    7.68    3.42
   4   5  -2    9.06    1.37
   4   5  -2    8.08    1.69
   4   5  -2    9.37    3.53
  -4  -5   2    7.75    2.83
   4   5  -1  429.13   16.04
   4   5  -1  408.91   11.40
  -4  -5   1  412.18   14.41
   4   5  -1  384.48   15.21
   4   5  -1  406.82   15.72
  -4  -5   1  405.12   15.06
  -4  -5   1  390.31   14.93
  -4  -5   0   30.12    4.39
   4   5   0   29.16    4.50
  -4  -5   0   30.91    3.64
   4   5   0   24.42    4.22
   4   5   0   23.36    3.68
  -4  -5   0   29.04    2.98
  -4  -5   0   29.32    4.37
  -4  -5  -1  740.71   18.97
   4   5   1  740.50   19.99
  -4  -5  -1  735.32   12.87
   4   5   1  739.35   20.26
   4   5   1  666.85   11.08
   4   5   1  722.47   14.90
   4   5   1  723.76   13.15
  -4  -5  -1  717.31   19.76
  -4  -5  -1  707.44   13.11
   4   5   2   12.82    2.02
  -4  -5  -2    9.26    3.00
  -4  -5  -2   15.53    2.23
   4   5   2   13.12    3.63
  -4  -5  -2   15.97    1.72
   4   5   2   18.01    3.43
  -4  -5  -2   14.33    1.72
   4   5   2   15.92    3.72
   4   5   2   14.45    2.42
   4   5   2   18.05    2.12
  -4  -5  -2   14.84    3.59
   4   5   3  397.99   14.82
   4   5   3  402.78   14.84
  -4  -5  -3  386.38    7.99
   4   5   3  396.57   15.27
  -4  -5  -3  397.47    9.99
   4   5   3  392.13   13.72
   4   5   3  376.56    7.60
   4   5   3  397.52    7.83
   4   5   3  394.45   10.04
  -4  -5  -3  403.54   15.58
   4   5   4   66.79    6.58
   4   5   4   80.97    7.38
   4   5   4   77.41    7.19
  -4  -5  -4   62.06    4.63
   4   5   4   69.13    3.89
   4   5   4   67.95    4.72
  -4  -5  -4   71.80    7.11
   4   5   5  464.48   16.94
   4   5   5  446.28   16.07
   4   5   5  476.65   18.21
   4   5   5  434.77   16.73
  -4  -5  -5  421.17   13.74
   4   5   5  450.47   12.36
   4   5   5  429.63   12.65
  -4  -5  -5  459.94   17.96
   4   5   6   49.88    6.26
   4   5   6   49.38    6.12
   4   5   6   54.91    6.75
   4   5   6   53.43    6.85
  -4  -5  -6   45.79    5.68
  -4  -5  -6   52.49    5.90
  -4  -5  -6   51.56    6.73
   4   5   6   52.02    5.06
   4   5   7  253.59   13.91
   4   5   7  251.71   13.51
   4   5   7  227.76   14.92
  -4  -5  -7  254.62   13.77
  -4  -5  -7  249.87   13.95
  -4  -5  -7  239.62   14.78
   4   5   7  257.73   12.12
   4   5   8   17.98    4.38
  -4  -5  -8   12.20    4.19
  -4  -5  -8   11.33    4.16
   4   5   8   11.17    4.22
   4   5   8   18.76    4.51
  -4  -5  -8   12.75    4.66
   4   5   9  132.58   11.50
  -4  -5  -9  121.74   10.95
   4   5   9  124.52   13.03
  -4  -5  -9  114.35   11.88
  -4  -5  -9  124.13    8.84
  -4  -5  -9  101.59   11.40
   4   5   9  125.10   10.70
   4   5  10    7.53    3.78
  -4  -5 -10    5.80    3.42
  -4  -5 -10    6.23    4.28
   4   5  10    7.26    5.01
   4   5  10   10.32    4.01
  -4  -5 -10   17.61    5.88
   4   5  11   57.50    9.11
  -4  -5 -11   42.89    7.92
  -4  -5 -11   43.98    8.65
   4   5  11   49.61    9.51
   4   5  11   39.23    7.47
  -4  -5 -11   36.44    7.70
   4   5  12    8.97    5.38
  -4  -5 -12    2.23    3.66
  -4  -5 -12    1.52    2.94
   4   5  12   -3.02    3.05
   4   5  12   -5.54    3.85
  -4  -5 -12    7.79    3.48
   4   6  -8   -1.00    2.35
  -4  -6   7   81.60   11.74
   4   6  -7   71.09    9.52
   4   6  -7   86.82   10.75
  -4  -6   6    7.48    4.37
   4   6  -6    3.43    3.10
   4   6  -6   -1.99    3.24
   4   6  -5  126.03   12.20
   4   6  -5  143.24   11.86
   4   6  -5  120.37   11.69
   4   6  -5  131.95   11.83
  -4  -6   5  129.29   13.19
  -4  -6   5  118.17    9.41
  -4  -6   4    2.45    3.18
   4   6  -4    2.81    3.29
   4   6  -4    1.58    2.78
   4   6  -4    1.74    3.15
   4   6  -4    3.58    2.66
  -4  -6   4   -0.01    2.00
   4   6  -3  225.24   14.06
   4   6  -3  223.41   12.03
   4   6  -3  205.68   13.54
  -4  -6   3  222.39   10.00
   4   6  -3  231.17   13.91
  -4  -6   3  203.06   11.34
  -4  -6   3  233.71   14.14
  -4  -6   2    2.14    3.31
   4   6  -2   -3.71    2.93
   4   6  -2    3.06    1.91
   4   6  -2    5.90    3.31
   4   6  -2   -1.04    1.91
  -4  -6   2    2.83    2.30
   4   6  -1  375.54   16.25
   4   6  -1  359.02   12.05
   4   6  -1  309.24   15.12
   4   6  -1  342.85   14.49
  -4  -6   1  337.18   14.06
  -4  -6   1  354.35   15.31
  -4  -6   0    4.11    2.55
   4   6   0    5.55    3.09
   4   6   0    4.15    2.94
   4   6   0    1.81    2.09
  -4  -6   0    5.95    2.71
  -4  -6  -1  388.38   15.07
   4   6   1  387.11   15.48
  -4  -6  -1  390.70   11.07
   4   6   1  377.91   15.59
   4   6   1  396.54   11.78
  -4  -6  -1  388.22   15.03
  -4  -6  -1  377.04    8.43
  -4  -6  -2   54.37    6.02
   4   6   2   48.38    5.84
   4   6   2   48.71    5.35
  -4  -6  -2   46.94    3.59
   4   6   2   51.34    6.23
   4   6   2   43.49    2.79
   4   6   2   40.37    2.76
  -4  -6  -2   51.26    5.88
  -4  -6  -2   45.83    3.04
  -4  -6  -3  410.06   15.54
   4   6   3  423.25   16.00
   4   6   3  398.69   15.10
  -4  -6  -3  391.56    9.73
   4   6   3  410.79   16.30
  -4  -6  -3  400.38    8.65
   4   6   3  388.84    8.67
  -4  -6  -3  422.81   16.44
   4   6   4    0.20    1.09
   4   6   4    2.56    2.55
  -4  -6  -4    0.00    0.98
   4   6   4    0.30    2.60
   4   6   4    1.61    1.89
  -4  -6  -4    0.33    1.15
  -4  -6  -4    4.63    2.66
   4   6   5  384.37   16.73
   4   6   5  371.78   15.99
  -4  -6  -5  360.29   12.11
   4   6   5  405.96   16.42
   4   6   5  357.57   10.57
  -4  -6  -5  391.10   17.12
   4   6   6   40.60    5.59
   4   6   6   35.78    5.54
   4   6   6   43.96    6.27
  -4  -6  -6   40.78    5.10
   4   6   6   33.49    5.96
   4   6   6   39.45    4.17
  -4  -6  -6   39.01    6.11
   4   6   7  210.10   12.91
   4   6   7  202.26   12.13
   4   6   7  211.78   12.99
   4   6   7  203.37   14.31
  -4  -6  -7  183.69   11.58
  -4  -6  -7  222.76   14.64
   4   6   7  202.80   10.10
   4   6   8   20.49    4.06
  -4  -6  -8   29.58    5.75
   4   6   8   20.22    5.21
  -4  -6  -8   16.36    4.61
   4   6   8   27.02    6.06
   4   6   8   28.68    5.58
   4   6   8   24.24    5.10
  -4  -6  -8   19.28    5.37
   4   6   9  117.42   10.90
   4   6   9   93.26    9.46
   4   6   9   95.47    9.78
  -4  -6  -9  115.23   11.06
   4   6   9   98.91   11.98
  -4  -6  -9   83.22   10.07
  -4  -6  -9  109.47   12.04
   4   6   9  103.37    9.24
   4   6  10   16.01    4.31
   4   6  10   13.18    4.64
  -4  -6 -10   14.81    4.93
   4   6  10    7.95    3.79
  -4  -6 -10   12.23    4.89
   4   6  10   13.10    5.78
   4   6  10   16.34    4.83
  -4  -6 -10   18.10    5.88
   4   6  11   21.16    5.44
   4   6  11   26.85    6.16
  -4  -6 -11   17.80    5.43
   4   6  11   13.40    5.39
  -4  -6 -11   31.43    7.21
   4   6  11   17.24    6.35
   4   6  11   26.14    6.12
  -4  -6 -11   27.52    7.64
   4   6  12   12.27    4.59
   4   6  12   15.98    5.54
  -4  -6 -12   -3.46    3.11
   4   6  12    9.85    3.89
  -4  -6 -12   11.49    4.53
   4   7  -7   41.08    7.62
   4   7  -7   42.58    7.49
  -4  -7   6   -2.26    4.27
   4   7  -6   -4.52    3.56
   4   7  -6   -8.06    3.29
   4   7  -5   93.66   11.30
   4   7  -5   95.17   10.43
   4   7  -5  102.87   10.45
  -4  -7   5  107.30   12.92
  -4  -7   4    1.71    2.99
  -4  -7   4    3.84    3.63
   4   7  -4    4.24    3.78
   4   7  -4   -0.42    2.84
   4   7  -4    2.69    4.05
   4   7  -4   -0.08    2.29
   4   7  -3  154.06   12.51
  -4  -7   3  160.68   10.02
   4   7  -3  156.57   10.81
   4   7  -3  153.98   12.82
   4   7  -3  168.80   11.82
  -4  -7   3  163.36   10.43
  -4  -7   3  171.12   13.06
  -4  -7   2    2.54    3.07
   4   7  -2    0.98    2.92
   4   7  -2    4.31    2.52
   4   7  -2    1.24    2.65
   4   7  -2    0.76    1.88
  -4  -7   2    3.72    2.65
   4   7  -1  205.53   13.08
   4   7  -1  223.89   10.54
   4   7  -1  223.39   13.87
   4   7  -1  217.24   11.25
  -4  -7   1  212.63   11.48
  -4  -7   1  207.20   12.76
  -4  -7   0   -0.22    2.78
   4   7   0    0.13    2.49
   4   7   0   -0.85    2.48
   4   7   0   -5.12    2.03
  -4  -7   0    1.18    1.92
  -4  -7  -1  236.07   12.73
   4   7   1  227.28   13.16
   4   7   1  235.41   13.02
   4   7   1  236.76    6.95
  -4  -7  -1  242.69   12.44
   4   7   2   41.46    5.77
   4   7   2   37.43    5.70
   4   7   2   31.64    4.39
  -4  -7  -2   33.75    5.50
  -4  -7  -2   42.71    5.60
  -4  -7  -3  599.66   19.92
   4   7   3  572.52   19.82
   4   7   3  566.09   18.37
   4   7   3  598.95   20.72
  -4  -7  -3  580.66   19.89
   4   7   4   89.61    8.08
   4   7   4   90.18    7.99
   4   7   4   99.97    8.77
  -4  -7  -4   84.84    4.50
   4   7   4   85.40    3.61
  -4  -7  -4   89.35    8.36
   4   7   5  382.42   16.48
   4   7   5  369.83   16.71
   4   7   5  390.43   17.23
  -4  -7  -5  354.52   11.29
   4   7   5  353.40    9.09
  -4  -7  -5  370.71   17.34
   4   7   6    0.69    1.34
   4   7   6    3.41    3.02
   4   7   6    4.50    2.90
  -4  -7  -6    3.96    1.99
   4   7   6    5.87    3.19
  -4  -7  -6    4.27    3.14
   4   7   7  202.88   12.94
   4   7   7  210.10   13.42
   4   7   7  211.64   14.72
  -4  -7  -7  193.84   11.52
   4   7   7  208.52    9.58
  -4  -7  -7  213.82   14.60
   4   7   8   -0.80    1.99
   4   7   8    4.57    3.12
   4   7   8   -1.38    3.06
  -4  -7  -8   -1.35    2.11
   4   7   8    4.44    3.87
   4   7   8    0.07    2.58
  -4  -7  -8    0.77    3.55
   4   7   9   71.40    8.61
   4   7   9   62.06    7.73
   4   7   9   74.87    8.89
  -4  -7  -9   70.50    8.66
  -4  -7  -9   50.59    7.52
   4   7   9   60.70    9.45
  -4  -7  -9   69.75    9.84
   4   7   9   74.80    7.38
   4   7  10    4.11    2.97
   4   7  10    3.71    3.79
  -4  -7 -10   -0.16    3.73
   4   7  10    6.62    3.23
  -4  -7 -10   -4.21    3.48
   4   7  10   -5.81    4.72
   4   7  10    2.41    2.76
  -4  -7 -10    1.63    2.88
   4   7  11   37.66    7.33
   4   7  11   30.44    6.42
  -4  -7 -11   45.36    8.99
   4   7  11   33.48    8.03
   4   7  11   28.64    6.35
  -4  -7 -11   39.75    8.63
   4   7  12    1.28    2.72
  -4  -7 -12    2.34    3.51
   4   7  12    7.78    3.23
   4   8  -6    0.71    1.86
  -4  -8   5   84.38   12.01
  -4  -8   5   77.12   11.16
   4   8  -5   74.06    9.73
  -4  -8   4    8.09    4.40
  -4  -8   4    1.91    2.84
   4   8  -4    4.59    4.00
   4   8  -4   11.36    4.16
   4   8  -4    9.62    5.28
   4   8  -3  128.79   12.37
  -4  -8   3  114.15    9.43
   4   8  -3  134.79   10.85
   4   8  -3  107.48   11.70
  -4  -8   3  124.29   12.50
  -4  -8   3  121.86   11.87
  -4  -8   2    3.03    3.57
   4   8  -2    1.14    2.39
   4   8  -2   -1.04    2.13
   4   8  -2    1.32    3.13
  -4  -8   2    5.24    2.41
   4   8  -1  263.24   15.76
   4   8  -1  240.22   15.57
  -4  -8   1  228.65   12.32
  -4  -8   1  228.97   14.33
   4   8   0    0.79    2.73
   4   8   0    1.40    3.15
  -4  -8   0   -4.09    3.06
  -4  -8   0    0.72    2.03
  -4  -8  -1  255.09   14.25
   4   8   1  276.31   15.15
   4   8   1  257.60   15.04
  -4  -8  -2   14.05    3.96
   4   8   2   15.48    4.05
   4   8   2   14.03    3.36
   4   8   2   12.07    3.88
  -4  -8  -2   12.67    3.60
  -4  -8  -3  173.35   11.66
   4   8   3  175.23   11.76
   4   8   3  155.51    9.94
   4   8   3  166.04   11.77
  -4  -8  -3  130.18    9.95
  -4  -8  -4    8.75    3.87
   4   8   4    5.68    3.01
   4   8   4    9.41    3.98
   4   8   4   11.48    3.51
  -4  -8  -4    9.18    3.69
   4   8   5  211.62   13.00
   4   8   5  218.17   13.14
   4   8   5  205.99   13.31
  -4  -8  -5  210.44   13.58
   4   8   6   -1.22    2.66
   4   8   6    0.35    2.68
   4   8   6    3.80    2.87
  -4  -8  -6    7.28    3.41
   4   8   7  105.38    9.81
   4   8   7  107.26   10.71
   4   8   7   96.45    9.59
  -4  -8  -7  101.71    8.05
  -4  -8  -7   97.08   10.36
   4   8   8    0.14    3.16
   4   8   8    0.84    2.72
  -4  -8  -8    2.46    2.24
   4   8   8    3.35    3.54
  -4  -8  -8    5.04    3.58
   4   8   9   34.23    6.25
   4   8   9   34.64    6.27
  -4  -8  -9   31.08    6.06
   4   8   9   34.97    7.59
  -4  -8  -9   44.90    8.35
   4   8  10   -4.55    3.26
   4   8  10   -0.87    3.18
  -4  -8 -10   -8.14    4.87
   4   8  10    0.02    2.88
   4   8  10    3.29    2.98
  -4  -8 -10   -5.80    5.06
   4   8  11   28.00    6.31
  -4  -8 -11   34.91    7.27
   4   8  11   34.62    6.60
  -4  -9   4    7.61    4.49
  -4  -9   4    9.47    4.44
   4   9  -4   16.96    6.29
   4   9  -4    3.75    4.12
  -4  -9   3   31.00    6.93
  -4  -9   3   44.12    8.62
   4   9  -3   42.24    7.96
   4   9  -3   37.76    6.22
   4   9  -3   32.41    7.11
  -4  -9   2    7.71    3.73
   4   9  -2    6.95    4.32
   4   9  -2    1.13    2.92
   4   9  -2    5.84    4.58
   4   9  -1   61.99    8.50
   4   9  -1   66.45    9.11
  -4  -9   1   58.91    6.48
  -4  -9   1   63.15    8.42
  -4  -9   0    1.34    3.15
   4   9   0    5.53    3.50
   4   9   0    5.99    3.78
  -4  -9   0    5.48    2.46
  -4  -9  -1  167.23   12.45
   4   9   1  160.28   12.51
   4   9   1  150.26   12.63
  -4  -9  -1  143.44   10.31
  -4  -9  -2    0.01    3.36
   4   9   2    6.06    3.42
   4   9   2    0.91    1.69
   4   9   2    1.13    3.16
  -4  -9  -2   -0.03    2.14
  -4  -9  -3  170.43   12.25
   4   9   3  150.30   11.63
   4   9   3  165.17   10.40
   4   9   3  171.75   12.78
  -4  -9  -3  148.80   11.04
  -4  -9  -4    9.09    4.29
   4   9   4    8.01    3.64
   4   9   4    9.74    3.21
   4   9   4   15.02    4.27
  -4  -9  -4   12.16    4.07
   4   9   5   81.31    8.62
   4   9   5   72.78    7.87
   4   9   5   70.71    8.47
  -4  -9  -5   74.25    8.55
   4   9   6    7.16    3.30
   4   9   6   -2.59    3.22
   4   9   6    1.61    3.04
  -4  -9  -6   -1.61    3.43
   4   9   7   89.03    9.33
   4   9   7   85.30    9.74
   4   9   7   81.26    9.05
  -4  -9  -7   88.28   10.26
   4   9   8   -0.03    2.35
   4   9   8   -4.72    3.77
   4   9   8    4.53    2.96
  -4  -9  -8    1.47    3.18
   4   9   9   40.27    7.01
   4   9   9   32.96    6.68
   4   9   9   40.30    8.18
  -4  -9  -9   29.79    6.65
   4   9  10    6.48    3.92
   4   9  10    3.66    4.00
   4   9  10    8.32    3.28
  -4  -9 -10   -0.02    3.69
   4   9  11    0.29    1.31
  -4 -10   2    6.42    4.20
   4  10  -2   -2.98    3.77
  -4 -10   2   -0.18    2.40
  -4 -10   2   -4.70    3.89
   4  10  -2    4.44    5.33
  -4 -10   1   67.61    9.21
   4  10  -1   56.85    9.00
   4  10  -1   47.60    8.63
  -4 -10   0    8.53    4.08
   4  10   0    7.40    4.18
   4  10   0    7.02    4.57
  -4 -10   0    7.56    3.03
  -4 -10  -1   91.64   10.18
   4  10   1   89.33   10.30
   4  10   1   97.55   11.13
  -4 -10  -1   87.75    8.45
  -4 -10  -2    2.67    4.08
   4  10   2   -0.77    2.59
   4  10   2    6.45    4.35
  -4 -10  -2    1.88    2.30
  -4 -10  -3   86.85    9.60
   4  10   3   99.31   10.23
   4  10   3   87.60   10.17
   4  10   3   80.14    7.38
  -4 -10  -3   62.39    7.59
  -4 -10  -4    3.55    3.58
   4  10   4   -0.27    2.46
   4  10   4   -1.66    2.23
   4  10   4    3.83    3.36
  -4 -10  -4   -5.22    3.36
   4  10   5   72.21    8.73
   4  10   5   67.94    7.90
   4  10   5   66.45    8.66
  -4 -10  -5   63.32    8.08
   4  10   6    6.36    3.65
   4  10   6   -1.43    3.02
   4  10   6    1.37    2.27
  -4 -10  -6    0.70    1.81
   4  10   7    9.16    3.76
   4  10   7   13.54    4.55
   4  10   7   12.79    4.41
  -4 -10  -7   14.66    5.21
   4  10   8    4.13    3.53
   4  10   8    3.35    3.68
   4  10   8    9.76    4.16
  -4 -10  -8    1.99    3.31
   4  10   9   35.71    6.69
   4  10   9   34.34    6.77
   4  10   9   46.06    8.41
  -4 -10  -9   42.88    7.92
   4  10  10   -2.10    2.68
  -4 -11   1   45.43    8.00
  -4 -11   1   34.65    6.93
  -4 -11   0    3.77    3.02
   4  11   0   -0.33    3.39
   4  11   0    0.76    3.11
  -4 -11  -1   51.29    8.34
   4  11   1   53.32    8.47
   4  11   1   37.85    7.84
  -4 -11  -2   15.52    5.43
   4  11   2   16.72    4.91
   4  11   2   21.01    6.43
  -4 -11  -2    9.18    3.51
  -4 -11  -3   60.58    8.55
   4  11   3   68.49    9.19
   4  11   3   62.57    9.51
  -4 -11  -3   46.17    6.87
  -4 -11  -4    8.43    4.25
   4  11   4   16.45    4.83
   4  11   4   14.09    5.13
  -4 -11  -4   11.18    4.73
   4  11   5   35.98    6.63
   4  11   5   38.48    5.88
   4  11   5   28.53    6.43
  -4 -11  -5   31.58    6.18
   4  11   6    1.70    2.38
   4  11   6    5.56    3.95
   4  11   6    3.78    3.26
  -4 -11  -6    3.22    2.84
   4  11   7   45.08    7.37
   4  11   7   34.25    6.85
   4  11   7   40.96    6.90
  -4 -11  -7   51.43    8.17
   4  11   8   -1.84    2.61
   4  11   8    5.71    4.25
   4  11   8    6.85    3.62
   4  11   9   20.25    5.17
   4  12   3    2.98    3.45
   4  12   3    7.51    4.89
  -4 -12  -3    5.32    3.05
   4  12   4   -2.15    3.38
   4  12   4    5.74    3.76
  -4 -12  -4    3.25    2.45
   4  12   5   17.33    4.99
   4  12   5   10.32    4.89
  -4 -12  -5    9.81    3.91
   4  12   6   -4.68    3.45
   4  12   6    3.59    4.26
  -4 -12  -6    1.46    3.09
   4  12   7   15.79    4.96
   4  12   7   10.57    5.18
   4  12   7   16.82    4.70
   5 -10  -4    0.81    5.87
   5 -10  -3    1.73    6.87
   5  -9  -7    1.04    1.29
   5  -9  -6   -3.92    3.12
  -5   9   6   -7.26    5.00
  -5   9   5   18.79    5.85
   5  -9  -5   14.23    6.05
  -5   9   5    3.44    4.63
  -5   9   4   12.28    4.97
   5  -9  -4   12.04    7.40
  -5   9   4   16.50    6.55
   5  -9  -4    0.35    2.22
  -5   9   3   10.38    5.16
   5  -9  -3    8.75    6.21
   5  -9  -3   11.08    4.00
  -5   9   2    1.82    3.17
   5  -9  -2   -7.11    6.77
   5  -9  -2    2.35    2.91
   5  -9  -1   15.81    4.65
  -5   9   1   17.37    5.58
   5  -9  -1   12.39    7.16
   5  -9   0    0.76    3.23
  -5   9   0    1.92    3.18
   5  -9   0    7.12    6.91
  -5   9  -1   20.92    6.10
  -5   9  -2    5.35    4.20
  -5   8   8   -4.83    3.69
   5  -8  -8    0.25    2.00
  -5   8   7    7.57    4.31
   5  -8  -7    8.65    4.46
  -5   8   7   11.45    5.85
  -5   8   6    4.69    3.52
   5  -8  -6    7.65    3.28
  -5   8   6    0.97    3.68
  -5   8   5   25.65    6.75
   5  -8  -5   28.44    7.42
  -5   8   5   14.80    6.83
  -5   8   4    0.05    2.37
   5  -8  -4    9.43    6.73
   5  -8  -4    5.04    3.19
  -5   8   4   11.31    6.54
  -5   8   3   66.45    9.55
  -5   8   3   69.86   11.78
   5  -8  -3   74.04   12.40
   5  -8  -3   68.04    7.97
   5  -8  -2    6.81    5.39
  -5   8   2   14.75    5.32
  -5   8   2   14.08    4.90
   5  -8  -2   19.95    4.79
   5  -8  -1   13.67    3.85
  -5   8   1   17.79    5.15
   5  -8  -1   16.30    7.14
   5  -8   0   11.81    3.71
  -5   8   0    6.89    4.26
   5  -8   0    8.74    6.12
   5  -8   1   14.19    4.24
  -5   8  -1   17.69    5.16
   5  -8   1   24.03    7.81
   5  -8   2    0.10    2.13
  -5   8  -2    5.59    4.59
   5  -8   2   10.28    5.60
   5  -8   3   18.97    5.02
  -5   8  -3   23.46    5.86
   5  -8   3   28.60    8.76
   5  -8   4    3.45    2.90
  -5   8  -4    3.49    3.54
   5  -7  -9    5.80    3.82
  -5   7   9    9.62    4.03
   5  -7  -8   10.66    4.05
  -5   7   8   10.55    5.65
  -5   7   8    9.09    4.66
  -5   7   7   21.87    6.28
   5  -7  -7   19.02    4.80
  -5   7   7   21.15    6.59
  -5   7   6   28.39    7.62
  -5   7   6   23.98    6.45
   5  -7  -6   23.80    5.58
  -5   7   5   11.48    4.43
   5  -7  -5   21.19    6.01
  -5   7   5   21.03    7.07
   5  -7  -5   12.88    4.20
  -5   7   4   32.16    6.77
   5  -7  -4   29.90    7.49
  -5   7   4   31.05    8.29
   5  -7  -4   16.98    4.36
  -5   7   3    7.73    4.32
   5  -7  -3    1.83    4.81
  -5   7   3    2.51    3.25
   5  -7  -3    1.08    2.50
  -5   7   2   16.34    5.19
   5  -7  -2   24.69    7.74
  -5   7   2   17.65    5.90
   5  -7  -2    9.60    3.26
   5  -7  -1   38.70    5.94
  -5   7   1   54.62    7.94
   5  -7  -1   64.89   11.36
  -5   7   1   66.68    9.41
   5  -7   0    2.93    2.45
  -5   7   0    3.70    3.32
   5  -7   0    1.30    5.94
  -5   7   0    2.68    2.99
   5  -7   1   36.61    5.84
  -5   7  -1   43.76    7.09
   5  -7   1   51.20   10.37
   5  -7   2    4.01    3.07
  -5   7  -2    2.23    3.13
   5  -7   2    4.63    4.62
   5  -7   3   39.50    6.51
  -5   7  -3   48.41    7.50
   5  -7   3   46.75    9.60
  -5   7  -3   51.49    7.88
   5  -7   4    6.07    2.83
  -5   7  -4   -2.70    3.47
  -5   7  -4    7.39    3.97
   5  -7   5   11.42    4.60
  -5   7  -5   21.89    5.40
  -5   6  10    7.70    3.97
  -5   6   9    6.27    4.51
   5  -6  -9   14.44    4.74
  -5   6   8   15.97    5.60
   5  -6  -8   15.42    5.09
  -5   6   8   24.12    7.46
  -5   6   7   12.61    5.98
   5  -6  -7    8.75    3.71
  -5   6   7   11.01    4.27
  -5   6   6   29.61    6.90
  -5   6   6   23.80    7.33
   5  -6  -6   31.59    5.99
  -5   6   5   43.08    7.39
   5  -6  -5   36.51    6.30
  -5   6   5   38.36    8.52
   5  -6  -5   37.80    6.57
  -5   6   4   12.07    4.28
   5  -6  -4   16.23    5.29
  -5   6   4    9.25    4.59
   5  -6  -4   10.80    3.61
  -5   6   3   81.89    9.61
   5  -6  -3   76.05   10.43
   5  -6  -3   71.39    7.86
  -5   6   3   88.37   10.81
   5  -6  -2   12.55    3.72
  -5   6   2   21.72    5.13
   5  -6  -2   13.76    6.33
  -5   6   2   19.40    5.46
  -5   6   1   88.01    9.88
  -5   6   1   85.28    9.32
   5  -6  -1   61.90   10.68
   5  -6  -1   67.20    7.50
   5  -6   0   26.85    5.12
  -5   6   0   35.03    6.22
   5  -6   0   26.50    7.99
  -5   6   0   31.63    6.03
  -5   6  -1   93.72    9.60
  -5   6  -1   91.29    9.24
   5  -6   1   98.49   13.01
   5  -6   1   86.56    8.60
   5  -6   2   11.75    3.93
  -5   6  -2   17.13    4.22
   5  -6   2   17.27    6.85
   5  -6   2   22.63    4.17
  -5   6  -2   13.24    3.70
   5  -6   3   40.01    6.42
  -5   6  -3   48.25    6.66
  -5   6  -3   53.97    7.65
   5  -6   3   45.34    6.22
   5  -6   4    5.25    3.32
  -5   6  -4    4.21    3.19
  -5   6  -4    4.16    3.07
   5  -6   4    2.64    2.66
   5  -6   5   35.24    7.00
  -5   6  -5   32.47    5.50
  -5   6  -5   35.68    6.68
  -5   6  -5   35.67    7.14
   5  -6   5   31.48    6.63
   5  -6   6   13.39    5.02
  -5   6  -6   12.92    5.09
  -5   6  -6   10.37    4.18
   5  -6   6    4.50    4.40
  -5   5  10   12.38    4.90
  -5   5   9    8.08    3.22
  -5   5   9    5.80    4.28
  -5   5   8   39.74    8.61
   5  -5  -8   30.10    6.90
  -5   5   8   16.34    5.08
  -5   5   7   23.81    7.14
   5  -5  -7   28.52    6.08
  -5   5   7   29.96    6.98
  -5   5   6   30.30    6.38
  -5   5   6   34.73    7.84
   5  -5  -6   38.96    6.57
  -5   5   5   33.95    6.48
   5  -5  -5   27.95    5.31
  -5   5   5   43.24    8.61
   5  -5  -5   38.80    6.49
  -5   5   4   49.59    7.39
   5  -5  -4   55.86    7.54
   5  -5  -4   57.26    7.22
  -5   5   4   39.96    7.75
  -5   5   3   85.19    9.12
   5  -5  -3   87.63   10.15
   5  -5  -3   97.19    8.86
  -5   5   3   92.16   10.48
  -5   5   2   50.00    7.59
  -5   5   2   38.83    6.31
   5  -5  -2   34.32    7.30
   5  -5  -2   48.74    6.47
  -5   5   1  116.43   10.65
   5  -5  -1  107.28   12.87
  -5   5   1  115.20   10.05
   5  -5  -1  115.63    9.42
   5  -5   0   20.77    4.29
  -5   5   0   29.22    5.47
   5  -5   0   31.19    8.22
  -5   5   0   27.30    5.34
   5  -5   0   25.96    3.26
  -5   5  -1  149.56   11.08
   5  -5   1  142.25   14.69
  -5   5  -1  151.51   11.27
   5  -5   1  156.56    8.75
   5  -5   1  138.03   10.33
  -5   5  -2   70.51    7.68
   5  -5   2   67.38   10.75
  -5   5  -2   65.99    7.59
   5  -5   2   69.93    6.65
  -5   5  -2   71.23    7.94
   5  -5   2   58.57    7.10
  -5   5  -3  163.02   11.18
   5  -5   3  180.68   11.37
  -5   5  -3  162.53   12.15
   5  -5   3  174.40   12.22
  -5   5  -4  104.49    9.10
  -5   5  -4   82.48    8.75
   5  -5   4  105.49    9.71
  -5   5  -4  106.76   10.47
   5  -5   4  120.32   10.85
  -5   5  -5   78.11    8.01
  -5   5  -5   62.45    8.22
   5  -5   5   73.03    9.11
  -5   5  -5   71.71    9.10
   5  -5   5   75.79    9.24
   5  -5   6   11.06    4.33
  -5   5  -6    7.41    3.65
  -5   5  -6    8.51    4.21
   5  -5   6   15.69    5.69
   5  -5   7   21.57    5.23
  -5   5  -7   21.28    5.51
  -5   5  -7   13.69    4.98
   5  -5   7    4.62    3.38
  -5   4  10   15.35    5.06
  -5   4   9   18.04    5.86
   5  -4  -9   13.55    5.09
  -5   4   9   14.57    6.16
  -5   4   8   36.76    7.33
  -5   4   8   42.62    9.04
   5  -4  -8   36.17    7.27
  -5   4   7   38.46    8.43
   5  -4  -7   36.96    6.96
  -5   4   7   46.55    7.89
  -5   4   6   58.23    8.32
   5  -4  -6   77.70    8.92
  -5   4   6   68.71   10.15
  -5   4   5   42.61    7.19
   5  -4  -5   51.80    7.17
  -5   4   5   49.84    8.18
  -5   4   4  145.69   11.94
   5  -4  -4  129.45    9.39
   5  -4  -4  153.36   11.05
  -5   4   4  161.57   13.41
  -5   4   3   76.11    8.61
  -5   4   3   99.77   10.00
   5  -4  -3   83.71    8.48
   5  -4  -3   77.40    7.84
  -5   4   2  117.10    9.98
  -5   4   2  118.13   10.48
   5  -4  -2  115.79    4.39
   5  -4  -2   93.69    9.83
   5  -4  -2  124.36    9.60
  -5   4   1  193.31   12.27
  -5   4   1  219.57   13.42
   5  -4  -1  192.16   14.83
   5  -4  -1  204.86   11.90
  -5   4   0  260.99   13.76
   5  -4   0  261.30   18.26
   5  -4   0  248.45    9.54
  -5   4   0  275.51   14.52
  -5   4   0  252.15   16.05
   5  -4   0  262.79   13.40
  -5   4  -1  180.37   11.49
   5  -4   1  196.36    9.51
  -5   4  -1  162.84   11.78
   5  -4   1  186.55   11.53
  -5   4  -2   94.87    8.24
   5  -4   2   98.20    7.40
  -5   4  -2   94.17    8.82
  -5   4  -2   90.69    8.15
   5  -4   2  102.57    8.88
  -5   4  -3   41.52    5.60
   5  -4   3   44.25    5.76
  -5   4  -3   39.90    6.16
   5  -4   3   44.83    6.35
  -5   4  -3   30.43    4.54
   5  -4   4   28.05    5.40
  -5   4  -4   27.24    4.58
  -5   4  -4   26.08    4.91
  -5   4  -4   23.40    5.10
   5  -4   4   30.30    5.51
   5  -4   5   28.31    5.72
  -5   4  -5   34.42    5.08
  -5   4  -5   27.39    5.41
  -5   4  -5   29.11    5.74
   5  -4   5   22.71    4.92
   5  -4   6   36.54    6.83
  -5   4  -6   18.36    5.03
  -5   4  -6   37.28    6.89
   5  -4   6   29.30    6.26
   5  -4   7   51.73    8.63
  -5   4  -7   48.14    8.37
  -5   4  -7   41.68    7.59
   5  -4   7   48.98    8.52
   5  -4   8   12.93    5.20
  -5   4  -8    0.48    2.62
  -5   4  -8    7.80    4.75
   5  -4   8   20.29    5.96
   5  -3 -10   33.61    8.03
  -5   3  10   20.51    5.52
  -5   3   9    6.95    5.29
   5  -3  -9    2.70    3.94
  -5   3   9   13.18    5.92
  -5   3   8   66.01   11.11
   5  -3  -8   79.82   10.24
  -5   3   7   10.06    4.30
   5  -3  -7    0.94    3.27
   5  -3  -6   98.32    9.76
  -5   3   6  103.98   11.66
  -5   3   5   70.25    5.63
   5  -3  -5   78.92    8.48
  -5   3   5   81.34    9.82
  -5   3   4   47.65    7.06
   5  -3  -4   57.00    6.92
   5  -3  -3  163.28    6.19
  -5   3   3  154.89   11.72
   5  -3  -3  162.56   10.84
  -5   3   2  239.75   13.59
   5  -3  -2  238.44    6.58
  -5   3   2  249.38   14.15
  -5   3   2  234.58    8.44
   5  -3  -2  240.21   12.66
  -5   3   2  231.86   15.43
  -5   3   1  130.44    9.84
  -5   3   1  127.18    9.78
   5  -3  -1  125.67    9.17
  -5   3   1  134.44   11.45
   5  -3   0  118.88    6.68
   5  -3   0  126.19    9.09
  -5   3   0  122.42   10.37
  -5   3   0  120.54    9.22
  -5   3  -1  106.94    8.28
   5  -3   1   96.01    6.67
  -5   3  -1   95.91    8.22
  -5   3  -1  102.98    9.16
   5  -3   1   82.61    7.59
  -5   3  -2  181.89   10.59
   5  -3   2  203.52   10.35
  -5   3  -2  196.22   11.78
  -5   3  -2  191.93   11.94
   5  -3   2  178.99   11.05
  -5   3  -3  175.60   10.22
  -5   3  -3  183.84   10.23
   5  -3   3  178.75   10.58
  -5   3  -3  165.83   11.34
  -5   3  -3  158.65   10.08
   5  -3   3  191.64   11.82
  -5   3  -4   94.72    7.53
  -5   3  -4  102.60    8.33
   5  -3   4   76.80    7.70
  -5   3  -4   98.28    9.22
  -5   3  -4   97.96    7.41
   5  -3   4   96.87    9.02
  -5   3  -5   94.06    7.28
  -5   3  -5   80.61    7.99
   5  -3   5   90.47    9.21
  -5   3  -5  104.71    9.85
   5  -3   5   94.30    9.28
   5  -3   6   43.70    7.19
  -5   3  -6   42.92    6.58
  -5   3  -6   45.51    7.30
   5  -3   6   39.30    6.96
   5  -3   7   41.77    7.63
  -5   3  -7   42.18    7.23
  -5   3  -7   53.15    8.68
   5  -3   7   36.97    7.39
   5  -3   8   18.43    5.64
  -5   3  -8   19.89    5.78
  -5   3  -8   21.02    6.36
   5  -3   8   19.28    6.76
  -5   3  -9   28.12    6.80
   5  -2 -10   32.15    7.63
   5  -2 -10   35.89    8.22
  -5   2  10   15.69    6.70
  -5   2   9    9.16    5.07
   5  -2  -9   -0.79    4.15
   5  -2  -9    2.61    3.55
  -5   2   8   15.59    5.56
   5  -2  -8   30.08    7.19
   5  -2  -8   27.41    6.45
  -5   2   7   48.10    8.54
   5  -2  -7   53.33    7.92
  -5   2   6   86.28    7.85
   5  -2  -6   92.54    9.60
  -5   2   6   91.34   10.52
  -5   2   5   70.87    8.83
  -5   2   5   66.22    5.98
   5  -2  -5   65.79    7.74
  -5   2   4  273.06   15.56
   5  -2  -4  264.37    6.69
   5  -2  -4  273.16   14.25
   5  -2  -4  263.87   13.84
  -5   2   4  292.87   17.90
  -5   2   4  252.08    5.40
   5  -2  -3  145.18    4.92
  -5   2   3  158.41   11.38
   5  -2  -3  149.11    6.10
   5  -2  -3  145.54   10.02
  -5   2   3  159.10   12.63
   5  -2  -2  304.52    8.13
  -5   2   2  311.56   15.20
   5  -2  -2  295.78   13.85
  -5   2   2  304.84   16.47
   5  -2  -1  231.31    8.04
   5  -2  -1  236.84   12.09
  -5   2   1  234.26   13.91
   5  -2   0  473.01   13.40
   5  -2   0  460.77   16.52
  -5   2   0  461.02   18.70
   5  -2   1  149.12    8.08
  -5   2  -1  128.42    8.92
  -5   2  -1  134.43    9.07
   5  -2   1  133.43    9.19
  -5   2  -1  139.47    9.95
  -5   2  -2  266.56   12.07
   5  -2   2  265.43   11.67
  -5   2  -2  274.48   13.20
  -5   2  -2  287.56   13.65
   5  -2   2  271.86   13.02
  -5   2  -3  187.56    9.80
  -5   2  -3  184.31    9.28
   5  -2   3  185.05   10.41
  -5   2  -3  174.00   11.05
  -5   2  -3  194.49   10.94
   5  -2   3  185.45   11.26
  -5   2  -4  137.23    8.33
  -5   2  -4  132.70    8.57
   5  -2   4  136.83    9.78
  -5   2  -4  130.87   10.17
  -5   2  -4  135.88    9.07
   5  -2   4  140.13   10.24
  -5   2  -5  138.43    8.18
  -5   2  -5  143.00    9.63
   5  -2   5  115.42    9.68
  -5   2  -5  143.22   11.27
  -5   2  -5  135.13    8.79
   5  -2   5  139.73   10.98
  -5   2  -6   59.40    7.04
   5  -2   6   75.10    8.75
  -5   2  -6   65.16    8.53
   5  -2   6   65.72    8.20
  -5   2  -7  109.29   10.39
   5  -2   7   99.10   10.99
  -5   2  -7  112.66   11.58
   5  -2   7  118.74   11.52
  -5   2  -8   18.67    4.96
  -5   2  -8   30.09    6.59
   5  -2   8   33.21    7.25
   5  -2   8   21.83    6.19
   5  -2   9   43.18    9.00
  -5   2  -9   30.02    6.77
  -5   2  -9   40.08    8.28
   5  -2   9   30.88    7.97
  -5   2 -10   26.13    6.77
   5  -1 -10   20.66    6.26
   5  -1 -10   30.26    8.02
  -5   1  10    7.30    3.99
  -5   1   9    3.71    4.29
   5  -1  -9    2.87    3.88
   5  -1  -9    9.61    4.72
   5  -1  -9    1.52    3.92
   5  -1  -8   97.83   11.34
  -5   1   8   94.24    9.62
   5  -1  -8  100.74   11.86
  -5   1   8  108.40   12.91
  -5   1   7   30.10    6.03
   5  -1  -7   18.08    5.44
  -5   1   7   27.72    7.11
   5  -1  -7   29.74    6.32
  -5   1   6  173.16   11.32
   5  -1  -6  162.62   12.82
  -5   1   6  164.43   13.57
   5  -1  -5   67.10    7.75
  -5   1   5   60.16    8.65
  -5   1   5   57.18    7.59
   5  -1  -4  287.95    8.81
  -5   1   4  273.92   15.08
   5  -1  -4  277.76    8.26
   5  -1  -4  308.55   15.05
   5  -1  -4  296.56   14.55
  -5   1   4  277.80   16.58
   5  -1  -3  110.89    5.31
  -5   1   3  110.91    9.34
   5  -1  -3  118.38    5.89
   5  -1  -3  119.56    8.97
  -5   1   3  108.11   10.01
  -5   1   3  110.49    3.77
   5  -1  -2  463.02   11.02
  -5   1   2  444.86   12.87
   5  -1  -2  466.19   12.21
   5  -1  -2  483.77   16.89
  -5   1   2  493.77   19.73
   5  -1  -1  273.14    9.10
   5  -1  -1  244.98    8.70
   5  -1  -1  268.13   12.39
  -5   1   1  273.38   14.16
   5  -1   0  681.93   15.36
   5  -1   0  617.78   13.26
   5  -1   0  659.97   19.14
  -5   1   0  677.22   21.15
   5  -1   1  304.06   11.58
   5  -1   1  284.26    9.19
  -5   1  -1  323.75   13.27
   5  -1   1  313.54   13.34
  -5   1  -1  318.91   14.16
   5  -1   1  280.87    5.57
   5  -1   2  387.04    8.81
   5  -1   2  416.20   14.42
   5  -1   2  374.21   11.58
  -5   1  -2  400.75   15.13
  -5   1  -2  425.72   16.02
   5  -1   2  388.03   15.08
  -5   1  -3   38.34    4.50
  -5   1  -3   39.73    4.09
  -5   1  -3   37.02    5.07
   5  -1   3   32.97    4.86
  -5   1  -3   34.66    4.82
   5  -1   3   37.25    5.13
  -5   1  -4  281.64   10.98
  -5   1  -4  286.13   11.40
   5  -1   4  316.35   14.34
  -5   1  -4  288.09   14.22
  -5   1  -4  292.67   13.23
   5  -1   4  311.86   14.54
  -5   1  -5  110.75    6.80
  -5   1  -5   99.89    7.66
   5  -1   5  102.11    8.97
  -5   1  -5  102.59    9.31
  -5   1  -5  101.93    8.00
   5  -1   5  116.24    9.60
  -5   1  -6  139.55    7.24
  -5   1  -6  136.32    9.68
   5  -1   6  147.85   11.65
  -5   1  -6  123.48   10.94
  -5   1  -6  167.81   10.29
   5  -1   6  143.00   11.40
  -5   1  -7   44.65    6.49
  -5   1  -7   56.36    8.24
   5  -1   7   49.38    7.83
   5  -1   7   63.82    8.44
  -5   1  -8   89.12    9.71
   5  -1   8  105.06   11.70
  -5   1  -8  109.47   12.10
   5  -1   8   96.16   11.10
   5  -1   9   41.23    8.05
  -5   1  -9   30.91    6.64
  -5   1  -9   44.04    8.43
   5  -1   9   40.12    8.30
  -5   1 -10   34.35    7.09
   5   0 -10   40.73    7.36
   5   0 -10   45.73    8.63
  -5   0  10   44.12    8.44
   5   0  -9    8.89    4.22
   5   0  -9   -3.71    4.47
   5   0  -9   -0.21    4.41
  -5   0   9    4.33    2.79
  -5   0   9    7.58    4.26
   5   0  -8   74.17    9.82
  -5   0   8   68.71    9.06
   5   0  -8   78.01   10.74
  -5   0   8   85.27   11.07
  -5   0   7   11.99    4.46
   5   0  -7   10.63    4.51
  -5   0   7   12.75    4.65
   5   0  -7   18.49    5.53
   5   0  -6  218.61   14.32
  -5   0   6  233.32   13.94
   5   0  -6  225.38   15.06
   5   0  -5   65.32    7.66
   5   0  -5   59.84    4.71
   5   0  -5   58.90    7.54
  -5   0   5   54.55    7.92
   5   0  -5   55.72    5.22
  -5   0   5   60.07    7.68
  -5   0   4  488.79   19.71
   5   0  -4  478.58   12.47
   5   0  -4  522.23   19.41
   5   0  -4  485.20   13.31
  -5   0   4  481.28   21.10
   5   0  -3   79.94    5.26
  -5   0   3   84.31    7.87
   5   0  -3   74.23    5.06
   5   0  -3   95.22    8.10
   5   0  -3   85.84    7.61
  -5   0   3   79.40    8.38
  -5   0   3   85.86    4.70
  -5   0   2  560.73    9.76
   5   0  -2  572.83   13.54
  -5   0   2  553.40   13.69
   5   0  -2  564.59   14.09
   5   0  -2  585.18   18.16
  -5   0   2  572.10   20.65
   5   0  -1    1.63    2.53
   5   0  -1    0.52    1.67
   5   0  -1    2.36    1.27
   5   0  -1    1.37    1.77
  -5   0   1    0.58    2.68
   5   0   0  411.20   12.27
   5   0   0  364.63    8.39
   5   0   0  410.27   14.57
  -5   0   0  411.38   16.11
   5   0   1   20.43    3.75
   5   0   1   20.99    2.21
  -5   0  -1   23.54    3.88
   5   0   1   22.47    3.62
  -5   0  -1   19.10    4.11
   5   0   1   23.60    2.15
   5   0   2  443.53   10.16
   5   0   2  458.87   15.09
   5   0   2  459.95   11.42
  -5   0  -2  467.68   15.63
   5   0   2  489.81   16.02
  -5   0  -2  471.77   16.57
  -5   0  -3  257.17    8.38
   5   0   3  263.06   12.20
   5   0   3  263.11   10.55
  -5   0  -3  257.41   12.16
  -5   0  -3  265.81   12.60
   5   0   3  273.28   12.44
  -5   0  -4  286.53   10.74
  -5   0  -4  276.56    9.98
   5   0   4  282.29   13.47
  -5   0  -4  292.62   13.75
  -5   0  -4  296.03   13.44
   5   0   4  286.01   13.40
  -5   0  -5  117.15    6.51
  -5   0  -5  117.35    7.42
   5   0   5  129.93    9.87
  -5   0  -5  122.73    9.67
  -5   0  -5  125.66    9.00
   5   0   5  105.90    8.89
  -5   0  -6  140.70    6.54
   5   0   6  136.68   10.54
  -5   0  -6  152.70    9.62
   5   0   6  161.13   11.72
  -5   0  -6  170.13   12.22
  -5   0  -6  161.54   10.39
   5   0   6  162.53   11.61
   5   0   7   67.89    8.16
  -5   0  -7   85.59    8.27
   5   0   7   88.00    9.48
  -5   0  -7   71.60    8.67
  -5   0  -7   79.48    7.72
   5   0   7   76.05    8.73
   5   0   8   75.25    8.93
  -5   0  -8   88.12    9.19
   5   0   8   75.48    9.48
  -5   0  -8   71.95    9.42
   5   0   8  100.17   10.83
   5   0   9   24.42    6.28
  -5   0  -9   21.02    5.05
   5   0   9   33.07    6.40
  -5   0  -9   31.94    7.80
   5   0   9   28.86    6.70
   5   0  10   35.84    7.70
  -5   0 -10   23.44    6.20
  -5   0 -10   39.28    8.16
   5   0  10   37.83    7.94
  -5   0 -11   17.70    4.92
   5   1 -10   21.77    6.16
   5   1 -10   34.04    7.18
   5   1  -9   -3.62    3.67
   5   1  -9    4.63    3.80
  -5  -1   9    0.14    2.79
  -5  -1   9    4.51    3.65
  -5  -1   8   65.51    9.21
  -5  -1   8   48.62    8.48
   5   1  -8   50.00    8.06
   5   1  -8   54.86    8.56
   5   1  -8   48.73    8.90
  -5  -1   7    5.92    3.68
   5   1  -7    9.65    4.09
  -5  -1   7    0.61    1.99
   5   1  -7   11.76    5.22
   5   1  -6  199.77   13.32
   5   1  -6  218.82   15.39
  -5  -1   6  196.53   13.54
  -5  -1   6  168.35   13.67
  -5  -1   6  192.28   13.95
   5   1  -5    6.93    2.46
   5   1  -5   10.58    3.47
   5   1  -5    3.59    2.00
  -5  -1   5    1.10    2.60
   5   1  -5    8.53    3.86
  -5  -1   5   11.94    4.05
   5   1  -4  289.21   11.60
  -5  -1   4  278.28   14.51
   5   1  -4  270.54   13.55
   5   1  -4  290.12   11.02
   5   1  -4  283.94   14.82
  -5  -1   4  279.41   15.67
  -5  -1   3    0.96    1.45
   5   1  -3    3.13    1.75
  -5  -1   3    5.65    2.80
  -5  -1   3    5.01    1.11
   5   1  -3    1.91    2.36
   5   1  -3    1.10    1.70
   5   1  -3    4.23    2.72
  -5  -1   3    4.43    3.38
   5   1  -3    6.12    2.78
   5   1  -2  661.88   15.88
  -5  -1   2  599.35   14.72
   5   1  -2  618.30   15.77
   5   1  -2  620.35   16.00
   5   1  -2  637.35   18.90
   5   1  -2  633.55   18.52
  -5  -1   2  605.60   20.54
  -5  -1   2  602.56   12.83
  -5  -1   1  197.53    6.88
   5   1  -1  219.69    9.21
  -5  -1   1  203.52   10.61
   5   1  -1  215.82    9.47
   5   1  -1  204.12    7.54
   5   1  -1  222.21   10.71
  -5  -1   1  215.53   12.05
   5   1   0  555.62   14.83
   5   1   0  550.41   15.58
   5   1   0  568.14   16.59
  -5  -1   0  541.34   18.07
   5   1   1  139.99    7.89
  -5  -1  -1  125.72    7.56
   5   1   1  140.47    8.36
  -5  -1  -1  135.27    9.16
   5   1   1  125.33    5.57
   5   1   2  387.39   14.01
  -5  -1  -2  379.79   13.28
   5   1   2  391.53   13.89
  -5  -1  -2  401.15   15.27
   5   1   2  373.66   10.20
  -5  -1  -3  180.43    5.57
   5   1   3  180.64   10.10
  -5  -1  -3  181.88    9.89
   5   1   3  195.39   10.20
  -5  -1  -3  188.42   10.70
  -5  -1  -4  490.59   11.40
   5   1   4  499.73   17.78
  -5  -1  -4  492.25   17.04
  -5  -1  -4  494.27   17.39
   5   1   4  510.42   17.08
  -5  -1  -5  102.84    5.83
   5   1   5  119.01    9.40
  -5  -1  -5  107.86    6.48
   5   1   5  124.59    9.55
  -5  -1  -5  109.97    8.90
  -5  -1  -5  116.09    8.83
   5   1   5   98.24    8.18
  -5  -1  -6  285.73    8.54
   5   1   6  278.76   15.00
  -5  -1  -6  293.93   12.44
   5   1   6  288.08   15.20
  -5  -1  -6  269.01   14.66
  -5  -1  -6  291.13   14.34
   5   1   6  289.62   14.77
   5   1   7   50.34    7.06
  -5  -1  -7   46.54    5.97
   5   1   7   52.77    7.31
  -5  -1  -7   51.33    7.57
  -5  -1  -7   44.56    6.38
   5   1   7   48.99    6.92
   5   1   8   58.22    8.31
  -5  -1  -8   70.87    8.21
   5   1   8   86.09    9.96
  -5  -1  -8   85.41   10.15
  -5  -1  -8   74.24    8.09
   5   1   9   34.15    7.22
  -5  -1  -9   27.72    5.95
   5   1   9   24.03    5.85
  -5  -1  -9   24.61    6.74
   5   1   9   25.77    6.29
   5   1  10   79.40   11.39
  -5  -1 -10   67.11    9.14
   5   1  10   59.28    9.17
  -5  -1 -10   87.17   11.94
   5   1  10   64.07   10.19
  -5  -1 -11   13.13    4.95
   5   1  11   10.76    4.54
   5   2  -9    4.94    4.14
   5   2  -9   -0.67    2.94
   5   2  -9   -2.29    3.37
  -5  -2   9   -7.75    4.63
   5   2  -8  104.71   10.92
   5   2  -8  107.88   11.58
  -5  -2   8  100.10   12.00
   5   2  -8  112.32   13.75
  -5  -2   8  111.13   12.33
  -5  -2   7   13.35    4.71
   5   2  -7    2.24    3.12
  -5  -2   7    2.16    3.21
   5   2  -7   11.80    4.44
   5   2  -7    4.83    3.97
   5   2  -6  199.90   13.09
   5   2  -6  194.41   11.37
   5   2  -6  196.57   15.24
  -5  -2   6  190.98   14.25
  -5  -2   6  166.94   13.50
  -5  -2   6  166.76   12.66
   5   2  -5   10.64    3.19
   5   2  -5   12.48    3.74
   5   2  -5    9.09    3.03
  -5  -2   5    5.08    2.73
   5   2  -5   10.02    4.39
  -5  -2   5    4.93    3.27
   5   2  -4  427.18   15.42
  -5  -2   4  402.12   16.98
   5   2  -4  412.71   15.94
   5   2  -4  422.22   14.66
   5   2  -4  420.46   18.50
  -5  -2   4  429.02   18.88
   5   2  -3   32.56    4.26
   5   2  -3   20.31    3.56
   5   2  -3   40.16    4.73
   5   2  -3   39.65    5.48
  -5  -2   3   23.72    5.04
  -5  -2   3   34.50    4.32
   5   2  -2  481.94   14.81
   5   2  -2  469.71   13.26
   5   2  -2  449.11   14.28
   5   2  -2  479.74   16.75
   5   2  -2  485.87   16.08
  -5  -2   2  489.15   18.24
  -5  -2   2  480.85   13.29
  -5  -2   1   14.69    2.66
   5   2  -1   15.19    3.11
   5   2  -1   15.39    1.86
   5   2  -1   16.57    3.31
  -5  -2   1   14.29    3.78
   5   2  -1   16.94    3.41
  -5  -2   0  615.74   13.60
   5   2   0  642.51   16.72
   5   2   0  640.39   17.22
   5   2   0  628.72   17.02
  -5  -2   0  615.53   19.45
   5   2   1  115.98    7.47
   5   2   1  113.50    7.70
  -5  -2  -1  113.21    6.80
   5   2   1  111.07    7.31
  -5  -2  -1  106.24    8.25
   5   2   2  710.13   18.55
   5   2   2  695.16   18.87
  -5  -2  -2  700.68   17.06
   5   2   2  708.08   17.90
  -5  -2  -2  713.14   20.52
   5   2   3   63.59    6.30
   5   2   3   63.78    6.36
  -5  -2  -3   59.56    5.51
   5   2   3   57.15    5.56
  -5  -2  -3   65.56    6.74
   5   2   4  365.18   15.68
   5   2   4  354.07   14.85
  -5  -2  -4  360.86    8.08
  -5  -2  -4  370.22   14.28
   5   2   4  370.45   13.98
  -5  -2  -4  369.98   15.31
   5   2   5   83.79    8.02
  -5  -2  -5   83.81    5.22
   5   2   5   97.11    8.45
  -5  -2  -5   88.88    7.74
  -5  -2  -5   90.76    8.15
   5   2   5   81.34    7.18
  -5  -2  -6  471.29   10.68
   5   2   6  449.10   19.21
  -5  -2  -6  483.87   15.10
   5   2   6  507.89   19.85
  -5  -2  -6  470.60   18.67
  -5  -2  -6  490.28   19.06
   5   2   6  456.23   17.74
   5   2   7   55.30    7.57
  -5  -2  -7   56.86    6.52
   5   2   7   56.88    7.87
  -5  -2  -7   52.93    7.34
  -5  -2  -7   60.12    7.44
   5   2   7   68.06    7.84
   5   2   8  253.41   16.66
  -5  -2  -8  254.23   14.65
   5   2   8  283.90   17.01
  -5  -2  -8  264.63   16.96
  -5  -2  -8  274.58   15.90
   5   2   8  258.97   15.94
   5   2   9   14.76    5.02
  -5  -2  -9   10.44    4.35
   5   2   9    5.76    3.54
  -5  -2  -9   19.15    5.86
   5   2   9   16.20    5.32
  -5  -2  -9    9.69    3.82
   5   2  10   37.20    7.68
  -5  -2 -10   26.65    6.11
   5   2  10   32.82    7.49
  -5  -2 -10   34.52    7.56
   5   2  10   26.60    6.73
   5   2  11   10.49    5.30
   5   2  11    4.63    3.87
  -5  -2 -11    5.63    4.47
   5   2  11    2.64    3.94
   5   3  -9   -5.00    3.30
  -5  -3   9   -6.79    3.71
  -5  -3   8   72.58   10.32
   5   3  -8   66.06    8.77
   5   3  -8   74.62   11.31
  -5  -3   7    8.72    4.56
   5   3  -7   -2.08    2.92
  -5  -3   7    1.09    2.42
   5   3  -7   -6.34    3.64
   5   3  -7    2.99    3.53
   5   3  -6  171.41   12.48
   5   3  -6  174.20   12.32
   5   3  -6  163.77   11.58
   5   3  -6  191.47   13.26
   5   3  -6  186.73   15.76
  -5  -3   6  189.14   14.94
  -5  -3   6  168.93   13.53
  -5  -3   6  165.84   12.49
   5   3  -5    2.77    2.68
   5   3  -5    5.72    3.20
   5   3  -5    3.25    2.55
  -5  -3   5   -0.13    2.58
   5   3  -5    1.43    3.15
  -5  -3   5    5.92    3.48
   5   3  -4  318.51   14.57
  -5  -3   4  298.45   14.45
   5   3  -4  286.18   13.60
   5   3  -4  298.31   13.65
   5   3  -4  295.75   16.27
  -5  -3   3    6.63    2.64
   5   3  -3   11.30    3.19
   5   3  -3   12.61    3.04
   5   3  -3    8.23    3.02
   5   3  -3    6.32    3.22
  -5  -3   3    7.52    3.47
   5   3  -2  446.75   15.60
   5   3  -2  447.31   11.85
   5   3  -2  468.22   15.61
   5   3  -2  456.54   16.67
  -5  -3   2  444.85   17.42
  -5  -3   2  441.87   14.28
  -5  -3   1   -0.73    1.72
   5   3  -1    0.48    2.05
   5   3  -1    0.79    0.73
   5   3  -1    2.76    2.42
   5   3  -1    1.52    2.29
  -5  -3   1    0.21    2.67
   5   3  -1    0.61    1.76
  -5  -3   0  814.31   17.56
   5   3   0  861.89   20.53
   5   3   0  843.59   20.82
   5   3   0  844.56   19.00
   5   3   0  857.99   19.22
  -5  -3   0  794.70   22.33
   5   3   1   16.35    3.11
   5   3   1   11.51    3.27
   5   3   1   13.70    3.40
  -5  -3  -1   15.08    3.05
  -5  -3  -1   13.88    3.88
   5   3   2  719.25   19.46
   5   3   2  744.71   20.25
  -5  -3  -2  727.63   16.39
   5   3   2  753.31   17.77
  -5  -3  -2  737.63   21.19
   5   3   3   28.99    4.75
   5   3   3   28.79    4.67
  -5  -3  -3   30.46    3.97
   5   3   3   26.03    4.44
   5   3   3   26.99    3.88
  -5  -3  -3   31.92    5.12
   5   3   4  857.41   24.03
   5   3   4  901.86   23.45
   5   3   4  904.41   23.33
  -5  -3  -4  845.46   20.43
   5   3   4  904.20   20.84
  -5  -3  -4  870.76   24.15
   5   3   5   23.16    4.18
  -5  -3  -5   19.33    2.52
   5   3   5   23.10    4.90
  -5  -3  -5   20.82    4.01
   5   3   5   30.12    5.14
  -5  -3  -5   19.25    4.29
   5   3   6  189.14   12.72
   5   3   6  191.46   12.20
  -5  -3  -6  187.19    9.19
  -5  -3  -6  170.77   11.20
  -5  -3  -6  202.46   12.78
   5   3   6  209.88   11.65
   5   3   7    3.13    2.81
  -5  -3  -7    0.73    2.51
   5   3   7    4.83    3.41
  -5  -3  -7    2.42    2.45
   5   3   7   -0.01    2.91
  -5  -3  -7    3.81    3.05
   5   3   8   92.97   10.43
  -5  -3  -8   84.80    8.66
   5   3   8   97.86   10.19
  -5  -3  -8   78.99    9.35
  -5  -3  -8  100.36   10.13
   5   3   8   81.71    8.80
   5   3   9   20.65    5.50
  -5  -3  -9    7.82    3.24
   5   3   9    8.63    4.21
  -5  -3  -9    9.53    4.06
   5   3   9   10.84    4.62
  -5  -3  -9   15.62    4.57
   5   3  10   38.74    7.46
  -5  -3 -10   45.51    7.53
   5   3  10   51.63    9.13
  -5  -3 -10   51.19    8.94
   5   3  10   56.71    9.20
  -5  -3 -10   47.50    8.08
   5   3  11    2.78    3.81
   5   3  11   12.01    6.01
  -5  -3 -11   19.73    6.70
   5   3  11   10.75    4.49
  -5  -4   8   60.14   10.14
   5   4  -8   50.36    8.07
   5   4  -8   67.85   10.25
  -5  -4   7    0.45    3.98
   5   4  -7   -3.43    3.17
   5   4  -7   -7.50    4.56
   5   4  -6  102.54   10.50
   5   4  -6  112.18   10.34
   5   4  -6  118.28   10.77
   5   4  -6  135.53   13.84
  -5  -4   6  117.14   12.43
  -5  -4   6  109.06   10.80
  -5  -4   6  118.37   10.42
   5   4  -5   12.75    3.88
   5   4  -5   14.64    4.19
  -5  -4   5   15.28    4.08
   5   4  -5   10.85    4.05
   5   4  -5   12.84    3.82
   5   4  -5   26.08    6.52
  -5  -4   5   11.84    4.08
   5   4  -4  256.56   14.20
  -5  -4   4  264.23   13.45
   5   4  -4  259.02   13.14
   5   4  -4  255.44   13.92
   5   4  -4  257.20   12.59
   5   4  -4  259.65   16.29
  -5  -4   4  239.59   14.19
  -5  -4   3   25.06    4.73
   5   4  -3   26.49    4.74
   5   4  -3   33.37    4.21
   5   4  -3   18.38    4.07
   5   4  -3   27.39    5.31
  -5  -4   3   26.66    5.01
   5   4  -2  347.12   14.76
   5   4  -2  350.69   10.63
   5   4  -2  348.42   14.63
   5   4  -2  358.16   15.53
  -5  -4   2  338.96   15.48
  -5  -4   2  337.26   13.83
  -5  -4   1   23.32    3.93
   5   4  -1   28.74    4.62
   5   4  -1   26.75    2.33
   5   4  -1   28.19    3.08
   5   4  -1   28.30    4.57
   5   4  -1   31.54    4.50
  -5  -4   1   27.48    4.85
  -5  -4   0  283.59   11.59
   5   4   0  282.86   12.60
   5   4   0  304.20   13.31
   5   4   0  281.87    9.14
   5   4   0  303.66   11.55
   5   4   0  303.10   11.23
  -5  -4   0  291.07   13.87
  -5  -4  -1   28.11    4.14
   5   4   1   34.26    4.78
   5   4   1   38.46    5.24
   5   4   1   33.05    3.47
   5   4   1   29.34    3.57
   5   4   1   32.97    3.90
  -5  -4  -1   31.35    5.22
  -5  -4  -2  645.19   17.61
   5   4   2  622.76   18.98
   5   4   2  625.52   19.30
  -5  -4  -2  636.78   14.31
   5   4   2  628.89   15.59
  -5  -4  -2  645.18   20.23
   5   4   3    5.59    2.17
   5   4   3    5.96    3.00
   5   4   3    7.75    3.18
   5   4   3    5.33    3.20
  -5  -4  -3   10.65    2.50
  -5  -4  -3   11.43    3.56
   5   4   4  341.08   14.80
   5   4   4  361.79   15.83
   5   4   4  362.59   15.00
   5   4   4  363.13   15.64
  -5  -4  -4  336.56   12.24
   5   4   4  345.37   12.34
  -5  -4  -4  374.46   16.38
   5   4   5   -0.56    1.73
   5   4   5    0.43    2.72
  -5  -4  -5    2.40    1.44
   5   4   5    1.45    2.72
  -5  -4  -5    0.53    1.58
   5   4   5    1.01    2.80
  -5  -4  -5    0.33    2.55
   5   4   6  311.32   15.47
   5   4   6  295.43   16.10
   5   4   6  300.35   15.20
  -5  -4  -6  292.56   11.66
  -5  -4  -6  302.48   13.99
   5   4   6  301.75   13.40
  -5  -4  -6  299.92   15.96
   5   4   7   24.25    4.65
  -5  -4  -7   23.17    4.34
   5   4   7   24.93    5.52
  -5  -4  -7   27.92    5.12
   5   4   7   23.07    5.01
  -5  -4  -7   18.97    5.27
   5   4   8  119.11   11.90
   5   4   8  126.36   11.26
  -5  -4  -8  119.28    9.78
  -5  -4  -8  104.03   10.22
  -5  -4  -8  112.23   11.08
   5   4   8  124.44   10.25
   5   4   9    9.73    3.95
  -5  -4  -9   14.08    3.90
   5   4   9   22.26    6.22
  -5  -4  -9    4.53    3.40
   5   4   9    7.06    4.06
  -5  -4  -9   14.81    5.02
   5   4  10   58.77    8.62
   5   4  10   73.50    9.86
   5   4  10   59.52    9.90
  -5  -4 -10   42.56    8.32
  -5  -4 -10   60.19    9.50
   5   4  11   -2.50    3.65
   5   4  11   10.11    4.69
  -5  -4 -11  -12.68    5.31
   5   4  11   10.63    4.31
  -5  -4 -11   -1.66    4.08
  -5  -5   7   11.87    5.74
   5   5  -7    9.54    3.82
   5   5  -7   13.24    4.78
   5   5  -6   82.99    9.18
   5   5  -6   95.74   11.23
  -5  -5   6   92.84   11.88
  -5  -5   6   86.76    9.59
  -5  -5   5    2.70    3.46
   5   5  -5    0.69    2.22
   5   5  -5    6.60    2.92
   5   5  -5    1.50    3.15
   5   5  -5    0.82    3.11
  -5  -5   5   -1.20    2.72
   5   5  -4   98.20    9.66
  -5  -5   4   82.59    7.64
   5   5  -4   96.60    8.52
   5   5  -4   94.68    9.45
   5   5  -4   89.64   10.25
  -5  -5   4   82.39    8.42
  -5  -5   4   99.87    9.72
  -5  -5   3    7.10    3.48
   5   5  -3    2.44    2.49
   5   5  -3    3.38    2.41
   5   5  -3    4.97    3.22
   5   5  -3    6.86    3.59
  -5  -5   3    9.20    3.28
   5   5  -2  282.18   14.33
   5   5  -2  313.60   10.99
   5   5  -2  306.13   14.84
   5   5  -2  295.42   10.03
   5   5  -2  306.33   15.50
  -5  -5   2  271.87   14.09
  -5  -5   2  286.00   13.95
  -5  -5   1   -0.48    2.29
   5   5  -1   -0.41    2.41
   5   5  -1    0.32    0.95
   5   5  -1    0.15    2.24
   5   5  -1    2.89    2.10
  -5  -5   1    1.56    2.71
  -5  -5   0  571.79   17.81
   5   5   0  587.38   19.23
   5   5   0  546.56   18.93
   5   5   0  582.93   16.91
  -5  -5   0  575.34   19.63
  -5  -5  -1    1.97    2.30
   5   5   1   -0.65    2.39
   5   5   1    2.40    2.69
   5   5   1    0.91    1.16
   5   5   1    1.39    1.66
  -5  -5  -1    3.42    2.86
   5   5   1    0.67    1.46
  -5  -5  -2  532.82   16.83
   5   5   2  567.32   18.69
   5   5   2  541.83   18.85
   5   5   2  526.02   14.06
   5   5   2  543.25   12.90
   5   5   2  536.34   13.60
  -5  -5  -2  521.59   18.87
   5   5   3    0.53    1.54
   5   5   3    0.80    2.37
   5   5   3   -0.78    2.01
   5   5   3   -0.67    2.78
  -5  -5  -3    1.01    1.14
   5   5   3    0.60    1.14
  -5  -5  -3    4.82    3.39
   5   5   4  401.73   16.47
   5   5   4  394.64   16.70
   5   5   4  406.03   16.99
  -5  -5  -4  380.75   12.28
   5   5   4  377.41   12.18
  -5  -5  -4  382.06   17.05
   5   5   5    0.33    1.44
   5   5   5    0.26    2.82
  -5  -5  -5    2.39    1.54
   5   5   5    0.78    2.87
   5   5   5   -2.68    2.65
  -5  -5  -5    1.55    1.75
   5   5   5    1.96    2.69
  -5  -5  -5    2.31    3.08
   5   5   6  308.12   15.60
   5   5   6  288.34   16.09
   5   5   6  288.13   14.78
   5   5   6  315.27   16.05
  -5  -5  -6  284.46   12.25
  -5  -5  -6  285.77   13.18
   5   5   6  301.82   12.57
  -5  -5  -6  298.28   16.39
   5   5   7    6.04    2.46
   5   5   7    0.94    3.10
  -5  -5  -7    2.91    2.62
   5   5   7   12.04    4.46
  -5  -5  -7    4.19    2.79
   5   5   7    4.66    3.13
  -5  -5  -7   11.76    4.18
   5   5   8  116.56   10.98
   5   5   8  132.56   12.75
   5   5   8  117.01   10.62
  -5  -5  -8  117.44   10.65
  -5  -5  -8  113.87   11.40
   5   5   8  119.21    9.63
   5   5   9    2.02    2.85
   5   5   9    5.81    3.55
  -5  -5  -9   -0.53    1.64
   5   5   9    9.01    4.23
  -5  -5  -9   -1.52    3.13
   5   5  10   55.69    8.55
   5   5  10   59.08    8.78
  -5  -5 -10   53.79    9.21
   5   5  10   53.67    9.72
  -5  -5 -10   42.03    7.91
   5   5  11   15.87    5.18
   5   5  11    9.02    4.95
  -5  -5 -11   18.23    5.88
   5   5  11   14.47    5.62
  -5  -5 -11    7.51    4.45
  -5  -5 -12   20.48    6.13
   5   6  -7   -3.98    2.58
  -5  -6   6   44.55    8.94
   5   6  -6   54.81    8.62
  -5  -6   5   16.82    5.16
  -5  -6   5   17.33    5.86
   5   6  -5   11.00    4.98
   5   6  -5   12.18    3.84
   5   6  -5   10.67    4.64
   5   6  -5   19.94    5.24
  -5  -6   5   12.63    4.09
   5   6  -4  180.14   13.69
   5   6  -4  187.80   12.00
   5   6  -4  181.79   13.92
   5   6  -4  189.97   14.17
  -5  -6   4  164.58   11.87
  -5  -6   4  174.73   13.70
  -5  -6   3    2.88    3.07
   5   6  -3    1.33    2.68
   5   6  -3    5.41    2.46
   5   6  -3    6.93    3.64
  -5  -6   3    7.16    2.61
   5   6  -3    3.18    2.73
  -5  -6   3    4.19    2.65
   5   6  -2  287.18   15.59
   5   6  -2  276.26   11.25
   5   6  -2  274.64   15.30
   5   6  -2  316.48   16.53
  -5  -6   2  273.84   14.34
  -5  -6   2  276.12   14.81
  -5  -6   1    9.27    3.52
   5   6  -1   13.15    4.04
   5   6  -1    3.91    1.59
   5   6  -1    5.39    3.29
   5   6  -1    8.47    3.52
  -5  -6   1   12.17    3.69
  -5  -6   0  335.53   14.89
   5   6   0  348.73   15.87
   5   6   0  327.20   15.58
   5   6   0  352.66   14.64
  -5  -6   0  311.15   14.98
  -5  -6  -1   13.31    3.94
   5   6   1   13.86    3.98
   5   6   1   11.68    4.16
   5   6   1    6.70    2.41
  -5  -6  -1   11.34    3.52
  -5  -6  -2  348.39   14.67
   5   6   2  374.16   16.10
   5   6   2  372.52   16.56
   5   6   2  343.62   10.40
   5   6   2  343.18   10.04
  -5  -6  -2  340.97   15.65
   5   6   3   -0.28    1.49
  -5  -6  -3    0.86    2.51
   5   6   3    0.75    2.73
   5   6   3    1.65    2.39
   5   6   3    1.57    3.07
  -5  -6  -3    0.90    1.13
   5   6   3    0.62    1.00
  -5  -6  -3    3.29    3.11
   5   6   4  437.81   17.75
   5   6   4  401.57   17.18
   5   6   4  474.52   19.05
  -5  -6  -4  432.77   12.05
   5   6   4  401.31    8.11
   5   6   4  440.39   12.24
  -5  -6  -4  456.23   19.02
   5   6   5    0.16    1.57
   5   6   5    0.82    3.03
   5   6   5    0.72    2.69
   5   6   5    1.28    2.29
  -5  -6  -5    0.90    1.74
  -5  -6  -5    4.02    3.36
   5   6   6  152.70   11.38
   5   6   6  136.62   11.40
   5   6   6  145.74   11.31
  -5  -6  -6  134.31    8.62
   5   6   6  145.58    8.31
  -5  -6  -6  137.26   11.56
   5   6   7    3.11    2.06
   5   6   7   -1.53    3.11
   5   6   7    5.46    3.50
   5   6   7    2.76    3.23
  -5  -6  -7    5.21    3.02
   5   6   7    4.09    3.13
  -5  -6  -7    2.80    3.23
   5   6   8  101.22   10.10
   5   6   8  108.70   10.30
   5   6   8  108.93   11.37
   5   6   8  103.29   10.48
  -5  -6  -8   87.67    9.03
   5   6   8  100.70    8.52
  -5  -6  -8   92.20   10.65
   5   6   9    9.20    3.59
   5   6   9   11.65    4.38
   5   6   9    4.11    3.34
  -5  -6  -9    7.58    3.45
   5   6   9    4.85    4.04
   5   6   9    6.43    3.68
  -5  -6  -9    1.26    3.04
   5   6  10   76.71    9.61
   5   6  10   69.70    9.57
   5   6  10   70.23    9.58
  -5  -6 -10   65.62    9.85
   5   6  10   59.82    9.96
   5   6  10   61.65    8.12
  -5  -6 -10   69.73   10.59
   5   6  11    4.96    2.91
   5   6  11   -0.52    2.57
   5   6  11    7.24    4.14
  -5  -6 -11   -4.28    4.27
   5   6  11   -3.14    4.43
   5   6  11   -7.54    4.01
  -5  -6 -11   -0.14    3.43
   5   6  12   29.35    7.50
  -5  -7   6   44.20    8.91
   5   7  -6   43.44    7.58
  -5  -7   5    7.55    4.34
  -5  -7   5    5.20    4.33
   5   7  -5    7.15    3.91
   5   7  -5   10.03    5.36
   5   7  -5   17.21    4.86
   5   7  -4   87.10   10.54
   5   7  -4   84.91   10.38
   5   7  -4   95.63    9.96
  -5  -7   4   90.53   11.13
  -5  -7   4   89.61    8.79
  -5  -7   4   84.94   10.21
  -5  -7   3   13.57    4.30
   5   7  -3   12.62    4.60
   5   7  -3   11.18    4.68
   5   7  -3   20.45    4.32
  -5  -7   3   14.54    4.19
   5   7  -2  171.00   12.97
   5   7  -2  148.17   12.10
   5   7  -2  155.81   11.25
  -5  -7   2  145.19   10.70
  -5  -7   2  150.34   11.97
  -5  -7   1    7.22    3.50
   5   7  -1   11.11    3.69
   5   7  -1    3.37    2.86
   5   7  -1    9.81    3.08
  -5  -7   1    3.97    2.97
   5   7   0  346.91   17.05
   5   7   0  333.35   16.93
  -5  -7   0  315.14   15.56
   5   7   0  343.05   13.78
  -5  -7   0  311.69   15.26
  -5  -7  -1   15.25    4.40
   5   7   1   20.21    4.40
   5   7   1   10.64    3.75
  -5  -7  -1   15.51    3.86
  -5  -7  -2  171.19   11.32
   5   7   2  201.07   12.56
   5   7   2  186.52   12.42
  -5  -7  -2  190.79   12.21
  -5  -7  -3  130.43    9.94
   5   7   3  142.61   10.70
   5   7   3  127.63    9.66
   5   7   3  140.69   10.97
  -5  -7  -3  135.11   10.48
   5   7   4   67.38    7.67
   5   7   4   66.82    7.40
   5   7   4   65.50    7.73
  -5  -7  -4   70.43    8.03
   5   7   5    1.76    2.85
   5   7   5    1.08    2.37
   5   7   5    0.07    2.84
  -5  -7  -5    1.92    1.52
  -5  -7  -5   -1.20    2.64
   5   7   6  130.17   11.23
   5   7   6  117.58   10.52
  -5  -7  -6  131.99    8.18
   5   7   6  122.04   10.53
   5   7   6  124.47    7.07
  -5  -7  -6  119.36   11.00
   5   7   7    4.63    3.56
   5   7   7    0.61    2.88
   5   7   7    9.20    4.15
  -5  -7  -7   10.01    3.13
  -5  -7  -7    9.15    4.31
   5   7   8  106.40   10.41
   5   7   8  108.22   10.19
   5   7   8   98.65   11.10
   5   7   8   99.34   10.27
  -5  -7  -8   86.22    8.54
  -5  -7  -8  100.89   11.45
   5   7   9   -7.08    3.63
   5   7   9   -3.91    3.76
  -5  -7  -9    1.18    2.32
   5   7   9   -0.26    2.70
   5   7   9    2.68    3.08
  -5  -7  -9    2.48    3.61
   5   7  10   32.34    6.56
   5   7  10   30.82    6.76
  -5  -7 -10   29.38    6.62
   5   7  10   25.55    7.16
   5   7  10   33.82    6.53
  -5  -7 -10   29.56    7.73
   5   7  11    1.81    2.45
   5   7  11   -7.99    4.25
  -5  -7 -11    3.84    3.83
   5   7  11   -4.02    3.15
  -5  -7 -11    0.18    3.38
   5   8  -5   -2.07    3.91
  -5  -8   4   33.61    7.25
  -5  -8   4   29.22    6.97
   5   8  -4   31.95    6.88
   5   8  -4   26.83    7.20
  -5  -8   3   14.16    5.20
   5   8  -3   14.01    5.39
   5   8  -3    9.69    4.56
   5   8  -2   95.48   10.66
   5   8  -2   81.41   10.05
  -5  -8   2   89.41    8.68
  -5  -8   2   88.05    9.93
  -5  -8   1   24.14    5.42
   5   8  -1   38.40    6.72
   5   8  -1   35.13    6.69
  -5  -8   1   28.13    5.18
  -5  -8   0   66.00    8.24
   5   8   0   58.13    7.64
   5   8   0   62.51    8.16
  -5  -8   0   72.12    7.73
  -5  -8  -1   23.67    5.24
   5   8   1   28.38    5.63
   5   8   1   19.49    4.96
  -5  -8  -1   16.59    4.23
  -5  -8  -2  165.03   11.80
   5   8   2  164.00   12.06
   5   8   2  147.27   11.77
  -5  -8  -2  146.46   11.05
  -5  -8  -3    2.86    3.18
   5   8   3    6.87    3.78
   5   8   3    5.23    3.11
   5   8   3    8.40    3.84
  -5  -8  -3    8.92    3.67
   5   8   4  151.72   11.70
   5   8   4  152.81   11.05
   5   8   4  143.21   11.54
  -5  -8  -4  147.91   11.62
   5   8   5    8.80    3.75
   5   8   5    2.19    3.31
   5   8   5    4.68    3.80
  -5  -8  -5    4.95    3.47
   5   8   6  100.42    9.81
   5   8   6  101.28   10.00
   5   8   6   89.00    9.62
  -5  -8  -6   91.46    9.89
   5   8   7    3.60    2.77
   5   8   7   -2.64    3.11
   5   8   7   -0.02    2.90
  -5  -8  -7   -5.80    3.67
   5   8   8   84.02    9.56
   5   8   8   69.29    9.52
   5   8   8   74.46    9.20
  -5  -8  -8   65.17    9.44
   5   8   9    0.74    2.85
   5   8   9    5.54    3.93
  -5  -8  -9   11.24    4.73
   5   8  10   29.36    6.74
   5   8  10   44.31    8.12
   5   8  10   25.20    7.34
  -5  -8 -10   40.91    8.48
   5   8  11   -3.78    4.01
   5   8  11   12.92    4.58
  -5  -9   3   10.66    4.65
  -5  -9   3   16.52    5.42
   5   9  -3   18.98    5.40
   5   9  -3   22.63    6.58
   5   9  -2   70.38    9.84
   5   9  -2   66.99    9.83
  -5  -9   2   67.48    9.36
   5   9  -1   17.03    5.24
   5   9  -1    8.71    4.42
  -5  -9   1    8.67    4.18
  -5  -9   1   10.88    3.37
  -5  -9   0   80.51    9.50
   5   9   0   80.82    9.65
   5   9   0   90.14   10.39
  -5  -9   0   80.16    8.37
  -5  -9  -1   11.33    4.41
   5   9   1   10.75    4.19
   5   9   1    7.91    3.94
  -5  -9  -1    8.57    3.45
  -5  -9  -2   69.78    8.47
   5   9   2   73.49    8.75
   5   9   2   76.49    9.33
  -5  -9  -2   47.31    6.47
  -5  -9  -3   11.32    4.47
   5   9   3   13.61    4.92
   5   9   3    7.27    2.99
   5   9   3   11.69    4.50
  -5  -9  -3   13.96    4.46
   5   9   4   93.89    9.72
   5   9   4   86.31    8.60
   5   9   4   84.27    9.64
  -5  -9  -4   82.03    9.12
   5   9   5    6.51    3.85
   5   9   5   -1.63    2.73
   5   9   5    9.97    4.42
  -5  -9  -5    8.91    4.18
   5   9   6   63.92    8.30
   5   9   6   75.83    8.91
   5   9   6   80.92    9.51
  -5  -9  -6   79.59    9.60
   5   9   7   -0.14    2.34
   5   9   7    4.13    3.84
   5   9   7    2.22    2.90
  -5  -9  -7    9.20    4.47
   5   9   8   42.44    7.30
   5   9   8   48.78    7.90
   5   9   8   42.59    7.99
  -5  -9  -8   35.81    7.42
   5   9   9    2.94    3.46
   5   9   9    4.39    4.05
   5   9   9    3.59    4.49
  -5  -9  -9    5.25    4.88
   5   9  10   42.04    7.60
   5   9  10   48.09    8.08
  -5 -10   1   18.60    5.58
   5  10  -1   14.23    4.81
   5  10  -1   15.24    5.82
  -5 -10   0   31.36    6.72
   5  10   0   28.32    6.57
   5  10   0   35.66    7.32
  -5 -10   0   40.58    6.33
  -5 -10  -1   17.52    5.06
   5  10   1   23.17    6.05
   5  10   1   19.58    5.70
  -5 -10  -1   16.19    4.42
  -5 -10  -2   28.97    5.94
   5  10   2   31.81    6.76
   5  10   2   27.23    6.17
  -5 -10  -2   36.37    6.24
  -5 -10  -3   10.13    4.05
   5  10   3    9.05    4.14
   5  10   3   21.42    5.78
  -5 -10  -3   17.26    4.88
   5  10   4   47.19    6.41
   5  10   4   40.90    7.04
   5  10   4   48.98    8.06
  -5 -10  -4   52.14    7.48
   5  10   5    4.55    3.05
   5  10   5    0.13    2.87
   5  10   5    3.29    3.46
  -5 -10  -5    2.10    3.67
   5  10   6   69.92    9.07
   5  10   6   65.84    8.40
   5  10   6   78.70    9.75
  -5 -10  -6   60.43    8.68
   5  10   7   15.07    4.73
   5  10   7   13.06    5.28
   5  10   7    6.25    3.30
  -5 -10  -7   16.93    5.32
   5  10   8   41.40    7.32
   5  10   8   38.28    7.58
   5  10   8   34.57    7.26
  -5 -10  -8   29.85    6.87
   5  10   9    0.84    2.35
   5  10   9   12.41    4.57
  -5 -11  -2   13.07    4.61
   5  11   2   16.83    5.33
   5  11   2   22.96    6.19
  -5 -11  -2   24.22    5.32
  -5 -11  -3    6.39    4.13
   5  11   3    3.67    3.26
   5  11   3    5.66    4.02
  -5 -11  -3   -1.69    2.60
   5  11   4   22.91    5.82
   5  11   4   25.65    6.30
  -5 -11  -4   21.71    5.00
   5  11   5    2.56    3.20
   5  11   5    5.73    3.10
   5  11   5    1.51    3.98
  -5 -11  -5    7.83    4.06
   5  11   6    9.22    4.43
   5  11   6    5.95    3.49
   5  11   6    5.54    4.61
  -5 -11  -6   13.88    4.71
   5  11   7   -1.41    2.44
   5  11   7    7.39    3.88
   5  11   7    5.16    4.20
   5  11   8   17.35    5.74
  -5 -12  -3    8.99    3.42
  -5 -12  -4   12.97    4.53
   6  -9  -4    2.41    3.00
   6  -9  -3   27.56    9.48
   6  -9  -3    0.31    1.98
   6  -9  -2   12.48    8.52
   6  -9  -2   11.58    3.94
   6  -9  -1   -4.85    2.98
  -6   8   5   20.66    7.17
  -6   8   4   -0.64    3.53
  -6   8   4   -3.43    4.73
   6  -8  -4   -2.61    3.64
  -6   8   3    1.04    3.62
   6  -8  -3   15.89    6.51
  -6   8   3    6.13    4.72
   6  -8  -3    4.73    3.79
  -6   8   2    6.60    3.89
   6  -8  -2   10.44    6.52
  -6   8   2    1.42    4.52
   6  -8  -2    9.67    4.16
   6  -8  -1    2.99    2.70
  -6   8   1    2.62    3.53
   6  -8  -1   -3.40    5.41
   6  -8   0   26.83    5.59
  -6   8   0   19.90    5.63
   6  -8   0   29.38    9.10
   6  -8   1    9.19    3.87
  -6   8  -1   -3.04    3.22
   6  -8   1    4.52    5.48
   6  -8   2   13.44    4.54
  -6   8  -2   12.35    4.97
  -6   7   6    9.11    5.25
  -6   7   6    7.21    5.49
   6  -7  -6    4.50    4.16
  -6   7   5   12.19    5.05
  -6   7   5    3.66    4.39
   6  -7  -5    8.45    4.36
  -6   7   4   46.93    8.21
  -6   7   4   46.83    9.57
   6  -7  -4   37.57    6.61
  -6   7   3   24.08    5.87
   6  -7  -3   12.90    6.76
  -6   7   3   13.07    5.49
   6  -7  -3   11.11    4.13
  -6   7   2   28.54    6.54
   6  -7  -2   38.00   10.09
  -6   7   2   21.69    6.51
   6  -7  -2   24.90    5.74
   6  -7  -1   24.81    5.42
  -6   7   1   20.66    5.89
   6  -7  -1   18.30    7.85
  -6   7   1   26.04    7.03
   6  -7   0   15.75    4.79
  -6   7   0   12.58    4.67
   6  -7   0    9.59    7.01
   6  -7   1   20.40    5.57
  -6   7  -1   17.25    4.60
   6  -7   2   16.92    5.00
  -6   7  -2    9.47    3.98
   6  -7   3    6.42    3.52
  -6   7  -3   15.69    4.91
  -6   7  -4    8.97    3.81
   6  -7   4   15.63    4.52
  -6   6   8   -1.71    3.31
  -6   6   7   24.18    6.71
  -6   6   7   21.15    7.69
   6  -6  -7   11.57    4.34
  -6   6   6   16.09    5.91
  -6   6   6   19.07    6.95
   6  -6  -6   10.89    4.09
  -6   6   5   26.62    6.35
  -6   6   5   28.88    7.55
   6  -6  -5   30.85    6.22
  -6   6   4   10.77    4.79
  -6   6   4    7.96    5.32
   6  -6  -4    6.66    3.53
  -6   6   3   45.84    7.89
   6  -6  -3   41.38    8.28
  -6   6   3   55.66    9.68
   6  -6  -3   51.16    7.59
  -6   6   2   29.31    7.05
  -6   6   2   27.86    6.50
   6  -6  -2   19.72    7.36
   6  -6  -2   30.05    5.75
   6  -6  -1   34.77    6.04
  -6   6   1   41.11    7.15
   6  -6  -1   35.20    9.25
  -6   6   1   27.07    6.36
   6  -6   0   16.63    4.70
  -6   6   0   21.18    5.35
  -6   6   0   26.88    6.10
   6  -6   1   28.68    5.62
  -6   6  -1   21.20    5.22
  -6   6  -1   21.45    5.62
   6  -6   2   19.53    5.00
  -6   6  -2   20.10    5.28
   6  -6   3   23.03    5.51
  -6   6  -3   14.44    4.31
   6  -6   4   23.22    5.78
  -6   6  -4   24.68    5.28
  -6   6  -4   30.70    6.72
   6  -6   5    8.48    4.05
  -6   5   8    8.60    4.38
   6  -5  -8   12.44    5.06
  -6   5   7   19.26    6.03
  -6   5   7   25.18    7.58
   6  -5  -7   33.37    6.76
  -6   5   6    3.14    3.54
  -6   5   6   19.27    6.97
   6  -5  -6   12.59    4.08
  -6   5   5   42.44    7.87
  -6   5   5   54.62    9.78
   6  -5  -5   42.62    7.26
   6  -5  -5   47.89    7.68
  -6   5   4   24.07    5.82
   6  -5  -4   24.73    5.48
  -6   5   4   17.26    5.59
  -6   5   3   64.01    8.84
  -6   5   3   57.28    9.24
   6  -5  -3   70.88    8.56
  -6   5   2   26.07    5.77
  -6   5   2   24.53    6.09
   6  -5  -2   22.92    5.26
  -6   5   1   62.42    8.12
  -6   5   1   65.34    8.82
   6  -5  -1   68.05    8.09
   6  -5   0   35.56    6.23
  -6   5   0   22.19    5.37
  -6   5   0   30.19    6.41
  -6   5  -1   62.81    7.99
  -6   5  -1   69.67    8.68
   6  -5   1   57.37    7.66
   6  -5   2   11.89    4.41
  -6   5  -2   19.17    4.63
  -6   5  -2   17.49    4.53
   6  -5   2   19.92    3.89
   6  -5   3    6.04    3.66
  -6   5  -3    1.78    2.73
  -6   5  -3   -0.34    2.43
  -6   5  -3    4.19    3.45
   6  -5   3    4.11    2.68
   6  -5   4   17.71    4.83
  -6   5  -4    2.94    3.08
  -6   5  -4    8.35    4.01
   6  -5   4    8.03    3.96
   6  -5   5   10.48    4.10
  -6   5  -5   11.98    4.60
   6  -5   5    7.40    4.19
   6  -5   6   35.45    6.98
  -6   5  -6   29.59    6.23
  -6   5  -6   25.63    6.71
   6  -5   6   12.40    5.27
  -6   5  -7   12.37    4.91
  -6   4   9   13.39    4.86
  -6   4   8    4.86    3.77
  -6   4   8    9.39    5.09
   6  -4  -8    0.19    3.49
  -6   4   7   24.39    6.67
  -6   4   7   31.50    7.58
   6  -4  -7   43.11    7.86
  -6   4   6    1.66    3.35
  -6   4   6   11.31    4.76
   6  -4  -6    6.68    3.77
  -6   4   5   63.97    9.35
   6  -4  -5   52.16    8.10
  -6   4   5   62.39    9.84
   6  -4  -5   45.03    7.15
  -6   4   4   36.63    7.02
  -6   4   4   33.47    7.14
   6  -4  -4   29.48    5.93
  -6   4   3   57.90    8.15
  -6   4   3   57.32    8.27
   6  -4  -3   51.80    7.12
   6  -4  -2   29.87    5.61
  -6   4   2   33.19    6.55
  -6   4   2   33.06    6.18
  -6   4   1   76.15    8.74
  -6   4   1   84.54    9.29
   6  -4  -1   72.67    8.24
   6  -4   0   23.30    5.15
  -6   4   0   28.57    5.42
   6  -4   0   20.59    3.36
  -6   4   0   25.87    5.62
  -6   4   0   23.66    6.44
   6  -4   1   37.59    5.87
  -6   4  -1   31.56    5.62
   6  -4   1   34.41    4.48
  -6   4  -1   32.66    6.58
  -6   4  -2   48.97    6.61
   6  -4   2   55.50    6.19
  -6   4  -2   55.40    7.36
   6  -4   2   47.14    6.90
  -6   4  -2   51.32    7.45
  -6   4  -3  100.35    8.95
   6  -4   3   92.37    8.45
  -6   4  -3   89.20    9.61
   6  -4   3   81.20    9.00
  -6   4  -4   99.53    8.88
   6  -4   4  101.14    9.46
  -6   4  -4  111.07   11.00
   6  -4   4  100.34   10.41
   6  -4   5   33.57    6.67
  -6   4  -5   28.27    5.49
  -6   4  -5   35.73    6.74
   6  -4   5   31.99    6.11
   6  -4   6   25.18    6.33
  -6   4  -6   40.16    7.02
  -6   4  -6   34.68    6.94
   6  -4   6   23.19    6.38
   6  -4   7   24.09    5.76
  -6   4  -7   24.43    5.45
   6  -4   7   21.66    6.27
  -6   3   9   21.24    6.10
   6  -3  -9   28.25    6.50
  -6   3   8   12.61    5.91
   6  -3  -8   12.82    5.19
  -6   3   7   26.96    7.41
   6  -3  -7   34.24    7.01
   6  -3  -6   18.15    4.92
  -6   3   6   20.13    6.51
   6  -3  -5  132.66   11.65
  -6   3   5  110.92   12.09
  -6   3   4   14.16    5.04
   6  -3  -4   22.39    5.18
  -6   3   3  153.66   12.83
   6  -3  -3  165.03   11.90
  -6   3   3  176.59   15.29
  -6   3   2   28.37    5.81
  -6   3   2   29.58    7.06
  -6   3   2   27.86    5.70
   6  -3  -2   34.79    6.01
  -6   3   1  170.05   12.49
   6  -3  -1  165.17    7.40
  -6   3   1  174.83   12.66
   6  -3  -1  179.21   12.00
  -6   3   1  190.99   14.78
  -6   3   0   65.30    7.71
   6  -3   0   62.49    7.32
  -6   3   0   67.90    8.95
  -6   3  -1  158.05   11.08
   6  -3   1  138.36    8.52
   6  -3   1  143.39   10.89
  -6   3  -1  151.29   12.29
  -6   3  -2   61.28    6.93
   6  -3   2   55.12    5.99
  -6   3  -2   67.16    7.76
  -6   3  -2   56.41    7.65
   6  -3   2   57.42    7.28
  -6   3  -3   83.42    7.97
   6  -3   3   77.49    7.79
  -6   3  -3   88.71    8.99
  -6   3  -3   90.05    8.81
   6  -3   3   81.29    8.56
   6  -3   4   26.04    5.47
  -6   3  -4   35.11    5.19
  -6   3  -4   30.64    5.94
   6  -3   4   32.43    5.38
  -6   3  -4   26.19    4.79
  -6   3  -5   89.44    7.81
  -6   3  -5   77.24    7.99
   6  -3   5   64.34    8.12
  -6   3  -5   87.84    9.91
   6  -3   5   81.20    9.45
   6  -3   6   27.51    6.22
  -6   3  -6   19.13    4.58
  -6   3  -6   26.86    6.48
   6  -3   6   29.29    6.34
   6  -3   7   26.61    6.35
  -6   3  -7   36.09    6.56
  -6   3  -7   38.69    7.90
   6  -3   7   31.01    7.40
  -6   3  -8   13.77    4.76
   6  -3   8   19.50    6.48
   6  -2  -9   18.52    6.19
  -6   2   8    5.82    4.51
   6  -2  -8   -2.41    4.05
   6  -2  -8    5.48    4.09
   6  -2  -7  124.95   12.80
  -6   2   7  114.72   13.36
   6  -2  -6    9.43    4.28
  -6   2   6   20.17    5.75
  -6   2   5   97.68   11.09
   6  -2  -5  105.13   10.43
   6  -2  -4    7.52    3.36
  -6   2   4    3.60    4.03
  -6   2   4    6.00    3.56
   6  -2  -4   14.38    4.11
  -6   2   3  132.60   11.51
   6  -2  -3  148.38    7.00
   6  -2  -3  163.15   11.62
  -6   2   3  161.29   13.89
   6  -2  -2   16.34    2.38
   6  -2  -2   12.26    2.73
  -6   2   2   17.89    4.63
  -6   2   2   19.45    5.42
   6  -2  -2   12.07    3.85
   6  -2  -1  146.69    7.22
   6  -2  -1  148.27   10.68
  -6   2   1  157.01   12.96
   6  -2   0   55.15    4.99
   6  -2   0   53.82    6.72
  -6   2   0   47.66    7.09
  -6   2  -1  208.14   12.35
   6  -2   1  196.40   10.24
   6  -2   1  208.55   12.53
  -6   2  -1  207.84   13.70
  -6   2  -2   51.64    6.21
   6  -2   2   44.58    5.41
  -6   2  -2   42.73    6.09
   6  -2   2   50.33    6.56
  -6   2  -2   38.78    6.20
  -6   2  -3  160.74   10.15
   6  -2   3  161.72   10.79
  -6   2  -3  169.45   11.87
  -6   2  -3  176.19   12.19
   6  -2   3  177.80   12.00
   6  -2   4   23.37    5.21
  -6   2  -4   22.57    4.14
  -6   2  -4   19.16    4.79
   6  -2   4   27.13    5.18
  -6   2  -4   20.82    4.46
  -6   2  -5  120.28    8.42
  -6   2  -5  109.07    8.68
   6  -2   5  102.54    9.85
  -6   2  -5  101.71   10.19
  -6   2  -5   99.58    8.73
   6  -2   5  100.72   10.09
   6  -2   6   25.69    5.79
  -6   2  -6   23.80    4.92
  -6   2  -6   25.25    6.07
   6  -2   6   31.43    6.02
   6  -2   7   59.79    9.06
  -6   2  -7   73.45    8.31
  -6   2  -7   65.42    9.34
   6  -2   7   64.71    9.32
   6  -2   8    3.56    3.97
  -6   2  -8   -9.65    4.16
  -6   2  -8    3.51    3.94
   6  -2   8    2.35    3.23
  -6   1   9   41.75    8.37
   6  -1  -9   42.94    7.67
   6  -1  -8    1.15    4.09
  -6   1   8    7.59    4.85
   6  -1  -8    6.72    4.40
   6  -1  -7   52.72    8.26
  -6   1   7   58.08    9.32
   6  -1  -7   62.31    9.43
  -6   1   6    0.62    2.27
  -6   1   6   -0.38    4.15
   6  -1  -6    1.98    3.01
   6  -1  -6    0.96    2.60
  -6   1   5  129.58   12.16
   6  -1  -5  139.86   11.81
  -6   1   5  133.40   13.43
  -6   1   4   12.30    4.16
   6  -1  -4   13.70    4.19
  -6   1   4   10.74    5.14
   6  -1  -4   15.60    4.35
   6  -1  -3  189.85    7.69
  -6   1   3  208.86   13.91
   6  -1  -3  206.61    8.69
   6  -1  -3  223.08   13.19
  -6   1   3  212.93   15.44
   6  -1  -2   12.15    2.48
   6  -1  -2   10.63    2.69
  -6   1   2   10.78    4.82
   6  -1  -2   14.36    4.23
   6  -1  -1  221.95    9.20
   6  -1  -1  225.22   12.72
  -6   1   1  205.45   13.78
   6  -1   0    0.04    2.45
   6  -1   0   -0.17    1.78
  -6   1   0    2.26    2.72
   6  -1   1  183.28   10.00
   6  -1   1  186.39   11.53
  -6   1  -1  192.03   12.55
   6  -1   2   86.85    7.26
  -6   1  -2   77.99    7.66
   6  -1   2   82.45    7.93
  -6   1  -2   85.79    8.49
  -6   1  -3  221.08   11.51
   6  -1   3  220.70   12.19
  -6   1  -3  236.20   13.26
  -6   1  -3  228.55   13.51
   6  -1   3  215.89   12.83
  -6   1  -4   83.59    6.95
  -6   1  -4   74.94    5.98
   6  -1   4   62.31    7.31
  -6   1  -4   76.83    8.11
  -6   1  -4   86.85    8.52
   6  -1   4   87.85    8.70
  -6   1  -5  144.02    8.75
  -6   1  -5  140.58    8.92
   6  -1   5  129.18   10.82
  -6   1  -5  149.42   11.60
  -6   1  -5  155.36   11.22
   6  -1   5  156.29   11.91
   6  -1   6   22.90    5.52
  -6   1  -6   22.97    4.41
  -6   1  -6   18.39    4.74
   6  -1   6   15.88    4.92
  -6   1  -6   30.15    5.36
   6  -1   7   35.97    6.74
  -6   1  -7   35.61    5.94
  -6   1  -7   50.13    8.01
   6  -1   7   33.21    6.82
   6  -1   8   12.76    4.78
  -6   1  -8   21.92    5.31
  -6   1  -8   18.53    5.85
   6  -1   8   13.01    5.01
   6  -1   9   18.79    6.27
  -6   0   9   27.18    6.83
   6   0  -9   35.22    7.09
   6   0  -9   34.36    7.17
   6   0  -8    0.05    2.79
  -6   0   8    0.20    3.55
   6   0  -8    7.74    4.39
   6   0  -7   75.04    9.30
   6   0  -7   67.52    9.67
  -6   0   7   66.02   10.11
  -6   0   7   57.00    8.34
  -6   0   6    3.86    3.26
  -6   0   6    2.24    3.07
   6   0  -6    6.18    3.63
   6   0  -6    1.35    3.11
  -6   0   5  130.66   11.87
   6   0  -5  135.07   11.03
   6   0  -5  135.99   11.82
  -6   0   5  128.29   12.74
   6   0  -4    0.67    1.47
   6   0  -4    5.03    3.13
   6   0  -4    1.33    1.44
  -6   0   4    0.87    2.48
   6   0  -4    2.38    3.14
  -6   0   4   -2.44    3.10
  -6   0   3  157.72    5.82
   6   0  -3  163.70    8.07
  -6   0   3  174.49   12.36
   6   0  -3  156.03    8.07
   6   0  -3  155.06   11.23
   6   0  -3  176.76   11.66
  -6   0   3  157.62   12.73
   6   0  -2   22.79    3.31
   6   0  -2   18.39    3.26
  -6   0   2   20.21    4.98
   6   0  -2   26.25    4.94
   6   0  -1  385.47   12.62
   6   0  -1  371.98   13.26
   6   0  -1  414.40   16.57
  -6   0   1  412.47   18.68
   6   0   0  250.25   10.71
   6   0   0  271.33   13.41
  -6   0   0  263.68   14.69
   6   0   1  434.50   14.66
   6   0   1  460.52   17.28
  -6   0  -1  422.79   18.30
   6   0   2   11.81    3.47
  -6   0  -2    6.54    2.88
   6   0   2   10.67    3.28
  -6   0  -2    8.91    3.47
   6   0   3  347.66   15.16
  -6   0  -3  343.54   15.46
   6   0   3  345.13   15.45
  -6   0  -3  352.18   16.43
   6   0   4   15.45    4.22
  -6   0  -4   10.46    2.75
  -6   0  -4    7.44    2.07
  -6   0  -4   15.61    4.04
   6   0   4    7.67    3.29
  -6   0  -4   11.53    3.89
  -6   0  -5  183.95    9.26
  -6   0  -5  205.41    9.63
   6   0   5  203.19   13.18
  -6   0  -5  189.25   12.66
  -6   0  -5  190.98   12.30
   6   0   5  177.73   12.14
   6   0   6   10.30    3.86
  -6   0  -6   12.90    3.01
  -6   0  -6   11.75    4.25
   6   0   6   13.19    4.29
  -6   0  -6   16.40    4.21
  -6   0  -7  120.29    9.25
   6   0   7  130.78   12.20
  -6   0  -7  116.90   11.69
  -6   0  -7  118.68   10.14
   6   0   7  118.74   11.48
   6   0   8   13.56    4.89
  -6   0  -8   12.60    4.92
   6   0   8   10.61    5.02
   6   0   9   49.42    8.72
  -6   0  -9   37.19    7.73
   6   0   9   39.78    8.23
  -6  -1   9   35.70    7.31
   6   1  -9   31.97    6.74
  -6  -1   8   -3.60    3.41
   6   1  -8   -3.60    3.43
  -6  -1   8   -3.12    4.53
   6   1  -8   -3.78    3.24
   6   1  -8    1.20    4.34
   6   1  -7   88.87    9.59
  -6  -1   7   97.07   10.97
   6   1  -7  109.03   12.55
  -6  -1   7  109.36   12.33
  -6  -1   6    0.90    2.65
  -6  -1   6   -1.81    2.87
   6   1  -6    1.65    2.08
   6   1  -6    7.74    3.93
  -6  -1   6    1.02    3.24
   6   1  -5  153.81    9.61
  -6  -1   5  156.32   12.73
   6   1  -5  152.83   11.02
   6   1  -5  168.68   13.19
  -6  -1   5  134.22   12.81
  -6  -1   5  146.78    9.14
  -6  -1   4    7.27    2.51
   6   1  -4   13.14    3.03
   6   1  -4   10.86    3.65
   6   1  -4    9.38    2.55
   6   1  -4   12.20    4.41
  -6  -1   4    6.14    3.37
  -6  -1   4   13.19    4.68
   6   1  -3  307.28   12.18
  -6  -1   3  281.01   15.35
   6   1  -3  282.92   12.51
   6   1  -3  273.73   11.43
   6   1  -3  298.55   15.17
   6   1  -3  312.13   15.22
  -6  -1   3  290.34   16.70
  -6  -1   3  287.32    9.89
  -6  -1   2   12.46    2.12
   6   1  -2    9.96    2.79
   6   1  -2    6.27    2.62
   6   1  -2    7.23    2.67
   6   1  -2   13.37    3.95
  -6  -1   2    9.13    3.90
   6   1  -2   16.50    4.14
  -6  -1   1  392.33    9.89
   6   1  -1  406.37   13.74
   6   1  -1  371.97   13.83
   6   1  -1  391.38   15.97
  -6  -1   1  390.22   17.83
   6   1   0   13.82    3.82
   6   1   0   13.33    3.18
   6   1   0   11.22    3.30
  -6  -1   0    6.86    3.76
   6   1   1  539.36   16.63
   6   1   1  545.56   18.25
  -6  -1  -1  518.09   19.60
   6   1   2    5.76    2.87
   6   1   2    8.41    3.23
  -6  -1  -2   10.18    3.08
   6   1   2   10.55    3.36
  -6  -1  -2    8.40    3.69
   6   1   3  323.93   14.57
  -6  -1  -3  321.60   14.23
   6   1   3  310.26   14.15
  -6  -1  -3  339.20   16.01
   6   1   4    5.97    2.90
  -6  -1  -4    5.68    2.86
   6   1   4    6.77    3.28
  -6  -1  -4    2.03    2.77
  -6  -1  -5  182.95    9.14
  -6  -1  -5  165.57    7.58
   6   1   5  197.90   12.79
  -6  -1  -5  196.93   12.49
  -6  -1  -5  206.51   12.96
   6   1   5  170.68   11.52
   6   1   6    7.99    3.58
  -6  -1  -6    4.30    2.64
   6   1   6    7.37    3.29
  -6  -1  -6    6.80    3.55
   6   1   7  161.44   13.09
  -6  -1  -7  150.41   12.72
  -6  -1  -7  137.01   11.25
   6   1   7  144.09   11.92
   6   1   8    9.33    4.33
   6   1   8    2.37    2.19
  -6  -1  -8   13.68    4.69
   6   1   8   10.32    4.50
  -6  -1  -8   16.51    4.47
   6   1   9   58.81    9.03
   6   1   9   47.98    8.21
  -6  -1  -9   41.08    8.01
   6   1   9   45.14    8.48
   6   1  10    5.26    3.52
  -6  -2   8   16.24    6.10
  -6  -2   8    8.98    4.33
   6   2  -8    7.40    5.12
  -6  -2   7   49.03    8.92
   6   2  -7   50.13    8.05
  -6  -2   7   46.38    8.30
   6   2  -7   52.58    9.34
  -6  -2   6   -0.08    2.58
  -6  -2   6   -3.89    3.12
   6   2  -6    3.26    2.84
   6   2  -6    3.70    3.52
  -6  -2   6    6.85    4.06
   6   2  -5  119.97    9.37
  -6  -2   5   84.40    9.26
   6   2  -5  113.10    9.31
   6   2  -5  109.52    8.45
   6   2  -5  124.33   11.82
  -6  -2   5  125.78   12.17
  -6  -2   5  110.62    8.94
  -6  -2   4    4.57    2.56
   6   2  -4    4.39    2.40
   6   2  -4    3.86    2.26
   6   2  -4    3.58    2.38
   6   2  -4    4.64    3.32
  -6  -2   4    5.31    3.66
  -6  -2   4    8.10    3.29
   6   2  -3  274.63   12.57
   6   2  -3  285.77   12.51
   6   2  -3  262.43   14.54
  -6  -2   3  273.14   16.10
  -6  -2   3  290.55   11.53
  -6  -2   2    1.41    1.73
   6   2  -2    1.65    1.91
   6   2  -2    1.08    1.49
   6   2  -2    1.31    1.94
   6   2  -2    3.96    2.77
  -6  -2   2    0.02    2.58
   6   2  -2    2.10    2.88
  -6  -2   1  358.28   11.15
   6   2  -1  354.86   13.60
   6   2  -1  363.91   14.29
   6   2  -1  355.27   14.84
  -6  -2   1  392.38   17.71
   6   2   0   -0.64    2.52
   6   2   0    0.54    2.10
   6   2   0    1.26    2.63
  -6  -2   0    0.06    2.90
   6   2   1  402.79   14.91
   6   2   1  416.04   15.71
   6   2   1  413.10   15.40
  -6  -2  -1  405.31   17.39
   6   2   2   -0.44    2.29
   6   2   2   -0.93    2.76
  -6  -2  -2    3.03    2.28
  -6  -2  -2    2.88    2.93
   6   2   3  425.12   16.45
   6   2   3  420.00   16.73
  -6  -2  -3  426.36   15.51
   6   2   3  409.39   15.70
  -6  -2  -3  425.34   18.02
   6   2   4    4.79    2.90
  -6  -2  -4    0.12    1.79
   6   2   4    0.95    2.59
  -6  -2  -4    1.33    3.08
   6   2   5  221.24   13.25
   6   2   5  226.96   12.73
  -6  -2  -5  213.15   13.47
   6   2   6    5.38    3.10
   6   2   6    9.87    3.93
  -6  -2  -6    2.28    2.38
   6   2   6    6.04    3.41
  -6  -2  -6   10.37    4.40
   6   2   7   29.33    5.66
   6   2   7   23.78    5.59
  -6  -2  -7   33.25    6.19
   6   2   7   31.39    6.33
  -6  -2  -7   34.91    6.28
   6   2   8    5.76    3.77
   6   2   8    7.90    3.82
  -6  -2  -8    6.12    3.29
   6   2   8   11.47    4.41
  -6  -2  -8    5.84    3.86
   6   2   9   59.24    8.99
  -6  -2  -9   67.49    9.83
   6   2   9   65.56    9.86
  -6  -2  -9   72.39    9.28
   6   2   9   75.39    9.87
   6   2  10    5.17    3.42
  -6  -2 -10    7.54    4.32
   6   2  10    6.38    4.64
   6   2  11   25.09    6.67
  -6  -3   8    0.94    3.23
  -6  -3   7   50.95    9.22
  -6  -3   7   56.06    8.50
   6   3  -7   54.32    9.77
  -6  -3   6    5.68    4.02
  -6  -3   6    3.82    3.27
   6   3  -6   -6.84    3.22
   6   3  -6    2.76    3.36
  -6  -3   6    7.11    3.87
   6   3  -5  119.97   10.01
  -6  -3   5  104.36   10.07
   6   3  -5  113.04    9.46
   6   3  -5  118.47   11.87
  -6  -3   5  121.34   11.82
  -6  -3   5  106.23    9.46
  -6  -3   4    4.08    2.92
   6   3  -4    3.45    2.51
   6   3  -4    0.64    2.11
   6   3  -4    1.74    2.48
  -6  -3   4    5.35    3.78
  -6  -3   4    5.07    2.64
   6   3  -3  203.24   11.73
   6   3  -3  210.54   11.66
   6   3  -3  212.57   13.35
  -6  -3   3  196.60   13.68
  -6  -3   3  205.61   10.95
  -6  -3   2    0.68    1.78
   6   3  -2    1.29    2.45
   6   3  -2    2.25    2.14
   6   3  -2    1.89    2.39
  -6  -3   2    0.62    3.14
   6   3  -2   -0.14    2.51
  -6  -3   1  325.43   12.04
   6   3  -1  319.11   13.85
   6   3  -1  303.99   13.67
   6   3  -1  322.87   14.13
   6   3  -1  330.90   13.96
  -6  -3   1  322.25   16.20
  -6  -3   0    0.07    1.76
   6   3   0    3.26    2.56
   6   3   0   -0.39    2.28
  -6  -3   0    0.53    2.81
   6   3   0   -0.42    2.12
   6   3   1  343.98   14.37
   6   3   1  326.05   14.42
   6   3   1  346.94   13.68
  -6  -3  -1  320.53   15.73
   6   3   2    6.33    2.91
   6   3   2    7.45    3.16
   6   3   2    5.38    3.31
  -6  -3  -2    5.16    2.22
  -6  -3  -2    7.46    3.27
   6   3   3  165.91   10.63
   6   3   3  161.08   10.93
  -6  -3  -3  170.14    9.43
   6   3   3  172.61    9.92
  -6  -3  -3  172.78   11.71
   6   3   4    9.46    3.09
   6   3   4    0.80    2.66
  -6  -3  -4    5.50    2.63
   6   3   4    4.58    2.64
  -6  -3  -4    2.23    2.82
   6   3   5  203.53   13.49
   6   3   5  228.70   13.57
   6   3   5  200.83   12.74
   6   3   5  212.05   11.83
  -6  -3  -5  235.77   14.24
   6   3   6    8.85    3.56
   6   3   6    8.53    3.77
  -6  -3  -6    9.47    3.48
   6   3   6   12.03    4.20
  -6  -3  -6    9.54    3.65
   6   3   7  256.72   16.77
   6   3   7  264.37   16.08
  -6  -3  -7  258.45   15.39
  -6  -3  -7  244.24   15.86
   6   3   7  261.11   14.84
   6   3   8   11.89    3.95
   6   3   8   13.77    4.60
  -6  -3  -8    5.89    2.99
   6   3   8   13.91    4.84
  -6  -3  -8   12.64    4.45
   6   3   9   66.05    9.65
   6   3   9   67.50   10.04
  -6  -3  -9   68.42    9.79
  -6  -3  -9   76.14    9.81
   6   3   9   82.87   10.11
   6   3  10    6.69    4.19
   6   3  10    1.39    2.55
  -6  -3 -10    7.38    4.32
   6   3  10    2.74    2.62
  -6  -3 -10    1.15    3.34
  -6  -4   7   40.82    8.30
   6   4  -7   43.33    8.81
  -6  -4   6    1.41    1.78
  -6  -4   6    1.20    3.11
  -6  -4   6   -3.04    3.55
   6   4  -6   10.07    4.03
   6   4  -6    5.38    3.86
  -6  -4   6    5.48    3.78
   6   4  -5  103.84   10.13
  -6  -4   5   98.89    9.69
   6   4  -5  106.01    9.87
   6   4  -5  100.81   11.90
  -6  -4   5   74.41    9.29
  -6  -4   5  110.12   10.49
  -6  -4   4    3.39    3.04
   6   4  -4    5.13    3.15
   6   4  -4    0.83    2.42
   6   4  -4    5.86    4.33
  -6  -4   4    4.97    2.95
  -6  -4   4    4.24    3.66
   6   4  -3  192.18   12.21
   6   4  -3  191.67   11.96
   6   4  -3  210.02   13.99
  -6  -4   3  190.57   13.42
  -6  -4   3  192.49   11.60
  -6  -4   2   18.79    3.97
   6   4  -2   19.29    4.36
   6   4  -2   15.21    3.79
   6   4  -2   17.71    4.28
  -6  -4   2    7.60    3.98
  -6  -4   1  386.01   14.58
   6   4  -1  415.15   16.63
   6   4  -1  393.47   16.42
   6   4  -1  403.55   16.21
   6   4  -1  420.04   15.55
  -6  -4   1  380.82   17.70
  -6  -4   0   38.80    4.87
   6   4   0   39.40    5.48
   6   4   0   41.61    5.81
   6   4   0   49.52    5.53
   6   4   0   46.33    5.26
  -6  -4   0   45.56    6.52
  -6  -4  -1  309.61   12.41
   6   4   1  312.13   14.27
   6   4   1  288.39   14.18
   6   4   1  300.43   12.17
   6   4   1  312.27   12.63
  -6  -4  -1  297.12   15.40
   6   4   2    2.60    2.12
   6   4   2    2.96    2.70
   6   4   2    3.41    2.94
  -6  -4  -2    7.95    3.96
   6   4   3  435.24   17.34
   6   4   3  418.56   17.70
  -6  -4  -3  417.52   13.91
   6   4   3  435.58   15.16
  -6  -4  -3  429.50   18.48
   6   4   4    0.48    2.03
   6   4   4   -0.36    3.13
   6   4   4    0.94    3.35
  -6  -4  -4    1.91    1.70
  -6  -4  -4    1.25    3.02
   6   4   5  232.44   14.40
   6   4   5  212.12   13.17
   6   4   5  224.48   13.37
  -6  -4  -5  215.19   11.46
   6   4   5  233.69   11.92
  -6  -4  -5  220.97   14.07
   6   4   6   -0.80    2.15
   6   4   6    1.14    2.83
   6   4   6    7.61    3.30
  -6  -4  -6    2.98    2.50
   6   4   6    6.35    3.58
  -6  -4  -6   -0.94    3.40
   6   4   7  148.48   12.34
   6   4   7  130.53   12.15
   6   4   7  136.27   11.59
  -6  -4  -7  131.51   10.71
   6   4   7  131.87   10.20
  -6  -4  -7  126.72   11.92
   6   4   8    0.51    2.74
   6   4   8    1.62    3.10
  -6  -4  -8    3.60    2.73
   6   4   8    2.91    3.37
  -6  -4  -8   -0.96    3.93
   6   4   9   87.67   11.32
   6   4   9   87.84   10.71
  -6  -4  -9   75.48    9.86
   6   4   9   69.26    8.67
  -6  -4  -9   74.86   10.28
   6   4  10   -0.29    2.85
   6   4  10   10.01    4.40
  -6  -4 -10    2.11    2.77
   6   4  10   -1.99    3.25
  -6  -4 -10    3.37    4.15
   6   4  11   35.46    7.60
  -6  -4 -11   29.45    6.71
  -6  -5   7   30.28    7.17
   6   5  -7   47.04    8.69
  -6  -5   6   11.72    4.47
  -6  -5   6    8.74    5.31
   6   5  -6   -1.94    3.36
   6   5  -6   13.13    4.82
   6   5  -6   -4.66    3.87
  -6  -5   6    2.60    3.28
   6   5  -5  104.42   11.02
   6   5  -5   95.49   10.28
   6   5  -5   99.97   12.34
  -6  -5   5   93.79   10.67
  -6  -5   5   95.25   10.44
   6   5  -4   53.41    7.54
  -6  -5   4   67.63    7.66
   6   5  -4   71.39    8.42
   6   5  -4   72.60    9.98
  -6  -5   4   50.93    7.58
  -6  -5   4   72.41    8.71
   6   5  -3  155.79   11.76
   6   5  -3  194.28   13.02
   6   5  -3  193.02   14.13
  -6  -5   3  198.93   12.80
  -6  -5   2   16.27    4.06
   6   5  -2   19.46    4.48
   6   5  -2   20.07    4.47
   6   5  -2   17.78    4.40
  -6  -5   2   20.10    4.95
  -6  -5   1  154.76   10.16
   6   5  -1  119.34    9.59
   6   5  -1  134.96   10.32
   6   5  -1  149.52   10.40
  -6  -5   1  135.47   10.91
  -6  -5   0   20.31    4.41
   6   5   0   21.25    4.47
   6   5   0   21.48    4.48
   6   5   0   22.70    3.96
  -6  -5   0   17.44    4.58
   6   5   0   22.55    3.74
  -6  -5  -1  225.54   11.62
   6   5   1  236.82   13.23
   6   5   1  226.86   13.08
   6   5   1  216.64   10.36
   6   5   1  237.51   10.62
  -6  -5  -1  249.26   14.35
   6   5   2   19.23    3.32
   6   5   2   17.79    4.09
   6   5   2   22.57    4.68
   6   5   2   24.84    3.39
  -6  -5  -2   18.62    4.48
   6   5   3  148.43   10.81
   6   5   3  155.02   11.24
  -6  -5  -3  164.50    8.15
   6   5   3  182.93    9.34
  -6  -5  -3  150.72   11.46
   6   5   4    6.23    2.39
   6   5   4    4.05    3.58
   6   5   4   -0.22    2.62
   6   5   4    4.15    3.10
  -6  -5  -4    2.57    1.98
  -6  -5  -4    7.17    3.72
   6   5   5  200.99   13.51
   6   5   5  192.93   12.77
   6   5   5  189.62   13.07
  -6  -5  -5  204.75   10.64
   6   5   5  191.05   10.32
  -6  -5  -5  197.72   13.78
   6   5   6    1.94    2.15
   6   5   6    1.73    3.11
   6   5   6    6.45    3.21
   6   5   6    6.74    3.94
  -6  -5  -6    2.05    2.37
   6   5   6    1.87    3.02
  -6  -5  -6    0.77    3.29
   6   5   7  114.31   10.81
   6   5   7  127.39   12.09
   6   5   7  116.40   10.80
  -6  -5  -7  110.75    9.57
   6   5   7  101.95    8.66
  -6  -5  -7  110.94   11.52
   6   5   8   -0.56    2.37
   6   5   8    0.47    3.61
   6   5   8    7.42    3.81
  -6  -5  -8    3.64    2.46
   6   5   8    5.73    3.69
  -6  -5  -8    0.55    3.09
   6   5   9   72.21    9.68
   6   5   9   55.62    8.59
   6   5   9   63.18    9.80
  -6  -5  -9   60.81    8.74
   6   5   9   69.65    8.44
  -6  -5  -9   56.10    9.30
   6   5  10    9.45    4.09
   6   5  10   -3.77    3.94
   6   5  10   15.10    5.61
  -6  -5 -10    7.44    3.71
   6   5  10   -0.49    3.19
  -6  -5 -10   -5.49    4.48
   6   5  11   37.98    7.36
  -6  -5 -11   36.32    8.29
  -6  -6   6   14.24    4.75
   6   6  -6    8.29    4.06
   6   6  -6    7.26    4.61
   6   6  -6   19.77    5.40
  -6  -6   5   40.18    7.67
  -6  -6   5   42.97    8.53
   6   6  -5   41.15    7.44
   6   6  -5   55.37    8.55
   6   6  -5   37.15    6.87
  -6  -6   5   35.09    6.51
  -6  -6   4    6.10    4.16
   6   6  -4   18.09    4.83
   6   6  -4   15.53    4.98
   6   6  -4   13.64    4.76
  -6  -6   4   11.45    4.07
  -6  -6   3   51.57    7.25
   6   6  -3   62.87    8.17
  -6  -6   3   68.25    7.35
   6   6  -3   64.56    8.52
   6   6  -3   74.36    9.38
  -6  -6   3   45.26    6.88
  -6  -6   2   27.77    5.42
   6   6  -2   34.89    6.20
   6   6  -2   29.60    5.81
   6   6  -2   40.07    6.55
  -6  -6   2   22.14    5.05
  -6  -6   1  120.11    9.87
   6   6  -1  118.14   10.25
   6   6  -1  126.12   10.54
   6   6  -1  140.42   10.91
  -6  -6   1  123.00   10.47
  -6  -6   0   16.93    4.30
   6   6   0   22.93    4.82
   6   6   0   12.36    4.14
   6   6   0   20.77    3.90
  -6  -6   0   20.19    4.68
  -6  -6  -1  161.27   10.63
   6   6   1  163.51   11.51
   6   6   1  174.37   12.12
   6   6   1  157.81    9.11
   6   6   1  167.35    8.67
  -6  -6  -1  162.45   12.00
  -6  -6  -2   13.45    3.76
   6   6   2   15.91    4.39
   6   6   2   15.94    4.34
   6   6   2   15.52    2.80
  -6  -6  -2   12.67    4.15
   6   6   2   15.71    3.07
   6   6   3  130.23   10.40
   6   6   3  116.51   10.26
   6   6   3  115.64    7.12
  -6  -6  -3  110.88   10.18
   6   6   4   28.59    5.31
   6   6   4   33.07    5.82
  -6  -6  -4   30.19    3.69
   6   6   4   28.01    5.89
   6   6   4   32.13    4.01
  -6  -6  -4   28.34    5.34
   6   6   5  158.23   11.82
   6   6   5  160.05   12.29
   6   6   5  143.99   11.85
  -6  -6  -5  127.90    8.01
   6   6   5  156.43    8.83
  -6  -6  -5  147.15   12.12
   6   6   6   -0.10    1.51
   6   6   6   -0.38    3.10
   6   6   6    1.25    2.57
   6   6   6    0.38    3.38
  -6  -6  -6   -5.67    2.48
  -6  -6  -6   -1.75    3.60
   6   6   7  107.11   10.53
   6   6   7  108.49   11.37
   6   6   7  104.53   10.27
   6   6   7  107.49   10.84
  -6  -6  -7   95.28    8.42
   6   6   7  107.21    8.31
  -6  -6  -7  111.25   11.67
   6   6   8    3.06    2.52
   6   6   8   -7.35    4.07
   6   6   8    4.70    3.26
   6   6   8    2.03    4.05
  -6  -6  -8    2.84    2.20
   6   6   8    0.99    3.44
  -6  -6  -8    3.11    3.90
   6   6   9   51.74    7.05
   6   6   9   51.92    8.35
   6   6   9   59.14    8.57
   6   6   9   67.49    9.87
  -6  -6  -9   42.09    7.18
   6   6   9   46.77    7.81
  -6  -6  -9   47.42    8.88
   6   6  10    8.78    3.83
   6   6  10   11.28    4.60
   6   6  10    3.02    3.82
   6   6  10   -1.86    3.39
  -6  -6 -10   -4.38    3.33
   6   6  10   -3.89    3.95
  -6  -6 -10   -4.88    4.23
  -6  -6 -11   20.38    6.28
  -6  -7   5   35.98    7.73
   6   7  -5   35.32    7.07
   6   7  -5   36.45    7.62
  -6  -7   4   20.80    6.13
   6   7  -4   10.09    4.56
   6   7  -4   16.57    5.63
  -6  -7   4   23.48    5.43
  -6  -7   3   44.98    7.36
   6   7  -3   52.61    8.12
   6   7  -3   44.55    7.89
  -6  -7   3   45.72    7.01
  -6  -7   2   30.83    5.87
   6   7  -2   22.86    5.54
   6   7  -2   25.63    5.80
  -6  -7   2   21.18    5.15
  -6  -7   1   61.86    8.01
   6   7  -1   56.60    7.74
   6   7  -1   50.77    7.73
  -6  -7   1   42.73    6.42
  -6  -7   0   17.46    4.74
   6   7   0   20.74    5.07
   6   7   0   27.66    5.67
  -6  -7   0   22.55    5.22
  -6  -7  -1   80.94    8.34
   6   7   1   86.73    8.95
   6   7   1   84.37    9.12
  -6  -7  -1   79.35    8.65
  -6  -7  -2   -1.21    2.73
   6   7   2    0.29    2.50
   6   7   2    0.29    3.04
  -6  -7  -2    0.27    3.25
   6   7   3  274.01   15.47
   6   7   3  267.46   15.74
  -6  -7  -3  252.86   15.29
   6   7   4    3.05    3.07
   6   7   4    4.73    2.88
   6   7   4    1.79    3.41
  -6  -7  -4    1.18    2.82
   6   7   5  148.69   11.84
   6   7   5  145.38   11.91
   6   7   5  136.76   11.79
  -6  -7  -5  134.53   11.89
   6   7   6   23.53    5.52
   6   7   6   28.31    6.10
   6   7   6   35.63    6.83
  -6  -7  -6   25.49    5.83
   6   7   7   80.61    9.41
   6   7   7   94.19   10.69
   6   7   7   77.44    9.51
  -6  -7  -7   83.35   10.40
   6   7   8   12.42    4.86
   6   7   8    6.07    3.98
   6   7   8    8.16    4.07
  -6  -7  -8   11.26    5.33
   6   7   9   35.06    7.12
   6   7   9   31.28    6.88
   6   7   9   34.59    8.06
   6   7   9   36.14    6.98
  -6  -7  -9   52.55    8.90
   6   7  10    7.23    4.43
   6   7  10    6.64    3.78
  -6  -7 -10    4.29    3.80
  -6  -8   4   24.07    6.48
   6   8  -4   33.82    7.77
  -6  -8   3   40.66    7.68
   6   8  -3   45.94    7.79
   6   8  -3   43.93    8.50
  -6  -8   2    8.32    3.77
   6   8  -2   18.85    5.50
   6   8  -2   22.68    6.44
  -6  -8   2   27.11    5.70
  -6  -8   1   87.47    9.74
   6   8  -1   77.13    9.85
   6   8  -1   90.47   10.53
  -6  -8   1   71.36    8.58
  -6  -8   0   12.39    4.45
   6   8   0    8.25    3.96
   6   8   0    8.91    4.32
  -6  -8   0   14.59    4.35
  -6  -8  -1   74.05    8.62
   6   8   1   88.48    9.61
   6   8   1   84.96    9.62
  -6  -8  -1   76.95    8.64
  -6  -8  -2   48.68    7.12
   6   8   2   46.83    7.02
   6   8   2   40.34    7.03
  -6  -8  -2   36.76    6.18
  -6  -8  -3   73.66    8.46
   6   8   3   66.97    8.39
   6   8   3   59.40    8.16
  -6  -8  -3   50.25    7.36
   6   8   4   52.92    7.10
   6   8   4   45.89    7.10
   6   8   4   50.95    7.66
  -6  -8  -4   45.50    7.09
   6   8   5   81.67    9.23
   6   8   5   74.53    8.72
   6   8   5   90.72    9.98
  -6  -8  -5   88.58    9.93
   6   8   6   25.09    5.66
   6   8   6   16.07    4.64
   6   8   6   13.09    5.16
  -6  -8  -6   20.33    5.57
   6   8   7   38.66    7.11
   6   8   7   43.22    7.50
   6   8   7   40.87    7.42
  -6  -8  -7   35.32    7.42
   6   8   8    1.93    3.07
   6   8   8    6.53    3.37
   6   8   8    4.66    3.58
  -6  -8  -8    4.41    3.98
   6   8   9   26.53    6.42
   6   8   9   19.52    5.56
   6   8   9   21.25    6.18
  -6  -8  -9   29.90    7.49
   6   8  10    7.94    4.70
  -6  -9   2   13.69    5.01
   6   9  -2   20.15    6.09
  -6  -9   1   14.46    4.71
   6   9  -1   26.21    6.17
   6   9  -1   17.21    5.63
  -6  -9   1   18.53    4.81
  -6  -9   0   27.80    6.27
   6   9   0   33.55    6.91
   6   9   0   20.09    6.11
  -6  -9   0   35.19    6.39
  -6  -9  -1   47.99    7.30
   6   9   1   35.00    6.64
   6   9   1   40.35    7.33
  -6  -9  -1   50.39    7.30
  -6  -9  -2   23.70    5.67
   6   9   2   15.92    4.64
   6   9   2   23.94    5.88
  -6  -9  -2   20.10    5.21
  -6  -9  -3   49.27    7.52
   6   9   3   45.65    7.42
   6   9   3   48.65    7.74
  -6  -9  -3   51.42    7.61
   6   9   4   26.39    5.95
   6   9   4   30.67    6.66
  -6  -9  -4   27.46    6.07
   6   9   5   32.49    6.29
   6   9   5   27.54    5.68
   6   9   5   29.32    6.64
  -6  -9  -5   28.85    5.89
   6   9   6   11.14    4.42
   6   9   6    4.68    3.09
   6   9   6    3.21    2.62
  -6  -9  -6   12.32    5.04
   6   9   7   39.35    7.06
   6   9   7   40.43    7.21
   6   9   7   41.63    7.71
  -6  -9  -7   30.35    6.73
   6   9   8   16.61    5.11
   6   9   8    7.73    3.66
   6   9   8   21.77    5.93
  -6  -9  -8   13.44    5.02
   6   9   9   11.03    4.80
  -6 -10   0   27.64    6.46
  -6 -10   0   14.32    4.53
  -6 -10  -1   25.17    6.03
   6  10   1   29.08    6.43
   6  10   1   25.29    6.63
  -6 -10  -1   27.03    5.71
  -6 -10  -2   13.00    5.30
   6  10   2    4.49    3.76
   6  10   2    4.46    3.32
  -6 -10  -2   12.33    4.16
  -6 -10  -3   28.43    6.21
   6  10   3   28.13    6.45
   6  10   3   29.93    6.90
  -6 -10  -3   24.05    5.60
   6  10   4   13.68    4.97
   6  10   4    7.28    4.74
  -6 -10  -4   14.97    4.89
   6  10   5   27.75    5.91
   6  10   5   14.48    4.39
   6  10   5   17.39    5.36
  -6 -10  -5   24.55    5.86
   6  10   6   12.31    4.57
   6  10   6    7.06    3.66
   6  10   6   -1.60    3.43
  -6 -10  -6   11.80    4.71
   6  10   7    5.61    3.31
   6  10   7    8.31    4.44
  -6 -11  -2   26.84    5.64
  -6 -11  -3   19.29    4.93
  -6 -11  -4   13.04    4.22
   6  11   6   16.97    5.00
  -7   7   4   15.74    7.08
  -7   7   3    6.46    4.39
   7  -7  -3   -0.59    2.03
  -7   7   2   16.01    6.07
   7  -7  -2    5.68    3.75
   7  -7  -1    0.06    2.54
  -7   7   1    3.51    3.33
   7  -7   0   -7.67    3.83
  -7   7   0    3.71    3.66
  -7   7  -1    8.14    4.10
  -7   6   5    5.98    4.91
   7  -6  -5   11.27    4.37
  -7   6   4    2.37    2.89
   7  -6  -4    0.81    3.16
  -7   6   3   15.00    5.25
  -7   6   3    7.29    4.61
   7  -6  -3    8.55    4.15
  -7   6   2   17.61    5.34
  -7   6   2   17.10    6.12
   7  -6  -2    3.91    3.31
   7  -6  -1   -0.30    3.35
  -7   6   1    6.35    3.84
  -7   6   1    3.62    4.22
   7  -6   0   18.61    5.42
  -7   6   0   24.01    5.38
  -7   6   0   33.07    7.43
   7  -6   1   12.67    4.74
  -7   6  -1    3.96    3.83
   7  -6   2   11.52    4.12
  -7   6  -2   11.54    4.40
  -7   6  -3    6.82    3.85
  -7   5   6    5.31    4.14
  -7   5   5   -6.51    3.88
   7  -5  -5    8.72    4.36
  -7   5   5    3.72    4.53
   7  -5  -5    9.27    4.58
  -7   5   4   26.78    7.41
  -7   5   4   17.50    6.16
   7  -5  -4   18.78    5.54
  -7   5   3   11.87    4.91
  -7   5   3   13.68    5.33
   7  -5  -3    2.67    2.86
  -7   5   2   24.42    5.81
  -7   5   2   25.89    7.09
   7  -5  -2   19.30    5.18
   7  -5  -1   12.34    4.16
  -7   5   1   18.94    5.43
  -7   5   1    5.42    4.08
   7  -5   0   29.22    6.22
  -7   5   0   22.84    5.68
  -7   5   0   26.46    6.47
   7  -5   1   19.00    5.19
  -7   5  -1   19.25    5.27
  -7   5  -1   24.98    5.87
   7  -5   2   26.70    6.01
  -7   5  -2   41.17    6.87
  -7   5  -2   46.87    8.08
   7  -5   3   22.48    5.62
  -7   5  -3   18.56    4.46
   7  -5   4   55.64    8.46
  -7   4   6   23.89    7.39
  -7   4   6   29.30    7.75
   7  -4  -6   33.01    6.75
  -7   4   5    1.56    3.44
   7  -4  -5   -0.08    2.38
  -7   4   5    4.53    4.60
  -7   4   4   51.93    8.51
  -7   4   4   49.34    9.01
   7  -4  -4   52.95    7.98
  -7   4   3    4.01    3.60
   7  -4  -3   -2.84    3.54
  -7   4   2   43.95    8.03
  -7   4   2   51.16    8.16
   7  -4  -2   43.34    7.13
   7  -4  -1   20.76    5.31
  -7   4   1   19.85    5.19
  -7   4   1   21.42    5.80
  -7   4   0   90.48    9.91
  -7   4   0   89.63   10.49
   7  -4   0  100.30   10.15
  -7   4   0  107.66   13.03
   7  -4   1   15.00    5.00
  -7   4  -1   14.70    4.35
  -7   4  -1   16.68    4.99
  -7   4  -1   19.48    5.72
   7  -4   2   52.01    7.89
  -7   4  -2   49.35    7.29
  -7   4  -2   37.98    7.05
   7  -4   3    3.69    3.54
  -7   4  -3   -0.62    2.18
  -7   4  -3    4.44    3.11
   7  -4   3    0.01    2.24
   7  -4   4   17.00    5.35
  -7   4  -4   18.89    4.46
  -7   4  -4   24.41    5.83
   7  -4   4   19.89    4.84
   7  -4   5    1.95    2.82
   7  -4   5   -4.78    3.17
   7  -4   6   28.36    6.46
  -7   3   7    5.72    4.10
   7  -3  -6   42.43    7.67
  -7   3   6   35.87    7.87
  -7   3   5    3.45    3.87
   7  -3  -5    6.73    3.55
  -7   3   4   23.16    6.53
  -7   3   4   26.94    6.68
   7  -3  -4   28.63    5.84
  -7   3   3   12.73    5.24
  -7   3   3    7.34    3.79
   7  -3  -3    6.35    3.85
  -7   3   2   76.43    9.64
  -7   3   2   81.10    9.88
   7  -3  -2   79.85    9.10
  -7   3   2   69.84   10.58
   7  -3  -1   -0.08    2.31
  -7   3   1    3.30    3.33
  -7   3   1    1.62    3.19
  -7   3   1    8.57    4.84
  -7   3   0   40.77    6.70
   7  -3   0   66.27    8.20
  -7   3   0   58.20    9.40
   7  -3   1    2.97    2.77
  -7   3  -1    3.14    2.89
   7  -3   1    4.72    2.17
  -7   3  -1    7.49    4.30
  -7   3  -2   71.70    8.20
   7  -3   2   71.98    7.21
  -7   3  -2   79.45   10.19
   7  -3   2   86.36    9.25
   7  -3   3   11.81    4.18
  -7   3  -3   16.37    4.43
  -7   3  -3   13.69    4.55
   7  -3   3   14.06    3.84
  -7   3  -3   14.72    4.53
  -7   3  -4   50.58    6.77
   7  -3   4   44.75    7.34
  -7   3  -4   44.23    7.49
   7  -3   4   53.45    7.35
   7  -3   5    8.08    3.95
  -7   3  -5   11.26    4.30
   7  -3   5   11.53    4.04
   7  -3   6   22.93    5.86
  -7   3  -6   24.17    6.29
   7  -3   6   28.36    6.03
   7  -3   7    8.63    4.43
  -7   2   7   -2.81    3.29
   7  -2  -7   -0.14    2.78
  -7   2   6   34.29    7.63
   7  -2  -6   20.90    5.63
  -7   2   5   -4.03    3.97
   7  -2  -5    3.40    3.52
  -7   2   4   92.10   10.87
   7  -2  -4  107.29   10.75
   7  -2  -4  102.57   10.52
  -7   2   4   72.93   11.13
  -7   2   3    5.66    3.17
  -7   2   3    4.04    4.36
   7  -2  -3   11.08    4.07
  -7   2   2  113.25   11.46
   7  -2  -2   95.47    6.84
   7  -2  -2  112.38   10.52
  -7   2   2  116.33   12.70
   7  -2  -1    1.35    2.94
  -7   2   1    3.18    4.05
  -7   2   0  131.05   11.26
   7  -2   0  127.06    8.00
   7  -2   0  130.24   11.04
  -7   2   0  140.36   13.15
   7  -2   1    3.98    3.37
  -7   2  -1    0.38    2.72
   7  -2   1    6.89    2.87
  -7   2  -1    4.38    3.72
  -7   2  -2   89.76    8.94
   7  -2   2   79.73    7.60
   7  -2   2   83.48    9.06
  -7   2  -2   91.33   10.35
   7  -2   3   12.98    4.48
  -7   2  -3   12.94    3.90
  -7   2  -3   12.39    4.14
   7  -2   3   10.40    3.74
  -7   2  -3   10.72    4.40
  -7   2  -4   60.76    6.85
   7  -2   4   52.70    7.11
  -7   2  -4   74.24    8.95
  -7   2  -4   67.09    8.45
   7  -2   4   71.80    8.70
   7  -2   5   15.89    5.05
  -7   2  -5   11.55    4.62
   7  -2   5   14.37    4.89
   7  -2   6   30.55    6.38
  -7   2  -6   32.94    6.72
   7  -2   6   28.09    6.12
   7  -2   7   18.72    5.90
  -7   2  -7   11.37    4.30
   7  -2   7   15.86    5.27
   7  -1  -7    8.11    4.76
  -7   1   7    2.52    3.79
  -7   1   6   49.00    9.14
   7  -1  -6   55.97    8.88
  -7   1   5    5.22    4.19
   7  -1  -5    2.28    3.55
  -7   1   5    0.48    4.43
  -7   1   4  106.06   11.24
   7  -1  -4   93.86   10.19
   7  -1  -4   87.24    9.73
  -7   1   4  102.26   12.30
  -7   1   3    0.13    2.36
  -7   1   3    1.36    3.34
   7  -1  -3    0.75    3.20
  -7   1   2  139.01   12.39
   7  -1  -2  132.43    8.37
   7  -1  -2  139.61   11.40
  -7   1   2  145.89   13.49
   7  -1  -1    7.53    3.44
   7  -1  -1    6.36    2.47
   7  -1  -1    5.67    2.80
  -7   1   1   16.28    5.06
   7  -1   0  228.55   10.84
   7  -1   0  226.91   13.79
  -7   1   0  237.27   16.20
   7  -1   1    8.97    3.50
   7  -1   1    6.33    2.80
  -7   1  -1   12.63    4.78
  -7   1  -2  124.81   10.13
   7  -1   2  125.65    9.44
  -7   1  -2  133.68   10.62
   7  -1   2  140.72   11.25
  -7   1  -2  140.06   12.09
   7  -1   3    0.64    2.35
  -7   1  -3    6.55    3.06
  -7   1  -3    1.47    2.76
   7  -1   3    5.75    3.21
  -7   1  -3    8.31    3.84
  -7   1  -4  103.03    8.45
   7  -1   4   75.25    8.17
  -7   1  -4  100.67   10.06
   7  -1   4  107.14   10.29
  -7   1  -4   99.21   10.27
   7  -1   5    2.01    3.24
  -7   1  -5    1.86    2.59
   7  -1   5    1.61    2.90
  -7   1  -5    6.07    3.21
   7  -1   6   75.15    9.38
  -7   1  -6   66.81    8.93
   7  -1   6   65.49    9.07
   7  -1   7    7.26    3.48
  -7   1  -7    9.49    3.98
   7  -1   7    3.50    4.00
   7  -1   8   31.85    7.85
   7   0  -7    0.51    2.72
  -7   0   7    7.58    4.09
  -7   0   6   64.22   10.08
   7   0  -6   70.79   10.11
  -7   0   5   -1.44    2.95
   7   0  -5    3.12    3.23
  -7   0   5    2.93    3.27
  -7   0   4  132.25   12.37
   7   0  -4  122.61   11.32
  -7   0   4  122.12   12.98
  -7   0   3    1.25    2.27
   7   0  -3    8.01    2.41
   7   0  -3    2.76    3.00
  -7   0   3   -1.07    3.35
   7   0  -3    1.20    2.85
   7   0  -2  155.01    8.56
   7   0  -2  161.00    9.45
   7   0  -2  173.49   12.32
  -7   0   2  180.73   14.38
   7   0  -1   33.84    4.45
   7   0  -1   27.58    4.37
  -7   0   1   38.43    6.98
   7   0  -1   38.80    6.00
   7   0   0  116.57    8.15
   7   0   0  117.31    8.81
   7   0   0  114.53    9.84
  -7   0   0  127.27   11.66
   7   0   1   15.90    4.39
   7   0   1   14.43    3.53
  -7   0  -1   10.50    4.44
   7   0   2  164.91   10.44
  -7   0  -2  121.13    9.84
   7   0   2  149.00   11.25
  -7   0  -2  159.54   12.55
   7   0   3   10.70    4.05
  -7   0  -3    9.94    3.28
   7   0   3    9.90    3.26
  -7   0  -3   12.23    4.44
  -7   0  -4   99.33    8.30
   7   0   4   90.18    8.95
  -7   0  -4   90.18    9.04
   7   0   4  103.19    9.81
  -7   0  -4   88.02    9.48
   7   0   5    8.60    3.90
  -7   0  -5    3.45    2.07
  -7   0  -5    4.65    3.07
   7   0   5    6.58    3.27
  -7   0  -5    6.19    3.46
   7   0   6   68.15    8.92
  -7   0  -6   63.74    8.42
  -7   0  -6   62.23    8.40
   7   0   6   61.02    8.34
   7   0   7    6.22    3.36
  -7   0  -7    8.46    4.00
   7   0   7    9.12    4.25
   7   0   8   43.76    8.04
  -7   0  -8   27.61    6.39
   7   0   8   31.32    7.53
   7   1  -7    8.16    4.01
  -7  -1   7   -2.61    2.23
  -7  -1   6   48.83    7.88
  -7  -1   6   48.20    8.56
   7   1  -6   51.49    8.63
  -7  -1   6   49.98    9.26
   7   1  -5   13.49    4.45
  -7  -1   5   15.20    5.20
  -7  -1   5    6.41    4.96
  -7  -1   4   71.14    9.23
   7   1  -4   75.61    9.08
  -7  -1   4   82.45   10.55
   7   1  -3   18.84    3.54
  -7  -1   3   19.03    5.13
   7   1  -3   19.59    3.53
   7   1  -3   26.70    5.50
  -7  -1   3   19.13    5.15
   7   1  -3   25.55    5.38
   7   1  -2  152.36    9.11
   7   1  -2  133.24    8.95
   7   1  -2  155.77   11.55
   7   1  -2  155.83   11.61
  -7  -1   2  157.16   13.21
   7   1  -1    2.83    2.29
   7   1  -1    1.39    2.29
  -7  -1   1    8.47    3.74
   7   1  -1    1.34    2.84
   7   1   0  141.96    9.14
   7   1   0  140.21    9.73
   7   1   0  152.18   10.95
  -7  -1   0  155.21   12.43
   7   1   1    0.24    2.64
   7   1   1   -0.11    2.47
   7   1   1    0.27    2.81
   7   1   2  138.52    9.76
   7   1   2  153.90   10.99
  -7  -1  -2  153.68   12.22
   7   1   3    5.27    3.33
   7   1   3   -2.30    3.24
  -7  -1  -3    0.07    2.25
   7   1   3    1.88    2.25
  -7  -1  -3   -3.14    3.17
   7   1   4  168.23   11.90
  -7  -1  -4  148.25   11.18
   7   1   4  162.68   11.67
  -7  -1  -4  167.43   12.85
   7   1   5    2.36    3.04
  -7  -1  -5    2.34    2.30
  -7  -1  -5   -4.10    2.86
   7   1   5    3.54    2.99
  -7  -1  -5    2.23    3.24
   7   1   6   84.70    9.46
  -7  -1  -6   97.14   10.08
  -7  -1  -6   92.71   10.01
   7   1   6  105.58   10.35
   7   1   7    2.06    3.04
  -7  -1  -7    0.54    2.87
   7   1   7    0.21    2.84
  -7  -1  -7    7.94    3.97
   7   1   8   43.34    7.35
  -7  -1  -8   40.08    7.56
   7   1   8   30.28    7.07
  -7  -2   7    9.28    4.01
  -7  -2   7    3.11    3.05
  -7  -2   6   46.83    8.07
  -7  -2   6   58.94    8.66
   7   2  -6   51.14    8.63
  -7  -2   6   62.02   10.08
   7   2  -5    7.36    3.48
  -7  -2   5    9.99    4.13
  -7  -2   5    1.72    3.33
  -7  -2   4  113.56   11.15
   7   2  -4   88.49    7.82
   7   2  -4   97.94   10.46
  -7  -2   4  119.52   12.59
   7   2  -3    8.40    2.96
   7   2  -3    7.15    2.68
   7   2  -3    5.71    3.49
  -7  -2   3    6.49    4.11
  -7  -2   3    0.21    2.43
   7   2  -2  136.11    9.29
   7   2  -2  113.03    8.68
   7   2  -2  127.80   10.42
   7   2  -2  123.02   10.22
  -7  -2   2  113.00   11.17
   7   2  -1   19.88    4.05
   7   2  -1   12.35    3.75
   7   2  -1   20.70    4.77
  -7  -2   1   25.61    5.51
   7   2  -1   19.08    4.41
   7   2   0  176.97   10.59
   7   2   0  167.17   10.78
   7   2   0  176.98   11.49
  -7  -2   0  167.37   12.84
   7   2   1    1.59    2.35
   7   2   1    0.38    2.55
   7   2   1    3.78    3.04
  -7  -2  -1    2.21    3.06
   7   2   2  173.88   11.08
   7   2   2  190.14   12.12
   7   2   2  188.52   11.85
  -7  -2  -2  183.22   13.23
   7   2   3    2.56    2.03
   7   2   3   -0.53    2.47
  -7  -2  -3    1.12    1.89
  -7  -2  -3    1.04    3.49
   7   2   4  130.13   10.49
   7   2   4  133.69   10.72
  -7  -2  -4  117.95    9.55
   7   2   4  119.38    9.73
  -7  -2  -4  134.75   11.70
   7   2   5    4.97    3.29
   7   2   5   -0.62    2.96
  -7  -2  -5    0.63    2.17
   7   2   5    0.96    3.18
  -7  -2  -5    6.80    3.65
   7   2   6  166.08   12.94
  -7  -2  -6  179.25   12.97
   7   2   6  183.26   13.03
  -7  -2  -6  185.17   14.15
   7   2   7    6.26    3.86
  -7  -2  -7    2.09    2.62
   7   2   7    4.03    3.77
  -7  -2  -7    2.32    3.17
   7   2   8   96.19   11.09
  -7  -2  -8  103.74   11.66
  -7  -2  -8  101.88   11.37
   7   2   8  102.52   10.95
   7   2   9    0.24    1.83
  -7  -2  -9    2.65    3.10
  -7  -3   7   11.66    5.10
  -7  -3   7    7.47    3.92
  -7  -3   6   47.00    8.16
  -7  -3   6   47.46    7.85
   7   3  -6   39.88    8.22
  -7  -3   6   49.46    8.67
   7   3  -5    9.44    4.47
  -7  -3   5   19.69    5.33
  -7  -3   5   21.16    5.86
   7   3  -4   86.72    8.44
  -7  -3   4   82.40    9.52
   7   3  -4   68.01    7.43
   7   3  -4   71.03    9.19
  -7  -3   4   73.93    9.77
  -7  -3   3    5.91    2.30
   7   3  -3   11.55    3.32
   7   3  -3   11.67    3.63
   7   3  -3   10.05    3.92
  -7  -3   3   17.13    5.72
  -7  -3   2  121.79    8.06
   7   3  -2  119.78    9.30
   7   3  -2  115.96    9.20
   7   3  -2  125.36   10.45
   7   3  -2  123.05   10.16
  -7  -3   2  113.23   11.06
  -7  -3   1   27.65    4.07
   7   3  -1   36.76    5.42
   7   3  -1   31.38    5.22
   7   3  -1   38.24    5.85
  -7  -3   1   29.36    6.07
   7   3  -1   29.58    5.10
   7   3   0  195.88   11.65
   7   3   0  204.63   12.28
   7   3   0  211.35   12.17
   7   3   0  207.06   12.14
  -7  -3   0  201.33   13.88
   7   3   1   16.99    3.96
   7   3   1   15.49    3.74
   7   3   1   15.75    4.20
  -7  -3  -1   21.66    5.43
   7   3   2  158.81   10.91
   7   3   2  195.02   12.52
   7   3   2  200.37   11.84
  -7  -3  -2  190.42   13.54
   7   3   3   11.83    3.66
   7   3   3    7.01    3.39
   7   3   3   15.03    4.43
  -7  -3  -3    6.35    2.63
  -7  -3  -3    9.56    3.95
   7   3   4  262.35   14.71
  -7  -3  -4  248.49   13.09
   7   3   4  250.11   13.50
  -7  -3  -4  275.62   16.39
   7   3   5    9.96    3.88
   7   3   5   13.95    4.71
  -7  -3  -5    9.22    3.24
   7   3   5   12.91    4.21
  -7  -3  -5   14.25    5.25
   7   3   6   65.01    8.43
   7   3   6   53.79    7.55
  -7  -3  -6   36.27    5.87
   7   3   6   59.88    7.44
  -7  -3  -6   53.22    8.08
   7   3   7   22.39    5.11
  -7  -3  -7   17.94    4.89
   7   3   7   24.07    5.92
  -7  -3  -7   23.01    6.22
   7   3   8   41.43    7.19
   7   3   8   37.38    7.78
  -7  -3  -8   31.55    6.65
   7   3   8   40.37    7.23
  -7  -3  -8   41.82    7.98
   7   3   9    2.07    2.61
   7   3   9   12.73    4.99
  -7  -3  -9    2.82    3.75
   7   3   9    4.64    4.03
  -7  -3  -9    0.98    3.32
  -7  -4   6   28.00    6.66
   7   4  -6   44.88    8.63
  -7  -4   6   41.56    7.90
   7   4  -5   41.84    6.88
   7   4  -5   32.96    7.13
  -7  -4   5   37.22    6.91
  -7  -4   5   34.18    7.46
  -7  -4   4   50.56    6.65
   7   4  -4   51.95    7.27
   7   4  -4   48.65    6.89
   7   4  -4   56.06    8.58
  -7  -4   4   50.07    7.62
  -7  -4   4   52.54    8.28
  -7  -4   3   40.24    5.87
   7   4  -3   55.59    7.12
   7   4  -3   47.76    6.71
   7   4  -3   46.92    7.36
  -7  -4   3   52.71    8.12
  -7  -4   2   76.95    7.21
   7   4  -2   89.98    8.70
   7   4  -2   67.33    7.58
   7   4  -2   79.48    8.64
  -7  -4   2   90.36    9.99
  -7  -4   1    4.80    2.34
   7   4  -1    0.65    2.48
   7   4  -1    1.09    2.44
   7   4  -1    3.46    2.51
  -7  -4   1    6.88    3.87
   7   4  -1    2.97    2.74
  -7  -4   0   89.87    7.28
   7   4   0   81.01    8.08
   7   4   0   93.89    8.75
   7   4   0   78.66    7.42
   7   4   0   92.02    8.02
  -7  -4   0   85.99    9.42
   7   4   1   14.96    3.96
   7   4   1    6.99    3.74
   7   4   1   13.23    3.19
  -7  -4  -1    8.86    4.02
   7   4   1   10.21    3.25
   7   4   2  122.46    9.87
   7   4   2  144.93   11.23
   7   4   2  145.94    9.80
  -7  -4  -2  140.35   11.86
   7   4   3   19.00    4.12
   7   4   3   22.92    4.91
   7   4   3   18.40    4.89
  -7  -4  -3   24.07    4.04
  -7  -4  -3   17.55    5.02
   7   4   4   82.76    8.75
   7   4   4   87.22    9.25
  -7  -4  -4   84.25    7.44
   7   4   4   85.23    7.84
  -7  -4  -4   96.81   10.26
   7   4   5   16.76    3.96
   7   4   5   21.23    5.03
   7   4   5   22.66    5.55
  -7  -4  -5   13.22    3.37
  -7  -4  -5   21.22    5.53
   7   4   6  105.75   10.41
   7   4   6  102.02   10.39
  -7  -4  -6  106.94    9.46
   7   4   6   94.80    8.83
  -7  -4  -6  107.00   11.16
   7   4   7    4.45    3.34
   7   4   7   -5.42    3.68
   7   4   7    3.24    3.75
  -7  -4  -7   -0.36    1.87
   7   4   7    0.73    2.70
  -7  -4  -7   -0.12    3.04
   7   4   8   38.70    6.50
   7   4   8   40.22    7.18
   7   4   8   54.79    9.31
  -7  -4  -8   41.57    7.13
   7   4   8   47.98    7.91
  -7  -4  -8   56.93    9.08
   7   4   9    1.07    2.46
   7   4   9    5.34    3.97
   7   4   9    1.55    2.97
  -7  -4  -9   -8.14    3.94
   7   4   9    5.02    4.45
  -7  -4  -9   -1.63    3.05
   7   4  10   23.22    6.07
  -7  -4 -10   22.66    5.98
   7   5  -6   11.32    5.33
  -7  -5   6   14.22    4.92
  -7  -5   5   -1.52    3.46
   7   5  -5    6.68    3.83
  -7  -5   5    3.36    3.98
  -7  -5   4   16.62    4.79
   7   5  -4   21.01    5.07
   7   5  -4   17.80    5.28
  -7  -5   4   15.10    4.71
   7   5  -4   20.16    5.86
  -7  -5   4   33.35    7.16
  -7  -5   3    2.07    2.57
   7   5  -3    7.53    3.46
  -7  -5   3    7.89    3.14
   7   5  -3    3.38    3.00
   7   5  -3    6.10    3.50
  -7  -5   3    3.11    3.39
  -7  -5   2   66.38    7.45
   7   5  -2   52.20    7.30
   7   5  -2   63.42    7.94
   7   5  -2   60.21    7.92
  -7  -5   2   64.90    8.77
  -7  -5   1   28.54    4.94
   7   5  -1   17.57    4.23
   7   5  -1   30.71    5.69
   7   5  -1   26.92    5.20
  -7  -5   1   26.07    5.79
  -7  -5   0  134.13    9.60
   7   5   0  137.11   10.84
   7   5   0  144.32   11.36
   7   5   0  129.76    9.74
   7   5   0  142.15    9.70
  -7  -5   0  143.73   12.14
  -7  -5  -1   26.07    4.49
   7   5   1   22.54    4.98
   7   5   1   16.04    4.71
   7   5   1   20.84    3.94
  -7  -5  -1   24.38    5.45
   7   5   1   22.09    4.06
   7   5   2  157.67   11.52
   7   5   2  162.92   12.08
   7   5   2  149.69    9.10
   7   5   2  156.19    9.70
  -7  -5  -2  164.79   12.93
   7   5   3   26.24    4.27
   7   5   3   29.84    5.50
   7   5   3   23.98    5.34
  -7  -5  -3   34.43    6.30
   7   5   4  101.48    9.82
   7   5   4  109.57   10.51
  -7  -5  -4   94.69    7.38
   7   5   4  102.96    8.16
  -7  -5  -4  108.00   10.93
   7   5   5   23.79    4.42
   7   5   5   23.87    5.71
   7   5   5   17.35    5.13
  -7  -5  -5   13.95    3.60
  -7  -5  -5   20.73    5.38
   7   5   6   87.63   10.23
   7   5   6   92.70    9.97
   7   5   6   88.77   10.23
  -7  -5  -6   89.93    8.23
   7   5   6   88.83    8.15
  -7  -5  -6   72.17    9.56
   7   5   7    5.39    3.22
   7   5   7    3.49    3.87
   7   5   7   12.23    4.99
   7   5   7    6.42    4.21
  -7  -5  -7    5.61    2.95
   7   5   7    7.89    3.94
  -7  -5  -7    6.33    3.64
   7   5   8   37.34    6.32
   7   5   8   41.50    7.60
   7   5   8   40.68    8.04
   7   5   8   42.71    8.13
  -7  -5  -8   51.83    7.50
   7   5   8   43.92    7.57
  -7  -5  -8   36.11    7.72
   7   5   9    5.88    3.25
   7   5   9    4.47    4.92
   7   5   9    5.74    3.77
  -7  -5  -9    3.15    3.04
   7   5   9    3.48    4.11
  -7  -5  -9   -1.72    3.26
   7   5  10   16.64    4.62
  -7  -5 -10   24.96    6.32
  -7  -6   5   22.90    5.92
   7   6  -5   16.65    4.92
   7   6  -5   27.21    6.88
  -7  -6   5    6.60    3.73
  -7  -6   4   45.67    7.19
   7   6  -4   53.81    8.49
   7   6  -4   39.57    7.27
  -7  -6   4   34.78    6.92
  -7  -6   3   16.10    4.85
  -7  -6   3   21.16    4.92
   7   6  -3   17.89    4.49
   7   6  -3   17.30    5.29
  -7  -6   3   25.35    5.90
  -7  -6   2   64.78    7.91
   7   6  -2   58.29    7.99
   7   6  -2   64.14    8.56
  -7  -6   2   73.82    9.38
  -7  -6   1   26.96    5.46
   7   6  -1   30.11    5.88
   7   6  -1   35.10    6.29
  -7  -6   1   34.91    6.79
  -7  -6   0   67.87    7.62
   7   6   0   73.19    8.57
   7   6   0   72.10    8.63
  -7  -6   0   72.44    8.79
  -7  -6  -1   32.97    5.23
   7   6   1   42.69    6.62
   7   6   1   38.35    6.61
  -7  -6  -1   44.87    7.32
   7   6   2   91.33    9.35
   7   6   2   84.84    9.36
   7   6   2   97.38    7.44
  -7  -6  -2   85.74    9.77
   7   6   3   13.99    3.10
   7   6   3   15.66    4.54
   7   6   3   21.14    5.45
  -7  -6  -3   25.03    5.94
   7   6   4  127.10   11.27
   7   6   4  135.68   12.12
   7   6   4  128.27    8.70
  -7  -6  -4  134.86   12.10
   7   6   5   31.57    4.64
   7   6   5   25.37    5.73
   7   6   5   26.08    5.93
  -7  -6  -5   28.32    6.18
   7   6   6   37.98    5.21
   7   6   6   28.24    5.96
   7   6   6   29.66    6.22
   7   6   6   44.85    7.56
  -7  -6  -6   51.39    8.25
   7   6   7   26.49    6.11
   7   6   7   20.36    5.94
   7   6   7   24.28    5.78
  -7  -6  -7   21.20    5.76
   7   6   8   31.41    6.88
   7   6   8   32.32    7.14
   7   6   8   41.17    7.29
  -7  -6  -8   31.65    5.69
   7   6   8   28.66    6.25
  -7  -6  -8   39.37    8.04
   7   6   9    4.29    4.36
  -7  -6  -9    2.52    1.99
  -7  -6  -9   -2.31    2.77
  -7  -7   4   17.33    5.40
   7   7  -4   20.44    6.11
  -7  -7   4   19.26    5.04
  -7  -7   3   20.47    5.12
   7   7  -3   23.70    5.92
   7   7  -3   28.64    6.45
  -7  -7   3   26.51    5.96
  -7  -7   2   31.05    6.45
   7   7  -2   36.20    6.72
   7   7  -2   37.37    7.32
  -7  -7   2   42.42    7.21
  -7  -7   1   34.19    6.06
   7   7  -1   28.27    5.91
   7   7  -1   32.42    6.43
  -7  -7   1   23.30    5.60
  -7  -7   0   78.41    8.82
   7   7   0   74.76    9.10
   7   7   0   81.88    9.55
  -7  -7   0   74.78    9.30
  -7  -7  -1   46.94    6.89
   7   7   1   49.83    7.51
   7   7   1   47.45    7.42
  -7  -7  -1   47.81    7.17
  -7  -7  -2   31.12    5.98
   7   7   2   25.41    5.34
   7   7   2   32.37    6.37
  -7  -7  -2   32.98    6.49
   7   7   3  111.32   10.72
   7   7   3  100.05   10.66
  -7  -7  -3   98.88   10.67
   7   7   4   18.20    4.75
   7   7   4   12.41    4.74
  -7  -7  -4    8.46    3.95
   7   7   5   19.17    4.92
   7   7   5   19.65    5.73
  -7  -7  -5   18.37    5.41
   7   7   6   32.05    6.41
   7   7   6   40.74    7.48
   7   7   6   34.95    7.15
  -7  -7  -6   34.95    7.35
   7   7   7    7.34    4.24
   7   7   7    4.73    3.61
   7   7   7    4.17    3.41
  -7  -7  -7    8.87    5.02
   7   7   8   36.68    7.35
   7   7   8   30.19    7.19
   7   7   8   25.44    6.57
  -7  -7  -8   30.34    7.25
  -7  -8   2    8.05    4.18
   7   8  -2   21.29    5.71
   7   8  -2   27.24    6.79
  -7  -8   2   16.99    5.25
  -7  -8   1   33.33    6.22
   7   8  -1   40.94    7.23
   7   8  -1   38.43    7.48
  -7  -8   1   33.75    6.36
  -7  -8   0   10.36    4.08
   7   8   0   14.96    4.90
   7   8   0    9.31    4.78
  -7  -8   0    4.17    3.25
  -7  -8  -1   38.95    6.66
   7   8   1   41.44    7.32
   7   8   1   39.58    7.12
  -7  -8  -1   40.99    7.11
  -7  -8  -2   28.92    5.95
   7   8   2   34.17    6.69
   7   8   2   31.68    6.51
  -7  -8  -2   31.01    6.52
   7   8   3    4.90    3.35
   7   8   3    8.94    4.50
  -7  -8  -3    9.85    4.36
   7   8   4   40.01    6.85
   7   8   4   31.81    6.70
  -7  -8  -4   37.44    7.04
   7   8   5   13.25    4.82
   7   8   5   15.58    4.75
  -7  -8  -5   16.66    5.30
   7   8   6   28.19    6.54
   7   8   6   25.49    6.14
   7   8   6   28.65    6.69
  -7  -8  -6   23.84    5.91
   7   8   7   15.55    5.17
   7   8   7    8.99    4.57
   7   8   7    6.44    4.14
  -7  -8  -7    8.69    4.55
  -7  -9   1   13.89    4.63
  -7  -9   0   19.10    5.31
  -7  -9   0   26.21    5.04
  -7  -9  -1   15.82    5.47
   7   9   1    9.09    4.12
  -7  -9  -1   18.73    5.24
  -7  -9  -2   12.93    4.31
   7   9   2   17.63    4.88
   7   9   2   23.10    5.96
  -7  -9  -2   17.44    5.14
   7   9   3   20.87    5.35
   7   9   3   21.36    6.13
  -7  -9  -3   20.09    5.25
   7   9   4   33.15    6.53
   7   9   4   22.50    6.15
  -7  -9  -4   14.04    4.97
   7   9   5   15.03    5.47
   7   9   5    7.04    4.15
  -7  -9  -5   16.93    5.23
   7   9   6   11.55    3.99
   7   9   6   19.10    6.21
  -8   6   1   14.15    6.25
  -8   5   2   -0.27    2.21
  -8   5   1   22.49    6.01
  -8   5   1   19.94    6.05
  -8   5   0    1.36    2.54
  -8   5   0    2.77    3.13
  -8   5  -1   17.81    5.40
  -8   5  -1   15.22    5.34
  -8   5  -2    4.03    3.13
  -8   5  -3   -4.43    3.10
  -8   4   3   16.27    5.68
  -8   4   3   19.45    6.63
   8  -4  -3   18.31    5.40
  -8   4   2    7.71    4.23
   8  -4  -2    5.72    3.77
  -8   4   2   -0.10    2.24
   8  -4  -1   24.72    6.04
  -8   4   1   15.56    5.32
  -8   4   1   26.13    6.78
   8  -4   0   -3.30    3.52
  -8   4   0    1.54    3.43
  -8   4   0    3.17    3.34
   8  -4   1    8.02    4.20
  -8   4  -1    8.35    3.79
  -8   4  -1    9.54    4.85
  -8   4  -1   17.20    5.87
  -8   4  -2    4.51    3.33
  -8   4  -2    4.39    3.58
  -8   4  -3   26.31    5.79
  -8   3   4   11.03    4.76
  -8   3   4   -4.95    4.34
   8  -3  -4   -2.33    4.07
   8  -3  -4    5.87    3.58
  -8   3   3   40.32    7.73
  -8   3   3   45.18    8.63
   8  -3  -3   41.00    7.46
  -8   3   2    1.49    3.22
  -8   3   2    4.92    3.91
  -8   3   2    1.51    3.38
   8  -3  -2    0.88    2.83
   8  -3  -1   39.60    7.37
  -8   3   1   46.16    7.79
  -8   3   1   48.08    8.53
  -8   3   1   40.93    8.88
   8  -3   0   -1.54    3.68
  -8   3   0    2.92    3.67
  -8   3   0    3.31    3.37
  -8   3   0    0.07    3.13
   8  -3   1   37.46    6.99
  -8   3  -1   31.50    6.33
  -8   3  -1   50.22    9.18
   8  -3   2    1.45    3.06
  -8   3  -2    0.55    3.00
  -8   3  -2    0.39    4.54
   8  -3   3   21.77    5.83
  -8   3  -3   22.44    5.27
   8  -3   4    1.44    2.23
   8  -3   5   30.52    5.92
   8  -2  -4   -0.15    2.81
  -8   2   4    0.47    3.63
   8  -2  -4    4.12    3.48
  -8   2   3   33.85    7.48
  -8   2   3   35.34    8.46
   8  -2  -3   34.15    6.90
  -8   2   2   -0.18    3.05
  -8   2   2    2.89    3.86
   8  -2  -2    1.95    3.30
  -8   2   1   33.85    7.03
  -8   2   1   33.92    6.90
  -8   2   1   34.55    7.95
   8  -2  -1   36.60    6.91
   8  -2   0   -0.15    3.06
  -8   2   0   -4.26    3.70
  -8   2   0    5.77    4.30
  -8   2  -1   60.78    8.44
   8  -2   1   59.58    8.19
  -8   2  -1   51.42    9.18
   8  -2   2    1.25    2.77
  -8   2  -2    1.14    3.06
  -8   2  -2   -7.90    4.44
   8  -2   3   52.92    7.99
  -8   2  -3   42.91    6.67
   8  -2   3   52.56    7.12
  -8   2  -3   45.47    8.45
   8  -2   4    1.44    3.64
  -8   2  -4    2.18    3.10
   8  -2   4   -1.25    2.29
   8  -2   5   32.90    6.98
  -8   2  -5   31.03    6.48
   8  -2   5   32.24    6.43
   8  -2   6   -1.95    3.18
  -8   1   5   25.08    6.87
   8  -1  -5   35.55    7.16
  -8   1   4    1.44    2.91
   8  -1  -4    2.33    3.31
  -8   1   4    0.30    2.83
   8  -1  -4    8.50    4.07
   8  -1  -3   56.75    8.32
  -8   1   3   44.84    8.05
   8  -1  -3   48.04    7.97
  -8   1   3   45.58    8.95
  -8   1   2    2.72    2.88
  -8   1   2    4.89    4.36
   8  -1  -2   -2.26    3.35
   8  -1  -1   35.51    5.29
  -8   1   1   37.83    7.35
   8  -1  -1   48.95    7.31
   8  -1   0   12.55    4.45
   8  -1   0   11.87    3.73
  -8   1   0    9.96    4.84
   8  -1   1   39.06    6.79
   8  -1   1   45.93    5.79
  -8   1  -1   35.92    7.57
   8  -1   2   -1.28    2.81
  -8   1  -2    3.40    2.60
   8  -1   2    3.90    2.18
  -8   1  -2    2.41    4.04
   8  -1   3   46.98    7.59
  -8   1  -3   50.76    6.96
   8  -1   3   56.13    7.19
   8  -1   3   70.01    7.94
  -8   1  -3   56.51    8.79
   8  -1   4    4.76    3.43
  -8   1  -4    3.68    2.30
  -8   1  -4    0.39    2.31
   8  -1   4    6.77    3.23
  -8   1  -4   -1.41    3.53
   8  -1   5   50.58    8.17
  -8   1  -5   33.59    6.86
   8  -1   5   39.63    6.87
  -8   1  -6    3.65    3.86
   8  -1   6    4.54    3.62
  -8   0   5   14.10    5.29
   8   0  -5   17.66    5.74
  -8   0   5   18.04    5.96
  -8   0   4    9.69    4.58
   8   0  -4   12.66    5.22
  -8   0   4    1.99    3.66
  -8   0   3   32.08    6.60
   8   0  -3   34.22    6.75
  -8   0   3   23.94    6.72
   8   0  -3   30.13    6.33
  -8   0   2    6.43    4.14
  -8   0   2   -4.57    4.13
   8   0  -2    2.61    3.48
   8   0  -1   81.92    7.73
   8   0  -1   83.81    9.57
  -8   0   1   91.21   11.14
   8   0   0    6.38    3.94
   8   0   0   11.42    3.09
   8   0   0   10.36    3.50
  -8   0   0   14.72    5.08
   8   0   1   90.38    8.15
   8   0   1   93.02    9.80
  -8   0  -1   86.28   10.71
   8   0   2    6.09    3.68
   8   0   2    3.83    2.99
  -8   0  -2    7.99    4.99
  -8   0  -3   83.58    8.87
   8   0   3   91.59    9.06
  -8   0  -3   91.62    9.43
   8   0   3   82.30    9.22
  -8   0  -3   83.47   10.46
   8   0   4    6.17    3.70
  -8   0  -4    5.63    2.80
   8   0   4   12.13    4.30
  -8   0  -4    5.18    2.94
   8   0   4    6.53    3.50
  -8   0  -4    6.17    3.45
   8   0   5   57.53    7.91
  -8   0  -5   53.47    7.99
   8   0   5   59.36    8.55
  -8   0  -5   54.86    8.80
   8   0   6    9.08    4.16
  -8   0  -6   11.47    4.26
   8   0   6    2.64    3.04
   8   0   7   38.71    7.64
  -8  -1   5   26.77    6.32
   8   1  -5   27.16    6.82
  -8  -1   5   26.10    7.15
  -8  -1   4    8.61    4.17
   8   1  -4   -0.30    2.64
  -8  -1   4    0.67    3.32
  -8  -1   3   61.70    8.85
   8   1  -3   56.30    7.99
   8   1  -3   66.37    8.78
  -8  -1   3   57.07    9.65
   8   1  -2    6.92    2.97
   8   1  -2    4.44    3.24
  -8  -1   2   11.70    5.15
   8   1  -2    9.84    4.06
   8   1  -1   71.13    6.89
   8   1  -1   68.99    7.41
   8   1  -1   84.49    9.47
  -8  -1   1   65.90    9.45
   8   1   0   36.97    6.50
   8   1   0   40.47    5.58
   8   1   0   36.27    5.71
  -8  -1   0   43.56    7.73
   8   1   1  101.44    8.70
   8   1   1  103.95    9.31
   8   1   1  103.44   10.07
  -8  -1  -1  104.92   11.65
   8   1   2   15.08    4.71
   8   1   2    8.72    3.69
  -8  -1  -2   15.17    5.31
   8   1   3   50.17    6.83
  -8  -1  -3   69.29    8.01
   8   1   3   64.98    8.27
  -8  -1  -3   65.72    9.03
   8   1   4   10.16    3.91
   8   1   4    3.46    3.15
  -8  -1  -4    4.98    3.21
   8   1   4    6.01    3.54
  -8  -1  -4    8.39    4.30
   8   1   5   45.41    7.23
   8   1   5   65.71    8.47
  -8  -1  -5   44.95    7.13
   8   1   5   42.27    6.97
  -8  -1  -5   52.99    8.85
   8   1   6    2.69    3.43
  -8  -1  -6   -1.24    2.81
   8   1   6    1.73    2.56
  -8  -1  -6   -7.87    4.49
   8   1   7   44.00    7.84
  -8  -1  -7   48.22    7.96
   8   1   7   38.82    7.27
   8   2  -5   31.15    6.58
  -8  -2   5   20.77    5.68
  -8  -2   4   15.19    5.34
   8   2  -4   20.71    5.88
  -8  -2   4    7.22    4.52
   8   2  -3   49.36    7.65
  -8  -2   3   45.90    8.34
  -8  -2   3   55.33    8.41
   8   2  -2   14.05    3.73
   8   2  -2   22.85    4.96
  -8  -2   2    9.30    5.07
   8   2  -2   11.09    4.12
   8   2  -1   62.40    6.89
   8   2  -1   63.58    7.30
   8   2  -1   82.19    8.87
   8   2  -1   71.63    8.63
  -8  -2   1   64.07    9.23
   8   2   0   20.86    4.35
   8   2   0   14.50    4.03
  -8  -2   0   28.20    6.14
   8   2   0   15.10    4.41
   8   2   1   80.44    8.10
   8   2   1   74.14    8.33
   8   2   1   71.34    8.41
  -8  -2  -1   70.36    9.52
   8   2   2   14.30    4.50
   8   2   2   16.61    4.25
   8   2   2   10.87    4.63
  -8  -2  -2   15.35    5.51
   8   2   3   67.21    7.76
   8   2   3   77.95    9.05
   8   2   3   93.01    9.32
  -8  -2  -3   82.06   10.16
   8   2   4   17.33    4.87
   8   2   4   22.97    5.12
  -8  -2  -4   15.86    4.29
  -8  -2  -4   16.55    5.40
   8   2   5   55.16    7.95
   8   2   5   43.21    7.16
  -8  -2  -5   40.49    6.53
   8   2   5   53.63    7.67
  -8  -2  -5   52.57    8.36
   8   2   6    9.77    3.69
   8   2   6    9.70    4.23
  -8  -2  -6   10.82    4.05
   8   2   6    5.61    3.46
  -8  -2  -6    5.05    3.22
   8   2   7   13.33    4.54
  -8  -2  -7    4.89    3.19
   8   2   7    6.17    3.98
  -8  -2  -7    4.99    4.28
   8   3  -5   20.73    5.67
  -8  -3   5   29.22    6.47
  -8  -3   4   21.12    5.38
   8   3  -4   12.12    4.56
  -8  -3   4   19.77    5.96
  -8  -3   3   31.94    6.50
   8   3  -3   37.48    6.98
  -8  -3   3   38.88    7.60
   8   3  -2   17.11    4.19
   8   3  -2   13.55    4.02
   8   3  -2   13.52    4.52
  -8  -3   2   13.94    5.70
   8   3  -1   52.59    6.79
   8   3  -1   55.55    7.11
   8   3  -1   50.74    7.15
  -8  -3   1   56.29    8.52
   8   3  -1   48.23    7.01
   8   3   0   11.09    3.72
   8   3   0   15.60    4.28
   8   3   0   10.31    3.86
  -8  -3   0    8.35    4.37
   8   3   0    9.79    3.97
   8   3   1   47.66    6.53
   8   3   1   57.18    7.58
   8   3   1   52.32    7.07
  -8  -3  -1   61.16    8.80
   8   3   2   27.12    5.42
   8   3   2   20.50    4.39
   8   3   2   26.86    5.52
  -8  -3  -2   23.23    6.03
   8   3   3   39.31    6.25
   8   3   3   28.12    5.52
   8   3   3   38.54    6.86
  -8  -3  -3   32.56    6.76
   8   3   4    7.96    3.87
   8   3   4    8.19    3.88
   8   3   4    5.58    4.15
  -8  -3  -4   10.92    3.80
  -8  -3  -4   13.22    4.77
   8   3   5   40.75    6.94
  -8  -3  -5   43.32    6.36
   8   3   5   56.20    7.47
  -8  -3  -5   47.25    8.20
   8   3   6    2.42    2.84
   8   3   6    3.83    2.83
  -8  -3  -6   -2.57    2.69
   8   3   6    8.78    4.00
  -8  -3  -6    6.54    4.13
   8   3   7   62.13    8.98
   8   3   7   66.81    9.53
  -8  -3  -7   62.95    8.34
   8   3   7   78.01    9.32
  -8  -3  -7   85.64   11.18
   8   3   8   -4.85    3.61
  -8  -3  -8   -6.00    3.22
  -8  -3  -8  -13.82    5.14
  -8  -4   5   14.70    4.50
   8   4  -5   23.45    6.99
  -8  -4   4    2.74    3.24
   8   4  -4   -3.27    2.59
  -8  -4   4   -2.98    3.33
   8   4  -3   38.97    6.41
  -8  -4   3   31.05    6.60
   8   4  -3   33.36    5.94
   8   4  -3   28.89    6.02
  -8  -4   3   28.66    6.71
   8   4  -2   38.56    5.95
   8   4  -2   33.71    6.03
   8   4  -2   26.63    5.68
  -8  -4   2   23.49    6.26
   8   4  -1   70.22    7.98
   8   4  -1   62.93    7.93
   8   4  -1   67.18    8.11
   8   4  -1   79.45    8.70
  -8  -4   1   67.74    9.49
   8   4   0   57.28    7.46
   8   4   0   52.20    7.31
   8   4   0   57.74    7.20
  -8  -4   0   49.45    8.11
   8   4   0   46.41    6.65
   8   4   1   41.74    6.23
   8   4   1   56.28    7.75
   8   4   1   57.92    6.89
   8   4   1   51.66    6.84
  -8  -4  -1   63.68    9.09
   8   4   2   24.80    5.11
   8   4   2   20.24    4.57
   8   4   2   30.02    5.98
  -8  -4  -2   23.26    5.77
   8   4   3   85.30    9.17
   8   4   3   61.43    8.18
   8   4   3   86.19    8.58
  -8  -4  -3   96.14   10.93
   8   4   4   18.47    4.63
   8   4   4   21.59    5.46
   8   4   4   18.56    5.53
  -8  -4  -4   15.85    3.77
  -8  -4  -4   19.06    5.52
   8   4   5   42.99    7.20
   8   4   5   43.68    7.46
  -8  -4  -5   34.48    5.67
   8   4   5   47.90    7.00
  -8  -4  -5   61.47    8.94
   8   4   6   13.70    4.32
   8   4   6   17.08    5.40
   8   4   6   18.10    5.65
  -8  -4  -6   17.09    4.30
  -8  -4  -6    6.61    4.40
   8   4   7   33.44    6.36
   8   4   7   26.52    6.54
  -8  -4  -7   29.06    5.79
   8   4   7   27.54    6.45
  -8  -4  -7   40.45    8.29
   8   4   8    9.79    3.90
  -8  -4  -8   14.87    5.13
  -8  -4  -8    9.54    4.50
  -8  -5   4   33.58    6.45
   8   5  -3   39.63    7.02
   8   5  -3   36.79    6.22
   8   5  -3   44.04    7.78
  -8  -5   3   26.29    6.43
  -8  -5   3   39.13    7.14
   8   5  -2   27.34    5.55
   8   5  -2   25.78    5.62
   8   5  -2   26.23    5.51
  -8  -5   2   33.06    6.72
   8   5  -1   14.57    4.61
   8   5  -1   17.39    4.73
  -8  -5   1   20.38    5.59
   8   5   0   31.83    5.83
   8   5   0   40.40    6.58
  -8  -5   0   43.06    7.63
   8   5   0   36.58    5.70
   8   5   1   27.08    5.60
   8   5   1   29.93    5.98
  -8  -5  -1   22.61    5.95
   8   5   1   27.61    5.26
   8   5   2   27.36    5.73
   8   5   2   40.81    6.75
  -8  -5  -2   29.89    6.63
   8   5   2   27.19    5.00
   8   5   3   27.04    4.82
   8   5   3   35.01    6.34
   8   5   3   29.39    6.47
  -8  -5  -3   33.96    6.85
   8   5   4   19.06    4.33
   8   5   4   28.76    5.76
   8   5   4   14.58    4.92
  -8  -5  -4   14.74    5.09
   8   5   5   42.69    6.15
   8   5   5   45.46    7.42
   8   5   5   40.14    7.50
  -8  -5  -5   38.16    7.57
   8   5   6   22.19    4.72
   8   5   6   17.92    5.02
   8   5   6   18.47    5.76
  -8  -5  -6   16.36    5.58
   8   5   7   17.17    4.41
   8   5   7   22.95    5.99
   8   5   7   26.28    6.83
  -8  -5  -7   29.08    7.07
   8   5   8    3.16    3.27
  -8  -5  -8    9.18    4.00
  -8  -5  -8   14.19    5.13
   8   6  -3    5.26    3.31
   8   6  -3    5.66    3.86
   8   6  -2   32.43    6.07
   8   6  -2   22.47    5.18
  -8  -6   2   32.98    7.06
   8   6  -1   19.42    5.16
   8   6  -1   23.12    5.60
  -8  -6   1   23.33    6.15
  -8  -6   0   28.90    5.26
   8   6   0   38.03    6.55
   8   6   0   26.48    5.85
  -8  -6   0   29.23    6.91
   8   6   1   20.70    5.02
   8   6   1   24.40    5.60
  -8  -6  -1   32.43    6.65
   8   6   2   34.59    6.31
   8   6   2   28.11    6.30
  -8  -6  -2   31.70    6.64
   8   6   3   13.19    4.44
   8   6   3    4.81    3.35
  -8  -6  -3   13.34    4.67
   8   6   4   29.82    6.18
   8   6   4   31.59    6.78
  -8  -6  -4   29.26    6.42
   8   6   5   29.69    6.05
   8   6   5   26.26    6.56
  -8  -6  -5   31.38    7.21
   8   6   6    5.03    3.28
   8   6   6    3.54    4.25
  -8  -6  -6    6.60    4.57
  -8  -6  -7   33.88    7.49
   8   7  -2   15.89    5.49
  -8  -7   1    4.75    2.73
   8   7  -1    8.03    3.98
   8   7  -1   10.01    4.52
  -8  -7   1   -3.20    3.58
  -8  -7   0   24.35    5.58
   8   7   0   14.07    4.84
   8   7   0   17.28    5.47
  -8  -7   0   27.85    6.52
  -8  -7  -1   13.34    4.24
   8   7   1    9.81    4.09
   8   7   1    6.90    3.50
  -8  -7  -1   14.37    4.93
   8   7   2   10.25    4.09
   8   7   2   11.03    5.06
  -8  -7  -2    6.84    4.34
   8   7   3   60.44    8.72
   8   7   3   67.57    9.23
  -8  -7  -3   57.09    8.62
   8   7   4    7.49    4.58
  -8  -7  -4    4.36    2.92
   8   7   5   22.58    5.73
   8   7   5   19.59    6.00
  -8  -7  -5   24.83    6.66
  -8  -8   1    9.35    4.08
  -8  -8   0   15.05    5.44
  -8  -8  -1    7.27    3.81
  -9   3   0   -3.12    2.89
  -9   3  -1    7.58    4.34
  -9   3  -1   -1.54    3.16
  -9   3  -2   15.34    4.96
  -9   2   1    1.70    3.16
  -9   2   1    6.81    4.66
  -9   2   0   20.68    5.77
  -9   2   0   29.87    7.69
  -9   2  -1    4.95    3.52
  -9   2  -1    0.40    2.56
  -9   2  -2   23.56    5.31
  -9   2  -2   15.34    5.23
  -9   2  -3   -1.62    2.92
  -9   1   1   13.11    5.83
   9  -1  -1    7.83    4.31
   9  -1   0   34.21    6.95
  -9   1   0   41.52    7.69
  -9   1   0   43.69    8.95
   9  -1   1    0.67    3.47
  -9   1  -1   -6.43    3.61
   9  -1   1    5.12    3.22
  -9   1  -1    4.25    2.75
   9  -1   2   22.36    6.27
  -9   1  -2   22.96    6.06
  -9   1  -2   15.41    5.82
  -9   1  -3   10.98    3.79
  -9   1  -3   16.21    6.03
   9  -1   4    9.97    3.67
   9  -1   5    6.01    3.23
   9   0  -2   30.57    6.29
   9   0  -2   30.43    6.65
  -9   0   1   18.41    5.87
   9   0  -1   28.33    6.28
  -9   0   0   22.16    7.59
   9   0   0   13.12    4.77
   9   0   1   22.40    5.90
   9   0   1   17.32    4.78
   9   0   2   16.11    5.17
  -9   0  -2   29.54    6.28
   9   0   2   27.35    5.48
  -9   0  -2   13.47    5.76
   9   0   3    3.16    3.14
  -9   0  -3    2.36    2.71
   9   0   3   -1.35    2.20
  -9   0  -3    2.25    3.37
   9   0   4   18.60    4.50
  -9   0  -4    9.39    4.85
   9   0   5   -2.99    2.85
   9   0   5   -7.36    4.09
   9   1  -3   27.75    6.37
   9   1  -2   13.01    4.75
   9   1  -2   22.55    5.84
   9   1  -1    1.76    2.71
  -9  -1   1   -0.06    3.35
   9   1  -1    1.52    3.42
   9   1   0    9.27    3.61
  -9  -1   0   20.19    6.41
   9   1   0   19.16    5.16
   9   1   1    9.69    4.31
   9   1   1    1.11    2.82
  -9  -1  -1    7.44    5.24
   9   1   2   20.80    5.09
   9   1   2   17.37    4.59
   9   1   2   30.73    5.87
  -9  -1  -2   18.06    5.75
   9   1   3    4.59    3.36
   9   1   3    2.30    3.20
   9   1   3    8.54    4.44
  -9  -1  -3   -0.63    3.44
   9   1   4   25.05    5.87
   9   1   4   26.13    5.30
  -9  -1  -4   24.84    6.26
   9   1   5    6.50    3.23
  -9  -1  -5    7.57    3.27
  -9  -1  -5    8.41    3.62
   9   2  -3   11.56    4.24
   9   2  -2   16.69    4.99
   9   2  -2   14.07    4.84
   9   2  -1   10.87    4.19
  -9  -2   1   15.86    5.98
   9   2  -1   22.68    5.42
   9   2   0   19.66    5.03
  -9  -2   0   23.41    6.27
   9   2   0   25.10    5.42
   9   2   1    8.65    3.43
   9   2   1   10.73    4.03
  -9  -2  -1   12.19    4.73
   9   2   1   11.32    3.91
   9   2   2   30.57    6.00
   9   2   2   27.25    5.46
   9   2   2   16.52    4.93
  -9  -2  -2   41.37    8.59
   9   2   3    5.20    3.43
   9   2   3   11.26    3.88
   9   2   3    9.03    4.29
  -9  -2  -3    8.40    4.31
   9   2   4   26.14    6.04
   9   2   4   21.34    5.58
   9   2   4   14.64    5.08
  -9  -2  -4   20.30    6.01
   9   2   5    2.41    2.25
   9   2   5    8.34    3.12
  -9  -2  -5    8.92    3.95
  -9  -2  -5    3.98    3.70
  -9  -2  -6   39.80    6.91
  -9  -2  -6   26.41    6.99
   9   3  -3   15.92    5.18
   9   3  -2    6.27    3.21
   9   3  -1   27.99    5.35
   9   3  -1   40.32    7.06
   9   3  -1   24.78    5.67
   9   3   0   28.49    5.33
   9   3   0   20.64    5.08
   9   3   0   23.47    5.45
  -9  -3   0   26.00    6.77
   9   3   0   23.27    5.44
   9   3   1   22.72    5.12
   9   3   1   19.95    4.92
  -9  -3  -1   10.30    4.87
   9   3   1   23.80    5.46
   9   3   2   18.96    5.07
   9   3   2   15.00    4.39
   9   3   2   23.05    6.00
  -9  -3  -2   30.36    6.94
   9   3   3   16.40    4.96
   9   3   3   13.02    4.17
   9   3   3   20.90    5.71
  -9  -3  -3   20.04    6.22
   9   3   4   35.83    6.44
   9   3   4   34.34    6.44
   9   3   4   39.05    7.74
  -9  -3  -4   32.64    7.03
   9   3   5   15.91    4.99
   9   3   5   28.94    5.94
   9   3   5   16.79    5.80
  -9  -3  -5   15.91    4.08
  -9  -3  -5   15.12    5.05
   9   3   6   -2.60    3.31
  -9  -3  -6    2.66    2.76
   9   4  -1   10.60    3.80
   9   4  -1   -0.45    3.05
   9   4   0    4.96    2.77
   9   4   0    5.52    3.22
   9   4   1   15.85    4.63
   9   4   1   13.40    4.74
  -9  -4  -1   15.31    6.18
   9   4   1   13.93    4.45
   9   4   2   15.58    4.56
   9   4   2   18.82    5.62
  -9  -4  -2   17.73    5.83
   9   4   2    9.49    3.94
   9   4   3   15.81    4.37
   9   4   3   13.74    4.14
   9   4   3   27.26    6.11
  -9  -4  -3   16.94    5.71
   9   4   4    7.37    3.86
   9   4   4    9.97    4.37
   9   4   4    8.93    3.96
  -9  -4  -4   21.96    6.05
   9   4   5   13.50    4.49
   9   4   5   23.77    5.86
   9   4   6    5.02    3.06
   9   5  -1   22.09    4.46
   9   5  -1   14.86    4.54
   9   5   0   21.91    5.52
   9   5   0   15.66    5.41
   9   5   1   25.27    5.63
   9   5   1   20.84    5.31
   9   5   2   20.10    4.95
   9   5   2   18.37    5.33
   9   5   3   24.04    5.54
   9   5   3   22.97    5.88
   9   5   4   15.17    4.82
   9   5   4    1.32    4.07
   9   6   0   -1.35    3.12
   9   6   1   22.06    5.54
   9   6   1   17.73    5.31
   9   6   2   18.34    4.77
   0   0   0    0.00    0.00


TITL V308_7+_90K_1_295_00 in P-1
REM P-1 (#2 in standard setting)
CELL 0.71073   6.595361   8.776399   8.856429  72.1402  84.0015  81.8304
ZERR    2.00   0.000202   0.000196   0.000251   0.0022   0.0024   0.0022
LATT  1
SFAC C H N O I
UNIT 14.00 18.00 4.00 4.00 2.00
TREF
HKLF 4
END
_computing_structure_solution     'SHELXT 2014/5 (Sheldrick, 2014)'
;
_shelx_hkl_checksum              4171
_olex2_submission_special_instructions 'No special instructions were received'
_oxdiff_exptl_absorpt_empirical_details
;
Empirical correction (ABSPACK) includes:
- Absorption correction using spherical harmonics
- Frame scaling
;
_oxdiff_exptl_absorpt_empirical_full_max 1.144
_oxdiff_exptl_absorpt_empirical_full_min 0.922
loop_
_space_group_symop_operation_xyz
'x, y, z'
'-x, -y, -z'
loop_
_atom_site_label
_atom_site_type_symbol
_atom_site_fract_x
_atom_site_fract_y
_atom_site_fract_z
_atom_site_U_iso_or_equiv
_atom_site_adp_type
_atom_site_occupancy
_atom_site_site_symmetry_order
_atom_site_calc_flag
_atom_site_refinement_flags_posn
I1 I 0.78581(3) 0.51505(2) 0.24637(2) 0.04437(8) Uani 1 1 d .
O1 O 0.7065(5) -0.2733(3) 0.6167(4) 0.0878(8) Uani 1 1 d .
O2 O 0.7436(4) -0.0582(3) 0.4189(3) 0.0755(7) Uani 1 1 d .
N1 N 0.7421(3) 0.3843(2) 0.6660(2) 0.0376(4) Uani 1 1 d .
H1A H 0.843423 0.414094 0.705521 0.045 Uiso 1 1 calc GR
H1B H 0.622298 0.430639 0.696262 0.045 Uiso 1 1 calc GR
H1C H 0.758228 0.414880 0.560390 0.045 Uiso 1 1 calc GR
N2 N 0.7327(4) -0.1300(3) 0.5603(4) 0.0568(7) Uani 1 1 d .
C1 C 0.7457(3) 0.2080(2) 0.7254(3) 0.0336(5) Uani 1 1 d .
C2 C 0.7477(4) 0.1340(3) 0.8893(3) 0.0401(5) Uani 1 1 d .
C3 C 0.7533(4) -0.0333(3) 0.9413(3) 0.0493(6) Uani 1 1 d .
H3 H 0.758303 -0.087070 1.049386 0.059 Uiso 1 1 calc R
C4 C 0.7514(4) -0.1210(3) 0.8360(4) 0.0523(7) Uani 1 1 d .
H4 H 0.755373 -0.232634 0.872486 0.063 Uiso 1 1 calc R
C5 C 0.7437(4) -0.0411(3) 0.6769(3) 0.0412(5) Uani 1 1 d .
C6 C 0.7424(4) 0.1252(3) 0.6174(3) 0.0382(5) Uani 1 1 d .
H6 H 0.739373 0.177943 0.509029 0.046 Uiso 1 1 calc R
C7 C 0.7410(5) 0.2297(4) 1.0044(3) 0.0520(6) Uani 1 1 d .
H7A H 0.617986 0.304073 0.993725 0.078 Uiso 1 1 calc GR
H7B H 0.858469 0.288173 0.982345 0.078 Uiso 1 1 calc GR
H7C H 0.742373 0.157925 1.110905 0.078 Uiso 1 1 calc GR
loop_
_atom_site_aniso_label
_atom_site_aniso_U_11
_atom_site_aniso_U_22
_atom_site_aniso_U_33
_atom_site_aniso_U_23
_atom_site_aniso_U_13
_atom_site_aniso_U_12
I1 0.04580(11) 0.04790(11) 0.03675(10) -0.00647(7) -0.00244(6) -0.01056(7)
O1 0.114(2) 0.0369(11) 0.122(2) -0.0285(13) -0.0337(18) -0.0087(12)
O2 0.100(2) 0.0680(15) 0.0703(16) -0.0340(13) -0.0027(14) -0.0196(13)
N1 0.0432(11) 0.0303(9) 0.0380(10) -0.0057(8) -0.0043(8) -0.0081(8)
N2 0.0455(13) 0.0369(11) 0.095(2) -0.0285(13) -0.0164(13) 0.0003(10)
C1 0.0308(11) 0.0276(10) 0.0396(12) -0.0038(9) -0.0043(9) -0.0065(8)
C2 0.0348(12) 0.0409(12) 0.0397(13) -0.0025(10) -0.0045(10) -0.0078(10)
C3 0.0474(15) 0.0420(13) 0.0457(14) 0.0078(11) -0.0066(11) -0.0074(11)
C4 0.0436(14) 0.0303(12) 0.074(2) 0.0002(12) -0.0100(13) -0.0062(10)
C5 0.0332(12) 0.0307(11) 0.0597(16) -0.0121(10) -0.0070(11) -0.0034(9)
C6 0.0350(12) 0.0334(11) 0.0441(13) -0.0059(9) -0.0065(10) -0.0067(9)
C7 0.0552(17) 0.0608(17) 0.0387(14) -0.0104(12) -0.0036(12) -0.0118(13)
loop_
_atom_type_symbol
_atom_type_description
_atom_type_scat_dispersion_real
_atom_type_scat_dispersion_imag
_atom_type_scat_source
C C 0.0033 0.0016 'International Tables Vol C Tables 4.2.6.8 and 6.1.1.4'
H H 0.0000 0.0000 'International Tables Vol C Tables 4.2.6.8 and 6.1.1.4'
I I -0.4742 1.8119 'International Tables Vol C Tables 4.2.6.8 and 6.1.1.4'
N N 0.0061 0.0033 'International Tables Vol C Tables 4.2.6.8 and 6.1.1.4'
O O 0.0106 0.0060 'International Tables Vol C Tables 4.2.6.8 and 6.1.1.4'
loop_
_exptl_crystal_face_index_h
_exptl_crystal_face_index_k
_exptl_crystal_face_index_l
_exptl_crystal_face_perp_dist
1 2 -11 0.0469
-8 5 -3 0.2187
5 -8 -6 0.2476
0 12 7 0.1709
-9 -5 -2 0.2572
1 11 -2 0.1496
-1 -2 11 0.0605
9 1 2 0.2121
8 7 2 0.2399
-1 -11 2 0.1279
loop_
_geom_angle_atom_site_label_1
_geom_angle_atom_site_label_2
_geom_angle_atom_site_label_3
_geom_angle
H1A N1 H1B 109.5
H1A N1 H1C 109.5
H1B N1 H1C 109.5
C1 N1 H1A 109.5
C1 N1 H1B 109.5
C1 N1 H1C 109.5
O1 N2 C5 116.1(3)
O2 N2 O1 124.6(3)
O2 N2 C5 119.3(2)
C2 C1 N1 118.3(2)
C6 C1 N1 118.3(2)
C6 C1 C2 123.4(2)
C1 C2 C7 121.8(2)
C3 C2 C1 116.8(2)
C3 C2 C7 121.4(2)
C2 C3 H3 119.3
C4 C3 C2 121.5(2)
C4 C3 H3 119.3
C3 C4 H4 120.5
C5 C4 C3 119.0(2)
C5 C4 H4 120.5
C4 C5 N2 120.8(2)
C4 C5 C6 122.2(2)
C6 C5 N2 117.1(2)
C1 C6 C5 117.1(2)
C1 C6 H6 121.4
C5 C6 H6 121.4
C2 C7 H7A 109.5
C2 C7 H7B 109.5
C2 C7 H7C 109.5
H7A C7 H7B 109.5
H7A C7 H7C 109.5
H7B C7 H7C 109.5
loop_
_geom_bond_atom_site_label_1
_geom_bond_atom_site_label_2
_geom_bond_distance
O1 N2 1.233(3)
O2 N2 1.216(4)
N1 H1A 0.8900
N1 H1B 0.8900
N1 H1C 0.8900
N1 C1 1.471(3)
N2 C5 1.485(4)
C1 C2 1.397(3)
C1 C6 1.371(3)
C2 C3 1.394(3)
C2 C7 1.501(4)
C3 H3 0.9300
C3 C4 1.382(4)
C4 H4 0.9300
C4 C5 1.371(4)
C5 C6 1.390(3)
C6 H6 0.9300
C7 H7A 0.9600
C7 H7B 0.9600
C7 H7C 0.9600
loop_
_geom_hbond_atom_site_label_D
_geom_hbond_atom_site_label_H
_geom_hbond_atom_site_label_A
_geom_hbond_distance_DH
_geom_hbond_distance_HA
_geom_hbond_distance_DA
_geom_hbond_angle_DHA
_geom_hbond_site_symmetry_A
_geom_hbond_publ_flag
N1 H1A I1 0.89 2.71 3.576(2) 163.6 2_766 yes
N1 H1B I1 0.89 2.69 3.533(2) 158.9 2_666 yes
N1 H1C I1 0.89 2.64 3.531(2) 176.8 . yes
loop_
_geom_torsion_atom_site_label_1
_geom_torsion_atom_site_label_2
_geom_torsion_atom_site_label_3
_geom_torsion_atom_site_label_4
_geom_torsion
O1 N2 C5 C4 8.4(4)
O1 N2 C5 C6 -170.7(3)
O2 N2 C5 C4 -173.8(3)
O2 N2 C5 C6 7.2(4)
N1 C1 C2 C3 -179.4(2)
N1 C1 C2 C7 1.5(3)
N1 C1 C6 C5 -179.3(2)
N2 C5 C6 C1 177.9(2)
C1 C2 C3 C4 -1.6(4)
C2 C1 C6 C5 -0.8(4)
C2 C3 C4 C5 -0.1(4)
C3 C4 C5 N2 -177.5(2)
C3 C4 C5 C6 1.5(4)
C4 C5 C6 C1 -1.1(4)
C6 C1 C2 C3 2.1(4)
C6 C1 C2 C7 -177.0(2)
C7 C2 C3 C4 177.5(3)
loop_
_exptl_oxdiff_crystal_face_indexfrac_h
_exptl_oxdiff_crystal_face_indexfrac_k
_exptl_oxdiff_crystal_face_indexfrac_l
_exptl_oxdiff_crystal_face_x
_exptl_oxdiff_crystal_face_y
_exptl_oxdiff_crystal_face_z
1.0136 2.0035 -10.9958 0.3883 -0.7268 0.5702
-7.9949 5.0107 -3.0007 0.7934 0.4391 0.5526
4.9951 -8.0021 -5.9977 -0.1475 -0.8349 -0.4666
-0.0019 11.9988 7.0152 -0.3215 0.6095 0.7534
-9.0011 -4.9899 -2.0147 0.8500 0.4269 -0.3238
1.0079 11.0011 -1.9846 -0.0149 -0.0358 0.9974
-1.0136 -2.0035 10.9958 -0.3883 0.7268 -0.5702
8.9991 0.9894 2.0095 -0.8436 -0.4845 -0.0131
8.0020 6.9913 2.0164 -0.7692 -0.3288 0.4949
-1.0079 -11.0011 1.9846 0.0149 0.0358 -0.9974

_cod_database_fobs_code 2108516
