#------------------------------------------------------------------------------
#$Date: 2022-01-01 06:19:30 +0200 (Sat, 01 Jan 2022) $
#$Revision: 271667 $
#$URL: file:///home/coder/svn-repositories/cod/cif/2/10/89/2108909.cif $
#------------------------------------------------------------------------------
#
# This file is available in the Crystallography Open Database (COD),
# http://www.crystallography.net/. The original data for this entry
# were provided by IUCr Journals, http://journals.iucr.org/.
#
# The file may be used within the scientific community so long as
# proper attribution is given to the journal article from which the
# data were obtained.
#
data_2108909
loop_
_publ_author_name
'Rejnhardt, Piotr'
'Drozd, Marek'
'Daszkiewicz, Marek'
_publ_section_title
;
 Low-temperature phase transition and high-pressure phase stability of
 1<i>H</i>-pyrazole-1-carboxamidine nitrate
;
_journal_issue                   6
_journal_name_full               'Acta Crystallographica Section B'
_journal_page_first              996
_journal_page_last               1002
_journal_paper_doi               10.1107/S2052520621010970
_journal_volume                  77
_journal_year                    2021
_chemical_formula_moiety         'C4 H7 N4, N O3'
_chemical_formula_sum            'C4 H7 N5 O3'
_chemical_formula_weight         173.15
_space_group_crystal_system      monoclinic
_space_group_IT_number           14
_space_group_name_Hall           '-P 2ybc'
_space_group_name_H-M_alt        'P 1 21/c 1'
_atom_sites_solution_hydrogens   geom
_atom_sites_solution_primary     direct
_audit_creation_date             2021-07-09
_audit_creation_method
;
Olex2 1.2
(compiled 2018.05.29 svn.r3508 for OlexSys, GUI svn.r5506)
;
_cell_angle_alpha                90
_cell_angle_beta                 100.11(4)
_cell_angle_gamma                90
_cell_formula_units_Z            4
_cell_length_a                   5.1439(9)
_cell_length_b                   10.2415(9)
_cell_length_c                   14.008(9)
_cell_measurement_reflns_used    1185
_cell_measurement_temperature    293(2)
_cell_measurement_theta_max      21.8870
_cell_measurement_theta_min      3.9600
_cell_volume                     726.5(5)
_computing_cell_refinement       'CrysAlisPro 1.171.39.46 (Rigaku OD, 2018)'
_computing_data_collection       'CrysAlisPro 1.171.39.46 (Rigaku OD, 2018)'
_computing_data_reduction        'CrysAlisPro 1.171.39.46 (Rigaku OD, 2018)'
_computing_molecular_graphics    'Olex2 (Dolomanov et al., 2009)'
_computing_publication_material  'Olex2 (Dolomanov et al., 2009)'
_computing_structure_refinement  'ShelXL (Sheldrick, 2015)'
_computing_structure_solution    'ShelXS (Sheldrick, 2008)'
_diffrn_ambient_temperature      293(2)
_diffrn_detector                 'CCD plate'
_diffrn_detector_area_resol_mean 8.2214
_diffrn_detector_type            'Sapphire2, large Be window'
_diffrn_measured_fraction_theta_full 0.354
_diffrn_measured_fraction_theta_max 0.354
_diffrn_measurement_details
;
List of Runs (angles in degrees, time in seconds):

  # Type    Start    End  Width  t~exp~   \w     \q     \k     \f   Frames
--------------------------------------------------------------------------
  1  \w    -20.00  31.60   0.60   30.00    --   25.00   0.00   0.00   86
  2  \w    -20.00  35.80   0.60   30.00    --   25.00   0.00 180.00   93
  3  \w     -3.00  46.80   0.60   30.00    --   25.00 -40.00-170.00   83
  4  \w     -3.00  46.80   0.60   30.00    --   25.00 -40.00  10.00   83
  5  \w      8.00  65.00   0.60   30.00    --   25.00 -82.00  30.00   95
  6  \w      8.00  65.00   0.60   30.00    --   25.00 -82.00-150.00   95
  7  \w     32.50  88.90   0.60   30.00    --   25.00-135.00-122.00   94
  8  \w     32.00  89.00   0.60   30.00    --   25.00-135.00  58.00   95
  9  \w     25.00  46.60   0.60   30.00    --  -25.00-135.00  58.00   36
 10  \w     25.00  46.60   0.60   30.00    --  -25.00-135.00-122.00   36
 11  \w      0.00  22.80   0.60   30.00    --  -25.00 -82.00-150.00   38
 12  \w      0.00  22.80   0.60   30.00    --  -25.00 -82.00  30.00   38
 13  \w    -19.00  17.00   0.60   30.00    --  -25.00 -40.00  10.00   60
 14  \w    -19.00  17.00   0.60   30.00    --  -25.00 -40.00-170.00   60
 15  \w    -33.00  21.60   0.60   30.00    --  -25.00   0.00 180.00   91
 16  \w    -33.00  21.60   0.60   30.00    --  -25.00   0.00   0.00   91
;
_diffrn_measurement_device       'four-circle diffractometer'
_diffrn_measurement_device_type  'Xcalibur, Sapphire2, large Be window'
_diffrn_measurement_method       '\w scans'
_diffrn_orient_matrix_type
'CrysAlisPro convention (1999,Acta A55,543-557)'
_diffrn_orient_matrix_UB_11      -0.0548685000
_diffrn_orient_matrix_UB_12      -0.0152512000
_diffrn_orient_matrix_UB_13      0.0417285000
_diffrn_orient_matrix_UB_21      -0.1288264000
_diffrn_orient_matrix_UB_22      0.0036511000
_diffrn_orient_matrix_UB_23      -0.0279698000
_diffrn_orient_matrix_UB_31      0.0054130000
_diffrn_orient_matrix_UB_32      -0.0674238000
_diffrn_orient_matrix_UB_33      -0.0110027000
_diffrn_radiation_monochromator  graphite
_diffrn_radiation_probe          x-ray
_diffrn_radiation_type           MoK\a
_diffrn_radiation_wavelength     0.71073
_diffrn_reflns_av_R_equivalents  0.0574
_diffrn_reflns_av_unetI/netI     0.0422
_diffrn_reflns_Laue_measured_fraction_full 0.354
_diffrn_reflns_Laue_measured_fraction_max 0.354
_diffrn_reflns_limit_h_max       5
_diffrn_reflns_limit_h_min       -5
_diffrn_reflns_limit_k_max       12
_diffrn_reflns_limit_k_min       -12
_diffrn_reflns_limit_l_max       9
_diffrn_reflns_limit_l_min       -8
_diffrn_reflns_number            3998
_diffrn_reflns_point_group_measured_fraction_full 0.354
_diffrn_reflns_point_group_measured_fraction_max 0.354
_diffrn_reflns_theta_full        25.056
_diffrn_reflns_theta_max         25.056
_diffrn_reflns_theta_min         3.979
_diffrn_source                   'fine-focus sealed X-ray tube'
_diffrn_source_type              'Enhance (Mo) X-ray Source'
_exptl_absorpt_coefficient_mu    0.135
_exptl_absorpt_correction_T_max  1.00000
_exptl_absorpt_correction_T_min  0.22163
_exptl_absorpt_correction_type   multi-scan
_exptl_absorpt_process_details
;
CrysAlisPro 1.171.39.46 (Rigaku Oxford Diffraction, 2018)
Empirical absorption correction using spherical harmonics,
 implemented in SCALE3 ABSPACK scaling algorithm.
;
_exptl_crystal_colour            colourless
_exptl_crystal_density_diffrn    1.583
_exptl_crystal_description       prism
_exptl_crystal_F_000             360
_refine_diff_density_max         0.099
_refine_diff_density_min         -0.127
_refine_diff_density_rms         0.029
_refine_ls_extinction_coef       0.024(7)
_refine_ls_extinction_expression Fc^*^=kFc[1+0.001xFc^2^\l^3^/sin(2\q)]^-1/4^
_refine_ls_extinction_method     'SHELXL-2018/3 (Sheldrick 2018)'
_refine_ls_goodness_of_fit_ref   1.135
_refine_ls_hydrogen_treatment    constr
_refine_ls_matrix_type           full
_refine_ls_number_parameters     110
_refine_ls_number_reflns         457
_refine_ls_number_restraints     0
_refine_ls_restrained_S_all      1.135
_refine_ls_R_factor_all          0.0809
_refine_ls_R_factor_gt           0.0499
_refine_ls_shift/su_max          0.000
_refine_ls_shift/su_mean         0.000
_refine_ls_structure_factor_coef Fsqd
_refine_ls_weighting_details
'w=1/[\s^2^(Fo^2^)+(0.0253P)^2^+0.7970P] where P=(Fo^2^+2Fc^2^)/3'
_refine_ls_weighting_scheme      calc
_refine_ls_wR_factor_gt          0.0915
_refine_ls_wR_factor_ref         0.1067
_reflns_Friedel_coverage         0.000
_reflns_number_gt                330
_reflns_number_total             457
_reflns_threshold_expression     'I > 2\s(I)'
_cod_data_source_file            xk5086sup1.cif
_cod_data_source_block           0.13GPa
_cod_database_code               2108909
_shelx_shelxl_version_number     2018/3
_chemical_oxdiff_formula         C4N4NO3H7
_shelx_space_group_comment
;
The symmetry employed for this shelxl refinement is uniquely defined
by the following loop, which should always be used as a source of
symmetry information in preference to the above space-group names.
They are only intended as comments.
;
_reflns_odcompleteness_completeness 34.88
_reflns_odcompleteness_iscentric 1
_reflns_odcompleteness_theta     25.00
_olex2_refinement_description
;
1. Fixed Uiso
 At 1.2 times of:
  All C(H) groups, All N(H,H) groups
2.a Aromatic/amide H refined with riding coordinates:
 C1(H1), C2(H2), C3(H3)
2.b X=CH2 refined with riding coordinates:
 N3(H3A,H3B), N4(H4A,H4B)
;
_shelx_res_file
;
TITL instrument in P21/c #14
    instrument.res
    created by SHELXL-2018/3 at 14:45:36 on 09-Jul-2021
REM reset to P21/c #14
CELL 0.71073 5.143874 10.24147 14.008495 90 100.1133 90
ZERR 4 0.000934 0.000918 0.008507 0 0.037 0
LATT 1
SYMM -X,0.5+Y,0.5-Z
SFAC C H N O
UNIT 16 28 20 12

L.S. 99
PLAN  20
BOND
fmap 2 53
ACTA
OMIT 1 3 1
OMIT 1 8 7
OMIT -2 9 4
OMIT 2 6 8
OMIT 4 3 1
OMIT 4 3 9
REM <olex2.extras>
REM <HklSrc "%.\\instrument.hkl">
REM </olex2.extras>

WGHT    0.025300    0.797000
EXTI    0.023796
FVAR       2.26375
C1    1    0.111071    0.787733    0.537952    11.00000    0.05833    0.05118 =
         0.06297    0.00234   -0.00042   -0.00321
AFIX  43
H1    2   -0.035497    0.827309    0.500879    11.00000   -1.20000
AFIX   0
C2    1    0.325579    0.856330    0.589178    11.00000    0.07622    0.04300 =
         0.08411    0.00285    0.00072   -0.00943
AFIX  43
H2    2    0.346847    0.946475    0.592781    11.00000   -1.20000
AFIX   0
C3    1    0.495148    0.765404    0.632241    11.00000    0.06045    0.04748 =
         0.08478   -0.01560   -0.00600   -0.01014
AFIX  43
H3    2    0.656829    0.780155    0.672248    11.00000   -1.20000
AFIX   0
C4    1    0.478120    0.522646    0.629430    11.00000    0.03569    0.04841 =
         0.03193   -0.00116    0.02014   -0.00130
N1    3    0.382850    0.646949    0.605575    11.00000    0.03304    0.04632 =
         0.04227   -0.00054    0.01077    0.00047
N2    3    0.140212    0.660674    0.548181    11.00000    0.04528    0.04512 =
         0.08861   -0.00225   -0.01105    0.00129
N3    3    0.339718    0.423811    0.590961    11.00000    0.06296    0.04179 =
         0.09348   -0.00201   -0.02658    0.00203
AFIX  93
H3A   2    0.398422    0.345675    0.602186    11.00000   -1.20000
H3B   2    0.189376    0.436508    0.554266    11.00000   -1.20000
AFIX   0
N4    3    0.707270    0.508047    0.685563    11.00000    0.05499    0.06486 =
         0.07301    0.00317   -0.02596    0.00016
AFIX  93
H4A   2    0.771111    0.431093    0.698110    11.00000   -1.20000
H4B   2    0.794373    0.575385    0.709991    11.00000   -1.20000
AFIX   0
N5    3    0.246728    0.648632    0.824888    11.00000    0.06318    0.05842 =
         0.09583    0.00101   -0.02746   -0.00129
O1    4    0.484988    0.673530    0.857412    11.00000    0.04143    0.05759 =
         0.07749   -0.00948   -0.00026   -0.00500
O2    4    0.168182    0.535369    0.822495    11.00000    0.07113    0.05521 =
         0.17615   -0.00120   -0.03299   -0.02016
O3    4    0.089610    0.738237    0.793625    11.00000    0.04629    0.07080 =
         0.07645    0.01274    0.00297    0.00808
HKLF 4




REM  instrument in P21/c #14
REM wR2 = 0.1067, GooF = S = 1.135, Restrained GooF = 1.135 for all data
REM R1 = 0.0499 for 330 Fo > 4sig(Fo) and 0.0809 for all 457 data
REM 110 parameters refined using 0 restraints

END

WGHT      0.0253      0.7952

REM Highest difference peak  0.099,  deepest hole -0.127,  1-sigma level  0.029
Q1    1  -0.1560  0.6800  0.8198  11.00000  0.05    0.10
Q2    1   0.4267  0.7641  0.8619  11.00000  0.05    0.10
Q3    1   0.4556  0.7667  0.8415  11.00000  0.05    0.10
Q4    1  -0.0061  0.7218  0.5952  11.00000  0.05    0.10
Q5    1   0.4896  0.9152  0.4848  11.00000  0.05    0.10
Q6    1   0.5010  0.7759  0.8196  11.00000  0.05    0.09
Q7    1   0.5955  0.3731  0.6417  11.00000  0.05    0.09
Q8    1   0.5381  0.7818  0.8014  11.00000  0.05    0.09
Q9    1   0.6499  0.6842  0.7270  11.00000  0.05    0.09
Q10   1   0.7787  0.3999  0.7206  11.00000  0.05    0.09
Q11   1   0.0599  0.5590  0.4982  11.00000  0.05    0.09
Q12   1  -0.1187  0.4162  0.5625  11.00000  0.05    0.09
Q13   1   0.9359  0.4932  0.7380  11.00000  0.05    0.08
Q14   1   0.3444  0.8208  0.6982  11.00000  0.05    0.08
Q15   1   0.8950  0.6798  0.6619  11.00000  0.05    0.08
Q16   1   0.8607  0.4089  0.5819  11.00000  0.05    0.08
Q17   1  -0.0223  0.6010  0.8359  11.00000  0.05    0.08
Q18   1  -0.0088  0.6123  0.8126  11.00000  0.05    0.08
Q19   1   0.1053  0.8386  0.7225  11.00000  0.05    0.08
Q20   1   0.7034  0.6175  0.9190  11.00000  0.05    0.08
;
_shelx_res_checksum              39035
_shelx_hkl_file
;
   0  -2   0 3259.84 119.049   7
   0  -2   0 3376.82 97.3437   3
   0  -2   0 3356.93 122.134   8
   0   2   0 3363.52 121.435   9
   0   2   0 3189.35 109.309  12
   0  -2   0 3275.56 109.867   5
   0  -2   0 3289.62 117.646   6
   0  -2  -1 11788.5 226.600   8
   0  -2  -1 11408.7 140.468   3
   0   2   1 11547.1 179.964  13
   0  -2  -1 11523.6 221.331   5
   0   2   1 11650.8 204.371  11
   0   2   1 11485.4 145.337  14
   0  -2  -1 11414.7 227.759   7
   0  -2  -1 11486.5 184.833   4
   0  -2  -1 11303.8 202.680   6
   0   2   2 1975.46 100.929  10
   0  -2  -2 2017.15 100.690   8
   0  -2  -2 1921.13 93.6303   4
   0  -2  -2 1952.16 101.790   5
   0  -2  -2 1911.33 86.3013   6
   0  -2  -2 1866.70 97.9647   7
   0   3   0-4.75463 11.4302   9
   0  -3   0-9.23600 10.9401   7
   0  -3   0 10.9737 8.28063   6
   0   3   0 7.34722 9.14469  12
   0  -3   0-4.42611 9.63955   8
   0  -3   0-0.36986 4.03650   4
   0  -3   0 3.57218 3.42454   5
   0  -3  -1 3808.45 121.769   4
   0  -3   1 3562.85 275.814   6
   0  -3   1 3357.38 189.022   8
   0  -3  -1 3806.91 159.934   7
   0   3   1 3908.97 153.305  12
   0   3  -1 3886.94 198.973   9
   0   3   1 3783.17 105.248  14
   0   3   1 3852.60 122.544  13
   0  -3  -1 3907.37 160.772   8
   0  -3  -1 3753.95 151.534   5
   0  -3  -1 3787.38 107.441   3
   0  -3  -1 3879.08 149.543   6
   0  -3   1 3844.91 209.739   7
   0  -3  -2 1569.11 89.3825   4
   0  -3  -2 1527.84 62.4626   3
   0   3   2 1508.98 50.8251  16
   0  -3  -2 1473.05 90.5768   6
   0   3   2 1543.88 51.1536   1
   0  -3  -2 1514.45 102.620   8
   0  -3  -2 1574.36 50.7153   2
   0   3   2 1503.62 89.9889  11
   0   3   2 1500.96 101.661  10
   0  -3  -2 1549.24 50.3117  15
   0  -3  -2 1540.99 104.297   5
   0  -3  -2 1456.49 102.131   7
   0  -3  -3 10316.2 292.681   8
   0   3   3 10195.0 288.215  10
   0  -3  -3 10060.8 251.786   6
   0  -3  -3 9829.84 287.597   7
   0  -3  -3 9955.49 289.452   5
   0  -4   0 838.405 78.1679   5
   0  -4   0 898.378 64.8211   4
   0  -4   0 852.726 87.4923   7
   0  -4   0 851.371 86.0964   8
   0   4   0 890.525 82.6011  12
   0  -4   0 874.715 85.8580   6
   0   4   0 866.556 87.9607   9
   0  -4  -1 990.464 89.1693   6
   0  -4   1 966.622 160.721   6
   0   4   1 1002.04 96.8924   9
   0  -4  -1 978.719 89.6395   5
   0   4  -1 1068.51 112.227   9
   0  -4  -1 992.581 94.1245   8
   0  -4   1 1020.33 113.023   8
   0  -4  -1 997.630 96.1063   7
   0  -4  -1 1009.63 71.1582   4
   0  -4   1 1017.35 116.483   7
   0   4   1 939.556 62.4281  14
   0   4   1 962.683 87.3401  12
   0  -4  -1 869.312 59.2321   3
   0   4   1 948.625 69.0793  13
   0  -4   1 1001.67 125.546   5
   0  -4  -2 6445.29 241.758   5
   0  -4  -2 6529.82 249.168   7
   0  -4  -2 6617.78 226.267   6
   0  -4  -2 6661.15 153.423   3
   0  -4  -2 6749.72 250.774   8
   0   4   2 6601.29 245.832  10
   0   4   2 6825.24 225.842  11
   0   4   2 6651.15 196.718  13
   0  -4  -2 6581.80 200.772   4
   0  -4  -3 1505.60 121.250   7
   0   4   3 1663.45 115.670  11
   0  -4  -3 1647.12 113.234   4
   0   4   3 1705.91 67.8703  16
   0  -4  -3 1594.89 124.668   5
   0  -4  -3 1650.39 125.037   8
   0  -4  -3 1683.67 65.0799  15
   0  -4  -3 1601.08 74.4661   3
   0   4   3 1498.78 120.617  10
   0  -4  -3 1605.80 108.367   6
   0  -4  -4 778.858 87.2370   6
   0  -4  -4 817.968 105.560   7
   0   4   4 773.121 99.7412  10
   0  -4  -4 795.563 102.326   8
   0  -4  -4 690.164 93.7536   5
   0   5   0 25.5354 30.7306   9
   0  -5   0 14.7449 14.3230   4
   0  -5   0 14.2570 24.2096   6
   0  -5   0 24.0841 22.7383   5
   0   5   0 26.0739 21.8594  12
   0  -5   0 18.3501 20.6555   8
   0  -5   0 26.1861 23.9042   7
   0   5   1 1698.71 141.108   9
   0  -5  -1 1707.59 102.295   4
   0  -5  -1 1565.44 134.215   7
   0  -5  -1 1653.05 129.674   5
   0   5   1 1722.61 132.041  12
   0  -5   1 1595.49 160.491   8
   0   5   1 1699.45 94.4546  14
   0  -5   1 1631.45 162.063   5
   0  -5   1 1610.99 166.565   7
   0  -5  -1 1650.18 138.203   8
   0   5  -1 1861.94 169.927   9
   0  -5  -1 1660.55 129.387   6
   0   5   1 1548.12 146.665  13
   0   5   2 385.664 67.8096  14
   0   5   2 605.145 85.4994  10
   0   5   2 624.817 80.8712  12
   0  -5  -2 626.809 66.0814   4
   0   5   2 655.431 77.0606  11
   0  -5  -2 651.529 86.0919   8
   0   5   2 611.802 63.4433  13
   0  -5  -2 600.133 51.7293   3
   0  -5  -2 658.157 79.3116   6
   0  -5  -2 636.157 82.7376   5
   0  -5  -2 682.618 89.6316   7
   0  -5  -3 21.3599 3.49108   5
   0  -5  -3 26.8118 21.8608   8
   0   5   3 47.0764 26.3451  10
   0   5   3 49.1486 18.5314  11
   0  -5  -3 58.2614 32.0916   7
   0  -5  -3 28.9667 9.75903   6
   0  -5  -3 28.8122 9.83849   3
   0   5   3 8.86157 3.25805  13
   0  -5  -3 50.8234 23.6660   4
   0  -5  -4 2215.92 85.7861  15
   0   5   4 2057.41 161.575  10
   0  -5  -4 2089.31 165.416   7
   0  -5  -4 2069.64 144.352   6
   0  -5  -4 2133.57 165.443   8
   0   5   4 2114.74 87.9088  16
   0  -5  -4 2156.40 97.2575   3
   0   5   4 2224.18 143.003  13
   0  -5  -4 2107.03 169.505   5
   0  -5  -5 60.5354 42.6194   7
   0  -5  -5 39.3067 35.0261   8
   0  -5  -5 38.5684 23.4588   5
   0  -5  -5 56.5389 24.4558   6
   0  -6   0 4020.76 167.982   4
   0   6   0 3879.22 171.656  14
   0   6   0 3699.00 228.832   9
   0  -6   0 3993.36 215.169   5
   0  -6   0 3839.49 231.036   8
   0  -6   0 4519.10 263.868   6
   0  -6   0 3754.97 230.047   7
   0   6   1 396.958 75.0835   9
   0  -6  -1 415.108 77.7066   8
   0   6   1 402.502 50.5363  14
   0  -6  -1 385.194 74.4607   7
   0  -6  -1 424.451 70.5984   5
   0  -6  -1 362.427 65.4476   6
   0  -6   1 358.985 84.6160   8
   0   6  -1 358.097 87.3838   9
   0  -6  -1 399.748 52.7483   4
   0  -6   1 362.068 85.6649   7
   0   6   1 382.959 68.9859  12
   0  -6   1 279.019 69.2710   5
   0   6   2 39.5654 13.1048  10
   0  -6  -2 53.5887 21.2796   4
   0  -6  -2 32.5681 12.3371   6
   0   6   2 119.574 40.0384  14
   0   6   2 42.7321 21.3610  11
   0  -6  -2 44.6106 12.9483   3
   0  -6  -2 33.4576 22.0471   8
   0   6   2 53.3316 30.3029  12
   0   6   2 52.4752 37.1860   9
   0   6   2 52.7761 16.5906  13
   0  -6  -2 54.9560 30.7900   7
   0   6   3 790.648 104.752  10
   0  -6  -3 856.690 111.952   8
   0   6   3 794.365 84.3287  13
   0  -6  -3 817.530 97.5879   6
   0  -6  -3 808.368 104.924   5
   0  -6  -3 833.022 88.0658   4
   0   6   3 836.512 98.1917  11
   0   6   3 834.378 105.687  12
   0  -6  -3 754.622 60.8000   3
   0  -6  -3 935.925 117.261   7
   0  -6  -4 853.376 111.900   8
   0   6   4 855.256 111.970  10
   0  -6  -4 930.640 67.1995   3
   0   6   4 930.465 95.9120  13
   0  -6  -4 897.255 101.524   6
   0  -6  -4 935.049 118.396   5
   0  -6  -4 900.787 117.483   7
   0  -6  -5 401.588 87.0056   8
   0   6   5 349.107 72.5638  13
   0  -6  -5 404.745 76.3528   6
   0  -6  -5 409.553 48.5541   3
   0  -6  -5 472.097 46.2394  15
   0  -6  -5 395.555 82.5231   5
   0  -6  -5 411.237 88.7697   7
   0   6   5 387.731 84.2235  10
   0  -7   0-34.0369 24.4253   8
   0  -7   0 4.56290 10.8346   6
   0  -7   0 7.03349 12.9878   5
   0  -7   0-25.4442 20.5692   4
   0  -7   0-26.8527 19.5826   7
   0   7   0-0.72973 9.12408  14
   0   7   0 21.1803 33.6992   9
   0   7   1 417.807 77.4656  12
   0  -7  -1 400.860 59.1233   4
   0  -7  -1 376.393 74.4656   5
   0  -7   1 273.836 84.5867   5
   0  -7   1 229.684 83.3634   8
   0  -7  -1 404.034 80.7871   8
   0   7   1 389.077 76.7765  11
   0  -7  -1 405.343 85.7749   7
   0  -7  -1 375.726 71.5666   6
   0   7   1 406.072 55.3173  14
   0   7   1 434.902 85.4747   9
   0  -7  -2 88.6024 31.9851   4
   0  -7  -2 101.492 44.4742   8
   0  -7  -2 106.761 42.1882   5
   0   7   2 75.7209 39.4453  10
   0   7   2 99.6079 45.1291   9
   0  -7  -2 36.8433 6.85765   6
   0   7   2 89.6154 32.6614  12
   0  -7  -2 94.4854 39.1934   7
   0   7   2 80.0703 30.6699  11
   0  -7  -3 14.0533 25.6199   6
   0   7   3-24.7761 21.4547  13
   0   7   3-0.57217 11.8530  10
   0  -7  -3 14.6978 24.0053   8
   0   7   3-4.76182 13.9365   9
   0   7   3 13.3108 15.0341  11
   0  -7  -3-10.0249 16.1564   4
   0  -7  -3-15.4490 22.7351   5
   0  -7  -3-28.4531 27.9695   7
   0   7   3-3.18997 27.3017  12
   0   7   4 529.723 86.7270  11
   0   7   4 560.024 97.9980  12
   0   7   4 556.124 79.9660  13
   0  -7  -4 582.434 96.9331   6
   0   7   4 483.501 88.3637  10
   0  -7  -4 551.876 93.3093   8
   0  -7  -4 550.869 93.1135   5
   0  -7  -4 506.905 94.4590   7
   0  -7  -5 91.5076 37.0001   8
   0  -7  -5 154.870 51.8011   6
   0   7   5 98.1757 30.3707  13
   0  -7  -5 134.583 56.0413   5
   0   7   5 197.810 63.2172  10
   0  -7  -5 185.197 63.6294   7
   0   7   6 437.076 102.311  13
   0  -7  -6 575.482 151.599   7
   0  -7  -6 444.508 102.412   6
   0  -8   0 161.719 61.1845   5
   0   8   0 167.896 48.7099   9
   0  -8   0 137.033 39.8777   4
   0   8   0 222.629 53.1912  14
   0  -8   0 140.027 51.1601   7
   0  -8   0 197.630 67.3333   8
   0  -8  -1 2346.70 204.889   5
   0  -8  -1 2597.68 161.415   4
   0  -8  -1 2509.38 225.945   7
   0  -8  -1 2562.42 237.234   6
   0  -8  -1 2530.32 227.532   8
   0   8   1 2474.19 203.968  11
   0   8   1 2441.68 220.103   9
   0  -8  -2 327.728 74.3204   6
   0   8   2 365.167 76.7561  11
   0  -8  -2 411.708 67.3837   4
   0  -8  -2 310.317 77.6923   7
   0   8   2 372.432 82.8551  10
   0   8   2 302.528 80.8578   9
   0  -8  -2 393.311 86.0933   8
   0   8   2 311.331 65.0313  12
   0  -8  -2 300.858 74.8944   5
   0   8   3 1349.75 167.645  10
   0  -8  -3 1475.00 172.812   8
   0  -8  -3 1412.19 138.416   4
   0   8   3 1315.06 152.797  12
   0  -8  -3 1317.96 155.728   5
   0  -8  -3 1246.03 141.393   6
   0  -8  -3 1245.67 156.588   7
   0   8   3 1276.83 143.332  11
   0   8   3 1301.03 161.304   9
   0   8   3 848.272 154.944  13
   0   8   4 15.6521 1.63129   9
   0   8   4 3.13914 19.0719  11
   0  -8  -4 38.5533 38.5020   5
   0  -8  -4 55.2066 19.0281   7
   0  -8  -4 32.2332 12.6390   6
   0  -8  -4 22.7300 28.0910   8
   0   8   4 26.5722 14.6457  12
   0   8   4 39.7880 31.5298  13
   0   8   4-37.4419 43.5398  10
   0   8   5 338.393 81.9101  10
   0  -8  -5 317.867 74.4863   6
   0  -8  -5 289.427 70.7293   8
   0   8   5 328.803 71.4827  13
   0  -8  -5 356.163 89.6990   5
   0   8   5 272.738 74.8322  12
   0  -8  -5 362.890 86.4070   7
   0   8   6-18.4199 50.6344  10
   0  -8  -6 18.9803 16.6085   7
   0  -8  -6 6.62593 22.8377   6
   0  -8  -6 31.7595 12.3769   8
   0   8   6 13.8664 20.4245  12
   0  -8  -6 42.7168 52.3052   5
   0   8   6-23.6971 27.4400  13
   0   9   0-32.2189 35.0454   9
   0  -9   0 30.8063 30.2947   5
   0  -9   0 50.1024 42.8488   8
   0  -9  -1 96.5728 20.2309   6
   0   9   1 96.8311 51.1089   9
   0   9   1 122.009 55.3662  11
   0  -9  -1 74.7920 38.7008   5
   0  -9  -1 153.298 63.3165   7
   0  -9  -1 234.535 89.6940   8
   0  -9  -2 607.576 117.775   8
   0   9   2 680.525 118.395  12
   0  -9  -2 640.971 120.262   6
   0  -9  -2 701.431 122.002   5
   0  -9  -2 661.303 125.460   7
   0   9   2 712.671 122.246  11
   0   9   2 554.645 112.547   9
   0   9   2 620.847 114.256  10
   0   9   3 468.741 106.344  10
   0   9   3 502.717 104.948   9
   0   9   3 385.196 85.3016  12
   0  -9  -3 492.443 105.637   8
   0  -9  -3 463.984 99.8658   7
   0   9   3 481.094 92.9341  11
   0  -9  -3 460.326 88.2750   6
   0  -9  -3 595.483 110.054   5
   0  -9  -4 664.658 123.896   8
   0   9   4 687.026 124.665  10
   0   9   4 769.442 120.852  11
   0   9   4 599.071 109.035  12
   0  -9  -4 615.974 125.002   7
   0  -9  -4 654.147 118.798   5
   0  -9  -4 639.514 111.302   6
   0   9   4 671.421 123.151   9
   0  -9  -5-36.3759 17.9607   5
   0   9   5 49.7362 53.8067   9
   0  -9  -5 101.578 54.8652   7
   0   9   5 113.861 63.2218  10
   0   9   5 55.3446 31.1761  12
   0  -9  -5 91.3686 36.9106   6
   0  -9  -5 116.065 46.5564   8
   0   9   6 787.459 163.821  10
   0  -9  -6 501.156 117.997   6
   0  -9  -6 828.922 174.037   8
   0  -9  -6 945.226 192.358   7
   0  -9  -6 550.182 124.232   5
   0   9   6 859.349 186.718   9
   0   9   6 881.327 175.777  12
   0  10   1-25.2351 19.8557   9
   0 -10  -1 57.7428 42.1560   5
   0  10   1 39.2212 35.2257  11
   0  10   1 178.003 85.5135  10
   0 -10  -1 118.388 77.6334   8
   0 -10  -1 46.1225 50.5709   7
   0 -10  -2-35.3827 23.2261   7
   0  10   2-57.3417 49.9310  11
   0  10   2-10.8059 39.5901   9
   0 -10  -2-28.9863 13.2779   8
   0  10   2 7.66261 16.6502  10
   0 -10  -2-7.16505 7.05863   5
   0 -10  -2 35.1688 55.5210   6
   0 -10  -3 31.7938 33.5531   5
   0  10   3 38.4722 7.49136   9
   0 -10  -3 5.61403 26.9605   7
   0  10   3 2.23070 21.8325  12
   0 -10  -3 78.8696 58.1908   6
   0  10   3 120.473 71.5959  10
   0  10   3 23.5756 33.2615  11
   0 -10  -3 94.0358 57.2108   8
   0  10   4 62.8003 61.9683  10
   0 -10  -4 176.601 52.3556   5
   0 -10  -4 242.984 77.7379   7
   0 -10  -4 140.958 57.2695   6
   0  10   4 104.690 38.6913   9
   0  10   4 214.925 73.3978  12
   0  10   4 172.188 63.1867  11
   0 -10  -4 169.739 55.3702   8
   0 -10  -5 10.7472 14.3829   7
   0 -10  -5-16.9302 54.2022   5
   0 -10  -5-26.2708 39.4404   8
   0  10   5 21.0507 43.5482  12
   0  10   5-30.3906 43.8005  10
   0 -10  -5 64.8717 27.1133   6
   0  10   5-46.0276 36.9251   9
   0  10   6 2.06953 17.9112   9
   0  10   6 51.7305 52.7245  12
   0 -10  -6 43.2524 26.3137   5
   0  10   6 43.1211 53.3065  10
   0 -10  -6 36.8978 52.0061   8
   0 -10  -6-11.3557 41.7360   7
   0 -11  -1 68.5124 71.7273   8
   0  11   1 97.0797 57.7975  10
   0  11   2 31.9706 16.7786  11
   0  11   2 23.5329 69.3526  10
   0 -11  -2 123.925 69.8441   7
   0  11   2-5.70388 43.5625   9
   0 -11  -2 98.5599 82.1003   5
   0 -11  -2 132.205 58.1362   8
   0 -11  -3 89.3386 41.9559   8
   0  11   3 52.8935 27.9028  11
   0 -11  -3 46.8610 30.3713   5
   0  11   3-30.5963 87.6024  10
   0  11   3 81.6445 40.7542   9
   0 -11  -3-6.72810 90.7929   6
   0 -11  -3 53.6873 15.2435   7
   0  11   4-36.8962 52.7040  12
   0 -11  -4 41.3383 55.7546   7
   0 -11  -4-0.41798 19.3937   5
   0  11   4-31.5520 45.6584  10
   0  11   4 19.0754 39.1440   9
   0 -11  -4-64.4723 51.7491   8
   0 -11  -4-42.4696 69.5667   6
   0  11   5-35.3386 33.6963  12
   0  11   5-96.7341 61.0107   9
   0 -11  -5 48.3782 49.8954   8
   0  11   5 9.20494 17.4680  10
   0 -11  -5 19.3599 32.0283   7
   0 -11  -5 18.3682 44.1138   5
   0 -11  -6-34.0487 53.1675   8
   0  11   6-163.844 118.772   9
   0 -11  -6-116.029 107.394   7
   0  11   6-12.8536 26.4460  12
   0  11   6 59.7354 29.7986  10
   0  12   2-73.3669 109.603  10
   0 -12  -2 76.0848 73.7369   8
   0  12   3 95.9251 69.1910   9
   0 -12  -3 146.935 80.7677   8
  -1   0  -3 3.05977 10.9558   4
   1   0   3 13.2449 17.8078  16
  -1   0  -3 1.15316 6.43349  15
  -1   0  -3 6.29765 4.82442   1
   1   0   3-4.17443 5.95708   2
   1   0   2 90.3776 23.2430  16
  -1   0  -2 90.2785 23.9289  15
  -1   0  -2 90.3313 23.6788   4
  -1   0  -2 87.5446 17.5859   5
   1   0   2 90.5439 23.0390   2
   1   0   2 89.2547 24.4996   6
   1   0   2 79.6996 19.4307   3
  -1   0  -2 75.4090 20.0321   1
  -1   0  -1 7.74269 7.70150   1
  -1   0  -1 13.6283 9.65612   4
   1   0   1 11.1296 5.12101   6
  -1   0  -1 5.31017 7.37257  15
  -1   0  -1 5.67531 3.80704  11
   1   0   1 17.4520 7.72021  12
   1   0   1 10.5592 10.3350  16
  -1   0  -1 8.77332 9.52356  14
   1   0   1 1.94287 5.17243   2
  -1   0  -1 13.9621 7.73902   5
   1   0   1 17.6307 9.97912   3
   1   0   1 3.34517 1.50647  13
   1   0   0 9578.75 265.245  13
  -1   0   0 9824.31 216.138  14
  -1   0   0 9659.30 208.123  15
   1   0   0 9999.79 220.273  16
  -1  -1  -4 2327.97 148.063  15
   1   1   4 1906.73 150.222   2
  -1  -1  -4 2087.14 150.498   1
  -1  -1  -4 2255.06 148.594   4
   1   1   4 2640.06 165.252  16
   1  -1   3 2.17226 11.3809   2
  -1  -1  -3 2.87256 5.71346   7
   1   1   3 6.76968 15.0926   2
  -1  -1  -3 1.74773 8.17958  15
   1  -1   3 15.6970 12.6887   3
   1  -1   3 14.1316 8.86757  16
  -1  -1  -3 4.81260 6.35489   1
  -1   1  -3 3.18056 9.50890  15
  -1  -1  -3 0.70310 3.18461   5
  -1  -1  -3 23.9811 19.1034   4
  -1   1  -3 11.1348 8.55661   1
   1   1   3 10.4123 7.44539  16
  -1   1  -2 488.197 48.3465   4
  -1  -1  -2 462.628 51.4641  15
  -1  -1  -2 503.753 53.3111   1
   1  -1   2 487.360 54.1913   2
   1   1   2 491.855 52.6414  16
  -1   1  -2 480.452 54.9582  15
   1   1   2 476.222 41.7368   3
  -1  -1  -2 500.093 43.1756  14
   1  -1   2 442.725 51.8193   3
  -1   1  -2 467.930 53.8891   1
  -1  -1  -2 485.023 57.0380   4
  -1   1  -2 455.256 30.6610   7
   1   1   2 480.334 55.1928  13
  -1  -1  -2 483.859 49.8605   5
   1   1   2 499.519 52.3357   2
  -1  -1  -2 474.576 36.4232   7
  -1  -1  -2 487.896 34.2308   8
   1   1   2 479.599 34.2734  10
   1  -1   2 450.114 45.7908   6
   1  -1   2 461.610 31.8914   8
   1  -1   2 530.291 32.8809   5
   1  -1   2 490.466 55.5557  16
  -1  -1  -1 7925.31 190.356   5
  -1   1  -1 7992.64 121.865   7
  -1   1  -1 7919.67 194.227  15
  -1  -1  -1 7941.32 193.765  15
  -1  -1  -1 7941.71 156.027  14
  -1   1  -1 7953.10 205.228  14
  -1   1  -1 8031.24 184.005  11
  -1  -1  -1 7919.06 141.556   8
   1  -1   1 8046.63 179.893   6
   1  -1   1 8057.96 125.246   7
  -1   1  -1 8043.96 125.526   8
   1   1   1 7997.70 192.959  12
  -1  -1  -1 7988.47 206.729   4
   1   1   1 8185.58 196.224   2
  -1   1  -1 8049.73 199.791   1
  -1   1  -1 7988.87 165.407   4
   1   1   1 8016.49 155.050   3
   1  -1   1 7851.40 194.456   2
  -1   1  -1 8039.10 123.944  10
  -1  -1  -1 7835.05 194.117   1
   1   1   1 8014.07 208.005  13
  -1   1  -1 8053.93 125.990   9
   1  -1   1 8069.99 203.525   3
   1  -1   1 7872.51 122.184   8
   1   1   1 8283.16 201.442  16
   1  -1   1 7843.74 160.857  13
   1  -1   1 7708.69 193.748  16
   1   1   0 26806.4 521.153  13
   1  -1   0 27813.2 371.576   3
  -1   1   0 27301.6 371.873  14
   1  -1   0 27696.7 268.093   7
  -1   1   0 27626.4 343.015   1
   1  -1   0 27974.4 340.084   6
  -1   1   0 27460.9 341.636  11
   1  -1   0 27645.2 352.537  16
  -1   1   0 27589.2 273.295   4
  -1   1   0 27573.2 341.293  15
   1  -1   0 27778.9 343.632   2
  -1  -2  -5 1024.21 114.877  15
   1   2   4 5622.72 216.477  16
   1   2   4 5798.33 243.548   2
  -1  -2  -4 5468.11 230.945   4
  -1  -2  -4 5664.10 227.931   5
  -1  -2  -4 5404.14 182.285   7
  -1  -2  -4 5455.02 233.887   1
  -1  -2  -4 5408.59 207.981  15
  -1  -2  -3 2943.21 137.646  15
  -1  -2  -3 3024.47 126.234   7
   1   2   3 3000.86 139.761  16
  -1  -2  -3 3110.58 153.841   5
  -1   2  -3 3088.67 176.250  15
   1  -2   3 3116.92 198.686   3
   1  -2   3 2782.70 185.373  16
   1   2   3 3077.63 125.645  10
  -1  -2  -3 2908.40 158.259   4
   1   2   3 3085.66 162.135  13
  -1  -2  -3 3090.77 147.075   1
  -1  -2  -3 3038.28 123.917   8
   1   2   3 3173.29 147.564   2
   1  -2   2 540.770 60.7142   6
  -1  -2  -2 544.600 34.8085  14
   1   2   2 519.046 52.2395   2
  -1  -2  -2 543.766 53.0193   7
  -1  -2  -2 490.570 53.9529   1
   1   2   2 544.365 62.3750  12
   1   2   2 466.953 31.7901   3
  -1  -2  -2 551.024 54.7471  15
   1  -2   2 555.377 61.7283   2
  -1  -2  -2 522.472 60.0992   5
   1   2   2 515.354 53.2635  16
   1  -2   2 479.420 59.8535   3
   1   2   2 525.223 50.8767   9
   1  -2   2 506.249 58.2959  16
  -1  -2  -2 522.762 49.6372   8
   1  -2   2 510.783 46.2311   8
  -1   2  -2 540.909 58.3116  15
  -1  -2  -2 489.055 60.3119   4
   1   2   2 492.429 61.6656  13
  -1   2  -2 530.043 59.3421   1
   1  -2   1 3211.55 130.180   2
  -1   2  -1 3244.06 130.634   1
   1   2   1 2968.80 121.466  16
   1   2   1 3027.32 139.295  12
   1   2   1 3071.36 78.9995   3
  -1  -2  -1 3141.01 128.560   7
   1   2   1 3207.84 145.605  13
   1  -2   1 3128.43 127.558  16
  -1   2  -1 3201.24 127.086  15
   1   2   1 2984.14 122.583   9
  -1  -2  -1 3070.28 122.452   1
   1   2   1 3144.33 95.2923   6
   1  -2   1 3054.56 140.153   3
   1   2   1 3039.80 119.582   2
   1  -2   1 3063.12 111.808   8
   1  -2   1 3129.88 114.482   7
   1  -2   1 3135.58 87.4166  13
  -1  -2  -1 3044.75 142.106   4
   1  -2   1 3236.99 140.298   6
  -1  -2  -1 3049.93 120.804  15
  -1  -2  -1 3068.68 139.917   5
  -1  -2  -1 3136.48 121.586   8
  -1   2  -1 3196.41 146.775  14
  -1   2  -1 3211.40 116.352   9
   1  -2   0 1476.28 77.5680   2
  -1   2   0 1506.07 79.4402  15
  -1   2   0 1446.78 93.3465  14
   1  -2   0 1538.38 82.1285   7
   1  -2   0 1509.75 93.4982   6
   1  -2   0 1486.61 81.1066   8
  -1   2   0 1525.90 79.9368   1
  -1   2   0 1494.84 51.5882   5
  -1   2   0 1436.91 79.6477  10
   1  -2   0 1453.32 91.9023   3
  -1   2   0 1465.46 94.1750  11
   1  -2   0 1483.23 81.4722  16
   1  -2  -1 1346.07 91.2516   3
   1  -2  -1 1159.11 94.8107   8
  -1   2   1 1344.31 93.4909  14
   1  -2  -1 1309.03 83.8226   7
  -1   2   1 1105.50 90.1930  10
   1  -2  -1 1291.41 90.9157   6
  -1   2   1 1270.69 90.2084  11
  -1  -3  -5 18.0429 5.23013   7
  -1  -3  -5 6.57302 10.0874  15
  -1  -3  -5 52.8215 20.5985   4
  -1  -3  -5 6.66807 10.9182   5
   1   3   5 32.2219 20.5992  16
  -1  -3  -4 1450.97 68.7977   6
   1   3   4 1497.14 124.801  13
   1   3   4 1426.60 104.852  16
  -1  -3  -4 1565.45 117.093   8
  -1  -3  -4 1488.58 118.534   1
  -1  -3  -4 1439.07 103.516  15
  -1  -3  -4 1488.34 108.972   7
   1   3   4 1718.66 123.013  10
  -1  -3  -4 1407.73 122.906   4
   1   3   4 1559.58 123.037   2
  -1  -3  -4 1451.16 124.035   5
  -1  -3  -3 3560.97 105.177   6
  -1  -3  -3 3882.11 191.176   5
   1   3   3 3762.15 187.076  13
   1   3   3 3663.33 161.953  10
  -1  -3  -3 3752.72 165.634   8
  -1  -3  -3 3682.80 155.903   1
  -1  -3  -3 3752.97 153.450  15
   1   3   3 3883.52 159.715   2
   1   3   3 3720.26 152.996  16
  -1  -3  -3 3616.58 164.302   7
  -1  -3  -3 3737.20 188.058   4
   1   3   2 22.7994 13.3527  16
  -1  -3  -2 9.27332 8.88820   8
  -1  -3  -2 16.9806 12.0730   4
  -1  -3  -2 25.0847 15.4020   7
  -1   3  -2-1.48865 9.99843  15
   1  -3   2 24.1031 19.0904   6
   1  -3   2 7.97152 7.36150   8
   1   3   2 25.8046 13.8654  13
  -1  -3  -2 0.42903 7.15856  15
  -1   3  -2 13.5363 12.7967   1
   1   3   2 9.79050 9.72494   2
   1  -3   2 6.71722 6.17460  16
   1  -3   2 14.4503 13.0942   3
   1   3   2 23.9594 10.2721  11
  -1  -3  -2 26.7777 16.8508   5
   1  -3   2-0.57903 5.37040   2
   1   3   2 9.34511 9.93447   9
  -1  -3  -2-1.43103 5.58848   1
   1   3   2 16.6577 11.4988  12
   1  -3   1 28.7617 12.4516   6
   1  -3   1 34.7191 15.0330   2
  -1   3  -1 43.2180 18.0074  14
  -1   3  -1 30.2936 14.9323   1
   1   3   1 12.5410 12.6562  12
   1  -3   1 22.1158 13.4519   7
   1   3   1 23.8313 9.42817   2
  -1   3  -1 30.1282 10.3352  15
  -1  -3  -1 18.9145 10.4923   7
   1  -3   1 17.1406 12.1634  16
  -1   3  -1 21.5585 8.72414   9
  -1  -3  -1 20.9471 12.7557   4
   1  -3   1 29.5225 13.5069   3
   1  -3   1 23.0223 11.6920   8
   1  -3   1 28.1833 9.11830   5
   1   3   1 8.20357 6.75771  13
   1   3   1 24.5226 10.7797   9
  -1  -3  -1 16.1025 10.1777   5
  -1  -3  -1 22.0397 11.2146   8
  -1  -3  -1 39.1850 13.1526   1
  -1   3   0 143.389 31.9684  14
   1  -3   0 156.995 33.9104   6
  -1   3   0 140.124 33.8219  11
  -1   3   0 153.723 25.2583  15
   1  -3   0 140.930 21.5144   5
  -1   3   0 151.746 22.7470  12
   1  -3   0 160.702 26.8037   2
   1  -3   0 132.760 29.8198   3
   1  -3   0 160.992 27.4096  16
   1  -3   0 150.558 31.3228   8
  -1  -3   0 146.240 42.7874   5
  -1   3   0 149.380 32.8241  10
  -1   3   0 179.074 27.9483   1
   1  -3   0 149.753 30.0136   7
   1  -3  -1 11289.5 298.318   6
  -1   3   1 11212.5 277.228  14
  -1   3   1 11210.1 280.845  10
   1  -3  -1 10969.9 268.948   3
   1  -3  -1 11076.3 277.784   8
   1  -3  -1 11501.0 284.116   7
   1  -3  -1 10900.6 200.054   2
  -1   3   1 10955.8 293.639  11
  -1   3   1 10997.1 201.097   1
  -1   3   2 783.586 91.5831  10
   1  -3  -2 780.135 82.9257   6
   1  -3  -2 827.080 86.2025   7
   1  -3  -2 853.592 94.6050   8
  -1  -4  -6-21.0340 20.8098  15
  -1  -4  -6 15.1879 9.09846   5
  -1  -4  -6 19.6064 10.3598   6
  -1  -4  -6 4.37892 16.6872   7
  -1  -4  -5 18.1784 10.0089   6
   1   4   5 1.22997 12.1283  13
  -1  -4  -5 30.1670 15.9044  15
   1   4   5 10.7573 8.25577  10
  -1  -4  -5 31.2679 18.9100   5
  -1  -4  -5-6.80589 19.9407   4
  -1  -4  -5-9.75329 12.4604   8
  -1  -4  -5 39.8757 18.5080   7
   1   4   5-10.6961 8.94730  16
  -1  -4  -4 82.4446 33.1631   8
   1   4   4 39.6187 13.2058  13
   1   4   4 50.3238 17.4557  10
  -1  -4  -4 38.8182 4.39690   4
   1   4   4 14.7147 15.4826   2
   1   4   4 66.2331 20.3233  16
  -1  -4  -4 47.6136 27.0706   5
  -1  -4  -4 59.9046 20.2488  15
  -1  -4  -4 39.4193 21.9094   7
  -1  -4  -4 67.3701 17.5079   6
   1   4   3 704.760 64.1702  16
  -1  -4  -3 648.266 56.5296   6
  -1  -4  -3 722.284 66.3848   1
  -1  -4  -3 730.138 87.6688   4
  -1  -4  -3 676.822 82.5121   7
  -1  -4  -3 671.756 61.8229  15
   1   4   3 722.211 82.2467  10
   1   4   3 629.837 60.1551   2
   1   4   3 721.103 58.8482  11
  -1  -4  -3 693.975 83.1081   8
   1   4   3 695.095 85.8126  13
  -1  -4  -3 666.521 88.6177   5
   1   4   2 3423.51 179.966  13
   1  -4   2 3101.25 219.296   7
   1   4   2 3381.75 132.407   2
   1   4   2 3405.13 194.674  12
   1  -4   2 3441.69 194.202   3
   1   4   2 3224.15 146.499  16
  -1  -4  -2 3334.17 135.429   1
   1  -4   2 3298.76 189.577   6
   1  -4   2 3295.40 155.532  16
  -1  -4  -2 3306.29 180.212   7
  -1   4  -2 3396.35 214.269   9
  -1  -4  -2 3219.81 191.820   5
   1  -4   2 3511.11 135.952   5
  -1   4  -2 3259.23 150.076  15
  -1  -4  -2 3229.90 174.378   8
   1  -4   2 3263.50 170.373   8
  -1  -4  -2 3122.95 150.779  15
   1   4   2 3137.77 172.444   9
  -1  -4  -2 3312.67 177.866   4
  -1  -4  -1 71.7814 30.6605   7
   1  -4   1 59.9838 19.6842   7
   1   4   1 64.7849 25.0249  12
  -1   4  -1 93.9062 29.7939  14
  -1  -4  -1 48.0862 18.9585   8
  -1   4  -1 83.7817 19.8398  15
   1  -4   1 70.6236 17.5188   5
  -1  -4  -1 83.4851 26.6524   4
   1   4   1 68.9892 13.4608  13
  -1  -4  -1 61.5074 15.0799   1
   1  -4   1 67.1533 23.6993   6
   1  -4   1 63.1064 15.7935   3
  -1  -4  -1 70.6029 25.8836   5
   1   4   1 66.8184 27.1075   9
   1  -4   1 79.8220 19.9933  16
  -1   4  -1 93.3119 27.9439   9
   1   4   1 77.5875 18.7721   2
   1  -4   1 60.7747 20.0924   8
   1  -4   0 1174.23 108.718   6
   1  -4   0 1175.19 99.9950   3
   1  -4   0 1132.13 71.0750  16
  -1   4   0 1173.58 100.423  14
  -1   4   0 1150.58 108.271  11
   1  -4   0 1183.41 105.056   8
   1  -4   0 1126.11 100.898   7
  -1   4   0 1094.30 99.1893   9
  -1   4   0 1160.34 78.5739  12
   1  -4   0 1147.11 77.5552   5
  -1   4   0 1130.52 68.7771  15
  -1  -4   0 986.211 130.193   5
   1  -4   0 1124.12 70.1824   2
  -1  -4   0 1161.22 175.012   8
  -1   4   0 1105.57 69.3587   1
  -1   4   1 3505.95 111.270   1
  -1   4   1 3511.94 167.013  14
   1  -4  -1 3522.82 150.252   5
   1  -4  -1 3473.40 177.031   7
   1  -4  -1 3499.24 184.307   6
  -1   4   1 3409.73 178.353  10
   1  -4  -1 3406.93 162.625   3
   1  -4  -1 3471.85 181.045   8
  -1   4   1 3364.42 181.984  11
   1  -4  -1 3511.06 111.145   2
   1  -4  -2 7256.83 163.838   2
  -1   4   2 7383.91 164.645   1
  -1   4   2 7125.47 264.591  11
   1  -4  -2 7082.73 234.944   3
   1  -4  -2 6990.95 263.147   6
  -1   4   2 6814.27 260.147  10
   1  -4  -2 6899.14 262.261   7
   1  -4  -2 6954.69 265.503   8
  -1   4   3 319.173 84.1313  10
   1  -4  -3 201.357 50.4552   6
   1  -4  -3 311.512 80.0972   8
   1  -4  -3 225.187 60.0110   7
   1   5   6 65.3054 76.9705  13
  -1  -5  -6 315.025 47.6254   6
  -1  -5  -6 300.099 62.8255   7
  -1  -5  -6 351.822 79.9361   4
  -1  -5  -6 335.888 80.8514   5
  -1  -5  -6 327.003 56.4847  15
   1   5   6 84.7432 56.3237  16
  -1  -5  -5 410.803 54.1733  15
   1   5   5 196.120 74.7397  13
   1   5   5 261.433 60.1635  16
  -1  -5  -5 317.004 65.8915   4
   1   5   5 390.244 68.5489  10
  -1  -5  -5 359.775 72.4648   7
  -1  -5  -5 392.349 50.8603   6
  -1  -5  -5 396.208 79.8708   5
  -1  -5  -5 500.843 86.0211   8
  -1  -5  -4 5739.53 196.867  15
  -1  -5  -4 5660.35 197.260   6
  -1  -5  -4 5696.18 266.212   8
  -1  -5  -4 5537.96 264.905   7
  -1  -5  -4 5663.58 272.857   4
   1   5   4 5551.96 259.595  10
  -1  -5  -4 5593.44 286.942   5
  -1  -5  -3 1.52590 14.9732   7
   1   5   3 13.6202 20.9640  12
   1   5   3 55.4862 18.6426  16
   1   5   3 25.4151 12.4411  13
  -1  -5  -3 22.3876 4.36141   6
  -1  -5  -3 57.4504 31.6512   5
  -1  -5  -3 41.5869 16.2323  15
  -1  -5  -3 44.0900 24.9324   4
   1   5   3 10.4762 23.6471   9
   1   5   3 41.4854 26.8892  10
   1   5   3 30.4561 12.4641  11
   1   5   3 31.3030 15.6878   2
  -1  -5  -3 17.7723 3.52771   1
  -1  -5  -3 75.6291 30.0302   8
   1   5   2 6479.40 265.025  13
   1  -5   2 6854.65 233.541  16
   1   5   2 6478.16 180.336   2
   1   5   2 6514.31 278.943   9
  -1  -5  -2 6551.14 281.967   7
   1  -5   2 6462.17 274.877   8
  -1  -5  -2 6637.89 186.734   1
  -1   5  -2 6309.02 216.489  15
   1  -5   2 6520.06 216.278   5
  -1  -5  -2 6345.71 286.951   5
  -1   5  -2 6618.39 337.813   9
   1  -5   2 5754.23 337.814   7
   1  -5   2 6614.78 317.594   3
  -1  -5  -2 6523.41 277.843   8
   1  -5   2 6522.43 304.973   6
  -1  -5  -2 6193.86 259.749   4
  -1   5  -1 67.4058 21.1994  14
   1  -5   1 60.7346 25.0746   8
  -1   5  -1 68.3478 20.3421  15
  -1  -5  -1 44.6225 29.8986   7
  -1  -5  -1 41.9561 14.4141   4
   1  -5   1 55.8577 17.0112  16
   1   5   1 63.9871 29.6014   9
   1  -5   1 90.3009 37.2609   6
   1   5   1 69.3585 25.6250  12
  -1  -5  -1 50.9993 26.0600   5
   1   5   1 32.5865 27.1953  13
  -1   5  -1 75.8951 24.5875   9
   1  -5   1 62.0264 20.1502   5
   1   5   1 70.8344 16.6668   2
   1  -5   1 44.5410 25.2178   3
   1  -5   1 96.7567 36.0081   7
  -1  -5  -1 36.7979 3.56646   8
  -1  -5  -1 64.6451 16.3889   1
  -1   5   0 3012.19 111.978  15
   1  -5   0 3127.82 152.984   5
   1  -5   0 3145.79 177.986   3
   1  -5   0 3239.73 204.137   6
  -1   5   0 3078.42 149.845  12
  -1  -5   0 2805.91 269.767   5
   1  -5   0 3000.47 184.345   7
  -1   5   0 3190.34 178.040  14
   1  -5   0 3117.31 119.262  16
  -1   5   0 3140.66 191.182   9
   1  -5   0 3210.28 192.353   8
  -1  -5   0 2998.99 318.639   8
  -1   5   0 3135.09 198.538  11
   1  -5  -1 70.0443 32.4784   7
  -1   5   1 51.1715 19.5853  14
  -1   5   1 65.9806 22.4603  12
   1  -5  -1 51.3173 19.7930   3
   1  -5  -1 65.9278 29.6504   8
   1  -5  -1 78.9882 16.7088   2
  -1   5   1 39.3454 6.96802  11
  -1   5   1 50.4132 25.0512  10
  -1   5   1 59.0692 11.3890   1
   1  -5  -1 70.4541 23.5711   5
   1  -5  -1 41.5358 16.7980   6
  -1   5   2 174.747 43.0435  11
   1  -5  -2 214.335 52.0413   7
  -1   5   2 177.608 21.1564   1
   1  -5  -2 146.805 40.0754   6
  -1   5   2 179.816 23.4249  13
  -1   5   2 181.927 49.8004  10
   1  -5  -2 211.137 23.2946   2
   1  -5  -2 191.051 43.8505   5
   1  -5  -2 185.904 38.5206   3
  -1   5   2 170.338 45.0155  14
   1  -5  -2 183.530 44.7313   8
   1  -5  -3 505.695 67.5090   3
   1  -5  -3 480.487 80.1788   7
  -1   5   3 499.842 87.4671  10
   1  -5  -3 574.222 88.2049   8
   1  -5  -3 454.526 74.7688   6
  -1  -6  -7 14.3437 8.95248   7
   1   6   7 13.0217 14.5685  13
  -1  -6  -6 124.625 46.9231   7
  -1  -6  -6 100.979 30.7958  15
   1   6   6 146.647 57.8476  10
  -1  -6  -6 139.310 37.5343   6
  -1  -6  -6 136.906 60.4536   5
   1   6   6 11.2483 45.2237  13
  -1  -6  -6 160.931 56.8040   4
  -1  -6  -6 99.6033 51.4159   8
  -1  -6  -5 297.754 76.6404   5
   1   6   5 279.747 66.4011  10
   1   6   5 160.722 50.9379  16
   1   6   5 16.9284 69.3342  12
  -1  -6  -5 235.450 58.2476   7
   1   6   5 89.9607 59.9107  13
  -1  -6  -5 323.970 50.2655  15
  -1  -6  -5 278.006 49.2633   6
  -1  -6  -5 213.423 55.7933   4
  -1  -6  -5 314.320 71.4123   8
  -1  -6  -4 110.276 42.5816   8
  -1  -6  -4 97.2178 41.5734   7
   1   6   4 60.0928 48.1560  13
   1   6   4 77.2054 25.1264  10
   1   6   4 43.1341 27.4436  16
  -1  -6  -4 110.684 32.7552   6
   1   6   4 4.77599 42.6177  12
   1   6   4 29.1684 31.4917   9
  -1  -6  -4 108.571 49.3062   5
  -1  -6  -4-11.6888 25.7303  15
  -1  -6  -4 57.2680 32.4210   4
  -1  -6  -3 36.3628 20.3861   5
  -1  -6  -3 16.1274 19.4689   6
   1   6   3-2.98451 7.47561   9
   1   6   3 14.0474 7.23446  11
   1   6   3 44.1694 25.8507  10
  -1  -6  -3 53.5703 32.2518   4
   1   6   3 26.2878 13.6788   2
   1   6   3 44.8582 32.3427  12
  -1  -6  -3 11.5602 20.9121   7
   1   6   3-0.25511 16.8154  13
  -1  -6  -3 2.10323 17.8097   8
   1  -6   2 1099.49 177.969   7
  -1  -6  -2 1341.26 143.183   5
   1   6   2 1376.59 142.009  12
  -1  -6  -2 1334.11 126.543   4
   1  -6   2 1578.21 170.907   6
   1  -6   2 1561.25 118.077  16
   1  -6   2 1436.07 120.906   5
   1   6   2 1406.02 115.824  11
   1   6   2 1370.85 141.013   9
  -1  -6  -2 1443.41 145.857   7
  -1  -6  -2 1399.50 142.600   8
   1  -6   2 1496.26 155.923   8
   1   6   2 1314.68 78.9564   2
  -1  -6  -2 1449.16 86.3073   1
  -1   6  -2 1429.45 108.669  15
   1  -6   1 109.744 45.2064   6
   1   6   1 70.7454 24.5474  12
   1   6   1 70.8840 14.0512  14
   1  -6   1 69.7089 17.6070  16
  -1  -6  -1 62.9236 25.9969   4
   1  -6   1 60.4350 16.9201   8
   1  -6   1 106.226 39.8973   3
  -1   6  -1 77.3207 34.0788  14
  -1   6  -1 88.9597 38.7318   9
   1   6   1 112.716 24.6099   2
  -1  -6  -1 108.583 39.3573   8
   1   6   1 80.8198 39.6875   9
  -1  -6  -1 111.332 43.1557   7
   1  -6   1 69.3844 25.2131   5
  -1  -6  -1 65.2714 28.9720   5
  -1   6  -1 80.8985 17.5246  15
  -1  -6  -1 84.3859 15.0857   1
   1  -6   1 101.176 31.6631   7
   1  -6   0 1160.28 125.813   7
  -1   6   0 1151.75 112.911  14
   1  -6   0 1187.46 132.575   6
  -1   6   0 1244.95 131.770  11
   1  -6   0 1246.11 106.555   5
  -1   6   0 1160.34 104.396  12
  -1   6   0 1198.57 129.035   9
  -1   6   0 1200.54 72.0763  15
   1  -6   0 1170.58 126.507   8
   1  -6   0 1190.59 112.823   3
   1  -6   0 1030.60 75.3240  16
   1  -6  -1 1216.77 130.838   7
   1  -6  -1 1182.86 130.923   6
  -1   6   1 1145.88 107.392  12
   1  -6  -1 1118.56 105.432   5
  -1   6   1 1276.58 137.080  11
  -1   6   1 1147.99 128.517   9
   1  -6  -1 1124.59 126.623   8
   1  -6  -1 1211.87 113.733   3
  -1   6   1 1225.98 132.274  10
  -1   6   1 1149.22 108.241  14
  -1   6   2 363.064 68.7778  14
   1  -6  -2 342.738 62.3932   5
  -1   6   2 318.341 56.9115  12
   1  -6  -2 383.487 77.2757   7
  -1   6   2 348.256 69.0938  10
  -1   6   2 328.266 68.9044  11
   1  -6  -2 316.904 54.3179   3
   1  -6  -2 359.408 71.8642   6
   1  -6  -2 297.904 61.6382   8
  -1   6   3 308.424 39.6300  13
   1  -6  -3 214.838 54.5891   5
  -1   6   3 309.658 65.4793  11
   1  -6  -3 216.102 43.7962   8
   1  -6  -3 326.440 54.9593   3
   1  -6  -3 290.992 62.2949   6
  -1   6   3 364.204 71.3366  10
   1  -6  -3 293.851 62.6654   7
   1  -6  -4 2239.40 198.759   6
   1  -6  -4 1981.11 146.900   3
   1  -6  -4 2649.30 235.691   8
  -1   6   4 2482.08 221.999  10
   1  -6  -4 2498.27 221.880   7
   1   7   7 282.230 190.837  13
  -1  -7  -7 775.272 129.394   7
   1   7   7 148.160 162.403  12
  -1  -7  -7 983.055 167.774   5
   1   7   6 4.89566 32.3553  13
   1   7   6 54.7732 55.2637   9
  -1  -7  -6 53.0753 40.0236   7
  -1  -7  -6 26.4338 29.5587   8
  -1  -7  -6 31.0307 31.7163   5
   1   7   6 74.8028 40.9502  10
   1   7   6 13.0132 34.3688  12
  -1  -7  -6 84.0200 43.3621   4
   1   7   5 10.2148 48.2674  13
   1   7   5 185.922 62.8367  10
  -1  -7  -5 114.370 37.2849   6
   1   7   5 22.2955 53.6568  12
  -1  -7  -5 172.105 56.4365   4
  -1  -7  -5 181.167 54.3654   5
   1   7   5-5.26301 29.6277   9
  -1  -7  -5 168.925 53.5642   7
  -1  -7  -5 132.900 49.0776   8
  -1  -7  -4 226.805 58.3129   4
   1   7   4 68.8492 72.3731   9
  -1  -7  -4 132.004 41.3582   8
  -1  -7  -4 224.056 58.9317   6
   1   7   4 208.796 45.6029  11
   1   7   4 190.234 54.4721  13
  -1  -7  -4 168.248 51.7599   7
   1   7   4 14.1453 50.2710  12
   1   7   4 210.541 61.5534  10
  -1  -7  -4 211.194 64.9905   5
  -1  -7  -3 227.183 62.5019   7
   1   7   3 225.894 59.2849  13
  -1  -7  -3 233.404 56.6246   4
  -1  -7  -3 304.334 128.118   6
   1   7   3 247.452 54.1222  11
   1   7   3 70.6346 65.4884   9
   1   7   3 231.481 61.9136  10
  -1  -7  -3 205.443 59.2983   5
   1   7   3 28.4745 58.3056  12
  -1  -7  -3 261.265 74.3724   8
   1  -7   2 347.836 98.9169   6
  -1  -7  -2 391.001 85.1651   7
  -1   7  -2 424.430 89.7330  14
   1   7   2 379.541 80.4869  12
   1  -7   2 434.383 86.6441   5
   1   7   2 422.760 72.9626  11
  -1  -7  -2 383.963 85.4143   5
   1  -7   2 363.597 99.1852   8
   1   7   2 349.473 75.0255   9
   1  -7   2 435.141 67.8271  16
  -1   7  -2 458.195 73.8527  15
  -1  -7  -2 396.950 73.6464   4
  -1  -7  -2 417.790 83.5729   8
   1  -7   1 189.200 40.9062  16
  -1   7  -1 152.287 53.4974  14
  -1  -7  -1 178.334 63.3301   8
   1  -7   1 124.270 48.3478   6
  -1  -7  -1 169.320 56.6772   4
  -1  -7  -1 167.165 69.3300   5
   1  -7   1 158.495 55.6734   7
  -1  -7  -1 140.551 54.8226   7
   1   7   1 96.4501 31.4799   9
   1  -7   1 129.452 44.4163   5
  -1   7  -1 75.8413 38.7032   9
   1  -7   1 132.167 44.2196   8
   1  -7   0 665.105 105.179   6
   1  -7   0 574.014 80.9114   5
  -1   7   0 642.452 99.5084   9
   1  -7   0 614.260 102.567   7
   1  -7   0 618.695 89.1478   3
  -1   7   0 627.929 101.504  11
  -1   7   0 614.245 85.8755  14
   1  -7   0 592.905 98.4030   8
   1  -7  -1 16.9443 13.1180   7
  -1   7   1 21.8268 25.2927  11
   1  -7  -1 63.2679 23.6663   3
  -1   7   1 36.5063 27.7122  10
   1  -7  -1 66.5575 29.2991   6
   1  -7  -1 76.8568 32.5988   5
  -1   7   1 71.2227 27.2605  14
  -1   7   1 56.6111 31.1269   9
  -1   7   1 69.1406 20.7185  12
   1  -7  -1 57.9674 28.9631   8
   1  -7  -2 53.3825 24.7527   3
   1  -7  -2 73.8586 26.9458   5
   1  -7  -2 81.9617 37.7897   6
   1  -7  -2 19.5708 12.6097   7
  -1   7   2 55.4998 20.5733  12
  -1   7   2-4.72343 17.9698  14
  -1   7   2 92.4311 42.7366  11
  -1   7   2 54.6813 26.5070  10
  -1   7   2 43.8205 16.1441   9
   1  -7  -2 65.1271 45.2660   8
   1  -7  -3 427.796 87.6963   5
   1  -7  -3 409.986 68.9928   3
  -1   7   3 445.156 83.8463  11
   1  -7  -3 415.179 86.1070   7
  -1   7   3 405.181 73.0462  12
   1  -7  -3 398.646 83.2997   6
  -1   7   3 354.566 83.6282  10
   1  -7  -3 444.170 87.8930   8
   1  -7  -4 15.5892 17.0343   7
   1  -7  -4 38.9643 31.8878   6
  -1   7   4 88.2379 45.5885  10
   1  -7  -4 24.3219 15.3064   8
   1  -7  -4-1.19866 24.7948   3
   1   8   7 32.6833 96.4232  13
   1   8   7 10.9383 58.5424   9
   1   8   7 15.2138 8.21635  12
  -1  -8  -7 237.237 81.1509   7
  -1  -8  -7 211.349 79.9493   5
   1   8   6 7.92502 34.9183  12
  -1  -8  -6 162.437 58.6066   7
   1   8   6 40.1182 49.3058  13
   1   8   6 192.962 78.5706  10
  -1  -8  -6 221.942 75.6528   5
   1   8   6 7.20174 66.4982   9
  -1  -8  -6 204.086 77.3450   8
   1   8   5 5.74718 39.5592   9
   1   8   5 34.3288 24.6520  13
  -1  -8  -5 87.7050 36.8209   7
  -1  -8  -5 50.2423 43.2160   5
   1   8   5-22.4057 38.0089  10
  -1  -8  -5 99.8850 56.0502   8
  -1  -8  -5 105.645 46.9525   4
  -1  -8  -4 18.3372 35.6635   5
  -1  -8  -4 29.7773 46.9120   7
  -1  -8  -4 9.65314 11.6073   4
   1   8   4-20.0809 27.7328  10
  -1  -8  -4 46.2854 60.5015   6
   1   8   4-1.88312 39.6221  12
   1   8   4-6.17276 15.3856  13
  -1  -8  -4 38.7693 29.7487   8
   1   8   4-3.35352 11.6212   9
   1   8   3 524.982 105.253  12
  -1  -8  -3 418.077 97.4516   7
  -1  -8  -3 446.491 83.9878   4
   1   8   3 298.596 97.6264  13
   1   8   3 463.698 80.4408  11
  -1  -8  -3 439.156 101.827   5
   1   8   3 403.018 85.7624  10
   1   8   3 157.018 104.535   9
  -1  -8  -3 419.294 96.1210   8
  -1  -8  -2-64.9836 43.3159   4
   1  -8   2-18.9521 90.1419   8
  -1  -8  -2 34.9037 36.3422   7
   1   8   2-10.3973 31.6549  12
   1   8   2-13.1949 21.4319  11
  -1  -8  -2 37.5566 19.4266   8
  -1  -8  -2 15.4485 19.1920   5
   1   8   2-1.65590 13.7383   9
  -1   8  -1 89.4630 35.3068  14
   1  -8   1 186.232 77.7177   7
  -1  -8  -1 165.260 106.668   7
   1  -8   1 39.6791 15.6271   8
  -1  -8  -1 100.384 66.7846   8
  -1  -8  -1 188.678 84.3478   4
   1  -8   1 151.999 58.3002   6
  -1  -8  -1 79.3416 49.1638   5
   1  -8   1 107.831 30.3475   5
  -1   8  -1 196.653 64.9766   9
  -1   8   0 31.3984 31.3035  14
   1  -8   0 13.8473 12.3556   7
   1  -8   0 80.9252 49.4007   6
  -1   8   0 91.2786 54.0055  11
  -1   8   0 9.83038 24.1914  10
   1  -8   0 27.9356 19.3246   5
  -1   8   0-7.20957 20.4256   9
   1  -8   0 33.6824 37.4995   8
   1  -8  -1 787.146 117.792   7
  -1   8   1 834.812 105.742  14
  -1   8   1 856.762 130.463  11
   1  -8  -1 728.266 90.7253   3
  -1   8   1 927.684 118.460  12
   1  -8  -1 727.857 97.4022   5
   1  -8  -1 831.821 125.787   6
  -1   8   1 769.712 121.399  10
  -1   8   1 921.132 133.254   9
   1  -8  -1 804.526 125.957   8
   1  -8  -2 316.776 64.9514   5
  -1   8   2 334.714 77.5849  14
   1  -8  -2 333.238 73.3614   7
   1  -8  -2 398.224 88.7353   6
   1  -8  -2 354.483 66.5411   3
  -1   8   2 426.189 89.9714  11
  -1   8   2 396.859 92.6657  10
  -1   8   2 345.920 72.6698  12
  -1   8   2 338.843 82.1350   9
   1  -8  -2 370.802 84.4695   8
  -1   8   3 963.894 140.511  10
   1  -8  -3 1026.60 114.707   3
  -1   8   3 944.755 122.000  12
   1  -8  -3 984.980 140.218   6
   1  -8  -3 1114.54 143.420   5
   1  -8  -3 993.675 145.990   7
  -1   8   3 1004.38 137.131  11
  -1   8   3 977.289 144.233   9
   1  -8  -3 976.904 140.820   8
   1  -8  -4 177.814 61.7472   7
  -1   8   4 200.629 63.2699  12
   1  -8  -4 132.975 58.1488   6
   1  -8  -4 196.760 48.4342   3
  -1   8   4 167.254 66.3003  10
   1  -8  -4 228.989 77.5826   8
   1  -8  -5 1304.92 206.156   7
   1  -8  -5 1279.00 202.805   8
   1  -8  -5 1525.27 227.751   6
  -1  -9  -7 118.009 72.9304   7
   1   9   7 10.1935 84.0834  12
  -1  -9  -7 184.343 90.6384   5
   1   9   7 1.41443 24.8336   9
  -1  -9  -6 56.7226 38.8658   7
   1   9   6 2.51306 46.8458  12
   1   9   6 24.3138 42.0925  13
   1   9   6-12.3920 28.1469  10
   1   9   6 1.59880 36.4356   9
  -1  -9  -6 77.2843 45.6265   8
  -1  -9  -6 25.8781 30.4712   5
   1   9   5 53.4844 34.6640  13
  -1  -9  -5-16.6447 36.5072   7
   1   9   5 3.70457 46.4488  12
  -1  -9  -5 59.8574 38.4206   4
  -1  -9  -5 42.3181 11.0516   5
   1   9   5 0.66212 19.7652   9
   1   9   5 90.0978 61.7921  10
  -1  -9  -5 59.6322 39.4356   8
  -1  -9  -4 178.430 59.3037   4
   1   9   4 9.20603 79.6304  12
   1   9   4 240.808 84.0570  10
   1   9   4 149.004 75.2899  13
  -1  -9  -4 139.448 49.2805   5
  -1  -9  -4 161.719 60.3314   7
   1   9   4 28.3050 60.3340   9
  -1  -9  -4 191.325 58.2058   8
   1   9   3 120.540 60.8539  10
  -1  -9  -3 172.388 59.8460   4
  -1  -9  -3 89.8317 41.5807   7
  -1  -9  -3 105.412 28.2241   5
   1   9   3 103.616 59.0024  12
   1   9   3 137.825 74.2253   9
  -1  -9  -3 138.427 54.0739   8
  -1  -9  -2 1371.71 215.731   7
   1   9   2 1239.49 156.657  11
  -1  -9  -2 1657.36 235.177   5
  -1  -9  -2 1518.21 223.472   8
  -1  -9  -2 1294.88 179.874   4
  -1   9  -1 42.8372 16.4213  14
   1  -9   1 97.5595 57.4408   7
   1  -9   1 77.2252 69.8650   8
  -1   9  -1-17.7146 34.7657  11
   1  -9   1 3.13112 35.4705   5
   1  -9   1 68.8752 91.3406   6
  -1   9   0 1457.11 177.164  14
   1  -9   0 1297.48 179.383   7
  -1   9   0 1095.82 162.480  11
  -1   9   0 1194.70 168.690   9
   1  -9   0 1243.84 161.530   5
  -1   9   0 1143.44 160.913  10
   1  -9   0 1157.37 168.981   6
   1  -9   0 1309.33 178.757   8
  -1   9   1 544.489 109.894  10
  -1   9   1 644.549 117.714  11
   1  -9  -1 695.156 126.113   7
   1  -9  -1 634.242 109.338   5
   1  -9  -1 693.540 124.556   6
  -1   9   1 512.544 105.970   9
   1  -9  -1 635.795 118.205   8
   1  -9  -2 977.243 147.155   8
   1  -9  -2 1054.25 154.729   7
   1  -9  -2 1014.25 151.005   6
  -1   9   2 1070.17 136.435  12
  -1   9   2 1095.35 151.023  11
   1  -9  -2 1075.69 139.742   5
  -1   9   2 999.270 155.805  10
  -1   9   2 969.225 144.398   9
  -1   9   3 144.003 55.1815  11
   1  -9  -3 145.522 62.7564   6
  -1   9   3 118.596 45.4044  12
   1  -9  -3 141.166 57.3494   7
   1  -9  -3 119.005 60.5600   5
  -1   9   3 105.463 53.0687  10
  -1   9   3 125.267 56.1759   9
   1  -9  -3 134.924 47.2354   8
   1  -9  -4 281.063 90.7759   7
   1  -9  -4 318.571 85.7918   8
   1  -9  -4 330.985 93.3390   6
  -1   9   4 296.719 76.7673  12
  -1   9   4 298.130 87.1962  10
  -1   9   4 267.851 74.2505   9
   1  -9  -5 98.4942 38.5807   7
   1  -9  -5 59.6563 45.8425   6
  -1   9   5 79.9730 39.2610  12
  -1   9   5 45.7478 49.3564  10
   1  -9  -5 100.302 53.4833   8
   1  10   7-2.19979 100.812  12
  -1 -10  -7 72.6833 66.9842   5
   1  10   7 1.63954 29.7126   9
  -1 -10  -7-3.90675 32.6512   7
  -1 -10  -7-97.6336 103.950   8
  -1 -10  -6 117.079 52.6899   7
   1  10   6 0.43314 50.4229  12
  -1 -10  -6 58.2219 58.1312   5
   1  10   6 91.4845 51.1828  10
   1  10   6 7.39472 17.0837   9
  -1 -10  -6 10.9805 54.3257   8
  -1 -10  -5 419.902 108.367   7
   1  10   5 20.3281 108.618  12
   1  10   5 463.421 114.466  10
  -1 -10  -5 350.849 98.4139   5
   1  10   5 477.130 121.167   9
  -1 -10  -5 500.470 118.046   8
  -1 -10  -4-29.2000 59.9902   7
  -1 -10  -4 37.1614 25.3452   5
   1  10   4-12.4637 33.8074  10
   1  10   4-0.19053 47.8068   9
   1  10   4-7.07323 33.5400  12
  -1 -10  -4 4.06643 47.9296   8
  -1 -10  -3 39.9593 46.5325   7
   1  10   3-5.95338 47.7982  10
  -1 -10  -3 27.4087 31.3668   5
   1  10   3 92.8934 51.1420   9
  -1 -10  -3 115.710 82.6804   8
   1  10   2 171.563 97.6013  10
  -1 -10  -2 350.409 160.517   5
  -1 -10  -2 45.2215 103.960   8
   1 -10   0-17.6872 21.2514   7
   1 -10   0 3.96661 33.9982   6
  -1  10   0 100.860 68.6486  11
  -1  10   0 10.3422 30.9491  10
   1 -10   0-127.077 138.865   5
  -1  10   0-23.6853 36.4978   9
   1 -10   0-11.2399 22.6389   8
   1 -10  -1 143.398 60.0285   7
  -1  10   1 158.568 69.6552  10
   1 -10  -1 116.382 48.4863   6
   1 -10  -1 151.537 59.0478   5
  -1  10   1 149.309 60.1289   9
   1 -10  -1 179.650 76.4653   8
  -1  10   1 180.412 68.4421  11
   1 -10  -2 9.25441 16.1036   7
   1 -10  -2 29.8740 40.7344   6
   1 -10  -2 36.2411 37.7690   5
  -1  10   2 13.0197 15.7414  10
  -1  10   2 27.8322 41.6290  11
  -1  10   2-15.6235 29.6307   9
   1 -10  -2-66.0276 65.9215   8
   1 -10  -3 30.9393 14.1805   7
  -1  10   3 158.536 71.8733  11
  -1  10   3 94.2602 45.2080  12
   1 -10  -3 90.3470 60.3197   6
   1 -10  -3 44.8055 19.0667   5
  -1  10   3 132.310 68.2625  10
  -1  10   3 177.062 76.6159   9
   1 -10  -3 48.8029 34.4950   8
   1 -10  -4 617.067 153.199   6
  -1  10   4 451.356 103.028  12
  -1  10   4 471.873 109.945  10
  -1  10   4 329.497 88.5628   9
   1 -10  -4 497.120 121.962   7
   1 -10  -4 521.922 136.820   8
   1 -10  -5-16.7501 55.7980   7
   1 -10  -5-88.4305 79.1973   6
  -1  10   5-51.5281 36.8512  12
  -1  10   5-59.4904 46.2894  10
  -1  10   5-72.8563 88.4887   9
   1 -10  -5 13.4290 40.4388   8
  -1 -11  -6-38.2324 78.7627   7
   1  11   6 10.4857 20.1183  12
  -1 -11  -6 38.3289 48.6706   5
   1  11   6 137.891 77.8775  10
   1  11   6 55.1303 52.4188   9
  -1 -11  -6 83.5767 49.8380   8
  -1 -11  -5-10.5285 34.1744   7
   1  11   5 14.1204 54.0413  12
   1  11   5 68.5396 32.1890  10
  -1 -11  -5 0.24148 8.60742   5
   1  11   5-15.1754 33.2347   9
  -1 -11  -5-38.9302 41.8671   8
  -1 -11  -4 28.5143 29.8140   7
   1  11   4-55.4944 47.7412  10
  -1 -11  -4-49.0832 73.5825   5
   1  11   4 58.4404 59.9366   9
  -1 -11  -4-27.5926 59.6476   8
   1  11   3 200.832 63.6781  10
  -1 -11  -3 128.769 119.105   7
  -1 -11  -3 198.780 99.4932   5
  -1 -11  -3 243.115 100.296   8
  -1  11   0-32.4737 73.3159  11
  -1  11   0 104.275 94.6558  10
   1 -11   0 66.9666 50.2915   8
   1 -11  -1-35.2234 82.5784   6
  -1  11   1 77.6645 62.9699  11
   1 -11  -1 42.7068 48.3849   7
  -1  11   1 0.21525 30.0428  10
  -1  11   1-38.7841 33.7075   9
   1 -11  -1 101.526 73.1109   8
   1 -11  -2-6.29497 39.6202   6
   1 -11  -2 15.2996 37.4477   7
  -1  11   2 24.2749 8.56476  10
  -1  11   2 48.4192 44.2825  11
  -1  11   2 84.0092 53.8124   9
   1 -11  -2 88.0061 60.9787   8
   1 -11  -3 62.8980 57.4021   7
   1 -11  -3 59.2927 54.7893   5
  -1  11   3 6.67596 48.9357  11
  -1  11   3-45.4977 64.2581  10
  -1  11   3 24.5294 39.6484   9
   1 -11  -3 28.6718 33.5716   6
   1 -11  -3 40.6773 29.6433   8
   1 -11  -4-104.479 79.3571   6
  -1  11   4-9.09374 42.0512  12
   1 -11  -4-93.4881 65.1210   7
  -1  11   4 48.3226 45.9790  10
  -1  11   4 8.33568 9.02844   9
   1 -11  -4 41.9075 11.1891   8
   1 -11  -5 49.1268 50.3621   8
   1 -11  -5 98.7243 88.9933   7
  -1  11   5 94.6210 46.7938  10
  -1  11   5 191.751 88.8325   9
  -1  12   1 162.421 118.010  11
  -1  12   1 126.043 107.816  10
   1 -12  -1 67.5604 50.2936   7
   1 -12  -1 160.915 39.1411   8
  -2   0  -6 1827.37 181.130  15
   2   0   6 1194.88 161.359   2
  -2   0  -6 1559.99 174.439   1
   2   0   6 1393.90 185.254  16
   2   0   5-3.77054 17.8846   2
  -2   0  -5-28.1129 18.9685   4
  -2   0  -5-3.80952 18.7997   1
  -2   0  -5 4.74665 9.51746  15
   2   0   5-9.80753 5.74326   8
   2   0   5-24.4512 23.8993  16
  -2   0  -4 4322.09 224.387  15
   2   0   4 4338.21 207.207   3
  -2   0  -4 4402.50 146.478  11
  -2   0  -4 4300.21 208.002  14
  -2   0  -4 4567.91 228.358   4
   2   0   4 4449.57 221.463  13
   2   0   4 4438.12 227.666   2
  -2   0  -4 4233.42 223.074   1
   2   0   4 4307.14 231.465  16
   2   0   3 34.9162 28.4571  16
  -2   0  -3 45.7018 26.8128  14
   2   0   3 30.1541 14.8523   6
  -2   0  -3 26.1163 12.0357  11
  -2   0  -3 60.9738 33.6003   1
   2   0   3 30.1429 30.2094  13
   2   0   3 44.0594 23.7587   3
   2   0   3 31.1463 19.4974  12
   2   0   3 36.0141 27.0327   2
  -2   0  -3 14.4471 9.69066   5
  -2   0  -3 4.89118 5.10477   4
  -2   0  -3 22.4146 27.6548  15
  -2   0  -2 10376.9 298.629  14
  -2   0  -2 9969.81 319.730   1
  -2   0  -2 10164.6 315.373  15
   2   0   2 10109.5 301.584  13
   2   0   2 10247.4 293.659   3
   2   0   2 10235.4 321.116  16
   2   0   2 10229.5 216.063   6
  -2   0  -2 10197.1 228.695   5
  -2   0  -2 10218.5 301.116   4
   2   0   2 10281.6 316.837   2
  -2   0  -1 7.05352 3.75605   4
   2   0   1-7.46078 10.2676  13
  -2   0  -1 18.3991 6.22051  14
   2   0   1 0.03475 4.81531   6
  -2   0  -1 15.2600 16.7504  15
   2   0   1 10.7595 13.5267  16
   2   0   1 18.9579 19.4213   2
   2   0   1-12.3549 16.7892   3
  -2   0  -1-2.15342 6.61559   5
  -2   0  -1 7.24953 11.2374   1
  -2   0   0 38.1004 19.3043  15
  -2   0   0 0.85122 14.6531   1
   2   0   0 24.6462 23.4219  16
   2   0   0-2.59402 4.60801   3
   2   0   0 24.8576 13.5623   2
   2   1   6 34.3111 36.3723   2
  -2  -1  -6 32.1255 34.5293  15
  -2  -1  -6 38.9432 13.0521   7
  -2  -1  -6 51.8701 35.3152   1
  -2  -1  -6 2.14065 17.8091   4
   2   1   6 95.3308 41.6276  16
   2  -1   5 61.5769 33.3064   2
   2   1   5 88.0882 33.4496  16
  -2  -1  -5 49.1199 25.8692   4
  -2   1  -5 76.8691 29.4874  15
  -2  -1  -5 61.9230 12.9323   7
   2   1   5 84.8695 30.7276   2
   2  -1   5 51.1795 29.1129  16
  -2   1  -5 51.1082 28.1140   1
   2   1   5 58.4963 21.4339  13
  -2  -1  -5 73.7834 27.0343  15
  -2  -1  -5 43.3035 29.0343   5
  -2  -1  -5 30.0383 9.91849  14
  -2  -1  -5 58.2046 29.4539   1
  -2   1  -4 2321.88 164.860  15
   2   1   4 2239.43 166.739  13
  -2  -1  -4 2359.31 165.603  15
  -2   1  -4 2311.37 160.761  14
   2  -1   4 2378.90 170.560  16
   2  -1   4 2370.92 156.297  13
   2   1   4 2354.32 143.664   3
   2   1   4 2474.11 169.424  16
   2   1   4 2277.62 141.950  12
  -2  -1  -4 2387.18 141.769   5
   2   1   4 2555.23 173.698   2
  -2  -1  -4 2294.01 167.641   1
  -2  -1  -4 2455.29 146.142  14
  -2  -1  -4 2397.80 85.7594   7
   2   1   4 1937.27 82.9283   9
  -2   1  -4 2452.51 162.083   4
   2  -1   4 2286.72 166.054   2
  -2  -1  -4 2538.40 174.831   4
   2  -1   4 2368.72 162.445   3
  -2   1  -4 2279.81 166.458   1
  -2   1  -3 590.512 82.7509  15
   2   1   3 556.980 79.2247  16
  -2   1  -3 588.362 80.6703  14
  -2  -1  -3 599.775 70.9354  14
   2  -1   3 573.982 62.9592   6
   2  -1   3 603.308 79.4544   3
   2  -1   3 620.675 75.8784  13
   2   1   3 615.150 70.7770   3
   2   1   3 602.818 83.0472  13
   2  -1   3 575.237 48.5647  12
   2   1   3 612.421 73.5581  12
  -2  -1  -3 607.011 69.6100   5
  -2   1  -3 567.617 63.7012  11
  -2   1  -3 516.005 78.1063   1
  -2  -1  -3 579.662 84.4952   1
  -2   1  -3 569.157 72.0991   4
  -2  -1  -3 628.739 85.3051   4
   2  -1   3 543.463 75.2648   2
   2   1   3 611.750 81.2539   2
   2  -1   3 533.643 80.3387  16
  -2  -1  -3 570.902 80.9678  15
   2  -1   2 13.7733 7.23064  16
  -2   1  -2-34.1802 24.2288  15
   2   1   2-10.7919 12.7508  16
  -2  -1  -2-13.4138 14.5237  15
  -2   1  -2 16.9185 9.85473   4
  -2   1  -2-19.2537 20.8918  14
  -2  -1  -2 0.46668 0.79211   4
  -2  -1  -2 5.92421 3.86579  14
   2   1   2 0.87761 10.0181  13
   2   1   2-2.95645 2.22589   6
   2   1   2-19.6313 22.3849  12
   2  -1   2-15.5137 20.4497  13
  -2   1  -2-12.0138 14.0570  11
  -2  -1  -2-3.16109 4.05405   8
   2  -1   2 15.4945 13.8724   2
  -2   1  -2-1.51172 0.76755   5
   2  -1   2-33.5448 24.5081   3
   2   1   2 14.9153 5.76586   2
   2   1   2-14.2377 11.3775   3
   2  -1   2-5.02296 2.15061   6
  -2  -1  -2 8.14390 7.96849   5
  -2   1  -2 5.44004 11.9407   1
  -2  -1  -2-24.5089 20.4554   1
   2  -1   1 500.187 66.6553   2
   2   1   1 507.936 69.9797   2
  -2  -1  -1 521.626 69.5732  15
  -2   1  -1 454.089 62.9427  15
  -2   1  -1 524.739 69.9755  14
   2   1   1 521.034 61.9291   3
   2  -1   1 529.084 69.1222   3
  -2   1  -1 458.544 65.2503   1
   2  -1   1 479.705 61.9581  13
  -2  -1  -1 485.529 69.3022   1
  -2   1  -1 485.358 37.7656   5
  -2  -1  -1 543.523 65.6929   5
   2  -1   1 501.633 69.4158  16
   2   1   1 487.775 72.0926  13
   2  -1   1 533.184 59.4468   6
   2   1   1 514.333 70.6688  16
   2  -1   1 490.406 35.2079   7
  -2   1  -1 530.712 61.0601   4
  -2  -1  -1 498.741 71.1396   4
  -2   1   0 4097.30 197.152   1
   2  -1   0 4123.34 198.696   2
  -2   1   0 4253.70 202.566  15
  -2   1   0 4225.86 205.017  14
   2  -1   0 3706.89 177.882   6
  -2   1   0 4338.37 186.371   4
   2  -1   0 4376.83 208.682   3
   2  -1   0 4049.26 210.009  16
  -2  -2  -6 565.331 93.7379  15
   2   2   6 653.940 105.684  13
  -2  -2  -6 586.761 61.6155   7
   2   2   6 651.348 98.4979  16
   2   2   6 677.138 114.366   2
  -2  -2  -6 634.047 104.770   4
  -2  -2  -6 713.637 114.173   1
  -2   2  -5 443.509 83.7466  15
  -2  -2  -5 418.112 73.4927  15
   2  -2   5 364.806 86.0647   2
  -2  -2  -5 413.396 56.5003  14
  -2  -2  -5 387.430 75.8312   4
   2   2   5 437.702 74.3832   2
   2   2   5 444.667 78.5720  16
  -2  -2  -5 409.831 70.2778   5
  -2  -2  -5 399.295 47.1265   7
  -2   2  -5 469.228 93.7930   1
  -2  -2  -5 402.251 72.6745   1
   2   2   5 456.111 81.9408  13
   2  -2   5 426.826 90.2861  16
  -2  -2  -4 2426.10 172.627   1
  -2  -2  -4 2318.39 109.596   7
  -2   2  -4 2361.64 171.630  15
  -2  -2  -4 2448.29 134.904  14
  -2  -2  -4 2456.41 169.564  15
   2  -2   4 2345.62 172.004   3
   2   2   4 2566.47 148.593   3
   2   2   4 2503.43 171.448  16
   2   2   4 2373.50 160.728  12
  -2  -2  -4 2442.11 159.507   5
   2   2   4 2318.99 174.988  13
   2  -2   4 2419.24 178.363  16
   2  -2   4 2484.91 180.354   2
   2  -2   4 2351.70 91.7960   8
  -2  -2  -4 2400.87 181.563   4
   2   2   4 2434.82 169.207   2
  -2   2  -4 2460.52 178.509   1
  -2  -2  -3 3726.27 197.002   5
  -2   2  -3 3766.10 207.788   1
   2  -2   3 3721.09 181.550   6
  -2   2  -3 3647.77 203.851  15
  -2  -2  -3 3798.75 202.140  15
  -2   2  -3 3684.38 212.015  14
  -2  -2  -3 3676.91 154.081  14
   2   2   3 3687.00 156.452   3
   2  -2   3 3552.79 169.882  13
  -2  -2  -3 3779.37 205.576   1
   2   2   3 3708.86 197.157  12
  -2   2  -3 3571.11 107.737  10
   2   2   3 3706.11 132.431  10
   2  -2   3 3676.44 205.210   3
   2   2   3 3600.25 213.281  13
  -2  -2  -3 3797.59 131.724   8
   2  -2   3 3649.48 108.806   8
  -2   2  -3 3634.46 173.041   4
   2  -2   3 3571.12 200.287   2
  -2  -2  -3 3880.92 220.971   4
   2   2   3 3793.01 202.787   2
   2  -2   3 3588.10 206.725  16
   2   2   3 3654.05 203.482  16
   2   2   2 3420.23 195.872  13
   2   2   2 3524.83 143.777   3
  -2   2  -2 3654.89 195.410   1
   2  -2   2 3793.14 130.227   7
  -2   2  -2 3608.53 202.160  14
   2  -2   2 3600.91 199.142   3
  -2  -2  -2 3466.59 184.609  15
  -2  -2  -2 3363.73 184.217   1
  -2  -2  -2 3397.09 128.656   8
  -2   2  -2 3438.28 175.902  11
   2   2   2 3520.00 187.676  12
   2  -2   2 3729.85 164.965  13
   2   2   2 3473.48 191.802  16
   2  -2   2 3715.76 183.083   6
  -2  -2  -2 3506.50 179.575   5
  -2   2  -2 3700.09 196.301  15
  -2   2  -2 3647.77 126.841  10
  -2   2  -2 3656.87 127.459   9
   2   2   2 3477.63 181.682   2
   2  -2   2 3539.23 133.258   8
  -2   2  -2 3580.77 154.714   4
   2  -2   2 3517.29 190.330   2
  -2  -2  -2 3606.00 200.506   4
   2  -2   2 3420.39 194.169  16
   2  -2   1 1224.58 71.5454   7
  -2   2  -1 1207.11 104.093  15
  -2   2  -1 1213.40 112.473  14
   2   2   1 1426.76 125.083   2
   2  -2   1 1224.68 100.558   6
   2  -2   1 1297.32 94.2623  13
   2   2   1 1307.17 127.073  13
   2  -2   1 1244.91 111.563   3
  -2   2  -1 1280.79 105.554  11
  -2  -2  -1 1356.89 115.027   5
  -2   2  -1 1190.90 103.438   1
   2   2   1 1294.98 97.1153   3
  -2   2  -1 1254.97 85.7410   4
  -2  -2  -1 1444.55 133.313   4
  -2  -2  -1 1455.70 127.634   1
  -2  -2  -1 1197.79 112.812  15
   2  -2   1 1214.31 103.574   2
   2  -2   1 1171.89 107.587  16
   2   2   1 1078.73 112.707  16
   2  -2   0 8022.90 208.840   7
  -2   2   0 7832.26 262.075   1
   2  -2   0 7978.88 288.103   3
  -2   2   0 8043.96 269.913  15
   2  -2   0 7695.36 263.785   2
  -2   2   0 7799.35 205.843   4
   2  -2   0 7880.25 263.814   6
  -2   2   0 7766.25 277.284  14
   2  -2   0 7936.33 282.949  16
   2  -2  -1 76.4522 37.5267   3
   2   3   7 234.668 119.324  16
  -2  -3  -7 724.388 88.7641   7
   2   3   7 110.142 115.191  13
  -2  -3  -7 691.362 109.294  15
  -2  -3  -7 581.413 110.301   4
  -2  -3  -6 115.627 34.1185  15
  -2  -3  -6 149.108 34.5643   7
  -2  -3  -6 137.800 33.6164  14
   2   3   6 5.20423 43.7904  13
  -2  -3  -6 144.573 54.2146   4
   2   3   6 149.477 50.7056   2
  -2  -3  -6 149.554 56.8409   1
  -2  -3  -6 176.809 54.4331   5
   2   3   6 150.208 49.8964  16
  -2   3  -5 86.4734 18.7694  15
  -2  -3  -5 83.0627 37.5275   4
  -2  -3  -5 93.8468 27.3010   7
   2   3   5 9.29679 27.3532  12
  -2  -3  -5 102.938 28.2433  14
  -2  -3  -5 102.733 25.4486  15
   2   3   5 128.286 38.3421   2
   2   3   5 12.5546 33.8829  13
   2   3   5 86.5690 22.9279  16
  -2  -3  -5 116.537 38.2603   5
   2   3   5 46.0144 36.3027   9
  -2  -3  -5 124.544 47.5204   1
   2  -3   5 90.7495 47.9325  16
  -2   3  -4 1349.87 132.246  15
  -2  -3  -4 1424.33 127.169  15
  -2  -3  -4 1511.61 93.1378  14
   2  -3   4 1270.46 211.173   6
   2  -3   4 1402.04 141.252   3
  -2  -3  -4 1453.19 136.196   5
  -2  -3  -4 1456.34 136.058   1
   2   3   4 1403.01 102.796  10
  -2  -3  -4 1347.16 101.161   7
   2  -3   4 1697.88 162.343   2
  -2  -3  -4 1451.54 102.994   8
   2  -3   4 1440.62 95.6626   8
  -2   3  -4 1448.80 147.386   1
  -2  -3  -4 1513.32 148.600   4
   2   3   4 1502.54 132.769   2
   2  -3   4 1418.29 142.143  16
   2   3   4 1435.33 131.403  16
   2  -3   3 1.58536 14.5600  16
  -2   3  -3-24.3256 22.8134  15
  -2   3  -3-11.3324 11.6130   1
  -2  -3  -3 4.68687 20.7746   4
  -2   3  -3-14.0972 22.1719  14
  -2  -3  -3-26.7605 18.9583   7
   2  -3   3 16.0547 11.4790   8
   2  -3   3 4.42594 11.9800   2
   2  -3   3 3.27396 12.2423  13
   2   3   3-17.0219 14.1426  13
   2  -3   3 14.7821 23.1797   6
   2   3   3-10.2309 25.5998  12
  -2  -3  -3-3.83609 11.8560   1
   2   3   3 3.16926 7.72591   3
   2  -3   3 3.49701 1.01339   3
   2   3   3 5.29155 11.3516  16
   2   3   3 7.33153 9.87630  10
   2   3   3 17.2641 15.6850   2
  -2  -3  -3-5.51095 6.36348  15
  -2  -3  -3 0.32441 3.33806   5
   2   3   3 7.33888 18.7906   9
  -2  -3  -3-14.1938 13.0551   8
   2  -3   2 591.011 61.5982   7
  -2   3  -2 581.509 77.8509  15
  -2  -3  -2 508.561 72.6265   1
  -2   3  -2 634.763 90.6989  14
  -2  -3  -2 529.532 78.0126   5
   2  -3   2 571.378 80.7956   6
   2   3   2 575.464 73.0066   2
   2  -3   2 578.512 58.9526  13
   2  -3   2 529.934 79.9462   3
   2   3   2 567.160 51.8957   3
   2   3   2 522.264 83.2096  13
  -2   3  -2 562.970 78.3656   1
   2   3   2 570.116 83.8690  12
  -2   3  -2 617.185 84.0228  11
  -2   3  -2 541.004 55.6935  10
  -2   3  -2 559.122 59.4255   9
   2   3   2 545.710 76.4628  16
   2  -3   2 523.244 54.3809   8
  -2  -3  -2 535.241 61.3684   8
   2  -3   2 589.320 78.3951   2
  -2  -3  -2 512.501 78.3046   4
   2  -3   2 554.401 79.3666  16
  -2  -3  -2 567.905 75.3754  15
   2  -3   1 51.6314 21.9360  16
   2  -3   1 31.9373 6.61602   7
  -2   3  -1 60.9463 26.1804  14
  -2  -3  -1 86.4636 39.0205   4
   2   3   1 21.9148 13.9790  13
   2  -3   1 97.8404 27.7783  13
   2  -3   1 47.3029 15.0318   6
  -2   3  -1 81.3064 29.4018  11
  -2   3  -1 57.7596 9.24600  15
   2  -3   1 47.3791 20.0373   2
  -2  -3  -1 78.4567 33.2804   1
  -2   3  -1 57.3327 26.1126   1
  -2   3  -1 50.6417 15.0361  10
  -2   3  -1 49.2981 12.8112   4
   2  -3   1 38.5554 13.4834   3
   2   3   1 59.6070 14.1210   2
  -2  -3  -1 66.2809 27.2984   5
   2  -3   1 50.6894 14.6890   8
  -2  -3  -1 41.5340 19.8062   8
   2  -3   0 421.419 64.5426  16
  -2   3   0 466.443 66.8070  15
  -2   3   0 434.501 73.9033  14
  -2   3   0 425.598 60.8291   1
   2  -3   0 446.992 70.4302   6
   2  -3   0 467.785 72.1692   3
   2  -3   0 442.112 62.0836   2
  -2   3   0 441.358 72.0302  11
   2  -3   0 407.347 52.3462   7
  -2   3   0 421.495 29.2609   5
  -2   3   0 437.439 41.8009   4
  -2   3   1 2923.73 193.239  14
   2  -3  -1 2866.50 161.454   7
   2  -3  -1 2901.27 170.695   2
  -2   3   1 2856.64 165.387   1
   2  -3  -1 3028.12 196.543   3
   2  -3  -1 2987.92 189.557   6
   2   4   7 24.1095 53.5418  16
  -2  -4  -7 240.178 53.0784   7
   2   4   7 8.37042 69.4999  13
  -2  -4  -7 143.702 58.2949   5
  -2  -4  -7 160.357 59.3152   4
  -2  -4  -7 177.773 51.3331  15
   2   4   6 183.539 51.5683   2
  -2  -4  -6 202.811 50.4836   7
   2   4   6 14.0888 46.9219  16
   2   4   6 16.0252 65.9909  13
  -2  -4  -6 170.033 55.8276   4
  -2  -4  -6 196.798 48.7108  15
  -2  -4  -6 206.203 59.1731   1
   2   4   6 12.6036 55.3928  12
  -2  -4  -6 154.874 52.8725   5
   2   4   6 26.3859 54.6284   9
  -2  -4  -5 0.68928 15.2604   4
   2   4   5-2.45352 24.0813  12
   2   4   5 0.22680 10.9461  13
  -2  -4  -5 16.8109 9.97174   7
   2   4   5 27.8338 23.9789   2
  -2  -4  -5 4.83555 20.0325  15
   2   4   5 5.16814 28.1948  16
   2   4   5 85.0431 32.7538  10
  -2  -4  -5 32.1668 30.6403   5
   2   4   5 9.03389 21.8183   9
  -2  -4  -5 29.4259 23.3546   1
  -2  -4  -5 39.3868 17.6991   8
  -2   4  -4 2525.03 187.172  15
  -2  -4  -4 2291.23 160.956  15
  -2  -4  -4 2281.71 166.005   1
   2  -4   4 2323.14 281.411   6
   2  -4   4 2488.46 206.182   3
  -2  -4  -4 2356.07 190.276   5
  -2  -4  -4 2209.48 151.732   7
   2   4   4 2285.05 149.168  10
  -2  -4  -4 2273.71 146.151   8
   2  -4   4 2412.04 151.830   8
   2   4   4 2426.49 167.989   2
  -2  -4  -4 2379.97 196.030   4
   2  -4   4 2458.97 194.622  16
  -2  -4  -3 490.714 73.4228   1
  -2   4  -3 477.557 71.7188  15
  -2  -4  -3 440.620 68.3419  15
   2  -4   3 476.166 78.8173   2
   2  -4   3 443.897 77.2400   6
   2   4   3 228.021 68.3151  16
   2  -4   3 418.873 50.0771  13
   2   4   3 90.8645 81.2035  13
  -2   4  -3 419.838 75.7165  14
   2   4   3 241.264 77.5215  12
   2  -4   3 402.933 76.3938   3
  -2  -4  -3 466.203 80.8569   5
  -2  -4  -3 434.094 75.1404   7
  -2  -4  -3 443.006 80.7030   4
   2   4   3 276.969 76.3457   9
  -2  -4  -3 446.209 65.9682   8
   2  -4   3 428.143 58.3331   8
  -2   4  -3 475.625 77.2038   1
   2   4   3 521.964 73.9651   2
   2  -4   3 468.464 75.5182  16
  -2  -4  -2 72.2629 24.8166   8
   2  -4   2 60.2149 23.7643  16
  -2   4  -2 104.793 35.9072  15
   2  -4   2 83.0851 30.5875   7
  -2   4  -2 88.0250 36.4388   1
  -2  -4  -2 96.9671 32.5968   4
  -2   4  -2 92.7490 45.3873  14
  -2   4  -2 82.9591 29.6006  11
   2  -4   2 66.6147 25.7336   2
   2  -4   2 80.2451 17.4347  13
   2   4   2 26.7062 43.9064  13
   2  -4   2 63.7924 30.6759   6
   2   4   2 16.5219 34.0030  12
   2  -4   2 98.2957 37.7348   3
  -2   4  -2 65.2313 20.8559  10
   2   4   2 90.5803 19.4328   3
   2   4   2 83.9431 26.4518   2
  -2  -4  -2 89.7797 28.1138   1
  -2   4  -2 89.0111 23.7479   9
  -2  -4  -2 90.3997 37.8591   5
   2  -4   2 60.5414 19.1808   8
  -2   4  -1 33.4940 7.86499  15
   2  -4   1 29.2469 13.0956   7
  -2   4  -1 28.8811 27.3615  14
  -2  -4  -1 28.5296 14.2168   1
  -2  -4  -1 36.4104 24.7098   4
   2   4   1 15.6528 14.5212  13
   2  -4   1 67.0333 27.5546   2
  -2   4  -1 60.2497 21.9385  11
   2  -4   1 33.1614 18.0347  16
  -2   4  -1 52.6168 26.1929  10
   2  -4   1 32.9277 19.3732   3
  -2   4  -1 24.2882 18.9126   9
   2   4   1-25.1014 29.4196   2
  -2  -4  -1 33.5327 18.5181   5
   2  -4   1 28.8952 19.7393   6
  -2   4  -1 47.1098 17.2655   1
   2  -4   1 65.2405 26.3153   8
  -2  -4  -1 13.8302 16.9948   8
   2  -4   0 1105.60 115.293   3
  -2   4   0 1183.75 100.570   1
  -2   4   0 1230.14 121.982  14
   2  -4   0 1243.60 123.575   6
  -2   4   0 1170.08 61.1465  12
  -2   4   0 1207.78 103.694  15
   2  -4   0 1174.13 103.263   7
  -2   4   0 1182.91 119.960  11
  -2   4   0 1181.96 108.634  10
   2  -4   0 1257.63 111.028   8
   2  -4   0 1178.14 100.322   2
   2  -4   0 1219.59 112.447  16
   2  -4  -1 128.696 40.0857   7
  -2   4   1 137.893 42.9985  14
  -2   4   1 181.382 35.3806   1
   2  -4  -1 135.413 37.9300   6
  -2   4   1 161.892 47.1870  11
   2  -4  -1 159.616 37.5275   2
   2  -4  -1 152.994 45.1824   3
  -2   4   1 155.618 18.6268   4
   2  -4  -2 280.677 63.2901   7
   2  -4  -2 406.768 82.9272   6
   2  -4  -2 305.623 77.0502   3
  -2  -5  -7 33.4909 38.2619  15
   2   5   7-15.2227 29.5765  16
  -2  -5  -7-5.76116 16.8172   7
   2   5   7-1.65113 18.2746  13
   2   5   7 2.23695 6.62969  12
  -2  -5  -7-18.2023 9.01896   5
   2   5   7 4.11940 37.2334   9
  -2  -5  -7 15.7638 18.0990   4
  -2  -5  -6 1228.40 133.405  15
  -2  -5  -6 1117.62 126.395   7
  -2  -5  -6 1125.81 144.871   5
  -2  -5  -6 1128.83 151.120   4
  -2  -5  -5 237.878 80.1448   4
   2   5   5 104.159 31.4172   2
  -2  -5  -5 60.7255 30.1132   7
   2   5   5 66.5568 54.7553  10
  -2  -5  -5 156.671 58.1916   1
  -2  -5  -5 145.835 58.9028   5
  -2  -5  -5 90.4634 64.9212   8
  -2   5  -4 18.7776 20.7114  15
   2   5   4 2.77290 18.1309  16
  -2  -5  -4-34.7513 34.9298   7
  -2  -5  -4-2.83695 15.2562   4
  -2  -5  -4 17.3552 8.18743  15
  -2   5  -4-28.3078 39.2533  14
   2  -5   4 67.5493 56.5825   6
   2   5   4 5.38309 19.8138  13
   2   5   4 1.00781 8.23845   2
  -2  -5  -4 37.4637 17.8441   1
   2   5   4-2.69511 9.23505  12
   2   5   4 8.14680 2.87509  10
   2  -5   4 14.1971 18.7624   3
  -2  -5  -4 35.0778 31.2838   5
   2   5   4-8.07684 21.4784   9
  -2  -5  -4 34.4610 27.5042   8
   2  -5   4 34.9243 27.2949   8
   2  -5   4-31.2545 42.7846  16
   2  -5   3 305.538 61.2959  16
   2   5   3 68.2800 44.2333  16
  -2  -5  -3 365.787 82.0120   7
  -2   5  -3 291.180 57.1005  15
  -2  -5  -3 312.128 72.6372   4
  -2   5  -3 289.028 65.6337  14
  -2  -5  -3 304.543 61.1401   1
   2  -5   3 306.363 37.8344  13
   2  -5   3 283.908 67.3813   6
   2   5   3 39.6926 79.0638  13
   2  -5   3 297.308 69.1918   3
   2   5   3 44.0102 72.7448  12
   2   5   3 328.885 60.5135   2
   2  -5   3 314.919 61.2041   8
  -2  -5  -3 321.518 75.4001   5
   2   5   3 191.520 85.8687   9
  -2  -5  -3 280.052 58.6515   8
  -2   5  -2 167.955 45.4677  14
   2  -5   2 182.535 48.9050   2
   2  -5   2 144.017 41.1730  16
  -2  -5  -2 168.303 47.9605   4
  -2  -5  -2 171.061 44.0923   1
  -2   5  -2 121.675 33.2544  15
   2   5   2 7.85613 56.2099  13
   2  -5   2 151.697 47.3145   6
   2   5   2 13.2933 49.6732  12
  -2   5  -2 175.378 47.7976  11
   2  -5   2 145.263 47.1126   3
  -2   5  -2 132.696 35.6124   1
  -2   5  -2 146.693 44.4558  10
   2  -5   2 159.424 42.5032   7
   2   5   2 162.668 38.4277   2
  -2   5  -2 163.317 46.2003   9
  -2  -5  -2 137.042 45.4931   5
   2  -5   2 149.467 44.4679   8
  -2  -5  -2 148.965 47.1959   8
  -2   5  -1 1008.93 103.763  15
   2  -5   1 1030.80 126.283   6
   2  -5   1 1037.22 123.623   3
  -2   5  -1 1049.36 127.075  14
  -2   5  -1 1055.12 126.553  11
  -2   5  -1 984.742 103.536  10
   2  -5   1 1125.97 113.912   7
  -2   5  -1 1004.91 105.343   9
  -2  -5  -1 452.259 97.2529   5
   2  -5   1 988.000 104.339   8
   2  -5   1 959.857 95.5764   2
  -2   5  -1 992.881 95.6199   1
   2  -5   1 962.617 98.1843  16
  -2  -5  -1 388.717 84.1702   4
  -2   5   0 4480.63 196.908   1
  -2   5   0 4398.67 204.102  15
  -2   5   0 4456.94 249.502  14
   2  -5   0 4460.51 255.476   6
  -2   5   0 4441.79 149.567  12
  -2   5   0 4388.12 255.958  11
   2  -5   0 4213.59 241.020   3
   2  -5   0 4278.55 223.505   7
  -2   5   0 4105.88 216.427  10
   2  -5   0 4232.03 218.813   8
   2  -5   0 4321.67 196.954   2
   2  -5   0 4624.66 227.035  16
   2  -5  -1 102.045 32.4207   7
   2  -5  -1 100.644 37.3126   6
  -2   5   1 70.7317 40.2085  11
   2  -5  -1 67.9113 16.7504   2
  -2   5   1 111.663 42.1182  10
  -2   5   1 99.7472 41.3153  14
  -2   5   1 60.7900 17.6915   1
   2  -5  -1 136.051 42.9822   3
   2  -5  -1 80.5209 42.7461   8
   2  -5  -2 3631.03 177.076   2
   2  -5  -2 3697.07 227.248   7
  -2   5   2 3509.65 170.113   1
   2  -5  -2 3652.12 241.529   6
   2  -5  -2 3654.12 231.400   3
   2   6   8 49.1395 131.282  13
   2   6   8 45.4288 116.917  12
  -2  -6  -8 198.339 78.0312   5
  -2  -6  -7 101.799 63.0212  15
  -2  -6  -7-6.41234 28.3044   7
   2   6   7 3.47764 38.7066  13
   2   6   7 2.95920 38.9190  12
  -2  -6  -7 44.0181 17.7652   5
   2   6   7 14.6248 34.5322   9
  -2  -6  -7 29.3590 24.4361   4
  -2  -6  -6 1258.90 145.185   7
  -2  -6  -6 1424.55 145.833  15
  -2  -6  -6 1280.08 166.374   5
   2   6   6 1513.94 173.173  10
  -2  -6  -6 1514.36 172.513   8
  -2  -6  -6 1257.12 163.570   4
  -2  -6  -5 691.169 114.118   4
   2   6   5 67.8250 101.674  12
   2   6   5 87.9934 112.028  13
  -2  -6  -5 769.599 106.184  15
  -2  -6  -5 666.021 122.544   5
   2   6   5 653.424 97.2613  10
  -2  -6  -5 612.019 100.429   7
   2   6   5 310.585 101.084   9
   2   6   5 761.102 107.850   2
  -2  -6  -5 660.251 96.6431   8
  -2  -6  -5 853.457 122.436   1
   2   6   5 243.910 96.9159  16
   2  -6   4 59.5312 60.2000  16
  -2  -6  -4-8.05181 28.3870   1
  -2  -6  -4 18.4420 22.1018   7
  -2  -6  -4 62.0032 34.3022   4
  -2   6  -4 56.7479 53.2120  14
  -2   6  -4 1.11379 23.7628  15
   2   6   4 1.35273 35.2791  13
   2   6   4 33.1445 27.6170   2
   2   6   4 3.32305 37.6056  12
   2   6   4 27.1871 24.5879  10
  -2  -6  -4 4.41698 16.3731   5
   2   6   4 7.46142 37.3257   9
  -2  -6  -4 14.0041 14.1124   8
   2  -6   4-3.50631 43.6071   8
  -2  -6  -3-2.85007 23.2296   7
  -2   6  -3-12.2865 24.4956  15
  -2  -6  -3 7.78342 31.2258   4
  -2   6  -3 12.6769 19.4843  14
   2  -6   3 7.44285 19.9896   6
   2   6   3 0.38587 16.1008  13
   2  -6   3 39.7197 24.3139   3
   2  -6   3-42.4702 25.9917  16
   2   6   3-0.90239 22.5107  12
   2   6   3 22.7116 20.1862   2
  -2  -6  -3-3.44811 11.9475   5
   2   6   3 1.47132 28.8308   9
  -2  -6  -3 39.1141 28.5034   1
  -2  -6  -3-27.5310 27.2646   8
   2  -6   3 19.2549 20.0759   8
  -2   6  -2 19.9887 18.6027  15
  -2  -6  -2-44.7665 39.7047   4
  -2   6  -2 14.0423 26.7623  14
  -2  -6  -2-25.2088 19.9910   1
   2  -6   2-5.37852 24.0619   6
   2  -6   2 24.4872 22.0211  16
   2   6   2 20.9683 58.5478  13
  -2   6  -2 33.0674 28.9983  11
  -2   6  -2 25.2680 27.1548  10
   2  -6   2 0.22804 23.3078   7
   2   6   2 4.77454 15.1414   2
  -2   6  -2-16.1205 7.28657   9
  -2  -6  -2-42.3781 43.1686   5
   2  -6   2 19.0283 23.4984   8
  -2  -6  -2 46.5841 22.1734   8
   2  -6   1 107.833 37.0726   2
  -2   6  -1 92.3951 29.8617  15
   2  -6   1 111.231 30.8419  16
  -2   6  -1 86.0098 22.9657  14
   2  -6   1 113.666 40.7863   7
   2  -6   1 126.420 48.9273   6
  -2   6  -1 158.390 43.2554   1
  -2   6  -1 112.452 47.3763  11
   2  -6   1 110.782 43.5751   3
  -2   6  -1 83.3938 26.7811  10
  -2   6  -1 144.165 43.6320   9
   2  -6   1 79.1693 30.2407   8
   2  -6   0 62.2219 32.3544  16
   2  -6   0 107.398 36.1505   7
   2  -6   0 163.634 43.7292   2
   2  -6   0 148.314 44.8447   6
  -2   6   0 144.485 58.5519  11
  -2   6   0 155.270 43.6256  10
   2  -6   0 125.703 38.9274   3
  -2   6   0 143.100 50.6375   9
  -2   6   0 143.188 45.3111  14
   2  -6   0 100.806 33.4497   8
  -2   6   0 188.661 52.5772  15
  -2   6   0 120.058 32.1202   1
  -2   6   1 408.888 58.9904   1
  -2   6   1 410.747 83.3556  14
   2  -6  -1 449.905 79.8078   7
  -2   6   1 386.279 57.3988  12
   2  -6  -1 431.609 86.7413   6
  -2   6   1 402.136 86.6713  11
  -2   6   1 353.863 73.3656  10
   2  -6  -1 365.688 77.2589   3
   2  -6  -1 406.710 61.0284   2
   2  -6  -1 360.618 72.2788   8
   2  -6  -2 785.858 110.981   7
  -2   6   2 719.783 74.1138   1
  -2   6   2 353.392 81.9393  14
   2  -6  -2 723.494 111.665   6
   2  -6  -2 772.177 106.790   3
  -2   6   2 751.247 121.776  11
  -2   6   2 787.518 124.469  10
   2  -6  -2 953.128 142.273   8
   2  -6  -2 694.673 70.5664   2
   2  -6  -3 2.61088 19.2478   7
   2  -6  -3-28.3378 29.0614   6
  -2   6   3 16.3288 15.7119   1
   2  -6  -3 8.59610 19.2596   2
   2  -6  -3-29.1512 24.8309   3
   2   7   8 21.2020 107.250  13
   2   7   8 18.1212 39.1600  12
  -2  -7  -8 186.717 84.7812   5
  -2  -7  -7 266.011 81.1946   7
  -2  -7  -7 225.011 81.9088   4
   2   7   7 10.3691 70.1235  13
   2   7   7 10.6801 68.1484  12
  -2  -7  -7 199.668 89.1461   5
   2   7   7 41.6504 74.1815   9
  -2  -7  -6 200.017 57.0652   4
  -2  -7  -6 245.496 66.6233   7
   2   7   6 11.8671 86.1872  12
   2   7   6 29.1808 63.9888  13
   2   7   6 335.861 77.2940  10
  -2  -7  -6 229.304 74.4977   5
   2   7   6 74.7180 71.5644   9
  -2  -7  -6 283.872 73.3133   8
  -2  -7  -5 652.115 112.288   7
  -2  -7  -5 655.823 114.133   4
   2   7   5 60.3740 108.436  13
   2   7   5 83.4667 115.350  12
   2   7   5 679.875 111.737  10
   2   7   5 330.210 118.256   9
  -2  -7  -5 606.436 119.785   5
  -2  -7  -5 681.632 112.075   8
  -2  -7  -4-40.0168 46.4640   7
  -2  -7  -4 14.4460 20.6090   4
   2   7   4-2.94063 23.3518  13
   2   7   4-1.35509 27.7714  12
   2   7   4-51.5370 21.6745  10
  -2  -7  -4-5.74909 27.2611   5
   2   7   4-4.54408 38.0536   9
  -2  -7  -4-12.9693 30.3193   8
  -2   7  -3 998.382 128.229  15
  -2   7  -3 1103.97 160.902  14
   2  -7   3 1013.83 170.056   6
   2  -7   3 858.130 167.197   3
   2   7   3 1126.38 173.134  13
   2   7   3 1046.20 150.188  12
  -2  -7  -3 1189.65 166.515   5
  -2  -7  -3 1010.56 133.770   8
   2  -7   3 968.325 147.279   8
  -2  -7  -3 1274.18 166.768   4
   2  -7   3 1058.52 148.251  16
   2  -7   2 50.6657 51.9594   7
  -2   7  -2-3.94497 7.53197  15
  -2   7  -2-21.4143 16.2717  14
  -2  -7  -2 1.77182 21.9041   4
   2  -7   2-10.4477 7.11946   6
   2  -7   2 11.2705 23.0461   3
   2  -7   2-9.06942 14.4416  16
  -2   7  -2 71.5499 41.8360  11
  -2   7  -2-22.8533 20.2916  10
  -2  -7  -2 17.8279 13.3434   1
  -2  -7  -2-43.0551 25.7303   5
  -2   7  -2 2.52071 14.7397   9
   2  -7   2 22.5103 38.6864   8
  -2  -7  -2 29.0862 32.7716   8
   2  -7   1 302.223 68.0827  16
   2  -7   1 223.355 58.1173   7
  -2   7  -1 182.119 53.5783  14
   2  -7   1 258.971 71.9747   6
   2  -7   1 211.834 51.1572   3
  -2   7  -1 238.638 65.2477  11
  -2   7  -1 214.881 51.3620  10
  -2   7  -1 259.548 69.4903   9
   2  -7   1 191.656 56.1606   8
   2  -7   0 5.57710 15.2398   7
  -2   7   0 40.1870 28.7842  14
   2  -7   0 15.9753 37.4483   6
  -2   7   0 28.1739 43.9504  11
   2  -7   0-14.6081 16.6423   3
  -2   7   0-2.44238 30.4808  10
  -2   7   0-26.1255 29.6740   9
   2  -7   0-5.28869 9.64088   8
   2  -7  -1 534.918 92.5613   7
   2  -7  -1 549.485 96.9604   3
   2  -7  -1 574.566 100.963   6
  -2   7   1 487.403 88.8088  14
  -2   7   1 522.628 96.8459  11
  -2   7   1 563.405 93.4009  10
  -2   7   1 523.152 96.6182   9
   2  -7  -1 612.718 102.941   8
   2  -7  -2 243.927 73.4814   7
  -2   7   2 80.1179 42.8858  14
  -2   7   2 168.662 45.6740  12
   2  -7  -2 144.593 56.6738   6
  -2   7   2 113.757 72.3097  11
  -2   7   2 224.658 83.8908  10
   2  -7  -2 147.350 53.4544   3
   2  -7  -2 175.376 55.8932   8
   2  -7  -3-19.6878 31.5909   6
   2  -7  -3 14.2745 17.1247   7
   2  -7  -3-6.06904 16.3489   3
   2   8   8 18.2935 50.6777  13
   2   8   8 5.99543 72.7803  12
  -2  -8  -8 0.51062 53.7522   5
  -2  -8  -7 535.766 116.277   7
   2   8   7 162.013 156.560  13
   2   8   7 85.4871 140.826  12
  -2  -8  -7 650.441 137.508   5
   2   8   7 57.5233 122.171   9
  -2  -8  -7 553.530 123.888   4
  -2  -8  -6 8.33045 22.3815   7
   2   8   6 12.5478 55.2054  13
   2   8   6 4.35679 19.1705  12
  -2  -8  -6 63.0983 43.2488   4
   2   8   6 20.5079 53.8118  10
  -2  -8  -6 66.2433 50.6608   5
   2   8   6 4.47837 64.9137   9
  -2  -8  -6 63.8373 41.8019   8
  -2  -8  -5 1.61158 16.9108   4
  -2  -8  -5-12.0680 44.4006   7
   2   8   5-0.79340 20.3056  13
   2   8   5 8.28767 47.2274  12
   2   8   5 4.51138 25.6231  10
  -2  -8  -5 41.3277 16.3138   5
   2   8   5 78.2792 57.2981   9
  -2  -8  -5 71.8493 48.7681   8
  -2  -8  -4-16.0327 50.7517   7
   2   8   4 3.16328 27.0900  13
  -2  -8  -4-13.5915 32.2699   4
   2   8   4-1.38910 30.1092  12
   2   8   4 53.7967 40.9702  10
  -2  -8  -4-29.8683 49.6291   5
   2   8   4-10.7050 54.3836   9
  -2  -8  -4-16.8982 35.7233   8
  -2   8  -3 1210.18 226.904  14
   2  -8   3 1052.68 232.438   6
  -2   8  -3 1136.84 197.846  11
  -2  -8  -3 1467.31 212.857   5
  -2  -8  -3 1175.36 164.649   8
  -2  -8  -3 1277.54 190.341   4
   2  -8   3 717.002 208.067   8
  -2   8  -2 83.5377 47.1456  14
   2  -8   2 62.6479 39.0676   6
   2  -8   2 62.7511 13.0578   3
  -2   8  -2 31.9035 14.5579  11
  -2   8  -2 5.62046 32.9796  10
   2  -8   2 62.6775 30.3868   8
   2  -8   1-37.8964 43.2142   7
  -2   8  -1 4.83203 5.37506  14
   2  -8   1 11.6829 31.1195   6
   2  -8   1-61.3570 45.7672   3
  -2   8  -1-4.21920 26.0441  11
  -2   8  -1 13.4399 34.6369  10
  -2   8  -1 32.6523 44.4456   9
   2  -8   1-18.4639 34.4065   8
   2  -8   0 31.8344 11.7367   7
   2  -8   0 25.0896 19.9968   6
   2  -8   0 54.1945 40.3179   3
  -2   8   0 2.37796 21.7706  11
  -2   8   0-3.25030 86.7186  14
  -2   8   0 12.6943 16.4942  10
  -2   8   0 23.3766 10.3510   9
   2  -8   0 41.4615 11.7877   8
   2  -8  -1 73.0169 30.8114   7
  -2   8   1 96.7207 35.2139  14
   2  -8  -1 127.945 55.3160   6
  -2   8   1 68.0622 46.1765  11
   2  -8  -1 131.309 43.1136   3
  -2   8   1 85.5950 33.0792  10
  -2   8   1 66.4403 36.1857   9
   2  -8  -1 32.6255 23.0515   8
   2  -8  -2-2.47044 37.9851   7
   2  -8  -2-43.5819 51.1651   6
  -2   8   2-46.0823 51.6496  11
   2  -8  -2 25.4114 25.9318   3
  -2   8   2-12.1739 43.0142  10
  -2   8   2 21.7209 35.0700   9
   2  -8  -2-20.2900 17.8270   8
   2  -8  -3-17.7473 9.96060   7
  -2   8   3-26.0723 18.7044  12
   2  -8  -3-11.1125 17.0920   6
  -2   8   3-49.0568 69.8638  10
   2  -8  -3 9.79861 26.7915   3
   2  -8  -3 6.36040 27.7007   8
   2   9   8 0.25447 52.8891  12
  -2  -9  -8 100.618 77.6634   5
  -2  -9  -7 238.164 72.4743   7
   2   9   7 14.8116 99.5986  13
   2   9   7 9.56946 109.309  12
  -2  -9  -7 300.371 88.1216   5
   2   9   7 58.7379 93.9719   9
  -2  -9  -7 362.237 148.617   8
  -2  -9  -7 236.927 78.4119   4
  -2  -9  -6 54.3648 44.6725   4
  -2  -9  -6 124.691 74.6111   7
   2   9   6-12.2701 39.3290  13
   2   9   6 38.6153 71.0476  12
   2   9   6 85.7673 56.6343  10
  -2  -9  -6 83.0643 51.5403   5
   2   9   6 26.4533 68.6971   9
  -2  -9  -6 18.3833 21.2961   8
  -2  -9  -5-47.1311 43.3522   4
   2   9   5 5.03914 60.9481  13
  -2  -9  -5 30.2918 45.3384   7
   2   9   5 12.5425 62.2183  12
   2   9   5 15.3530 19.1177  10
  -2  -9  -5 17.2889 53.8756   5
   2   9   5-17.1069 68.3616   9
  -2  -9  -5-52.4547 51.4217   8
  -2  -9  -4 27.1451 22.2048   4
   2   9   4 62.5767 44.1279  10
  -2  -9  -4 26.8365 36.0511   5
  -2  -9  -4 45.6372 41.7622   8
  -2  -9  -3 86.9119 34.6524   4
   2   9   3 145.705 64.9086  10
  -2  -9  -3-3.63611 95.0731   5
  -2  -9  -3 62.7559 26.3305   8
  -2   9  -2 44.8764 51.2141  14
   2  -9   2-33.2873 18.2537   6
  -2   9  -2 7.06737 12.3485  10
   2  -9   2-24.2988 38.1992   8
  -2   9  -1 25.0960 40.5193  14
   2  -9   1 58.8282 54.9561   6
   2  -9   1-12.0007 33.1390   3
   2  -9   1 11.2755 33.5771   7
  -2   9  -1 9.47621 35.4562  11
  -2   9  -1 2.08850 19.1719  10
  -2   9  -1-41.9431 41.5692   9
   2  -9   1-0.16326 24.6119   8
   2  -9   0 100.652 55.5966   7
  -2   9   0 98.6243 59.9502  14
   2  -9   0 112.167 58.2370   6
   2  -9   0 89.6642 50.8707   3
  -2   9   0 114.444 55.3527  11
  -2   9   0 13.4320 25.9706  10
  -2   9   0-11.3702 40.0750   9
   2  -9   0 36.9404 12.8323   8
  -2   9   1 43.6120 7.48257  14
   2  -9  -1-18.5100 31.5811   6
   2  -9  -1 0.15784 16.5624   7
   2  -9  -1 5.84025 28.3429   3
  -2   9   1-24.2308 42.8182  11
  -2   9   1 49.0077 38.8585  10
  -2   9   1 1.21391 19.1646   9
   2  -9  -1 7.97091 31.3339   8
   2  -9  -2 656.325 133.947   6
   2  -9  -2 757.620 142.169   7
   2  -9  -2 728.905 122.296   3
  -2   9   2 731.574 140.349  11
  -2   9   2 724.924 137.500  10
  -2   9   2 658.687 130.742   9
   2  -9  -2 707.893 139.428   8
   2  -9  -3 82.9564 45.9388   7
   2  -9  -3 44.7151 45.0280   6
   2  -9  -3 8.35703 16.3372   3
  -2   9   3 10.3502 7.84943  10
  -2   9   3 12.7396 26.5120   9
   2  -9  -3 62.0840 52.7615   8
   2  -9  -4 242.494 96.0635   7
  -2 -10  -6-71.8643 79.7689   7
   2  10   6-1.60676 86.6987  13
   2  10   6 5.76710 35.9457  12
   2  10   6 38.3144 52.0258  10
  -2 -10  -6-28.2807 50.0732   5
   2  10   6 0.28492 53.3114   9
  -2 -10  -6-18.6178 27.8602   8
  -2 -10  -6 38.2970 71.0755   4
  -2 -10  -5-22.2275 65.4039   4
   2  10   5 7.73029 20.6654  10
  -2 -10  -5 86.4904 46.9417   5
  -2 -10  -5 43.8822 35.8081   8
  -2 -10  -4-100.343 156.600   4
   2  10   4-132.154 84.5625  10
  -2 -10  -4 1.42799 62.6265   5
  -2 -10  -4 49.9729 42.3274   8
   2 -10   2-20.4829 116.584   6
  -2  10  -2 212.140 120.842  11
   2 -10   1 391.135 109.623   7
  -2  10  -1 485.701 129.620  14
   2 -10   1 667.348 153.784   6
  -2  10  -1 469.538 121.839  11
  -2  10  -1 637.571 145.618  10
   2 -10   1 524.802 125.838   8
   2 -10   0 35.5433 47.5064   7
  -2  10   0 58.3978 54.7053  14
   2 -10   0 4.32539 35.0396   6
  -2  10   0 13.4039 46.7645  11
  -2  10   0-3.18694 48.6529  10
  -2  10   0-28.9828 23.0039   9
   2 -10   0 78.5757 37.7670   8
   2 -10  -1 55.4753 43.0938   6
   2 -10  -1 41.9279 14.4698   3
  -2  10   1 36.9815 48.1420  11
  -2  10   1 84.3857 30.5156  10
   2 -10  -1 74.1771 47.6761   7
  -2  10   1 44.6281 53.9595   9
   2 -10  -1 78.6323 43.5986   8
   2 -10  -2 187.223 67.6565   7
   2 -10  -2 293.962 93.6411   6
  -2  10   2 342.543 98.5505  11
  -2  10   2 323.472 105.608  10
  -2  10   2 299.275 95.8536   9
   2 -10  -2 257.435 89.6892   8
   2 -10  -3-2.11994 32.4520   7
   2 -10  -3-21.5531 32.0099   6
  -2  10   3 101.080 83.5938  10
  -2  10   3-55.7143 49.5441   9
   2 -10  -3 104.742 52.1820   8
   2 -10  -4 0.98812 40.1360   7
  -2  10   4 67.1412 26.3168   9
   2 -11   1-37.9763 108.436   6
  -2  11  -1-32.2841 101.015  11
   2 -11   0-70.6563 46.5996   7
   2 -11   0-34.2016 27.0980   6
  -2  11   0-97.0083 83.3549  11
  -2  11   0 20.6160 50.7480  10
  -2  11   0 20.4616 40.3153   9
   2 -11   0 16.5925 85.5668   8
   2 -11  -1 154.840 76.8909   7
   2 -11  -1 146.744 60.2307   6
  -2  11   1 59.0432 46.7049  11
  -2  11   1 118.637 77.4055  10
  -2  11   1 185.430 79.0937   9
   2 -11  -1 104.374 51.6922   8
   2 -11  -2-31.4978 14.1924   7
   2 -11  -2 53.5276 67.4558   6
  -2  11   2 58.0686 28.7038  11
  -2  11   2 17.6707 42.1354  10
  -2  11   2 63.1604 47.9314   9
   2 -11  -2-4.72333 39.4568   8
   2 -11  -3-0.24189 34.6066   7
   2 -11  -3 78.2020 63.7120   6
  -2  11   3-5.24772 23.9459  10
  -2  11   3-18.1310 39.8926   9
   2 -11  -3 67.7639 66.1355   8
   3   0   7 19.2838 10.8074  16
   3   0   7 3.19894 31.7433   2
  -3   0  -7 54.7812 46.8334  15
  -3   0  -7-9.06547 13.7512  14
   3   0   7 71.6106 59.0119  13
   3   0   7 18.7176 33.7420  12
  -3   0  -7 46.6952 39.9636   1
  -3   0  -6 1675.99 179.351  15
  -3   0  -6 1804.53 170.492  14
   3   0   6 1851.90 186.406  13
   3   0   6 2032.60 163.792  12
   3   0   6 1814.13 190.662   2
  -3   0  -6 1665.48 184.188   1
   3   0   6 1810.52 195.185  16
  -3   0  -5-19.0530 24.8216   4
  -3   0  -5 4.76177 25.7717  15
  -3   0  -5-10.0202 11.4794   1
   3   0   5 28.7604 21.0110  13
   3   0   5 17.0341 17.0401  16
   3   0   5-25.3257 32.0399   2
  -3   0  -5 17.8367 10.9080  14
   3   0   5 19.4308 21.7252  12
   3   0   5 21.9268 28.9289   3
   3   0   4 34.2532 34.8436  16
  -3   0  -4 41.1962 23.7165   4
  -3   0  -4-38.9199 36.4688  15
  -3   0  -4 20.8381 11.1205  14
   3   0   4 35.8385 33.7013  13
   3   0   4 46.0588 28.9254   2
   3   0   4 39.5458 27.3569   3
  -3   0  -4 26.2965 18.4390   5
  -3   0  -4 58.8325 29.5763   1
  -3   0  -3-4.11614 14.4616  15
  -3   0  -3-1.55749 15.3170  14
   3   0   3-50.4520 11.8931  13
   3   0   3 21.4673 16.8181   6
  -3   0  -3-1.42862 17.0116   4
  -3   0  -3 11.4711 4.41241   1
   3   0   3 19.4769 20.6444  16
   3   0   3-22.1265 28.0318   2
   3   0   3 3.51577 21.1521   3
  -3   0  -3 11.8878 17.3829   5
  -3   0  -2 1283.93 135.632  15
   3   0   2 1215.30 137.329  16
  -3   0  -2 1328.17 136.390  14
  -3   0  -2 1130.48 131.426   1
   3   0   2 1165.03 90.9804   6
   3   0   2 1177.37 135.843  13
   3   0   2 1116.30 117.352   3
   3   0   2 1194.09 131.843   2
  -3   0  -2 1059.20 89.7666   5
  -3   0  -2 1204.59 123.675   4
   3   0   1-3.47012 5.49728  16
  -3   0  -1-79.5385 50.9815  15
  -3   0  -1-31.3730 15.6516   4
   3   0   1 31.2440 16.8199   6
  -3   0  -1-1.85085 23.3200   1
   3   0   1-29.8231 15.4888   3
  -3   0  -1-1.47612 18.6988   5
   3  -1   7 47.5059 62.7860  16
   3   1   7 30.1698 41.4945  16
   3  -1   7 36.6506 22.5688   2
  -3  -1  -7 56.1867 32.5521  15
  -3   1  -7 36.7970 26.6702  15
  -3   1  -7 17.9369 39.2273  14
   3   1   7 38.3472 28.0666   2
   3  -1   7 70.1327 50.4636  13
   3   1   7 96.2390 58.5277  13
  -3   1  -7 68.8341 51.5646   1
   3   1   7 24.0227 11.0526  12
  -3  -1  -7 41.4715 42.9526   1
  -3  -1  -7 93.7689 47.8957  14
  -3  -1  -7 38.3653 44.7171   4
   3  -1   6 634.330 115.510  16
   3   1   6 533.435 100.273  16
  -3   1  -6 531.386 83.9929  15
  -3  -1  -6 599.444 94.6635  14
   3   1   6 652.353 116.063   2
   3  -1   6 705.298 116.409  13
   3   1   6 561.731 101.280  13
   3   1   6 720.001 102.541  12
  -3   1  -6 626.205 82.2454  11
  -3   1  -6 598.339 111.272   1
  -3   1  -6 531.757 96.1579  14
  -3  -1  -6 580.151 101.345  15
   3  -1   6 731.249 122.237   2
  -3  -1  -6 494.163 110.001   4
  -3  -1  -6 597.303 114.405   1
   3  -1   5 218.640 67.3296  16
   3   1   5 223.382 65.2879  16
  -3  -1  -5 161.238 42.5380   4
  -3   1  -5 220.549 61.4609   1
  -3   1  -5 242.702 61.3962  15
  -3   1  -5 227.658 64.0942  14
  -3  -1  -5 249.382 56.3721  14
   3  -1   5 224.352 55.9710  13
   3  -1   5 223.614 59.4457   2
   3   1   5 225.436 64.7488  13
   3   1   5 200.984 102.840   2
  -3  -1  -5 158.511 64.9937   1
   3   1   5 216.656 59.3473   3
   3   1   5 189.108 49.8367  12
   3  -1   5 237.261 63.2819   3
   3  -1   5 118.606 49.7943  12
  -3   1  -5 197.252 41.2266  11
  -3  -1  -5 147.703 47.8571   5
  -3  -1  -5 233.395 63.0851  15
  -3   1  -5 208.080 56.8068   4
  -3  -1  -4 405.749 85.0056   1
  -3  -1  -4 489.627 89.2716  15
  -3  -1  -4 521.644 83.0297  14
  -3   1  -4 460.036 85.1668  14
   3  -1   4 485.932 75.9892   6
   3  -1   4 509.710 94.8443  16
   3  -1   4 447.856 80.2598  13
   3   1   4 463.778 86.4992  13
  -3   1  -4 514.724 93.9900  15
   3   1   4 430.180 71.7002  12
   3  -1   4 527.444 96.6693   2
   3   1   4 438.065 86.2085  16
  -3   1  -4 460.893 66.8258  11
  -3  -1  -4 456.305 65.8705   5
   3   1   4 488.555 88.3744   2
   3  -1   4 456.182 81.7380   3
   3   1   4 442.815 72.7086   3
  -3   1  -4 432.578 86.0843   1
  -3   1  -4 500.543 81.6207   4
  -3  -1  -4 418.167 85.4235   4
  -3   1  -3 3081.89 221.194  15
  -3  -1  -3 2926.74 213.185  15
  -3   1  -3 2794.53 218.016   1
  -3  -1  -3 3170.19 200.378  14
   3   1   3 2714.03 112.687   6
   3  -1   3 2921.32 161.983   6
   3  -1   3 2838.51 193.910  13
   3   1   3 2914.74 214.563  13
   3  -1   3 3104.86 214.051   3
   3   1   3 2875.38 185.412   3
  -3   1  -3 2880.15 211.210  14
  -3   1  -3 2953.59 135.855   5
  -3  -1  -3 2912.93 171.867   5
   3   1   3 2724.66 213.867  16
  -3   1  -3 2909.77 192.420   4
  -3  -1  -3 2917.80 210.754   4
   3  -1   3 2866.55 211.924   2
   3   1   3 2861.31 210.469   2
  -3  -1  -3 2837.80 213.602   1
   3  -1   3 2882.24 218.997  16
   3  -1   2 265.156 63.7851  16
  -3  -1  -2 492.190 97.0372  15
  -3   1  -2 262.040 61.7965  15
  -3   1  -2 280.665 57.5459   4
  -3   1  -2 252.392 67.2355   1
  -3  -1  -2 455.346 90.9643   1
  -3   1  -2 269.689 58.4284  14
  -3  -1  -2 170.934 60.7648  14
   3  -1   2 315.740 66.0249  13
   3  -1   2 282.421 49.6764   6
  -3   1  -2 281.196 37.6091   5
   3  -1   2 227.592 58.0825   2
   3  -1   2 301.111 65.3772   3
  -3  -1  -2 459.810 88.0653   4
   3   1   1-9.01298 21.5436  16
   3  -1   1 30.2735 18.0832  16
  -3   1  -1 3.31966 9.06034  15
  -3  -1  -1 10.6656 5.70689  15
  -3   1  -1 19.7359 15.5446   4
   3  -1   1 32.0809 14.3784   7
  -3   1  -1 43.4963 28.9055  14
  -3  -1  -1 41.0149 39.4558   1
  -3   1  -1-0.78926 23.2671   1
  -3  -1  -1 20.8672 39.1903   4
   3  -1   1 12.7711 9.04511   6
   3  -1   1 15.9128 16.6489   2
   3  -1   1 1.73183 13.9537   3
   3   1   1 43.5158 36.2064   2
   3   1   1-5.99207 13.5096   3
  -3   1  -1 19.9560 6.98116   5
   3   2   8 11.8480 17.1693  16
  -3  -2  -8 3.90061 46.1337  15
  -3  -2  -8 38.7931 10.6456  14
   3   2   7 90.3190 59.0178  16
  -3  -2  -7-13.0262 18.8900  15
   3   2   7-9.00002 33.6187   2
  -3  -2  -7 21.3573 24.3587  14
   3   2   7 12.8830 58.6730  13
   3   2   7-35.2501 30.0167  12
  -3  -2  -7 60.1486 42.7541   1
  -3  -2  -7-1.55490 28.9758   4
   3  -2   6 6.81272 41.6000  16
   3   2   6 47.6409 34.4357  16
  -3   2  -6 90.1912 50.9889  15
  -3  -2  -6 89.0621 44.7279  15
  -3   2  -6 57.5644 45.2059  14
  -3  -2  -6 62.5486 25.1585  14
   3   2   6 61.9646 18.8956   2
   3  -2   6 108.297 35.6356  13
   3   2   6 33.9099 29.0418  13
   3  -2   6 109.083 57.5368   2
   3   2   6 7.04821 15.1466  12
  -3  -2  -6-8.77430 22.5708   4
  -3   2  -6 24.7889 14.6791  11
  -3   2  -6 51.9049 39.5958   1
  -3  -2  -6 26.1690 33.4314   5
  -3  -2  -6 36.8114 19.3433   1
   3  -2   5-0.92843 10.4530  16
  -3  -2  -5-12.7487 15.1472   4
  -3   2  -5-6.47246 6.93653  15
  -3  -2  -5 0.23909 15.2318  15
   3   2   5-34.7375 38.0078  16
  -3   2  -5 25.8639 21.4044  14
   3  -2   5-10.9774 25.3530   2
  -3  -2  -5-0.49118 12.7191  14
   3  -2   5 8.60577 16.9978  13
   3   2   5 65.5857 36.9276  13
   3   2   5-4.67923 22.1539   3
   3   2   5 12.3902 21.6755   2
   3  -2   5 33.4766 29.8909   3
   3   2   5 9.35874 19.9613  12
  -3  -2  -5-11.5722 27.5003   1
  -3   2  -5-4.70648 16.1797  11
  -3  -2  -5-0.36490 19.5096   5
  -3   2  -5-25.4728 10.9076   1
  -3   2  -4 1253.44 149.081  15
  -3  -2  -4 1167.18 140.754   1
  -3  -2  -4 1154.89 138.076  15
  -3   2  -4 1226.94 145.159  14
  -3  -2  -4 1346.34 127.677  14
   3  -2   4 1262.41 124.870   6
   3   2   4 1200.84 116.658   3
   3  -2   4 1168.27 139.646   3
   3  -2   4 1221.44 127.325  13
   3   2   4 1259.91 146.317  13
   3   2   4 1218.87 133.799  12
  -3   2  -4 1157.86 114.941  11
  -3  -2  -4 1106.64 125.214   5
  -3   2  -4 1178.38 124.671   4
   3  -2   4 1161.53 143.199   2
  -3  -2  -4 1275.85 148.898   4
   3   2   4 1192.11 140.090   2
  -3   2  -4 1148.71 141.464   1
   3  -2   4 1288.25 152.623  16
   3   2   4 1242.33 146.465  16
  -3   2  -3 1802.08 170.998   1
  -3   2  -3 1991.85 181.499  15
  -3  -2  -3 1926.29 173.602  15
  -3  -2  -3 1811.16 172.725   1
  -3   2  -3 1818.03 173.590  14
   3  -2   3 1809.02 141.164   6
   3  -2   3 1765.57 145.628  13
   3  -2   3 1785.58 171.601   3
   3   2   3 1886.06 179.558  13
   3   2   3 1788.97 138.451   3
  -3   2  -3 1833.40 143.979  11
  -3  -2  -3 1832.52 149.600   5
  -3   2  -3 1817.86 142.878   4
  -3  -2  -3 1896.83 177.123   4
   3  -2   3 1818.34 171.944   2
   3   2   3 1867.87 167.955   2
   3  -2   3 1740.19 178.118  16
   3   2   3 1907.99 177.728  16
  -3   2  -2 21.8388 16.2637  15
  -3  -2  -2 49.4007 28.2991  15
  -3  -2  -2 11.5991 32.6318   4
  -3   2  -2 46.3193 30.7456  14
   3  -2   2 48.4011 27.4853  13
   3   2   2 62.0136 31.2896  13
   3   2   2 64.4738 32.7104  16
   3  -2   2 45.8541 14.2246   6
   3   2   2 46.6005 10.1222   6
   3  -2   2 51.2506 32.6954   2
   3  -2   2 80.1871 41.6550   3
   3   2   2 45.0740 16.6202   2
   3   2   2 97.8141 37.8701   3
   3  -2   2 37.0741 24.1463  16
  -3   2  -2 53.8019 33.2094   1
  -3  -2  -2 61.5316 33.9982   5
  -3  -2  -2 46.5820 24.8707   1
  -3   2  -2 60.6633 30.9692   4
  -3  -2  -2 72.8479 20.7494   8
   3  -2   1 265.584 36.7157   7
   3  -2   1 221.911 59.2973  16
  -3   2  -1 270.393 59.7278  15
  -3   2  -1 277.747 51.6595   4
  -3   2  -1 250.392 61.6489  14
   3  -2   1 314.254 59.7318   6
  -3   2  -1 258.834 28.1867   5
  -3   2  -1 241.416 61.5792   1
   3  -2   1 263.750 61.8029   2
   3  -2   1 285.176 68.6371   3
  -3   2   0 646.597 106.573  14
  -3   2   0 570.407 97.8746   1
   3  -2   0 486.390 87.6125   6
   3  -2   0 489.066 92.1646   3
   3  -2   0 476.821 89.3120   2
  -3   2   0 569.160 78.1751   4
   3   3   8 408.807 105.394  16
  -3  -3  -8 418.810 98.0721  15
   3   3   8 280.168 88.8008  12
  -3  -3  -8 451.545 119.103   4
  -3  -3  -7 2606.45 231.787  15
   3   3   7 2779.64 239.341  12
  -3  -3  -7 1971.47 215.236   5
   3   3   7 2942.63 262.023   2
  -3  -3  -7 2443.62 250.402   4
  -3  -3  -7 2714.22 255.751   1
   3   3   7 2661.48 242.019  16
   3  -3   6 69.8223 72.9708  16
   3  -3   6 35.4202 14.5117   2
  -3  -3  -6 98.0329 53.7036   4
  -3   3  -6 94.8082 67.7061  15
  -3  -3  -6 9.70280 15.4691  15
  -3   3  -6 69.1182 59.7089  14
   3   3   6-53.4249 32.4640   2
   3  -3   6 177.627 75.8149  13
   3   3   6 45.8467 26.8983  16
   3   3   6 42.6802 44.5972  13
  -3   3  -6 29.0059 26.0776   1
   3   3   6 56.0652 32.3692  12
  -3   3  -6 71.8920 55.5483  11
  -3  -3  -6 23.5916 43.5217   5
  -3  -3  -6 115.768 56.6770   1
  -3   3  -5 1585.83 172.974  15
  -3  -3  -5 1473.30 160.411  15
  -3   3  -5 1632.70 180.770  14
  -3  -3  -5 1965.38 174.541  14
   3  -3   5 1491.95 172.908   3
   3  -3   5 1553.46 148.033  13
   3   3   5 1474.45 173.482  13
   3   3   5 1382.15 151.210  12
  -3   3  -5 1547.97 152.459  11
   3  -3   5 1544.57 175.602   2
  -3  -3  -5 1318.48 166.643   4
   3   3   5 1348.33 152.913   2
  -3   3  -5 1492.72 172.042   1
   3  -3   5 1568.29 179.462  16
  -3  -3  -5 1378.53 157.828   1
   3  -3   4 413.221 88.1724  16
   3   3   4 495.771 92.9122  16
  -3   3  -4 437.449 85.4787   1
  -3   3  -4 531.974 91.7460  15
  -3  -3  -4 418.032 92.3422   1
  -3  -3  -4 459.881 88.9423  15
  -3  -3  -4 521.197 101.041   4
  -3   3  -4 473.921 97.4205  14
   3  -3   4 487.016 86.8586   6
   3   3   4 532.228 79.4995   3
   3  -3   4 452.884 76.1004  13
   3  -3   4 468.244 87.4130   2
   3   3   4 488.050 94.5836  13
   3   3   4 172.040 94.4829  12
  -3   3  -4 406.748 72.9301  11
   3  -3   4 512.390 95.2217   3
   3   3   4 512.878 93.0559   2
  -3  -3  -4 324.372 85.7297   5
  -3   3  -3 913.691 126.228  15
  -3  -3  -3 835.954 117.037  15
  -3  -3  -3 746.267 110.796   1
  -3   3  -3 790.908 123.749  14
   3  -3   3 754.770 98.6408   6
   3  -3   3 776.386 118.972   3
   3  -3   3 806.174 94.3270  13
   3   3   3 812.347 125.766  13
   3   3   3 796.359 86.9546   3
  -3   3  -3 846.599 106.739  11
  -3  -3  -3 778.957 108.834   5
  -3   3  -3 814.861 114.087   1
  -3  -3  -3 879.357 79.8910   8
  -3   3  -3 795.607 94.0361   4
   3  -3   3 717.988 107.277   2
  -3  -3  -3 792.410 124.864   4
   3   3   3 790.930 112.215   2
   3  -3   3 783.150 118.908  16
   3   3   3 880.165 124.651  16
   3  -3   2 399.435 58.4374   7
   3  -3   2 289.472 67.9415  16
  -3  -3  -2 521.222 108.391   1
  -3   3  -2 397.749 76.7246  15
  -3  -3  -2 410.096 99.2163   4
  -3   3  -2 395.575 88.7452  14
  -3   3  -2 330.146 70.9004   1
   3   3   2 396.076 96.6408  13
   3  -3   2 394.606 82.3757  13
   3  -3   2 384.469 71.6447   6
  -3   3  -2 422.273 77.4331  11
   3  -3   2 424.792 83.5225   2
   3  -3   2 355.105 75.7723   3
   3   3   2 431.879 93.9938   2
   3   3   2 385.847 68.5852   3
  -3  -3  -2 450.598 97.0160   5
  -3   3  -2 356.757 56.6343   4
  -3  -3  -2 376.065 58.9610   8
   3  -3   1 0.10743 30.3403  16
  -3   3  -1 26.2486 16.5846   4
  -3   3  -1 74.0703 16.6137  15
  -3   3  -1 52.8299 19.5166   1
   3  -3   1 12.7251 4.28533   7
  -3   3  -1 75.0097 38.3394  14
   3  -3   1 39.0019 21.8760   6
   3  -3   1 26.8479 21.2582   2
   3  -3   1 1.98513 28.0117   3
   3  -3   0 785.591 86.3712   7
  -3   3   0 706.809 110.541  14
  -3   3   0 701.828 104.939   1
   3  -3   0 689.280 103.402   6
   3  -3   0 685.907 113.236   3
  -3   3   0 736.046 80.2669   4
   3  -3   0 769.746 108.346   2
   3   4   8 619.857 129.151  16
  -3  -4  -8 551.565 111.579  15
   3   4   8 48.9913 154.169  13
   3   4   8 151.581 132.848  12
  -3  -4  -8 575.891 142.209   4
  -3  -4  -7 180.903 85.3962   4
   3   4   7 197.006 55.7384   2
  -3  -4  -7 221.062 69.9025  15
   3   4   7 230.616 70.9300  16
   3   4   7 18.9952 82.1710  13
   3   4   7 8.07241 67.1640  12
  -3  -4  -7 179.810 69.5570   1
  -3  -4  -7 79.8789 57.0903   5
   3  -4   6 117.074 81.0379  16
   3   4   6 35.8867 71.9415  16
  -3  -4  -6 182.217 75.8866   4
  -3   4  -6 323.269 118.773  15
  -3  -4  -6 240.737 70.8162  15
  -3   4  -6 308.141 116.322  14
   3   4   6 249.775 74.6212   2
   3   4   6 6.96585 58.7965  13
   3   4   6 6.16154 51.3725  12
  -3  -4  -6 102.214 60.0853   5
  -3  -4  -6 237.892 70.1277   1
   3  -4   5 57.8747 53.3866  16
   3   4   5 10.9625 18.7715  16
   3  -4   5 103.437 54.7753   2
  -3   4  -5 102.482 55.9177  15
  -3  -4  -5 17.3416 41.2837   4
  -3  -4  -5 85.7807 42.8337  15
  -3   4  -5 95.7846 45.2234  14
   3  -4   5 77.3541 31.7821  13
   3   4   5-1.30388 28.4928  13
   3   4   5 7.34236 27.7870   2
   3  -4   5 20.1754 7.60271   3
  -3  -4  -5 30.0347 24.5731   1
   3   4   5-5.95181 37.9441  12
  -3   4  -5 72.4899 47.5439   1
  -3   4  -5 38.2780 12.9095  11
  -3  -4  -5 8.25182 32.6242   5
   3  -4   4 343.272 78.4315  16
  -3   4  -4 395.177 83.7107  15
  -3  -4  -4 446.990 91.4480  15
   3  -4   4 391.559 83.8411   2
  -3   4  -4 379.181 84.4171  14
   3   4   4 22.7538 142.153  13
   3  -4   4 356.367 66.4742  13
   3  -4   4 409.198 85.6456   6
   3   4   4 24.9885 124.823  12
   3  -4   4 322.814 79.8080   3
  -3   4  -4 382.906 78.4626  11
   3   4   4 470.701 94.6359   2
  -3   4  -4 353.489 83.8920   1
   3   4   4 55.5235 108.623  16
   3  -4   3 57.0992 26.7645  16
  -3  -4  -3 41.6296 26.5375   1
   3   4   3-1.91205 23.1834  16
  -3   4  -3 22.3280 13.0683  15
  -3  -4  -3 60.2156 32.2982   4
  -3   4  -3 16.6402 16.6799  14
  -3   4  -3 56.7451 30.3346   1
   3  -4   3 53.9593 26.8020  13
   3  -4   3 37.3236 23.5462   2
   3   4   3 7.68319 26.7940  13
   3  -4   3 24.4748 18.6717   6
  -3   4  -3 52.6619 31.5740  11
   3  -4   3 40.2366 37.0940   3
   3   4   3 11.2930 19.2338   2
  -3  -4  -3 68.7082 38.1670   5
  -3  -4  -3 12.2032 15.0344   8
   3  -4   2 76.9118 32.0375  16
   3  -4   2 125.163 36.8104   7
  -3   4  -2 85.7291 32.2589  15
  -3  -4  -2 101.613 69.0178   4
  -3   4  -2 89.7909 43.5617  14
   3   4   2 5.84910 34.2296  13
   3  -4   2 101.222 38.7815   6
   3  -4   2 107.597 44.4229   2
  -3   4  -2 33.3231 22.1327  11
   3  -4   2 64.9017 31.5452   3
   3   4   2 100.511 55.5664   2
   3   4   2 61.6753 18.9707   3
  -3   4  -2 120.899 35.1555   9
  -3   4  -2 26.1842 13.9662   1
  -3  -4  -2 159.113 64.2599   5
  -3  -4  -2 76.9640 43.6456   1
  -3  -4  -2 67.6013 30.2036   8
   3  -4   1 55.0226 11.3529  16
  -3   4  -1 123.767 36.6509  15
   3  -4   1 91.1484 31.2728   7
  -3   4  -1 95.0124 39.1200  14
  -3   4  -1 77.8108 25.1268   4
  -3   4  -1 94.4388 33.0811   1
   3  -4   1 161.865 57.2754   6
  -3   4  -1 103.287 41.1664  11
   3  -4   1 112.721 42.3465   2
   3  -4   1 145.174 59.6618   3
  -3   4  -1 104.112 30.8297   9
   3  -4   0 1096.83 108.859   7
  -3   4   0 1069.49 139.840  14
  -3   4   0 1148.46 131.917   1
   3  -4   0 1014.71 133.364   6
   3  -4   0 1190.97 149.281   3
  -3   4   0 1155.52 89.4645   4
   3  -4   0 1100.59 126.467   2
  -3   4   1 35.7680 12.1393   4
   3  -4  -1 71.2909 25.8035   7
  -3   4   1 70.3171 48.6132  14
   3  -4  -1 44.4540 36.4230   6
  -3   4   1 35.7444 26.8123   1
   3  -4  -1 28.2957 27.6849   2
   3  -4  -1 54.8038 27.1792   3
   3   5   8 13.7706 35.9506  16
  -3  -5  -8 3.69435 36.8972  15
   3   5   8-7.32588 40.2404  13
   3   5   8 0.21856 46.6693  12
  -3  -5  -8-3.68631 68.4557   5
  -3  -5  -8 117.155 60.5280   4
  -3  -5  -7-21.0479 6.41224   4
   3   5   7 47.6156 47.7256   2
  -3  -5  -7 6.27072 20.3034  15
   3   5   7-3.20130 39.7232  16
   3   5   7 13.4672 22.8786  13
  -3  -5  -7-12.0333 18.8848   1
   3   5   7 53.2635 36.6060  12
  -3  -5  -7 0.32530 12.5240   5
  -3  -5  -6 2911.77 234.383  15
   3   5   6 2940.92 236.683   2
  -3  -5  -6 2498.43 255.721   4
  -3  -5  -6 2776.66 238.823   1
   3  -5   5 684.161 122.488  16
  -3   5  -5 671.207 119.051  15
  -3  -5  -5 627.395 122.555   4
  -3  -5  -5 666.839 107.684  15
  -3   5  -5 748.324 140.197  14
  -3  -5  -5 628.844 107.042   1
   3   5   5 23.3377 119.956  13
   3   5   5 608.730 105.530   2
   3  -5   5 665.675 132.942   3
   3   5   5 31.8080 107.261  12
  -3   5  -5 801.134 137.378  11
  -3  -5  -5 419.218 108.660   5
   3   5   5 179.908 120.074  16
   3  -5   4 50.0656 18.0751  16
   3   5   4 3.30752 18.0404  16
   3  -5   4 40.6953 29.1211   2
  -3   5  -4-8.80362 21.1049  15
  -3  -5  -4 4.76625 20.3419   4
  -3   5  -4 11.3168 18.3245  14
   3  -5   4 15.2252 30.8471   6
   3   5   4 0.15669 32.7251  13
   3  -5   4-14.5292 24.2317   3
   3   5   4-17.6412 33.0717  12
  -3   5  -4 40.7968 26.0398  11
   3   5   4 2.17762 15.2247   2
  -3   5  -4 83.0333 49.7589   1
  -3  -5  -4 43.5868 23.6369   5
  -3  -5  -4 89.8637 45.7922   1
   3  -5   3 110.192 44.1148  16
  -3   5  -3 105.395 36.7849  15
  -3  -5  -3 94.3206 47.6170   4
   3  -5   3 116.673 46.4778   2
  -3   5  -3 98.9927 43.5533  14
   3  -5   3 55.0795 35.1258   6
   3   5   3 14.6471 68.8038  13
  -3   5  -3 45.8373 16.3234  11
   3  -5   3 42.7948 29.2336   3
   3   5   3 97.8619 47.2458   2
  -3  -5  -3 51.7183 14.2936   5
  -3   5  -3 89.0451 37.0676   1
  -3  -5  -3 132.191 46.7500   1
  -3  -5  -3 112.603 50.1978   8
   3  -5   2 3192.77 217.048   7
  -3   5  -2 2528.27 194.571  15
  -3   5  -2 2580.88 226.482  14
   3  -5   2 2496.19 216.828   6
   3  -5   2 2583.60 225.495   3
  -3   5  -2 2512.05 212.853  11
  -3   5  -2 2901.44 202.349   9
   3  -5   2 1861.98 252.142   8
   3  -5   2 2519.74 196.806   2
  -3   5  -2 2450.87 190.784   1
   3  -5   2 2479.29 202.388  16
   3  -5   1 34.4658 12.3865  16
   3  -5   1 93.6795 37.7780   7
  -3   5  -1 61.8680 35.9529  15
  -3   5  -1 44.3427 19.0190  14
   3  -5   1 27.6307 42.3458   6
   3  -5   1 51.2551 28.3577   2
  -3   5  -1 43.9566 10.4473  11
   3  -5   1 92.5930 41.4606   3
  -3   5  -1 40.3473 23.4477   9
  -3   5  -1 40.2401 29.8944   1
   3  -5   0 223.940 50.6246   7
  -3   5   0 264.287 72.2350  14
   3  -5   0 230.629 64.1064   6
  -3   5   0 226.511 65.7662  11
   3  -5   0 233.630 65.2984   2
  -3   5   0 229.188 67.0042   1
   3  -5   0 206.160 65.0322   3
   3  -5  -1 264.396 67.3384   7
  -3   5   1 198.734 62.3618  14
  -3   5   1 286.918 64.4612   1
   3  -5  -1 217.013 64.0699   6
   3  -5  -1 219.564 66.5811   2
   3  -5  -1 220.187 63.0875   3
  -3  -6  -8-104.715 101.826  15
   3   6   8 0.21073 14.5991  13
   3   6   8-2.27920 17.7575  12
  -3  -6  -8-44.8374 44.8524   5
  -3  -6  -8-13.9455 26.8564   4
  -3  -6  -7 64.7152 40.8370   4
   3   6   7 18.8331 52.4254  16
  -3  -6  -7 38.0949 28.6335  15
   3   6   7 2.62332 39.1351  13
   3   6   7 0.55532 25.6482  12
  -3  -6  -7-25.3145 35.4452   5
   3   6   6 36.2835 48.0000  16
  -3  -6  -6 124.362 57.5776   4
  -3  -6  -6 159.802 70.7174  15
   3   6   6 157.839 65.1862   2
   3   6   6 7.61471 67.5737  13
   3   6   6 15.7761 51.9780  12
  -3  -6  -6 157.218 73.1201   1
  -3  -6  -6 82.8261 45.2652   5
   3  -6   5 78.4891 58.8097  16
  -3   6  -5 194.020 73.1433  15
  -3  -6  -5 150.090 55.1090   4
  -3  -6  -5 195.235 71.7192   1
  -3   6  -5 89.6163 81.4158  14
   3   6   5 226.148 66.9309   2
   3   6   5-3.92561 33.9330  13
   3   6   5 4.26745 52.3997  12
  -3   6  -5 188.865 87.8132  11
  -3  -6  -5 141.856 57.9892   5
   3  -6   4 490.173 106.279  16
  -3   6  -4 416.750 95.9162  15
  -3  -6  -4 427.730 101.612   4
  -3   6  -4 457.498 104.608  14
   3  -6   4 485.786 131.374   6
   3   6   4 41.7657 121.563  13
   3  -6   4 391.296 92.4491   3
   3   6   4 525.700 100.836   2
  -3   6  -4 416.134 107.986  11
  -3  -6  -4 491.778 107.443   1
  -3  -6  -4 519.393 117.131   5
   3  -6   3 100.316 43.3983  16
   3  -6   3 46.4853 16.7931   2
  -3   6  -3 48.6410 31.5069  15
  -3  -6  -3 14.5966 13.7096   4
  -3   6  -3 35.7081 26.3253  14
   3  -6   3 29.3575 29.2831   6
   3   6   3 5.88711 23.8582  13
  -3  -6  -3 73.1226 39.0839   1
  -3   6  -3 119.955 46.9877   1
   3  -6   3 16.8780 28.0354   3
  -3   6  -3 42.2318 14.7303  11
   3   6   3-58.8165 93.4528   2
  -3  -6  -3 65.3986 20.5861   5
  -3  -6  -3 47.9806 39.9648   8
   3  -6   2 1400.98 164.497   7
  -3   6  -2 1069.85 126.969  15
  -3   6  -2 1085.86 149.737  14
   3  -6   2 1133.87 151.928   6
   3  -6   2 1187.87 157.334   3
  -3   6  -2 1128.99 153.901  11
  -3   6  -2 1291.53 149.642  10
  -3   6  -2 1415.90 158.959   9
   3  -6   2 1385.12 161.852   8
   3  -6   2 1204.23 141.596   2
  -3   6  -2 1138.25 134.075   1
   3  -6   2 1163.65 141.729  16
  -3   6  -1 873.700 115.382  15
  -3   6  -1 941.446 144.381  14
   3  -6   1 887.935 114.277   7
   3  -6   1 889.148 140.670   6
   3  -6   1 862.555 133.954   3
  -3   6  -1 836.667 136.144  11
  -3   6  -1 842.159 116.076   9
   3  -6   1 845.755 154.808   8
   3  -6   1 772.612 107.532   2
  -3   6  -1 744.770 105.274   1
   3  -6   1 1030.24 144.146  16
   3  -6   0 150.492 55.2803   7
  -3   6   0 212.151 56.9611  14
   3  -6   0 139.411 52.5186   6
   3  -6   0 234.497 65.7993   2
  -3   6   0 209.126 70.2720  11
   3  -6   0 190.233 67.6981   3
  -3   6   0 149.506 45.4900   9
  -3   6   0 196.889 52.5220   1
   3  -6  -1 33.2760 25.8649   7
  -3   6   1 4.98539 39.9432  14
   3  -6  -1 72.8608 54.7447   6
  -3   6   1 21.1583 26.4301   1
   3  -6  -1 44.8248 22.6122   2
   3  -6  -1 50.9121 36.0064   3
   3   7   8 21.5876 51.4834  13
   3   7   8 18.6271 26.3126  12
  -3  -7  -8 16.9034 40.9953   5
  -3  -7  -8 53.5320 63.5482   4
  -3  -7  -7 149.576 69.0730   4
   3   7   7 11.7371 52.2360  13
   3   7   7 8.96668 63.9234  12
  -3  -7  -7 1.38013 21.7239   5
  -3  -7  -6 136.520 70.7214   4
   3   7   6 0.18997 66.6524  13
   3   7   6 2.64434 54.6489  12
  -3  -7  -6 6.30681 40.2781   5
  -3  -7  -5 39.0485 64.0668   4
   3   7   5 13.5883 96.9270  13
   3   7   5 88.3273 134.216  12
  -3  -7  -5 6.74561 70.7879   5
   3  -7   4 632.613 180.766  16
  -3   7  -4 625.052 140.811  15
  -3  -7  -4 576.392 122.758   4
  -3   7  -4 607.930 140.511  14
   3  -7   4 626.603 170.974   6
   3   7   4 47.4431 146.974  13
   3  -7   4 537.691 131.979   3
  -3   7  -4 672.299 138.276  11
  -3  -7  -4 589.705 133.762   5
  -3   7  -3 770.338 122.886  15
  -3   7  -3 671.922 124.796  14
   3  -7   3 694.132 131.114   6
   3  -7   3 665.863 125.333   3
  -3   7  -3 655.606 126.258  11
   3  -7   3 783.437 134.561  16
   3  -7   2 482.770 140.471   2
  -3   7  -2 617.637 104.286  15
  -3   7  -2 620.850 115.342  14
   3  -7   2 638.727 120.833   6
   3  -7   2 714.551 124.917   3
  -3   7  -2 573.440 110.001  11
  -3   7  -2 733.693 122.030  10
  -3   7  -2 767.353 136.681   9
   3  -7   2 838.568 135.241   8
  -3   7  -2 694.400 125.264   1
   3  -7   2 741.018 123.246  16
   3  -7   1 171.974 82.0780  16
   3  -7   1 249.668 62.0222   7
   3  -7   1 379.229 97.6421   2
  -3   7  -1 234.739 73.0200  14
   3  -7   1 293.605 79.0341   6
  -3   7  -1 176.511 59.8779  11
   3  -7   1 248.238 74.8969   3
  -3   7  -1 312.962 83.2693  10
  -3   7  -1 269.959 69.5084   9
   3  -7   1 377.755 94.7509   8
   3  -7   0 7.84785 22.9978   7
  -3   7   0 17.4701 23.4424  14
   3  -7   0-20.7676 30.4679   2
   3  -7   0-23.8606 15.8939   6
  -3   7   0 83.6453 45.4015  11
   3  -7   0 18.7990 37.9173   3
  -3   7   0-16.9796 30.4644   9
   3  -7  -1 302.021 73.2805   7
  -3   7   1 270.128 81.4673  14
   3  -7  -1 434.283 101.507   6
   3  -7  -1 349.668 92.5147   3
  -3   7   1 311.844 74.2232   9
   3  -7  -2 38.3999 16.7197   7
   3  -7  -2 20.6505 55.5552   6
   3  -7  -2 10.7518 18.8757   3
   3   8   8-3.33655 173.114  13
   3   8   8 11.1372 155.222  12
  -3  -8  -8 86.8697 63.4014   5
  -3  -8  -8 150.930 97.0116   4
  -3  -8  -7 156.464 52.2234   4
   3   8   7 21.5218 102.593  13
   3   8   7 18.0520 77.1738  12
  -3  -8  -7 40.5327 56.5028   5
  -3  -8  -6 159.011 68.8111   4
   3   8   6 1.17414 66.3192  13
  -3  -8  -6 120.140 77.0918   5
  -3  -8  -5 165.900 76.9638   4
  -3  -8  -5 55.4398 52.0731   5
  -3  -8  -4 69.9044 64.2306   4
  -3   8  -4 58.5046 23.9295  11
  -3  -8  -4 14.3680 24.6272   5
  -3   8  -3 293.559 101.857  14
   3  -8   3 299.361 107.810   6
   3  -8   3 387.766 105.220   3
  -3   8  -3 390.111 104.721  11
  -3   8  -2 91.8334 50.6555  14
   3  -8   2 68.9980 44.9851   6
   3  -8   2 1.34738 46.9720   3
  -3   8  -2 21.6517 21.8317  11
  -3   8  -2 60.9409 36.8535  10
   3  -8   2 84.1778 58.7449   8
   3  -8   1-63.7655 48.4911   7
  -3   8  -1 45.8562 57.0312  14
   3  -8   1 5.21403 45.7104   6
   3  -8   1-27.6200 8.84607   3
  -3   8  -1 16.6775 14.2937  11
  -3   8  -1-4.92180 25.8646  10
  -3   8  -1-38.2231 44.7169   9
   3  -8   1-35.3591 49.6727   8
   3  -8   0 89.6237 48.1782   7
  -3   8   0 66.8665 38.4411  14
   3  -8   0 82.2203 47.2402   6
  -3   8   0 138.938 64.4102  11
   3  -8   0 74.2639 42.8261   3
  -3   8   0 112.530 76.8731  10
  -3   8   0 89.7297 57.1812   9
   3  -8   0 43.0949 68.5619   8
   3  -8  -1 1390.44 189.809   7
  -3   8   1 999.354 167.322  14
   3  -8  -1 1418.99 201.946   6
   3  -8  -1 1266.76 174.705   3
  -3   8   1 1262.91 191.981  11
  -3   8   1 1262.76 180.475   9
   3  -8  -2 28.5765 44.4828   7
   3  -8  -2-88.7909 71.4172   6
   3  -8  -2-34.4879 31.6005   3
  -3   8   2 18.9747 22.8239   9
  -3  -9  -6 122.486 78.1902   4
   3   9   6 6.80443 95.1124  13
  -3  -9  -6 47.6241 28.8660   5
  -3  -9  -5 141.160 84.8177   4
  -3  -9  -5 6.14276 46.4190   5
  -3   9  -3 467.108 166.697  14
   3  -9   3 438.996 158.246   6
  -3   9  -3 396.158 113.913  11
  -3   9  -2 148.738 79.5917  14
   3  -9   2 91.3829 63.3599   6
   3  -9   2 10.7761 32.6362   3
  -3   9  -2 34.7540 23.4288  11
  -3   9  -2 126.011 51.2699  10
   3  -9   2-37.2752 42.5164   8
   3  -9   1-41.0634 49.3932   7
  -3   9  -1-32.8982 40.2854  14
   3  -9   1 75.8036 29.4084   6
   3  -9   1 18.1086 8.94924   3
  -3   9  -1 51.5624 50.1077  11
  -3   9  -1 11.1308 38.8929  10
  -3   9  -1 7.37972 34.6877   9
   3  -9   1 5.98376 39.1990   8
   3  -9   0 15.4150 17.3750   7
  -3   9   0-5.86049 31.4460  14
   3  -9   0 62.5104 35.2883   6
   3  -9   0 39.5260 34.4379   3
  -3   9   0 19.9003 53.1237  11
  -3   9   0 53.5465 54.3459  10
  -3   9   0 16.2351 40.3689   9
   3  -9   0 83.5584 71.2601   8
   3  -9  -1 36.8555 11.5335   7
  -3   9   1 104.289 74.9050  14
   3  -9  -1 47.2685 46.7932   6
   3  -9  -1 61.7056 72.8146   3
  -3   9   1 79.6870 73.8701  11
  -3   9   1 24.8020 33.6749   9
   3  -9  -2 80.0752 62.4601   7
   3  -9  -2 120.824 79.1044   6
   3  -9  -2 147.760 69.2353   3
  -3   9   2 24.7741 24.8586   9
  -3  10  -2-3.74356 30.5649  14
   3 -10   2-31.4484 57.1040   6
  -3  10  -2-67.7507 25.0559  11
  -3  10  -1-59.7087 38.8042  14
   3 -10   1-21.0774 21.7763   6
   3 -10   1 16.1264 40.3432   3
  -3  10  -1 50.3005 41.8932  11
  -3  10  -1 112.244 88.4906  10
   3 -10   1-98.1804 83.1243   8
   3 -10   0 52.4039 37.8881   7
  -3  10   0 58.5618 34.9515  14
   3 -10   0 21.5908 33.2139   6
   3 -10   0 8.78333 13.5125   3
  -3  10   0 6.44986 30.0735  11
  -3  10   0-27.4220 16.1292  10
  -3  10   0-66.3429 63.5183   9
   3 -10   0-33.9211 80.7040   8
   3 -10  -1 76.7669 75.2070   6
   3 -10  -1 93.0959 48.5078   3
  -3  10   1 85.6195 58.8802  11
  -3  10   1 18.3477 32.2630   9
   3 -10  -2 9.46869 55.6733   7
   3 -10  -2 11.7342 31.5271   6
  -3  10   2 46.3526 11.8886   9
   4   0   8 171.622 66.1460  16
   4   0   8 111.863 62.6499   2
  -4   0  -8 202.098 63.8675  15
  -4   0  -8 229.456 91.6620  14
   4   0   8-5.12169 61.1048  13
  -4   0  -8 44.5806 50.6514   1
   4   0   7-68.6086 61.2662  16
  -4   0  -7-53.6145 38.8177  15
   4   0   7 23.4942 45.2262   2
  -4   0  -7 36.5031 46.2257  14
   4   0   7 72.9818 58.7990  13
  -4   0  -7-11.8119 20.1883   1
  -4   0  -7 6.33505 17.8638   4
  -4   0  -6 1677.34 202.740  15
  -4   0  -6 1750.49 190.849  14
   4   0   6 1834.68 205.980   3
   4   0   6 1677.58 199.703  13
   4   0   6 1745.38 203.151   2
  -4   0  -6 1579.75 200.426   1
   4   0   6 1414.37 180.689  16
   4   0   5 19.7733 51.8445  16
  -4   0  -5-20.3351 16.9293   4
  -4   0  -5 4.51009 34.7167  15
  -4   0  -5-3.91248 18.6934  14
   4   0   5 3.10159 25.9688  13
   4   0   5 32.3417 47.2181   2
  -4   0  -5 25.5537 40.2088   1
   4   0   5-10.9742 29.1052   3
  -4   0  -4 1143.92 164.953   1
  -4   0  -4 1302.22 174.362  15
  -4   0  -4 1317.73 163.813  14
   4   0   4 1311.27 160.985   3
   4   0   4 1206.70 162.019  13
  -4   0  -4 1191.07 161.506   4
   4   0   4 1263.48 171.622   2
   4   0   4 1186.38 172.081  16
   4   0   3-32.2275 37.3701  16
  -4   0  -3 29.8637 38.4345  15
  -4   0  -3-41.3641 27.6650   4
  -4   0  -3 35.2391 37.7481  14
   4   0   3-26.6150 21.0658  13
  -4   0  -3-55.2667 27.2196   1
   4   0   3 12.3075 31.9901   2
   4   0   3 52.7729 42.0775   3
  -4   0  -2 1102.07 165.557  15
  -4   0  -2 843.388 142.070   1
   4   0   2 788.766 140.903   3
  -4   0  -2 888.196 137.405   4
   4   0   2 849.282 148.213   2
   4   0   2 839.499 151.510  16
   4   1   8 340.307 113.032  16
   4   1   8 338.552 106.211   2
  -4  -1  -8 290.468 83.8209  15
   4   1   8 330.949 109.675  13
  -4  -1  -8 398.167 132.055   1
   4  -1   7 251.102 82.6730  16
   4   1   7 301.702 93.8944  16
  -4   1  -7 296.057 87.7439  15
  -4  -1  -7 309.966 90.0695  15
   4  -1   7 355.058 110.131   2
   4   1   7 306.896 90.7590   2
  -4   1  -7 303.691 85.5908  14
  -4  -1  -7 342.215 85.8131  14
   4  -1   7 326.252 84.5430  13
   4   1   7 347.864 99.3861  13
  -4   1  -7 193.056 74.0691   1
  -4  -1  -7 212.364 86.9118   1
  -4  -1  -7 245.786 92.6568   4
   4  -1   6 20.1516 34.0701  16
  -4  -1  -6 26.6595 25.9534   4
   4   1   6 153.779 71.5520  16
  -4  -1  -6 37.7108 43.4659   1
  -4   1  -6 104.236 46.6976  15
  -4  -1  -6 46.2267 18.2446  15
  -4   1  -6 153.884 67.3935  14
   4  -1   6 20.9726 24.9316   2
  -4  -1  -6 17.6561 44.7812  14
   4   1   6 57.0808 63.6024   2
   4  -1   6 105.446 55.2303  13
   4   1   6 67.0800 38.4285  13
   4   1   6 54.1612 48.6906   3
   4  -1   6 108.406 60.2019   3
  -4   1  -6 6.89683 14.9139   1
  -4   1  -6 61.2197 55.2754   4
  -4   1  -5-6.49791 31.6820   4
   4  -1   5-7.07430 16.1189  16
   4   1   5-12.0325 14.9645  16
  -4  -1  -5 27.3719 26.0376   4
  -4   1  -5-41.1022 70.9033  15
  -4  -1  -5 12.5834 31.5405  15
  -4   1  -5-12.3493 25.9633  14
  -4  -1  -5 14.9867 28.5163  14
  -4   1  -5 24.3153 19.9341   1
   4  -1   5 8.22634 19.5480  13
   4   1   5 8.02616 5.60949  13
   4  -1   5-12.0217 9.39694   2
   4   1   5 62.0815 56.2817   2
   4   1   5-47.3036 25.4061   3
   4  -1   5-26.1777 22.5048   3
  -4  -1  -5-9.06121 4.70911   1
   4  -1   4-67.5551 41.3762  16
   4   1   4-26.0035 45.2081  16
  -4   1  -4-7.60276 11.3544   4
  -4  -1  -4-0.48367 36.2440   1
  -4  -1  -4-30.1191 28.2855   4
  -4   1  -4 15.2644 46.8741  15
  -4  -1  -4-52.6344 31.6715  15
  -4   1  -4-27.2014 34.5453  14
  -4  -1  -4-28.4826 27.0239  14
   4  -1   4-38.3441 32.2472  13
   4   1   4-50.2054 23.1408  13
   4  -1   4-13.5766 33.2720   2
   4   1   4-13.5060 22.3630   2
   4  -1   4 43.9947 41.5848   3
   4   1   4-2.87852 11.6334   3
  -4   1  -4 0.30899 34.2915   1
   4  -1   3-77.4217 70.6555  16
  -4   1  -3-31.4121 43.2234   4
  -4   1  -3-50.1194 57.2145  15
  -4  -1  -3-48.0578 57.0038  15
  -4  -1  -3 6.99585 28.1096   4
  -4   1  -3-20.7526 33.2303  14
  -4   1  -3 10.0486 22.2567   1
   4   1   3 65.6448 50.4994  13
   4  -1   3-130.964 72.9791  13
   4  -1   3 10.1596 14.0897   2
   4   1   3-34.6686 36.4205  16
   4   1   3-74.8615 61.0567   2
   4  -1   3-75.0076 53.3163   3
   4   1   3-7.71564 5.97861   3
  -4  -1  -3 13.8943 26.5190   1
  -4   1  -2 650.908 120.750   1
  -4   1  -2 700.453 122.622  15
   4  -1   2 603.094 97.1193   6
  -4   1  -2 521.796 116.203  14
   4  -1   2 628.059 125.117   2
   4   1   2 348.606 108.075   2
   4  -1   2 545.421 111.201   3
  -4   1  -2 731.346 120.359   4
   4  -1   2 666.011 136.999  16
   4   2   8 38.0177 22.5131  16
   4   2   8-46.0531 41.5145   2
  -4  -2  -8 55.1520 58.1256  15
   4   2   8 59.2114 21.9733  13
  -4  -2  -8-23.7986 29.8208   1
  -4  -2  -8-13.4142 41.5213   4
   4  -2   7 314.916 116.727  16
   4   2   7 319.769 100.330  16
   4  -2   7 237.050 85.6502   2
  -4   2  -7 236.833 94.6636  15
  -4  -2  -7 225.399 62.1196  15
   4   2   7 287.641 94.0417   2
  -4   2  -7 279.082 100.903  14
   4  -2   7 220.494 93.8315  13
   4   2   7 328.831 97.9459  13
  -4   2  -7 280.843 100.424   1
  -4  -2  -7 257.285 87.9700   1
  -4  -2  -7 163.174 79.2000   4
   4  -2   6 122.648 55.5797  16
   4   2   6 94.0105 55.2591  16
  -4  -2  -6 102.134 65.9599   4
  -4   2  -6 125.269 50.2504  15
  -4  -2  -6 158.594 56.0759  15
   4  -2   6 132.068 64.4136   2
  -4  -2  -6 84.9290 52.4328   1
  -4   2  -6 89.7186 42.5803  14
   4  -2   6 188.474 81.3902  13
   4   2   6 100.587 45.1365   2
   4   2   6 140.129 60.8846  13
   4  -2   6 223.646 88.1913   3
  -4   2  -6 48.4056 36.1220   1
   4  -2   5 3.04168 20.0773  16
   4   2   5 2.81399 15.6102  16
  -4  -2  -5 3.06227 15.7910   4
  -4   2  -5 49.2650 38.2277  15
  -4  -2  -5 90.6875 52.3490  15
  -4   2  -5 13.2371 20.1159   1
  -4   2  -5 43.6447 34.1155  14
   4  -2   5 12.0243 10.6058   2
   4  -2   5-3.87984 27.3150  13
   4   2   5 5.52824 32.7054  13
   4   2   5 10.7604 27.1873   2
   4  -2   5-35.4770 38.0789   3
  -4  -2  -5 20.5549 35.8496   1
  -4   2  -5 60.5472 41.5917   4
  -4   2  -4 333.236 74.8184   4
   4  -2   4 216.898 78.6963  16
   4   2   4 303.789 83.4493  16
  -4   2  -4 350.565 89.0191  15
  -4  -2  -4 294.031 103.916   4
  -4  -2  -4 353.389 95.9598  15
  -4  -2  -4 292.269 84.1745   1
  -4   2  -4 353.465 91.2080  14
   4  -2   4 264.164 74.6362  13
   4   2   4 290.119 90.4632  13
   4  -2   4 410.475 99.8762   2
   4   2   4 281.476 77.2518   2
   4  -2   4 367.672 95.4348   3
   4   2   4 254.659 68.5464   3
  -4   2  -4 237.870 72.7448   1
  -4  -2  -4 273.534 67.3550   5
   4  -2   3 94.3174 47.8563  16
   4   2   3 48.9017 38.7237  16
  -4   2  -3 24.5065 19.8494   4
  -4   2  -3 61.7162 36.7833  15
  -4  -2  -3 109.723 56.9734  15
  -4  -2  -3 26.9901 35.5388   4
  -4   2  -3 111.716 56.7242   1
  -4   2  -3 72.3064 49.0714  14
   4   2   3 6.06766 38.2606  13
   4  -2   3 24.6300 8.89806  13
   4  -2   3 92.7131 42.0362   6
   4  -2   3 41.9727 8.85172   2
   4  -2   3 70.1314 39.7513   3
   4   2   3 59.3306 43.6768   3
   4   2   3-49.9972 51.0515   2
  -4  -2  -3 30.6270 24.7252   5
  -4  -2  -3 56.5255 40.3202   1
   4  -2   2-6.26292 13.3403  16
  -4   2  -2 59.3749 48.4567   4
  -4   2  -2-9.57773 37.0282  15
  -4   2  -2 9.13777 29.6304  14
   4  -2   2 37.7858 27.5750   6
   4  -2   2 23.7110 43.2606   2
   4  -2   2-28.7091 12.6873   3
  -4   2  -2 31.7604 31.5360   1
  -4   2  -1-46.1601 35.0104   4
  -4   2  -1 10.9477 37.6714   1
   4  -2   1 8.40993 1.99028   6
   4  -2   1 37.0771 33.0162   2
   4  -2   1-43.6722 34.8917   3
   4   3   9-0.34898 58.9307  13
   4   3   8 56.7440 51.2584  16
   4   3   8 150.823 72.7780   2
  -4  -3  -8 103.047 26.0732  15
   4   3   8 7.12314 77.0521  13
  -4  -3  -8 97.2631 59.7453   1
  -4  -3  -8-39.3376 66.6981   4
   4  -3   7 370.065 138.548  16
  -4  -3  -7 255.707 91.7239   4
   4   3   7 487.146 122.802  16
   4  -3   7 414.306 151.461   2
  -4   3  -7 1079.92 212.695  15
  -4  -3  -7 384.761 89.3874  15
  -4   3  -7 976.520 206.234  14
   4   3   7 392.301 106.631   2
   4   3   7 503.649 123.192  13
  -4  -3  -7 420.395 118.808   1
   4  -3   6 56.0712 69.1576  16
   4   3   6 27.6581 68.5777  16
  -4  -3  -6-20.3545 36.7436   4
  -4   3  -6 49.3727 52.5937  15
   4  -3   6 49.0467 41.0675   2
  -4  -3  -6 68.9996 48.3923  15
  -4   3  -6-46.5872 40.2206  14
  -4  -3  -6 5.99989 19.5359   1
   4  -3   6 36.4490 15.7790  13
   4   3   6 7.57137 26.8139   2
   4   3   6-1.98165 26.6480  13
   4  -3   6-35.1664 22.3962   3
  -4   3  -6-34.3724 34.4280   1
  -4  -3  -6 10.1420 31.6764   5
   4  -3   5 194.714 70.3571  16
   4   3   5 230.425 80.4771  16
  -4  -3  -5 139.521 70.6119   4
  -4   3  -5 264.601 77.4402  15
  -4  -3  -5 201.944 58.4294  15
  -4   3  -5 248.888 70.7549  14
   4  -3   5 242.604 75.0765   2
   4  -3   5 324.808 85.4774  13
   4   3   5 217.234 70.3529  13
   4   3   5 224.244 74.2336   2
   4  -3   5 207.758 75.1628   3
  -4  -3  -5 166.891 64.7248   1
  -4  -3  -5 122.131 71.4546   5
  -4   3  -5 219.770 75.5701   1
   4  -3   4 42.1581 18.6783  16
   4   3   4 230.937 84.2854  16
  -4   3  -4 135.364 54.5793  15
  -4  -3  -4 123.944 73.9603   4
  -4  -3  -4 154.421 57.5149  15
  -4   3  -4 132.430 52.3806  14
  -4  -3  -4 166.175 82.4101   1
   4  -3   4 140.854 51.9807   6
  -4   3  -4 62.7840 14.3963   1
   4  -3   4 152.080 59.4605   2
   4  -3   4 138.997 62.6113  13
   4   3   4 128.469 57.3532  13
   4  -3   4 103.195 36.4453   3
   4   3   4 213.453 84.5131   2
  -4  -3  -4 44.2377 60.9457   5
  -4   3  -3 2288.05 230.670   1
  -4   3  -3 2474.35 235.316  15
  -4   3  -3 2356.22 234.398  14
   4  -3   3 2395.04 206.752   6
   4  -3   3 2336.27 232.162   3
   4   3   3 2170.17 344.311  13
   4  -3   3 2230.27 227.709   2
   4   3   3 2466.25 352.752   2
   4  -3   3 2275.14 235.317  16
   4  -3   2 24.3885 16.2108  16
  -4   3  -2 39.6148 24.8325  15
  -4   3  -2-39.1979 39.9576  14
  -4   3  -2 42.2547 45.7496   1
   4  -3   2 36.5030 28.8096   6
   4  -3   2 49.6813 36.5291   2
   4  -3   2 86.2818 47.8252   3
  -4   3  -1 1744.98 210.107  14
  -4   3  -1 1719.15 204.059   1
   4  -3   1 1070.04 143.054   6
   4  -3   1 1143.74 177.167   3
  -4   3  -1 1096.03 137.937   4
   4  -3   1 1170.83 172.093   2
   4   4   9-15.2497 90.2784  13
   4   4   8-53.6303 42.0219  16
   4   4   8 44.4353 32.3967   2
  -4  -4  -8 56.6316 58.8358  15
   4   4   8-2.15456 2.84433  13
  -4  -4  -8 7.78197 43.0508   1
   4   4   8-7.57604 69.5864  12
  -4  -4  -8 37.9167 22.3294   4
  -4  -4  -7 285.699 101.894   4
   4   4   7 385.355 98.4770  16
  -4  -4  -7 425.018 110.597  15
   4   4   7 453.634 110.790   2
   4   4   7 44.7985 122.931  13
  -4  -4  -7 135.741 91.0875   5
  -4  -4  -7 258.321 90.1495   1
   4  -4   6 80.7902 56.9010  16
   4   4   6 41.7079 7.24025  16
   4  -4   6 11.7078 18.1776   2
  -4   4  -6 223.511 82.8798  15
  -4  -4  -6 92.4324 43.3810   1
  -4  -4  -6 157.596 76.7813  15
  -4   4  -6 58.5438 18.5774  14
   4   4   6 192.433 68.1938   2
   4   4   6 6.82639 69.0548  13
   4  -4   6-0.49034 53.9489   3
  -4   4  -6 83.9422 56.8574   1
  -4  -4  -6 96.5329 52.2108   5
   4  -4   5 553.624 119.962  16
   4   4   5 441.054 113.650  16
  -4  -4  -5 422.794 139.989   4
  -4   4  -5 430.970 98.9798  15
  -4  -4  -5 587.022 126.705  15
   4  -4   5 633.339 131.968   2
  -4   4  -5 452.185 108.252  14
   4   4   5 75.2654 141.754  13
   4  -4   5 554.603 123.430   3
   4   4   5 486.572 95.8944   2
  -4   4  -5 644.536 122.999  11
  -4  -4  -5 541.540 115.900   1
  -4   4  -5 516.408 109.054   1
  -4  -4  -5 511.833 121.191   5
   4  -4   4 568.945 110.498  16
  -4   4  -4 497.639 113.782   1
  -4   4  -4 662.617 119.829  15
  -4  -4  -4 711.185 194.657   4
  -4  -4  -4 644.829 140.898   1
  -4   4  -4 601.183 125.061  14
   4  -4   4 694.757 126.813   2
   4  -4   4 690.774 122.295   6
   4   4   4 73.9511 175.121  13
   4  -4   4 632.700 123.423   3
   4   4   4 584.200 127.609   2
  -4   4  -4 628.171 114.816  11
  -4  -4  -4 501.041 172.151   5
   4  -4   3 283.708 80.1378  16
  -4   4  -3 222.208 64.7304  15
  -4   4  -3 220.506 66.3311  14
   4  -4   3 199.898 57.7453   6
   4  -4   3 333.759 85.9880   2
  -4   4  -3 136.759 49.7005   1
   4  -4   3 305.440 94.1671   3
   4  -4   2 671.032 130.237  16
  -4   4  -2 811.179 133.026  15
  -4   4  -2 746.230 135.313  14
   4  -4   2 653.193 114.392   6
   4  -4   2 568.431 117.377   2
   4  -4   2 690.568 130.120   3
  -4   4  -2 684.450 128.208   1
  -4   4  -1-7.96775 54.6845  14
   4  -4   1 56.4994 51.7116   6
  -4   4  -1 29.1631 19.2389   1
   4  -4   1-16.8316 6.69963   2
   4  -4   1 3.73317 19.0778   3
   4   5   8-46.7711 37.9504  16
   4   5   8-46.1049 34.9386   2
  -4  -5  -8-79.2770 55.1664  15
   4   5   8-173.890 89.6905  13
   4   5   8 20.4036 51.8741  12
  -4  -5  -8-12.5708 63.2356   5
  -4  -5  -8-8.27107 31.3916   4
  -4  -5  -7 8.14028 27.2907   4
  -4  -5  -7-15.5177 46.3643  15
   4   5   7 43.9770 8.37967   2
   4   5   7 50.2022 42.2875  13
  -4  -5  -7 77.3344 49.6608   1
  -4  -5  -7 10.1131 37.5381   5
   4  -5   6 5.58464 102.004  16
  -4  -5  -6 6.30167 27.9723   1
   4   5   6-60.7101 48.8626  16
  -4  -5  -6 99.7208 78.1707   4
  -4   5  -6 80.4529 80.2709  15
  -4  -5  -6-10.1881 19.6144  15
  -4   5  -6 72.6668 68.8146  14
   4   5   6-62.8925 39.6015   2
   4   5   6-3.07511 49.3096  13
  -4  -5  -6-1.38742 32.1167   5
   4  -5   5 18.3514 27.8394  16
   4  -5   5 2.60540 20.6370   2
  -4  -5  -5 46.4078 40.1362   4
  -4   5  -5 51.9623 42.9263  15
  -4   5  -5 28.1299 23.6330  14
   4   5   5 0.75568 52.6090  13
   4   5   5-23.2697 34.4521   2
   4  -5   5-50.0811 39.9690   3
  -4   5  -5 66.8424 16.7323   1
  -4  -5  -5 20.7042 25.2018   1
  -4   5  -5-11.0519 24.9700  11
  -4  -5  -5 1.01454 14.1347   5
   4  -5   4 31.8981 30.3579  16
  -4   5  -4-57.0084 31.9800  15
  -4  -5  -4-213.028 113.993   4
   4  -5   4 11.5887 36.4472   2
  -4   5  -4-29.2119 38.2000  14
   4  -5   4-155.927 60.8808   6
   4   5   4 7.41501 35.3132  13
   4  -5   4 55.3506 43.8426   3
   4   5   4 28.5119 30.7456   2
  -4   5  -4-32.2520 19.5097  11
  -4  -5  -4 134.409 192.168   5
  -4   5  -4 13.3546 22.1093   1
   4  -5   3-0.32025 27.5697  16
  -4   5  -3 0.14524 36.8506  15
  -4   5  -3 0.14831 26.2551   1
  -4   5  -3 73.2861 53.5496  14
   4  -5   3 59.3433 43.0664   2
   4  -5   3-6.58949 21.0942   6
   4  -5   3 74.3254 46.9504   3
  -4   5  -3 6.82400 11.9514  11
  -4   5  -2 2082.53 212.438   1
  -4   5  -2 2255.45 231.026  15
  -4   5  -2 2237.06 253.658  14
   4  -5   2 2251.10 227.831   6
   4  -5   2 2228.54 247.305   3
   4  -5   2 2017.34 215.777   2
   4  -5   2 1859.75 223.307  16
  -4   5  -1 486.155 108.743   1
  -4   5  -1 582.557 136.816  14
   4  -5   1 436.647 109.689   6
   4  -5   1 400.930 108.156   2
   4  -5   1 462.630 114.630   3
  -4   5   0-71.6101 65.5935  14
   4  -5   0 39.7934 32.5757   6
   4  -5   0-80.0127 52.7249   3
  -4  -6  -7-86.6460 50.6520   4
   4   6   7 0.24790 51.8586  13
  -4  -6  -7 30.8212 18.7186   1
  -4  -6  -7 54.5999 45.6326   5
  -4  -6  -6 91.6875 78.9444   4
   4   6   6 125.696 72.5290   2
   4   6   6 15.4681 137.755  13
  -4  -6  -6 62.4294 119.346   5
  -4  -6  -6 9.79897 35.5742   1
   4  -6   5-14.1815 66.2324  16
  -4  -6  -5 61.5560 54.1886   4
  -4   6  -5-33.2558 58.1591  15
  -4   6  -5-61.4861 44.9585  14
   4   6   5 10.3296 129.614  13
   4  -6   5 45.1997 30.2566   3
  -4   6  -5-0.86219 19.1647  11
  -4  -6  -5-6.80005 44.0883   5
   4  -6   4 37.2542 44.0171  16
   4  -6   4-40.7637 25.9957   2
  -4   6  -4 75.7886 52.8898  15
  -4   6  -4 12.2652 42.2319  14
   4  -6   4-10.6282 19.8835   3
  -4   6  -4 58.4933 45.6716   1
  -4   6  -4-22.3482 33.8586  11
   4  -6   3 33.8917 45.2571  16
  -4   6  -3 111.318 48.4826  15
   4  -6   3 9.07918 30.8002   2
  -4   6  -3 109.985 61.2642  14
   4  -6   3 35.4295 46.3901   6
   4  -6   3 14.1973 24.9777   3
  -4   6  -3 128.504 69.8575  11
  -4   6  -3 73.7304 25.3263   1
   4  -6   2 72.2775 43.0694  16
  -4   6  -2 95.5957 48.6708  15
  -4   6  -2 81.8421 42.6195   1
  -4   6  -2 167.081 72.7059  14
   4  -6   2 153.951 57.4165   2
   4  -6   2 100.783 59.8466   6
   4  -6   2 41.5226 10.7129   3
  -4   6  -1-61.6370 65.6973  14
   4  -6   1-78.3433 58.3207   2
   4  -6   1-3.95367 34.2787   6
  -4   6  -1 11.9172 36.7771   1
   4  -6   1 101.017 63.2069   3
  -4   6   0 59.9039 53.2378  14
   4  -6   0 129.805 68.6355   6
   4  -6   0 48.9080 39.3531   3
  -4  -7  -6-26.2466 45.8386   4
   4   7   6 9.77280 123.279  13
  -4  -7  -6 79.6387 117.121   5
  -4   7  -5-388.218 200.394  14
   4  -7   4-161.176 103.308  16
  -4   7  -4 165.382 101.876  15
   4  -7   4 113.465 300.180   6
  -4   7  -4 105.387 69.9642  14
  -4   7  -4 54.5808 62.4068  11
   4  -7   3 10.8453 43.3209  16
   4  -7   3-53.3293 73.2312   2
  -4   7  -3 30.7473 34.8522  14
   4  -7   3 74.4220 47.4031   6
   4  -7   3 117.470 43.9580   3
   4  -7   2-19.4840 27.4346   2
  -4   7  -2-8.48417 27.1368  14
   4  -7   2 18.1631 32.8162   6
   4  -7   2 69.1382 16.3235   3
  -4   7  -2-46.1689 41.7222  11
  -4   7  -1 41.5471 34.2329  14
   4  -7   1 18.2438 30.3138   6
   4  -7   1 60.5466 51.7790   3
  -4   7   0 160.315 79.3441  14
   4  -7   0 216.416 107.974   6
   4  -7   0 265.847 112.127   3
  -4   8  -4 129.144 63.1284  14
   4  -8   4 99.4671 151.038   6
   4  -8   4 103.571 67.9546   3
  -4   8  -4 37.2361 70.3688  11
  -4   8  -3 146.513 25.5088  14
   4  -8   3 66.4642 62.7289   6
   4  -8   3 149.276 68.1539   3
  -4   8  -3 187.795 95.2752  11
   4  -8   2 25.0912 21.7223   6
  -4   8  -2 4.05829 55.7158  11
  -4   8  -1 46.1492 48.2930  14
   4  -8   1 85.3309 60.1982   6
   4  -8   1 10.5146 56.3227   3
  -4   8   0 16.3368 30.3443  14
   4  -8   0-9.91259 26.3758   6
   4  -8   0 53.0867 54.7515   3
   4  -9   0 7.97607 16.4627   6
   4  -9   0-37.4707 40.9253   3
   5   0   7 24.9527 58.3767  16
  -5   0  -7 23.7468 50.1706  15
   5   0   7-13.4727 16.6675   2
  -5   0  -7-63.9053 46.5834  14
   5   0   7-26.4010 23.8669  13
  -5   0  -7-8.28376 41.9930   1
  -5   0  -7-48.8200 64.6247   4
  -5   0  -6-21.5932 33.4857   1
  -5   0  -6-20.9128 46.5443  15
  -5   0  -6-92.7072 68.7140  14
   5   0   6 0.66630 20.2694   2
   5   0   6-11.8421 42.7882  13
   5   0   6-103.594 85.9854   3
  -5   0  -6-32.8375 58.3953   4
  -5   0  -5 54.7121 60.9406   4
   5   0   5 42.0576 63.3799  16
  -5   0  -5-11.2198 30.5942  15
   5   0   5 33.7957 60.0238  13
   5   0   5 25.9802 32.4368   2
  -5   0  -5-36.4791 48.5938   1
   5   0   5-114.754 79.6212   3
   5   0   4 70.2151 57.6665  16
  -5   0  -4 271.778 109.189  15
   5   0   4 114.172 58.5990   2
  -5   0  -4 147.947 65.5892   1
   5  -1   7-13.7894 83.7756  16
   5   1   7 1.00340 66.5107  16
  -5   1  -7-9.63905 10.8183  15
  -5  -1  -7 24.4099 35.3576  15
   5  -1   7-78.9033 74.9366   2
   5   1   7-27.9859 23.6958   2
  -5   1  -7-43.0704 72.8118  14
   5  -1   7 52.6019 53.5722  13
   5   1   7 199.524 94.3553  13
  -5   1  -7-14.2008 43.3700   1
  -5  -1  -7 35.5088 47.1506   1
  -5  -1  -7-103.657 87.7053   4
  -5  -1  -6 42.2365 33.1992   4
   5  -1   6 60.8525 49.9365  16
   5   1   6 44.5395 15.4999  16
  -5   1  -6 106.850 49.7283  15
  -5  -1  -6 65.5956 55.2936  15
  -5  -1  -6 12.2289 25.3348   1
  -5   1  -6 7.30713 33.6914  14
   5  -1   6 24.5546 10.5132   2
   5   1   6 67.4228 65.5531   2
   5  -1   6 53.5123 52.9240  13
   5   1   6 108.098 45.0760  13
   5  -1   6 158.296 80.3062   3
  -5   1  -6 38.0085 13.9140   4
  -5   1  -6-18.5865 35.1454   1
  -5   1  -5 77.6868 74.0705   4
   5  -1   5 86.8348 55.3296  16
   5   1   5 69.5765 51.9793  16
  -5  -1  -5-26.1583 55.4276   4
  -5  -1  -5-19.0237 31.0732  15
  -5   1  -5-16.7682 28.3550  14
  -5   1  -5-11.0373 28.8630   1
   5  -1   5-53.2714 45.8509   2
   5   1   5-57.9238 92.6277  13
   5  -1   5-49.5933 83.3638  13
   5   1   5 115.904 74.3268   2
   5  -1   5 4.65704 58.2238   3
  -5  -1  -5 91.2636 87.4462   1
  -5  -1  -4 186.983 136.030   1
   5  -1   4 143.861 40.9176  16
  -5   1  -4 319.839 116.960  15
   5  -1   4 106.762 46.9015   2
   5   1   4 144.321 142.177   2
   5  -1   4 156.136 94.3000   3
  -5   1  -4 190.860 81.4589   1
   5  -2   6-5.38643 59.8292  16
  -5  -2  -6-22.1311 21.3463   4
   5   2   6 32.2057 64.0656  16
  -5   2  -6 89.0961 47.2372  15
  -5  -2  -6-35.1973 56.5399  15
   5  -2   6 25.3710 44.4207   2
  -5   2  -6 61.3480 65.6267  14
  -5  -2  -6 5.07046 21.2625   1
   5   2   6 31.8905 49.2804   2
   5   2   6-28.3424 39.3369  13
   5  -2   6-88.1931 40.4201   3
  -5   2  -6-16.1256 8.82563   1
   5  -2   5-110.848 68.0029  16
   5   2   5 17.9034 40.5949  16
  -5  -2  -5 44.2758 75.4761   4
  -5   2  -5 0.64066 31.3845  15
  -5  -2  -5-35.2477 35.4713  15
  -5   2  -5-14.0403 43.1737   1
  -5   2  -5-102.831 46.2554  14
   5  -2   5 29.4886 15.6879   2
   5   2   5-38.3277 69.1018  13
   5   2   5-250.178 138.902   2
   5  -2   5 91.9261 56.6915   3
  -5  -2  -5 18.0947 14.2202   1
   5  -2   4 39.4400 27.0199  16
  -5   2  -4 136.620 48.2437  15
  -5   2  -4 69.8541 53.7190  14
   5  -2   4 150.946 84.4762   2
   5  -2   4 5.89063 58.5328   3
  -5   2  -4 76.7397 44.9241   1
  -5   2  -3 66.7828 42.7930   1
   5  -2   3 1.17300 28.0127   2
   5  -3   6 147.277 81.7066  16
  -5  -3  -6 52.5306 65.5175   4
   5   3   6 34.6477 27.9433  16
  -5   3  -6 144.926 60.0017  15
   5  -3   6 206.893 112.548   2
  -5  -3  -6 127.400 76.5830  15
  -5   3  -6 170.707 79.9978  14
  -5  -3  -6 170.017 93.0779   1
   5   3   6 79.0869 27.8211   2
   5  -3   6 151.347 78.9026   3
  -5   3  -6 157.323 88.5306   1
   5  -3   5 172.121 84.9226  16
  -5   3  -5 77.9880 17.6255  15
  -5   3  -5 35.6148 25.1693  14
   5  -3   5 19.3770 35.6299   2
   5  -3   5 121.564 57.3104   3
  -5   3  -5 65.8274 56.5955   1
   5  -3   4 59.1477 46.2812  16
  -5   3  -4 30.0526 59.4077  15
  -5   3  -4-25.5803 51.6963  14
   5  -3   4 172.775 82.5811   2
  -5   3  -4 114.423 32.3485   1
   5  -3   4 72.6277 49.5680   3
   5  -3   3 126.502 86.3174  16
  -5   3  -3 142.750 55.7476  15
  -5   3  -3 33.2737 30.9426  14
   5  -3   3 63.1654 36.5474   2
   5  -3   3 20.2899 14.3495   3
   5  -4   5 69.6646 54.4542  16
  -5   4  -5 59.3982 16.3344  15
   5  -4   5 72.4786 26.6142   2
   5  -4   5-4.31295 42.2151   3
  -5   4  -5 25.8163 31.6555   1
   5  -4   4 37.1347 15.2592  16
  -5   4  -4-42.1901 39.6694   1
  -5   4  -4-109.910 75.7469  15
  -5   4  -4-93.7687 81.8065  14
   5  -4   4-64.2403 42.7497   2
   5  -4   4-41.8645 17.5501   3
  -5   4  -3 223.053 76.4355  14
   5  -4   3 57.1077 58.9492   2
  -5   4  -3 205.814 91.6110   1
   5  -4   3 158.384 74.9004   3
   5  -5   4-76.3421 57.2777  16
  -5   5  -4 30.3019 39.4796  15
  -5   5  -4-62.8347 35.6168  14
   5  -5   4-78.0229 64.1292   3
  -5   5  -4-22.5693 30.7144   1
  -5   5  -3 32.5343 59.6441  14
  -5   5  -3-29.5879 49.8323   1
   5  -5   3-45.7816 35.5757   2
   5  -5   3-29.0864 27.2831   3
  -5   5  -2 50.9868 21.1775  14
  -5   6  -2-55.1668 62.0077  14
   5  -6   2-139.110 102.961   3
   0   0   0    0.00    0.00   0

TITL instrument in P2(1)/c
REM P2(1)/c (#14 in standard setting)
CELL 0.71073   5.143874  10.241470  14.008495  90.0000 100.1133  90.0000
ZERR    4.00   0.000934   0.000918   0.008507   0.0000   0.0370   0.0000
LATT  1
SYMM -x, y+1/2,-z+1/2
SFAC C H N O
UNIT 16.00 28.00 20.00 12.00
TREF
HKLF 4
END
;
_shelx_hkl_checksum              40950
_olex2_submission_special_instructions 'No special instructions were received'
_oxdiff_exptl_absorpt_empirical_details
;
Empirical correction (ABSPACK) includes:
- Absorption correction using spherical harmonics
- Frame scaling
;
_oxdiff_exptl_absorpt_empirical_full_max 3.658
_oxdiff_exptl_absorpt_empirical_full_min 0.803
loop_
_space_group_symop_operation_xyz
'x, y, z'
'-x, y+1/2, -z+1/2'
'-x, -y, -z'
'x, -y-1/2, z-1/2'
loop_
_atom_site_label
_atom_site_type_symbol
_atom_site_fract_x
_atom_site_fract_y
_atom_site_fract_z
_atom_site_U_iso_or_equiv
_atom_site_adp_type
_atom_site_occupancy
_atom_site_site_symmetry_order
_atom_site_calc_flag
_atom_site_refinement_flags_posn
_atom_site_refinement_flags_adp
_atom_site_refinement_flags_occupancy
_atom_site_disorder_assembly
_atom_site_disorder_group
C1 C 0.1111(14) 0.7877(5) 0.5380(8) 0.059(9) Uani 1 1 d . . . . .
H1 H -0.035497 0.827309 0.500879 0.071 Uiso 1 1 calc R . . . .
C2 C 0.3256(15) 0.8563(5) 0.5892(9) 0.069(9) Uani 1 1 d . . . . .
H2 H 0.346847 0.946475 0.592781 0.083 Uiso 1 1 calc R . . . .
C3 C 0.4951(15) 0.7654(4) 0.6322(9) 0.067(9) Uani 1 1 d . . . . .
H3 H 0.656829 0.780155 0.672248 0.080 Uiso 1 1 calc R . . . .
C4 C 0.4781(15) 0.5226(4) 0.6294(9) 0.037(9) Uani 1 1 d . . . . .
N1 N 0.3828(11) 0.6469(3) 0.6056(7) 0.040(8) Uani 1 1 d . . . . .
N2 N 0.1402(10) 0.6607(3) 0.5482(7) 0.062(7) Uani 1 1 d . . . . .
N3 N 0.3397(11) 0.4238(4) 0.5910(7) 0.071(8) Uani 1 1 d . . . . .
H3A H 0.398422 0.345675 0.602186 0.085 Uiso 1 1 calc R . . . .
H3B H 0.189376 0.436508 0.554266 0.085 Uiso 1 1 calc R . . . .
N4 N 0.7073(11) 0.5080(4) 0.6856(7) 0.069(7) Uani 1 1 d . . . . .
H4A H 0.771111 0.431093 0.698110 0.083 Uiso 1 1 calc R . . . .
H4B H 0.794373 0.575385 0.709991 0.083 Uiso 1 1 calc R . . . .
N5 N 0.2467(12) 0.6486(4) 0.8249(8) 0.077(9) Uani 1 1 d . . . . .
O1 O 0.4850(9) 0.6735(3) 0.8574(6) 0.060(6) Uani 1 1 d . . . . .
O2 O 0.1682(10) 0.5354(3) 0.8225(7) 0.107(8) Uani 1 1 d . . . . .
O3 O 0.0896(9) 0.7382(3) 0.7936(6) 0.065(7) Uani 1 1 d . . . . .
loop_
_atom_site_aniso_label
_atom_site_aniso_U_11
_atom_site_aniso_U_22
_atom_site_aniso_U_33
_atom_site_aniso_U_23
_atom_site_aniso_U_13
_atom_site_aniso_U_12
C1 0.058(6) 0.051(4) 0.06(2) 0.002(4) 0.000(11) -0.003(3)
C2 0.076(7) 0.043(3) 0.08(2) 0.003(4) 0.001(11) -0.009(3)
C3 0.060(6) 0.047(3) 0.08(2) -0.016(4) -0.006(10) -0.010(3)
C4 0.036(6) 0.048(3) 0.03(2) -0.001(4) 0.020(11) -0.001(3)
N1 0.033(5) 0.046(3) 0.04(2) -0.001(3) 0.011(10) 0.000(2)
N2 0.045(4) 0.045(3) 0.089(16) -0.002(3) -0.011(8) 0.001(2)
N3 0.063(6) 0.042(3) 0.093(17) -0.002(3) -0.027(9) 0.002(2)
N4 0.055(5) 0.065(3) 0.073(17) 0.003(4) -0.026(9) 0.000(2)
N5 0.063(6) 0.058(3) 0.10(2) 0.001(4) -0.027(10) -0.001(3)
O1 0.041(4) 0.058(2) 0.077(15) -0.009(3) 0.000(7) -0.0050(18)
O2 0.071(5) 0.055(3) 0.176(18) -0.001(3) -0.033(9) -0.020(2)
O3 0.046(5) 0.071(3) 0.076(16) 0.013(3) 0.003(8) 0.008(2)
loop_
_atom_type_symbol
_atom_type_description
_atom_type_scat_dispersion_real
_atom_type_scat_dispersion_imag
_atom_type_scat_source
C C 0.0033 0.0016 'International Tables Vol C Tables 4.2.6.8 and 6.1.1.4'
H H 0.0000 0.0000 'International Tables Vol C Tables 4.2.6.8 and 6.1.1.4'
N N 0.0061 0.0033 'International Tables Vol C Tables 4.2.6.8 and 6.1.1.4'
O O 0.0106 0.0060 'International Tables Vol C Tables 4.2.6.8 and 6.1.1.4'
loop_
_geom_angle_atom_site_label_1
_geom_angle_atom_site_label_2
_geom_angle_atom_site_label_3
_geom_angle
_geom_angle_site_symmetry_1
_geom_angle_site_symmetry_3
_geom_angle_publ_flag
N2 C1 C2 112.2(5) . . ?
C3 C2 C1 105.9(4) . . ?
C2 C3 N1 106.4(4) . . ?
N3 C4 N1 118.1(4) . . ?
N3 C4 N4 122.1(4) . . ?
N4 C4 N1 119.7(4) . . ?
C3 N1 C4 129.5(4) . . ?
C3 N1 N2 111.6(4) . . ?
N2 N1 C4 119.0(4) . . ?
C1 N2 N1 103.9(4) . . ?
O2 N5 O1 119.8(4) . . ?
O2 N5 O3 119.7(5) . . ?
O3 N5 O1 120.5(4) . . ?
loop_
_geom_bond_atom_site_label_1
_geom_bond_atom_site_label_2
_geom_bond_distance
_geom_bond_site_symmetry_2
_geom_bond_publ_flag
C1 C2 1.396(7) . ?
C1 N2 1.315(6) . ?
C2 C3 1.344(7) . ?
C3 N1 1.367(6) . ?
C4 N1 1.384(6) . ?
C4 N3 1.299(6) . ?
C4 N4 1.306(6) . ?
N1 N2 1.368(5) . ?
N5 O1 1.256(6) . ?
N5 O2 1.227(5) . ?
N5 O3 1.250(5) . ?

_cod_database_fobs_code 2108909
