#------------------------------------------------------------------------------
#$Date: 2022-01-01 06:19:30 +0200 (Sat, 01 Jan 2022) $
#$Revision: 271667 $
#$URL: file:///home/coder/svn-repositories/cod/cif/2/10/89/2108922.cif $
#------------------------------------------------------------------------------
#
# This file is available in the Crystallography Open Database (COD),
# http://www.crystallography.net/. The original data for this entry
# were provided by IUCr Journals, http://journals.iucr.org/.
#
# The file may be used within the scientific community so long as
# proper attribution is given to the journal article from which the
# data were obtained.
#
data_2108922
loop_
_publ_author_name
'Rejnhardt, Piotr'
'Drozd, Marek'
'Daszkiewicz, Marek'
_publ_section_title
;
 Low-temperature phase transition and high-pressure phase stability of
 1<i>H</i>-pyrazole-1-carboxamidine nitrate
;
_journal_issue                   6
_journal_name_full               'Acta Crystallographica Section B'
_journal_page_first              996
_journal_page_last               1002
_journal_paper_doi               10.1107/S2052520621010970
_journal_volume                  77
_journal_year                    2021
_chemical_formula_moiety         'C4 H7 N4, N O3'
_chemical_formula_sum            'C4 H7 N5 O3'
_chemical_formula_weight         173.15
_space_group_crystal_system      monoclinic
_space_group_IT_number           14
_space_group_name_Hall           '-P 2ybc'
_space_group_name_H-M_alt        'P 1 21/c 1'
_atom_sites_solution_hydrogens   geom
_atom_sites_solution_primary     direct
_audit_creation_date             2021-07-19
_audit_creation_method
;
Olex2 1.2
(compiled 2018.05.29 svn.r3508 for OlexSys, GUI svn.r5506)
;
_cell_angle_alpha                90
_cell_angle_beta                 99.3(4)
_cell_angle_gamma                90
_cell_formula_units_Z            4
_cell_length_a                   4.984(12)
_cell_length_b                   10.093(11)
_cell_length_c                   13.53(12)
_cell_measurement_reflns_used    110
_cell_measurement_temperature    293(2)
_cell_measurement_theta_max      18.8010
_cell_measurement_theta_min      4.0070
_cell_volume                     672(6)
_computing_cell_refinement       'CrysAlisPro 1.171.39.46 (Rigaku OD, 2018)'
_computing_data_collection       'CrysAlisPro 1.171.39.46 (Rigaku OD, 2018)'
_computing_data_reduction        'CrysAlisPro 1.171.39.46 (Rigaku OD, 2018)'
_computing_molecular_graphics    'Olex2 (Dolomanov et al., 2009)'
_computing_publication_material  'Olex2 (Dolomanov et al., 2009)'
_computing_structure_refinement  'ShelXL (Sheldrick, 2015)'
_computing_structure_solution    'ShelXS (Sheldrick, 2008)'
_diffrn_ambient_temperature      293(2)
_diffrn_detector                 'CCD plate'
_diffrn_detector_area_resol_mean 8.2214
_diffrn_detector_type            'Sapphire2, large Be window'
_diffrn_measured_fraction_theta_full 0.346
_diffrn_measured_fraction_theta_max 0.346
_diffrn_measurement_details
;
List of Runs (angles in degrees, time in seconds):

  # Type    Start    End  Width  t~exp~   \w     \q     \k     \f   Frames
--------------------------------------------------------------------------
  1  \w    -20.00  31.60   0.60   30.00    --   25.00   0.00   0.00   86
  2  \w    -20.00  35.80   0.60   30.00    --   25.00   0.00 180.00   93
  3  \w     -3.00  46.80   0.60   30.00    --   25.00 -40.00-170.00   83
  4  \w     -3.00  46.80   0.60   30.00    --   25.00 -40.00  10.00   83
  5  \w      8.00  65.00   0.60   30.00    --   25.00 -82.00  30.00   95
  6  \w      8.00  65.00   0.60   30.00    --   25.00 -82.00-150.00   95
  7  \w     32.50  88.90   0.60   30.00    --   25.00-135.00-122.00   94
  8  \w     32.00  89.00   0.60   30.00    --   25.00-135.00  58.00   95
  9  \w     25.00  46.60   0.60   30.00    --  -25.00-135.00  58.00   36
 10  \w     25.00  46.60   0.60   30.00    --  -25.00-135.00-122.00   36
 11  \w      0.00  22.80   0.60   30.00    --  -25.00 -82.00-150.00   38
 12  \w      0.00  22.80   0.60   30.00    --  -25.00 -82.00  30.00   38
 13  \w    -19.00  17.00   0.60   30.00    --  -25.00 -40.00  10.00   60
 14  \w    -19.00  17.00   0.60   30.00    --  -25.00 -40.00-170.00   60
 15  \w    -33.00  21.60   0.60   30.00    --  -25.00   0.00 180.00   91
 16  \w    -33.00  21.60   0.60   30.00    --  -25.00   0.00   0.00   91
;
_diffrn_measurement_device       'four-circle diffractometer'
_diffrn_measurement_device_type  'Xcalibur, Sapphire2, large Be window'
_diffrn_measurement_method       '\w scans'
_diffrn_orient_matrix_type
'CrysAlisPro convention (1999,Acta A55,543-557)'
_diffrn_orient_matrix_UB_11      0.0518742000
_diffrn_orient_matrix_UB_12      -0.0134802000
_diffrn_orient_matrix_UB_13      -0.0452008000
_diffrn_orient_matrix_UB_21      0.1339679000
_diffrn_orient_matrix_UB_22      0.0029816000
_diffrn_orient_matrix_UB_23      0.0266493000
_diffrn_orient_matrix_UB_31      -0.0048210000
_diffrn_orient_matrix_UB_32      -0.0688856000
_diffrn_orient_matrix_UB_33      0.0090920000
_diffrn_radiation_monochromator  graphite
_diffrn_radiation_probe          x-ray
_diffrn_radiation_type           MoK\a
_diffrn_radiation_wavelength     0.71073
_diffrn_reflns_av_R_equivalents  0.1705
_diffrn_reflns_av_unetI/netI     0.1011
_diffrn_reflns_Laue_measured_fraction_full 0.346
_diffrn_reflns_Laue_measured_fraction_max 0.346
_diffrn_reflns_limit_h_max       5
_diffrn_reflns_limit_h_min       -5
_diffrn_reflns_limit_k_max       11
_diffrn_reflns_limit_k_min       -11
_diffrn_reflns_limit_l_max       7
_diffrn_reflns_limit_l_min       -8
_diffrn_reflns_number            3512
_diffrn_reflns_point_group_measured_fraction_full 0.346
_diffrn_reflns_point_group_measured_fraction_max 0.346
_diffrn_reflns_theta_full        24.943
_diffrn_reflns_theta_max         24.943
_diffrn_reflns_theta_min         4.143
_diffrn_source                   'fine-focus sealed X-ray tube'
_diffrn_source_type              'Enhance (Mo) X-ray Source'
_exptl_absorpt_coefficient_mu    0.146
_exptl_absorpt_correction_T_max  1.00000
_exptl_absorpt_correction_T_min  0.68054
_exptl_absorpt_correction_type   multi-scan
_exptl_absorpt_process_details
;
CrysAlisPro 1.171.39.46 (Rigaku Oxford Diffraction, 2018)
Empirical absorption correction using spherical harmonics,
 implemented in SCALE3 ABSPACK scaling algorithm.
;
_exptl_crystal_colour            colourless
_exptl_crystal_density_diffrn    1.712
_exptl_crystal_description       prism
_exptl_crystal_F_000             360
_refine_diff_density_max         0.120
_refine_diff_density_min         -0.155
_refine_diff_density_rms         0.033
_refine_ls_extinction_method     none
_refine_ls_goodness_of_fit_ref   1.098
_refine_ls_hydrogen_treatment    constr
_refine_ls_matrix_type           full
_refine_ls_number_parameters     109
_refine_ls_number_reflns         405
_refine_ls_number_restraints     6
_refine_ls_restrained_S_all      1.095
_refine_ls_R_factor_all          0.1463
_refine_ls_R_factor_gt           0.0659
_refine_ls_shift/su_max          0.000
_refine_ls_shift/su_mean         0.000
_refine_ls_structure_factor_coef Fsqd
_refine_ls_weighting_details
'w=1/[\s^2^(Fo^2^)+(0.0726P)^2^] where P=(Fo^2^+2Fc^2^)/3'
_refine_ls_weighting_scheme      calc
_refine_ls_wR_factor_gt          0.1318
_refine_ls_wR_factor_ref         0.1738
_reflns_Friedel_coverage         0.000
_reflns_number_gt                196
_reflns_number_total             405
_reflns_threshold_expression     'I > 2\s(I)'
_cod_data_source_file            xk5086sup1.cif
_cod_data_source_block           1.27GPa
_cod_database_code               2108922
_shelx_shelxl_version_number     2018/3
_chemical_oxdiff_formula         C4N4NO3H7
_shelx_space_group_comment
;
The symmetry employed for this shelxl refinement is uniquely defined
by the following loop, which should always be used as a source of
symmetry information in preference to the above space-group names.
They are only intended as comments.
;
_reflns_odcompleteness_completeness 34.13
_reflns_odcompleteness_iscentric 1
_reflns_odcompleteness_theta     24.89
_olex2_refinement_description
;
1. Fixed Uiso
 At 1.2 times of:
  All C(H) groups, All N(H,H) groups
2. Uiso/Uaniso restraints and constraints
Uanis(C2) \\sim Ueq: with sigma of 0.01 and sigma for terminal atoms of 0.02
3.a Aromatic/amide H refined with riding coordinates:
 C1(H1), C2(H2), C3(H3)
3.b X=CH2 refined with riding coordinates:
 N3(H3A,H3B), N4(H4A,H4B)
;
_shelx_res_file
;
TITL instrument in P21/c #14
    instrument.res
    created by SHELXL-2018/3 at 16:22:51 on 19-Jul-2021
REM reset to P21/c #14
CELL 0.71073 4.98441 10.093003 13.531237 90 99.3404 90
ZERR 4 0.012335 0.011214 0.122492 0 0.4436 0
LATT 1
SYMM -X,0.5+Y,0.5-Z
SFAC C H N O
UNIT 16 28 20 12
ISOR 0.01 0.02 C2

L.S. 99
PLAN  20
BOND
fmap 2 53
ACTA
OMIT 3 1 0
OMIT 2 10 1
OMIT -1 10 1
OMIT 0 8 4
OMIT 0 2 0
REM <olex2.extras>
REM <HklSrc "%.\\instrument.hkl">
REM </olex2.extras>

WGHT    0.072600
FVAR       1.71225
C1    1    0.096138    0.794301    0.540835    11.00000    0.10581    0.05682 =
         0.15244    0.00171   -0.01067    0.00833
AFIX  43
H1    2   -0.062400    0.834015    0.508430    11.00000   -1.20000
AFIX   0
C2    1    0.318511    0.863208    0.586048    11.00000    0.08614    0.07110 =
         0.07773    0.00181    0.02625   -0.01570
AFIX  43
H2    2    0.341519    0.954667    0.587491    11.00000   -1.20000
AFIX   0
C3    1    0.497636    0.771358    0.628122    11.00000    0.07524    0.05584 =
         0.19812   -0.01578    0.00211    0.00864
AFIX  43
H3    2    0.668213    0.786919    0.665614    11.00000   -1.20000
AFIX   0
C4    1    0.474674    0.524606    0.629669    11.00000    0.06201    0.03817 =
         0.15635   -0.01257    0.03060    0.00345
N1    3    0.378561    0.650204    0.604707    11.00000    0.05079    0.05697 =
         0.07330    0.00727    0.04385   -0.00798
N2    3    0.132219    0.664370    0.548445    11.00000    0.06856    0.05414 =
         0.18945    0.00615   -0.02054   -0.01098
N3    3    0.332659    0.424958    0.590653    11.00000    0.07531    0.04108 =
         0.16030    0.01556    0.01628    0.00017
AFIX  93
H3A   2    0.395346    0.345798    0.600219    11.00000   -1.20000
H3B   2    0.175462    0.437804    0.555122    11.00000   -1.20000
AFIX   0
N4    3    0.714364    0.511894    0.684272    11.00000    0.08750    0.05983 =
         0.22206   -0.00044   -0.03567    0.00005
AFIX  93
H4A   2    0.784664    0.434480    0.695706    11.00000   -1.20000
H4B   2    0.802015    0.580929    0.708820    11.00000   -1.20000
AFIX   0
N5    3    0.244790    0.645376    0.828148    11.00000    0.06716    0.07590 =
         0.16075    0.00636   -0.00732   -0.00062
O1    4    0.486124    0.673745    0.856765    11.00000    0.06336    0.05244 =
         0.21677   -0.01056   -0.00488    0.00066
O2    4    0.163554    0.529749    0.828325    11.00000    0.09953    0.04743 =
         0.25212    0.01378   -0.02736   -0.02953
O3    4    0.081563    0.736190    0.798054    11.00000    0.05477    0.08648 =
         0.13075    0.01418    0.03186   -0.00502
HKLF 4




REM  instrument in P21/c #14
REM wR2 = 0.1738, GooF = S = 1.098, Restrained GooF = 1.095 for all data
REM R1 = 0.0659 for 196 Fo > 4sig(Fo) and 0.1463 for all 405 data
REM 109 parameters refined using 6 restraints

END

WGHT      0.0724      0.0000

REM Highest difference peak  0.120,  deepest hole -0.155,  1-sigma level  0.033
Q1    1   0.8396  0.4584  0.7165  11.00000  0.05    0.11
Q2    1   0.8329  0.5027  0.7763  11.00000  0.05    0.11
Q3    1   0.2405  0.4215  0.8166  11.00000  0.05    0.11
Q4    1   0.7476  0.7816  0.6780  11.00000  0.05    0.10
Q5    1   0.1595  0.6451  0.7161  11.00000  0.05    0.10
Q6    1   0.0743  0.5469  0.5315  11.00000  0.05    0.10
Q7    1   0.0065  0.6712  0.4989  11.00000  0.05    0.09
Q8    1   0.7753  0.5591  0.6617  11.00000  0.05    0.09
Q9    1   0.1667  0.7545  0.7641  11.00000  0.05    0.09
Q10   1   0.5800  0.3722  0.6431  11.00000  0.05    0.08
Q11   1   0.5465  0.3659  0.6617  11.00000  0.05    0.08
Q12   1   0.4413  1.0528  0.5816  11.00000  0.05    0.08
Q13   1   0.9451  0.6842  0.6624  11.00000  0.05    0.07
Q14   1   0.4701  0.9431  0.6521  11.00000  0.05    0.07
Q15   1   0.5580  0.4993  0.7803  11.00000  0.05    0.07
Q16   1   0.1277  0.5246  0.8036  11.00000  0.05    0.07
Q17   1  -0.0317  0.7426  0.7493  11.00000  0.05    0.07
Q18   1   0.0979  0.4078  0.5779  11.00000  0.05    0.07
Q19   1   0.2632  0.7801  0.9224  11.00000  0.05    0.07
Q20   1   0.4012  0.8006  0.5011  11.00000  0.05    0.07
;
_shelx_res_checksum              30617
_shelx_hkl_file
;
   0  -2   0 1707.72 117.831   7
   0  -2   0 1758.93 98.2022   3
   0  -2   0 1926.95 130.082   5
   0  -2   0 1859.22 124.221   8
   0  -2   0 1692.34 117.515   6
   0   2   0 1849.15 115.918  12
   0  -2   0 1861.74 108.907   4
   0   2   0 1724.03 114.163   9
   0  -2   1 6316.26 216.181   4
   0  -2   1 6396.89 229.211   7
   0  -2   1 6892.82 254.921   5
   0   2  -1 6567.18 210.413  11
   0  -2   1 6384.86 221.432   8
   0  -2   1 6571.56 160.658   3
   0  -2   1 6420.12 212.459   6
   0   2  -2 1107.20 125.323  10
   0  -2   2 1016.70 113.977   5
   0  -2   2 944.101 95.9385   8
   0  -2   2 1000.76 101.401   7
   0  -3   0 13.8131 13.2984   6
   0   3   0-17.9840 19.1606   9
   0  -3   0 13.3775 24.0351   7
   0  -3   0-14.4469 9.29220   3
   0   3   0 21.7977 22.3190  12
   0  -3   0-14.1883 19.3227   4
   0  -3   0-10.3686 18.9156   8
   0  -3   0 2.52106 8.13763   5
   0   3   1 2275.91 177.529   9
   0   3  -1 2385.83 162.197  13
   0  -3  -1 2161.50 182.640   8
   0  -3   1 2146.39 153.837   6
   0  -3   1 2030.96 140.499   4
   0  -3   1 2160.70 171.019   5
   0  -3   1 2021.76 157.214   7
   0  -3   1 2106.56 114.107   3
   0  -3   1 2021.30 152.296   8
   0   3  -1 2597.65 132.082  14
   0   3  -1 2330.52 152.305  11
   0  -3   2 610.097 82.2440   6
   0   3  -2 703.702 113.981  10
   0  -3   2 600.741 86.3948   8
   0  -3   2 620.418 91.9089   7
   0  -3   2 637.561 96.4382   4
   0  -3   2 553.841 54.3001   2
   0  -3   2 591.063 98.7576   5
   0   3  -2 685.254 89.8764  11
   0   3  -3 4256.46 296.632  10
   0  -3   3 4204.97 251.628   7
   0  -3   3 4331.80 286.671   5
   0  -3   3 3893.26 229.351   6
   0  -3   3 4380.79 254.512   8
   0   4   0 562.734 92.1430   9
   0  -4   0 518.366 97.9717   7
   0  -4   0 555.138 87.2870   4
   0   4   0 653.933 103.003  12
   0  -4   0 572.251 104.308   5
   0  -4   0 598.523 103.565   6
   0  -4   0 547.507 99.4275   8
   0  -4  -1 515.037 101.607   8
   0  -4   1 491.331 66.0555   3
   0   4  -1 591.406 95.7773  13
   0  -4   1 576.298 84.3535   4
   0  -4   1 509.640 91.3986   7
   0  -4   1 577.834 96.1754   6
   0   4   1 575.664 100.111   9
   0  -4  -1 369.857 94.4893   6
   0   4  -1 546.489 96.3105  12
   0  -4   1 493.534 87.6934   8
   0   4  -1 698.785 79.7592  14
   0  -4   1 501.640 101.355   5
   0  -4   2 3484.91 237.475   8
   0   4  -2 3869.13 299.412  10
   0  -4   2 3603.76 232.042   6
   0   4  -2 3837.36 262.362  13
   0  -4   2 3627.88 169.199   3
   0  -4   2 3559.79 247.041   7
   0  -4   2 3695.54 268.752   5
   0   4  -2 3936.39 241.080  11
   0  -4   2 3767.93 249.851   4
   0  -4   3 718.558 112.966   8
   0  -4   3 697.625 126.533   5
   0  -4   3 517.521 66.0530  15
   0  -4   3 740.307 109.317   6
   0  -4   3 753.667 119.357   7
   0   4  -3 807.864 147.960  10
   0  -4   4 202.732 68.5137   7
   0   5   0 49.9201 46.2218  12
   0  -5   0 43.7275 38.0864   8
   0  -5   0 28.7896 44.3477   4
   0   5   0-31.9958 27.2123   9
   0  -5   0 3.41295 22.7796   5
   0  -5   0 2.18411 13.9631   7
   0  -5   0-35.6812 31.4079   6
   0  -5   1 791.756 111.086   4
   0  -5   1 698.961 118.691   8
   0   5  -1 816.320 132.839  13
   0   5  -1 904.746 103.970  14
   0  -5   1 770.555 126.976   6
   0  -5   1 617.960 114.739   7
   0  -5  -1 391.136 108.484   6
   0  -5  -1 667.744 131.380   5
   0   5   1 719.567 125.781   9
   0   5  -1 756.075 121.646   9
   0  -5   1 587.079 120.524   5
   0   5  -1 804.111 133.485  12
   0   5  -1 826.112 121.282  11
   0  -5   1 638.278 85.6512   3
   0  -5  -1 555.193 120.636   7
   0   5  -2 267.870 67.6430  12
   0   5  -2 334.290 74.7618  11
   0  -5   2 328.862 78.9742   6
   0   5  -2 237.012 84.0564  10
   0  -5   2 264.476 49.7273   3
   0  -5   2 298.614 66.5696   4
   0  -5   2 255.530 76.4610   5
   0  -5   2 235.086 67.0720   8
   0   5  -2 325.985 82.9595  13
   0  -5   2 282.130 78.6535   7
   0  -5   3 48.8750 35.1517   8
   0  -5   3 30.0096 17.6958   3
   0  -5   3 46.9533 36.6759   6
   0  -5   3 83.3272 44.4881   5
   0   5  -3 72.0002 56.4520  13
   0  -5   3 74.6067 20.7722   2
   0   5  -3 9.02438 11.4492  16
   0   5  -3 81.6433 59.0357  10
   0  -5   3 53.6581 17.8140  15
   0  -5   3 145.426 61.2950   7
   0  -5   4 819.590 140.872   8
   0  -5   4 882.461 146.441   7
   0  -5   4 934.144 135.773   6
   0  -5   4 779.689 151.628   5
   0   5  -4 935.147 179.137  10
   0  -6   0 2955.38 296.080   6
   0   6   0 3209.34 230.093  14
   0  -6   0 2817.34 282.915   8
   0   6   0 3135.63 290.219  12
   0  -6   0 2807.32 284.158   7
   0  -6   0 3037.41 299.884   5
   0  -6   0 2711.16 224.626   4
   0   6   0 2954.99 270.032   9
   0   6  -1 340.633 72.2769  14
   0   6   1 305.070 91.6537   9
   0  -6  -1 283.240 94.2215   5
   0  -6  -1 228.673 91.9034   8
   0   6  -1 325.100 88.4158  12
   0  -6   1 302.805 87.9214   6
   0   6  -1 319.250 87.1955   9
   0  -6   1 335.552 98.0574   7
   0  -6   1 334.273 90.8682   8
   0  -6  -1 194.797 78.6042   7
   0  -6   1 318.004 99.0408   5
   0   6  -1 291.745 85.8708  11
   0  -6   1 376.570 84.2465   4
   0  -6   2 39.1656 29.6391   8
   0  -6   2 22.4735 29.4608   5
   0   6  -2 46.6397 39.4971  12
   0   6  -2-16.7384 26.3638   9
   0  -6   2-12.2005 24.8901   6
   0   6  -2 81.9964 53.8635  11
   0  -6   2 17.0283 12.5493   3
   0   6  -2 3.40919 27.7670  13
   0  -6   2 8.05703 14.2622   7
   0   6  -2-11.4828 18.5118  10
   0  -6   2-28.6963 29.2036   4
   0  -6   3 151.070 64.1629   6
   0  -6   3 241.502 82.3401   7
   0  -6   3 235.128 76.6719   8
   0   6  -3 293.224 90.0116  11
   0   6  -3 217.523 84.9174  13
   0  -6   3 120.774 65.0471   5
   0  -6   3 207.746 50.0498   3
   0   6  -3 210.397 86.1301  10
   0  -6   4 267.944 55.1517   3
   0  -6   4 363.160 101.809   7
   0  -6   4 265.748 46.7034  15
   0  -6   4 202.106 90.0997   5
   0   6  -4 432.779 130.074  10
   0  -6   4 331.325 94.7840   8
   0  -6   4 378.044 99.9157   6
   0   6  -4 418.862 112.153  13
   0  -6   5 93.8254 48.7661   6
   0  -6   5 102.061 55.4766   7
   0  -7   0 42.0873 39.8550   4
   0  -7   0 44.6364 53.1923   7
   0  -7   0-25.7014 26.9382   6
   0  -7   0 77.1282 48.7045   5
   0  -7   0 168.623 81.7195   8
   0   7   0 78.9393 44.4018   9
   0   7   0-103.824 52.8432  14
   0   7  -1 65.1467 36.8310  12
   0  -7   1 71.1214 45.7515   5
   0   7  -1 190.523 75.3544   9
   0  -7  -1 19.5429 22.4660   4
   0  -7   1 148.193 79.6247   6
   0  -7   1 170.051 75.0161   7
   0  -7  -1 156.066 83.1202   5
   0  -7   1 183.080 68.3869   4
   0   7  -1 226.833 84.8858  11
   0  -7  -1 68.4799 46.9728   7
   0   7  -1 263.266 72.8119  14
   0  -7   1 171.843 79.5871   8
   0  -7  -1 107.629 67.2314   8
   0  -7   2 42.8545 20.5408   4
   0   7  -2-31.5937 16.8358  11
   0   7  -2 31.7377 54.0194  12
   0   7  -2 74.3397 58.1581  10
   0   7  -2 43.4364 53.8183  13
   0  -7   2 27.3385 37.3124   8
   0  -7   2 12.6621 48.6394   6
   0   7  -2 41.4379 38.5907   9
   0  -7   2-86.0570 60.5021   7
   0  -7   2 45.2955 52.3162   5
   0  -7   3-54.7629 48.9905   5
   0   7  -3-52.1378 66.5378  11
   0  -7   3 36.1663 43.5718   7
   0   7  -3-30.2916 45.7367  12
   0  -7   3-42.9714 45.9237   6
   0  -7   3 3.40989 9.70299   3
   0   7  -3 51.7485 59.7607  13
   0   7  -3 53.8397 56.2913  10
   0  -7   3-30.3851 46.9912   8
   0  -7   4 160.604 75.5802   5
   0   7  -4 203.776 102.343  10
   0  -7   4 237.786 83.6320   6
   0  -7   4 198.436 84.2076   7
   0  -7   4 164.383 75.5900   8
   0   7  -4 186.373 82.0565  13
   0  -7   5 74.5529 58.3436   7
   0   7  -5 21.0088 61.8526  13
   0   7  -5 48.7446 53.1975  10
   0  -7   5 41.6715 39.4443   6
   0  -7   5 18.9435 27.4417   5
   0  -7   5 99.7080 62.1366   8
   0  -8   0-41.2251 44.6371   7
   0   8   0-20.2412 18.0262   9
   0  -8   0 66.6827 63.3965   5
   0  -8   0-19.5608 25.5311   6
   0  -8   0 29.5110 48.1514   8
   0   8  -1 1688.21 250.132   9
   0  -8   1 1720.32 250.422   8
   0   8  -1 1870.69 252.826  11
   0  -8   1 1725.56 260.872   7
   0   8  -1 1616.34 258.470  12
   0  -8   1 1514.24 252.467   5
   0  -8   1 1896.28 280.251   6
   0  -8   1 1585.32 202.284   4
   0   8  -2 204.566 85.1705  12
   0  -8   2 140.928 78.8380   5
   0   8  -2 303.837 100.880   9
   0  -8   2 360.004 103.975   4
   0  -8   2 342.762 119.481   7
   0  -8   2 275.125 96.8113   6
   0   8  -2 319.754 100.973  11
   0   8  -2 247.829 120.689  10
   0  -8   2 381.534 118.515   8
   0   8  -3 807.308 184.495  12
   0  -8   3 741.602 169.216   7
   0  -8   3 738.970 164.813   6
   0  -8   3 724.199 182.130   5
   0   8  -3 692.019 194.649  10
   0   8  -3 657.684 166.532   9
   0  -8   3 690.793 161.587   8
   0   8  -3 869.955 181.687  11
   0  -8   4 123.874 86.9283   7
   0  -8   4 88.6578 74.5807   5
   0  -8   4 114.347 66.9368   8
   0   8  -4 136.269 89.9151  12
   0   8  -4 104.515 80.9616  10
   0  -8   4 105.910 67.7607   6
   0  -8   5 199.960 93.2612   8
   0  -8   5 175.663 77.5303   7
   0  -8   5 153.354 75.8445   6
   0   8  -5 184.419 86.4706  12
   0   8  -5-34.6776 40.8317  13
   0  -8   5 138.501 86.4731   5
   0   8  -5 150.717 102.507  10
   0   9   0 103.334 70.5430   9
   0  -9   0-1.10078 36.5691   7
   0  -9   0-16.1511 49.6947   8
   0  -9   0 77.1126 44.5763   5
   0   9   0 48.4437 60.2560  11
   0  -9   1 196.318 99.5643   7
   0   9  -1 204.021 90.3390  11
   0   9  -1 181.917 105.012  10
   0  -9   1 76.1777 63.7988   5
   0   9  -1 247.313 110.802   9
   0  -9   1 143.563 80.3575   6
   0  -9   1 220.280 99.0146   8
   0   9  -2 50.3825 78.2771   9
   0   9  -2 307.466 139.192  10
   0  -9   2 168.500 89.9538   8
   0  -9   2 286.667 105.278   6
   0  -9   2 189.002 107.297   7
   0  -9   2 155.593 85.2083   5
   0   9  -2 164.104 80.3388  12
   0   9  -2 226.525 105.525  11
   0   9  -3 220.681 121.195  12
   0  -9   3 283.299 116.044   6
   0  -9   3 3.51851 25.9601   5
   0   9  -3 95.7925 35.2506  11
   0  -9   3 72.6187 58.5365   8
   0   9  -3 104.034 113.357  10
   0   9  -3 63.1683 88.6534   9
   0  -9   3 71.2329 56.4302   7
   0  -9   4 252.708 89.1862   6
   0  -9   4 277.071 109.814   8
   0   9  -4 114.613 113.455   9
   0   9  -4 261.058 131.116  10
   0   9  -4 202.723 123.915  12
   0  -9   4 284.916 118.826   5
   0  -9   4 125.654 113.978   7
   0   9  -5 188.090 103.758  12
   0  -9   5 15.4280 30.0435   8
   0   9  -5-15.1548 23.8253  10
   0   9  -5 40.4751 90.9980   9
   0  -9   5 51.5810 66.4418   6
   0  -9   5-75.7741 56.7909   5
   0  -9   5 59.0752 79.4733   7
   0 -10   0 58.3464 22.5278   8
   0  10   0 99.6761 50.8553  11
   0  10  -1 67.1757 77.6210  10
   0  10  -1 55.5141 53.2319   9
   0 -10   1 153.448 94.0339   8
   0 -10   1 160.469 105.732   7
   0 -10   1 150.702 104.065   5
   0  10  -1 182.845 131.018  11
   0  10  -2-72.8603 54.5355  10
   0 -10   2 46.9190 62.5259   8
   0 -10   2-19.1527 27.9596   7
   0 -10   2-123.655 75.2285   6
   0  10  -2-111.919 77.1382   9
   0 -10   2-38.5516 56.7027   5
   0  10  -3 70.2905 39.8228  12
   0  10  -3-154.433 103.464  11
   0 -10   3 191.372 102.720   8
   0  10  -3 57.8720 107.710   9
   0 -10   3 171.305 101.093   5
   0  10  -3 150.481 117.315  10
   0 -10   3 62.9771 62.3201   7
   0 -10   3 133.672 67.7401   6
   0  10  -4 19.6326 36.9553   9
   0 -10   4 232.639 124.462   5
   0 -10   4-69.4962 50.7841   8
   0 -10   4 85.2417 50.4643   7
   0  10  -4 41.9895 49.2911  12
   0  10  -4 254.055 135.197  10
   0 -10   4 82.9669 77.9958   6
   0 -10   5 11.5589 41.5196   7
   0 -10   5 58.7103 60.7931   8
   0  10  -5-11.3188 45.3239  10
   0  10  -5-13.7018 82.0361  12
   0  10  -5-23.0581 53.8023   9
   0 -10   5 21.6106 62.6956   5
   0 -11   1 24.4798 62.3986   7
   0  11  -1 130.561 125.853  10
   0 -11   1 39.0822 29.5039   8
   0  11  -1 129.767 83.6778  11
   0  11  -2 6.09551 44.0314  11
   0  11  -2-8.96650 44.0916   9
   0 -11   2-25.2085 61.5213   7
   0  11  -2 75.8621 87.4564  10
   0 -11   2-12.7075 63.9452   5
   0  11  -3 17.8890 50.7941  12
   0  11  -3-158.198 188.725  10
   0  11  -3 139.835 118.900  11
   0 -11   3 139.189 93.0754   8
   0 -11   3-0.84778 28.5923   7
   0  11  -3 104.302 89.9661   9
   0 -11   3-175.141 114.039   6
   0 -11   3-37.2512 38.7406   5
   0  11  -4 28.2770 90.4692  12
   0 -11   4-86.6664 66.7300   6
   0 -11   4-73.1125 75.1342   8
   0  11  -4 28.6069 48.2590   9
   0 -11   4 39.2573 34.4512   5
   0  11  -4-9.61910 44.7153  10
   0 -11   4-9.83864 98.0591   7
   0 -11   5 4.85376 60.3491   7
   0 -11   5-62.7421 82.7885   8
   0  11  -5-29.8930 47.0049  12
   0  11  -5 25.3295 66.7352  10
   0  11  -5-11.5692 89.1573   9
   1   0   0 4166.60 197.362   1
   1   0   0 3846.21 223.098  15
  -1   0   0 3653.97 205.472   2
  -1   0   0 4149.53 218.759  16
  -1   0   0 4067.08 236.461  13
   1   0   0 3830.28 187.701  14
  -1   0  -1-2.03943 4.09915   3
   1   0   1 10.9876 10.8825   4
  -1   0  -1-4.88041 13.8271   2
   1   0   1 7.65488 12.7203  14
  -1   0  -1 16.2382 19.0273  13
   1   0   1-3.59073 4.38046   5
   1   0   1 11.2820 9.12001  11
  -1   0  -1 10.6997 10.1935  12
  -1   0  -1 8.12571 5.91719   6
   1   0   1 23.3359 26.4032  15
   1   0   1 20.3631 14.3097   1
  -1   0  -1-4.84554 7.18780  16
   1   0   2 12.0577 11.7276   5
   1   0   2 22.6054 21.3387   1
  -1   0  -2 10.1736 14.3058  16
  -1   0  -2 19.6087 20.0528   3
   1   0   2 25.4345 13.5511  15
  -1   0  -2 12.2933 12.2961   2
   1   0   2 23.0369 24.5365   4
  -1   0  -3 11.7553 15.2435  16
  -1   0  -3 23.4000 25.7558   2
   1   0   3 11.5077 11.7086   1
   1   1   0 15354.7 341.822   4
  -1  -1   0 15609.8 361.776   6
   1   1   0 15526.0 404.103  14
   1   1   0 15624.4 366.563   1
   1   1   0 15236.8 362.081  11
  -1  -1   0 15490.8 409.137   2
   1   1   0 15408.2 436.258  15
  -1  -1   0 15785.2 414.935  16
  -1  -1   0 15587.3 284.034   7
  -1  -1   0 15524.1 407.503   3
  -1  -1  -1 4410.81 190.818   6
  -1  -1  -1 3943.58 196.716  13
  -1  -1  -1 4238.00 229.226   2
  -1   1  -1 4039.64 217.952  16
   1   1   1 4822.09 218.356   1
   1  -1   1 4110.92 154.232   7
  -1  -1  -1 4363.75 229.399  16
  -1   1  -1 3875.67 184.644  12
   1   1   1 4055.63 119.075   9
  -1  -1  -1 4456.53 226.090   3
   1   1   1 4186.48 232.872  15
   1  -1   1 3938.90 193.673   1
  -1  -1  -1 4230.88 127.740   7
  -1   1  -1 3990.61 161.642   3
   1  -1   1 4312.97 244.238   4
   1  -1   1 3827.84 129.566   8
  -1  -1  -1 4260.36 118.836   8
   1   1   1 4296.48 126.970   8
   1  -1   1 3843.16 162.268  14
   1  -1   1 3712.32 196.047   5
   1   1   1 4599.25 198.544   4
  -1   1  -1 4127.24 221.687   2
   1   1   1 4145.13 211.966  14
   1  -1   1 3815.29 226.228  15
  -1  -1  -2 147.106 48.0648   3
   1   1   2 185.504 49.8235   1
  -1  -1  -2 98.6175 52.5078   2
   1   1   2 190.733 59.5893  15
  -1  -1  -2 219.079 53.8082   6
  -1  -1  -2 113.275 45.0881  16
   1   1   2 168.658 53.4588   4
   1  -1   3-9.89111 20.4771   4
  -1   1  -3 6.64113 27.3444   2
  -1   1  -3-2.21831 12.8366  16
   1  -1   3 8.50523 12.0123   5
  -1  -1  -3 14.7393 18.6701   2
   1  -1   3 5.70714 16.7911   1
  -1  -1  -3 9.06987 14.7227  16
   1  -1   3 7.23765 16.3406  15
   1  -1   3 20.1030 12.3143   7
   1   1   3-16.9820 32.4306  15
   1   2  -1 789.317 104.994  14
   1   2  -1 855.650 109.177  11
  -1  -2   1 919.594 101.601   7
  -1  -2   1 935.947 115.384   3
  -1  -2   1 928.945 114.578   6
  -1  -2   0 822.867 95.0273   2
   1   2   0 971.663 109.781  15
  -1   2   0 689.527 126.969  13
   1  -2   0 653.946 108.320   5
  -1  -2   0 895.683 85.3137   7
   1   2   0 860.342 99.5558  11
  -1  -2   0 906.091 86.0047   8
   1   2   0 896.398 100.267  10
  -1  -2   0 894.838 103.883   6
   1   2   0 1018.85 113.248  14
   1   2   0 1007.42 92.8814   1
  -1  -2   0 982.540 113.646   3
   1   2   0 907.046 62.5352   5
  -1  -2   0 908.518 100.674  16
   1   2   1 2169.81 149.744   1
   1   2   1 2067.64 165.015  15
   1  -2   1 1719.60 161.704   5
  -1  -2  -1 1923.87 158.277   6
  -1  -2  -1 1912.51 157.007  16
   1  -2   1 1614.75 125.107   1
   1  -2   1 1679.38 153.897  15
  -1  -2  -1 1969.94 168.390   3
  -1  -2  -1 2076.51 124.866   8
  -1  -2  -1 1884.10 159.623   2
  -1   2  -1 1621.10 144.804  12
  -1   2  -1 1702.05 81.7740   6
  -1   2  -1 1824.36 126.075   9
  -1   2  -1 1785.46 145.877  16
   1   2   1 1972.19 161.828  14
   1  -2   1 1772.09 132.350   7
  -1   2  -1 1757.94 144.201   2
  -1  -2  -1 1961.61 126.498   7
   1   2   1 1882.97 115.537   9
   1  -2   1 1797.84 179.239   4
  -1   2  -1 1680.42 84.4618   3
   1  -2   1 1631.13 119.133   8
   1   2   2 307.988 68.4701   1
   1  -2   2 249.388 64.8574   5
   1  -2   2 240.458 46.3643   7
  -1  -2  -2 249.578 74.1389   3
   1  -2   2 205.040 70.7978   4
  -1  -2  -2 281.222 71.2820   6
   1  -2   2 233.237 51.7304   1
   1   2   2 247.754 69.0303  15
  -1   2  -2 239.728 79.0844  13
  -1  -2  -2 233.621 63.4521  16
   1  -2   2 240.625 45.6116   8
  -1   2  -2 243.278 59.3922   2
  -1   2  -2 241.277 55.1387  16
   1  -2   2 202.633 58.6510  15
   1  -2   2 206.552 32.8447  14
  -1  -2  -2 312.151 51.5865   8
  -1   2  -2 302.208 59.5428  10
  -1  -2  -2 212.187 75.5673   2
   1  -2   3 1169.48 167.368   4
   1  -2   3 1138.13 106.804   7
  -1   2  -3 1237.12 146.520  16
   1  -2   3 1270.70 155.306   5
   1  -2   3 1267.14 133.019   1
   1  -2   3 1018.20 138.448  15
   1  -2   4 2029.71 155.297   7
  -1  -3   2 183.755 56.3519   7
  -1  -3   2 145.045 53.4789   6
   1   3  -1 6221.88 223.262   1
  -1  -3   1 6410.49 294.612   7
   1   3  -1 6186.91 334.862  10
   1   3  -1 6416.26 321.009  11
  -1  -3   1 6224.36 322.178   6
   1   3  -1 6706.76 325.044  14
  -1  -3   1 6395.25 313.772   3
  -1  -3   1 6117.75 281.462   8
  -1  -3   1 6441.25 253.946   2
   1  -3   0 70.3499 35.4464   8
   1   3   0 127.955 32.8083   1
  -1  -3   0 96.0449 32.0005   8
  -1  -3   0 91.0881 36.5633   6
  -1  -3   0 75.8872 32.4013   3
   1   3   0 79.3680 34.4032  14
   1   3   0 82.7529 22.3108  15
  -1  -3   0 95.1444 34.8768  16
  -1  -3   0 126.030 40.5834   7
   1   3   0 111.832 28.4293  12
   1   3   0 81.6840 35.9745  11
   1   3   0 112.611 44.2906  10
  -1  -3   0 77.6439 37.6744   2
   1  -3   0 91.2146 48.0429   5
  -1  -3   0 101.967 28.5026   5
   1  -3   0 36.3934 29.7455   4
   1  -3   1 13.6500 18.7632   5
   1   3   1 23.3012 24.6001  15
   1  -3   1-21.9044 22.7221   7
  -1   3  -1 18.0783 6.63817  16
  -1  -3  -1-4.97311 20.5690   2
  -1  -3  -1-6.61182 7.55804   7
   1   3   1 36.4554 22.8104  14
   1   3   1 9.73275 13.4902   1
  -1  -3  -1 26.7251 23.5077   3
   1  -3   1 11.9792 6.04284   1
  -1   3  -1 17.2784 32.9050  13
  -1   3  -1-10.0687 13.7565  12
   1  -3   1 99.0783 51.6985   4
   1   3   1 29.4962 14.5579   9
  -1  -3  -1 6.63008 6.30688   5
  -1   3  -1 34.3111 23.6880   2
   1  -3   1-36.4781 30.3752  15
  -1   3  -1 20.1924 17.7873   9
  -1  -3  -1 15.1568 9.34889   8
  -1  -3  -1-9.22901 17.2051   6
   1  -3   1-8.58701 10.4629   8
  -1  -3  -1 39.3693 25.2060  16
   1   3   2 0.22799 6.89926  15
   1  -3   2 5.51681 10.2894   7
  -1   3  -2 7.87956 12.9600  13
  -1  -3  -2 20.7140 21.9393  16
  -1  -3  -2-18.9740 13.8894   8
   1  -3   2-1.85775 9.91400   1
  -1   3  -2 3.43494 15.7189  16
   1  -3   2-14.5093 20.7835   5
  -1  -3  -2-7.83139 9.09101   6
  -1   3  -2-9.37637 7.16580  11
  -1   3  -2 4.58602 14.5142   9
  -1   3  -2-8.24800 9.84631  12
   1  -3   2-8.22361 10.1769   6
  -1   3  -2 16.6778 19.7947   2
   1  -3   2-9.57448 17.0043  15
   1  -3   2 5.85906 9.06336   8
   1  -3   2-6.12451 28.3247   4
  -1  -3  -2 14.9212 23.6639   3
   1  -3   3 1500.08 93.8581   6
   1  -3   3 1587.66 149.393   1
   1  -3   3 1447.51 79.2766   3
   1  -3   3 1545.29 143.584   7
   1  -3   3 1486.36 159.411  15
   1  -3   3 1439.01 199.956   4
   1  -3   3 1660.59 147.383   8
   1  -3   3 1580.31 183.509   5
  -1   3  -3 1626.92 164.682  16
  -1   3  -4 610.644 113.805  16
   1  -3   4 697.532 70.7428   6
   1  -3   4 646.287 128.416   5
   1  -3   4 606.780 116.906  15
   1  -3   4 713.424 103.555   7
  -1  -4   2 4399.27 285.879   3
  -1  -4   2 4104.49 284.390   7
   1   4  -2 4093.51 295.544  11
  -1  -4   2 4185.84 298.393   6
  -1  -4   2 3880.03 266.204   8
   1   4  -2 4102.06 330.610  10
  -1  -4   1 1982.21 132.701   2
  -1  -4   1 2090.16 185.313   8
  -1  -4   1 1932.99 174.337   5
  -1  -4   1 2215.19 209.253   6
   1   4  -1 2212.60 128.194   1
   1   4  -1 2444.43 209.876  14
  -1  -4   1 2123.64 190.483   7
  -1  -4   1 2162.83 196.510   3
   1   4  -1 2072.93 221.557  10
   1   4  -1 2096.43 203.588  11
  -1  -4   0 716.992 104.417   8
   1  -4   0 591.323 109.936   8
  -1  -4   0 621.719 84.0810   2
   1  -4   0 453.940 111.818   4
  -1  -4   0 684.453 106.557   7
  -1  -4   0 722.678 120.301   6
  -1  -4   0 650.647 110.337   3
  -1  -4   0 690.199 92.1205   5
   1   4   0 691.689 111.298  11
   1   4   0 819.186 102.565  15
   1   4   0 825.417 120.862  14
  -1  -4   0 634.940 86.3152  16
   1   4   0 757.190 81.1527   1
   1  -4   0 645.490 133.608   5
   1   4   0 739.867 87.2406  12
   1  -4   1 153.159 67.2387   5
  -1  -4  -1 129.426 53.9159   3
  -1   4  -1 195.608 66.5003  13
  -1  -4  -1 143.902 37.1232   5
  -1  -4  -1 170.178 47.9809  16
  -1   4  -1 179.257 51.8583   9
   1  -4   1 147.962 51.3819   8
   1  -4   1 141.538 61.3376   4
  -1  -4  -1 133.934 51.9624   6
  -1   4  -1 124.814 28.0057  12
  -1  -4  -1 110.191 45.4377   7
   1  -4   1 138.498 48.1768   7
  -1  -4  -1 135.720 48.9706   8
   1   4   1 146.232 40.7402   9
   1   4   1 211.159 60.2059  14
   1   4   1 201.893 52.3808  15
  -1   4  -1 163.421 41.0950   2
   1  -4   1 135.186 34.8702   1
  -1  -4  -2 1671.89 175.241   8
  -1  -4  -2 1636.08 143.833   5
  -1   4  -2 1386.36 223.619  13
   1  -4   2 1452.88 157.135  15
  -1   4  -2 1544.35 145.881   2
   1  -4   2 1315.29 120.162   1
   1  -4   2 1366.49 148.795   8
   1  -4   2 1425.87 130.655   6
   1   4   2 1704.71 176.115  15
  -1   4  -2 1289.39 138.080  16
  -1   4  -2 1386.31 186.388  12
   1  -4   2 1348.05 158.072   7
  -1  -4  -2 1487.65 194.033   3
  -1  -4  -2 1291.57 152.228  16
  -1   4  -2 1495.45 120.871  11
   1  -4   2 1318.67 195.331   5
   1  -4   2 1612.66 201.354   4
  -1   4  -2 1628.96 167.263   9
   1  -4   3 293.173 92.8449   4
  -1   4  -3 255.834 98.7659  13
   1  -4   3 349.316 67.0957   1
  -1   4  -3 425.503 101.280  10
   1  -4   3 349.443 58.0567   6
  -1   4  -3 366.082 75.1569  16
   1  -4   3 407.078 83.2486   8
  -1   4  -3 384.306 80.4494   2
   1  -4   3 312.075 71.1118  15
   1  -4   3 337.246 95.6073   5
   1  -4   3 397.846 83.1136   7
   1  -4   4 17.0719 10.1084   3
   1  -4   4 33.5193 18.9695   8
   1  -4   4-12.1973 12.7056   6
   1  -4   4 46.3636 49.9042   4
   1  -4   4-7.79241 13.0475   7
   1  -4   4-2.87048 15.5078  15
  -1   4  -4 49.0488 45.3003  13
   1  -4   4 56.1379 48.3915   5
  -1   4  -4 21.1790 9.17684  16
  -1   4  -4 24.8290 33.8020  10
   1  -4   5-41.5703 22.4235   6
   1  -4   5-25.9002 20.3084  15
  -1   4  -5 7.43240 18.3586  16
   1  -4   5-30.8123 33.9735   7
   1  -4   5-0.60480 43.1356   5
   1  -4   5 5.03942 17.7822   4
  -1  -5   3 127.107 59.6390   7
  -1  -5   3 26.2667 27.3002   6
  -1  -5   3 100.942 48.2998   3
  -1  -5   3 46.7790 30.9234   8
   1   5  -3 83.1199 54.7628  10
  -1  -5   2 126.482 54.3863   8
   1   5  -2 223.264 40.8460   1
  -1  -5   2 174.254 61.1973   7
  -1  -5   2 124.928 53.3772   5
  -1  -5   2 220.447 69.5005   3
   1   5  -2 171.810 45.8478  13
  -1  -5   2 223.642 45.4726   2
  -1  -5   2 249.325 80.5379   6
   1   5  -2 226.532 79.9308  11
   1   5  -2 218.555 83.0900  10
  -1  -5   1 32.1103 15.3906   2
   1   5  -1-8.39488 21.9278  14
  -1  -5   1-18.3306 20.7096   8
  -1  -5   1 15.0738 22.9839   7
  -1  -5   1 25.0540 22.5680   6
   1   5  -1 5.48785 16.3411  12
   1   5  -1-14.5436 9.23061   1
  -1  -5   1 49.9282 26.6366   5
  -1  -5   1 25.2384 27.1485   3
   1   5  -1 9.72969 18.5706  11
   1   5  -1 28.4544 25.0384  10
   1  -5   0 1590.66 205.214   8
   1   5   0 2263.21 177.202  15
   1   5   0 2251.13 218.820  14
  -1  -5   0 1913.52 204.655   3
   1   5   0 2025.93 178.472  12
  -1  -5   0 1911.13 203.170   7
   1   5   0 1868.78 209.509  11
  -1  -5   0 1850.03 174.823   5
   1  -5   0 1071.32 185.022   4
  -1  -5   0 2103.95 234.854   6
   1   5   0 1843.70 190.687   9
  -1  -5   0 1935.01 194.659   8
  -1  -5   0 1922.48 154.438  16
   1  -5   1 13.6997 22.4036   7
  -1   5  -1-21.2089 11.0799   9
  -1   5  -1 6.37003 11.8954   2
   1   5   1 97.9935 51.2715  14
  -1  -5  -1 7.55904 24.7998   8
   1  -5   1-22.3810 41.3601   4
   1   5   1-6.08785 12.6462  15
  -1  -5  -1 0.57707 7.89138  16
  -1  -5  -1-14.4962 25.5348   6
  -1  -5  -1-26.3301 26.0457   5
  -1  -5  -1-6.94310 16.7603   3
   1  -5   1 23.9241 18.2347   1
  -1   5  -1 4.43303 24.9876  13
  -1   5  -1-19.5493 21.4826  12
   1   5   1 63.5258 36.3984   9
   1  -5   1 47.6143 35.0675   8
  -1  -5  -1 6.81890 18.6602   7
   1  -5   1-23.9811 31.4187   5
   1  -5   2 3008.09 250.106   8
  -1  -5  -2 3260.33 234.591   5
   1  -5   2 3323.85 306.853   4
   1  -5   2 3099.24 312.343   5
   1   5   2 4004.10 277.634  15
   1  -5   2 3112.76 267.295   7
  -1   5  -2 3592.91 355.045  13
   1  -5   2 3101.26 231.491   6
  -1   5  -2 3418.44 301.104  12
  -1  -5  -2 2577.90 216.532  16
   1  -5   2 2822.61 175.046   1
  -1   5  -2 3305.28 214.185  11
  -1   5  -2 3493.75 269.711   9
  -1   5  -3 29.0841 41.0088  10
  -1   5  -3-36.1697 24.2259   2
   1  -5   3 2.74958 59.1154   4
   1  -5   3-34.0461 12.8587   8
   1  -5   3-12.2223 14.0532   6
   1  -5   3 2.67253 16.0056  15
  -1   5  -3-2.55212 35.6201  12
  -1   5  -3-23.2446 52.9830  13
   1  -5   3-63.1712 42.9775   7
  -1   5  -3 2.57515 16.6152  16
  -1   5  -3 2.58680 23.6652   9
   1  -5   3 0.50575 21.3114   5
  -1   5  -4 2059.71 288.360  13
  -1   5  -4 1738.35 183.803  16
   1  -5   4 2130.63 175.006   6
   1  -5   4 1931.70 195.904  15
  -1   5  -4 2221.67 268.447  10
   1  -5   4 1862.91 216.280   7
   1  -5   4 2009.55 211.314   8
   1  -5   5 123.738 61.3142   7
   1  -5   5 68.6245 33.0965  15
   1  -5   5 74.6273 33.4893   6
  -1   5  -5 57.7315 51.8590  13
   1  -5   5 27.9206 102.768   4
   1  -5   5-0.34611 59.6153   5
  -1   5  -5 116.555 49.3395  16
   1   6  -3 97.0010 41.7971  13
  -1  -6   3 182.873 76.5164   7
  -1  -6   3 200.092 80.2451   6
  -1  -6   3 205.996 76.7291   8
  -1  -6   3 119.185 28.0336   2
   1   6  -3 116.662 26.6326   1
   1   6  -3 179.824 91.1525  10
  -1  -6   3 216.503 73.5929   3
  -1  -6   2 164.007 67.5982   5
   1   6  -2 113.005 63.3430  11
   1   6  -2 46.5945 35.2234  13
   1   6  -2 68.9123 51.2550  14
  -1  -6   2 191.747 78.3937   6
  -1  -6   2 234.214 76.7238   8
   1   6  -2 171.140 77.3245  10
  -1  -6   2 135.159 60.9855   7
  -1  -6   2 125.116 56.8139   3
   1   6  -1 381.337 115.513  10
  -1  -6   1 377.492 96.8178   3
  -1  -6   1 392.595 101.421   8
  -1  -6   1 423.982 116.684   6
   1   6  -1 546.990 125.040  11
  -1  -6   1 432.955 103.579   5
   1   6  -1 444.534 101.119  12
   1   6  -1 549.900 118.906  14
  -1  -6   1 493.334 112.982   7
   1  -6   0 352.656 120.649   5
  -1  -6   0 628.424 129.621   7
   1   6   0 607.426 125.319  14
   1  -6   0 40.0116 87.3727   4
  -1  -6   0 622.261 139.112   6
   1  -6   0 420.998 118.826   8
   1   6   0 340.761 68.6587  15
  -1  -6   0 563.801 109.843   5
  -1  -6   0 504.790 115.444   3
  -1  -6   0 515.962 112.302   8
   1   6   0 472.492 113.994  11
   1   6   0 443.417 102.798   9
   1   6   0 504.353 96.6476  12
  -1  -6  -1 86.2943 49.2785   7
   1  -6   1 6.04564 22.8905   8
  -1  -6  -1 35.9424 43.2655   6
  -1  -6  -1 58.3160 38.5540   8
  -1   6  -1 50.0319 18.1662  14
  -1  -6  -1 28.1553 31.0058   3
   1  -6   1 14.3979 13.7702   1
  -1  -6  -1-20.1142 14.7113  16
  -1  -6  -1 3.69140 13.5276   5
   1   6   1-12.7623 23.3867  14
  -1   6  -1 12.5283 51.8467  12
   1  -6   1 20.9561 31.7404   7
  -1   6  -1 1.02014 9.40903   2
   1  -6   1 0.30204 16.0916   4
   1  -6   1 21.7215 36.3785   5
   1   6   1-58.0285 34.0808  15
   1   6   1 52.2820 20.0180   9
  -1   6  -1 35.1172 29.3725   9
   1  -6   2 767.613 140.011   8
   1  -6   2 778.572 91.8604   1
   1  -6   2 104.440 173.637   4
  -1   6  -2 943.035 182.328  12
   1   6   2 997.826 143.423  15
  -1  -6  -2 552.396 100.739  16
   1  -6   2 785.203 181.278   5
  -1  -6  -2 862.323 179.049   6
  -1   6  -2 1038.69 211.000  13
   1  -6   2 746.532 145.317   7
  -1   6  -2 914.015 111.292   2
  -1  -6  -2 729.907 123.772   5
  -1   6  -2 937.115 132.732  11
  -1   6  -2 862.938 148.091   9
  -1  -6  -2 883.059 159.946   8
   1  -6   2 798.492 138.984   6
   1  -6   3 5.89747 13.1174   6
   1  -6   3-37.8813 36.5045   7
  -1   6  -3-19.7823 32.1615  12
  -1   6  -3 30.2306 60.9044  13
  -1   6  -3-8.11294 30.4711  10
   1  -6   3-1.78250 35.1520   4
  -1   6  -3 16.2276 26.8953  11
   1  -6   3-66.8393 49.4163   8
  -1   6  -3-42.0707 54.5746   9
   1  -6   3 83.6845 58.6247   5
   1  -6   4 79.0860 43.8813   8
  -1   6  -4 35.8446 57.7276  12
   1  -6   4-17.2555 13.6913  15
   1  -6   4 45.9370 49.9788   7
   1  -6   4 2.51646 43.4517   5
   1  -6   4-5.03275 51.1719   4
   1  -6   4 101.387 44.5004   6
  -1   6  -4-28.7501 52.5931  13
  -1   6  -4 15.6321 29.5329  10
  -1   6  -4 20.8137 19.2914  16
  -1   6  -5 54.8247 32.3890  16
   1  -6   5 128.180 50.7878  15
   1  -6   5 172.614 75.5691   8
   1  -6   5 130.812 63.2787   7
  -1   6  -5 142.005 97.0949  13
   1  -6   5-1.22682 57.3083   4
   1  -6   5 213.369 65.9136   6
  -1   6  -5 121.973 64.7548  10
   1  -6   5-0.52908 55.4776   5
   1  -6   6-50.3190 48.2611  15
  -1   6  -6 40.9175 45.0627  16
   1  -6   6 69.4554 53.7929   7
   1  -6   6-2.20925 63.4792   5
   1  -6   6 72.9526 46.4981   6
  -1  -7   4 0.96417 28.1952   8
  -1  -7   4 141.235 77.3819   6
  -1  -7   4-60.2291 49.2098   7
  -1  -7   4 75.1557 51.4114   3
  -1  -7   3 129.712 64.6271   8
  -1  -7   3 145.740 70.1945   3
  -1  -7   3 51.8244 45.5298   7
  -1  -7   3 146.541 79.7804   6
   1   7  -3 181.162 94.7150  10
  -1  -7   2 61.7737 51.3543   8
   1   7  -2-58.2220 41.0840  11
  -1  -7   2 36.5795 40.4779   5
  -1  -7   2-24.5689 26.7283   7
   1   7  -2 10.8605 34.7115  12
  -1  -7   2-26.1117 23.9476   3
   1   7  -2 48.4243 48.7434  14
  -1  -7   2-81.1273 66.0260   6
   1   7  -2 90.8887 71.4195  10
  -1  -7   1 82.9698 49.7488   8
  -1  -7   1 36.7985 37.3348   6
  -1  -7   1-32.4214 43.3635   7
  -1  -7   1 6.38234 22.9384   3
  -1  -7   1 73.7598 47.6372   5
   1   7  -1-28.4977 53.3448  10
   1   7  -1-58.7262 18.6426  12
   1   7  -1 11.1805 32.4200  11
   1   7  -1-86.4049 65.1097  14
   1   7  -1-48.2312 45.5036   9
  -1  -7   0 240.212 80.1770   5
  -1  -7   0 265.361 99.7675   7
  -1  -7   0 346.882 112.868   6
   1  -7   0 107.038 61.6438   4
   1  -7   0 239.451 93.3983   8
   1   7   0 339.694 102.394  14
  -1  -7   0 331.041 100.665   3
   1   7   0 271.946 101.310  11
  -1  -7   0 299.331 96.8096   8
   1   7   0 318.684 103.589   9
   1  -7   0 57.9046 53.8759   5
   1  -7   1-6.84528 23.6712   5
  -1  -7  -1 151.323 72.1070   7
   1   7   1-8.53057 37.4237  14
   1  -7   1 42.1025 50.2758   8
  -1  -7  -1 90.4047 56.4623   8
   1  -7   1 115.807 69.9305   7
  -1   7  -1-40.8539 58.0630  12
  -1  -7  -1 72.2383 46.8316   5
  -1  -7  -1-28.4522 37.6408   6
   1  -7   1-2.17461 33.0765   4
   1   7   1 74.4780 55.6326   9
  -1   7  -1-50.6175 32.0950   9
   1  -7   2 209.188 78.3304   8
   1  -7   2 230.188 86.0410   7
  -1  -7  -2 207.043 90.9472   8
  -1  -7  -2 70.9954 24.4547  16
   1  -7   2 20.1641 109.638   4
  -1  -7  -2 272.030 110.366   6
   1   7   2 209.315 86.0913  14
  -1  -7  -2 180.734 77.9739   5
  -1   7  -2 286.578 121.259  13
  -1   7  -2 227.945 99.2549  12
  -1   7  -2 225.083 77.4360  11
   1  -7   2 187.609 97.3431   5
  -1   7  -2 51.0236 83.2779   9
   1  -7   3 215.943 84.9083   8
  -1   7  -3 232.431 113.604  12
   1  -7   3 25.7185 73.7511   4
  -1   7  -3 137.652 59.7920  13
   1  -7   3 166.582 80.4099   7
  -1   7  -3 55.2898 82.7189   9
  -1   7  -3 206.403 97.7032  10
   1  -7   3 171.075 62.0054   6
   1  -7   3 9.31468 102.237   5
  -1   7  -3 152.432 63.5242  11
   1  -7   4 26.2237 96.0745   4
  -1   7  -4 26.2585 30.6769  10
   1  -7   4-30.6901 30.4894   8
  -1   7  -4 35.0980 34.3649  13
   1  -7   4-30.0194 23.8943   6
  -1   7  -4 38.5593 33.3221  12
   1  -7   4 55.5340 60.3698   7
  -1   7  -4 2.48300 37.2993   9
   1  -7   4 1.17091 26.1368   5
   1  -7   5 14.1697 41.3965   8
   1  -7   5 53.0648 47.2085   6
  -1   7  -5 104.199 88.9737  13
  -1   7  -5-8.81083 37.4984  12
   1  -7   5 61.6929 54.4830   7
   1  -7   5-1.21526 35.3259   5
  -1   7  -5 139.831 87.4421  10
   1  -7   5 18.9157 53.9949   4
   1  -7   6 20.5627 40.1221   7
  -1   7  -6 57.3163 44.5820  13
   1  -7   6-2.66678 53.4168   5
  -1  -8   4 11.0166 17.6857   8
  -1  -8   4 68.3535 45.4870   6
   1   8  -4 15.9622 24.0014  10
  -1  -8   4 39.0351 50.4435   3
   1   8  -3 467.175 136.252  12
  -1  -8   3 361.612 120.310   8
  -1  -8   3 496.092 149.840   7
  -1  -8   3 562.773 158.596   6
   1   8  -3 540.980 174.452  10
  -1  -8   3 570.046 124.685   3
   1   8  -3 635.981 173.388  11
  -1  -8   2 218.212 88.5144   8
  -1  -8   2 467.785 138.557   7
   1   8  -2 423.929 138.527  11
  -1  -8   2 261.727 102.485   6
  -1  -8   2 420.968 111.295   3
   1   8  -2 340.450 107.344  12
  -1  -8   2 298.864 106.733   5
   1   8  -2 344.845 138.236  10
   1   8  -2 384.538 121.123   9
  -1  -8   1 481.234 134.272   8
   1   8  -1 415.310 113.924  14
  -1  -8   1 399.990 101.035   3
  -1  -8   1 444.602 124.638   5
   1   8  -1 329.197 72.6254  12
  -1  -8   1 375.221 122.733   7
  -1  -8   1 381.517 128.946   6
   1   8  -1 378.290 138.627  10
   1   8  -1 509.053 147.174  11
   1   8  -1 396.449 116.981   9
  -1  -8   0 49.8680 46.5613   5
  -1  -8   0 37.6579 28.1407   8
   1   8   0-13.1399 51.2205  10
   1   8   0 14.8311 30.8723  14
  -1  -8   0 76.4604 65.0067   7
  -1  -8   0-34.2358 59.2350   6
   1   8   0 72.6832 55.1668  11
   1   8   0-62.0104 54.3198   9
  -1   8  -1 41.9252 72.3276   9
   1  -8   1 140.139 72.1476   8
   1  -8   1 54.6103 54.1144   4
  -1  -8  -1 116.516 76.9313   7
   1  -8   1 133.371 93.7791   7
   1   8   1 18.4139 25.8578  11
   1   8   1 80.2100 55.0434  14
  -1  -8  -1 136.711 73.1534   8
  -1  -8  -1 15.6945 34.5070   5
  -1  -8  -1 143.964 86.6085   6
   1  -8   1 70.6616 65.3154   5
   1   8   1 48.6938 30.0472   9
   1  -8   2-17.6589 25.5008   8
  -1  -8  -2-35.3884 44.7424   8
   1  -8   2-72.9199 57.4815   4
  -1   8  -2-79.9437 66.6339  11
  -1   8  -2-34.3399 70.1901  12
   1   8   2 96.4955 79.8788  14
  -1   8  -2 38.3471 66.3953   9
   1  -8   2-23.3199 32.8493   7
   1  -8   2 7.56364 100.179   5
   1  -8   3 310.471 109.658   8
   1  -8   3 48.9339 71.5450   7
   1  -8   3 46.3387 122.559   4
   1  -8   3 121.344 76.4528   6
   1  -8   3-0.66036 77.8006   5
  -1   8  -3 121.435 73.6367  12
  -1   8  -3 119.748 107.673  13
  -1   8  -3 60.3401 28.8038  10
  -1   8  -3 52.7491 95.1501   9
  -1   8  -3 177.661 59.0244  11
   1  -8   4-55.3477 48.0915   8
   1  -8   4 5.45377 96.0786   4
   1  -8   4-24.7470 41.4969   6
  -1   8  -4 27.0341 54.3012  13
  -1   8  -4 21.7675 53.9951  12
   1  -8   4 45.2861 52.3754   7
  -1   8  -4-56.7061 70.4827  10
   1  -8   4-0.16981 81.7964   5
  -1   8  -4 25.2187 58.8581   9
   1  -8   5 10.8384 71.1843   4
   1  -8   5-62.7631 53.0933   8
  -1   8  -5-61.3383 99.4455  13
   1  -8   5 100.860 155.330   5
  -1   8  -5 34.9714 43.8789  12
   1  -8   5 31.4111 43.1927   7
  -1   8  -5 67.1529 59.3609  10
  -1   8  -5 24.1493 37.9076   9
   1  -8   6-3.93951 25.3494   7
  -1   8  -6 54.7739 60.7105  12
   1  -8   6 2.32029 69.2898   5
  -1   8  -6 103.996 114.353  13
  -1   8  -6 2.48547 65.1522   9
  -1  -9   4 185.980 91.1114   8
  -1  -9   4 150.048 100.847   7
   1   9  -4 99.3574 76.7308  12
  -1  -9   4 201.694 103.666   6
   1   9  -4 70.7216 65.8292  10
  -1  -9   3 58.1823 59.2134   8
  -1  -9   3 156.008 91.7771   6
   1   9  -3 75.4931 69.9506   9
  -1  -9   3 81.3581 56.9353   7
   1   9  -3 225.261 112.907  12
   1   9  -3 141.008 77.6801  11
   1   9  -3 90.3612 109.030  10
  -1  -9   2 669.418 172.428   8
   1   9  -2 454.385 189.275  10
  -1  -9   2 498.323 150.559   7
  -1  -9   2 562.238 163.658   6
   1   9  -2 268.566 115.398  11
   1   9  -2 430.566 125.605  12
  -1  -9   2 458.275 141.182   5
   1   9  -2 547.897 160.800   9
  -1  -9   1 248.337 103.691   8
   1   9  -1 324.179 127.236  11
  -1  -9   1 208.035 104.749   6
  -1  -9   1 223.843 100.959   7
  -1  -9   1 152.961 72.2155   5
   1   9  -1 144.806 113.239  10
   1   9  -1 70.2258 56.6633   9
  -1  -9   0 646.838 178.619   7
  -1  -9   0 700.180 172.540   8
   1   9   0 592.439 147.121  14
  -1  -9   0 660.477 190.077   6
   1   9   0 680.076 188.122  11
   1   9   0 456.843 201.618  10
  -1  -9   0 475.275 136.441   5
   1   9   0 639.355 169.252   9
  -1  -9  -1 25.6639 60.6191   8
   1   9   1-25.7064 31.8783  14
  -1  -9  -1-91.3787 72.1289   7
   1  -9   1 62.0070 45.9304   8
   1  -9   1-13.0342 31.5895   4
  -1   9  -1-15.6808 24.9733  11
   1   9   1 43.2138 37.3046  11
   1  -9   1-50.5719 75.9815   5
  -1  -9  -1-120.216 82.5323   6
  -1  -9  -1 54.0619 58.6550   5
   1  -9   2 802.975 187.851   8
   1  -9   2 838.956 201.080   4
   1  -9   2 507.365 189.089   7
  -1   9  -2 971.319 248.661  10
   1  -9   2 12.7632 202.195   5
  -1   9  -2 675.154 169.774  11
  -1   9  -2 252.239 180.137   9
   1  -9   3 32.7213 31.6472   8
  -1   9  -3 134.648 109.103  12
   1  -9   3 52.6794 77.7885   7
   1  -9   3 148.019 107.571   4
  -1   9  -3 198.335 107.373  10
   1  -9   3-1.34417 88.0757   5
  -1   9  -3 38.2195 77.1120   9
   1  -9   4 151.691 83.0880   8
   1  -9   4 187.625 118.030   4
   1  -9   4 90.1108 66.6695   7
   1  -9   4-3.53379 72.4414   5
  -1   9  -4 137.128 105.472  12
  -1   9  -4 138.884 106.910  13
  -1   9  -4 2.84296 32.6178  10
  -1   9  -4-14.5962 36.5479   9
   1  -9   5-82.5966 61.0794   8
   1  -9   5-5.60479 58.2892   5
   1  -9   5 132.732 98.5741   7
  -1   9  -5 63.1411 50.7562  12
  -1   9  -5 17.3577 78.9640  13
  -1   9  -5 18.5305 38.7286  10
  -1   9  -5 20.3330 61.9128   9
  -1   9  -6-57.1604 51.0081  12
   1  -9   6 38.2521 78.7174   7
  -1   9  -6-62.2697 81.8341  13
   1  -9   6 67.1176 53.5233   8
   1  -9   6 2.03082 26.4915   5
  -1   9  -6 4.77100 64.4149   9
  -1 -10   4 161.168 85.2034   8
  -1 -10   4 115.384 89.2719   7
  -1 -10   4 94.0221 81.8988   6
   1  10  -4 14.2786 62.1828  12
   1  10  -4 43.6638 83.9162  10
   1  10  -4 55.1380 100.589   9
  -1 -10   3 36.3208 44.9622   8
  -1 -10   3 29.9580 28.8433   6
  -1 -10   3 181.603 100.735   7
   1  10  -3 76.6158 71.6318  12
   1  10  -3 149.670 136.563  10
   1  10  -3 16.6832 110.133   9
  -1 -10   2 30.0879 54.2263   8
  -1 -10   2 155.037 110.567   7
   1  10  -2 107.306 79.1028  12
   1  10  -2 33.5531 45.1544  10
  -1 -10   2 21.6547 43.1375   6
  -1 -10   2-66.0668 61.0318   5
   1  10  -2-55.5722 54.2446  11
   1  10  -2 74.8143 59.4943   9
  -1 -10   1 166.573 91.8474   5
  -1 -10   1 221.718 131.122   7
  -1 -10   1 232.394 114.563   8
  -1 -10   1 134.113 101.408   6
   1  10  -1 323.403 132.473  11
   1  10  -1 306.519 166.531  10
   1  10  -1 210.944 104.904   9
  -1 -10   0 9.26491 29.1484   8
   1  10   0 10.0204 46.9092   9
  -1 -10   0-10.1183 26.7858   7
  -1 -10   0 37.4125 56.4657   6
   1  10   0-39.2463 49.2405  11
   1  10   0-85.1592 106.020  10
  -1 -10  -1-62.3232 66.6185   8
   1  10   1-91.7365 92.3798  11
   1  10   1 58.8310 106.687  10
   1 -10   2 191.989 83.2637   8
  -1  10  -2 97.5107 85.2150  10
   1 -10   2-61.7019 80.7289   7
   1 -10   2-5.00720 40.0307   5
   1 -10   3 149.663 93.7486   8
   1 -10   3-7.77562 128.736   5
  -1  10  -3 39.5023 69.7207  12
   1 -10   3-46.0497 70.2753   7
  -1  10  -3 5.39487 58.9392  10
  -1  10  -3 5.26751 29.1632   9
   1 -10   4 201.122 105.407   8
   1 -10   4-5.19802 75.4741   5
   1 -10   4-50.7396 74.6819   7
  -1  10  -4 19.8768 103.303  12
  -1  10  -4-176.177 126.410  10
  -1  10  -4-67.1302 58.2256   9
   1 -10   5 148.051 89.9999   8
  -1  10  -5 324.467 133.654  12
   1 -10   5 105.225 129.340   7
   1 -10   5-19.0025 108.126   5
  -1  10  -5 107.566 85.3185  10
  -1  10  -5 118.162 131.881   9
   1 -10   6 2.64762 26.0574   8
   1 -10   6-57.2308 127.640   7
  -1  10  -6-18.5007 37.3492  12
   1 -10   6 19.1443 42.2857   5
  -1  10  -6 37.5299 57.9703   9
  -1 -11   4-26.1318 39.8726   8
  -1 -11   4 54.3849 50.3588   7
  -1 -11   4 36.4414 57.8458   6
   1  11  -4 197.996 137.822  12
   1  11  -4-3.94597 73.1176  10
   1  11  -4 8.25951 96.0507   9
  -1 -11   3-159.197 100.720   8
  -1 -11   3 0.21631 56.6147   7
  -1 -11   3-45.5741 65.2140   6
   1  11  -3 34.2020 70.8663  10
   1  11  -3-5.60171 52.7146   9
  -1 -11   2 55.6404 29.8604   8
  -1 -11   2 138.318 110.383   7
  -1 -11   2 54.6344 69.5195   6
   1  11  -2 87.8865 85.3486  10
   1  11  -2 28.8873 64.7007  11
   1  11  -2 1.15981 80.2614   9
  -1 -11   1 37.8391 34.3734   7
   1  11  -1-28.8263 52.2282  10
  -1 -11   1-138.400 115.299   6
   1  11  -1-15.6406 45.9647  11
   1  11  -1 15.4464 29.9070   9
  -1 -11   0 40.8877 46.2462   8
   1  11   0-59.7048 76.4645  10
   1  11   0-130.901 126.631  11
  -1 -11   0-46.4940 73.7700   7
   1 -11   2 68.3802 78.5033   8
  -1  11  -2-39.1905 38.5254  10
   1 -11   3 27.8707 73.8904   7
  -1  11  -3 199.527 152.638  10
   1 -11   3 11.7584 69.9041   5
   1 -11   3 126.481 79.1822   8
  -1  11  -3 37.5198 47.5849   9
   1 -11   4-129.252 94.7054   8
   1 -11   4-25.6850 73.6064   7
  -1  11  -4-248.668 171.403  10
  -1  11  -4-110.273 116.197  12
   1 -11   4 21.7460 63.9245   5
  -1  11  -4 45.0863 99.1263   9
   1 -11   5-10.8473 51.7493   7
   1 -11   5-19.5505 85.1129   5
  -1  11  -5-33.6720 58.1432  12
  -1  11  -5 144.560 119.468  10
  -1  11  -5 48.4373 33.7253   9
  -2   0   0-13.8525 42.0392   2
  -2   0   0 22.4227 24.4889  16
   2   0   0-4.58131 17.5043   4
   2   0   0 2.40761 27.8271   1
  -2   0   0-5.36275 13.8205   3
   2   0   0-11.8997 23.8239  15
   2   0   1-33.9137 24.1432   5
  -2   0  -1 25.5155 24.5748  13
   2   0   1-3.59015 29.6885   1
   2   0   1-10.7020 32.8489   4
  -2   0  -1 8.21775 16.1391   2
   2   0   1 37.8982 23.1021  14
  -2   0  -1 15.6747 15.9780  16
  -2   0  -1-23.0148 16.7319   6
   2   0   1 19.4127 35.3620  15
  -2   0  -1-12.9735 24.9175   3
   2   0   2 4307.35 344.752  15
   2   0   2 4116.42 274.740  14
   2   0   2 4765.67 311.210   1
  -2   0  -2 4828.56 213.790   6
  -2   0  -2 5286.43 251.586  12
  -2   0  -2 5047.87 308.784   3
  -2   0  -2 4300.07 344.553  13
  -2   0  -3 12.3607 19.8582  16
  -2   0  -3 10.7258 28.1143   6
  -2   0  -3 59.1287 69.1960  13
   2   0   3 98.9311 53.3459   1
  -2   0  -3 132.648 82.3379   2
   2   0   3-1.25192 15.0522   4
   2   0   3 106.371 39.6913  11
  -2   0  -3 126.015 56.8088   3
  -2   0  -3 121.209 43.3707  12
   2   0   3 26.0549 23.8699   5
   2   0   3 70.5841 58.6374  15
   2   0   3 69.6650 47.9888  14
   2   0   4 1109.06 170.338   1
  -2   0  -4 1310.64 178.757   3
   2   0   5 50.0909 45.2105  15
  -2   0  -5 13.5075 44.7444  16
   2   0   5 28.1825 41.8303   1
  -2   0  -5 3.04175 44.0538   2
   2   1   0 1788.10 192.216   4
   2   1   0 1609.43 217.498  15
  -2  -1   0 1873.94 216.948  16
  -2  -1   0 1793.91 165.555   6
  -2  -1   0 1641.00 189.294   3
   2   1   0 1630.96 188.812  14
   2   1   0 1678.81 181.768   1
   2  -1   1 220.721 65.1051   5
   2  -1   1 175.121 84.3198  15
   2   1   1 291.433 75.1486   4
   2  -1   1 248.517 88.6008   4
   2   1   1 223.580 38.4781   5
  -2   1  -1 168.365 67.0810  16
   2   1   1 221.652 69.4620  14
  -2  -1  -1 219.220 30.4606   7
   2   1   1 261.098 70.9756   1
  -2  -1  -1 209.863 88.1423  13
   2  -1   1 173.062 58.2024  14
  -2   1  -1 116.227 84.2745  13
  -2  -1  -1 175.763 68.1805  16
   2  -1   1 208.090 67.6896   1
  -2   1  -1 244.938 87.2986   2
  -2  -1  -1 263.031 57.1201   6
   2   1   1 186.216 47.9448  11
  -2  -1  -1 165.452 75.9873   2
  -2  -1  -1 279.672 77.1692   3
   2   1   1 254.370 83.2279  15
  -2   1  -1 223.280 63.1718   3
   2  -1   2-38.2762 14.2253   8
   2  -1   2-48.2293 59.8645   4
  -2   1  -2-49.0447 47.1590  16
   2   1   2 1.38785 20.6648   4
   2   1   2-53.4191 59.7254  15
   2  -1   2-62.0452 64.6212  15
   2   1   2-65.7280 50.4064  14
   2  -1   2-6.38955 26.1277  14
  -2  -1  -2-73.6134 51.9419  13
   2  -1   2-55.3573 46.3546   1
  -2  -1  -2-13.4456 21.0109  16
  -2   1  -2-3.82962 9.97058   6
  -2   1  -2-25.0487 39.1255  12
   2   1   2-14.8803 26.6483  11
  -2  -1  -2-14.5293 45.0652   2
   2   1   2-31.3322 16.6919   5
  -2   1  -2-36.1998 43.5836  13
   2   1   2-12.9695 22.9550   1
  -2  -1  -2-74.7273 37.6050   6
  -2   1  -2-143.383 59.0474   2
  -2  -1  -2-28.8553 31.7828   3
  -2   1  -2-35.9264 30.3580   3
   2  -1   2-9.69739 14.3822   5
   2   1   3 183.288 76.0333   4
  -2  -1  -3 135.103 58.4431  16
   2   1   3 129.069 46.3241  14
  -2   1  -3 120.635 72.2234  13
   2  -1   3 169.786 86.0514   4
  -2  -1  -3 144.405 47.2320   6
  -2   1  -3 204.595 64.8599  12
  -2  -1  -3 151.149 34.6448  12
   2  -1   3 122.839 50.8904  14
   2   1   3 223.035 71.0912   1
  -2  -1  -3 192.515 71.6227   2
  -2  -1  -3 126.096 74.5411  13
  -2   1  -3 84.4128 34.9545  16
   2  -1   3 129.082 69.2632  15
  -2   1  -3 74.9090 44.9269   2
  -2   1  -3 97.3359 46.4507   3
  -2  -1  -3 87.5773 45.7816   3
   2  -1   3 191.549 70.3398   1
   2  -1   3 182.430 65.0942   5
   2   1   3 158.395 75.3584  15
  -2  -1  -4 1182.76 201.356   2
   2   1   4 1074.32 166.142   1
   2   1   4 886.697 172.797  15
  -2   1  -4 625.863 141.538  16
   2  -1   4 956.651 144.998   5
  -2  -1  -4 961.094 160.965   3
  -2  -1  -4 642.474 139.991  16
   2  -1   5-30.4439 33.6065   4
  -2  -1  -5 13.6120 25.2687   2
  -2  -1  -5 44.5842 48.5404  16
   2  -1   5-63.4952 62.4233  15
   2   1   5-24.4099 48.7866  15
   2  -1   5-38.2248 41.2284   1
  -2   1  -5 30.2127 41.8455  16
  -2   1  -5 5.14145 26.2019   2
   2  -1   5-6.77199 15.4420   7
  -2  -2   1 328.467 87.0426   3
   2   2  -1 11.9139 8.04252  14
   2   2   0 4793.53 271.167   4
  -2  -2   0 4938.86 339.554   2
  -2  -2   0 4677.59 220.033   7
   2   2   0 4710.30 324.063  14
  -2  -2   0 4894.43 332.249   3
   2   2   0 5033.80 372.989  15
  -2  -2   0 4983.15 295.833   6
  -2  -2   0 4381.03 327.874  16
   2   2   0 4549.14 291.676   1
   2  -2   1 363.364 63.4609   8
   2   2   1 465.139 86.7106   4
  -2  -2  -1 375.775 116.464   2
   2   2   1 406.584 91.4993   1
  -2  -2  -1 433.181 85.3700   6
  -2   2  -1 458.777 113.213  16
  -2  -2  -1 416.986 57.3301   7
   2   2   1 402.376 102.683  15
   2   2   1 441.570 94.3415  14
  -2  -2  -1 438.729 103.192   3
  -2  -2  -1 473.787 97.4743  13
  -2   2  -1 488.294 83.1864   3
   2  -2   1 429.121 96.1008   1
  -2   2  -1 394.077 128.550  13
   2  -2   1 403.165 119.085   4
  -2  -2  -1 397.420 97.6293  16
   2  -2   1 392.787 98.6700   5
   2  -2   1 391.331 119.005  15
   2   2   1 435.500 85.1375  11
  -2   2  -1 398.579 110.924   2
   2  -2   2 1269.29 104.000   8
   2   2   2 1891.69 196.908   4
   2  -2   2 1576.13 230.891   4
  -2  -2  -2 1948.68 228.483   2
   2   2   2 1855.72 197.173   1
   2  -2   2 1393.75 210.286  15
  -2  -2  -2 1522.02 198.047  16
   2   2   2 1402.47 180.440  14
  -2  -2  -2 1704.30 202.668   3
  -2  -2  -2 1729.37 183.643   6
   2  -2   2 1374.81 145.680  14
  -2   2  -2 1633.90 152.901   3
   2  -2   2 1406.42 180.968   1
  -2  -2  -2 1777.73 191.352  13
   2  -2   2 1324.42 179.553   5
  -2   2  -2 1856.71 194.368  12
   2   2   2 1371.28 153.985  11
   2   2   2 1372.97 115.066  10
  -2  -2  -2 1820.40 114.869   8
  -2  -2  -3 1383.57 93.2420   8
   2   2   3 1793.41 204.162   1
   2  -2   3 1383.92 179.055   1
  -2   2  -3 1392.65 191.796  16
   2   2   3 1629.24 216.147  15
   2  -2   3 1347.11 207.034  15
  -2  -2  -3 1320.59 194.942  16
   2   2   3 1349.62 182.553  14
   2  -2   3 1225.40 137.715  14
  -2   2  -3 1631.71 162.162   3
  -2  -2  -3 1691.77 211.973   3
  -2  -2  -3 1263.23 74.3296  12
  -2   2  -3 1631.07 181.746  12
   2  -2   3 1440.16 116.321   8
  -2  -2  -4 655.223 68.3688   8
   2   2   4 734.444 139.938   1
  -2  -2  -4 376.286 106.185  16
  -2  -2  -4 680.279 149.083   3
   2   2   4 717.212 162.675  15
   2  -2   5 51.9358 47.2517   4
  -2   2  -5 71.9868 54.9809  16
   2  -2   5 52.8724 48.2553  15
   2  -2   5 3.82683 19.5331   1
  -2   2  -5 59.6085 50.4653   2
   2  -2   5 7.61887 11.7207   7
   2  -2   5 0.08920 42.8545   5
  -2   2  -5 19.2777 46.2077  13
   2  -2   6 104.868 42.0446   7
  -2   2  -6 65.7722 49.4772  16
   2  -2   6 160.654 91.6730  15
  -2  -3   1 1154.91 171.773   2
   2   3  -1 987.373 158.768  14
   2   3  -1 991.937 135.566   1
  -2  -3   1 1187.86 180.677   3
  -2  -3   1 1445.78 183.693   6
  -2  -3   1 1209.85 141.780   7
   2   3   0 150.465 61.2293  15
   2   3   0 111.110 50.5661   1
   2   3   0 198.692 50.5695   4
   2   3   0 111.443 53.1574  14
  -2  -3   0 146.042 59.1992  16
  -2  -3   0 184.657 61.0364   6
   2   3   0 158.324 56.2173  11
  -2  -3   0 147.248 46.2276   7
  -2  -3   0 170.794 68.9680   2
   2   3   0 119.042 23.7228   5
  -2  -3   0 150.532 65.3672   3
  -2   3  -1 46.3010 27.7156   3
  -2   3  -1 9.37496 15.4827   2
   2  -3   1-11.9648 29.3773   5
  -2  -3  -1 45.5502 19.4283   8
   2   3   1 0.56888 16.2231   1
   2  -3   1 3.35522 39.3929   4
   2  -3   1-17.4367 23.0982   8
   2   3   1 46.1004 37.5709  14
  -2  -3  -1-23.3644 32.9463  16
   2   3   1-8.29986 17.5166  15
  -2  -3  -1-56.0534 34.8959   6
  -2   3  -1 16.2391 75.6660  13
  -2  -3  -1-11.6429 19.4886  13
   2   3   1 32.7027 17.9429   4
  -2  -3  -1-15.6929 17.1657   7
   2  -3   1-25.4250 27.3498   1
  -2  -3  -1-18.4311 38.5935   2
   2   3   1 29.4674 21.3356  11
   2   3   1 16.0494 20.7234  10
  -2  -3  -1 48.3363 44.2025   3
  -2  -3  -2 209.999 47.9857   8
   2   3   2 222.169 66.9052   1
  -2  -3  -2 270.511 65.4251   7
   2   3   2 279.134 93.4457  15
  -2   3  -2 196.348 75.6358  12
  -2  -3  -2 153.406 73.3507   2
  -2  -3  -2 202.506 55.7289  13
   2  -3   2 162.994 72.0134  15
   2   3   2 180.149 62.9206  14
   2  -3   2 182.164 88.2401   4
  -2  -3  -2 127.025 57.3326  16
  -2  -3  -2 232.889 76.8279   6
  -2   3  -2 188.386 106.530  13
   2  -3   2 100.085 38.9960   8
   2   3   2 124.131 50.0935  11
  -2  -3  -2 235.421 88.5344   3
  -2   3  -2 194.906 76.3402  16
   2   3   2 117.209 44.6333  10
  -2   3  -2 203.062 47.8245   3
  -2   3  -2 153.056 79.1069   2
   2   3   2 213.180 53.1723   9
   2  -3   2 128.850 58.4207   1
   2  -3   2 197.364 81.8477   5
   2  -3   3 24.6238 23.7355   8
  -2   3  -3 27.0786 17.7459   3
  -2  -3  -3 25.8370 16.1539   8
  -2  -3  -3 1.92330 19.8580   6
  -2   3  -3 49.8625 50.8816   2
   2  -3   3 22.4549 19.0556   7
   2  -3   3 18.3173 23.4477  15
   2   3   3 0.09286 24.8168  14
   2  -3   3 8.11660 53.9090   4
   2   3   3 19.5900 44.7833  15
   2  -3   3 33.0968 23.5926  14
  -2  -3  -3-11.9134 18.6985  13
  -2  -3  -3-22.6294 34.4438  16
  -2   3  -3 11.1891 24.4297  13
  -2   3  -3 8.57807 30.6529  16
   2   3   3 45.8492 39.7982   1
  -2  -3  -3-12.4249 15.3982   3
   2  -3   3 0.64032 26.2783   1
  -2  -3  -3 58.3874 50.3929   2
  -2   3  -3 25.0141 27.1366  12
  -2   3  -3-12.8252 25.5290  10
   2  -3   3 27.6486 36.6360   5
  -2   3  -3-7.92360 24.2093   9
  -2  -3  -4 565.160 80.1749   8
  -2  -3  -4 374.066 143.595   2
   2  -3   4 494.116 122.588   1
  -2  -3  -4 366.750 112.776  16
   2  -3   4 11.6223 159.141   4
   2   3   4 579.623 147.583  15
   2  -3   4 434.721 80.4714  14
  -2   3  -4 567.415 145.428   2
  -2   3  -4 438.951 171.169  13
  -2  -3  -4 537.365 133.377   3
  -2   3  -4 515.650 121.816  16
  -2   3  -4 668.253 142.988  12
   2  -3   4 29.4321 131.982   5
   2  -3   4 438.221 119.976  15
   2  -3   5-10.2577 16.7180  14
   2  -3   5-0.65725 27.3672   4
  -2   3  -5 159.887 93.8103   2
   2  -3   5-0.71678 47.5007   5
   2  -3   5 58.9254 44.1962   1
  -2   3  -5 51.0106 30.9419  16
  -2   3  -5 76.2967 67.6861  13
   2  -3   5 54.4192 32.5682   7
   2  -3   5 44.2652 50.0535  15
   2  -3   6-13.4987 51.2406   4
  -2   3  -6 65.6667 55.9513  16
   2  -3   6-1.79497 24.6580  15
   2  -3   6 48.8996 31.8619   7
  -2   3  -6 7.28675 42.3270  13
  -2  -4   2 46.1650 37.0874   6
   2   4  -1 57.9685 22.6164   4
  -2  -4   1 48.4409 33.1439   7
   2   4  -1 124.367 45.5754   1
  -2  -4   1 162.705 70.0224   6
   2   4  -1 65.4048 47.8463  11
  -2  -4   1 111.913 44.6072   2
   2   4  -1 156.389 66.6697  14
  -2  -4   1 23.9419 18.6713   3
  -2  -4   0 670.307 128.178   2
  -2  -4   0 724.721 138.633  16
   2   4   0 736.610 115.806   1
  -2  -4   0 709.384 111.053   7
   2   4   0 768.859 147.569  15
   2   4   0 777.903 148.013  14
  -2  -4   0 650.360 131.868   6
   2   4   0 556.544 60.9389  12
   2   4   0 663.517 127.278  11
  -2  -4   0 641.378 138.671   3
   2   4   0 619.172 124.008  10
  -2  -4   0 684.736 110.752   8
  -2   4  -1-17.2721 11.3181   3
   2  -4   1 12.7668 21.1756   5
  -2   4  -1 9.16676 17.0723  13
  -2  -4  -1-16.1974 22.5406   8
   2  -4   1-59.6492 36.1045   8
   2   4   1 34.5853 34.3456  15
   2  -4   1-58.9097 44.1936   1
   2  -4   1-0.50439 45.9427   4
   2   4   1 9.42374 22.0727  14
   2   4   1 4.56194 15.0350  11
  -2  -4  -1-35.9479 31.6393  16
  -2  -4  -1-43.6633 48.8725   2
  -2  -4  -1 11.9347 15.7987   7
  -2  -4  -1-26.6927 29.9476   6
   2   4   1 32.0218 28.8532   1
   2   4   1 23.8555 23.9815  10
  -2  -4  -1-19.8589 36.3051   3
   2   4   1-14.5563 15.4700   9
  -2   4  -1 15.5148 42.5054   2
  -2  -4  -2-16.7788 8.23538   8
  -2  -4  -2 63.1621 51.0976   2
   2  -4   2-55.6076 37.4530   8
  -2  -4  -2 9.09082 23.6672  16
   2   4   2 1.94139 20.3734  15
  -2   4  -2 5.88305 21.7793  16
   2  -4   2-1.67743 60.8047   4
   2  -4   2 43.2820 44.1758  15
   2   4   2 39.2429 38.6353  14
  -2  -4  -2 8.76997 14.2371  13
  -2   4  -2 14.1297 30.3413  13
  -2  -4  -2 68.3846 52.5193   6
  -2   4  -2 26.4899 27.1320  12
   2  -4   2 18.1766 21.6243   1
  -2   4  -2 25.2279 17.2630   3
   2   4   2 70.9028 39.8169  11
  -2  -4  -2 46.2946 42.3509   3
   2   4   2 28.5310 36.8203   1
   2   4   2 14.3707 21.4016  10
  -2  -4  -2-21.1120 16.9611   7
  -2   4  -2 22.5645 41.0790   2
   2   4   2 33.4445 32.6622   9
   2  -4   2-2.48909 54.0030   5
   2  -4   3 208.716 57.7862   8
  -2  -4  -3 178.793 84.4275   2
  -2  -4  -3 114.531 38.2378   8
  -2  -4  -3 113.815 62.4195  16
   2   4   3 107.549 56.3336  14
  -2   4  -3 112.381 56.2806  16
   2  -4   3 125.353 61.3293   7
   2   4   3 168.159 77.2515  15
   2  -4   3 136.842 64.1128  15
  -2  -4  -3 171.569 71.5904   6
  -2  -4  -3 121.873 59.3455  13
  -2   4  -3 148.949 117.167  13
   2  -4   3 24.9181 92.3569   4
  -2  -4  -3 172.833 73.6294   3
  -2   4  -3 222.677 88.1434   2
   2  -4   3 163.909 59.6405   1
  -2   4  -3 172.558 64.4007  12
  -2   4  -3 181.510 66.7687  10
   2   4   3 197.772 72.6078   1
   2  -4   3 3.23123 86.5503   5
  -2   4  -3 70.4871 52.4654   9
  -2  -4  -4 535.823 90.0496   8
   2  -4   4 190.949 204.844   4
  -2   4  -4 911.640 174.547   2
   2  -4   4 752.887 140.945   1
   2   4   4 779.878 172.528  15
  -2   4  -4 765.609 153.507  16
   2  -4   4 767.950 167.895  15
  -2  -4  -4 704.410 155.280   3
  -2   4  -4 937.552 230.685  13
  -2  -4  -4 250.605 75.9925  16
  -2   4  -4 891.175 170.345  12
   2  -4   4 34.4936 159.004   5
   2  -4   4 770.340 117.539   8
   2  -4   5-15.3394 59.1633   4
  -2   4  -5-118.638 63.4458  16
  -2   4  -5-19.3710 32.4063   2
   2  -4   5-26.4935 19.9417   7
   2  -4   5-89.5725 36.3832  14
  -2   4  -5 12.0049 55.8657  13
   2  -4   5 5.84181 17.9459  15
  -2   4  -5 0.82913 34.1124  12
   2  -4   5-2.07252 34.2760   1
   2  -4   5-1.64044 32.3530   5
  -2   4  -5 12.9065 13.1214   9
   2  -4   6 25.0178 75.4838   4
  -2   4  -6-20.2321 42.2077  16
   2  -4   6 34.7844 35.9464  15
   2  -4   6-22.8338 38.8519   7
  -2   4  -6 31.2947 97.2440  13
   2  -4   6 0.12417 53.5661   5
  -2  -5   2 1388.69 176.995   2
  -2  -5   2 1540.21 230.340   6
   2   5  -2 942.581 130.584   1
  -2  -5   2 1342.87 208.818   3
  -2  -5   2 1362.36 189.519   7
  -2  -5   1-30.8872 40.0756   8
   2   5  -1 28.2250 24.5552   1
  -2  -5   1 7.46519 16.0669   7
   2   5  -1-40.2899 37.2527  14
  -2  -5   1 24.0442 41.8634   6
   2   5  -1 61.8520 50.1816  11
  -2  -5   1 19.1456 29.7622   2
   2   5  -1 38.9144 45.9242  10
  -2  -5   1 71.8088 50.9988   3
  -2  -5   0 1670.74 206.133   2
   2   5   0 1926.34 190.853   1
  -2  -5   0 1528.65 203.134  16
  -2  -5   0 1954.16 205.419   7
   2   5   0 1902.79 240.342  15
   2   5   0 1925.09 242.730  14
  -2  -5   0 1909.12 246.595   3
   2   5   0 1678.23 140.900  12
   2   5   0 1768.35 231.165  11
   2   5   0 1648.33 229.215  10
  -2  -5   0 1821.82 240.549   6
  -2  -5   0 1961.06 205.871   8
  -2  -5  -1 602.862 110.825   8
   2  -5   1 9.10388 142.953   5
   2  -5   1 503.691 116.881   8
   2   5   1 784.633 129.816   1
  -2   5  -1 623.588 141.605   2
   2   5   1 779.198 149.153  15
  -2  -5  -1 684.242 125.927   7
  -2  -5  -1 593.411 127.785   2
   2  -5   1 69.4674 147.945   4
  -2  -5  -1 659.082 143.712   6
  -2  -5  -1 567.177 122.078  16
  -2   5  -1 301.191 49.9822   3
   2   5   1 641.773 142.418  14
  -2   5  -1 240.383 125.965  13
   2  -5   1 481.915 104.189   1
   2   5   1 528.324 121.633  11
  -2  -5  -1 604.519 144.364   3
   2   5   1 464.012 118.655  10
   2   5   1 522.818 99.9493   9
  -2  -5  -2 32.4075 23.0675   8
  -2  -5  -2 42.4698 53.3592   2
   2  -5   2 8.25191 21.2459   8
   2   5   2 30.1783 29.0913  15
   2  -5   2-1.60998 33.9874   4
   2   5   2 44.0462 20.1243   1
  -2  -5  -2-55.2880 33.8260   7
   2  -5   2 55.2539 44.3666   1
  -2  -5  -2 42.8707 44.6829  16
  -2  -5  -2 51.6460 41.5774   6
  -2   5  -2 36.2335 81.7344  13
   2   5   2 11.3615 15.4125  14
  -2   5  -2 36.6703 18.1724  12
  -2  -5  -2 53.2462 38.7815   3
   2   5   2-18.3716 19.2486  11
   2   5   2 24.0704 24.8589  10
  -2   5  -2 39.7249 28.1752   2
   2   5   2 3.87873 36.4815   9
   2  -5   2 23.4342 33.5384   5
   2  -5   3 257.814 80.9552   8
  -2  -5  -3 119.024 44.2887   8
  -2  -5  -3 130.747 64.8951  16
  -2  -5  -3 204.040 60.5048  13
   2   5   3 268.545 97.0399  15
   2  -5   3 170.591 64.3968   1
   2   5   3 139.639 60.7486  14
  -2   5  -3 276.954 88.4210   2
  -2  -5  -3 153.808 73.4701   6
  -2   5  -3 189.579 119.948  13
  -2  -5  -3 202.286 88.0475   3
  -2   5  -3 189.337 82.8146  12
   2  -5   3 158.810 81.5265   7
  -2   5  -3 183.228 77.1807  10
   2  -5   3 2.90506 127.228   4
   2  -5   3 99.5380 59.8444  15
  -2   5  -3 151.685 78.0685  16
   2  -5   3 25.9490 82.8111   5
  -2   5  -3 84.7906 60.9934   9
   2  -5   4 86.7837 48.1032   8
   2  -5   4-91.0172 66.1577  15
  -2   5  -4-49.0397 41.2489  16
  -2  -5  -4 1.65179 21.6070  16
  -2  -5  -4-48.4737 33.5511   8
   2   5   4-12.0359 27.8721  15
   2  -5   4-17.0592 42.4784   7
  -2   5  -4-119.944 78.7035   2
   2  -5   4 3.16517 28.9018   4
  -2   5  -4-22.8728 56.9951  13
   2  -5   4-14.0256 24.2632   1
  -2   5  -4-80.1938 54.3122  12
  -2   5  -4-18.4729 33.8660  10
   2  -5   4 3.20706 50.2553   5
  -2   5  -4-12.7315 54.1449   9
  -2   5  -5 55.5025 90.2488   2
   2  -5   5 100.173 69.5722  15
  -2   5  -5 239.736 164.841  13
  -2   5  -5 130.936 81.1057  16
  -2   5  -5-7.34578 38.4225  10
   2  -5   6 32.7671 161.623   4
  -2   5  -6 281.819 111.320  16
   2  -5   6 286.258 108.913  15
   2  -5   6 203.587 84.3312   7
  -2   5  -6 365.651 193.374  13
  -2   5  -6 306.274 120.678  12
   2  -5   6 9.99860 131.582   5
  -2   5  -7-49.7971 44.9742  16
   2  -5   7-104.639 75.0526  15
  -2   5  -7-0.20227 34.1858  13
  -2  -6   2 350.914 119.339   6
  -2  -6   2 317.207 100.685   7
   2   6  -2 316.823 78.8365   1
  -2  -6   2 311.932 91.4313   2
  -2  -6   2 316.200 108.147   3
  -2  -6   1 98.1452 50.2472   8
  -2  -6   1 256.690 82.4117   7
  -2  -6   1 180.939 56.1869   2
   2   6  -1 165.612 46.8026   1
   2   6  -1 346.083 118.486  14
   2   6  -1 100.267 36.3801  12
  -2  -6   1 286.000 104.965   6
   2   6  -1 294.400 101.057  11
   2   6  -1 217.962 96.8823  10
  -2  -6   1 250.922 96.6129   3
  -2  -6   0-16.8508 24.7798   8
  -2  -6   0 50.4598 37.8971   2
  -2  -6   0 72.5592 47.1488   7
   2   6   0 85.9604 60.3694  14
  -2  -6   0 73.7796 67.8274   6
  -2  -6   0-11.8888 43.0766   3
   2   6   0-57.4885 66.1309  10
   2   6   0 74.5289 60.9889  11
   2   6   0 108.077 44.6213   1
   2   6   0 67.1821 33.0961   9
  -2  -6  -1 62.0229 45.4354   8
  -2  -6  -1 18.0445 24.0032   2
   2  -6   1-3.41645 22.4739   8
  -2  -6  -1 88.9092 50.2146   7
  -2  -6  -1 49.1708 32.7333  16
   2   6   1 68.6033 36.7258   1
   2   6   1 128.455 60.8518  15
   2  -6   1-2.22697 34.1611   4
   2   6   1 136.321 71.2992  14
   2  -6   1 15.9321 22.2338   1
  -2  -6  -1 105.503 68.9363   6
  -2  -6  -1 15.7909 22.8440   3
   2   6   1 8.53093 40.3731  11
   2   6   1 60.3994 38.8757  10
  -2   6  -1 41.5485 24.1160   2
   2   6   1 74.2370 39.3705   9
   2  -6   1 13.2011 40.3072   5
  -2  -6  -2-10.7730 25.8777  16
  -2  -6  -2 56.4847 34.3616   8
   2  -6   2 25.4286 30.5754   8
   2   6   2 64.1200 44.5348  15
  -2  -6  -2-51.5937 51.0555   7
   2   6   2 12.9299 39.8988  14
   2  -6   2-1.04388 46.7803   4
  -2   6  -2 12.4258 88.4139  13
  -2  -6  -2-45.0785 45.9950   3
  -2   6  -2 31.2412 59.8450  12
   2   6   2-13.0015 24.4262  11
  -2   6  -2 44.7724 69.3330   2
   2   6   2 16.0657 31.3853  10
  -2  -6  -2 51.5587 44.8377   6
   2  -6   2-39.6029 27.0048   1
   2  -6   2 0.15067 22.1787   5
   2   6   2 38.3830 28.9668   9
   2  -6   3 0.75608 73.1133   4
   2  -6   3 10.4833 21.8861   1
   2  -6   3-75.1097 47.3346   8
  -2  -6  -3 10.5432 28.1841   8
   2  -6   3 4.45357 26.4844   7
   2   6   3-30.2381 37.1343  15
   2   6   3-82.7333 69.3191  14
  -2  -6  -3 100.814 70.4799   6
  -2   6  -3-26.7574 34.4376   2
  -2  -6  -3 5.30843 24.9506   3
  -2   6  -3 6.23940 39.8888  13
  -2  -6  -3-34.4242 34.3255  16
  -2   6  -3 12.9908 35.9014  12
  -2   6  -3-39.2978 46.3833  10
   2  -6   3 3.18685 46.2613   5
  -2   6  -3 4.07151 26.8026   9
   2  -6   4 7.26839 28.9631   8
  -2   6  -4 106.074 69.9061   2
   2  -6   4 16.7125 30.5795   7
   2  -6   4-32.7428 50.9200  15
   2  -6   4 173.988 81.0544   1
  -2   6  -4 68.7640 71.8629  13
  -2   6  -4 65.6334 55.5981  16
  -2   6  -4 106.843 87.4011  12
   2  -6   4 2.71333 70.9957   4
  -2   6  -4 45.0154 39.1410  10
   2  -6   4-16.1196 59.2261   5
  -2   6  -4 25.6288 39.6221   9
   2  -6   5 140.133 58.5505   8
   2  -6   5 7.68926 113.919   4
   2  -6   5 107.124 67.8443   7
  -2   6  -5 162.604 105.976  12
   2  -6   5 176.366 86.6176  15
  -2   6  -5 153.002 129.150  13
  -2   6  -5 115.301 72.2386  16
   2  -6   5 10.8289 77.1090   5
  -2   6  -5 122.196 69.5018  10
  -2   6  -5 27.6362 47.4455   9
   2  -6   6 19.3589 162.685   4
  -2   6  -6 311.741 103.497  16
   2  -6   6 179.120 99.0927   7
  -2   6  -6 476.552 186.938  13
   2  -6   6 226.997 83.5048  15
  -2   6  -6 336.368 143.521  12
   2  -6   6 3.84442 102.632   5
  -2   6  -6 129.877 87.7093   9
  -2   6  -7-79.5399 44.1133  16
  -2   6  -7-1.46228 59.4528  13
  -2   6  -7 1.81678 41.9171  12
   2  -6   7-1.48270 42.6663   5
  -2  -7   3-42.6938 54.2928   7
  -2  -7   3 53.7930 60.4291   6
  -2  -7   3-45.0810 53.9208   3
  -2  -7   2-23.0952 33.6871   8
  -2  -7   2 50.2434 46.9796   7
   2   7  -2-16.4579 23.6548  12
  -2  -7   2 18.2631 27.2973   6
   2   7  -2 71.8388 68.8631  11
   2   7  -2 12.0805 41.8498  10
  -2  -7   2 89.2978 58.2117   3
  -2  -7   1 276.915 95.3129   8
  -2  -7   1 376.235 116.150   7
   2   7  -1 298.472 108.617  14
  -2  -7   1 417.002 140.478   6
   2   7  -1 352.899 118.673  11
  -2  -7   1 411.066 124.142   3
   2   7  -1 314.424 121.023  10
   2   7  -1 303.252 113.661   9
  -2  -7   0 151.636 64.7459   8
  -2  -7   0-40.4724 42.5929   7
   2   7   0-15.8351 37.2650  14
  -2  -7   0 114.700 75.3524   6
   2   7   0 77.0840 46.3713  11
  -2  -7   0-5.74789 37.5482   3
   2   7   0 36.7628 24.0036  10
   2   7   0 103.264 59.4059   9
  -2  -7  -1 92.4158 62.1182   8
  -2  -7  -1 59.2638 39.2620  16
  -2  -7  -1 71.7017 56.7005   7
   2   7   1 125.844 62.7054  14
  -2  -7  -1 255.600 106.409   6
  -2  -7  -1 176.635 86.8887   3
   2   7   1 154.400 78.7357  11
   2   7   1 159.995 95.4825  10
   2   7   1 69.2483 34.8123   9
  -2  -7  -2 57.7799 48.2854   8
   2  -7   2 102.234 57.1650   8
  -2  -7  -2-18.6805 39.0093   7
  -2  -7  -2-3.63692 30.9790  16
   2  -7   2 0.16479 73.7857   4
   2   7   2-63.4623 79.0661  14
  -2  -7  -2-163.747 100.914   6
  -2  -7  -2 21.1420 26.7906   3
  -2   7  -2 9.75683 30.4117  13
   2   7   2 12.2012 22.0365  11
   2   7   2 28.7149 39.4072  10
   2  -7   2 8.87821 66.7929   5
   2  -7   3 34.9640 117.820   4
   2  -7   3 514.393 135.796   8
  -2  -7  -3 268.230 92.2975   8
   2  -7   3 216.144 133.059   7
   2   7   3 445.579 135.014  15
   2   7   3 351.264 130.268  14
  -2  -7  -3 347.960 125.701   6
  -2   7  -3 343.657 183.968  13
  -2   7  -3 461.621 155.199  12
  -2   7  -3 389.363 144.124  10
  -2  -7  -3 101.151 53.8757  16
   2  -7   3 12.7744 149.690   5
  -2   7  -3 135.146 132.809   9
   2  -7   4 70.7947 65.8963   8
   2  -7   4-6.38485 70.0696   4
   2  -7   4-3.52082 33.6308   7
  -2   7  -4 29.3087 122.461  13
  -2   7  -4-18.0702 26.9846  12
  -2   7  -4-36.9645 20.3514  10
   2  -7   4-2.24500 62.1321   5
  -2   7  -4 8.31323 20.1251   9
   2  -7   5 225.847 89.0538   8
   2  -7   5 2.64737 111.695   4
  -2   7  -5 115.997 88.2041  13
  -2   7  -5 225.944 128.603  12
   2  -7   5 217.324 104.094   7
   2  -7   5 4.44296 147.714   5
  -2   7  -5 380.224 134.699  10
  -2   7  -5 120.474 99.9295   9
   2  -7   6 7.30165 100.198   4
   2  -7   6 13.1705 53.4048   7
  -2   7  -6 65.9036 75.7760  13
  -2   7  -6 29.9976 37.8208  12
   2  -7   6 0.18248 85.8492   5
  -2   7  -6-14.0571 28.7854   9
  -2   7  -7 27.6136 50.6304  13
  -2   7  -7 53.2688 73.3913  12
   2  -7   7-7.07712 65.4799   5
  -2  -8   3 76.7580 51.4411   7
  -2  -8   3-162.030 90.6312   6
  -2  -8   3-139.136 77.6598   3
  -2  -8   2-20.4621 32.4529   8
  -2  -8   2-45.5236 36.2633   7
  -2  -8   2-140.549 93.0274   6
   2   8  -2-22.2045 62.9144  11
  -2  -8   2-72.7624 54.1432   3
   2   8  -2-68.8028 74.4426  10
  -2  -8   1 36.5080 41.8267   8
  -2  -8   1 134.480 81.5797   7
   2   8  -1 81.6153 71.5369  14
  -2  -8   1-3.22449 22.7016   6
  -2  -8   1 84.7949 68.0223   3
   2   8  -1 71.8050 69.2323  11
   2   8  -1 54.2823 83.7278  10
   2   8  -1 79.8598 74.5467   9
  -2  -8   0 34.9441 48.8393   8
   2   8   0 122.535 81.0898  14
  -2  -8   0 42.2042 44.5304   6
  -2  -8   0-17.9844 31.8724   3
   2   8   0 109.750 74.7313  11
   2   8   0 175.886 107.192  10
  -2  -8   0 110.258 74.1501   7
   2   8   0 38.4887 33.3058   9
  -2  -8  -1-14.1318 36.0296   8
  -2  -8  -1 2.17388 40.1937   7
   2   8   1 28.7555 54.1903  14
  -2  -8  -1-139.277 79.5874   6
  -2  -8  -1-0.14827 33.6963   3
   2   8   1 73.7743 77.1269  11
   2   8   1 18.2972 32.8079  10
   2   8   1-48.1579 46.2661   9
  -2  -8  -2 34.4865 32.9573   8
   2  -8   2 23.8694 47.8031   8
   2  -8   2 5.26264 72.4716   4
   2   8   2 72.5872 78.8879  14
  -2  -8  -2 250.129 127.575   6
   2   8   2 85.4511 76.2075  11
   2   8   2-11.4407 29.4261  10
   2  -8   2 3.38603 66.7148   5
   2  -8   3 576.610 154.587   8
   2  -8   3 11.0057 203.001   4
   2   8   3 315.105 128.784  14
  -2  -8  -3 149.068 93.4900   6
   2  -8   3 259.712 130.018   7
  -2   8  -3 522.329 158.906  12
   2   8   3 122.071 67.3927  11
  -2   8  -3 907.539 238.390  10
   2  -8   3 10.0493 189.946   5
  -2   8  -3 369.441 229.391  13
   2  -8   4 48.2513 53.9990   8
   2  -8   4-9.46730 53.7053   4
   2  -8   4 44.0345 79.3773   7
  -2   8  -4 48.9387 78.7562  13
  -2   8  -4-14.6819 89.1229  12
  -2   8  -4 125.909 96.2763  10
   2  -8   4-10.3221 52.6568   5
  -2   8  -4 46.3347 36.6107   9
   2  -8   5 74.0943 56.8954   8
   2  -8   5 3.14961 94.8157   4
   2  -8   5 26.8157 65.6502   7
  -2   8  -5 0.23722 65.1765  13
  -2   8  -5-41.9322 67.9477  12
   2  -8   5-12.8182 74.6922   5
  -2   8  -5 69.8921 76.9802  10
  -2   8  -5-5.98877 52.3160   9
   2  -8   6-4.48783 64.7132   4
  -2   8  -6-254.105 138.079  13
  -2   8  -6-38.1938 78.6582  12
   2  -8   6-34.3225 41.3189   7
   2  -8   6 0.20769 77.6137   5
  -2   8  -6 34.6717 55.6303   9
  -2   8  -7 113.799 101.189  13
  -2   8  -7 203.755 161.760  12
   2  -8   7 2.94897 146.623   5
  -2  -9   3-50.5967 64.9277   7
  -2  -9   3 119.609 85.8307   6
  -2  -9   3-84.3376 62.3072   3
  -2  -9   2 318.983 122.102   8
  -2  -9   2 243.669 119.805   7
  -2  -9   2 228.799 123.623   6
  -2  -9   2 296.485 118.606   3
   2   9  -2 423.056 163.702  11
   2   9  -2 322.529 156.089  10
   2   9  -2 377.490 152.038   9
  -2  -9   1 34.2581 45.0904   8
  -2  -9   1 169.047 88.5124   7
   2   9  -1 162.154 93.0613  14
  -2  -9   1 115.932 84.9697   6
  -2  -9   1 32.4990 51.3884   3
   2   9  -1 232.699 122.589  11
   2   9  -1 37.1840 79.8412  10
   2   9  -1-14.6604 42.8065   9
  -2  -9   0 42.3757 42.8688   8
  -2  -9   0 43.5641 61.7210   7
   2   9   0-14.5604 49.4943  14
  -2  -9   0-22.1212 47.5467   3
   2   9   0 43.5260 86.3849  11
  -2  -9   0 27.1926 57.9334   6
   2   9   0-73.8505 88.5395  10
   2   9   0 52.2841 50.1718   9
  -2  -9  -1-2.80502 29.6376   8
  -2  -9  -1 19.8755 58.1383   7
   2   9   1 93.6779 73.5444  14
  -2  -9  -1-14.8017 53.4420   6
   2   9   1-64.9741 101.895  11
   2   9   1-66.4367 65.8418  10
  -2  -9  -1-6.49894 41.2303   3
   2   9   1 77.0421 74.3023   9
  -2  -9  -2-2.53831 34.4483   8
   2  -9   2 7.66856 21.0871   8
   2   9   2 107.314 86.2329  14
  -2  -9  -2-57.8982 75.0783   6
   2   9   2 202.828 128.578  11
   2   9   2-5.70249 58.6512  10
   2  -9   2 4.27092 73.9298   5
   2  -9   3-38.6309 54.9782   8
   2  -9   3-2.48289 64.1255   4
  -2   9  -3 64.3119 107.941  10
   2  -9   3 5.94987 83.7173   5
   2  -9   4-76.4876 63.1447   8
   2  -9   4-39.2939 41.1222   4
  -2   9  -4 18.8798 49.5177  13
   2  -9   4-2.14167 37.1178   7
  -2   9  -4 86.7383 78.6123  12
  -2   9  -4-101.846 99.4070  10
   2  -9   4 5.43697 107.045   5
  -2   9  -4 27.7287 60.1062   9
   2  -9   5 96.9225 88.5153   8
   2  -9   5-1.16737 115.192   4
   2  -9   5-32.2267 105.133   7
  -2   9  -5 46.0837 125.780  13
  -2   9  -5-133.267 116.413  12
   2  -9   5-4.17095 91.7379   5
  -2   9  -5-48.2548 76.1895  10
  -2   9  -5-37.3021 72.7976   9
   2  -9   6-48.7545 61.3099   8
   2  -9   6 6.48187 108.271   4
   2  -9   6 53.4646 42.9888   7
  -2   9  -6-55.9702 81.5592  13
  -2   9  -6 11.7211 69.3794  12
   2  -9   6 14.6066 51.3865   5
  -2   9  -6-84.8397 67.2953  10
  -2   9  -6 53.7644 93.5186   9
  -2   9  -7 29.9152 44.7722  12
   2  -9   7-1.90233 92.7551   5
  -2 -10   3-96.8715 75.9571   6
   2  10  -3 2.50660 33.3943   9
  -2 -10   2 113.579 85.5375   8
  -2 -10   2 111.927 75.4844   7
   2  10  -2 145.443 117.994  10
   2  10  -2 250.737 145.778   9
  -2 -10   1-102.727 73.7700   8
  -2 -10   1-64.8968 82.6776   7
  -2 -10   1 102.732 108.541   6
  -2 -10   1-168.916 90.8387   3
   2  10  -1-40.3116 75.4091  11
   2  10  -1-100.735 84.3819  10
   2  10  -1-145.017 104.811   9
  -2 -10   0 0.49270 39.0844   8
  -2 -10   0 35.6849 54.5014   6
  -2 -10   0-131.580 111.210   7
   2  10   0-85.0652 84.7840  14
   2  10   0-160.897 100.266  11
   2  10   0 56.7140 49.6298  10
   2  10   0 169.533 100.902   9
  -2 -10  -1 304.943 118.281   8
   2  10   1-38.7567 60.6122  14
  -2 -10  -1 153.631 103.178   6
   2  10   1 113.298 109.684  11
   2  10   1 159.140 88.3738  10
  -2 -10  -2 126.711 127.100   6
   2  10   2 0.21353 92.6593  11
   2 -10   3-49.2362 56.6424   8
  -2  10  -3 155.070 129.762  10
   2 -10   3-3.49065 89.7336   5
   2 -10   4 58.8120 51.9029   8
   2 -10   4-0.24467 62.4424   4
  -2  10  -4-99.9229 84.1245  10
   2 -10   4-6.41400 80.9290   5
   2 -10   5 172.445 91.9692   8
   2 -10   5-4.16770 69.7276   4
  -2  10  -5 162.446 185.379  13
   2 -10   5-19.3390 63.3560   7
   2 -10   5-4.19485 107.004   5
  -2  10  -5-151.306 136.241  10
  -2  10  -5-29.0881 44.1451   9
   2 -10   6-153.301 88.4140   8
   2 -10   6-8.67284 40.5865   7
  -2  10  -6-28.3625 61.6209  13
  -2  10  -6-83.2801 97.7350  12
   2 -10   6-3.98634 99.1235   5
  -2  10  -6 133.640 116.129  10
  -2  10  -6 9.44388 76.0103   9
  -2 -11   3 163.823 118.643   6
  -2 -11   3 146.943 122.533   7
   2  11  -3 112.162 102.314   9
  -2 -11   2 103.303 67.0211   8
  -2 -11   2 140.720 102.951   7
  -2 -11   2-101.735 85.1077   6
   2  11  -2 165.000 104.359  10
   2  11  -2-109.696 75.7999   9
  -2 -11   1-43.3205 40.7287   8
  -2 -11   1 67.8204 124.128   7
  -2 -11   1 399.246 217.601   6
   2  11  -1 199.953 159.804  11
   2  11  -1 131.103 189.581  10
   2  11  -1 101.988 110.796   9
  -2 -11   0 0.19312 42.8366   8
  -2 -11   0-107.999 84.5936   7
  -2 -11   0 85.1884 108.949   6
   2  11   0 20.7482 62.3625  11
   2  11   0 8.98154 59.5045  10
   2  11   0 58.7649 78.5112   9
  -2 -11  -1-42.7434 45.3686   6
   2  11   1-64.7646 92.2472  11
   3   0   1 4.35550 29.1108   1
   3   0   1 7.76378 9.07620   5
  -3   0  -1 5.45379 22.5562  16
   3   0   1 36.5942 29.1630  15
   3   0   1-37.9624 57.4965   4
   3   0   1-5.09335 19.6186  14
  -3   0  -1-12.7003 23.4467  13
  -3   0  -1-103.563 35.7594   6
  -3   0  -1 15.9575 17.4389   2
  -3   0  -1-55.2614 59.5923   3
  -3   0  -2 217.458 102.469  16
   3   0   2 276.870 127.495  15
   3   0   2 329.809 109.340  14
  -3   0  -2 314.629 138.677  13
   3   0   2 375.296 132.034   4
  -3   0  -2 394.185 75.8462   6
   3   0   2 306.923 106.577   1
  -3   0  -2 316.555 120.803   2
  -3   0  -2 217.823 92.6189   3
   3   0   2 167.906 55.6412   5
  -3   0  -3-11.7674 29.0667  16
   3   0   3 35.5118 38.5091   4
   3   0   3 54.0031 53.4358  15
   3   0   3 29.2299 53.6947  14
  -3   0  -3-26.6354 11.1978   6
  -3   0  -3-34.3652 40.0980  13
  -3   0  -3 31.3948 59.3738   2
  -3   0  -3-91.4184 55.8973   3
   3   0   3 4.25581 13.6012   5
   3   0   3 100.245 77.1394   1
  -3   0  -4-17.3509 37.9637  16
   3   0   4-39.3357 40.0659   1
   3   0   4-76.2925 66.1888  15
   3   0   4-41.2092 50.8733  14
  -3   0  -4 9.64552 28.2261   2
  -3   0  -4-14.3527 35.1305  13
   3   0   4 15.8518 54.5066   4
  -3   0  -4-55.8454 67.1172   3
  -3   0  -4-21.2487 26.1818  12
   3   0   4 85.6549 42.3107   5
   3   0   5 22.9072 33.6475   4
  -3   0  -5-48.9216 75.6889  16
   3   0   5-56.0769 76.3812  15
  -3   0  -5-42.0288 71.5594  13
  -3   0  -5 54.6122 36.2494   2
   3   0   5-41.1354 41.0899  14
  -3   0  -5 8.68843 20.9366   3
  -3   0  -5 42.4188 43.6439  12
   3   0   5 9.20412 21.4594   1
  -3   0  -6 344.243 190.179   2
  -3   0  -6 242.197 122.709  16
   3   0   6 261.751 155.524  15
   3   0   6 283.440 112.134  14
  -3   0  -6 421.782 183.201  13
  -3   0  -6 425.642 102.448  12
   3   0   6 399.993 142.813   1
  -3  -1   0 411.172 120.880   3
  -3  -1   0 328.439 133.852   2
   3   1   0 68.2069 56.7902   4
   3  -1   1 43.3853 35.9591   5
  -3  -1  -1 22.9307 37.5323  16
  -3   1  -1 9.39837 39.6230  16
   3   1   1 7.77079 16.9596  15
   3   1   1 0.47775 24.9398   4
  -3  -1  -1 30.4346 13.5582   7
   3  -1   1 57.3302 50.8462   4
   3   1   1 3.94857 29.8607  14
  -3   1  -1-29.8275 58.0650  13
  -3  -1  -1 0.13184 36.6880  13
  -3  -1  -1-27.4436 32.1203   6
  -3   1  -1 3.01962 16.5004   6
   3   1   1 18.2506 28.9364   1
   3  -1   1-13.7039 22.6820   1
  -3  -1  -1 5.81317 47.3040   2
   3  -1   1-56.2361 56.2919  15
  -3   1  -1 36.4686 32.7592   2
  -3  -1  -1 41.7317 51.9808   3
  -3   1  -1 35.8563 24.1097   3
   3   1   1 7.57480 14.2629   5
  -3   1  -2 85.0834 55.2503  16
   3  -1   2 134.632 80.1223   1
   3   1   2 155.492 79.2099   4
   3   1   2 28.8601 21.6132  15
   3  -1   2 78.2993 74.4477  15
   3  -1   2 158.729 85.0894   4
   3   1   2 65.8273 45.2794  14
   3  -1   2 69.8812 51.9951  14
   3   1   2 103.876 51.1725   1
  -3  -1  -2 68.0749 79.4417  13
  -3   1  -2 204.684 120.410  13
  -3  -1  -2 95.2827 71.7610  16
  -3  -1  -2 195.846 64.2957   6
  -3   1  -2 135.401 39.3945   6
  -3  -1  -2 121.076 79.9847   2
  -3   1  -2 86.1980 69.2941   2
   3   1   2 111.648 36.5575   5
  -3  -1  -2 181.627 79.5947   3
  -3   1  -2 94.3061 74.5576   3
   3  -1   2 47.2364 44.0918   5
   3  -1   3 1032.27 218.842   4
  -3  -1  -3 1198.72 224.051   2
  -3   1  -3 984.056 221.923   2
   3   1   3 1077.34 186.957   1
   3  -1   3 846.720 177.880   1
  -3  -1  -3 866.456 194.325  16
  -3   1  -3 940.295 195.284  16
   3   1   3 1023.12 224.045  15
   3  -1   3 866.937 223.043  15
   3   1   3 663.218 162.395  14
  -3  -1  -3 1155.98 157.081   6
  -3  -1  -3 976.853 189.745   3
  -3   1  -3 899.537 166.729   3
  -3  -1  -3 966.632 220.733  13
   3   1   4 54.6529 46.8695   1
   3   1   4 57.2501 35.8710   4
  -3  -1  -4 49.6339 59.2120  16
  -3   1  -4 39.3788 58.7703  16
   3  -1   4 138.153 99.6065   4
   3   1   4 96.6524 78.7051  15
   3  -1   4 54.3964 63.4869   1
   3   1   4 9.77525 22.9448  14
  -3  -1  -4 24.7436 36.3916   2
  -3  -1  -4-0.65824 23.4804  13
  -3   1  -4-3.38753 81.8222  13
  -3   1  -4 186.293 144.184   2
  -3  -1  -4 84.4885 58.9302   3
  -3   1  -4 34.0486 71.8254  12
   3   1   4 39.8354 23.4924  11
   3  -1   4 108.863 59.8047   5
   3  -1   5 131.415 100.790   4
  -3  -1  -5-36.2388 33.1275  16
  -3   1  -5-90.2770 90.4572  16
  -3  -1  -5 40.5532 72.8002   2
   3  -1   5 80.4872 93.3881  15
  -3   1  -5 56.7802 67.9841   2
   3   1   5 13.4920 26.6383  14
   3  -1   5 93.5632 70.4650  14
  -3  -1  -5-104.281 69.4132  13
  -3   1  -5 47.8115 49.3440   3
  -3   1  -5 53.0273 58.6791  13
  -3  -1  -5 27.3002 30.8854   3
   3   1   5-26.4351 24.4451  15
   3   1   5-11.3317 35.1792   1
  -3   1  -5 72.6852 52.1178  12
   3   1   5 55.2389 33.4811  11
   3  -1   5 4.01789 28.4789   1
   3  -1   6 257.209 129.816   4
  -3  -1  -6 24.5350 60.9838  16
   3   1   6 3.02091 59.5657  15
   3  -1   6-12.2383 40.2397  15
   3   1   6 297.724 115.435   1
   3   1   6 494.514 194.640  14
   3  -1   6 84.2720 54.8117  14
   3  -1   6 118.839 80.3096   1
  -3   1  -6 176.828 114.047  13
  -3   1  -6 44.5710 75.2901   2
  -3  -1  -6 102.287 76.8238  13
  -3   1  -6 148.563 57.7823  12
  -3   1  -6 86.2739 85.4342  16
  -3   1  -7-28.1792 65.6084  16
   3  -1   7-12.2403 26.2292  15
   3  -1   7-64.3622 63.8072  14
  -3   1  -7-60.3237 106.526  13
   3   2   0 109.480 74.8899  15
   3   2   0 101.642 51.6080   4
  -3  -2   0 68.3779 31.0768   7
   3   2   0 86.4161 58.4706  14
  -3  -2   0 94.5777 45.2577   6
  -3  -2   0 50.2891 40.4644   2
  -3  -2   0 182.128 84.0887   3
   3   2   0 127.059 61.3275   1
   3  -2   1-1.14319 47.6380   5
   3  -2   1-41.7858 53.7493   1
   3   2   1 51.7614 31.0703   4
   3   2   1 66.8000 36.7051   1
   3   2   1-24.3623 19.8982  15
  -3  -2  -1 41.2429 16.1833   7
  -3  -2  -1 42.3555 54.9899  16
   3  -2   1 35.3103 19.6047   4
   3   2   1 103.874 63.5932  14
  -3   2  -1 52.0368 73.3536  13
  -3  -2  -1 77.5589 44.6858   6
  -3  -2  -1 11.9317 40.5452   2
   3   2   1-9.04719 7.95358   5
  -3  -2  -1 72.3645 50.5050   3
  -3   2  -1 25.5891 38.4747   2
  -3   2  -1-3.21199 13.8649   3
   3  -2   2-21.6252 13.4410   8
   3   2   2-33.5306 25.2959   1
  -3  -2  -2 21.9276 25.5577  16
  -3   2  -2-3.20163 28.2501  16
   3   2   2 24.6783 25.3703   4
   3  -2   2-46.6789 60.1319  15
   3  -2   2 44.2527 48.9332   1
   3  -2   2 8.86714 29.6335   4
   3   2   2 4.43142 37.8820  14
  -3   2  -2 3.45162 38.3869  13
  -3  -2  -2-49.7025 38.8345  13
  -3  -2  -2 39.5748 35.7997   6
  -3  -2  -2 34.8414 79.7823   2
  -3  -2  -2-57.8761 46.6264   3
  -3   2  -2-22.9958 59.2693   2
  -3   2  -2-57.6249 34.2433   3
   3   2   2-50.8929 62.2484  15
   3  -2   2-1.35635 19.2816   5
   3   2   3 650.910 164.043   4
   3  -2   3 591.564 147.012   1
   3   2   3 657.070 179.414  15
  -3  -2  -3 309.488 101.321  16
   3  -2   3 625.407 188.145   4
   3  -2   3 596.033 175.752  15
  -3   2  -3 493.952 150.938  16
   3   2   3 485.187 131.134  14
   3   2   3 578.095 133.233   1
   3  -2   3 225.441 89.3136  14
  -3  -2  -3 430.398 141.846  13
  -3  -2  -3 603.114 124.232   6
  -3   2  -3 555.650 193.497  13
  -3  -2  -3 626.136 166.520   2
  -3   2  -3 608.892 184.201   2
   3   2   3 461.700 98.5358  11
  -3  -2  -3 756.094 165.186   3
  -3   2  -3 466.994 114.321   3
   3  -2   3 36.3812 120.492   5
   3   2   4 501.198 140.316   4
  -3  -2  -4 191.625 85.6109  16
  -3   2  -4 219.456 99.9360  16
   3  -2   4 463.915 167.902   4
   3   2   4 270.258 120.561  15
   3  -2   4 396.120 147.961  15
  -3  -2  -4 407.752 148.423   2
   3  -2   4 370.484 109.978   1
   3   2   4 282.703 93.4528  14
   3  -2   4 243.677 89.0757  14
  -3  -2  -4 267.602 90.7644   6
  -3  -2  -4 351.816 129.497  13
  -3   2  -4 400.538 163.827  13
  -3   2  -4 406.296 155.173   2
  -3   2  -4 359.673 103.760   3
  -3  -2  -4 351.899 124.441   3
  -3   2  -4 387.746 86.7429  12
   3   2   4 337.020 99.0621  11
   3  -2   4 18.7493 113.877   5
   3   2   4 397.355 117.848   1
   3  -2   5 4.28640 73.4255   4
  -3   2  -5 77.9589 53.7757  16
  -3  -2  -5-2.39193 73.0459   2
   3   2   5 3.95640 29.2342  15
   3  -2   5-54.4143 67.7926  15
   3   2   5-19.3651 27.4017  14
  -3   2  -5-53.4599 63.0228   2
   3  -2   5-30.7194 37.4112  14
   3   2   5 30.2081 45.3424   1
  -3  -2  -5 98.4732 91.1962  13
  -3   2  -5-5.56542 58.7690  13
  -3  -2  -5-68.6365 62.7050   3
  -3  -2  -5 9.03549 32.0614  16
  -3   2  -5 13.7423 42.8580  12
   3   2   5-14.9819 27.6795  11
   3  -2   5 9.06417 29.7399   5
   3  -2   5-49.1352 30.7041   1
  -3  -2  -6-5.18800 45.7282   2
   3  -2   6-8.48354 42.2340   4
  -3  -2  -6-20.7341 56.4839  16
  -3   2  -6-85.0143 67.7525  16
  -3   2  -6 17.2980 37.3508   2
   3   2   6 19.1983 59.4348  15
   3  -2   6 22.4927 50.3433  15
   3   2   6-110.103 58.6621  14
   3  -2   6 57.1426 44.3943  14
   3  -2   6-3.06509 42.3128   1
  -3  -2  -6-5.04891 25.4603  13
  -3   2  -6 11.3378 65.8062  13
  -3   2  -6-27.9700 36.2285  12
  -3   2  -7 31.2094 33.6004  16
   3  -2   7-30.1976 71.1130  15
   3  -2   7-31.1541 28.0340  14
  -3   2  -7 9.66685 49.7798  13
  -3   2  -7-26.8884 53.4231  12
   3   3   0 168.098 93.4645  15
   3   3   0 216.994 73.0718   4
  -3  -3   0 257.837 61.4325   7
   3   3   0 139.834 83.9849  14
  -3  -3   0 226.224 81.1273   6
   3   3   0 253.787 86.4806   1
  -3  -3   0 252.782 96.6736   2
  -3  -3   0 262.206 101.979   3
  -3  -3  -1 80.0693 64.7000  16
   3   3   1 3.54506 20.8291   4
   3   3   1-6.58798 21.5829  15
  -3  -3  -1 33.4549 21.1292   7
   3   3   1 97.5588 73.3370  14
   3   3   1 86.4084 48.1233   1
  -3  -3  -1 30.3331 33.9402   6
  -3  -3  -1-25.4649 55.1571   2
  -3  -3  -1 120.007 69.6764   3
   3  -3   2 85.0849 38.9752   8
   3   3   2 132.700 52.3150   4
  -3  -3  -2 110.691 72.0937  16
  -3   3  -2 75.7223 57.5717  16
   3  -3   2 176.459 80.6090   1
   3   3   2 145.467 86.0062  15
   3  -3   2 0.29952 28.9455  15
   3  -3   2 11.1979 105.063   4
   3   3   2 95.1890 67.3496  14
  -3   3  -2 77.9117 76.5275  13
  -3  -3  -2 142.334 70.0749  13
  -3  -3  -2 159.490 65.5215   6
  -3  -3  -2 77.3962 64.4183   2
   3   3   2 121.554 57.8170   1
   3   3   2 85.9101 61.7727  11
  -3  -3  -2 202.896 91.4687   3
  -3   3  -2 154.561 92.1106   2
  -3   3  -2 159.810 57.2289   3
   3  -3   2 10.2251 74.0213   5
   3  -3   3 261.819 103.365   1
   3   3   3 368.979 115.021   1
  -3   3  -3 260.675 116.461  16
   3   3   3 334.435 120.902  15
   3  -3   3 325.399 129.543  15
   3   3   3 276.664 97.7552  14
  -3  -3  -3 223.430 110.391   2
  -3  -3  -3 290.748 96.2947   6
  -3  -3  -3 319.680 120.663  13
  -3  -3  -3 244.899 99.8848  16
  -3   3  -3 266.280 161.935  13
  -3   3  -3 234.469 77.4397   3
  -3  -3  -3 200.117 93.9564   3
   3   3   3 328.265 94.4907  11
  -3   3  -3 162.030 103.501   2
   3  -3   3 26.6617 113.315   4
   3  -3   3 19.0489 90.6475   5
  -3  -3  -4 41.3796 38.8559  16
  -3   3  -4 41.8476 31.4829  16
   3  -3   4 15.6992 99.9460   4
  -3  -3  -4 147.576 98.6742   2
   3   3   4 155.713 91.0554  15
   3  -3   4 321.306 137.081  15
   3  -3   4 98.5892 54.2426   1
   3   3   4 166.690 79.6177  14
   3  -3   4 32.2912 37.3304  14
  -3  -3  -4 238.240 95.1934   6
  -3  -3  -4 114.293 77.9727  13
  -3   3  -4 186.759 75.6916   3
  -3   3  -4 108.465 113.102  13
  -3   3  -4 42.9887 42.3655   2
  -3  -3  -4 252.673 107.242   3
  -3   3  -4 108.483 80.4203  12
   3   3   4 227.493 99.8874   1
   3   3   4 76.1874 55.4990  11
   3  -3   4 10.9778 80.2173   5
  -3  -3  -5 478.267 160.325   2
  -3  -3  -5 228.346 92.0590  16
   3  -3   5 36.7965 175.024   4
  -3   3  -5 247.678 110.544  16
   3   3   5 452.583 149.215  15
   3  -3   5 273.610 132.145  15
   3   3   5 498.905 136.013   1
  -3  -3  -5 531.328 162.087   3
   3   3   5 176.230 85.6366  14
  -3   3  -5 534.395 189.120   2
   3  -3   5 232.092 87.5380  14
  -3  -3  -5 345.578 131.926  13
  -3   3  -5 274.050 158.513  13
  -3   3  -5 467.363 122.450  12
   3   3   5 338.627 98.3180  11
   3  -3   5 17.3520 140.085   5
   3  -3   5 572.054 156.144   1
   3  -3   6 0.73350 67.4656   4
  -3   3  -6-63.3056 69.7720  16
  -3   3  -6 47.7097 58.7110   2
   3  -3   6 62.2758 28.1147  15
   3  -3   6 45.1336 25.3198   1
  -3   3  -6 136.866 95.2568  13
  -3   3  -6 73.1845 77.9294  12
   3  -3   6 4.11656 23.9071   5
   3  -3   7 20.7153 217.414   4
  -3   3  -7 412.093 154.754  16
   3  -3   7 399.232 166.602  15
  -3   3  -7 407.844 224.465  13
  -3   3  -7 435.617 140.540  12
   3   4  -1 21.6389 31.7740   1
   3   4  -1 4.53793 21.8992   4
  -3  -4   1 88.2221 43.5003   7
   3   4  -1 5.16275 24.0607  14
  -3  -4   1 11.9612 31.0435   6
  -3  -4   1-92.9857 66.6174   2
  -3  -4   1-40.4770 42.2574   3
   3   4   0 356.311 88.5173   4
  -3  -4   0 290.382 76.2633   7
   3   4   0 374.342 126.525  14
  -3  -4   0 441.346 122.351   6
  -3  -4   0 351.798 124.162   2
   3   4   0 290.226 91.3363   1
  -3  -4   0 377.094 132.960   3
  -3  -4  -1 56.2964 48.6178  16
  -3  -4  -1-37.0352 25.2030   7
   3   4   1 51.9847 32.7403  15
   3   4   1 38.6835 38.2896  14
  -3  -4  -1 64.8059 44.6270   6
  -3  -4  -1 17.0178 25.5988   2
   3   4   1 78.5640 63.9477  11
  -3  -4  -1 30.6855 51.4644   3
   3   4   1-13.4345 23.1166   9
   3   4   1 42.5605 51.0199   1
   3   4   2 22.3781 31.4577   1
   3  -4   2 149.057 87.0153   1
   3  -4   2-15.2275 24.7927   8
  -3  -4  -2-66.5975 45.0237  16
  -3  -4  -2 51.3337 40.8151   7
   3   4   2-130.810 96.5882  15
   3  -4   2 2.25601 74.7273   4
   3   4   2 74.5080 62.3187  14
  -3  -4  -2 36.6353 56.7535   2
  -3  -4  -2-11.2144 36.3227   6
  -3   4  -2-23.9041 54.3254  13
   3   4   2 15.9446 33.4750  11
  -3  -4  -2-1.19775 31.8018   3
  -3   4  -2-63.6964 70.6633   2
   3  -4   2 5.97086 63.2834   5
   3  -4   3 79.7165 44.8109   8
   3   4   3 158.485 110.717  15
  -3   4  -3-9.37703 31.6108  16
   3  -4   3 0.69543 103.207   4
  -3  -4  -3 39.3848 52.8040   2
   3  -4   3 49.1998 58.6299  15
   3   4   3-1.78815 36.0076  14
  -3  -4  -3 80.0728 60.8942   6
  -3  -4  -3-20.0650 61.4200  13
  -3   4  -3 97.4435 99.9955  13
  -3  -4  -3 0.14376 61.2969  16
  -3  -4  -3 52.5210 51.1798   3
   3   4   3 26.4657 23.1181  11
  -3   4  -3 6.31348 33.1299   2
   3   4   3 31.9595 24.8665   1
   3  -4   3 2.92335 42.5044   5
   3  -4   3-38.4445 47.3264   1
  -3  -4  -4 79.2987 70.4270  16
  -3  -4  -4 38.9582 51.1208   2
  -3   4  -4 103.881 74.1959  16
   3  -4   4 6.32942 95.8381   4
   3  -4   4 176.354 81.8317   1
   3   4   4 115.388 86.6951  15
   3  -4   4 3.89927 27.0944  15
   3   4   4 70.1222 60.3485  14
   3   4   4 124.452 67.4845   1
  -3  -4  -4 325.833 119.005   6
  -3  -4  -4-43.6106 40.9296  13
  -3   4  -4 113.647 89.9573   2
  -3   4  -4 99.2730 98.9805  13
  -3  -4  -4 112.864 76.2299   3
  -3   4  -4 102.930 52.5394  12
   3   4   4 51.6115 36.3053  11
   3  -4   4 11.2522 50.1107   5
  -3  -4  -5 6.41825 51.0012  16
   3  -4   5 1.29434 126.617   4
   3   4   5-15.8987 70.3050  15
   3  -4   5 61.7922 31.2585  15
  -3   4  -5 160.052 110.795   2
   3   4   5-9.69970 39.5691  14
  -3  -4  -5-37.5641 49.2674  13
  -3  -4  -5-56.2536 67.7800   3
  -3   4  -5 168.707 141.276  13
  -3   4  -5 0.15188 20.1840  16
  -3   4  -5 150.471 57.2321  12
   3   4   5-20.4212 35.9564  11
   3  -4   5 34.9455 59.7315   1
   3  -4   5 11.3937 72.5525   5
   3  -4   6 5.51936 79.0544   4
  -3   4  -6-10.9771 30.6484  16
  -3   4  -6 63.1633 66.3666   2
   3  -4   6 0.88831 50.6479  15
   3  -4   6 76.8828 60.9669   1
  -3   4  -6 61.6282 104.252  13
  -3   4  -6 184.013 108.527  12
   3  -4   6-3.51043 66.4397   5
   3  -4   7 2.32942 126.766   4
  -3   4  -7 8.96617 51.4922  16
   3  -4   7 42.6045 41.6907  15
  -3   4  -7 94.4225 128.871  13
  -3   4  -7-6.51622 35.8732  12
   3   5  -1 162.055 73.6360   1
  -3  -5   1 270.168 84.2066   7
   3   5  -1 76.1014 68.7906  14
  -3  -5   1 237.139 96.2906   6
  -3  -5   1 265.634 113.396   2
  -3  -5   1 159.399 87.8183   3
  -3  -5   0 179.270 67.9732   7
   3   5   0 97.7160 53.3068  14
   3   5   0 150.091 70.6811   1
  -3  -5   0 190.087 80.0396   6
  -3  -5   0 245.195 109.970   2
  -3  -5   0 110.640 86.4442   3
  -3  -5  -1 45.3839 44.0236  16
  -3  -5  -1-15.3752 18.0447   7
   3   5   1-41.2170 71.6205  15
   3   5   1 97.4636 64.9923   1
   3   5   1-5.78474 41.7504  14
  -3  -5  -1-58.0338 61.3565   2
  -3  -5  -1 117.227 70.1217   6
   3   5   1 12.6982 31.0617  11
  -3  -5  -1 22.4368 23.7384   3
   3   5   1-12.1802 38.1007   9
  -3  -5  -2 1057.61 223.498   2
  -3   5  -2 900.867 225.393   2
   3   5   2 1461.36 218.065   1
   3  -5   2 456.583 109.408   8
  -3  -5  -2 1211.36 183.643   7
  -3  -5  -2 915.406 191.545  16
   3   5   2 1301.12 251.201  15
   3  -5   2 102.919 242.648   4
   3   5   2 1144.06 220.329  14
  -3  -5  -2 1343.76 226.956   6
  -3  -5  -2 1168.91 231.836   3
  -3   5  -2 1113.95 303.556  13
   3   5   2 1098.52 201.717  11
   3  -5   2 594.639 158.041   1
   3  -5   2 9.98015 190.528   5
   3  -5   3 83.9316 48.0577   8
  -3  -5  -3 77.4333 63.3688  16
  -3  -5  -3 196.916 116.292   2
   3   5   3 197.733 109.348  15
   3  -5   3 6.72357 100.801   4
   3   5   3 96.4371 81.7164  14
  -3  -5  -3 214.187 94.2954   6
   3   5   3 188.114 82.2860   1
  -3   5  -3 29.6975 31.7146  13
  -3  -5  -3 71.1452 78.1193   3
  -3   5  -3 133.932 72.3740   2
   3   5   3 70.8294 60.2480  11
  -3   5  -3 76.0179 49.9177  10
   3  -5   3 112.988 62.8729   1
   3  -5   3-3.44040 47.1738   5
  -3  -5  -4-61.6405 36.3103   2
   3  -5   4-9.93770 50.8044   1
  -3  -5  -4-26.0670 56.5922  16
  -3   5  -4-44.2892 57.5201  16
   3  -5   4-8.51073 72.3772   4
   3   5   4 13.9641 23.0457  15
   3  -5   4-88.7648 72.4240  15
   3   5   4 62.9380 74.4401  14
  -3  -5  -4-44.2630 50.5775   6
  -3   5  -4-61.4582 70.9381   2
  -3   5  -4-85.7201 115.061  13
  -3  -5  -4-34.5338 46.1698   3
  -3   5  -4 70.9637 84.2727  12
   3   5   4-12.5391 22.7572  11
   3  -5   4 5.54739 66.3112   5
  -3  -5  -5-145.706 83.5591  16
   3  -5   5 48.2858 212.699   4
   3   5   5 221.942 120.627  15
  -3   5  -5 160.614 104.538   2
   3  -5   5 213.507 151.677  15
   3   5   5 44.7913 48.4012  14
  -3   5  -5 222.847 186.896  13
  -3   5  -5 353.737 177.145  12
   3  -5   5 352.457 155.075   1
   3   5   5 40.5600 38.6365  11
  -3   5  -5 329.363 122.187  16
   3  -5   5 0.32494 114.753   5
   3  -5   6 156.423 268.595   4
  -3   5  -6 556.556 191.806   2
  -3   5  -6 540.418 164.986  16
   3  -5   6 405.323 134.944   1
   3  -5   6 676.637 208.617  15
  -3   5  -6 487.976 234.361  13
  -3   5  -6 853.917 221.030  12
   3  -5   6 53.2678 207.435   5
   3  -5   7-0.91101 83.7618   4
  -3   5  -7-10.5493 55.8477  16
   3  -5   7-89.2830 54.0129  15
  -3   5  -7 14.0227 104.637  13
  -3   5  -7-0.32270 52.6091  12
   3  -5   7 5.12178 101.583   5
   3   6  -1 17.7052 25.3595   1
  -3  -6   1 67.1324 54.7807   7
   3   6  -1 8.46455 38.4146  14
  -3  -6   1 132.505 70.6000   2
  -3  -6   1 13.6674 22.6633   3
  -3  -6   0 300.085 97.5141   7
   3   6   0 182.790 90.6485  14
   3   6   0 136.873 58.4855   1
  -3  -6   0 198.753 101.823   2
  -3  -6   0 245.513 106.590   6
   3   6   0 210.534 88.3650  11
  -3  -6   0 102.769 68.1447   3
   3   6   0 261.034 95.0042   9
  -3  -6  -1 209.456 92.0176  16
  -3  -6  -1 294.030 92.5805   7
   3   6   1 153.305 56.0882  15
  -3  -6  -1 150.320 101.223   2
   3   6   1 187.480 94.5214  14
  -3  -6  -1 305.094 113.521   6
   3   6   1 343.766 120.705  11
  -3  -6  -1 178.068 96.7977   3
   3   6   1 320.940 105.732   1
   3   6   1 289.722 86.8524   9
  -3  -6  -2 344.127 86.9082   8
  -3  -6  -2 298.752 122.720   2
  -3  -6  -2 320.156 109.605  16
   3   6   2 559.729 173.308  15
   3   6   2 445.430 145.176  14
   3   6   2 450.070 120.886   1
  -3  -6  -2 394.591 140.062   6
  -3  -6  -2 457.859 154.690   3
   3   6   2 428.790 145.276  11
  -3   6  -2 99.4495 86.4371   2
   3   6   2 234.197 94.6364  10
   3  -6   2 0.19114 82.6954   5
  -3  -6  -3-35.6279 59.4357   2
   3  -6   3 15.2628 41.5017   8
  -3  -6  -3 67.5230 70.9401  16
   3   6   3 37.0743 31.0167  15
   3  -6   3-6.74764 94.5713   4
   3   6   3 37.2192 43.5588  14
  -3  -6  -3-32.5046 53.1355   6
  -3   6  -3 0.24224 71.3228  13
  -3  -6  -3-66.9096 57.6299   3
  -3   6  -3-218.308 108.956   2
   3  -6   3-63.9775 64.6453   1
   3   6   3 2.03126 66.0761  11
  -3   6  -3 65.1784 64.6978  10
   3  -6   3 1.08901 24.8591   5
  -3  -6  -4 38.2085 45.0265  16
   3  -6   4 3.61161 119.625   4
   3   6   4 80.6500 58.7690  15
   3   6   4 67.0409 69.6200  14
  -3  -6  -4 5.75481 45.7815   6
  -3   6  -4 100.982 88.2922   2
  -3  -6  -4 146.678 88.9900   3
  -3   6  -4 65.0854 91.7482  13
  -3   6  -4 96.5417 72.7770  12
   3   6   4 58.5593 51.5964  11
   3  -6   4 1.28787 112.244   5
   3  -6   4 81.7931 56.3802   1
   3  -6   5-3.54055 128.672   4
  -3   6  -5 21.0912 43.5053  16
  -3   6  -5-20.3828 82.0868   2
   3  -6   5-28.5628 61.2720  15
   3  -6   5 31.9989 45.8531   1
  -3   6  -5 103.212 85.7192  13
  -3   6  -5 35.7412 90.4829  12
   3  -6   5 16.4966 29.8062   5
  -3   6  -6 26.1064 54.0833   2
   3  -6   6 7.68771 54.2926   4
  -3   6  -6 0.65290 30.3724  16
   3  -6   6-12.8636 49.7403  15
  -3   6  -6-0.25971 61.4071  13
  -3   6  -6 87.6640 88.1792  12
   3  -6   6 3.24865 58.6891   5
   3  -6   7 7.65392 106.435   4
   3  -6   7-67.3106 34.2094  15
  -3   6  -7 8.92483 24.7994  16
  -3   6  -7 98.0511 108.441  13
  -3   6  -7-10.7722 35.6839  12
   3  -6   7-6.39888 48.9261   5
  -3  -7   1 87.6224 62.5193   7
   3   7  -1 91.9500 80.2576  14
  -3  -7   1 72.1145 59.9755   6
  -3  -7   1 97.7239 89.0621   3
  -3  -7   0 171.883 81.5780   7
   3   7   0 68.2358 84.8335  14
  -3  -7   0 137.918 92.7579   6
   3   7   0-12.9100 62.8955  11
  -3  -7   0 115.430 66.0749   3
   3   7   0 95.2635 68.0370   9
  -3  -7  -1 116.331 57.3383   8
  -3  -7  -1 97.4977 63.7733   7
   3   7   1 65.6581 44.7363  14
  -3  -7  -1-1.66628 46.6409   6
  -3  -7  -1 56.0249 62.5635   3
   3   7   1 1.23271 46.5320  11
   3   7   1 117.297 84.2860  10
   3   7   1 67.1309 47.0948   9
  -3  -7  -2 132.123 64.8380   8
  -3  -7  -2 189.659 82.4929  16
   3   7   2 217.064 105.722  14
  -3  -7  -2 349.975 133.893   6
  -3  -7  -2 197.535 109.707   3
   3   7   2 329.144 132.603  11
   3   7   2 226.369 105.085  10
   3  -7   3 50.9839 30.7973   8
  -3  -7  -3 181.120 103.645  16
   3  -7   3 16.9885 104.190   4
   3   7   3 176.000 109.018  14
  -3  -7  -3 225.068 115.569   6
  -3  -7  -3 159.181 89.3641   3
  -3   7  -3 181.934 185.424  13
   3   7   3 420.036 153.268  11
  -3   7  -3 238.050 128.642  10
   3  -7   3 6.23491 179.193   5
   3  -7   4 22.5365 154.145   4
   3   7   4 137.966 101.721  15
   3   7   4 66.0203 60.7411  14
  -3   7  -4 190.536 208.952  13
   3   7   4 134.019 70.3107  11
   3  -7   4-1.90401 133.806   5
   3  -7   5-0.72652 70.7385   4
  -3   7  -5-59.8288 60.2889  13
  -3   7  -5-63.0616 48.3396  12
   3  -7   5 11.1940 41.9266   5
   3  -7   6 8.14448 89.3368   4
  -3   7  -6 47.6923 81.6025  13
  -3   7  -6-40.6223 87.3516  12
   3  -7   6 2.40308 93.0316   5
   3  -7   7 7.52865 139.031   4
  -3   7  -7-58.7964 55.5293  13
  -3   7  -7-50.7134 99.2123  12
   3  -7   7-3.08625 61.7093   5
  -3  -8   2 6.37165 32.4873   6
  -3  -8   1 399.411 133.056   7
  -3  -8   1 473.881 167.442   6
  -3  -8   1 505.087 168.363   3
   3   8  -1 323.927 116.512   9
  -3  -8   0 61.9206 66.7711   7
   3   8   0-64.8964 95.5641  14
  -3  -8   0 12.0682 38.8342   6
  -3  -8   0-119.920 96.3331   3
   3   8   0 126.409 99.0857  11
   3   8   0-49.2514 51.2925   9
  -3  -8  -1 47.6366 42.3079   8
  -3  -8  -1-84.7285 59.8318   7
   3   8   1-55.6647 76.0423  14
  -3  -8  -1 75.1016 81.1121   6
  -3  -8  -1-72.2457 78.9811   3
   3   8   1-14.8202 64.8801  11
   3   8   1 106.764 80.1758  10
   3   8   1-4.59696 34.2961   9
  -3  -8  -2 108.287 60.9155   8
   3   8   2-58.0690 78.3780  14
  -3  -8  -2 13.4692 48.9750   6
  -3  -8  -2-12.3849 64.9561   3
   3   8   2 6.38138 77.5589  11
   3   8   2 133.135 80.3067  10
   3  -8   3-0.72970 58.2803   4
   3   8   3 241.263 136.821  14
  -3  -8  -3 33.0528 41.4083   6
  -3  -8  -3-65.2349 64.9638   3
   3   8   3 149.590 90.2732  11
   3  -8   3-0.46989 139.209   5
   3  -8   4 7.32690 107.482   4
  -3   8  -4-8.40104 53.4684  13
   3  -8   4 17.8083 97.7306   5
   3  -8   5 48.3556 65.3058   4
  -3   8  -5 76.1524 98.5873  13
  -3   8  -5-22.9782 116.581  12
   3  -8   5-10.0577 92.2637   5
   3  -8   6-32.7562 113.954   4
  -3   8  -6 132.241 148.646  13
  -3   8  -6 37.7628 87.2937  12
   3  -8   6-17.1530 84.1121   5
   3  -8   7-36.3674 233.327   4
  -3   8  -7-281.833 165.954  13
   3  -8   7-7.00134 104.633   5
  -3  -9   2-30.1822 79.5119   6
  -3  -9   1 111.571 93.2551   7
  -3  -9   1-102.848 91.5725   6
  -3  -9   1 115.857 101.062   3
   3   9  -1 1.05932 25.8395   9
  -3  -9   0-9.50988 37.8825   7
   3   9   0-111.209 35.7546  14
  -3  -9   0-42.5870 41.9295   6
  -3  -9   0-42.8577 69.9567   3
   3   9   0-121.418 89.0112  11
   3   9   0 38.8617 26.2899   9
  -3  -9  -1 17.2361 19.6510   8
  -3  -9  -1-158.167 102.693   7
   3   9   1 17.0426 42.0057  14
  -3  -9  -1-21.6979 58.2412   6
  -3  -9  -1 106.230 88.9517   3
   3   9   1-119.537 99.1487  11
   3   9   1 47.1523 25.9571   9
   3   9   2-29.6916 51.3021  14
  -3  -9  -2-17.6291 60.1680   6
  -3  -9  -2-95.3297 119.563   3
   3   9   2-61.6882 84.3792  11
   3   9   3-37.3784 70.8317  14
  -3  -9  -3-10.4696 35.5977   6
   3   9   3 9.96400 53.8700  11
   3  -9   4-3.55093 69.5029   4
   3  -9   4 2.43520 120.483   5
   3  -9   5 3.15808 153.290   4
  -3   9  -5 89.0901 116.185  13
   3  -9   5-7.47272 135.524   5
  -3 -10   2-281.711 149.182   6
  -3 -10   1-198.171 105.511   7
  -3 -10   1 44.8983 70.9190   6
  -3 -10   1-1.51528 63.1385   3
   3  10  -1 85.8507 84.5961   9
  -3 -10   0 128.382 83.7718   7
   3  10   0-13.0641 87.7136  14
  -3 -10   0-40.6827 76.5248   6
  -3 -10   0 47.6326 58.2166   3
   3  10   0-48.7587 114.963  11
   3  10   0 20.0657 76.4866   9
  -3 -10  -1-99.0109 68.0812   8
   3  10   1 9.68284 63.6912  14
  -3 -10  -1 23.5418 98.6048   6
  -3 -10  -1-3.62136 43.8688   3
   3  10   1-183.791 142.506  11
   3  10   1-90.8530 88.6548  10
   3  10   2-36.6554 84.6849  14
  -3 -10  -2-51.6582 87.5779   6
   3  10   2-45.0254 74.6817  11
  -4   0  -2 493.641 200.593  16
   4   0   2 344.584 155.547   4
   4   0   2 438.484 194.431  15
   4   0   2 405.110 161.564   1
  -4   0  -2 443.262 218.394   2
  -4   0  -2 384.067 137.069   3
  -4   0  -3-42.1258 84.1085  16
   4   0   3-15.3641 39.5797   4
   4   0   3 8.72758 55.1154  15
   4   0   3-17.1825 41.0932  14
  -4   0  -3 24.7396 62.6455   2
  -4   0  -3-62.6612 30.2842   3
   4   0   3 49.5122 44.7381   1
   4   0   4 553.987 188.579   4
  -4   0  -4 230.540 128.180  16
   4   0   4 507.474 215.656  15
   4   0   4 280.409 159.596   1
   4   0   4 289.788 135.914  14
  -4   0  -4 411.819 205.381   2
  -4   0  -4 671.965 228.512  13
  -4   0  -4 349.477 90.7227   3
   4   0   5 33.1412 32.9113   4
  -4   0  -5 42.0867 34.5251  16
   4   0   5 1.98940 53.5903  15
  -4   0  -5 22.4249 89.3547   2
   4   0   5 41.9773 23.8442  14
  -4   0  -5 73.9222 105.144  13
  -4   0  -5 17.8489 28.9454   3
   4   0   5-10.3710 46.3342   1
   4   0   6 352.721 172.773   4
  -4   0  -6-203.550 139.078  16
  -4   0  -6 272.577 192.685   2
   4   0   6 191.027 157.672  15
   4   0   6 199.168 116.192  14
  -4   0  -6 541.695 215.699  13
   4   0   6 196.675 133.222   1
  -4   0  -7-110.091 148.704   2
  -4   0  -7-122.741 69.8243  16
   4   0   7-24.5386 72.4475   1
   4   0   7-78.5987 132.733  15
   4   0   7 13.4342 53.0152  14
  -4   0  -7 47.4752 64.0990  13
   4   1   1 23.2208 42.1490   4
   4   1   1-21.0872 50.1464   1
  -4  -1  -1 28.8070 19.8514   6
  -4  -1  -1-42.7754 38.4654   2
  -4  -1  -1-47.4737 56.0191   3
  -4  -1  -2 117.288 104.346  16
  -4   1  -2 163.067 98.6995  16
   4   1   2 224.322 132.807   4
   4  -1   2 113.471 104.549   4
   4   1   2 137.992 110.526  15
   4   1   2 296.532 127.943   1
   4  -1   2 34.6072 76.6477  15
   4   1   2 177.306 91.3435  14
   4  -1   2 82.8972 99.9951   1
  -4  -1  -2 184.097 144.432   2
  -4   1  -2 106.406 112.043   2
  -4  -1  -2 321.219 132.110   3
  -4   1  -2 141.633 90.8891   3
   4  -1   3 22.6562 33.5296   1
  -4  -1  -3-52.2667 56.9862  16
   4   1   3 119.585 82.0529   4
  -4   1  -3-69.7573 66.8906  16
   4  -1   3-39.2823 65.5315   4
   4   1   3 59.8922 49.7221  15
   4  -1   3-15.0059 47.0790  15
   4   1   3 55.7798 53.5589  14
  -4   1  -3-23.3908 30.3277  13
  -4  -1  -3-132.809 111.267  13
  -4  -1  -3-39.3937 85.5612   2
  -4   1  -3-19.0055 48.0424   2
  -4  -1  -3 0.76874 41.5253   3
   4   1   3-2.59362 56.6760   1
  -4   1  -3-11.8032 60.7959   3
   4   1   4-74.6475 101.146   4
   4   1   4-69.4305 44.8177   1
  -4  -1  -4 19.8709 47.2109  16
  -4   1  -4-54.8588 84.5630  16
   4  -1   4-11.5676 72.9488   4
   4   1   4 25.7450 73.3802  15
   4  -1   4 29.7763 81.3162  15
   4   1   4-86.8731 88.9318  14
   4  -1   4-7.45372 26.6099  14
  -4  -1  -4 82.8390 94.1026   2
  -4  -1  -4-22.8801 35.2775  13
  -4   1  -4-73.7358 94.5848  13
  -4   1  -4 31.5658 46.1329   2
  -4   1  -4-45.9273 40.1231   3
  -4  -1  -4-34.4512 45.4439   3
   4   1   5-114.917 77.5419   4
   4  -1   5 49.8131 63.0875   4
  -4  -1  -5 12.4541 59.7731  16
  -4   1  -5 9.68374 32.5599  16
   4   1   5-134.414 145.079  15
   4  -1   5 37.0264 44.7897  15
  -4  -1  -5-60.1907 88.2944   2
   4   1   5 108.286 83.5967  14
  -4   1  -5-45.2588 55.4637   2
   4  -1   5-11.0101 50.2067  14
  -4  -1  -5-3.14944 43.2387  13
  -4   1  -5-123.789 124.613  13
  -4   1  -5 98.2532 69.8374   3
  -4  -1  -5-31.3429 45.9333   3
   4   1   5 46.6259 36.0948   1
   4  -1   5 24.2772 41.7310   1
   4  -1   6-107.747 80.9592   4
  -4  -1  -6 40.4750 44.1776  16
  -4   1  -6 80.2121 122.171  16
  -4  -1  -6-38.2963 70.6923   2
  -4   1  -6 96.3336 113.048   2
   4   1   6 0.23222 109.980  15
   4  -1   6-89.2855 78.6282  15
   4   1   6 20.6499 34.1047  14
   4  -1   6-59.8809 60.8418  14
   4   1   6-30.3477 60.9686   1
  -4  -1  -6-28.7708 82.0128  13
  -4   1  -6 169.089 133.268  13
   4  -1   6 67.6329 74.6864   1
  -4  -1  -7-12.4638 63.7340   2
  -4   1  -7-86.1231 80.6154   2
  -4  -1  -7 49.6890 34.4005  16
  -4   1  -7 40.5012 61.8812  16
   4   1   7 75.8513 72.5569  15
   4  -1   7 123.215 127.339  15
   4  -1   7 22.4492 57.9966   1
   4   1   7 15.4928 28.6911  14
   4  -1   7 207.736 116.968  14
  -4  -1  -7 134.239 114.923  13
  -4   1  -7 63.0517 73.0565  13
   4   2   1 4.33170 28.4641   4
   4   2   1-34.7212 53.6814  15
   4   2   1 99.5257 80.1063  14
  -4  -2  -1 23.4422 14.7753   6
  -4  -2  -1-29.2969 64.2058   2
   4   2   1-68.8483 58.2582   1
  -4  -2  -1 19.0285 59.9013   3
   4   2   2-27.3597 51.7920   1
  -4  -2  -2-5.20666 51.2008  16
   4   2   2-43.8798 51.3446   4
   4   2   2-133.529 128.962  15
   4  -2   2-72.7503 118.403   4
   4   2   2 41.1650 62.4243  14
  -4  -2  -2 43.0564 40.2851   6
  -4  -2  -2-44.2331 60.4644   2
  -4   2  -2 22.4243 38.5786   2
  -4  -2  -2-80.8688 87.3525   3
   4  -2   2-64.0790 79.4190   1
  -4   2  -2-75.1725 62.0734   3
   4  -2   2-7.22781 73.1225   5
   4  -2   3 11.0397 40.8056   1
  -4  -2  -3 3.68105 21.5119  16
  -4   2  -3 53.3544 66.4818  16
   4  -2   3-22.6879 54.8105   4
   4   2   3 23.6727 39.0046  15
   4  -2   3-18.4780 46.0764  15
   4   2   3-45.4191 54.4686  14
  -4   2  -3 27.5306 71.2362  13
  -4  -2  -3-147.086 93.6811  13
  -4  -2  -3-2.12104 82.8586   2
   4   2   3 71.1971 68.3783   1
  -4   2  -3 55.3314 86.3101   2
  -4  -2  -3 30.3441 54.0006   3
  -4   2  -3-32.3915 40.0422   3
   4  -2   3-16.2422 35.8286   5
   4   2   4 162.327 96.5965   1
   4   2   4 237.975 102.728   4
  -4  -2  -4 69.4364 72.8570  16
  -4   2  -4 38.2533 41.8818  16
   4  -2   4 26.1786 88.5623   4
   4   2   4 50.9054 63.4899  15
   4  -2   4 82.7399 84.1823  15
   4   2   4-2.94331 45.6803  14
  -4  -2  -4 102.111 123.160   2
  -4  -2  -4 142.219 107.059  13
  -4   2  -4 34.3052 40.0644  13
   4  -2   4 193.958 112.351   1
  -4   2  -4-34.2205 85.9360   2
  -4   2  -4 156.827 83.1453   3
  -4  -2  -4 139.695 89.1645   3
   4  -2   5 83.1097 96.4310   1
   4  -2   5-1.04301 65.4690   4
  -4  -2  -5 17.6196 61.3599  16
  -4   2  -5-41.9575 46.7370  16
   4   2   5-52.5484 59.8740  15
  -4  -2  -5-13.3797 30.9748   2
   4  -2   5-23.0855 41.1867  15
   4   2   5 27.8940 56.1138  14
  -4   2  -5 62.6729 44.9137   2
   4  -2   5-92.8114 66.6266  14
  -4  -2  -5-11.2577 50.4034  13
  -4   2  -5 0.23796 97.3773  13
  -4  -2  -5-35.3682 101.117   3
   4   2   5-72.0020 100.280   1
   4  -2   6 0.22181 50.4243   4
  -4  -2  -6-40.7231 67.0889   2
  -4  -2  -6-39.2967 61.3633  16
  -4   2  -6 64.8506 72.6296  16
   4   2   6 205.020 141.298  15
  -4   2  -6-29.4102 39.5812   2
   4  -2   6-0.24238 38.8586  15
   4   2   6 58.4893 61.7331   1
   4   2   6 59.9007 73.3881  14
  -4  -2  -6-50.1047 102.240  13
  -4   2  -6 76.2627 76.0949  13
   4  -2   6 44.0102 74.3882   1
   4  -2   7 18.3264 121.027   4
  -4   2  -7-81.0787 94.1244   2
  -4   2  -7 35.0576 45.8367  16
   4  -2   7 17.6877 91.2520  15
   4  -2   7-6.16103 73.1092   1
  -4   2  -7 61.8169 71.9779  13
   4   3   1 152.674 51.3601  15
   4   3   1 413.560 148.412  14
   4   3   1 293.216 112.167   1
  -4  -3  -1 548.856 136.844   6
  -4  -3  -1 869.251 219.321   2
  -4  -3  -1 538.508 173.081   3
  -4  -3  -2 26.1661 64.2985  16
   4   3   2 126.082 119.529  15
   4   3   2 101.881 73.1671  14
  -4  -3  -2-43.3933 45.1240   6
  -4  -3  -2-32.1345 82.2038   2
   4   3   2-38.6840 62.4300   1
  -4  -3  -2 6.91914 55.9448   3
   4  -3   3 524.413 198.503   1
  -4  -3  -3 579.627 197.158  16
  -4   3  -3 573.637 205.367  16
   4   3   3 635.401 177.223   1
   4  -3   3 25.3925 250.501   4
   4   3   3 705.744 231.348  15
   4  -3   3 120.701 116.245  15
   4   3   3 691.362 190.059  14
  -4  -3  -3 790.376 233.316   2
  -4  -3  -3 832.488 186.754   6
  -4   3  -3 867.041 279.944  13
  -4  -3  -3 421.846 140.623  13
  -4   3  -3 627.808 253.929   2
  -4  -3  -3 503.870 188.867   3
   4  -3   3 7.25156 128.191   5
  -4  -3  -4-3.11735 44.8651  16
  -4   3  -4 103.264 100.972  16
   4  -3   4 6.94824 98.1431   4
   4   3   4-7.98326 44.8841  15
   4  -3   4 7.11793 75.3332  15
  -4  -3  -4 10.1272 42.1991   2
   4   3   4 12.6563 34.8438  14
  -4   3  -4-7.97680 78.9257  13
   4  -3   4-23.1839 41.2442   1
  -4   3  -4 55.6386 114.388   2
  -4  -3  -4-70.3667 103.602   3
   4  -3   4-16.1729 67.0032   5
   4   3   4-137.296 88.8068   1
   4  -3   5 193.308 108.795   1
  -4  -3  -5-24.1492 53.9492  16
   4  -3   5 3.83289 98.7392   4
  -4   3  -5 82.5833 97.7655  16
  -4  -3  -5 81.3933 137.860   2
   4   3   5 36.7648 49.0870  15
   4  -3   5 63.9341 69.4887  15
   4   3   5-2.33194 38.1453  14
  -4   3  -5-24.7307 68.3659   2
   4   3   5 65.7893 92.0891   1
  -4   3  -5 116.621 117.059  13
  -4  -3  -5 77.1022 99.2155   3
   4  -3   5-3.52317 56.2813   5
  -4  -3  -6 94.0764 77.9087   2
   4  -3   6 11.6229 33.8365   4
  -4  -3  -6-0.86684 52.8484  16
  -4   3  -6 39.0093 90.0935  16
   4   3   6 1.54693 32.5194   1
   4   3   6-138.528 132.552  15
  -4   3  -6-32.0838 59.4644   2
   4  -3   6-137.096 125.120  15
   4   3   6-9.47408 51.0872  14
  -4   3  -6-104.904 115.509  13
   4  -3   6-4.22414 28.2726   1
   4  -3   7-0.50318 114.765   4
  -4   3  -7 166.926 149.659   2
  -4   3  -7-22.1422 65.6272  16
   4  -3   7-155.589 145.701  15
   4  -3   7 99.9834 70.0316   1
  -4   3  -7 77.2335 112.303  13
  -4   3  -8-37.6058 44.9133  13
   4   4   1 27.3679 55.3897   1
   4   4   1 4.42095 26.0318  14
  -4  -4  -1-24.8050 51.1674   6
  -4  -4  -1-60.0502 106.474   2
  -4  -4  -1-36.5659 45.5385   3
  -4  -4  -2 173.225 108.092  16
   4   4   2 295.530 178.415  15
   4   4   2 114.167 82.6856  14
   4   4   2 180.814 93.0520   1
  -4  -4  -2 147.129 113.564   2
  -4  -4  -2 299.855 105.420   6
  -4  -4  -2 130.694 104.577   3
   4   4   3 173.228 89.1215   1
  -4  -4  -3 85.9541 67.7172  16
   4  -4   3-13.7477 104.469   4
   4   4   3 139.525 64.9602  15
  -4  -4  -3 112.514 127.672   2
   4   4   3 30.4328 78.8399  14
  -4  -4  -3 149.182 88.1183   6
  -4   4  -3-77.1228 112.048  13
  -4  -4  -3 73.5282 69.1105   3
  -4   4  -3-31.8811 35.4716   2
   4  -4   3-19.7411 94.6325   5
   4  -4   3-5.67402 29.1505   1
  -4  -4  -4 70.0603 78.5265  16
  -4   4  -4 25.3011 41.5275  16
   4  -4   4 41.8679 151.516   4
  -4  -4  -4 209.244 108.263   2
   4   4   4 274.962 149.131  15
   4  -4   4 72.2356 65.0873  15
   4   4   4-71.3050 70.9901  14
   4  -4   4 289.371 124.008   1
  -4  -4  -4 267.069 123.746   6
  -4   4  -4 89.3896 135.884  13
  -4   4  -4-7.24866 64.7871   2
  -4  -4  -4 172.715 95.2550   3
   4   4   4 97.3168 78.3717   1
   4   4   4 48.8404 32.7626  11
   4  -4   4 12.0128 104.881   5
  -4  -4  -5 92.6720 88.7605   2
  -4  -4  -5 70.3987 73.3279  16
   4  -4   5 2.46110 73.4679   4
  -4   4  -5 227.963 147.989  16
   4   4   5 168.444 129.105  15
   4  -4   5 112.196 129.399  15
   4   4   5 96.4412 63.5646   1
   4   4   5-12.3976 78.2498  14
  -4   4  -5 257.783 139.078   2
  -4  -4  -5 19.9427 73.0219   3
  -4   4  -5 33.8326 120.117  13
   4   4   5 5.47043 49.3551  11
   4  -4   5 8.54080 89.3142   5
   4  -4   5 171.061 97.8228   1
   4  -4   6 41.5548 121.021   4
  -4  -4  -6-1.55421 33.1552  16
  -4   4  -6 18.9942 32.4684  16
   4   4   6 5.50022 84.4178  15
   4  -4   6 35.9921 69.9064  15
   4   4   6 26.9626 35.0661  14
  -4   4  -6-16.9207 62.3977  13
   4  -4   6 66.8530 33.8599   1
   4  -4   6 9.17551 44.5194   5
   4  -4   7 4.85389 165.406   4
  -4   4  -7-46.5427 77.0948   2
  -4   4  -7 51.6490 53.7949  16
   4  -4   7 201.091 90.7895   1
   4  -4   7 148.333 126.313  15
  -4   4  -7 158.297 134.074  13
  -4   4  -8-24.2248 86.0570  16
  -4   4  -8-0.32934 185.630  13
   4   5   0 5.23748 37.7752   1
   4   5   0 125.590 99.7988  14
  -4  -5   0-41.4995 45.8690   6
  -4  -5   0-27.2953 57.4141   3
   4   5   1 82.9529 72.3803  14
  -4  -5  -1-21.6467 38.0650   6
  -4  -5  -1 136.854 87.1186   2
   4   5   1-30.9900 47.0926   1
  -4  -5  -1 160.808 94.2428   3
   4   5   2 566.633 158.689   1
  -4  -5  -2 505.641 179.042  16
   4   5   2 585.900 204.337  15
   4   5   2 636.516 195.938  14
  -4  -5  -2 498.125 185.708   2
  -4  -5  -2 813.732 189.933   6
  -4  -5  -2 571.297 196.905   3
  -4  -5  -3 162.133 125.546  16
  -4  -5  -3-50.2808 65.8310   2
   4   5   3-21.9211 44.0405  15
   4   5   3-176.576 103.893  14
  -4  -5  -3 79.1471 68.2428   6
  -4  -5  -3-14.0925 33.6735   3
   4   5   3-48.7441 60.3229   1
   4   5   3 99.7786 91.1463  11
  -4  -5  -4-34.4830 65.2755   2
  -4  -5  -4-36.6831 62.3699  16
   4  -5   4-13.7031 186.035   4
   4  -5   4 165.998 110.145   1
   4   5   4 7.24887 45.8113  15
   4   5   4-157.799 101.459  14
   4   5   4 41.4959 71.1402   1
  -4  -5  -4 42.1179 62.6259   6
  -4   5  -4-81.5462 97.5733   2
  -4   5  -4 78.0744 145.536  13
  -4  -5  -4-54.4563 75.8620   3
   4   5   4-51.8053 58.8672  11
   4  -5   4 4.98059 85.1926   5
  -4  -5  -5 68.2853 79.1209  16
   4  -5   5-12.9434 93.7426   4
  -4   5  -5 99.8667 86.3983  16
   4   5   5 13.4659 100.043  15
   4  -5   5 81.0662 78.8483  15
  -4   5  -5-18.5535 49.4668   2
   4   5   5 1.84806 51.6561  14
  -4  -5  -5-22.6150 72.0745   3
  -4   5  -5 3.96252 53.0194  13
   4   5   5 15.4273 80.3245  11
   4  -5   5 1.79425 43.4334   5
   4  -5   5 86.3617 61.9565   1
   4  -5   6 3.91003 108.882   4
  -4   5  -6-60.2813 82.5774  16
  -4   5  -6 102.008 127.387   2
   4  -5   6-36.6118 55.9997  15
   4  -5   6 9.18334 59.3198   1
  -4   5  -6 0.31569 97.0727  13
   4  -5   6-9.20316 43.2386   5
   4  -5   7-18.0828 129.260   4
  -4   5  -7 50.9089 90.1669   2
  -4   5  -7-59.5804 69.0526  16
   4  -5   7-112.479 113.355  15
  -4   5  -7 75.2730 62.2095  13
  -4   5  -7 173.906 111.332  12
   4  -5   7 5.40163 70.3186   5
   4   6   0 47.9208 72.6152  14
  -4  -6   0-182.753 114.098   6
  -4  -6   0-69.5043 79.7444   3
   4   6   1 43.6113 71.6563   1
   4   6   1 113.540 74.0743  14
  -4  -6  -1 50.9166 81.6877   2
  -4  -6  -1-26.5238 44.3574   6
  -4  -6  -1-18.0338 41.8725   3
  -4  -6  -2 127.255 96.6716  16
  -4  -6  -2 126.512 83.3910   2
   4   6   2-65.8895 83.7529  15
   4   6   2 110.851 79.7369  14
  -4  -6  -2 215.914 113.472   6
  -4  -6  -2 29.5474 61.0439   3
   4   6   2 67.6246 34.0624   1
  -4  -6  -3 104.823 99.3088   2
  -4  -6  -3 96.5029 91.2577  16
   4   6   3-134.204 146.133  15
   4   6   3 47.6626 39.7851   1
  -4  -6  -3-7.16284 33.2070   6
  -4  -6  -3 17.5882 36.5022   3
   4   6   3-98.8981 98.7017  11
  -4  -6  -4 46.2725 50.1505   2
  -4  -6  -4-20.1473 49.4560  16
   4  -6   4-0.28849 88.7114   4
   4   6   4-27.4817 56.6102  15
   4   6   4 26.9171 60.1437  14
  -4  -6  -4 6.71001 26.5950   6
  -4  -6  -4-78.4715 112.895   3
  -4   6  -4-13.1562 68.4600  13
   4   6   4 61.1484 65.6602  11
   4  -6   4-3.95232 55.9618   5
   4  -6   5-1.76928 110.784   4
   4   6   5-83.3218 99.5710  15
  -4   6  -5-21.2039 72.3925   2
   4   6   5-54.4442 60.1409  14
  -4   6  -5 201.848 128.553  13
   4  -6   5 59.4862 84.3407   1
   4  -6   5 10.4431 96.3199   5
   4  -6   6 0.30452 111.998   4
  -4   6  -6 97.7458 113.100  16
   4  -6   6 281.200 168.730  15
   4  -6   6 34.1602 31.0171   1
   4  -6   6-19.2194 64.3335   5
   4   7   0 1.29297 21.0168  14
  -4  -7   0 87.2079 68.6950   6
  -4  -7   0 167.830 116.610   3
   4   7   1 140.790 113.082  14
  -4  -7  -1 184.744 122.781   6
  -4  -7  -1 50.9943 89.3374   3
   4   7   2 55.9760 74.2406  14
  -4  -7  -2 104.972 91.6779   6
  -4  -7  -2 93.8411 120.176   3
  -4  -7  -3 27.2338 49.9210  16
  -4  -7  -3-108.660 88.2647   6
   4   7   3-170.964 133.049  11
   4   7   4 12.4486 100.844  14
  -4  -7  -4 354.162 223.137   6
  -4  -7  -4 178.744 317.386   3
   4   7   4-193.308 110.450  11
   4  -7   5-1.60151 96.9815   4
  -4   7  -5 55.7740 52.6188  13
   4  -7   5-30.2941 39.0321   5
  -4  -8   0-27.7378 49.9059   6
  -4  -8   0 24.1298 50.3540   3
   4   8   1 80.7572 71.9343  14
  -4  -8  -1 85.8145 103.808   6
  -4  -8  -1 124.288 105.733   3
   4   8   2 2.52061 56.8603  14
  -4  -8  -2-3.71984 33.8534   3
   4   8   2-91.5849 108.815  11
   4   8   3-66.4754 93.1631  14
  -4  -8  -3 82.8695 70.7183   6
  -4  -8  -3-24.0483 64.4087   3
   4   8   3-4.97600 63.0542  11
  -5   0  -3-5.61995 42.9393   2
   5   0   3-132.655 92.9045   1
   5   0   4 130.092 118.816   4
  -5   0  -4-43.7378 29.1476  16
   5   0   4-45.8839 74.1495   1
   5   0   4 61.8029 33.9497  15
  -5   0  -4 59.3744 126.692   2
  -5   0  -4 122.170 99.8275   3
  -5   0  -5 137.669 116.373  16
   5   0   5-53.5540 100.337  15
  -5   0  -5-5.51257 106.975   2
   5   0   5-189.098 83.7255  14
  -5   0  -5 11.2972 45.7357   3
  -5   0  -5-178.969 133.097  13
   5   0   5-62.2205 116.846   1
   5   0   6 68.7868 107.099   4
  -5   0  -6 148.330 114.617  16
  -5   0  -6-52.1345 53.9011   2
   5   0   6 34.7535 97.5967  15
   5   0   6-195.003 133.636  14
  -5   0  -6-66.8192 135.415  13
   5   0   6-123.203 112.157   1
  -5  -1  -3-22.8012 52.6550  16
   5   1   3 131.258 133.650  15
  -5  -1  -3 56.1708 115.537   2
   5   1   3-115.843 118.228   1
  -5  -1  -3-65.1697 57.5372   3
   5   1   4-144.740 120.521   4
   5   1   4 158.187 101.673   1
   5  -1   4 64.9170 83.1603   4
  -5  -1  -4-95.7344 129.292  16
  -5   1  -4 72.4298 105.296  16
   5   1   4 179.249 160.100  15
   5  -1   4 51.0009 120.342  15
   5  -1   4 68.5995 91.9219   1
   5   1   4 17.5907 36.8784  14
  -5  -1  -4 96.3109 141.802   2
  -5   1  -4 32.9488 86.1050   2
  -5  -1  -4 28.5442 56.1852   3
   5   1   5 53.3288 108.606   4
   5  -1   5-11.6887 122.740   4
  -5  -1  -5 20.2083 48.5564  16
  -5   1  -5-101.129 91.9643  16
   5   1   5-159.602 223.882  15
   5  -1   5-12.7531 51.2072  15
  -5  -1  -5 5.42704 124.459   2
  -5   1  -5-74.8169 139.678   2
   5   1   5-8.60220 64.8477  14
  -5  -1  -5-148.188 100.509   3
  -5   1  -5-96.1163 94.0659  13
  -5  -1  -5-111.222 157.633  13
   5   1   5 20.9465 92.8292   1
   5  -1   5 6.65084 32.8948   1
   5  -1   6 1.07799 64.5559   4
  -5  -1  -6-88.8728 60.1104  16
  -5   1  -6-149.643 104.150  16
  -5  -1  -6-141.565 118.029   2
  -5   1  -6-3.63457 111.009   2
   5   1   6 29.0069 122.596  15
   5  -1   6 45.2109 100.982  15
   5   1   6-307.269 154.577  14
   5   1   6 20.1407 59.3812   1
  -5   1  -6 67.6147 63.6804  13
  -5  -1  -6-49.2295 70.8446  13
   5  -1   6 6.82653 74.1923   1
  -5  -2  -3 61.9382 60.4203  16
   5   2   3-22.8777 63.3945  15
   5   2   3 53.4146 112.736   1
   5   2   3-99.8737 92.8018  14
  -5  -2  -3 4.96122 63.4022   2
  -5  -2  -3 6.57811 35.0737   3
   5   2   4 99.8997 94.7860   1
   5  -2   4 9.45161 60.8214   4
  -5  -2  -4 27.6864 83.9873  16
   5   2   4 139.092 132.246  15
   5  -2   4-23.1229 59.5566   1
  -5  -2  -4 3.45518 73.9527   2
   5   2   4-4.55714 41.8289  14
  -5   2  -4 16.3896 48.9478   2
  -5  -2  -4 41.8069 67.2833   3
   5  -2   5-173.143 129.388   1
   5  -2   5 2.99817 77.2330   4
  -5  -2  -5 29.0042 53.4568  16
  -5   2  -5-31.9387 90.2179  16
  -5  -2  -5-21.1308 87.5606   2
   5   2   5 46.6795 117.808  15
   5  -2   5-93.1893 115.709  15
  -5   2  -5-22.1416 62.7363   2
   5   2   5 21.8184 73.0886  14
  -5  -2  -5 138.072 147.715   3
  -5   2  -5 39.5311 77.6218  13
   5   2   5-148.358 110.431   1
   5   3   3 76.7528 95.3657   1
  -5  -3  -3 31.8142 22.3111  16
   5   3   3 31.4204 77.0505  15
   5   3   3-61.0103 79.7894  14
  -5  -3  -3 105.503 135.153   2
  -5  -3  -3-21.2869 90.1556   3
  -5  -3  -4 64.6172 50.0693  16
   5   3   4 134.958 112.197  15
  -5  -3  -4-5.51095 104.040   2
   5   3   4 111.279 85.8074  14
  -5  -3  -4 8.47777 56.4895   3
   5   3   4 138.697 110.122   1
   5  -3   5-13.0931 74.5019   4
  -5  -3  -5 1.07957 45.5727  16
  -5   3  -5-35.3837 48.5351  16
  -5  -3  -5 6.28629 52.9134   2
   5   3   5-103.800 113.229  15
   5  -3   5 18.7952 53.9848  15
  -5   3  -5-80.1697 92.1969   2
   5   3   5 225.940 148.642  14
  -5  -3  -5 12.3205 41.0684   3
   5   3   5-95.9734 120.678   1
  -5   3  -5-41.0934 124.809  13
   5  -3   5 100.256 116.702   1
   5   4   2 147.356 98.8801  14
  -5  -4  -2 71.2574 71.5920   3
   5   4   3-42.9922 104.270   1
  -5  -4  -3 26.3468 66.3686  16
   5   4   3 75.3430 86.9445  15
  -5  -4  -3-203.935 126.753   2
   5   4   3 27.8879 68.4171  14
  -5  -4  -3-28.6340 101.080   3
  -5  -4  -4-183.767 125.039  16
  -5  -4  -4-1.54663 88.6720   2
   5   4   4-41.3300 118.451  15
   5   4   4-52.6388 78.0592  14
  -5  -4  -4 111.073 102.426   3
   5   4   4 117.686 95.9897   1
   5   5   2 90.9196 82.8015  14
  -5  -5  -2-43.0761 65.3842   3
  -5  -5  -3 121.959 134.420   2
   5   5   3 169.751 148.352  15
   5   5   3 121.507 101.015  14
  -5  -5  -3 83.6676 95.0762   3
   5   5   3 111.450 52.9356   1
   0   0   0    0.00    0.00   0

TITL instrument in P2(1)/c
REM P2(1)/c (#14 in standard setting)
CELL 0.71073   4.984410  10.093003  13.531237  90.0000  99.3404  90.0000
ZERR    4.00   0.012335   0.011214   0.122492   0.0000   0.4436   0.0000
LATT  1
SYMM -x, y+1/2,-z+1/2
SFAC C H N O
UNIT 16.00 28.00 20.00 12.00
TREF
HKLF 4
END
;
_shelx_hkl_checksum              78319
_olex2_submission_special_instructions 'No special instructions were received'
_oxdiff_exptl_absorpt_empirical_details
;
Empirical correction (ABSPACK) includes:
- Absorption correction using spherical harmonics
- Frame scaling
;
_oxdiff_exptl_absorpt_empirical_full_max 1.678
_oxdiff_exptl_absorpt_empirical_full_min 0.710
loop_
_space_group_symop_operation_xyz
'x, y, z'
'-x, y+1/2, -z+1/2'
'-x, -y, -z'
'x, -y-1/2, z-1/2'
loop_
_atom_site_label
_atom_site_type_symbol
_atom_site_fract_x
_atom_site_fract_y
_atom_site_fract_z
_atom_site_U_iso_or_equiv
_atom_site_adp_type
_atom_site_occupancy
_atom_site_site_symmetry_order
_atom_site_calc_flag
_atom_site_refinement_flags_posn
_atom_site_refinement_flags_adp
_atom_site_refinement_flags_occupancy
_atom_site_disorder_assembly
_atom_site_disorder_group
C1 C 0.096(3) 0.7943(9) 0.5408(19) 0.11(2) Uani 1 1 d . . . . .
H1 H -0.062400 0.834015 0.508430 0.130 Uiso 1 1 calc R . . . .
C2 C 0.319(3) 0.8632(9) 0.586(2) 0.077(6) Uani 1 1 d . U . . .
H2 H 0.341519 0.954667 0.587491 0.092 Uiso 1 1 calc R . . . .
C3 C 0.498(3) 0.7714(8) 0.6281(19) 0.112(18) Uani 1 1 d . . . . .
H3 H 0.668213 0.786919 0.665614 0.134 Uiso 1 1 calc R . . . .
C4 C 0.475(3) 0.5246(8) 0.630(2) 0.08(2) Uani 1 1 d . . . . .
N1 N 0.379(2) 0.6502(6) 0.6047(18) 0.06(2) Uani 1 1 d . . . . .
N2 N 0.1322(19) 0.6644(6) 0.5484(14) 0.109(15) Uani 1 1 d . . . . .
N3 N 0.333(2) 0.4250(6) 0.5907(18) 0.093(17) Uani 1 1 d . . . . .
H3A H 0.395346 0.345798 0.600219 0.111 Uiso 1 1 calc R . . . .
H3B H 0.175462 0.437804 0.555122 0.111 Uiso 1 1 calc R . . . .
N4 N 0.714(2) 0.5119(6) 0.6843(14) 0.130(16) Uani 1 1 d . . . . .
H4A H 0.784664 0.434480 0.695706 0.156 Uiso 1 1 calc R . . . .
H4B H 0.802015 0.580929 0.708820 0.156 Uiso 1 1 calc R . . . .
N5 N 0.245(3) 0.6454(9) 0.8281(19) 0.10(3) Uani 1 1 d . . . . .
O1 O 0.4861(17) 0.6737(5) 0.8568(13) 0.114(13) Uani 1 1 d . . . . .
O2 O 0.1636(19) 0.5297(6) 0.8283(14) 0.139(17) Uani 1 1 d . . . . .
O3 O 0.0816(16) 0.7362(6) 0.7981(12) 0.089(15) Uani 1 1 d . . . . .
loop_
_atom_site_aniso_label
_atom_site_aniso_U_11
_atom_site_aniso_U_22
_atom_site_aniso_U_33
_atom_site_aniso_U_23
_atom_site_aniso_U_13
_atom_site_aniso_U_12
C1 0.106(14) 0.057(7) 0.15(5) 0.002(10) -0.01(2) 0.008(6)
C2 0.086(8) 0.071(5) 0.078(13) 0.002(7) 0.026(9) -0.016(6)
C3 0.075(10) 0.056(6) 0.20(5) -0.016(9) 0.002(19) 0.009(6)
C4 0.062(11) 0.038(6) 0.16(6) -0.013(9) 0.03(3) 0.003(5)
N1 0.051(11) 0.057(6) 0.07(5) 0.007(7) 0.04(2) -0.008(4)
N2 0.069(9) 0.054(5) 0.19(4) 0.006(6) -0.021(16) -0.011(4)
N3 0.075(10) 0.041(5) 0.16(4) 0.016(7) 0.016(19) 0.000(4)
N4 0.087(10) 0.060(5) 0.22(4) 0.000(7) -0.036(17) 0.000(4)
N5 0.067(12) 0.076(7) 0.16(7) 0.006(10) -0.01(3) -0.001(6)
O1 0.063(7) 0.052(4) 0.22(3) -0.011(6) -0.005(14) 0.001(3)
O2 0.100(10) 0.047(4) 0.25(4) 0.014(6) -0.03(2) -0.030(4)
O3 0.055(8) 0.086(5) 0.13(4) 0.014(7) 0.032(17) -0.005(4)
loop_
_atom_type_symbol
_atom_type_description
_atom_type_scat_dispersion_real
_atom_type_scat_dispersion_imag
_atom_type_scat_source
C C 0.0033 0.0016 'International Tables Vol C Tables 4.2.6.8 and 6.1.1.4'
H H 0.0000 0.0000 'International Tables Vol C Tables 4.2.6.8 and 6.1.1.4'
N N 0.0061 0.0033 'International Tables Vol C Tables 4.2.6.8 and 6.1.1.4'
O O 0.0106 0.0060 'International Tables Vol C Tables 4.2.6.8 and 6.1.1.4'
loop_
_geom_angle_atom_site_label_1
_geom_angle_atom_site_label_2
_geom_angle_atom_site_label_3
_geom_angle
_geom_angle_site_symmetry_1
_geom_angle_site_symmetry_3
_geom_angle_publ_flag
N2 C1 C2 112.3(9) . . ?
C3 C2 C1 105.8(9) . . ?
C2 C3 N1 106.4(10) . . ?
N3 C4 N1 118.1(10) . . ?
N3 C4 N4 123.0(8) . . ?
N4 C4 N1 118.6(8) . . ?
C3 N1 C4 130.0(10) . . ?
N2 N1 C3 110.9(8) . . ?
N2 N1 C4 119.1(7) . . ?
C1 N2 N1 104.4(7) . . ?
O1 N5 O3 118.8(9) . . ?
O2 N5 O1 121.4(8) . . ?
O2 N5 O3 119.8(9) . . ?
loop_
_geom_bond_atom_site_label_1
_geom_bond_atom_site_label_2
_geom_bond_distance
_geom_bond_site_symmetry_2
_geom_bond_publ_flag
C1 C2 1.366(14) . ?
C1 N2 1.325(11) . ?
C2 C3 1.347(12) . ?
C3 N1 1.374(10) . ?
C4 N1 1.378(11) . ?
C4 N3 1.292(11) . ?
C4 N4 1.305(12) . ?
N1 N2 1.343(12) . ?
N5 O1 1.236(11) . ?
N5 O2 1.235(11) . ?
N5 O3 1.249(9) . ?

_cod_database_fobs_code 2108922
