#------------------------------------------------------------------------------
#$Date: 2022-03-16 04:56:31 +0200 (Wed, 16 Mar 2022) $
#$Revision: 273718 $
#$URL: file:///home/coder/svn-repositories/cod/cif/2/10/89/2108932.cif $
#------------------------------------------------------------------------------
#
# This file is available in the Crystallography Open Database (COD),
# http://www.crystallography.net/. The original data for this entry
# were provided by IUCr Journals, http://journals.iucr.org/.
#
# The file may be used within the scientific community so long as
# proper attribution is given to the journal article from which the
# data were obtained.
#
data_2108932
loop_
_publ_author_name
'Hasija, Avantika'
'Som, Shubham'
'Chopra, Deepak'
_publ_section_title
;
 Investigation of crystal structures, energetics and isostructurality in
 halogen-substituted phosphoramidates
;
_journal_issue                   2
_journal_name_full               'Acta Crystallographica Section B'
_journal_page_first
;
;
_journal_paper_doi               10.1107/S2052520622000889
_journal_volume                  78
_journal_year                    2022
_chemical_formula_moiety         'C18 H15 Cl N O3 P'
_chemical_formula_sum            'C18 H15 Cl N O3 P'
_chemical_formula_weight         359.73
_space_group_crystal_system      triclinic
_space_group_IT_number           2
_space_group_name_Hall           '-P 1'
_space_group_name_H-M_alt        'P -1'
_atom_sites_solution_hydrogens   mixed
_atom_sites_solution_primary     dual
_audit_creation_date             2021-05-28
_audit_creation_method
;
Olex2 1.3
(compiled 2020.11.12 svn.r5f609507 for OlexSys, GUI svn.r6272)
;
_cell_angle_alpha                79.7420(10)
_cell_angle_beta                 86.9390(10)
_cell_angle_gamma                72.7840(10)
_cell_formula_units_Z            2
_cell_length_a                   8.4547(2)
_cell_length_b                   9.2155(2)
_cell_length_c                   11.0953(2)
_cell_measurement_reflns_used    9949
_cell_measurement_temperature    100(2)
_cell_measurement_theta_max      30.15
_cell_measurement_theta_min      2.74
_cell_volume                     812.55(3)
_computing_cell_refinement       'Bruker SAINT'
_computing_data_collection       'Bruker APEX2'
_computing_data_reduction        'Bruker SAINT'
_computing_molecular_graphics    'Olex2 1.3 (Dolomanov et al., 2009)'
_computing_publication_material  'Olex2 1.3 (Dolomanov et al., 2009)'
_computing_structure_refinement  'SHELXL 2018/3 (Sheldrick, 2015)'
_computing_structure_solution    'SHELXS-97 (Sheldrick 2008)'
_diffrn_ambient_temperature      99.95
_diffrn_measured_fraction_theta_full 0.983
_diffrn_measured_fraction_theta_max 0.980
_diffrn_measurement_device_type  'Bruker APEX-II CCD'
_diffrn_measurement_method       '\f and \w scans'
_diffrn_radiation_type           MoK\a
_diffrn_radiation_wavelength     0.71073
_diffrn_reflns_av_R_equivalents  0.0140
_diffrn_reflns_av_unetI/netI     0.0112
_diffrn_reflns_Laue_measured_fraction_full 0.983
_diffrn_reflns_Laue_measured_fraction_max 0.980
_diffrn_reflns_limit_h_max       11
_diffrn_reflns_limit_h_min       -11
_diffrn_reflns_limit_k_max       10
_diffrn_reflns_limit_k_min       -13
_diffrn_reflns_limit_l_max       15
_diffrn_reflns_limit_l_min       -15
_diffrn_reflns_number            23195
_diffrn_reflns_point_group_measured_fraction_full 0.983
_diffrn_reflns_point_group_measured_fraction_max 0.980
_diffrn_reflns_theta_full        25.242
_diffrn_reflns_theta_max         30.179
_diffrn_reflns_theta_min         2.348
_exptl_absorpt_coefficient_mu    0.350
_exptl_absorpt_correction_T_max  0.7460
_exptl_absorpt_correction_T_min  0.6176
_exptl_absorpt_correction_type   multi-scan
_exptl_absorpt_process_details   SADABS-2014/2
_exptl_crystal_colour            'clear colourless'
_exptl_crystal_colour_lustre     clear
_exptl_crystal_colour_primary    colourless
_exptl_crystal_density_diffrn    1.470
_exptl_crystal_description       plate
_exptl_crystal_F_000             372
_exptl_crystal_size_max          0.343
_exptl_crystal_size_mid          0.082
_exptl_crystal_size_min          0.076
_refine_diff_density_max         0.419
_refine_diff_density_min         -0.329
_refine_diff_density_rms         0.050
_refine_ls_extinction_method     none
_refine_ls_goodness_of_fit_ref   1.056
_refine_ls_hydrogen_treatment    mixed
_refine_ls_matrix_type           full
_refine_ls_number_parameters     221
_refine_ls_number_reflns         4715
_refine_ls_number_restraints     0
_refine_ls_restrained_S_all      1.056
_refine_ls_R_factor_all          0.0299
_refine_ls_R_factor_gt           0.0289
_refine_ls_shift/su_max          0.001
_refine_ls_shift/su_mean         0.000
_refine_ls_structure_factor_coef Fsqd
_refine_ls_weighting_details
'w=1/[\s^2^(Fo^2^)+(0.0418P)^2^+0.3613P] where P=(Fo^2^+2Fc^2^)/3'
_refine_ls_weighting_scheme      calc
_refine_ls_wR_factor_gt          0.0794
_refine_ls_wR_factor_ref         0.0803
_reflns_Friedel_coverage         0.000
_reflns_number_gt                4535
_reflns_number_total             4715
_reflns_threshold_expression     'I > 2\s(I)'
_cod_data_source_file            aw5064sup1.cif
_cod_data_source_block           2Cl
_cod_database_code               2108932
_shelx_shelxl_version_number     2018/3
_shelx_space_group_comment
;
The symmetry employed for this shelxl refinement is uniquely defined
by the following loop, which should always be used as a source of
symmetry information in preference to the above space-group names.
They are only intended as comments.
;
_shelx_estimated_absorpt_t_max   0.974
_shelx_estimated_absorpt_t_min   0.889
_olex2_refinement_description
;
1. Fixed Uiso
 At 1.2 times of:
  All C(H) groups
2.a Aromatic/amide H refined with riding coordinates:
 C2(H2), C3(H3), C4(H4), C5(H5), C6(H6), C9(H9), C10(H10), C11(H11), C12(H12),
 C14(H14), C15(H15), C16(H16), C17(H17), C18(H18)
;
_shelx_res_file
;
TITL AHP2C_I2 in P-1
    ahp2c_i2.res
    created by SHELXL-2018/3 at 19:54:28 on 28-May-2021
CELL 0.71073 8.4547 9.2155 11.0953 79.742 86.939 72.784
ZERR 2 0.0002 0.0002 0.0002 0.001 0.001 0.001
LATT 1
SFAC C H N O P Cl
UNIT 36 30 2 6 2 2

L.S. 10
PLAN  5
SIZE 0.343 0.082 0.076
TEMP 173.2
CONF
BOND $H
HTAB
MORE -1
fmap 2
acta
REM <olex2.extras>
REM <HklSrc "%.\\AHP2C_I2.hkl">
REM </olex2.extras>

WGHT    0.041800    0.361300
FVAR       0.53676
CL1   6   -0.134020    0.810838    0.754106    11.00000    0.02580    0.01862 =
         0.02613   -0.00422   -0.01356   -0.00057
P1    5    0.258395    0.836252    0.985390    11.00000    0.01102    0.01042 =
         0.01319   -0.00174   -0.00134   -0.00275
O1    4    0.395526    0.803107    0.882095    11.00000    0.01437    0.01389 =
         0.01536    0.00025    0.00090   -0.00227
O2    4    0.369685    0.714405    1.089507    11.00000    0.01318    0.01656 =
         0.01355    0.00035   -0.00201   -0.00247
O3    4    0.201532    0.995313    1.008353    11.00000    0.01581    0.01264 =
         0.02121   -0.00486   -0.00068   -0.00390
N1    3    0.104655    0.776853    0.953961    11.00000    0.01114    0.01144 =
         0.01815   -0.00458   -0.00207   -0.00211
C1    1    0.371319    0.908403    0.771143    11.00000    0.01376    0.01371 =
         0.01463   -0.00145    0.00189   -0.00294
C2    1    0.278959    0.888599    0.679281    11.00000    0.02018    0.01981 =
         0.01873   -0.00227   -0.00025   -0.00976
AFIX  43
H2    2    0.232651    0.807333    0.690355    11.00000   -1.20000
AFIX   0
C3    1    0.257105    0.993305    0.569935    11.00000    0.02339    0.02546 =
         0.01694   -0.00181   -0.00330   -0.01049
AFIX  43
H3    2    0.195238    0.982261    0.507150    11.00000   -1.20000
AFIX   0
C4    1    0.326976    1.114021    0.553969    11.00000    0.02499    0.02124 =
         0.01639    0.00053   -0.00048   -0.00823
AFIX  43
H4    2    0.310589    1.184374    0.481126    11.00000   -1.20000
AFIX   0
C5    1    0.421357    1.129723    0.646787    11.00000    0.02421    0.01797 =
         0.01916   -0.00164    0.00126   -0.01018
AFIX  43
H5    2    0.469255    1.209939    0.635418    11.00000   -1.20000
AFIX   0
C6    1    0.444747    1.026257    0.756680    11.00000    0.01789    0.01771 =
         0.01652   -0.00346    0.00032   -0.00687
AFIX  43
H6    2    0.508246    1.036018    0.819006    11.00000   -1.20000
AFIX   0
C7    1    0.115679    0.638980    0.909845    11.00000    0.01229    0.01237 =
         0.01522   -0.00351    0.00094   -0.00454
C8    1    0.011380    0.639917    0.815868    11.00000    0.01439    0.01536 =
         0.01668   -0.00318   -0.00127   -0.00377
C9    1    0.017283    0.506655    0.771908    11.00000    0.01752    0.02079 =
         0.02076   -0.00848    0.00025   -0.00789
AFIX  43
H9    2   -0.053711    0.510114    0.709567    11.00000   -1.20000
AFIX   0
C10   1    0.129880    0.368058    0.821586    11.00000    0.01700    0.01691 =
         0.02800   -0.01029    0.00426   -0.00717
AFIX  43
H10   2    0.134728    0.278124    0.792650    11.00000   -1.20000
AFIX   0
C11   1    0.235140    0.364257    0.914569    11.00000    0.01477    0.01310 =
         0.02910   -0.00558    0.00130   -0.00328
AFIX  43
H11   2    0.310798    0.271511    0.947791    11.00000   -1.20000
AFIX   0
C12   1    0.228222    0.498133    0.958357    11.00000    0.01371    0.01342 =
         0.02124   -0.00307   -0.00182   -0.00350
AFIX  43
H12   2    0.299401    0.494024    1.020775    11.00000   -1.20000
AFIX   0
C13   1    0.321052    0.672662    1.209504    11.00000    0.01512    0.01600 =
         0.01361   -0.00135   -0.00290   -0.00689
C14   1    0.415360    0.529932    1.268931    11.00000    0.01747    0.01800 =
         0.01838    0.00024   -0.00337   -0.00517
AFIX  43
H14   2    0.500978    0.468201    1.228184    11.00000   -1.20000
AFIX   0
C15   1    0.379676    0.480951    1.390184    11.00000    0.02452    0.02414 =
         0.01913    0.00455   -0.00645   -0.01013
AFIX  43
H15   2    0.442602    0.386078    1.431412    11.00000   -1.20000
AFIX   0
C16   1    0.250524    0.572753    1.450392    11.00000    0.02906    0.03344 =
         0.01547   -0.00143   -0.00105   -0.01652
AFIX  43
H16   2    0.226645    0.539200    1.531513    11.00000   -1.20000
AFIX   0
C17   1    0.157514    0.714389    1.389140    11.00000    0.02453    0.02797 =
         0.02023   -0.00948    0.00343   -0.01147
AFIX  43
H17   2    0.070890    0.775410    1.429579    11.00000   -1.20000
AFIX   0
C18   1    0.192018    0.766840    1.267478    11.00000    0.01886    0.01704 =
         0.01951   -0.00494   -0.00099   -0.00604
AFIX  43
H18   2    0.130135    0.862304    1.226500    11.00000   -1.20000
AFIX   0
H1    2    0.008486    0.841556    0.958262    11.00000    0.02954
HKLF 4




REM  AHP2C_I2 in P-1
REM wR2 = 0.0803, GooF = S = 1.056, Restrained GooF = 1.056 for all data
REM R1 = 0.0289 for 4535 Fo > 4sig(Fo) and 0.0299 for all 4715 data
REM 221 parameters refined using 0 restraints

END

WGHT      0.0418      0.3615

REM Instructions for potential hydrogen bonds
HTAB C12 O2
HTAB C18 O3
EQIV $1 -x, -y+2, -z+2
HTAB N1 O3_$1

REM Highest difference peak  0.419,  deepest hole -0.329,  1-sigma level  0.050
Q1    1   0.0638  0.6424  0.8606  11.00000  0.05    0.42
Q2    1   0.3307  0.8997  0.7223  11.00000  0.05    0.41
Q3    1   0.4340  1.0790  0.7016  11.00000  0.05    0.40
Q4    1   0.2545  0.7186  1.2396  11.00000  0.05    0.40
Q5    1   0.1721  0.7948  0.9738  11.00000  0.05    0.40
;
_shelx_res_checksum              75831
_shelx_hkl_file
;
  -1   0   0    8.21    0.23
   1   0   0    8.18    0.23
  -3   0   0   14.38    0.51
   3   0   0   14.31    0.51
  -4   0   0   75.27    1.33
  -4   0   0   76.73    1.87
  -4   0   0   75.27    1.33
  -4   0   0   76.67    1.38
   4   0   0   75.21    1.24
   4   0   0   73.89    1.39
   4   0   0   76.72    1.33
   4   0   0   76.72    1.33
   4   0   0   75.21    1.24
   4   0   0   75.50    1.62
  -5   0   0   53.62    1.10
  -5   0   0   53.62    1.10
  -5   0   0   56.47    1.18
  -5   0   0   54.90    1.18
  -5   0   0   56.93    1.17
   5   0   0   56.21    0.98
   5   0   0   57.21    1.12
   5   0   0   56.35    1.45
   5   0   0   57.21    1.12
   5   0   0   56.11    1.20
   5   0   0   56.21    0.98
  -6   0   0   86.88    1.63
  -6   0   0   86.88    1.63
  -6   0   0   89.65    1.70
  -6   0   0   86.91    1.72
   6   0   0   85.46    1.62
   6   0   0   88.02    1.75
   6   0   0   90.04    2.09
   6   0   0   87.03    1.46
   6   0   0   87.03    1.46
   6   0   0   85.46    1.62
  -7   0   0   88.84    1.72
  -7   0   0   88.84    1.72
  -7   0   0   87.00    1.83
   7   0   0   88.33    1.51
   7   0   0   88.33    1.51
   7   0   0   87.91    1.71
   7   0   0   86.84    1.85
   7   0   0   90.31    2.25
   7   0   0   87.91    1.71
  -8   0   0  286.14    4.73
  -8   0   0  285.93    4.57
  -8   0   0  285.93    4.57
   8   0   0  284.08    4.55
   8   0   0  291.94    4.28
   8   0   0  291.94    4.28
   8   0   0  284.08    4.55
   8   0   0  293.29    4.81
  -9   0   0   10.06    0.55
  -9   0   0   10.06    0.55
  -9   0   0    9.04    0.59
   9   0   0    9.65    0.39
   9   0   0    8.76    0.60
   9   0   0    9.65    0.39
 -10   0   0    7.28    0.53
 -10   0   0    7.28    0.53
 -10   0   0    6.82    0.57
  10   0   0    6.48    0.35
  10   0   0    6.48    0.35
  10   0   0    6.61    0.59
 -11   0   0    0.06    0.21
 -11   0   0    0.06    0.21
 -11   0   0    1.57    0.37
  11   0   0   -0.08    0.10
  11   0   0   -0.08    0.10
  11   0   0    0.10    0.22
  11  -1   0    6.11    0.66
  11  -1   0    6.72    0.33
  11  -1   0    6.72    0.33
 -11   1   0    7.13    0.59
 -11   1   0    7.13    0.59
 -11   1   0    7.07    0.64
  10  -1   0   20.62    0.96
  10  -1   0   20.55    0.58
  10  -1   0   20.55    0.58
 -10   1   0   21.80    0.89
 -10   1   0   21.80    0.89
 -10   1   0   22.53    1.00
   9  -1   0   12.84    0.43
   9  -1   0   13.65    0.73
   9  -1   0   12.84    0.43
  -9   1   0   13.02    0.64
  -9   1   0   13.55    0.74
  -9   1   0   13.02    0.64
   8  -1   0   12.25    0.63
   8  -1   0   12.46    0.40
   8  -1   0   11.60    0.57
   8  -1   0   12.46    0.40
   8  -1   0   11.60    0.57
  -8   1   0   11.49    0.56
  -8   1   0   11.49    0.56
  -8   1   0   11.91    0.65
   7  -1   0   65.60    1.42
   7  -1   0   65.60    1.42
   7  -1   0   64.60    1.50
   7  -1   0   64.82    1.17
   7  -1   0   64.82    1.17
  -7   1   0   70.17    1.58
  -7   1   0   66.04    1.43
  -7   1   0   66.04    1.43
   6  -1   0  131.75    2.26
   6  -1   0  130.67    2.01
   6  -1   0  126.53    2.32
   6  -1   0  131.75    2.26
   6  -1   0  130.67    2.01
   6  -1   0  128.07    2.77
  -6   1   0  130.21    2.26
  -6   1   0  126.77    2.37
  -6   1   0  130.21    2.26
   5  -1   0  117.13    2.43
   5  -1   0  116.11    1.99
   5  -1   0  116.57    1.78
   5  -1   0  115.70    2.04
   5  -1   0  116.11    1.99
   5  -1   0  116.57    1.78
  -5   1   0  117.03    2.00
  -5   1   0  117.22    2.11
  -5   1   0  117.03    2.00
   4  -1   0   27.44    0.52
   4  -1   0   26.21    0.87
   4  -1   0   27.78    0.67
   4  -1   0   27.62    0.66
   4  -1   0   27.62    0.66
   4  -1   0   27.44    0.52
  -4   1   0   27.19    0.66
  -4   1   0   25.93    0.96
  -4   1   0   27.19    0.66
  -4   1   0   28.34    0.69
  -4   1   0   27.17    0.72
   3  -1   0    5.76    0.28
   3  -1   0    5.70    0.24
   3  -1   0    5.70    0.24
   3  -1   0    5.35    0.33
  -3   1   0    5.12    0.23
  -3   1   0    5.72    0.37
  -3   1   0    5.87    0.27
  -3   1   0    5.12    0.23
  -3   1   0    5.70    0.27
   2  -1   0   -0.38    0.06
  -2   1   0   -0.25    0.08
  -2   1   0   -0.14    0.08
   0  -1   0   33.76    0.75
   0  -1   0   34.54    0.57
   0   1   0   37.76    0.58
   0   1   0   36.57    0.58
   0   1   0   36.31    0.62
   0   1   0   36.11    0.76
  -1  -1   0  207.40    2.95
  -1  -1   0  209.20    3.15
   1   1   0  205.64    3.14
   1   1   0  194.42    2.93
  -3  -1   0  201.70    3.03
  -3  -1   0  198.22    3.10
  -3  -1   0  202.98    3.25
   3   1   0  190.32    3.11
  -4  -1   0   34.42    0.71
  -4  -1   0   34.33    0.95
  -4  -1   0   34.08    0.74
  -4  -1   0   33.78    0.81
  -4  -1   0   34.42    0.71
   4   1   0   33.00    0.66
   4   1   0   32.85    0.91
  -5  -1   0    2.59    0.20
  -5  -1   0    2.72    0.22
  -5  -1   0    2.90    0.25
  -5  -1   0    2.59    0.20
  -5  -1   0    2.99    0.29
   5   1   0    2.99    0.18
   5   1   0    2.99    0.18
   5   1   0    2.68    0.24
   5   1   0    2.91    0.31
   5   1   0    2.74    0.20
   5   1   0    2.74    0.20
  -6  -1   0   31.32    0.78
  -6  -1   0   31.32    0.78
  -6  -1   0   33.17    0.79
  -6  -1   0   32.86    0.86
  -6  -1   0   31.90    0.91
   6   1   0   31.61    0.79
   6   1   0   33.12    0.92
   6   1   0   32.86    0.71
   6   1   0   31.61    0.79
   6   1   0   34.60    1.13
   6   1   0   32.86    0.71
  -7  -1   0   21.91    0.69
  -7  -1   0   21.91    0.69
  -7  -1   0   23.18    0.77
   7   1   0   23.47    0.83
   7   1   0   23.87    0.61
   7   1   0   24.92    1.05
   7   1   0   23.87    0.61
   7   1   0   24.27    0.71
   7   1   0   24.27    0.71
  -8  -1   0    1.30    0.24
  -8  -1   0    1.54    0.26
  -8  -1   0    1.30    0.24
   8   1   0    1.48    0.28
  -9  -1   0    9.68    0.58
  -9  -1   0   10.10    0.54
  -9  -1   0   10.10    0.54
   9   1   0    9.10    0.61
   9   1   0    9.17    0.41
   9   1   0    9.17    0.41
 -10  -1   0  116.20    2.34
 -10  -1   0  116.21    2.48
 -10  -1   0  116.20    2.34
  10   1   0  117.58    2.65
  10   1   0  116.44    2.07
  10   1   0  116.44    2.07
 -11  -1   0   22.30    0.99
 -11  -1   0   21.59    0.90
 -11  -1   0   21.59    0.90
  11   1   0   23.58    1.19
  11   1   0   22.56    0.72
  11   1   0   22.56    0.72
  10  -2   0   65.90    1.82
  10  -2   0   65.40    1.13
  10  -2   0   65.40    1.13
 -10   2   0   67.87    1.88
 -10   2   0   65.66    1.68
 -10   2   0   65.66    1.68
   9  -2   0    0.56    0.23
   9  -2   0    0.38    0.09
   9  -2   0    0.38    0.09
   9  -2   0    0.51    0.22
   9  -2   0    0.56    0.23
  -9   2   0    0.68    0.25
  -9   2   0    0.63    0.27
  -9   2   0    0.68    0.25
   8  -2   0   43.48    0.82
   8  -2   0   43.00    1.23
   8  -2   0   43.30    1.17
   8  -2   0   43.30    1.17
   8  -2   0   43.48    0.82
  -8   2   0   42.72    1.17
  -8   2   0   44.09    1.32
  -8   2   0   42.72    1.17
   7  -2   0   20.89    0.48
   7  -2   0   21.15    0.76
   7  -2   0   22.08    0.74
   7  -2   0   22.08    0.74
   7  -2   0   20.89    0.48
  -7   2   0   21.58    0.74
  -7   2   0   21.37    0.83
  -7   2   0   21.58    0.74
   6  -2   0   56.39    1.66
   6  -2   0   56.28    1.26
   6  -2   0   55.37    1.23
   6  -2   0   55.36    0.94
   6  -2   0   55.36    0.94
   6  -2   0   55.37    1.23
  -6   2   0   55.40    1.24
  -6   2   0   55.40    1.24
  -6   2   0   55.81    1.36
   5  -2   0    4.22    0.27
   5  -2   0    3.84    0.27
   5  -2   0    4.47    0.17
   5  -2   0    4.47    0.17
   5  -2   0    4.22    0.27
   5  -2   0    3.79    0.40
  -5   2   0    3.92    0.28
  -5   2   0    3.86    0.30
  -5   2   0    3.92    0.28
   4  -2   0  344.17    4.76
   4  -2   0  344.37    5.04
   4  -2   0  344.37    5.04
   4  -2   0  344.17    4.76
   4  -2   0  339.20    5.49
   4  -2   0  354.02    5.03
  -4   2   0  346.77    5.05
  -4   2   0  337.69    5.57
  -4   2   0  337.28    5.19
  -4   2   0  345.99    5.17
  -4   2   0  346.77    5.05
   3  -2   0  476.41    6.56
   3  -2   0  449.38    6.89
   3  -2   0  467.82    6.50
   3  -2   0  476.41    6.56
  -3   2   0  456.76    6.54
  -3   2   0  456.76    6.54
  -3   2   0  455.14    6.64
  -3   2   0  453.82    6.88
  -3   2   0  460.85    6.82
   2  -2   0   34.34    0.86
   2  -2   0   38.26    0.99
  -2   2   0   37.09    0.87
  -2   2   0   35.74    0.94
  -2   2   0   36.72    0.81
   1  -2   0  300.05    4.42
  -1   2   0  307.76    4.72
  -1   2   0  303.20    4.42
   0  -2   0   53.90    0.92
   0  -2   0   56.12    1.29
   0   2   0   54.40    0.92
   0   2   0   57.91    1.28
   0   2   0   53.68    0.92
   0   2   0   54.64    1.01
  -1  -2   0  109.23    1.81
  -1  -2   0  110.23    2.13
   1   2   0  110.63    2.11
   1   2   0  110.39    1.80
   1   2   0  111.12    1.63
  -2  -2   0    1.16    0.08
  -2  -2   0    1.26    0.11
  -2  -2   0    1.12    0.20
  -2  -2   0    1.15    0.08
  -2  -2   0    1.17    0.14
   2   2   0    1.25    0.20
   2   2   0    1.08    0.13
   2   2   0    1.23    0.11
  -3  -2   0  166.98    2.67
  -3  -2   0  175.64    3.14
   3   2   0  164.89    2.68
   3   2   0  173.20    2.73
  -4  -2   0  584.20    8.11
  -4  -2   0  587.10    8.87
  -4  -2   0  584.20    8.11
  -4  -2   0  584.86    8.42
   4   2   0  575.73    8.44
   4   2   0  577.01    8.14
  -5  -2   0  589.69    8.39
  -5  -2   0  602.58    8.73
  -5  -2   0  600.79    9.18
  -5  -2   0  601.98    8.46
  -5  -2   0  589.69    8.39
  -5  -2   0  607.53    8.43
   5   2   0  565.36    8.80
   5   2   0  600.10    8.35
   5   2   0  606.23    8.40
   5   2   0  603.25    8.64
   5   2   0  600.10    8.35
  -6  -2   0    1.39    0.18
  -6  -2   0    1.82    0.20
  -6  -2   0    1.82    0.20
  -6  -2   0    1.52    0.31
  -6  -2   0    1.78    0.26
  -6  -2   0    1.45    0.19
   6   2   0    1.33    0.16
   6   2   0    1.80    0.18
   6   2   0    1.77    0.29
   6   2   0    1.33    0.16
   6   2   0    1.49    0.24
  -7  -2   0  223.88    3.59
  -7  -2   0  228.36    3.69
  -7  -2   0  233.29    3.63
  -7  -2   0  223.88    3.59
  -7  -2   0  231.25    3.93
   7   2   0  229.29    3.48
   7   2   0  229.29    3.48
   7   2   0  227.77    4.19
   7   2   0  231.47    3.89
  -8  -2   0   20.86    0.74
  -8  -2   0   20.98    0.75
  -8  -2   0   19.51    0.68
  -8  -2   0   19.51    0.68
   8   2   0   20.52    0.84
   8   2   0   21.54    0.62
   8   2   0   21.54    0.62
  -9  -2   0   31.65    1.02
  -9  -2   0   32.99    0.97
  -9  -2   0   32.99    0.97
   9   2   0   32.93    0.85
   9   2   0   35.15    1.20
   9   2   0   32.93    0.85
 -10  -2   0   53.64    1.38
 -10  -2   0   53.64    1.38
 -10  -2   0   55.07    1.49
  10   2   0   55.15    1.23
  10   2   0   55.15    1.23
 -11  -2   0    0.52    0.26
 -11  -2   0    0.52    0.26
 -11  -2   0    0.71    0.31
  11   2   0    0.51    0.20
  11   2   0    0.51    0.20
  10  -3   0    4.42    0.52
 -10   3   0    4.25    0.49
 -10   3   0    3.70    0.53
 -10   3   0    4.25    0.49
   9  -3   0    2.07    0.34
   9  -3   0    2.07    0.34
   9  -3   0    2.15    0.34
  -9   3   0    2.61    0.42
  -9   3   0    1.95    0.36
  -9   3   0    1.95    0.36
   8  -3   0  116.00    2.36
   8  -3   0  114.31    2.30
   8  -3   0  114.31    2.30
  -8   3   0  118.52    2.33
  -8   3   0  118.52    2.33
  -8   3   0  118.22    2.53
   7  -3   0   24.88    0.83
   7  -3   0   24.88    0.83
   7  -3   0   24.52    0.82
  -7   3   0   24.05    0.93
  -7   3   0   24.65    0.82
  -7   3   0   24.65    0.82
   6  -3   0  152.83    2.63
   6  -3   0  151.47    2.11
   6  -3   0  149.18    3.22
   6  -3   0  148.85    2.60
   6  -3   0  151.47    2.11
   6  -3   0  152.83    2.63
  -6   3   0  149.84    2.79
  -6   3   0  149.61    2.63
  -6   3   0  149.61    2.63
   5  -3   0    2.18    0.23
   5  -3   0    2.34    0.36
   5  -3   0    2.61    0.23
   5  -3   0    2.18    0.23
  -5   3   0    2.14    0.24
  -5   3   0    2.34    0.28
  -5   3   0    2.14    0.24
   4  -3   0    2.11    0.21
   4  -3   0    2.57    0.19
   4  -3   0    2.11    0.21
  -4   3   0    2.55    0.28
  -4   3   0    2.27    0.22
  -4   3   0    2.27    0.22
   3  -3   0   20.91    0.48
   3  -3   0   20.46    0.55
   3  -3   0   20.17    0.74
   3  -3   0   20.46    0.55
  -3   3   0   20.24    0.78
  -3   3   0   20.22    0.55
  -3   3   0   20.22    0.55
  -3   3   0   20.78    0.61
  -3   3   0   21.15    0.69
   2  -3   0    1.54    0.15
   2  -3   0    1.73    0.22
   2  -3   0    1.54    0.15
   2  -3   0    1.42    0.09
  -2   3   0    1.51    0.17
  -2   3   0    1.28    0.13
  -2   3   0    1.49    0.14
  -2   3   0    1.49    0.14
  -2   3   0    1.30    0.22
   1  -3   0   58.17    1.50
   1  -3   0   55.15    1.12
  -1   3   0   56.90    1.13
  -1   3   0   56.15    1.46
  -1   3   0   56.94    0.92
  -1   3   0   56.25    1.12
   0  -3   0  472.19    7.43
   0   3   0  475.51    6.85
   0   3   0  474.35    7.39
  -1  -3   0    5.29    0.30
  -1  -3   0    4.90    0.20
  -1  -3   0    4.85    0.42
   1   3   0    5.71    0.20
   1   3   0    5.58    0.43
   1   3   0    4.69    0.27
  -2  -3   0   38.79    0.94
  -2  -3   0   39.05    1.26
   2   3   0   40.03    1.06
   2   3   0   38.37    1.22
   2   3   0   37.20    0.65
   2   3   0   37.90    0.66
   2   3   0   37.67    0.73
  -3  -3   0  258.60    4.60
  -3  -3   0  260.78    4.05
  -3  -3   0  254.12    3.81
  -3  -3   0  253.48    3.62
  -3  -3   0  248.44    3.66
  -3  -3   0  252.84    3.62
   3   3   0  258.72    4.51
   3   3   0  255.67    3.82
  -4  -3   0   64.38    1.14
  -4  -3   0   64.81    1.08
  -4  -3   0   61.79    1.79
  -4  -3   0   63.98    1.13
  -4  -3   0   64.81    1.08
  -4  -3   0   63.79    1.43
   4   3   0   63.87    1.32
   4   3   0   62.83    1.16
  -5  -3   0   26.00    0.64
  -5  -3   0   25.97    0.65
  -5  -3   0   26.09    0.86
  -5  -3   0   26.41    0.61
  -5  -3   0   26.24    1.13
  -5  -3   0   26.41    0.61
   5   3   0   25.58    0.83
   5   3   0   27.11    0.66
  -6  -3   0   53.08    1.08
  -6  -3   0   51.29    1.04
  -6  -3   0   51.29    1.04
  -6  -3   0   51.71    1.70
  -6  -3   0   52.45    1.10
  -6  -3   0   51.91    1.09
  -6  -3   0   50.46    1.34
   6   3   0   51.59    1.38
   6   3   0   51.54    1.02
   6   3   0   51.54    1.02
   6   3   0   50.49    1.07
   6   3   0   51.01    1.26
  -7  -3   0  106.11    1.88
  -7  -3   0  107.96    1.94
  -7  -3   0  106.14    1.93
  -7  -3   0  103.34    2.27
  -7  -3   0  106.11    1.88
   7   3   0  107.22    1.84
   7   3   0  107.22    1.84
   7   3   0  107.57    2.38
   7   3   0  106.21    1.87
   7   3   0  103.00    2.21
  -8  -3   0   34.70    0.94
  -8  -3   0   34.53    0.90
  -8  -3   0   34.53    0.90
  -8  -3   0   33.82    0.94
   8   3   0   32.89    0.83
   8   3   0   32.89    0.83
  -9  -3   0   93.38    1.87
  -9  -3   0   94.69    1.94
  -9  -3   0   93.38    1.87
  -9  -3   0   92.62    1.94
   9   3   0   95.42    1.77
   9   3   0   95.42    1.77
 -10  -3   0    3.97    0.42
 -10  -3   0    4.93    0.45
 -10  -3   0    4.93    0.45
  10   3   0    3.55    0.33
  10   3   0    3.55    0.33
 -11  -3   0    2.48    0.37
 -11  -3   0    2.48    0.37
  11   3   0    2.22    0.30
  11   3   0    2.22    0.30
   9  -4   0    6.04    0.52
   9  -4   0    6.46    0.52
   9  -4   0    6.46    0.52
  -9   4   0    7.54    0.64
  -9   4   0    6.38    0.57
  -9   4   0    6.38    0.57
   8  -4   0   14.57    0.68
   8  -4   0   14.47    0.68
   8  -4   0   14.57    0.68
  -8   4   0   12.83    0.76
  -8   4   0   13.02    0.66
  -8   4   0   13.02    0.66
   7  -4   0   93.47    1.93
   7  -4   0   89.27    1.87
   7  -4   0   93.47    1.93
  -7   4   0   91.48    1.92
  -7   4   0   91.48    1.92
  -7   4   0   94.53    2.13
   6  -4   0   17.45    0.66
   6  -4   0   16.70    0.61
   6  -4   0   17.45    0.66
  -6   4   0   17.54    0.66
  -6   4   0   17.34    0.75
  -6   4   0   17.54    0.66
   5  -4   0  626.33    9.76
   5  -4   0  624.55    9.07
   5  -4   0  622.50    8.96
   5  -4   0  624.55    9.07
  -5   4   0  630.08    9.27
  -5   4   0  637.98    9.09
  -5   4   0  637.98    9.09
   4  -4   0   25.05    0.70
   4  -4   0   24.62    0.96
   4  -4   0   25.43    0.63
   4  -4   0   25.05    0.70
  -4   4   0   24.16    0.77
  -4   4   0   24.61    0.70
  -4   4   0   24.61    0.70
  -4   4   0   24.39    0.96
   3  -4   0  273.29    4.11
   3  -4   0  273.29    4.11
   3  -4   0  280.85    4.93
   3  -4   0  270.92    4.53
   3  -4   0  279.33    3.96
  -3   4   0  275.48    4.11
  -3   4   0  269.72    4.23
  -3   4   0  271.33    4.55
  -3   4   0  277.76    4.34
  -3   4   0  272.28    4.83
  -3   4   0  275.48    4.11
   2  -4   0   26.01    0.47
   2  -4   0   26.49    0.61
   2  -4   0   23.29    1.03
   2  -4   0   26.49    0.61
   2  -4   0   25.29    0.80
  -2   4   0   25.68    1.04
  -2   4   0   25.26    0.67
  -2   4   0   25.87    0.61
  -2   4   0   25.82    0.81
  -2   4   0   26.02    0.64
  -2   4   0   25.87    0.61
   1  -4   0    1.12    0.16
   1  -4   0    1.33    0.30
  -1   4   0    1.46    0.15
  -1   4   0    1.34    0.12
  -1   4   0    1.43    0.18
  -1   4   0    1.48    0.19
   0  -4   0   50.26    0.99
   0  -4   0   51.61    1.61
   0  -4   0   44.48    0.98
   0  -4   0   50.27    0.80
   0   4   0   50.76    1.01
   0   4   0   50.56    1.55
   0   4   0   51.86    1.01
  -1  -4   0    0.53    0.20
  -1  -4   0    0.07    0.05
  -1  -4   0    0.14    0.05
   1   4   0    0.03    0.11
   1   4   0    0.05    0.05
   1   4   0    0.15    0.05
  -2  -4   0  128.99    2.37
  -2  -4   0  126.04    2.00
  -2  -4   0  127.74    2.94
  -2  -4   0  125.97    2.02
   2   4   0  127.23    2.86
   2   4   0  127.38    1.98
   2   4   0  123.35    1.82
   2   4   0  127.37    1.82
  -3  -4   0    1.14    0.13
  -3  -4   0    1.55    0.10
  -3  -4   0    1.13    0.29
  -3  -4   0    1.32    0.22
  -3  -4   0    1.14    0.13
  -3  -4   0    1.25    0.16
   3   4   0    1.23    0.31
   3   4   0    1.19    0.14
  -4  -4   0    0.48    0.07
  -4  -4   0    0.60    0.09
  -4  -4   0    1.06    0.30
  -4  -4   0    0.55    0.17
  -4  -4   0    0.38    0.11
  -4  -4   0    0.50    0.09
  -4  -4   0    0.59    0.09
  -4  -4   0    0.50    0.09
   4   4   0    0.55    0.23
   4   4   0    0.51    0.13
  -5  -4   0   81.08    1.45
  -5  -4   0   81.42    1.41
  -5  -4   0   84.41    1.68
  -5  -4   0   83.35    1.38
  -5  -4   0   83.35    1.38
  -5  -4   0   81.57    1.42
  -5  -4   0   81.91    2.37
  -5  -4   0   82.55    1.87
  -5  -4   0   81.42    1.41
   5   4   0   80.60    1.69
   5   4   0   80.95    1.49
  -6  -4   0    0.01    0.08
  -6  -4   0    0.14    0.09
  -6  -4   0    0.46    0.11
  -6  -4   0    0.46    0.11
  -6  -4   0    0.01    0.08
  -6  -4   0    0.31    0.23
  -6  -4   0    0.12    0.14
   6   4   0    1.51    0.18
   6   4   0    1.51    0.18
   6   4   0    0.11    0.13
  -7  -4   0    0.60    0.15
  -7  -4   0    0.45    0.14
  -7  -4   0    0.45    0.14
  -7  -4   0    0.51    0.14
  -7  -4   0    0.39    0.21
   7   4   0    0.50    0.13
   7   4   0    0.39    0.21
   7   4   0    0.38    0.13
   7   4   0    0.50    0.13
  -8  -4   0   35.24    1.27
  -8  -4   0   36.41    0.91
  -8  -4   0   36.41    0.91
  -8  -4   0   35.96    0.97
   8   4   0   32.57    0.86
   8   4   0   38.48    0.94
   8   4   0   32.57    0.86
   8   4   0   33.96    1.26
  -9  -4   0    3.19    0.33
  -9  -4   0    3.68    0.35
  -9  -4   0    3.68    0.35
   9   4   0    3.37    0.33
   9   4   0    3.37    0.33
 -10  -4   0   35.92    1.10
 -10  -4   0   35.00    1.02
 -10  -4   0   35.00    1.02
  10   4   0   37.71    1.00
  10   4   0   37.71    1.00
 -11  -4   0   29.13    0.98
 -11  -4   0   29.13    0.98
 -11  -4   0   32.11    1.08
  11   4   0   27.88    0.90
  11   4   0   27.88    0.90
   9  -5   0   12.55    0.71
   9  -5   0   13.86    0.73
   9  -5   0   12.55    0.71
  -9   5   0   14.29    0.76
  -9   5   0   14.58    0.88
  -9   5   0   14.29    0.76
   8  -5   0   27.14    0.98
   8  -5   0   27.97    0.96
   8  -5   0   27.14    0.98
  -8   5   0   27.90    0.99
  -8   5   0   27.90    0.99
  -8   5   0   28.14    1.14
   7  -5   0   14.34    0.67
   7  -5   0   15.26    0.64
   7  -5   0   14.34    0.67
  -7   5   0   15.08    0.68
  -7   5   0   15.60    0.80
  -7   5   0   15.08    0.68
   6  -5   0   43.59    1.08
   6  -5   0   45.10    1.17
   6  -5   0   45.10    1.17
  -6   5   0   45.90    1.18
  -6   5   0   45.90    1.18
  -6   5   0   44.96    1.31
   5  -5   0   12.31    0.53
   5  -5   0   12.31    0.53
   5  -5   0   11.44    0.75
   5  -5   0   10.77    0.44
  -5   5   0   11.68    0.76
  -5   5   0   11.59    0.52
  -5   5   0   11.46    0.59
  -5   5   0   11.59    0.52
   4  -5   0   38.39    0.94
   4  -5   0   38.39    0.94
   4  -5   0   37.64    1.26
   4  -5   0   37.52    0.81
  -4   5   0   37.27    1.04
  -4   5   0   37.64    0.93
  -4   5   0   35.22    1.24
  -4   5   0   37.64    0.93
   3  -5   0  550.08    7.82
   3  -5   0  547.51    7.61
   3  -5   0  548.16    8.33
   3  -5   0  550.08    7.82
  -3   5   0  534.98    7.80
  -3   5   0  543.58    8.34
  -3   5   0  548.30    7.97
  -3   5   0  549.51    8.05
  -3   5   0  534.98    7.80
   2  -5   0  102.81    2.06
   2  -5   0  103.48    1.55
   2  -5   0  106.53    1.76
   2  -5   0  104.13    1.55
   2  -5   0  101.90    2.68
   2  -5   0  106.53    1.76
  -2   5   0  102.41    2.59
  -2   5   0  104.17    1.75
  -2   5   0  104.06    1.86
  -2   5   0  104.38    2.10
  -2   5   0  101.36    1.83
  -2   5   0  104.17    1.75
   1  -5   0   84.99    1.41
   1  -5   0   84.99    1.41
   1  -5   0   77.35    1.40
   1  -5   0   82.77    1.65
   1  -5   0   87.14    2.42
   1  -5   0   81.74    1.25
  -1   5   0   86.67    1.69
  -1   5   0   82.39    1.40
  -1   5   0   82.39    1.40
  -1   5   0   86.22    2.31
  -1   5   0   82.15    1.48
   0  -5   0  112.02    1.69
   0  -5   0  110.54    1.93
   0  -5   0  114.00    2.88
   0   5   0  113.01    2.79
   0   5   0  111.03    1.95
   0   5   0  112.24    1.96
  -1  -5   0  334.92    6.12
  -1  -5   0  328.42    4.44
  -1  -5   0  328.42    4.44
  -1  -5   0  324.04    4.66
  -1  -5   0  327.51    4.78
   1   5   0  316.08    4.77
   1   5   0  314.81    4.72
   1   5   0  326.98    6.09
  -2  -5   0    0.70    0.07
  -2  -5   0    0.45    0.16
  -2  -5   0    0.70    0.07
  -2  -5   0    0.40    0.10
  -2  -5   0    0.56    0.11
  -2  -5   0    0.20    0.19
  -3  -5   0  209.31    3.08
  -3  -5   0  212.19    3.75
  -3  -5   0  211.74    4.54
  -3  -5   0  209.05    3.33
  -3  -5   0  215.09    3.28
  -3  -5   0  209.31    3.08
   3   5   0  213.31    3.24
   3   5   0  216.38    3.13
   3   5   0  216.91    3.16
  -4  -5   0   55.14    0.94
  -4  -5   0   55.45    1.22
  -4  -5   0   55.85    1.50
  -4  -5   0   53.17    1.97
  -4  -5   0   55.30    0.99
  -4  -5   0   55.30    0.99
   4   5   0   53.77    1.16
  -5  -5   0  156.17    3.81
  -5  -5   0  153.32    3.03
  -5  -5   0  154.86    2.40
  -5  -5   0  154.86    2.40
  -5  -5   0  151.38    2.40
  -5  -5   0  153.90    2.72
   5   5   0  151.60    2.68
   5   5   0  152.20    2.51
  -6  -5   0   18.81    0.52
  -6  -5   0   18.02    0.55
  -6  -5   0   18.30    0.87
  -6  -5   0   18.75    0.74
  -6  -5   0   17.90    0.53
  -6  -5   0   18.85    0.51
  -6  -5   0   18.85    0.51
  -6  -5   0   18.99    1.20
  -6  -5   0   17.90    0.53
   6   5   0   18.04    0.74
  -7  -5   0   38.27    0.88
  -7  -5   0   40.60    0.91
  -7  -5   0   38.84    1.35
  -7  -5   0   40.60    0.91
  -7  -5   0   39.18    0.95
  -7  -5   0   38.50    0.91
  -7  -5   0   38.27    0.88
  -7  -5   0   37.46    1.77
   7   5   0   38.64    0.98
   7   5   0   38.50    1.22
  -8  -5   0   14.37    0.52
  -8  -5   0   14.37    0.52
  -8  -5   0   14.38    0.57
  -8  -5   0   13.91    0.83
   8   5   0   14.04    0.58
   8   5   0   13.81    0.79
  -9  -5   0    0.79    0.20
  -9  -5   0    0.88    0.20
  -9  -5   0    0.88    0.20
   9   5   0    0.61    0.19
 -10  -5   0    4.29    0.56
 -10  -5   0    5.02    0.42
 -10  -5   0    4.29    0.56
 -11  -5   0    0.17    0.20
   8  -6   0   58.96    1.57
   8  -6   0   59.96    1.51
   8  -6   0   58.96    1.57
  -8   6   0   60.55    1.59
  -8   6   0   60.55    1.59
  -8   6   0   60.32    1.78
   7  -6   0   18.71    0.79
   7  -6   0   18.10    0.70
   7  -6   0   18.71    0.79
  -7   6   0   17.64    0.78
  -7   6   0   17.12    0.88
  -7   6   0   17.64    0.78
   6  -6   0   76.40    1.72
   6  -6   0   76.40    1.72
   6  -6   0   77.94    1.59
  -6   6   0   77.12    1.90
  -6   6   0   82.13    1.75
  -6   6   0   82.13    1.75
   5  -6   0    1.74    0.26
   5  -6   0    1.74    0.26
   5  -6   0    1.72    0.21
  -5   6   0    1.32    0.27
  -5   6   0    1.53    0.25
  -5   6   0    1.53    0.25
   4  -6   0   13.59    0.55
   4  -6   0   13.59    0.55
   4  -6   0   13.79    0.77
   4  -6   0   12.50    0.42
  -4   6   0   12.95    0.77
  -4   6   0   12.05    0.52
  -4   6   0   12.05    0.52
  -4   6   0   13.52    0.62
   3  -6   0   12.82    0.48
   3  -6   0   11.88    0.36
   3  -6   0   12.82    0.48
   3  -6   0   12.20    0.67
  -3   6   0   12.67    0.69
  -3   6   0   12.44    0.48
  -3   6   0   12.61    0.55
  -3   6   0   12.44    0.48
   2  -6   0   14.22    1.01
   2  -6   0   13.64    0.34
   2  -6   0   14.44    0.47
   2  -6   0   14.44    0.47
   2  -6   0   13.44    0.63
  -2   6   0   13.51    0.53
  -2   6   0   13.72    0.66
  -2   6   0   13.71    0.47
  -2   6   0   13.71    0.47
  -2   6   0   13.24    0.53
   1  -6   0  102.64    2.01
   1  -6   0  104.48    1.59
   1  -6   0  104.72    1.59
   1  -6   0  102.47    2.91
   1  -6   0  104.71    1.53
  -1   6   0  105.35    1.73
  -1   6   0  105.35    1.73
  -1   6   0  102.97    1.82
  -1   6   0  103.91    2.05
   0  -6   0  540.43    7.56
   0  -6   0  543.39    9.40
   0   6   0  537.74    7.88
   0   6   0  549.65    7.71
  -1  -6   0    8.07    0.79
  -1  -6   0    7.94    0.31
  -1  -6   0    8.23    0.38
   1   6   0    8.81    0.36
   1   6   0    7.99    0.38
  -2  -6   0  138.10    2.28
  -2  -6   0  141.20    3.65
  -2  -6   0  139.73    2.32
  -2  -6   0  139.06    2.01
  -2  -6   0  139.06    2.01
   2   6   0  135.37    2.22
   2   6   0  139.85    2.39
  -3  -6   0    0.32    0.17
  -3  -6   0    0.16    0.06
  -3  -6   0    0.14    0.09
  -3  -6   0    0.54    0.31
  -3  -6   0    0.16    0.06
   3   6   0    0.23    0.07
   3   6   0    0.19    0.06
   3   6   0    0.26    0.09
  -4  -6   0  125.36    2.28
  -4  -6   0  125.60    1.98
  -4  -6   0  129.50    3.58
  -4  -6   0  128.92    2.74
  -4  -6   0  125.60    1.98
   4   6   0  123.49    2.17
  -5  -6   0   23.10    1.75
  -5  -6   0   25.59    0.62
  -5  -6   0   25.59    0.62
  -5  -6   0   25.52    1.07
  -5  -6   0   25.62    0.55
   5   6   0   26.85    0.80
  -6  -6   0    0.44    0.12
  -6  -6   0    0.40    0.19
  -6  -6   0    0.44    0.11
  -6  -6   0    0.44    0.12
  -6  -6   0    0.70    0.25
   6   6   0    0.50    0.14
   6   6   0    0.57    0.26
  -7  -6   0   61.15    1.23
  -7  -6   0   60.94    1.25
  -7  -6   0   61.15    1.23
  -7  -6   0   58.33    1.83
   7   6   0   62.09    1.37
  -8  -6   0   20.09    0.66
  -8  -6   0   20.09    0.66
  -8  -6   0   20.74    0.68
   8   6   0   22.03    0.75
  -9  -6   0   25.38    0.82
   9   6   0   25.61    0.86
 -10  -6   0    7.64    0.49
 -11  -6   0    0.89    0.26
   7  -7   0    0.19    0.20
   7  -7   0    0.04    0.14
   7  -7   0    0.19    0.20
  -7   7   0    0.20    0.21
  -7   7   0    0.03    0.23
  -7   7   0    0.20    0.21
   6  -7   0   23.79    0.87
   6  -7   0   22.73    0.73
   6  -7   0   23.79    0.87
  -6   7   0   24.36    0.87
  -6   7   0   24.36    0.87
  -6   7   0   23.02    0.98
   5  -7   0   51.52    1.28
   5  -7   0   51.52    1.28
   5  -7   0   52.58    1.12
  -5   7   0   50.92    1.28
  -5   7   0   50.92    1.28
  -5   7   0   52.55    1.45
   4  -7   0   22.36    0.59
   4  -7   0   22.35    0.74
   4  -7   0   22.35    0.74
  -4   7   0   21.85    0.73
  -4   7   0   21.27    0.83
  -4   7   0   21.85    0.73
   3  -7   0   74.00    1.28
  -3   7   0   73.95    1.62
   2  -7   0    2.03    0.15
  -2   7   0    1.77    0.25
   1  -7   0  116.51    3.38
   1  -7   0  113.99    1.79
   0  -7   0   21.83    0.53
   0  -7   0   21.05    1.41
  -1  -7   0   36.62    0.81
  -2  -7   0  397.12    5.47
  -2  -7   0  401.43    5.48
  -2  -7   0  401.43    5.48
  -2  -7   0  397.12    5.47
  -2  -7   0  398.28    5.87
  -3  -7   0   49.19    0.86
  -3  -7   0   49.19    0.86
  -3  -7   0   49.78    1.14
  -4  -7   0  130.92    2.39
  -4  -7   0  132.07    2.04
  -4  -7   0  130.56    2.93
  -4  -7   0  132.07    2.04
   4   7   0  128.36    2.15
  -5  -7   0   83.73    2.23
  -5  -7   0   82.97    1.45
  -5  -7   0   82.97    1.45
  -5  -7   0   83.91    1.81
  -6  -7   0    0.88    0.23
  -6  -7   0    1.02    0.16
  -6  -7   0    1.02    0.16
  -6  -7   0    1.35    0.13
  -6  -7   0    0.81    0.33
  -7  -7   0    9.65    0.62
  -7  -7   0    9.29    0.37
  -7  -7   0    8.53    0.40
  -7  -7   0    8.53    0.40
   7   7   0    8.98    0.48
  -8  -7   0    8.68    0.43
  -8  -7   0    8.68    0.43
  -8  -7   0    9.34    0.43
   8   7   0    8.68    0.50
  -9  -7   0   67.71    1.46
  -9  -7   0   68.13    1.47
  -9  -7   0   67.71    1.46
   9   7   0   67.22    1.59
 -10  -7   0   23.51    0.81
  10   7   0   21.23    0.84
 -11  -7   0    0.86    0.25
   6  -8   0    1.63    0.23
  -6   8   0    0.95    0.29
   5  -8   0    5.79    0.34
  -5   8   0    6.10    0.52
   4  -8   0   29.30    0.72
  -4   8   0   28.82    1.01
   3  -8   0  114.74    1.87
   2  -8   0    0.17    0.08
   1  -8   0   13.13    0.40
   0  -8   0   16.67    0.49
  -1  -8   0   43.58    0.96
  -2  -8   0    0.38    0.13
  -3  -8   0  108.46    1.62
  -3  -8   0  106.44    2.03
  -3  -8   0  108.46    1.62
  -4  -8   0   67.60    1.16
  -4  -8   0   65.61    1.51
  -4  -8   0   67.60    1.16
  -5  -8   0   66.42    1.22
  -5  -8   0   68.37    1.60
  -5  -8   0   66.42    1.22
  -6  -8   0    1.55    0.19
  -6  -8   0    1.55    0.19
  -6  -8   0    1.54    0.31
  -7  -8   0   66.12    1.74
  -7  -8   0   65.67    1.33
  -7  -8   0   65.67    1.33
  -8  -8   0    2.25    0.21
  -8  -8   0    2.29    0.27
  -8  -8   0    2.29    0.27
   8   8   0    2.19    0.32
  -9  -8   0  176.90    2.91
  -9  -8   0  176.08    3.02
  -9  -8   0  176.08    3.02
   9   8   0  181.36    3.26
 -10  -8   0    0.01    0.18
 -10  -8   0    0.01    0.18
 -10  -8   0    0.17    0.14
  10   8   0    0.14    0.20
 -11  -8   0   15.44    0.67
   5  -9   0    0.81    0.16
   4  -9   0   14.57    0.49
   3  -9   0    0.01    0.10
   2  -9   0   71.70    1.29
   1  -9   0    3.11    0.23
   0  -9   0    4.97    0.29
  -1  -9   0    4.16    0.29
  -2  -9   0  166.53    2.84
  -3  -9   0    0.46    0.16
  -4  -9   0    3.77    0.19
  -4  -9   0    3.77    0.19
  -4  -9   0    3.55    0.37
  -5  -9   0   10.69    0.60
  -5  -9   0    9.79    0.35
  -5  -9   0    9.79    0.35
  -6  -9   0    6.55    0.33
  -6  -9   0    6.55    0.33
  -6  -9   0    6.44    0.52
  -7  -9   0    1.99    0.23
  -7  -9   0    1.99    0.23
  -7  -9   0    2.31    0.39
  -8  -9   0   58.02    1.27
  -8  -9   0   58.02    1.27
  -9  -9   0   10.60    0.52
  -9  -9   0   10.60    0.52
 -10  -9   0   80.84    1.74
 -10  -9   0   80.84    1.74
  10   9   0   79.66    1.93
   4 -10   0   39.53    0.89
   3 -10   0    0.26    0.12
   2 -10   0   57.71    1.13
   1 -10   0    1.54    0.20
   0 -10   0   35.92    0.89
  -1 -10   0    0.50    0.16
  -2 -10   0   58.14    1.34
  -3 -10   0    3.24    0.36
  -4 -10   0   30.24    1.01
  -4 -10   0   31.34    0.56
  -4 -10   0   31.34    0.56
  -5 -10   0    6.36    0.51
  -5 -10   0    5.85    0.26
  -5 -10   0    5.85    0.26
  -6 -10   0    3.43    0.44
  -6 -10   0    4.44    0.27
  -6 -10   0    4.44    0.27
  -7 -10   0    2.40    0.25
  -7 -10   0    2.40    0.25
  -7 -10   0    3.10    0.47
  -8 -10   0    5.40    0.37
  -8 -10   0    5.40    0.37
  -9 -10   0    5.67    0.43
  -9 -10   0    5.67    0.43
   2 -11   0    1.20    0.19
   1 -11   0   51.80    1.12
   0 -11   0   67.08    1.40
  -1 -11   0    7.66    0.45
  -2 -11   0   20.46    0.76
  -3 -11   0    1.06    0.25
  -4 -11   0   20.51    0.85
  -5 -11   0    8.57    0.26
  -5 -11   0    8.46    0.61
  -5 -11   0    8.57    0.26
  -6 -11   0   15.57    0.84
  -6 -11   0   15.52    0.47
  -6 -11   0   15.52    0.47
  -7 -11   0   17.74    0.56
  -7 -11   0   17.74    0.56
  -7 -11   0   16.61    0.92
  -8 -11   0   82.99    1.63
  -8 -11   0   85.46    2.30
  -8 -11   0   82.99    1.63
   0 -12   0    2.05    0.27
  -1 -12   0    3.01    0.34
  -2 -12   0  143.71    2.72
  -3 -12   0    0.62    0.22
  -4 -12   0  106.32    2.34
  -5 -12   0    1.66    0.34
  -6 -12   0    8.55    0.28
  -6 -12   0    8.90    0.68
  -6 -12   0    8.55    0.28
  -7 -12   0   21.69    0.59
  -7 -12   0   21.35    1.06
  -7 -12   0   21.69    0.59
  -6 -12   1    2.39    0.18
  -6 -12   1    2.13    0.42
  -6 -12   1    2.39    0.18
  -5 -12   1    2.23    0.40
  -4 -12   1    4.38    0.49
  -3 -12   1    0.18    0.20
  -2 -12   1   48.43    1.34
  -1 -12   1    0.53    0.19
   0 -12   1   67.12    1.51
  -8 -11   1    9.01    0.46
  -8 -11   1    9.01    0.46
  -7 -11   1    4.83    0.32
  -7 -11   1    4.83    0.32
  -7 -11   1    5.64    0.61
  -6 -11   1    2.01    0.20
  -6 -11   1    2.43    0.41
  -6 -11   1    2.01    0.20
  -5 -11   1   16.64    0.42
  -5 -11   1   16.48    0.83
  -5 -11   1   16.64    0.42
  -4 -11   1   14.94    0.76
  -3 -11   1   90.81    2.01
  -2 -11   1   11.09    0.59
  -1 -11   1    2.56    0.31
   0 -11   1   30.62    0.90
   1 -11   1   15.58    0.59
   2 -11   1   11.40    0.50
  -9 -10   1   20.78    0.74
  -9 -10   1   20.78    0.74
  -8 -10   1   34.45    0.93
  -8 -10   1   34.45    0.93
  -7 -10   1    1.33    0.20
  -7 -10   1    1.33    0.20
  -7 -10   1    1.06    0.32
  -6 -10   1   28.94    0.73
  -6 -10   1   29.88    1.14
  -6 -10   1   28.94    0.73
  -5 -10   1    9.04    0.61
  -5 -10   1    8.48    0.33
  -5 -10   1    8.48    0.33
  -4 -10   1   24.15    0.91
  -4 -10   1   25.39    0.51
  -4 -10   1   25.39    0.51
  -3 -10   1   28.11    0.94
  -2 -10   1  116.70    2.25
  -1 -10   1   12.11    0.54
   0 -10   1   58.78    1.29
   1 -10   1    0.10    0.13
   2 -10   1   41.49    0.98
   3 -10   1   35.42    0.89
   4 -10   1    0.04    0.11
  10   9  -1  116.28    2.51
 -10  -9   1  121.18    2.32
 -10  -9   1  121.18    2.32
   9   9  -1   -0.12    0.18
  -9  -9   1    0.03    0.15
  -9  -9   1    0.03    0.15
  -8  -9   1   56.06    1.26
  -8  -9   1   56.06    1.26
  -7  -9   1    4.85    0.33
  -7  -9   1    4.93    0.54
  -7  -9   1    4.85    0.33
  -6  -9   1   88.53    2.09
  -6  -9   1   86.91    1.59
  -6  -9   1   86.91    1.59
  -5  -9   1    8.47    0.57
  -5  -9   1    9.57    0.36
  -5  -9   1    9.57    0.36
  -4  -9   1    0.30    0.09
  -4  -9   1    0.23    0.17
  -4  -9   1    0.30    0.09
  -3  -9   1    0.64    0.18
  -3  -9   1    1.12    0.09
  -3  -9   1    1.12    0.09
  -2  -9   1  139.27    2.50
  -1  -9   1   13.07    0.53
   0  -9   1  243.90    3.81
   1  -9   1   30.56    0.78
   2  -9   1   23.69    0.66
   3  -9   1   23.83    0.69
   4  -9   1    0.41    0.15
   5  -9   1    2.41    0.28
 -10  -8   1   41.47    1.08
 -10  -8   1   42.22    1.43
 -10  -8   1   42.22    1.43
   9   8  -1   17.10    0.77
  -9  -8   1   19.27    0.63
  -9  -8   1   18.89    0.69
  -9  -8   1   18.89    0.69
   8   8  -1   20.00    0.79
  -8  -8   1   22.57    0.71
  -8  -8   1   20.82    0.59
  -8  -8   1   22.57    0.71
  -7  -8   1   38.09    0.93
  -7  -8   1   38.09    0.93
  -7  -8   1   39.15    1.29
  -6  -8   1   92.13    1.65
  -6  -8   1   93.17    2.11
  -6  -8   1   92.13    1.65
  -5  -8   1   83.07    1.87
  -5  -8   1   81.89    1.46
  -5  -8   1   81.89    1.46
   4   8  -1    9.48    0.45
  -4  -8   1    9.41    0.52
  -4  -8   1   10.14    0.34
  -4  -8   1   10.14    0.34
  -3  -8   1  380.77    5.33
  -3  -8   1  377.50    5.82
  -3  -8   1  380.77    5.33
  -2  -8   1  190.67    3.15
  -1  -8   1    6.57    0.36
   0  -8   1   31.65    0.78
   1  -8   1  100.82    1.75
   2  -8   1   28.40    0.70
   3  -8   1   12.24    0.46
   4  -8   1   26.91    0.75
  -5   8  -1   49.23    1.43
   5  -8   1   50.16    1.16
  -6   8  -1   38.71    1.31
   6  -8   1   38.67    1.04
 -11  -7   1    9.75    0.58
 -10  -7   1   15.97    0.68
   9   7  -1    6.23    0.46
  -9  -7   1    7.15    0.44
  -9  -7   1    6.55    0.41
  -9  -7   1    7.15    0.44
   8   7  -1   34.79    1.03
  -8  -7   1   34.72    0.89
  -8  -7   1   34.51    0.91
  -8  -7   1   34.51    0.91
   7   7  -1   74.40    1.60
  -7  -7   1   75.46    1.46
  -7  -7   1   70.52    1.37
  -7  -7   1   75.46    1.46
  -6  -7   1   71.93    1.36
  -6  -7   1   72.35    1.23
  -6  -7   1   71.93    1.36
  -6  -7   1   72.68    1.75
  -5  -7   1   58.32    1.12
  -5  -7   1   58.32    1.12
  -5  -7   1   58.44    1.82
  -5  -7   1   59.01    1.45
   4   7  -1    1.04    0.17
  -4  -7   1    0.87    0.12
  -4  -7   1    0.54    0.16
  -4  -7   1    0.53    0.23
  -4  -7   1    0.87    0.12
  -3  -7   1   79.23    2.07
  -3  -7   1   74.73    1.25
  -3  -7   1   74.73    1.25
  -3  -7   1   77.90    1.58
  -2  -7   1   24.84    0.47
  -2  -7   1   24.84    0.47
  -2  -7   1   25.69    0.73
  -1  -7   1  112.11    1.93
   0  -7   1    0.84    0.13
   1  -7   1   12.44    1.05
   1  -7   1   12.69    0.41
   2  -7   1    3.24    0.22
  -3   7  -1    0.24    0.14
   3  -7   1    0.23    0.10
  -4   7  -1   17.44    0.73
   4  -7   1   17.19    0.56
  -5   7  -1    5.79    0.48
   5  -7   1    5.60    0.36
  -6   7  -1    0.87    0.27
   6  -7   1    0.92    0.20
  -7   7  -1   24.64    1.07
   7  -7   1   25.68    0.88
 -11  -6   1    0.94    0.25
 -10  -6   1    4.41    0.43
   9   6  -1    0.84    0.21
  -9  -6   1    0.54    0.18
   8   6  -1   67.74    1.53
  -8  -6   1   68.20    1.46
  -8  -6   1   71.40    1.44
  -8  -6   1   71.40    1.44
   7   6  -1   15.76    0.61
  -7  -6   1   15.30    0.54
  -7  -6   1   15.05    0.54
  -7  -6   1   15.30    0.54
  -6  -6   1  169.40    3.51
  -6  -6   1  169.48    2.70
  -6  -6   1  168.24    2.68
  -6  -6   1  170.83    3.12
  -6  -6   1  169.48    2.70
  -5  -6   1   27.32    0.88
  -5  -6   1   27.26    0.65
  -5  -6   1   27.26    0.65
  -5  -6   1   26.52    0.59
  -5  -6   1   26.07    1.08
   4   6  -1   18.81    0.55
  -4  -6   1   18.87    0.88
  -4  -6   1   19.91    1.35
  -4  -6   1   19.26    0.49
  -4  -6   1   19.26    0.49
  -4  -6   1   19.86    0.69
   3   6  -1   23.71    0.56
  -3  -6   1   23.65    0.51
  -3  -6   1   23.14    0.95
  -3  -6   1   23.65    0.51
  -3  -6   1   23.25    1.37
  -3  -6   1   22.32    0.69
  -2  -6   1   19.22    0.41
  -2  -6   1   19.22    0.41
  -2  -6   1   20.96    1.27
  -2  -6   1   20.19    0.86
  -2  -6   1   19.35    0.59
  -1  -6   1   40.07    0.63
  -1  -6   1   39.58    0.86
  -1  -6   1   40.48    0.61
  -1  -6   1   40.07    0.63
  -1  -6   1   40.48    0.61
  -1  -6   1   38.40    1.73
   0  -6   1  592.68   10.06
   0  -6   1  573.18    8.18
  -1   6  -1    6.42    0.32
   1  -6   1    6.50    0.54
   1  -6   1    6.26    0.69
   1  -6   1    6.16    0.26
  -2   6  -1  211.62    3.33
  -2   6  -1  199.96    3.60
  -2   6  -1  199.96    3.60
   2  -6   1  213.93    4.59
   2  -6   1  212.60    3.10
   2  -6   1  205.13    3.53
   2  -6   1  205.13    3.53
  -3   6  -1   71.16    1.39
  -3   6  -1   71.16    1.39
  -3   6  -1   69.83    1.51
   3  -6   1   70.41    1.30
   3  -6   1   73.33    1.40
   3  -6   1   73.33    1.40
  -4   6  -1    0.99    0.22
  -4   6  -1    0.78    0.18
  -4   6  -1    0.78    0.18
   4  -6   1    0.87    0.19
   4  -6   1    0.59    0.14
   4  -6   1    0.87    0.19
  -5   6  -1   62.94    1.40
  -5   6  -1   62.94    1.40
  -5   6  -1   63.04    1.57
   5  -6   1   64.59    1.42
   5  -6   1   63.21    1.34
   5  -6   1   64.59    1.42
  -6   6  -1    4.23    0.48
  -6   6  -1    4.00    0.40
  -6   6  -1    4.00    0.40
   6  -6   1    4.27    0.40
   6  -6   1    4.39    0.34
   6  -6   1    4.27    0.40
  -7   6  -1   39.02    1.32
  -7   6  -1   38.03    1.14
  -7   6  -1   38.03    1.14
   7  -6   1   37.40    1.09
   7  -6   1   38.83    1.15
   7  -6   1   38.83    1.15
  -8   6  -1   22.13    0.90
  -8   6  -1   22.72    1.05
  -8   6  -1   22.13    0.90
   8  -6   1   21.73    0.87
 -11  -5   1   11.77    0.66
 -10  -5   1   17.31    0.74
  -9  -5   1    0.80    0.21
   8   5  -1   12.75    0.55
  -8  -5   1   12.06    0.53
   7   5  -1   16.33    0.76
   7   5  -1   17.92    0.63
  -7  -5   1   16.55    0.55
  -7  -5   1   18.17    0.91
  -7  -5   1   17.47    0.59
  -7  -5   1   17.12    0.56
  -7  -5   1   17.12    0.56
   6   5  -1    0.07    0.09
   6   5  -1    0.10    0.13
  -6  -5   1   -0.05    0.08
  -6  -5   1    0.09    0.17
  -6  -5   1    0.02    0.08
  -6  -5   1   -0.05    0.08
  -6  -5   1    0.14    0.23
  -6  -5   1    0.13    0.13
  -6  -5   1    0.05    0.07
   5   5  -1  175.56    2.82
   5   5  -1  170.03    2.94
  -5  -5   1  174.22    2.70
  -5  -5   1  174.02    2.70
  -5  -5   1  174.62    3.37
  -5  -5   1  174.39    3.03
  -5  -5   1  174.02    2.70
  -5  -5   1  177.97    4.22
   4   5  -1   42.42    0.96
  -4  -5   1   43.67    0.84
  -4  -5   1   43.18    1.79
  -4  -5   1   42.93    0.80
  -4  -5   1   43.46    1.29
  -4  -5   1   43.11    1.06
  -4  -5   1   43.78    0.95
  -4  -5   1   43.67    0.84
   3   5  -1   36.12    0.74
   3   5  -1   37.83    0.76
  -3  -5   1   37.05    0.70
  -3  -5   1   35.63    0.88
  -3  -5   1   37.05    0.70
  -3  -5   1   36.52    0.76
  -3  -5   1   35.31    1.11
  -3  -5   1   35.11    1.55
   2   5  -1   74.17    1.19
   2   5  -1   76.07    1.14
   2   5  -1   72.84    1.23
  -2  -5   1   72.77    1.70
  -2  -5   1   73.68    1.16
  -2  -5   1   73.77    1.37
  -2  -5   1   73.68    1.16
  -2  -5   1   72.14    1.23
  -2  -5   1   72.25    2.27
   1   5  -1   54.14    0.98
   1   5  -1   55.23    0.96
  -1  -5   1   56.04    0.85
  -1  -5   1   54.37    1.04
  -1  -5   1   56.04    0.85
  -1  -5   1   55.48    1.39
  -1  -5   1   53.91    1.89
   0   5  -1   21.54    0.57
   0   5  -1   22.33    1.10
   0   5  -1   21.22    0.57
   0  -5   1   23.04    1.17
   0  -5   1   21.24    0.50
   0  -5   1   21.26    0.56
  -1   5  -1   23.37    0.52
  -1   5  -1   23.02    0.69
  -1   5  -1   22.64    0.67
  -1   5  -1   23.51    1.10
  -1   5  -1   22.69    0.59
  -1   5  -1   23.37    0.52
   1  -5   1   18.04    0.48
   1  -5   1   23.44    0.50
   1  -5   1   23.21    1.15
   1  -5   1   18.04    0.48
   1  -5   1   22.24    0.66
  -2   5  -1  202.98    4.07
  -2   5  -1  199.83    3.20
  -2   5  -1  201.71    3.07
  -2   5  -1  201.79    3.45
  -2   5  -1  198.09    3.44
  -2   5  -1  201.71    3.07
   2  -5   1  203.15    4.22
   2  -5   1  209.62    3.09
   2  -5   1  199.62    2.99
   2  -5   1  209.62    3.09
   2  -5   1  200.26    3.42
  -3   5  -1   25.17    0.67
  -3   5  -1   25.17    0.67
  -3   5  -1   24.62    0.75
  -3   5  -1   24.89    0.92
   3  -5   1   26.46    0.68
   3  -5   1   26.46    0.68
   3  -5   1   25.58    0.62
   3  -5   1   24.49    0.89
  -4   5  -1    3.08    0.28
  -4   5  -1    2.74    0.41
  -4   5  -1    3.31    0.35
  -4   5  -1    3.08    0.28
   4  -5   1    3.30    0.29
   4  -5   1    3.42    0.39
   4  -5   1    2.59    0.23
   4  -5   1    3.30    0.29
  -5   5  -1   63.21    1.37
  -5   5  -1   62.34    1.84
  -5   5  -1   63.21    1.37
  -5   5  -1   63.00    1.52
   5  -5   1   63.11    1.37
   5  -5   1   63.11    1.37
   5  -5   1   63.21    1.32
   5  -5   1   64.24    1.84
  -6   5  -1    1.92    0.33
  -6   5  -1    1.94    0.29
  -6   5  -1    1.94    0.29
   6  -5   1    2.54    0.32
   6  -5   1    2.54    0.32
   6  -5   1    2.34    0.27
  -7   5  -1   13.37    0.64
  -7   5  -1   13.37    0.64
  -7   5  -1   13.01    0.74
   7  -5   1   13.77    0.63
   7  -5   1   14.07    0.65
   7  -5   1   14.07    0.65
  -8   5  -1    0.98    0.31
  -8   5  -1    0.61    0.26
  -8   5  -1    0.61    0.26
   8  -5   1    0.27    0.18
  -9   5  -1    0.47    0.31
  -9   5  -1    0.86    0.29
  -9   5  -1    0.86    0.29
   9  -5   1    0.85    0.26
  11   4  -1   32.54    0.97
  11   4  -1   32.54    0.97
 -11  -4   1   33.03    1.04
 -11  -4   1   33.03    1.04
 -11  -4   1   34.07    1.12
  10   4  -1   76.80    1.62
  10   4  -1   76.80    1.62
 -10  -4   1   79.84    1.70
 -10  -4   1   79.84    1.70
 -10  -4   1   80.57    1.80
   9   4  -1    0.41    0.15
   9   4  -1    0.41    0.15
  -9  -4   1   -0.01    0.13
  -9  -4   1   -0.01    0.13
  -9  -4   1    0.01    0.14
   8   4  -1  168.45    2.78
   8   4  -1  168.45    2.78
   8   4  -1  166.93    3.42
  -8  -4   1  165.09    3.44
  -8  -4   1  169.72    2.90
  -8  -4   1  171.89    2.80
  -8  -4   1  171.89    2.80
   7   4  -1   54.34    1.12
   7   4  -1   54.08    1.18
   7   4  -1   52.36    1.49
   7   4  -1   54.34    1.12
  -7  -4   1   53.80    1.18
  -7  -4   1   54.87    1.19
  -7  -4   1   51.16    2.36
  -7  -4   1   52.71    1.10
  -7  -4   1   53.16    1.56
  -7  -4   1   52.71    1.10
   6   4  -1   30.72    0.73
   6   4  -1   30.72    0.73
   6   4  -1   29.48    0.97
   6   4  -1   29.43    0.78
  -6  -4   1   29.85    0.72
  -6  -4   1   30.55    0.70
  -6  -4   1   29.91    0.75
  -6  -4   1   29.56    1.06
  -6  -4   1   30.47    0.77
  -6  -4   1   29.85    0.72
  -6  -4   1   30.55    0.70
  -6  -4   1   28.66    1.41
   5   4  -1    9.09    0.47
  -5  -4   1    8.45    0.29
  -5  -4   1   10.16    0.80
  -5  -4   1    8.45    0.29
  -5  -4   1    9.21    0.47
  -5  -4   1    8.88    0.33
  -5  -4   1    9.65    0.35
  -5  -4   1    9.62    0.56
  -5  -4   1    9.14    0.36
  -5  -4   1    8.88    0.33
   4   4  -1   22.91    0.66
  -4  -4   1   22.58    0.53
  -4  -4   1   23.62    0.70
  -4  -4   1   23.00    0.51
  -4  -4   1   22.58    0.53
  -4  -4   1   23.85    0.85
  -4  -4   1   23.21    1.16
  -4  -4   1   23.58    0.55
   3   4  -1  181.34    2.77
   3   4  -1  182.39    2.74
  -3  -4   1  182.04    2.65
  -3  -4   1  184.03    3.87
  -3  -4   1  180.65    2.67
  -3  -4   1  179.94    2.75
  -3  -4   1  180.65    2.67
  -3  -4   1  184.30    3.19
  -3  -4   1  181.07    2.89
   2   4  -1    0.48    0.07
  -2  -4   1    0.13    0.10
  -2  -4   1    0.46    0.07
   1   4  -1    6.42    0.22
   1   4  -1    6.01    0.20
   1   4  -1    6.37    0.56
  -1  -4   1    6.73    0.40
  -1  -4   1    6.34    0.26
  -1  -4   1    6.07    0.57
  -1  -4   1    5.95    0.22
   0   4  -1  273.84    4.00
   0   4  -1  278.92    4.00
   0   4  -1  276.57    4.93
   0  -4   1  270.68    3.99
   0  -4   1  271.77    3.92
   0  -4   1  275.60    5.02
  -1   4  -1  164.77    2.55
  -1   4  -1  166.84    2.65
  -1   4  -1  166.93    3.33
  -1   4  -1  166.21    2.76
  -1   4  -1  162.77    2.76
  -1   4  -1  168.16    2.70
   1  -4   1  167.05    3.42
   1  -4   1  163.11    2.67
   1  -4   1  166.01    2.43
  -2   4  -1   26.48    0.60
  -2   4  -1   26.48    0.60
  -2   4  -1   26.22    0.71
  -2   4  -1   25.83    1.02
  -2   4  -1   24.21    0.65
  -2   4  -1   25.36    0.79
  -2   4  -1   26.02    0.78
   2  -4   1   26.05    0.59
   2  -4   1   24.91    0.77
   2  -4   1   24.70    0.54
   2  -4   1   26.05    0.59
  -3   4  -1    0.14    0.09
  -3   4  -1    0.18    0.11
  -3   4  -1   -0.01    0.12
  -3   4  -1    0.14    0.09
   3  -4   1    0.00    0.08
   3  -4   1    0.18    0.12
   3  -4   1    0.29    0.17
   3  -4   1    0.11    0.07
   3  -4   1    0.00    0.08
  -4   4  -1   45.69    1.00
  -4   4  -1   45.92    1.12
  -4   4  -1   45.69    1.00
   4  -4   1   44.28    1.32
   4  -4   1   42.99    0.98
   4  -4   1   44.35    0.96
   4  -4   1   42.99    0.98
  -5   4  -1  218.09    3.57
  -5   4  -1  223.73    3.77
  -5   4  -1  218.09    3.57
   5  -4   1  229.41    3.60
   5  -4   1  228.00    4.19
   5  -4   1  229.41    3.60
   5  -4   1  224.68    3.55
  -6   4  -1   10.87    0.52
  -6   4  -1   11.02    0.60
  -6   4  -1   10.87    0.52
   6  -4   1   10.31    0.50
   6  -4   1   10.31    0.50
   6  -4   1    9.97    0.49
  -7   4  -1  124.18    2.37
  -7   4  -1  124.20    2.57
  -7   4  -1  124.18    2.37
   7  -4   1  122.50    2.38
   7  -4   1  125.52    2.37
   7  -4   1  125.52    2.37
  -8   4  -1   59.68    1.68
  -8   4  -1   61.89    1.53
  -8   4  -1   61.89    1.53
   8  -4   1   61.45    1.55
  -9   4  -1    5.75    0.54
  -9   4  -1    6.21    0.63
  -9   4  -1    5.75    0.54
   9  -4   1    5.24    0.50
  11   3  -1    5.02    0.41
  11   3  -1    5.02    0.41
 -11  -3   1    4.12    0.45
 -11  -3   1    4.12    0.45
  10   3  -1   20.00    0.69
  10   3  -1   20.00    0.69
 -10  -3   1   22.75    0.81
 -10  -3   1   22.75    0.81
 -10  -3   1   19.72    0.80
   9   3  -1   24.10    0.71
   9   3  -1   24.10    0.71
  -9  -3   1   22.40    0.76
  -9  -3   1   22.40    0.76
  -9  -3   1   22.08    0.79
   8   3  -1   32.10    0.82
   8   3  -1   31.55    1.26
   8   3  -1   32.10    0.82
  -8  -3   1   32.17    0.87
  -8  -3   1   33.45    1.20
  -8  -3   1   31.54    0.91
  -8  -3   1   32.17    0.87
  -8  -3   1   32.57    0.91
   7   3  -1    1.22    0.28
   7   3  -1    1.14    0.17
   7   3  -1    1.41    0.29
   7   3  -1    1.14    0.17
  -7  -3   1    1.00    0.17
  -7  -3   1    0.94    0.18
  -7  -3   1    0.98    0.18
  -7  -3   1    1.00    0.17
  -7  -3   1    1.02    0.26
   6   3  -1  529.57    7.67
   6   3  -1  528.96    8.15
   6   3  -1  537.28    7.62
   6   3  -1  539.04    7.99
   6   3  -1  537.28    7.62
  -6  -3   1  543.03    7.69
  -6  -3   1  539.47    7.63
  -6  -3   1  533.10    7.71
  -6  -3   1  534.87    8.89
  -6  -3   1  537.85    8.19
  -6  -3   1  539.47    7.63
   5   3  -1   60.42    1.18
   5   3  -1   60.92    1.41
  -5  -3   1   62.02    1.18
  -5  -3   1   60.42    1.47
  -5  -3   1   61.99    1.11
  -5  -3   1   60.37    1.88
  -5  -3   1   61.99    1.11
   4   3  -1    3.15    0.20
   4   3  -1    3.05    0.25
  -4  -3   1    2.87    0.39
  -4  -3   1    3.12    0.19
  -4  -3   1    3.01    0.29
   3   3  -1    0.04    0.10
  -3  -3   1    0.22    0.08
  -3  -3   1    0.14    0.22
  -3  -3   1    0.07    0.08
  -3  -3   1    0.04    0.08
   2   3  -1  235.05    3.33
   2   3  -1  231.33    3.33
  -2  -3   1  230.32    3.68
  -2  -3   1  234.86    4.27
   1   3  -1  180.93    3.36
   1   3  -1  170.64    2.51
   1   3  -1  173.62    2.49
   1   3  -1  180.73    2.84
  -1  -3   1  180.85    2.88
  -1  -3   1  179.34    3.41
   0   3  -1    2.35    0.18
   0   3  -1    2.71    0.31
   0   3  -1    2.38    0.14
   0   3  -1    2.80    0.14
   0  -3   1    2.52    0.31
   0  -3   1    2.46    0.19
   0  -3   1    2.72    0.14
  -1   3  -1  114.48    2.35
  -1   3  -1  116.34    1.90
  -1   3  -1  116.11    1.98
  -1   3  -1  115.46    1.91
   1  -3   1  112.08    1.90
   1  -3   1  116.93    2.42
  -2   3  -1  364.83    5.52
  -2   3  -1  360.95    5.31
  -2   3  -1  371.67    5.22
  -2   3  -1  366.71    5.79
  -2   3  -1  371.67    5.22
  -2   3  -1  369.80    5.31
  -2   3  -1  354.46    5.66
   2  -3   1  383.67    5.23
   2  -3   1  348.08    5.80
   2  -3   1  357.68    5.50
   2  -3   1  383.67    5.23
   2  -3   1  369.65    5.18
  -3   3  -1  204.72    3.48
  -3   3  -1  206.43    3.10
  -3   3  -1  199.31    3.47
  -3   3  -1  201.15    3.21
  -3   3  -1  206.43    3.10
   3  -3   1  207.41    3.10
   3  -3   1  203.32    3.55
   3  -3   1  207.41    3.10
   3  -3   1  205.04    3.07
   3  -3   1  198.78    3.44
  -4   3  -1  135.28    2.26
  -4   3  -1  135.28    2.26
  -4   3  -1  134.29    2.39
   4  -3   1  139.33    1.92
   4  -3   1  136.96    2.26
   4  -3   1  136.96    2.26
   4  -3   1  138.51    2.26
   4  -3   1  136.12    1.93
   4  -3   1  139.33    1.92
   4  -3   1  136.45    2.68
   4  -3   1  136.12    1.93
  -5   3  -1   22.19    0.76
  -5   3  -1   21.77    0.66
  -5   3  -1   21.77    0.66
   5  -3   1   20.99    0.65
   5  -3   1   22.63    0.40
   5  -3   1   23.10    0.96
   5  -3   1   22.63    0.40
   5  -3   1   22.16    0.67
   5  -3   1   20.99    0.65
  -6   3  -1   35.82    0.96
  -6   3  -1   37.55    1.09
  -6   3  -1   35.82    0.96
   6  -3   1   35.19    0.94
   6  -3   1   35.19    0.94
   6  -3   1   35.10    1.32
   6  -3   1   35.13    0.96
   6  -3   1   36.42    0.61
   6  -3   1   36.42    0.61
  -7   3  -1  234.72    3.89
  -7   3  -1  234.72    3.89
  -7   3  -1  240.65    4.12
   7  -3   1  237.81    3.95
   7  -3   1  236.26    3.89
   7  -3   1  238.03    3.33
   7  -3   1  238.03    3.33
   7  -3   1  236.26    3.89
  -8   3  -1   28.65    1.06
  -8   3  -1   27.58    0.93
  -8   3  -1   27.58    0.93
   8  -3   1   27.45    0.48
   8  -3   1   27.88    0.98
   8  -3   1   27.45    0.48
  -9   3  -1   32.96    1.09
  -9   3  -1   32.96    1.09
  -9   3  -1   33.39    1.23
   9  -3   1   33.65    1.16
 -10   3  -1   58.83    1.60
 -10   3  -1   58.83    1.60
 -10   3  -1   57.23    1.76
  10  -3   1   59.52    1.71
  11   2  -1  109.51    2.10
  11   2  -1  109.51    2.10
 -11  -2   1  119.08    2.39
 -11  -2   1  109.17    3.31
 -11  -2   1  119.08    2.39
  10   2  -1    6.49    0.39
  10   2  -1    6.49    0.39
 -10  -2   1    6.86    0.49
 -10  -2   1    6.81    0.54
 -10  -2   1    6.86    0.49
   9   2  -1    0.58    0.15
   9   2  -1    0.66    0.25
   9   2  -1    0.58    0.15
  -9  -2   1    0.27    0.18
  -9  -2   1    0.27    0.18
  -9  -2   1    0.49    0.20
   8   2  -1    1.20    0.18
   8   2  -1    1.10    0.27
   8   2  -1    1.20    0.18
  -8  -2   1    1.14    0.21
  -8  -2   1    0.95    0.22
  -8  -2   1    1.14    0.21
   7   2  -1  154.10    2.86
   7   2  -1  155.21    2.51
   7   2  -1  155.02    2.60
   7   2  -1  155.21    2.51
   7   2  -1  159.64    3.18
   7   2  -1  155.02    2.60
  -7  -2   1  161.05    2.99
  -7  -2   1  156.78    2.63
  -7  -2   1  158.58    2.62
  -7  -2   1  158.58    2.62
  -7  -2   1  153.88    2.70
   6   2  -1  125.88    2.02
   6   2  -1  124.94    2.54
   6   2  -1  121.07    2.07
   6   2  -1  125.13    2.31
   6   2  -1  121.07    2.07
   6   2  -1  125.88    2.02
  -6  -2   1  124.71    2.09
  -6  -2   1  124.71    2.09
  -6  -2   1  126.85    2.43
  -6  -2   1  124.53    2.15
  -6  -2   1  123.25    2.11
  -6  -2   1  126.38    2.83
   5   2  -1  224.66    3.35
   5   2  -1  224.66    3.35
   5   2  -1  220.42    3.31
   5   2  -1  219.22    3.57
   5   2  -1  221.61    3.75
   5   2  -1  224.43    3.35
   5   2  -1  220.42    3.31
  -5  -2   1  224.04    3.35
  -5  -2   1  227.06    3.71
  -5  -2   1  224.04    3.35
  -5  -2   1  223.79    3.41
  -5  -2   1  225.44    3.39
  -5  -2   1  222.35    4.16
   4   2  -1   30.92    0.63
   4   2  -1   30.88    0.84
   4   2  -1   30.92    0.63
   4   2  -1   30.96    0.66
  -4  -2   1   30.79    0.63
  -4  -2   1   29.93    0.84
  -4  -2   1   30.72    1.10
  -4  -2   1   30.79    0.63
  -4  -2   1   30.54    0.77
  -3  -2   1  726.48   10.82
   1   2  -1  309.44    4.50
  -1  -2   1  305.96    4.51
  -1  -2   1  309.87    4.94
   0   2  -1   19.68    0.37
   0   2  -1   19.31    0.47
   0   2  -1   19.41    0.68
   0   2  -1   19.30    0.37
   0  -2   1   18.83    0.37
   0  -2   1   19.73    0.49
   0  -2   1   19.49    0.69
  -1   2  -1    6.80    0.23
  -1   2  -1    7.59    0.27
  -1   2  -1    6.96    0.37
  -1   2  -1    6.96    0.30
   1  -2   1    6.70    0.26
  -2   2  -1    0.67    0.12
  -2   2  -1    0.49    0.09
  -2   2  -1    0.66    0.14
  -2   2  -1    0.87    0.15
   2  -2   1    0.76    0.13
   2  -2   1    0.85    0.16
  -3   2  -1   35.13    0.74
  -3   2  -1   35.13    0.74
  -3   2  -1   35.99    1.02
  -3   2  -1   35.41    0.81
   3  -2   1   36.07    0.74
   3  -2   1   36.70    0.87
   3  -2   1   36.07    0.74
   3  -2   1   35.50    0.58
   3  -2   1   34.62    0.95
   3  -2   1   35.02    0.75
   3  -2   1   35.50    0.58
  -4   2  -1   24.19    0.63
  -4   2  -1   24.19    0.63
  -4   2  -1   23.10    0.92
  -4   2  -1   24.53    0.70
   4  -2   1   24.11    0.86
   4  -2   1   25.03    0.47
   4  -2   1   26.00    0.65
   4  -2   1   26.00    0.65
   4  -2   1   25.03    0.47
   4  -2   1   25.16    0.65
  -5   2  -1  177.38    3.00
  -5   2  -1  173.44    2.85
  -5   2  -1  173.44    2.85
   5  -2   1  181.93    3.38
   5  -2   1  180.23    2.58
   5  -2   1  178.38    2.91
   5  -2   1  175.62    2.85
   5  -2   1  180.23    2.58
   5  -2   1  175.62    2.85
  -6   2  -1   18.85    0.64
  -6   2  -1   18.10    0.71
  -6   2  -1   18.85    0.64
   6  -2   1   18.33    0.66
   6  -2   1   19.28    0.44
   6  -2   1   19.28    0.44
   6  -2   1   17.58    0.61
   6  -2   1   21.38    0.96
   6  -2   1   17.58    0.61
  -7   2  -1  106.21    2.05
  -7   2  -1  106.21    2.05
  -7   2  -1  106.54    2.21
   7  -2   1  109.43    1.71
   7  -2   1  106.88    2.05
   7  -2   1  110.03    2.16
   7  -2   1  109.43    1.71
   7  -2   1  106.88    2.05
  -8   2  -1   13.72    0.63
  -8   2  -1   13.85    0.72
  -8   2  -1   13.72    0.63
   8  -2   1   14.27    0.40
   8  -2   1   13.68    0.68
   8  -2   1   14.27    0.40
  -9   2  -1    2.90    0.43
  -9   2  -1    3.02    0.38
  -9   2  -1    3.02    0.38
   9  -2   1    3.06    0.40
   9  -2   1    3.34    0.20
   9  -2   1    3.34    0.20
 -10   2  -1    0.81    0.29
 -10   2  -1    0.81    0.29
 -10   2  -1    0.75    0.31
  10  -2   1    0.60    0.12
  10  -2   1    0.50    0.27
  10  -2   1    0.60    0.12
  11   1  -1   33.31    0.89
  11   1  -1   33.15    1.35
  11   1  -1   33.31    0.89
 -11  -1   1   33.03    1.12
 -11  -1   1   33.03    1.12
 -11  -1   1   33.63    1.23
  10   1  -1    7.47    0.64
  10   1  -1    7.66    0.40
  10   1  -1    7.66    0.40
 -10  -1   1    7.83    0.54
 -10  -1   1    7.58    0.59
 -10  -1   1    7.83    0.54
   9   1  -1    1.60    0.20
   9   1  -1    1.60    0.20
   9   1  -1    1.17    0.29
  -9  -1   1    0.68    0.24
  -9  -1   1    1.39    0.27
  -9  -1   1    1.39    0.27
   8   1  -1   69.18    1.69
   8   1  -1   72.91    1.35
   8   1  -1   72.91    1.35
   8   1  -1   68.54    1.49
   8   1  -1   68.54    1.49
  -8  -1   1   70.59    1.51
  -8  -1   1   70.59    1.51
  -8  -1   1   70.94    1.62
   7   1  -1    4.44    0.38
   7   1  -1    4.04    0.46
   7   1  -1    4.19    0.25
   7   1  -1    4.19    0.25
   7   1  -1    4.70    0.32
   7   1  -1    4.70    0.32
  -7  -1   1    3.78    0.37
  -7  -1   1    3.40    0.31
  -7  -1   1    3.40    0.31
  -7  -1   1    3.76    0.33
   6   1  -1   44.17    0.97
   6   1  -1   44.17    0.97
   6   1  -1   44.83    1.33
   6   1  -1   44.25    0.88
   6   1  -1   44.25    0.88
  -6  -1   1   42.89    0.97
  -6  -1   1   43.26    1.04
  -6  -1   1   42.89    0.97
  -6  -1   1   44.04    0.96
  -6  -1   1   43.60    1.15
   5   1  -1    2.28    0.16
   5   1  -1    2.32    0.25
   5   1  -1    2.21    0.31
   5   1  -1    2.46    0.22
   5   1  -1    2.46    0.22
   5   1  -1    2.28    0.16
  -5  -1   1    2.00    0.25
  -5  -1   1    2.15    0.21
  -5  -1   1    2.59    0.22
  -5  -1   1    2.59    0.22
   4   1  -1   24.58    0.77
   4   1  -1   25.23    0.57
   4   1  -1   25.23    0.57
  -4  -1   1   25.05    0.58
  -4  -1   1   25.54    0.72
  -4  -1   1   24.31    0.61
  -4  -1   1   25.05    0.58
   3   1  -1    0.20    0.09
  -3  -1   1    0.59    0.12
  -3  -1   1    0.31    0.10
   0   1  -1   10.66    0.27
   0   1  -1   11.36    0.20
   0  -1   1   10.46    0.27
   0  -1   1   10.70    0.21
  -1   1  -1   20.23    0.53
  -1   1  -1   19.65    0.35
  -1   1  -1   19.73    0.44
   1  -1   1   19.46    0.50
   1  -1   1   19.97    0.51
   1  -1   1   19.89    0.44
  -2   1  -1  167.45    2.66
  -2   1  -1  174.40    2.82
   2  -1   1  168.91    2.69
  -3   1  -1  105.37    1.78
  -3   1  -1  106.74    1.70
  -3   1  -1  105.70    2.12
  -3   1  -1  106.74    1.70
   3  -1   1  105.80    1.96
   3  -1   1  107.43    1.70
   3  -1   1  105.41    1.76
   3  -1   1  107.43    1.70
  -4   1  -1  166.03    3.17
  -4   1  -1  163.11    2.56
  -4   1  -1  163.11    2.56
  -4   1  -1  163.18    2.66
   4  -1   1  162.98    2.93
   4  -1   1  163.16    2.56
   4  -1   1  164.09    2.39
   4  -1   1  167.97    2.65
   4  -1   1  164.09    2.39
   4  -1   1  163.16    2.56
  -5   1  -1   10.05    0.45
  -5   1  -1   10.64    0.41
  -5   1  -1   10.02    0.35
  -5   1  -1   10.64    0.41
   5  -1   1    9.98    0.39
   5  -1   1    9.93    0.30
   5  -1   1    9.70    0.56
   5  -1   1    9.98    0.39
   5  -1   1    9.93    0.30
   5  -1   1    9.53    0.43
  -6   1  -1    4.24    0.30
  -6   1  -1    4.67    0.36
  -6   1  -1    4.24    0.30
   6  -1   1    4.79    0.34
   6  -1   1    5.08    0.32
   6  -1   1    4.79    0.22
   6  -1   1    4.79    0.22
   6  -1   1    5.08    0.32
   6  -1   1    4.45    0.46
  -7   1  -1  132.11    2.52
  -7   1  -1  130.31    2.36
  -7   1  -1  130.31    2.36
   7  -1   1  132.37    2.09
   7  -1   1  131.24    2.36
   7  -1   1  134.86    2.51
   7  -1   1  131.24    2.36
   7  -1   1  132.37    2.09
  -8   1  -1   87.57    1.82
  -8   1  -1   88.50    1.98
  -8   1  -1   87.57    1.82
   8  -1   1   90.19    1.54
   8  -1   1   90.19    1.54
   8  -1   1   86.82    1.97
  -9   1  -1  109.03    2.22
  -9   1  -1  108.31    2.38
  -9   1  -1  109.03    2.22
   9  -1   1  112.10    2.40
   9  -1   1  108.81    1.84
   9  -1   1  108.81    1.84
 -10   1  -1    5.26    0.51
 -10   1  -1    4.04    0.50
 -10   1  -1    5.26    0.51
  10  -1   1    4.99    0.55
  10  -1   1    5.16    0.29
  10  -1   1    5.16    0.29
 -11   1  -1    0.21    0.25
 -11   1  -1    0.37    0.28
 -11   1  -1    0.21    0.25
  11  -1   1    0.17    0.12
  11  -1   1    0.17    0.12
  11  -1   1    0.39    0.26
  11   0  -1    0.06    0.22
  11   0  -1   -0.11    0.09
  11   0  -1   -0.11    0.09
 -11   0   1    0.04    0.21
 -11   0   1    0.09    0.24
 -11   0   1    0.04    0.21
  10   0  -1    0.56    0.15
  10   0  -1    0.61    0.25
  10   0  -1    0.56    0.15
 -10   0   1    0.52    0.25
 -10   0   1    0.52    0.25
 -10   0   1    0.88    0.28
   9   0  -1    1.86    0.29
   9   0  -1    1.72    0.19
   9   0  -1    1.86    0.29
   9   0  -1    2.86    0.41
   9   0  -1    1.72    0.19
  -9   0   1    2.19    0.33
  -9   0   1    2.19    0.33
  -9   0   1    2.02    0.34
   8   0  -1   95.40    1.63
   8   0  -1   91.89    2.02
   8   0  -1   91.83    1.86
   8   0  -1   95.40    1.63
   8   0  -1   91.83    1.86
  -8   0   1   93.27    2.01
  -8   0   1   92.74    1.87
  -8   0   1   92.74    1.87
   7   0  -1    0.45    0.10
   7   0  -1    0.15    0.13
   7   0  -1    0.46    0.16
   7   0  -1    0.07    0.20
   7   0  -1    0.45    0.10
   7   0  -1    0.15    0.13
  -7   0   1    0.01    0.12
  -7   0   1    0.01    0.12
  -7   0   1    0.02    0.13
   6   0  -1  101.98    1.83
   6   0  -1  102.71    2.30
   6   0  -1  100.37    1.65
   6   0  -1  101.98    1.83
   6   0  -1  101.83    1.95
   6   0  -1  100.37    1.65
  -6   0   1  102.43    1.94
  -6   0   1   99.62    1.83
  -6   0   1  101.30    1.97
  -6   0   1   99.62    1.83
   5   0  -1  162.69    2.42
   5   0  -1  162.69    2.42
   5   0  -1  159.05    3.01
   5   0  -1  161.64    2.68
  -5   0   1  162.88    2.68
  -5   0   1  158.67    2.57
  -5   0   1  158.67    2.57
   4   0  -1    6.76    0.28
   4   0  -1    6.71    0.23
   4   0  -1    6.96    0.41
   4   0  -1    6.71    0.23
   4   0  -1    6.76    0.28
  -4   0   1    7.52    0.33
  -4   0   1    7.31    0.30
  -4   0   1    7.31    0.30
   3   0  -1    7.03    0.37
  -3   0   1    7.29    0.43
   2   0  -1   31.19    0.73
  -2   0   1   30.76    0.72
  -1   0   1  212.65    3.07
  -1   0  -1  150.08    2.21
  -1   0  -1  148.96    2.11
   1   0   1  154.03    2.37
   1   0   1  149.28    2.21
  -3   0  -1   28.46    0.56
  -3   0  -1   29.07    0.59
  -3   0  -1   29.07    0.59
  -3   0  -1   28.29    0.73
   3   0   1   27.19    0.75
   3   0   1   29.22    0.61
   3   0   1   29.22    0.61
  -4   0  -1   26.98    0.62
  -4   0  -1   26.77    0.59
  -4   0  -1   25.32    0.66
  -4   0  -1   26.98    0.62
   4   0   1   26.37    0.69
   4   0   1   26.61    0.61
   4   0   1   26.61    0.61
   4   0   1   25.66    0.53
   4   0   1   25.66    0.53
   4   0   1   25.41    0.81
  -5   0  -1  356.98    5.28
  -5   0  -1  364.29    5.40
  -5   0  -1  356.98    5.28
  -5   0  -1  364.71    5.27
   5   0   1  357.11    5.12
   5   0   1  372.27    5.44
   5   0   1  358.03    5.76
   5   0   1  364.43    5.28
   5   0   1  364.43    5.28
   5   0   1  357.11    5.12
  -6   0  -1   29.22    0.77
  -6   0  -1   29.22    0.77
  -6   0  -1   28.53    0.83
   6   0   1   28.62    0.75
   6   0   1   28.51    0.64
   6   0   1   28.51    0.64
   6   0   1   28.94    1.06
   6   0   1   29.39    0.86
   6   0   1   28.62    0.75
  -7   0  -1   33.83    0.90
  -7   0  -1   33.34    0.98
  -7   0  -1   33.83    0.90
   7   0   1   33.07    1.27
   7   0   1   33.34    0.74
   7   0   1   32.79    1.00
   7   0   1   33.34    0.74
  -8   0  -1   77.72    1.66
  -8   0  -1   79.41    1.80
  -8   0  -1   77.72    1.66
   8   0   1   81.86    1.46
   8   0   1   80.63    1.86
   8   0   1   81.86    1.46
  -9   0  -1   13.33    0.69
   9   0   1   13.43    0.73
   9   0   1   12.47    0.46
   9   0   1   12.47    0.46
 -10   0  -1   -0.14    0.19
 -10   0  -1   -0.14    0.19
 -10   0  -1   -0.10    0.21
  10   0   1    0.06    0.19
  10   0   1    0.08    0.11
  10   0   1    0.08    0.11
 -11   0  -1    9.25    0.63
 -11   0  -1    9.57    0.70
 -11   0  -1    9.25    0.63
  11   0   1    9.09    0.73
  11   0   1    9.79    0.44
  11   0   1    9.79    0.44
  11  -1  -1   21.71    0.59
  11  -1  -1   20.59    1.04
  11  -1  -1   21.71    0.59
 -11   1   1   23.98    0.99
 -11   1   1   23.98    0.99
 -11   1   1   22.85    1.07
  10  -1  -1   23.41    0.62
  10  -1  -1   23.41    0.62
  10  -1  -1   22.90    1.02
 -10   1   1   23.83    1.04
 -10   1   1   24.25    0.94
 -10   1   1   24.25    0.94
   9  -1  -1    5.76    0.29
   9  -1  -1    6.40    0.47
   9  -1  -1    5.89    0.51
   9  -1  -1    5.76    0.29
   9  -1  -1    6.40    0.47
  -9   1   1    6.28    0.53
  -9   1   1    5.94    0.47
  -9   1   1    5.94    0.47
   8  -1  -1   68.23    1.54
   8  -1  -1   66.95    1.22
   8  -1  -1   69.19    1.65
   8  -1  -1   68.23    1.54
   8  -1  -1   66.95    1.22
  -8   1   1   68.39    1.54
  -8   1   1   68.39    1.54
  -8   1   1   69.33    1.68
   7  -1  -1   10.72    0.51
   7  -1  -1   10.06    0.34
   7  -1  -1   10.06    0.34
   7  -1  -1    9.52    0.51
   7  -1  -1   10.72    0.51
  -7   1   1    9.55    0.54
  -7   1   1    9.23    0.48
  -7   1   1    9.23    0.48
   6  -1  -1    3.15    0.18
   6  -1  -1    3.86    0.48
   6  -1  -1    3.75    0.29
   6  -1  -1    3.22    0.28
   6  -1  -1    3.15    0.18
   6  -1  -1    3.75    0.29
  -6   1   1    3.68    0.29
  -6   1   1    3.58    0.35
  -6   1   1    3.68    0.29
   5  -1  -1    5.88    0.21
   5  -1  -1    5.81    0.45
   5  -1  -1    5.88    0.21
   5  -1  -1    5.13    0.30
   5  -1  -1    5.13    0.30
   5  -1  -1    5.73    0.31
  -5   1   1    5.19    0.30
  -5   1   1    5.77    0.35
  -5   1   1    5.19    0.30
   4  -1  -1    9.04    0.35
   4  -1  -1   10.18    0.53
   4  -1  -1    9.04    0.35
   4  -1  -1    9.33    0.25
   4  -1  -1    9.25    0.35
   4  -1  -1    9.33    0.25
  -4   1   1    8.87    0.38
  -4   1   1    9.76    0.36
  -4   1   1    9.76    0.36
   3  -1  -1  308.94    4.78
   3  -1  -1  306.61    4.44
  -3   1   1  314.10    4.54
  -3   1   1  305.44    4.45
  -3   1   1  305.44    4.45
   0  -1  -1   33.65    0.81
   0  -1  -1   31.83    0.60
   0   1   1   32.48    0.61
   0   1   1   32.55    0.60
   0   1   1   33.34    0.82
  -1  -1  -1  236.22    3.57
   1   1   1  227.47    3.56
   1   1   1  234.22    3.50
  -3  -1  -1  122.81    2.15
  -3  -1  -1  126.71    1.99
  -3  -1  -1  125.08    2.10
   3   1   1  124.46    2.11
   3   1   1  125.01    1.97
   3   1   1  124.26    2.12
  -4  -1  -1   84.14    1.43
  -4  -1  -1   82.09    1.46
  -4  -1  -1   81.13    1.59
  -4  -1  -1   80.65    1.37
  -4  -1  -1   80.65    1.37
   4   1   1   80.49    1.33
   4   1   1   79.46    1.64
  -5  -1  -1  243.39    3.67
  -5  -1  -1  242.58    3.74
  -5  -1  -1  238.14    3.88
  -5  -1  -1  250.27    3.79
  -5  -1  -1  243.39    3.67
   5   1   1  244.55    3.57
   5   1   1  239.33    4.07
   5   1   1  248.46    3.57
   5   1   1  248.46    3.57
  -6  -1  -1    0.51    0.14
  -6  -1  -1    0.42    0.11
  -6  -1  -1    0.64    0.15
  -6  -1  -1    0.51    0.14
  -6  -1  -1    0.98    0.17
   6   1   1    0.37    0.09
   6   1   1    0.40    0.14
   6   1   1    0.38    0.17
   6   1   1    0.37    0.09
  -7  -1  -1  326.76    4.98
  -7  -1  -1  326.76    4.98
  -7  -1  -1  333.67    5.11
   7   1   1  321.53    5.62
   7   1   1  329.34    4.81
   7   1   1  329.34    4.81
   7   1   1  328.82    5.24
  -8  -1  -1   52.06    1.23
  -8  -1  -1   52.06    1.23
  -8  -1  -1   52.24    1.32
   8   1   1   52.49    1.08
   8   1   1   52.62    1.42
   8   1   1   52.49    1.08
  -9  -1  -1   29.15    0.92
  -9  -1  -1   29.15    0.92
  -9  -1  -1   28.73    1.00
   9   1   1   30.69    1.12
   9   1   1   27.66    0.75
   9   1   1   27.66    0.75
 -10  -1  -1   36.49    1.22
 -10  -1  -1   35.65    1.09
 -10  -1  -1   35.65    1.09
  10   1   1   37.64    1.34
  10   1   1   36.40    0.92
  10   1   1   36.40    0.92
 -11  -1  -1    1.80    0.38
 -11  -1  -1    1.82    0.35
 -11  -1  -1    1.82    0.35
  11   1   1    1.71    0.23
  11   1   1    1.71    0.23
  10  -2  -1    7.91    0.28
  10  -2  -1    9.27    0.61
  10  -2  -1    7.98    0.28
  10  -2  -1    9.27    0.61
  10  -2  -1    7.14    0.61
  10  -2  -1    7.98    0.28
  10  -2  -1    7.91    0.28
 -10   2   1    8.71    0.61
 -10   2   1    8.38    0.68
 -10   2   1    8.71    0.61
   9  -2  -1    7.95    0.28
   9  -2  -1    7.95    0.28
   9  -2  -1    7.71    0.52
   9  -2  -1    7.20    0.54
   9  -2  -1    7.71    0.52
  -9   2   1    7.34    0.53
  -9   2   1    7.34    0.53
  -9   2   1    6.95    0.59
   8  -2  -1  210.11    3.59
   8  -2  -1  210.11    3.59
   8  -2  -1  210.29    3.08
   8  -2  -1  210.29    3.08
   8  -2  -1  209.29    3.68
  -8   2   1  207.65    3.59
  -8   2   1  207.65    3.59
  -8   2   1  212.24    3.81
   7  -2  -1    5.77    0.22
   7  -2  -1    5.77    0.22
   7  -2  -1    4.87    0.37
   7  -2  -1    4.87    0.37
   7  -2  -1    5.82    0.39
  -7   2   1    4.94    0.43
  -7   2   1    5.23    0.39
  -7   2   1    5.23    0.39
   6  -2  -1  156.60    2.31
   6  -2  -1  156.87    2.69
   6  -2  -1  156.61    2.31
   6  -2  -1  159.24    3.28
   6  -2  -1  155.71    2.68
   6  -2  -1  155.71    2.68
  -6   2   1  157.35    2.83
  -6   2   1  156.68    2.69
  -6   2   1  156.68    2.69
   5  -2  -1   32.96    1.14
   5  -2  -1   32.64    0.83
   5  -2  -1   31.68    0.57
   5  -2  -1   32.64    0.83
   5  -2  -1   31.68    0.57
   5  -2  -1   32.45    0.80
  -5   2   1   31.29    0.89
  -5   2   1   32.20    0.82
  -5   2   1   32.20    0.82
   4  -2  -1  341.94    4.97
   4  -2  -1  341.94    4.97
   4  -2  -1  331.56    5.41
   4  -2  -1  334.22    4.90
   4  -2  -1  334.53    4.65
   4  -2  -1  334.53    4.65
  -4   2   1  335.77    4.97
  -4   2   1  335.77    4.97
  -4   2   1  338.39    5.09
  -4   2   1  342.68    5.44
   3  -2  -1    3.30    0.20
   3  -2  -1    3.50    0.30
   3  -2  -1    3.30    0.20
   3  -2  -1    3.76    0.18
  -3   2   1    3.64    0.21
  -3   2   1    3.31    0.33
  -3   2   1    4.06    0.25
  -3   2   1    3.64    0.21
   2  -2  -1   81.19    1.58
  -2   2   1   83.44    1.80
  -2   2   1   82.66    1.60
  -2   2   1   81.49    1.57
  -4  -2  -1  247.69    3.84
  -4  -2  -1  245.00    4.20
  -4  -2  -1  238.64    3.58
  -4  -2  -1  255.44    3.77
  -4  -2  -1  238.64    3.58
  -4  -2  -1  245.78    3.62
   4   2   1  245.54    3.90
   4   2   1  249.83    3.82
   4   2   1  246.70    3.61
   4   2   1  245.64    4.11
  -5  -2  -1  199.44    3.26
  -5  -2  -1  194.78    3.01
  -5  -2  -1  196.61    3.04
  -5  -2  -1  199.86    3.61
  -5  -2  -1  194.78    3.01
  -5  -2  -1  198.10    3.06
   5   2   1  198.72    3.00
   5   2   1  198.72    3.00
   5   2   1  205.51    3.25
   5   2   1  196.49    3.41
   5   2   1  196.78    3.01
  -6  -2  -1   25.21    0.67
  -6  -2  -1   24.57    0.79
  -6  -2  -1   23.91    0.65
  -6  -2  -1   23.91    0.65
  -6  -2  -1   25.19    0.70
   6   2   1   25.43    0.63
   6   2   1   24.40    0.60
   6   2   1   24.73    0.92
   6   2   1   24.40    0.60
   6   2   1   23.15    0.78
  -7  -2  -1   41.17    0.98
  -7  -2  -1   41.80    1.00
  -7  -2  -1   41.17    0.98
  -7  -2  -1   42.84    1.05
   7   2   1   43.06    0.90
   7   2   1   41.21    0.90
   7   2   1   42.18    1.18
   7   2   1   41.21    0.90
   7   2   1   41.70    1.36
  -8  -2  -1  191.84    3.19
  -8  -2  -1  191.33    3.20
  -8  -2  -1  191.84    3.19
  -8  -2  -1  191.63    3.29
   8   2   1  193.57    3.05
   8   2   1  191.00    3.51
   8   2   1  193.57    3.05
  -9  -2  -1  210.05    3.62
  -9  -2  -1  202.10    3.46
  -9  -2  -1  202.10    3.46
   9   2   1  205.59    3.85
   9   2   1  209.04    3.30
   9   2   1  209.04    3.30
 -10  -2  -1   38.70    1.13
 -10  -2  -1   39.67    1.23
 -10  -2  -1   38.70    1.13
  10   2   1   38.39    0.98
  10   2   1   38.39    0.98
 -11  -2  -1   27.53    1.00
 -11  -2  -1   28.24    1.09
 -11  -2  -1   27.53    1.00
  11   2   1   28.06    0.84
  11   2   1   28.06    0.84
  10  -3  -1    1.06    0.32
  10  -3  -1    0.37    0.25
  10  -3  -1    1.06    0.32
 -10   3   1    0.99    0.32
 -10   3   1    0.33    0.26
 -10   3   1    0.99    0.32
   9  -3  -1   13.52    0.72
   9  -3  -1   13.58    0.70
   9  -3  -1   13.58    0.70
  -9   3   1   14.23    0.81
  -9   3   1   14.49    0.72
  -9   3   1   14.49    0.72
   8  -3  -1   50.16    1.33
   8  -3  -1   49.04    1.34
   8  -3  -1   50.16    1.33
  -8   3   1   51.91    1.35
  -8   3   1   50.39    1.49
  -8   3   1   51.91    1.35
   7  -3  -1    1.94    0.29
   7  -3  -1    1.94    0.29
   7  -3  -1    1.50    0.24
  -7   3   1    1.91    0.33
  -7   3   1    1.88    0.29
  -7   3   1    1.88    0.29
   6  -3  -1  165.42    2.83
   6  -3  -1  162.52    2.76
   6  -3  -1  165.42    2.83
   6  -3  -1  167.28    3.46
  -6   3   1  160.68    2.97
  -6   3   1  159.98    2.81
  -6   3   1  159.98    2.81
   5  -3  -1   36.42    0.93
   5  -3  -1   37.59    0.87
   5  -3  -1   38.52    1.29
   5  -3  -1   36.42    0.93
  -5   3   1   37.65    0.94
  -5   3   1   37.65    0.94
  -5   3   1   38.81    1.04
   4  -3  -1   48.66    1.36
   4  -3  -1   47.46    1.03
   4  -3  -1   49.67    0.95
   4  -3  -1   47.46    1.03
  -4   3   1   45.85    1.02
  -4   3   1   45.85    1.02
  -4   3   1   48.09    1.46
  -4   3   1   50.02    1.14
   3  -3  -1  228.38    3.27
   3  -3  -1  227.71    3.44
   3  -3  -1  227.71    3.44
   3  -3  -1  224.23    3.82
  -3   3   1  226.78    3.85
  -3   3   1  223.95    4.05
  -3   3   1  226.37    3.44
  -3   3   1  226.37    3.44
  -3   3   1  227.50    3.55
   2  -3  -1   48.69    0.92
   2  -3  -1   48.69    0.92
   2  -3  -1   44.31    1.39
   2  -3  -1   48.79    1.16
  -2   3   1   49.24    1.41
  -2   3   1   47.68    0.92
  -2   3   1   47.68    0.92
  -2   3   1   48.10    1.15
   1  -3  -1    7.31    0.36
   1  -3  -1    7.53    0.53
  -1   3   1    7.28    0.36
  -1   3   1    7.42    0.36
  -1   3   1    6.76    0.50
   0  -3  -1    0.06    0.05
   0  -3  -1    0.07    0.09
   0  -3  -1    0.11    0.06
   0   3   1    0.05    0.05
   0   3   1    0.10    0.06
  -1  -3  -1   11.03    0.37
  -1  -3  -1   14.44    0.72
   1   3   1   12.11    0.45
   1   3   1   14.08    0.70
   1   3   1   11.38    0.37
  -3  -3  -1    9.69    0.38
  -3  -3  -1   10.05    0.64
  -3  -3  -1    9.72    0.29
  -3  -3  -1    9.56    0.26
  -3  -3  -1    9.31    0.44
   3   3   1    9.22    0.38
   3   3   1    9.43    0.30
   3   3   1    9.26    0.59
  -4  -3  -1  651.17    9.18
  -4  -3  -1  659.63    9.56
  -4  -3  -1  659.70    9.14
  -4  -3  -1  668.10   10.20
  -4  -3  -1  659.70    9.14
   4   3   1  662.45   10.06
   4   3   1  670.13    9.26
   4   3   1  640.23    9.45
  -5  -3  -1   42.65    0.85
  -5  -3  -1   40.46    1.42
  -5  -3  -1   41.44    0.88
  -5  -3  -1   41.00    0.88
  -5  -3  -1   42.65    0.85
  -5  -3  -1   42.47    1.13
  -5  -3  -1   42.82    0.87
   5   3   1   48.00    1.17
   5   3   1   42.81    0.90
  -6  -3  -1   31.95    0.75
  -6  -3  -1   31.68    0.78
  -6  -3  -1   31.95    0.75
  -6  -3  -1   30.37    1.24
  -6  -3  -1   32.24    0.78
  -6  -3  -1   31.68    0.78
  -6  -3  -1   30.38    0.98
   6   3   1   30.73    0.72
   6   3   1   30.73    0.72
   6   3   1   31.18    0.77
   6   3   1   31.78    1.04
  -7  -3  -1    6.65    0.36
  -7  -3  -1    7.29    0.37
  -7  -3  -1    6.10    0.34
  -7  -3  -1    6.00    0.47
  -7  -3  -1    6.10    0.34
  -7  -3  -1    6.46    0.37
   7   3   1    6.22    0.61
   7   3   1    6.69    0.53
   7   3   1    6.28    0.33
   7   3   1    6.17    0.32
   7   3   1    6.17    0.32
  -8  -3  -1   20.25    0.69
  -8  -3  -1   21.65    0.72
  -8  -3  -1   19.65    0.66
  -8  -3  -1   19.65    0.66
   8   3   1   20.16    0.62
   8   3   1   19.94    0.62
   8   3   1   19.94    0.62
  -9  -3  -1  128.92    2.38
  -9  -3  -1  128.92    2.38
  -9  -3  -1  128.46    2.47
  -9  -3  -1  130.87    2.44
   9   3   1  132.27    2.28
   9   3   1  132.27    2.28
 -10  -3  -1   81.30    1.78
 -10  -3  -1   76.44    1.70
 -10  -3  -1   78.42    1.95
 -10  -3  -1   76.44    1.70
  10   3   1   74.96    1.57
  10   3   1   74.96    1.57
 -11  -3  -1   57.50    1.48
 -11  -3  -1   57.50    1.48
  11   3   1   57.33    1.34
  11   3   1   57.33    1.34
   9  -4  -1   31.10    1.09
   9  -4  -1   31.10    1.09
   9  -4  -1   29.89    1.09
  -9   4   1   32.48    1.12
  -9   4   1   32.05    1.26
  -9   4   1   32.48    1.12
   8  -4  -1    7.78    0.51
   8  -4  -1    6.76    0.50
   8  -4  -1    6.76    0.50
  -8   4   1    6.55    0.58
  -8   4   1    7.18    0.52
  -8   4   1    7.18    0.52
   7  -4  -1   56.41    1.36
   7  -4  -1   60.30    1.45
   7  -4  -1   60.30    1.45
  -7   4   1   58.38    1.44
  -7   4   1   61.15    1.61
  -7   4   1   58.38    1.44
   6  -4  -1   22.78    0.77
   6  -4  -1   20.41    0.67
   6  -4  -1   22.78    0.77
  -6   4   1   21.93    0.76
  -6   4   1   21.93    0.76
  -6   4   1   20.96    0.84
   5  -4  -1   -0.01    0.13
   5  -4  -1    0.20    0.20
   5  -4  -1   -0.01    0.13
  -5   4   1   -0.04    0.12
  -5   4   1    0.32    0.20
  -5   4   1    0.02    0.18
  -5   4   1   -0.04    0.12
   4  -4  -1  278.56    4.27
   4  -4  -1  278.56    4.27
   4  -4  -1  280.99    4.07
   4  -4  -1  279.01    4.80
  -4   4   1  278.26    4.27
  -4   4   1  278.26    4.27
  -4   4   1  275.50    4.41
  -4   4   1  276.56    4.80
   3  -4  -1   32.53    0.78
   3  -4  -1   32.53    0.78
   3  -4  -1   32.11    0.61
   3  -4  -1   31.44    1.02
  -3   4   1   32.21    1.03
  -3   4   1   31.44    1.22
  -3   4   1   31.98    0.77
  -3   4   1   32.16    0.85
  -3   4   1   31.98    0.77
   2  -4  -1    0.01    0.07
   2  -4  -1    0.50    0.16
   2  -4  -1    0.01    0.07
   2  -4  -1    0.14    0.18
  -2   4   1    0.73    0.18
  -2   4   1    0.16    0.09
  -2   4   1    0.16    0.09
  -2   4   1    0.11    0.09
  -2   4   1    0.58    0.23
   1  -4  -1  354.05    6.11
   1  -4  -1  357.72    5.06
   1  -4  -1  344.27    5.34
   1  -4  -1  357.72    5.06
  -1   4   1  353.61    5.36
  -1   4   1  355.33    6.10
   0  -4  -1  409.38    6.06
   0  -4  -1  419.96    6.98
   0  -4  -1  417.49    6.09
   0   4   1  409.51    6.08
   0   4   1  422.10    6.95
   0   4   1  417.15    6.08
  -1  -4  -1  622.75    9.69
   1   4   1  622.35    9.65
   1   4   1  589.57    8.60
  -2  -4  -1   -0.07    0.06
  -2  -4  -1   -0.02    0.17
  -2  -4  -1    0.26    0.11
   2   4   1   -0.08    0.11
   2   4   1    0.11    0.09
   2   4   1    0.00    0.17
  -3  -4  -1   75.03    1.41
  -3  -4  -1   73.45    1.15
  -3  -4  -1   72.06    1.37
  -3  -4  -1   76.78    1.65
  -3  -4  -1   73.85    2.11
   3   4   1   71.45    2.01
   3   4   1   74.75    1.39
   3   4   1   75.38    1.24
  -4  -4  -1  188.88    2.84
  -4  -4  -1  188.81    2.78
  -4  -4  -1  194.27    3.11
  -4  -4  -1  188.88    2.84
  -4  -4  -1  194.70    3.39
  -4  -4  -1  196.58    2.84
  -4  -4  -1  188.71    2.78
  -4  -4  -1  198.15    4.06
  -4  -4  -1  188.37    2.86
  -4  -4  -1  196.58    2.84
   4   4   1  188.07    3.12
   4   4   1  195.53    3.92
  -5  -4  -1    3.72    0.22
  -5  -4  -1    3.83    0.21
  -5  -4  -1    3.80    0.35
  -5  -4  -1    4.52    0.22
  -5  -4  -1    4.32    0.23
  -5  -4  -1    3.73    0.49
  -5  -4  -1    4.32    0.23
  -5  -4  -1    4.52    0.22
   5   4   1    3.73    0.24
   5   4   1    3.69    0.31
   5   4   1    3.65    0.46
  -6  -4  -1   90.01    1.58
  -6  -4  -1   92.15    2.58
  -6  -4  -1   90.01    1.58
  -6  -4  -1   92.04    2.07
  -6  -4  -1   95.70    2.23
  -6  -4  -1   92.37    1.65
  -6  -4  -1   92.51    1.60
  -6  -4  -1   92.51    1.60
  -6  -4  -1   92.29    1.64
   6   4   1   91.73    1.99
   6   4   1   91.26    1.68
   6   4   1   91.17    1.60
   6   4   1   91.17    1.60
  -7  -4  -1   94.57    1.71
  -7  -4  -1   92.45    2.17
  -7  -4  -1   94.97    1.77
  -7  -4  -1   94.57    1.71
  -7  -4  -1   95.26    1.77
   7   4   1   95.09    2.19
   7   4   1   93.83    1.69
   7   4   1   93.83    1.69
   7   4   1   98.34    1.79
  -8  -4  -1  116.68    2.10
  -8  -4  -1  116.68    2.10
  -8  -4  -1  118.86    2.17
   8   4   1  115.93    2.12
   8   4   1  114.12    2.06
   8   4   1  114.12    2.06
   8   4   1  124.43    3.74
  -9  -4  -1    7.75    0.45
  -9  -4  -1    7.75    0.45
  -9  -4  -1    7.11    0.46
   9   4   1    6.91    0.40
   9   4   1    6.91    0.40
   9   4   1    7.24    0.42
 -10  -4  -1   31.81    0.97
 -10  -4  -1   31.81    0.97
 -10  -4  -1   32.08    1.02
  10   4   1   29.97    0.89
  10   4   1   29.97    0.89
 -11  -4  -1   15.76    0.73
 -11  -4  -1   15.76    0.73
 -11  -4  -1   17.10    0.78
  11   4   1   16.50    0.67
  11   4   1   16.50    0.67
   9  -5  -1   21.48    0.92
   9  -5  -1   21.48    0.92
   9  -5  -1   20.88    0.89
  -9   5   1   20.72    1.05
  -9   5   1   21.88    0.94
  -9   5   1   21.88    0.94
   8  -5  -1   24.90    0.94
   8  -5  -1   22.91    0.86
   8  -5  -1   24.90    0.94
  -8   5   1   22.60    1.04
  -8   5   1   25.74    0.95
  -8   5   1   25.74    0.95
   7  -5  -1    8.16    0.52
   7  -5  -1    8.16    0.52
   7  -5  -1    8.73    0.48
  -7   5   1    9.63    0.56
  -7   5   1    9.63    0.56
  -7   5   1    8.07    0.61
   6  -5  -1   52.52    1.19
   6  -5  -1   54.40    1.33
   6  -5  -1   54.40    1.33
  -6   5   1   54.28    1.48
  -6   5   1   54.27    1.33
  -6   5   1   54.27    1.33
   5  -5  -1   19.65    0.69
   5  -5  -1   19.65    0.69
   5  -5  -1   18.93    0.57
   5  -5  -1   19.91    0.99
  -5   5   1   19.37    0.98
  -5   5   1   19.29    0.78
  -5   5   1   19.33    0.69
  -5   5   1   19.33    0.69
   4  -5  -1    0.06    0.12
   4  -5  -1    0.06    0.12
   4  -5  -1    0.35    0.20
   4  -5  -1    0.12    0.07
  -4   5   1   -0.04    0.12
  -4   5   1   -0.04    0.12
  -4   5   1    0.05    0.17
  -4   5   1    0.29    0.16
   3  -5  -1  206.46    2.89
   3  -5  -1  200.35    3.64
   3  -5  -1  197.59    3.17
   3  -5  -1  205.86    2.90
   3  -5  -1  197.59    3.17
  -3   5   1  199.54    3.66
  -3   5   1  197.33    3.17
  -3   5   1  201.66    3.21
  -3   5   1  198.70    3.30
  -3   5   1  197.33    3.17
   2  -5  -1   55.19    1.10
   2  -5  -1   55.19    1.10
   2  -5  -1   54.86    1.38
   2  -5  -1   54.44    1.86
  -2   5   1   54.64    1.09
  -2   5   1   57.26    1.86
  -2   5   1   54.42    1.18
  -2   5   1   54.64    1.09
  -2   5   1   55.69    1.40
   1  -5  -1  235.75    4.78
   1  -5  -1  240.64    3.55
   1  -5  -1  234.98    3.86
   1  -5  -1  240.64    3.55
  -1   5   1  240.04    3.90
  -1   5   1  237.28    3.63
  -1   5   1  238.63    4.72
   0  -5  -1  381.85    5.29
   0  -5  -1  379.08    5.71
   0  -5  -1  390.56    6.87
   0  -5  -1  372.97    5.46
   0  -5  -1  372.97    5.46
   0   5   1  393.33    5.75
   0   5   1  398.03    6.84
  -1  -5  -1   44.42    1.67
  -1  -5  -1   43.33    0.80
   1   5   1   43.68    1.00
   1   5   1   42.83    0.95
   1   5   1   43.58    1.61
  -2  -5  -1   82.08    1.25
  -2  -5  -1   86.74    2.47
  -2  -5  -1   82.08    1.25
  -2  -5  -1   83.51    1.45
   2   5   1   81.91    1.49
  -3  -5  -1    5.64    0.62
  -3  -5  -1    5.49    0.21
  -3  -5  -1    5.49    0.21
  -3  -5  -1    5.27    0.29
   3   5   1    5.64    0.22
   3   5   1    5.62    0.30
   3   5   1    5.40    0.22
  -4  -5  -1   57.99    1.53
  -4  -5  -1   59.31    2.07
  -4  -5  -1   57.77    1.03
  -4  -5  -1   57.77    1.03
  -4  -5  -1   58.84    1.26
  -4  -5  -1   57.38    0.97
   4   5   1   56.81    1.24
  -5  -5  -1    0.67    0.17
  -5  -5  -1    0.51    0.11
  -5  -5  -1    0.59    0.10
  -5  -5  -1    0.76    0.12
  -5  -5  -1    0.76    0.12
  -5  -5  -1    1.02    0.36
  -5  -5  -1    0.51    0.11
  -5  -5  -1    0.72    0.23
   5   5   1    0.60    0.17
   5   5   1    0.52    0.12
  -6  -5  -1   49.38    1.50
  -6  -5  -1   51.80    1.03
  -6  -5  -1   51.56    1.06
  -6  -5  -1   52.55    1.03
  -6  -5  -1   52.14    1.32
  -6  -5  -1   50.95    2.00
  -6  -5  -1   50.87    0.99
  -6  -5  -1   52.55    1.03
  -6  -5  -1   51.80    1.03
   6   5   1   51.02    1.35
   6   5   1   51.67    1.14
  -7  -5  -1   85.10    2.17
  -7  -5  -1   86.30    1.59
  -7  -5  -1   86.30    1.59
  -7  -5  -1   86.96    1.65
  -7  -5  -1   85.62    1.60
  -7  -5  -1   87.44    1.59
  -7  -5  -1   87.44    1.59
   7   5   1   88.60    2.06
   7   5   1   89.61    1.72
  -8  -5  -1   34.61    0.89
  -8  -5  -1   34.61    0.89
  -8  -5  -1   33.46    0.92
  -8  -5  -1   30.23    1.02
  -8  -5  -1   33.67    1.30
   8   5   1   35.64    1.30
   8   5   1   35.82    0.95
  -9  -5  -1   64.14    1.46
  -9  -5  -1   63.87    1.40
  -9  -5  -1   63.87    1.40
   9   5   1   61.76    1.42
 -10  -5  -1    3.98    0.38
 -10  -5  -1    3.27    0.37
 -10  -5  -1    3.98    0.38
 -11  -5  -1   29.32    0.98
 -11  -5  -1   29.32    0.98
 -11  -5  -1   30.08    1.04
   8  -6  -1   -0.07    0.19
   8  -6  -1   -0.07    0.19
   8  -6  -1    0.34    0.18
  -8   6   1    0.13    0.22
  -8   6   1    0.22    0.26
  -8   6   1    0.13    0.22
   7  -6  -1   11.78    0.55
   7  -6  -1   10.21    0.61
   7  -6  -1   10.21    0.61
  -7   6   1   11.38    0.63
  -7   6   1   11.93    0.76
  -7   6   1   11.38    0.63
   6  -6  -1   33.33    1.01
   6  -6  -1   32.38    0.86
   6  -6  -1   33.33    1.01
  -6   6   1   32.89    1.02
  -6   6   1   32.30    1.14
  -6   6   1   32.89    1.02
   5  -6  -1   34.58    0.99
   5  -6  -1   35.19    0.83
   5  -6  -1   34.58    0.99
  -5   6   1   36.56    1.01
  -5   6   1   36.56    1.01
  -5   6   1   35.08    1.12
   4  -6  -1  384.32    5.54
   4  -6  -1  392.82    5.87
   4  -6  -1  392.82    5.87
   4  -6  -1  390.87    6.52
  -4   6   1  381.60    6.52
  -4   6   1  384.72    6.04
  -4   6   1  387.12    5.85
  -4   6   1  387.12    5.85
   3  -6  -1    1.39    0.12
   3  -6  -1    1.10    0.20
   3  -6  -1    1.73    0.33
   3  -6  -1    1.10    0.20
  -3   6   1    1.72    0.23
  -3   6   1    1.13    0.28
  -3   6   1    1.72    0.23
  -3   6   1    1.25    0.22
   2  -6  -1  399.11    6.33
   2  -6  -1  406.00    5.86
   2  -6  -1  406.00    5.86
   2  -6  -1  404.61    7.42
  -2   6   1  398.67    6.37
  -2   6   1  395.79    5.85
  -2   6   1  394.28    5.97
  -2   6   1  395.79    5.85
   1  -6  -1    9.71    0.51
   1  -6  -1    9.82    0.37
   1  -6  -1    9.95    0.86
   1  -6  -1    9.82    0.37
  -1   6   1    9.64    0.52
  -1   6   1    9.34    0.40
  -1   6   1    9.93    0.37
  -1   6   1    9.93    0.37
   0  -6  -1   28.99    0.50
   0  -6  -1   28.57    0.54
   0  -6  -1   29.00    0.55
   0  -6  -1   28.55    1.43
   0   6   1   28.12    0.83
   0   6   1   27.91    0.68
  -1  -6  -1   21.23    1.25
  -1  -6  -1   20.84    0.50
  -1  -6  -1   20.34    0.56
  -1  -6  -1   20.34    0.56
   1   6   1   19.97    0.63
  -2  -6  -1   66.73    2.31
  -2  -6  -1   65.30    0.99
  -2  -6  -1   65.30    0.99
  -2  -6  -1   64.15    1.23
   2   6   1   65.13    1.30
  -3  -6  -1   12.06    0.47
  -3  -6  -1   13.16    0.33
  -3  -6  -1   11.92    0.97
  -3  -6  -1   13.16    0.33
   3   6   1   13.15    0.34
   3   6   1   13.20    0.49
   3   6   1   12.90    0.37
  -4  -6  -1  365.86    7.17
  -4  -6  -1  365.50    5.22
  -4  -6  -1  370.36    5.56
  -4  -6  -1  365.50    5.22
   4   6   1  366.20    5.52
  -5  -6  -1   99.69    1.68
  -5  -6  -1  103.04    2.40
  -5  -6  -1  101.53    3.12
  -5  -6  -1  101.25    2.01
  -5  -6  -1   98.99    1.58
  -5  -6  -1   99.69    1.68
   5   6   1  101.63    1.99
  -6  -6  -1   26.66    0.67
  -6  -6  -1   25.92    0.64
  -6  -6  -1   27.48    1.13
  -6  -6  -1   26.66    0.67
  -6  -6  -1   25.92    0.90
   6   6   1   24.93    0.75
   6   6   1   27.28    0.92
  -7  -6  -1   12.94    0.47
  -7  -6  -1   12.94    0.47
  -7  -6  -1   11.73    0.78
  -7  -6  -1   12.96    0.48
   7   6   1   13.21    0.70
   7   6   1   12.44    0.54
  -8  -6  -1    3.78    0.32
  -8  -6  -1    3.78    0.32
  -8  -6  -1    5.51    0.35
   8   6   1    4.66    0.51
   8   6   1    3.83    0.34
  -9  -6  -1    5.85    0.40
   9   6   1    6.00    0.43
 -10  -6  -1   17.88    0.72
  10   6   1   16.00    0.69
 -11  -6  -1   31.79    1.06
   7  -7  -1    2.42    0.29
   7  -7  -1    2.14    0.37
   7  -7  -1    2.14    0.37
  -7   7   1    2.22    0.37
  -7   7   1    2.14    0.43
  -7   7   1    2.22    0.37
   6  -7  -1    7.02    0.39
   6  -7  -1    7.13    0.50
   6  -7  -1    7.13    0.50
  -6   7   1    7.38    0.59
  -6   7   1    7.23    0.51
  -6   7   1    7.23    0.51
   5  -7  -1    7.07    0.47
   5  -7  -1    7.07    0.47
   5  -7  -1    5.26    0.30
  -5   7   1    5.43    0.49
  -5   7   1    5.76    0.43
  -5   7   1    5.76    0.43
   4  -7  -1   77.04    1.61
   4  -7  -1   75.21    1.31
   4  -7  -1   77.04    1.61
  -4   7   1   74.18    1.59
  -4   7   1   74.18    1.59
  -4   7   1   74.94    1.75
   3  -7  -1  230.09    3.64
   3  -7  -1  230.09    3.64
   3  -7  -1  228.38    3.26
  -3   7   1  222.62    3.62
  -3   7   1  222.62    3.62
  -3   7   1  225.36    3.79
   2  -7  -1    0.64    0.16
   2  -7  -1    0.22    0.29
   2  -7  -1    0.64    0.16
  -2   7   1    1.21    0.41
  -2   7   1    0.77    0.18
  -2   7   1    0.84    0.16
  -2   7   1    0.84    0.16
   1  -7  -1  279.88    5.97
   1  -7  -1  273.96    4.58
  -1   7   1  274.28    4.82
  -1   7   1  271.68    4.26
   0  -7  -1   95.47    1.51
   0  -7  -1   93.33    3.11
   0   7   1   94.00    1.97
  -1  -7  -1   41.40    0.87
   1   7   1   48.04    1.24
  -2  -7  -1    4.72    0.28
   2   7   1    4.71    0.48
  -3  -7  -1    7.66    0.24
  -3  -7  -1    7.66    0.24
  -3  -7  -1    7.52    0.38
  -4  -7  -1   31.27    0.91
  -4  -7  -1   33.03    0.67
  -4  -7  -1   33.03    0.67
   4   7   1   31.99    0.74
  -5  -7  -1   60.79    1.13
  -5  -7  -1   60.34    1.44
  -5  -7  -1   60.79    1.13
  -6  -7  -1   10.03    0.29
  -6  -7  -1    9.96    0.74
  -6  -7  -1    9.86    0.39
  -6  -7  -1    9.85    0.56
  -6  -7  -1    9.86    0.39
  -7  -7  -1   75.09    1.36
  -7  -7  -1   76.84    1.84
  -7  -7  -1   72.95    1.42
  -7  -7  -1   72.95    1.42
   7   7   1   73.17    1.58
  -8  -7  -1   13.43    0.53
  -8  -7  -1   13.58    0.51
  -8  -7  -1   13.43    0.53
   8   7   1   14.92    0.64
  -9  -7  -1   23.46    0.77
  -9  -7  -1   23.96    0.76
  -9  -7  -1   23.46    0.77
   9   7   1   24.55    0.87
 -10  -7  -1   16.96    0.69
  10   7   1   18.78    0.78
 -11  -7  -1    7.67    0.51
  11   7   1    6.55    0.51
   6  -8  -1   38.99    0.96
  -6   8   1   39.25    1.35
   5  -8  -1    0.33    0.12
  -5   8   1    0.38    0.23
   4  -8  -1    4.13    0.23
  -4   8   1    3.78    0.43
  -3   8   1    1.39    0.27
   1  -8  -1   42.35    0.77
   0  -8  -1   25.81    0.59
  -1  -8  -1  357.65    5.22
  -2  -8  -1   44.81    1.01
  -3  -8  -1  112.95    1.67
  -3  -8  -1  113.13    2.08
  -3  -8  -1  112.95    1.67
  -4  -8  -1    0.20    0.08
  -4  -8  -1    0.10    0.12
  -4  -8  -1    0.20    0.08
  -5  -8  -1   51.68    1.00
  -5  -8  -1   51.55    1.33
  -5  -8  -1   51.68    1.00
  -6  -8  -1   25.56    0.94
  -6  -8  -1   25.74    0.67
  -6  -8  -1   25.74    0.67
  -7  -8  -1   45.71    1.02
  -7  -8  -1   45.71    1.02
  -7  -8  -1   44.20    1.37
  -8  -8  -1   77.58    1.54
  -8  -8  -1   74.25    1.36
  -8  -8  -1   77.58    1.54
  -9  -8  -1  182.26    3.07
  -9  -8  -1  182.26    3.07
  -9  -8  -1  178.75    2.94
   9   8   1  180.42    3.28
 -10  -8  -1   24.09    0.82
 -10  -8  -1   24.09    0.82
 -10  -8  -1   24.28    0.77
  10   8   1   22.55    0.91
 -11  -8  -1    1.17    0.25
  11   8   1    1.53    0.31
   5  -9  -1    7.62    0.34
   4  -9  -1  181.19    2.76
   1  -9  -1    0.17    0.08
   0  -9  -1    2.14    0.19
  -1  -9  -1   13.49    0.48
  -2  -9  -1   70.73    1.45
  -3  -9  -1   82.84    1.70
  -4  -9  -1  268.60    4.39
  -4  -9  -1  269.87    3.85
  -4  -9  -1  269.87    3.85
  -5  -9  -1    0.90    0.13
  -5  -9  -1    0.90    0.13
  -5  -9  -1    0.62    0.21
  -6  -9  -1    0.25    0.19
  -6  -9  -1    0.09    0.09
  -6  -9  -1    0.09    0.09
  -7  -9  -1    2.89    0.43
  -7  -9  -1    2.18    0.23
  -7  -9  -1    2.18    0.23
  -8  -9  -1   17.61    0.62
  -8  -9  -1   17.61    0.62
  -9  -9  -1   18.84    0.68
  -9  -9  -1   18.84    0.68
 -10  -9  -1    5.59    0.45
 -10  -9  -1    5.59    0.45
  10   9   1    5.10    0.51
   1 -10  -1    9.87    0.36
   0 -10  -1   14.01    0.48
  -1 -10  -1   27.71    0.77
  -2 -10  -1    0.44    0.15
  -3 -10  -1    0.16    0.13
  -4 -10  -1   32.88    1.03
  -5 -10  -1   28.86    0.62
  -5 -10  -1   28.86    0.62
  -5 -10  -1   29.24    1.02
  -6 -10  -1   72.37    1.82
  -6 -10  -1   69.58    1.30
  -6 -10  -1   69.58    1.30
  -7 -10  -1   10.52    0.43
  -7 -10  -1   10.54    0.70
  -7 -10  -1   10.52    0.43
  -8 -10  -1   53.74    1.20
  -8 -10  -1   53.18    1.68
  -8 -10  -1   53.74    1.20
  -9 -10  -1   18.90    0.69
  -9 -10  -1   18.90    0.69
   1 -11  -1    1.17    0.17
   0 -11  -1    6.43    0.36
  -1 -11  -1   22.50    0.72
  -2 -11  -1   19.99    0.73
  -3 -11  -1    5.54    0.43
  -4 -11  -1    2.79    0.36
  -5 -11  -1    0.30    0.07
  -5 -11  -1    0.30    0.07
  -5 -11  -1    0.26    0.19
  -6 -11  -1   23.80    0.58
  -6 -11  -1   22.81    0.99
  -6 -11  -1   23.80    0.58
  -7 -11  -1    6.40    0.61
  -7 -11  -1    6.81    0.34
  -7 -11  -1    6.81    0.34
  -8 -11  -1   24.75    1.16
  -8 -11  -1   26.21    0.76
  -8 -11  -1   26.21    0.76
   1 -12  -1    0.05    0.11
   0 -12  -1    1.70    0.22
  -1 -12  -1   23.21    0.77
  -2 -12  -1   27.59    0.91
  -3 -12  -1    7.55    0.51
  -4 -12  -1   66.47    1.70
  -5 -12  -1    5.35    0.51
  -6 -12  -1    2.74    0.45
  -6 -12  -1    2.95    0.16
  -6 -12  -1    2.95    0.16
  -7 -12  -1    0.04    0.10
  -7 -12  -1    0.04    0.10
  -7 -12  -1    0.23    0.24
  -6 -12   2   58.09    1.76
  -6 -12   2   53.11    1.00
  -6 -12   2   53.11    1.00
  -5 -12   2    2.77    0.45
  -4 -12   2    0.08    0.22
  -3 -12   2    4.09    0.48
  -2 -12   2    4.03    0.45
  -1 -12   2    8.40    0.55
  -8 -11   2  116.71    2.13
  -8 -11   2  116.71    2.13
  -7 -11   2   13.49    0.88
  -7 -11   2   12.47    0.50
  -7 -11   2   12.47    0.50
  -6 -11   2    7.36    0.64
  -6 -11   2    6.09    0.31
  -6 -11   2    6.09    0.31
  -5 -11   2    4.02    0.22
  -5 -11   2    4.02    0.22
  -5 -11   2    3.51    0.47
  -4 -11   2    3.70    0.44
  -3 -11   2   22.67    0.91
  -2 -11   2    6.16    0.48
  -1 -11   2   43.97    1.22
   0 -11   2    3.70    0.36
   1 -11   2    1.83    0.27
   2 -11   2   13.13    0.59
  -9 -10   2    7.03    0.45
  -9 -10   2    7.03    0.45
  -8 -10   2   59.39    1.33
  -8 -10   2   59.39    1.33
  -7 -10   2   47.82    1.10
  -7 -10   2   47.59    1.58
  -7 -10   2   47.82    1.10
  -6 -10   2    2.60    0.42
  -6 -10   2    2.30    0.23
  -6 -10   2    2.30    0.23
  -5 -10   2  103.18    1.73
  -5 -10   2  103.18    1.73
  -5 -10   2  104.21    2.35
  -4 -10   2    7.36    0.27
  -4 -10   2    7.36    0.27
  -4 -10   2    7.82    0.55
  -3 -10   2    2.14    0.32
  -2 -10   2    0.09    0.15
  -1 -10   2   44.98    1.18
   0 -10   2    4.14    0.35
   1 -10   2    0.15    0.14
   2 -10   2    4.12    0.34
   3 -10   2    2.32    0.29
 -10  -9   2   17.22    0.72
 -10  -9   2   17.22    0.72
   9   9  -2   36.44    1.20
  -9  -9   2   39.04    1.05
  -9  -9   2   39.04    1.05
  -8  -9   2   24.68    0.78
  -8  -9   2   24.68    0.78
  -7  -9   2    6.97    0.39
  -7  -9   2    7.56    0.63
  -7  -9   2    6.97    0.39
  -6  -9   2   17.91    0.57
  -6  -9   2   18.56    0.88
  -6  -9   2   17.91    0.57
  -5  -9   2    8.19    0.35
  -5  -9   2    8.51    0.59
  -5  -9   2    8.19    0.35
  -4  -9   2   11.40    0.37
  -4  -9   2   11.68    0.64
  -4  -9   2   11.40    0.37
  -3  -9   2   49.16    1.30
  -3  -9   2   50.23    0.86
  -3  -9   2   50.23    0.86
  -2  -9   2   22.37    0.78
  -1  -9   2   61.21    1.38
   0  -9   2   26.02    0.79
   1  -9   2   22.84    0.72
   2  -9   2  168.05    2.82
   3  -9   2    9.48    0.47
   4  -9   2   32.08    0.92
   5  -9   2   28.93    0.90
 -10  -8   2   46.63    1.17
  -9  -8   2    8.13    0.48
  -9  -8   2    8.53    0.43
  -9  -8   2    8.13    0.48
   8   8  -2   20.75    0.82
  -8  -8   2   21.69    0.72
  -8  -8   2   23.27    0.62
  -8  -8   2   21.69    0.72
  -7  -8   2   11.39    0.47
  -7  -8   2   12.92    0.98
  -7  -8   2   11.39    0.47
  -6  -8   2   14.20    0.50
  -6  -8   2   14.20    0.50
  -6  -8   2   13.60    0.73
  -5  -8   2   32.51    0.76
  -5  -8   2   34.05    1.09
  -5  -8   2   32.51    0.76
   4   8  -2   32.47    0.85
  -4  -8   2   33.06    1.03
  -4  -8   2   33.10    0.72
  -4  -8   2   33.10    0.72
  -3  -8   2  215.19    3.16
  -3  -8   2  215.19    3.16
  -3  -8   2  220.46    3.66
  -3  -8   2  213.80    4.32
  -2  -8   2  429.97    6.55
  -2  -8   2  439.43    6.02
  -2  -8   2  439.43    6.02
  -1  -8   2  203.96    3.33
   0  -8   2   10.49    0.46
   1  -8   2   57.55    1.21
   2  -8   2   17.34    0.58
   3  -8   2    2.56    0.27
   4  -8   2    2.53    0.29
   5  -8   2   89.19    1.82
  -6   8  -2    0.54    0.26
   6  -8   2    0.44    0.18
 -11  -7   2   17.39    0.76
 -10  -7   2    7.76    0.49
  -9  -7   2    8.83    0.47
   8   7  -2   58.06    1.41
  -8  -7   2   56.13    1.27
  -8  -7   2   57.15    1.25
  -8  -7   2   56.13    1.27
   7   7  -2   22.40    0.77
  -7  -7   2   22.44    0.63
  -7  -7   2   21.65    0.67
  -7  -7   2   21.65    0.67
  -6  -7   2    0.61    0.14
  -6  -7   2    0.33    0.09
  -6  -7   2    0.28    0.18
  -6  -7   2    0.61    0.14
  -5  -7   2   32.76    1.34
  -5  -7   2   29.89    0.73
  -5  -7   2   30.34    1.00
  -5  -7   2   29.89    0.73
   4   7  -2   13.55    0.50
  -4  -7   2   15.11    0.43
  -4  -7   2   13.50    0.61
  -4  -7   2   15.11    0.43
  -4  -7   2   13.95    0.83
   3   7  -2    3.68    0.24
  -3  -7   2    3.71    0.32
  -3  -7   2    3.68    0.20
  -3  -7   2    3.68    0.20
  -3  -7   2    3.10    0.45
  -2  -7   2   43.23    1.05
  -2  -7   2   42.78    0.75
  -2  -7   2   42.74    1.43
  -2  -7   2   42.78    0.75
  -1  -7   2  546.36    7.43
  -1  -7   2  546.36    7.43
  -1  -7   2  545.97    7.90
   0  -7   2  165.60    2.70
   1  -7   2  240.43    3.69
   2  -7   2   58.48    1.19
  -3   7  -2    2.31    0.30
   3  -7   2    2.71    0.25
  -4   7  -2   29.22    0.96
   4  -7   2   29.21    0.82
  -5   7  -2    6.63    0.51
   5  -7   2    6.96    0.42
  -6   7  -2    2.20    0.38
   6  -7   2    1.60    0.26
  -7   7  -2  124.12    2.73
   7  -7   2  121.30    2.44
 -11  -6   2   51.05    1.41
 -10  -6   2   31.48    1.01
  -9  -6   2   66.77    1.51
   8   6  -2   38.57    1.07
  -8  -6   2   39.47    0.99
  -8  -6   2   37.96    1.01
  -8  -6   2   39.47    0.99
   7   6  -2   60.13    1.35
  -7  -6   2   58.44    1.24
  -7  -6   2   55.97    1.21
  -7  -6   2   55.97    1.21
   6   6  -2  371.68    5.62
  -6  -6   2  376.91    5.93
  -6  -6   2  370.50    5.44
  -6  -6   2  372.52    6.40
  -6  -6   2  360.00    5.41
  -6  -6   2  370.50    5.44
   5   6  -2    0.15    0.11
  -5  -6   2    0.18    0.09
  -5  -6   2   -0.16    0.11
  -5  -6   2    0.52    0.19
  -5  -6   2    0.18    0.09
  -5  -6   2    0.11    0.07
   4   6  -2   46.94    1.02
  -4  -6   2   47.95    1.19
  -4  -6   2   46.62    1.47
  -4  -6   2   47.14    0.73
  -4  -6   2   46.41    0.92
  -4  -6   2   46.41    0.92
   3   6  -2  143.72    2.27
  -3  -6   2  143.55    4.48
  -3  -6   2  144.46    2.50
  -3  -6   2  139.46    2.18
  -3  -6   2  139.46    2.18
  -3  -6   2  142.36    2.92
   2   6  -2   25.93    0.55
  -2  -6   2   26.53    1.00
  -2  -6   2   27.01    0.54
  -2  -6   2   26.79    0.75
  -2  -6   2   26.72    1.46
  -2  -6   2   27.01    0.54
  -1  -6   2    0.53    0.12
  -1  -6   2    0.85    0.23
  -1  -6   2    0.56    0.07
  -1  -6   2    0.93    0.37
  -1  -6   2    0.56    0.07
   0  -6   2   57.52    1.14
   0  -6   2   57.07    2.13
  -1   6  -2   87.36    1.58
   1  -6   2   83.63    2.64
   1  -6   2   84.49    1.51
  -2   6  -2  296.86    4.49
   2  -6   2  295.37    4.38
   2  -6   2  288.92    7.23
  -3   6  -2    2.10    0.27
   3  -6   2    2.35    0.25
  -4   6  -2   42.12    1.34
  -4   6  -2   42.12    1.34
  -4   6  -2   44.99    1.18
   4  -6   2   43.12    1.19
   4  -6   2   45.00    1.04
   4  -6   2   43.12    1.19
  -5   6  -2   94.07    2.01
  -5   6  -2   91.13    1.81
  -5   6  -2   91.13    1.81
   5  -6   2   91.81    1.82
   5  -6   2   93.93    1.83
   5  -6   2   93.93    1.83
  -6   6  -2    1.58    0.28
  -6   6  -2    1.23    0.29
  -6   6  -2    1.58    0.28
   6  -6   2    1.26    0.23
  -7   6  -2   43.06    1.22
  -7   6  -2   43.06    1.22
  -7   6  -2   43.15    1.39
   7  -6   2   42.02    1.21
  -8   6  -2   19.44    0.98
  -8   6  -2   19.82    0.86
  -8   6  -2   19.82    0.86
   8  -6   2   18.91    0.83
 -11  -5   2    5.49    0.50
 -10  -5   2    4.20    0.43
  -9  -5   2   21.52    0.78
  -8  -5   2   37.46    1.00
   7   5  -2   49.14    1.16
  -7  -5   2   48.17    1.58
  -7  -5   2   49.23    1.07
  -7  -5   2   47.17    1.11
  -7  -5   2   47.35    1.07
  -7  -5   2   49.23    1.07
   6   5  -2   10.19    0.45
  -6  -5   2   10.33    0.40
  -6  -5   2   10.64    0.39
  -6  -5   2   10.63    0.68
  -6  -5   2   10.33    0.40
  -6  -5   2   10.25    0.42
   5   5  -2    1.41    0.27
   5   5  -2    1.10    0.16
  -5  -5   2    1.39    0.16
  -5  -5   2    1.65    0.25
  -5  -5   2    1.60    0.45
  -5  -5   2    1.14    0.15
  -5  -5   2    1.44    0.31
  -5  -5   2    1.14    0.15
   4   5  -2  181.17    2.88
   4   5  -2  187.67    2.90
  -4  -5   2  181.61    2.77
  -4  -5   2  181.86    3.09
  -4  -5   2  183.02    2.74
  -4  -5   2  183.65    3.44
  -4  -5   2  181.61    2.77
  -4  -5   2  183.20    4.29
   3   5  -2    0.27    0.07
   3   5  -2    0.21    0.08
  -3  -5   2    0.48    0.27
  -3  -5   2    0.42    0.05
  -3  -5   2    0.23    0.07
  -3  -5   2    0.23    0.07
  -3  -5   2    0.75    0.16
  -3  -5   2    0.36    0.15
   2   5  -2   28.56    0.58
  -2  -5   2   28.52    0.57
  -2  -5   2   27.89    1.36
  -2  -5   2   28.52    0.57
  -2  -5   2   29.30    0.97
  -2  -5   2   27.73    0.73
  -1  -5   2  163.78    2.96
  -1  -5   2  156.88    2.55
  -1  -5   2  165.78    3.80
  -1  -5   2  157.94    2.32
  -1  -5   2  157.94    2.32
   0   5  -2    2.68    0.17
   0   5  -2    2.45    0.16
   0  -5   2    2.66    0.44
   0  -5   2    2.88    0.20
   0  -5   2    2.79    0.10
   0  -5   2    2.64    0.17
   0  -5   2    2.79    0.10
  -1   5  -2  132.45    2.30
  -1   5  -2  136.12    2.18
   1  -5   2  138.14    3.29
   1  -5   2  132.02    2.26
   1  -5   2  134.79    2.15
  -2   5  -2  104.25    1.69
  -2   5  -2  104.25    1.69
  -2   5  -2  102.89    1.82
  -2   5  -2  100.00    2.00
   2  -5   2  104.64    2.00
   2  -5   2  100.02    1.69
   2  -5   2  103.01    2.69
   2  -5   2  100.01    1.69
   2  -5   2  102.34    1.73
  -3   5  -2   19.32    0.80
  -3   5  -2   19.72    0.56
  -3   5  -2   20.36    0.67
  -3   5  -2   19.72    0.56
   3  -5   2   20.17    0.79
   3  -5   2   20.04    0.57
   3  -5   2   20.24    0.59
   3  -5   2   20.04    0.57
  -4   5  -2   98.11    1.79
  -4   5  -2   98.11    1.79
  -4   5  -2   97.27    1.95
   4  -5   2   99.12    2.24
   4  -5   2  102.22    1.83
   4  -5   2   98.99    1.80
   4  -5   2   98.99    1.80
  -5   5  -2    4.37    0.34
  -5   5  -2    4.37    0.34
  -5   5  -2    5.01    0.41
   5  -5   2    4.54    0.33
   5  -5   2    3.73    0.48
   5  -5   2    4.65    0.35
   5  -5   2    4.65    0.35
  -6   5  -2   54.04    1.29
  -6   5  -2   54.04    1.29
  -6   5  -2   54.45    1.45
   6  -5   2   54.06    1.31
  -7   5  -2  114.51    2.27
  -7   5  -2  114.51    2.27
  -7   5  -2  114.79    2.49
   7  -5   2  117.11    2.33
  -8   5  -2    2.44    0.38
  -8   5  -2    2.44    0.38
  -8   5  -2    3.15    0.47
   8  -5   2    2.77    0.36
  11   4  -2    7.47    0.47
  11   4  -2    7.47    0.47
 -11  -4   2    6.34    0.52
  10   4  -2    7.81    0.46
  10   4  -2    7.81    0.46
 -10  -4   2    9.13    0.55
   9   4  -2    1.41    0.24
   9   4  -2    1.41    0.24
  -9  -4   2    1.85    0.26
  -9  -4   2    0.87    0.21
  -9  -4   2    1.85    0.26
   8   4  -2   40.78    0.97
   8   4  -2   40.78    0.97
   8   4  -2   39.24    1.37
  -8  -4   2   40.12    1.05
  -8  -4   2   39.30    1.44
  -8  -4   2   40.83    0.98
  -8  -4   2   40.83    0.98
   7   4  -2    0.57    0.14
   7   4  -2    0.57    0.14
   7   4  -2    0.48    0.21
  -7  -4   2    0.82    0.15
  -7  -4   2    0.55    0.32
  -7  -4   2    0.56    0.24
  -7  -4   2    0.67    0.16
  -7  -4   2    0.82    0.15
   6   4  -2  225.18    3.89
   6   4  -2  235.06    3.60
  -6  -4   2  227.97    3.49
  -6  -4   2  228.71    3.43
  -6  -4   2  229.98    4.15
  -6  -4   2  228.71    3.43
  -6  -4   2  224.49    3.56
  -6  -4   2  227.06    4.95
  -6  -4   2  227.97    3.49
   5   4  -2    2.39    0.27
   5   4  -2    2.86    0.23
  -5  -4   2    2.37    0.20
  -5  -4   2    2.31    0.19
  -5  -4   2    2.24    0.16
  -5  -4   2    2.10    0.33
  -5  -4   2    2.24    0.16
  -5  -4   2    2.31    0.19
  -5  -4   2    2.46    0.19
  -5  -4   2    2.43    0.30
  -5  -4   2    2.44    0.52
   4   4  -2  129.94    2.13
   4   4  -2  128.79    2.20
  -4  -4   2  130.33    2.14
  -4  -4   2  126.90    2.30
  -4  -4   2  133.00    2.04
  -4  -4   2  131.07    2.56
  -4  -4   2  129.24    3.23
  -4  -4   2  128.09    2.00
  -4  -4   2  126.14    2.06
  -4  -4   2  133.00    2.04
   3   4  -2   20.33    0.52
   3   4  -2   20.06    0.49
  -3  -4   2   19.83    0.47
  -3  -4   2   19.67    0.75
  -3  -4   2   19.60    0.46
  -3  -4   2   19.49    0.45
  -3  -4   2   19.79    0.61
  -3  -4   2   19.60    0.46
  -3  -4   2   20.39    1.09
   2   4  -2   12.15    0.33
  -2  -4   2   11.59    0.42
  -2  -4   2   11.86    0.31
  -2  -4   2   11.86    0.31
  -2  -4   2   11.88    0.81
  -2  -4   2   11.04    0.53
  -1  -4   2   59.52    1.14
  -1  -4   2   61.06    0.98
  -1  -4   2   61.06    0.98
  -1  -4   2   62.68    1.38
  -1  -4   2   61.45    1.88
   0   4  -2   96.51    1.52
   0   4  -2   94.94    1.48
   0  -4   2   94.50    1.50
   0  -4   2   96.74    1.41
   0  -4   2   97.38    1.85
   0  -4   2   96.74    1.41
   0  -4   2   93.96    1.58
   0  -4   2   97.19    2.45
  -1   4  -2  709.04    9.59
  -1   4  -2  699.24    9.76
  -1   4  -2  707.93    9.72
  -1   4  -2  663.78   10.05
   1  -4   2  687.49   10.68
   1  -4   2  666.74    9.54
   1  -4   2  673.69    9.68
  -2   4  -2    3.05    0.22
  -2   4  -2    3.70    0.24
  -2   4  -2    3.39    0.20
  -2   4  -2    3.76    0.35
  -2   4  -2    3.39    0.20
   2  -4   2    3.68    0.21
   2  -4   2    4.11    0.21
   2  -4   2    4.11    0.21
   2  -4   2    3.28    0.27
  -3   4  -2   16.88    0.50
  -3   4  -2   16.88    0.50
  -3   4  -2   16.73    0.57
   3  -4   2   16.69    0.84
   3  -4   2   16.36    0.68
   3  -4   2   17.22    0.50
   3  -4   2   17.06    0.52
   3  -4   2   17.22    0.50
  -4   4  -2   -0.07    0.10
  -4   4  -2    0.06    0.10
  -4   4  -2    0.06    0.10
   4  -4   2    0.61    0.21
   4  -4   2    0.05    0.09
   4  -4   2    0.31    0.11
   4  -4   2    0.05    0.09
  -5   4  -2    6.42    0.37
  -5   4  -2    6.42    0.37
  -5   4  -2    6.53    0.44
   5  -4   2    5.92    0.36
   5  -4   2    6.41    0.38
   5  -4   2    6.48    0.55
   5  -4   2    5.92    0.36
  -6   4  -2    2.85    0.35
  -6   4  -2    2.56    0.30
  -6   4  -2    2.56    0.30
   6  -4   2    2.49    0.29
   6  -4   2    2.78    0.30
   6  -4   2    2.78    0.30
  -7   4  -2   54.13    1.49
  -7   4  -2   57.47    1.37
  -7   4  -2   57.47    1.37
   7  -4   2   55.11    1.41
  -8   4  -2    6.28    0.50
  -8   4  -2    6.28    0.50
  -8   4  -2    5.28    0.56
   8  -4   2    6.46    0.50
  -9   4  -2   20.55    1.00
  -9   4  -2   20.74    0.88
  -9   4  -2   20.74    0.88
   9  -4   2   20.41    0.92
  11   3  -2    7.55    0.46
  11   3  -2    7.55    0.46
 -11  -3   2    8.26    0.56
 -11  -3   2    8.26    0.56
  10   3  -2    0.21    0.15
  10   3  -2    0.21    0.15
 -10  -3   2    0.20    0.17
 -10  -3   2    0.23    0.18
 -10  -3   2    0.23    0.18
   9   3  -2    0.03    0.13
   9   3  -2    0.03    0.13
  -9  -3   2    0.00    0.14
  -9  -3   2    0.05    0.15
  -9  -3   2    0.00    0.14
   8   3  -2    3.84    0.30
   8   3  -2    3.84    0.30
   8   3  -2    4.25    0.54
  -8  -3   2    3.79    0.34
  -8  -3   2    3.77    0.31
  -8  -3   2    3.77    0.31
  -8  -3   2    4.14    0.48
   7   3  -2    4.38    0.45
   7   3  -2    4.36    0.29
   7   3  -2    4.36    0.29
   7   3  -2    4.40    0.29
   7   3  -2    4.40    0.29
  -7  -3   2    4.37    0.29
  -7  -3   2    4.37    0.29
  -7  -3   2    4.38    0.31
  -7  -3   2    4.57    0.45
  -7  -3   2    4.65    0.32
   6   3  -2  295.75    4.33
   6   3  -2  286.90    4.32
   6   3  -2  290.34    4.83
   6   3  -2  286.90    4.32
   6   3  -2  295.75    4.33
  -6  -3   2  295.54    4.43
  -6  -3   2  289.52    4.32
  -6  -3   2  292.37    4.90
  -6  -3   2  289.77    4.38
  -6  -3   2  289.52    4.32
  -6  -3   2  294.70    5.64
   5   3  -2  272.99    4.00
   5   3  -2  267.41    4.37
   5   3  -2  281.60    4.12
   5   3  -2  267.41    4.37
   5   3  -2  276.01    4.42
   5   3  -2  272.99    4.00
  -5  -3   2  270.88    4.55
  -5  -3   2  274.34    4.11
  -5  -3   2  279.09    5.28
  -5  -3   2  277.14    4.01
  -5  -3   2  277.14    4.01
   4   3  -2  308.11    4.46
   4   3  -2  306.52    4.64
  -4  -3   2  299.29    4.85
  -4  -3   2  299.14    4.43
  -4  -3   2  305.76    5.56
   3   3  -2  244.34    3.63
  -3  -3   2  238.02    4.56
  -3  -3   2  242.35    3.54
  -3  -3   2  246.63    3.94
  -3  -3   2  243.58    3.59
  -3  -3   2  240.71    3.50
   2   3  -2   12.97    0.31
   2   3  -2   13.77    0.35
  -2  -3   2   12.62    0.51
  -2  -3   2   13.05    0.75
  -2  -3   2   12.57    0.31
  -2  -3   2   13.04    0.29
  -2  -3   2   12.66    0.26
   1   3  -2   23.12    0.44
  -1  -3   2   23.67    0.99
  -1  -3   2   22.28    0.66
   0   3  -2    5.52    0.19
   0   3  -2    5.61    0.17
   0  -3   2    5.56    0.27
   0  -3   2    5.63    0.29
   0  -3   2    5.32    0.18
   0  -3   2    5.43    0.46
  -1   3  -2   37.06    1.02
  -1   3  -2   38.51    0.81
  -1   3  -2   38.29    0.78
   1  -3   2   39.31    0.82
   1  -3   2   38.82    0.76
   1  -3   2   39.57    1.23
  -2   3  -2  331.74    4.71
  -2   3  -2  330.90    4.83
  -2   3  -2  331.74    4.71
  -2   3  -2  326.95    4.74
  -2   3  -2  321.02    4.96
  -2   3  -2  325.73    5.23
   2  -3   2  331.21    4.55
   2  -3   2  345.01    4.72
   2  -3   2  331.21    4.55
   2  -3   2  325.44    4.78
   2  -3   2  345.01    4.72
   2  -3   2  328.11    4.99
   2  -3   2  324.53    5.40
  -3   3  -2   16.88    0.74
  -3   3  -2   15.79    0.46
  -3   3  -2   15.79    0.46
  -3   3  -2   15.59    0.40
  -3   3  -2   15.86    0.53
   3  -3   2   16.80    0.47
   3  -3   2   16.27    0.32
   3  -3   2   15.89    0.63
   3  -3   2   15.82    0.68
   3  -3   2   16.80    0.47
   3  -3   2   16.37    0.50
   3  -3   2   16.27    0.32
  -4   3  -2   95.23    1.83
  -4   3  -2   96.25    1.71
  -4   3  -2   96.25    1.71
   4  -3   2   97.43    2.11
   4  -3   2  100.81    1.72
   4  -3   2   98.28    1.45
   4  -3   2   98.28    1.45
   4  -3   2  100.81    1.72
   4  -3   2   97.42    1.78
  -5   3  -2    0.72    0.16
  -5   3  -2    0.72    0.16
  -5   3  -2    0.73    0.18
   5  -3   2    0.62    0.07
   5  -3   2    0.40    0.14
   5  -3   2    0.40    0.14
   5  -3   2    0.62    0.16
   5  -3   2    0.62    0.07
   5  -3   2    0.13    0.15
  -6   3  -2    0.82    0.20
  -6   3  -2    0.41    0.19
  -6   3  -2    0.82    0.20
   6  -3   2    0.46    0.24
   6  -3   2    0.55    0.08
   6  -3   2    0.68    0.18
   6  -3   2    0.55    0.08
  -7   3  -2    0.75    0.24
  -7   3  -2    1.25    0.24
  -7   3  -2    1.25    0.24
   7  -3   2    0.67    0.20
   7  -3   2    0.88    0.10
   7  -3   2    0.88    0.10
  -8   3  -2    0.60    0.23
  -8   3  -2    0.60    0.23
  -8   3  -2    0.01    0.21
   8  -3   2    0.17    0.06
   8  -3   2    0.12    0.17
   8  -3   2    0.17    0.06
  -9   3  -2   14.88    0.72
  -9   3  -2   12.77    0.78
  -9   3  -2   14.88    0.72
   9  -3   2   12.92    0.75
 -10   3  -2   37.94    1.24
 -10   3  -2   37.94    1.24
 -10   3  -2   35.27    1.35
  10  -3   2   36.57    1.33
  11   2  -2  113.60    2.12
  11   2  -2  113.60    2.12
 -11  -2   2  112.95    2.36
 -11  -2   2  112.95    2.36
  10   2  -2    4.77    0.37
  10   2  -2    4.77    0.37
 -10  -2   2    6.13    0.52
 -10  -2   2    5.60    0.45
 -10  -2   2    5.60    0.45
   9   2  -2   17.41    0.59
   9   2  -2   17.41    0.59
   9   2  -2   16.90    0.84
  -9  -2   2   16.48    0.67
  -9  -2   2   16.48    0.67
  -9  -2   2   17.25    0.75
   8   2  -2   17.27    0.79
   8   2  -2   18.95    0.66
   8   2  -2   18.67    0.58
   8   2  -2   18.67    0.58
   8   2  -2   18.95    0.66
  -8  -2   2   18.40    0.89
  -8  -2   2   17.45    0.70
  -8  -2   2   22.15    0.70
  -8  -2   2   22.15    0.70
   7   2  -2  120.67    2.02
   7   2  -2  117.84    2.63
   7   2  -2  124.34    2.40
   7   2  -2  120.67    2.02
   7   2  -2  118.19    2.10
   7   2  -2  118.19    2.10
  -7  -2   2  117.26    2.10
  -7  -2   2  122.69    2.52
  -7  -2   2  117.26    2.10
  -7  -2   2  118.98    2.20
  -7  -2   2  122.54    2.15
   6   2  -2   45.71    1.01
   6   2  -2   45.71    1.01
   6   2  -2   48.25    1.37
   6   2  -2   48.79    0.97
   6   2  -2   48.79    0.97
   6   2  -2   47.12    1.21
  -6  -2   2   47.44    1.64
  -6  -2   2   48.91    1.08
  -6  -2   2   50.83    1.04
  -6  -2   2   50.83    1.04
  -6  -2   2   46.93    1.31
  -6  -2   2   49.05    1.05
   5   2  -2  254.49    3.76
   5   2  -2  252.22    4.21
   5   2  -2  254.49    3.76
   5   2  -2  250.95    4.04
   5   2  -2  260.01    3.80
   5   2  -2  260.01    3.80
  -5  -2   2  260.23    3.85
  -5  -2   2  254.90    3.80
  -5  -2   2  252.42    4.20
  -5  -2   2  254.31    3.86
  -5  -2   2  254.90    3.80
   4   2  -2  178.08    2.65
   4   2  -2  178.08    2.65
   4   2  -2  172.85    2.95
  -4  -2   2  179.63    2.65
  -4  -2   2  173.48    3.02
  -4  -2   2  174.68    2.70
  -4  -2   2  179.63    2.65
   3   2  -2  274.33    4.12
  -3  -2   2  280.09    4.28
  -3  -2   2  268.15    4.08
   2   2  -2   50.97    0.89
   2   2  -2   50.23    0.91
  -2  -2   2   50.67    1.08
  -2  -2   2   50.83    0.86
  -2  -2   2   51.17    0.90
   1   2  -2  114.02    1.70
  -1  -2   2  114.38    1.92
  -1  -2   2  114.42    1.63
   0   2  -2  363.95    5.26
   0  -2   2  370.86    5.50
  -1   2  -2  178.94    2.99
  -1   2  -2  182.30    2.65
  -1   2  -2  184.88    2.61
   1  -2   2  183.28    2.64
   1  -2   2  183.11    2.68
   1  -2   2  149.07    2.99
  -3   2  -2   59.60    1.08
  -3   2  -2   60.82    1.18
  -3   2  -2   59.60    1.08
  -3   2  -2   56.15    1.48
   3  -2   2   60.92    0.95
   3  -2   2   60.92    0.95
   3  -2   2   60.70    1.09
   3  -2   2   60.70    1.09
   3  -2   2   60.17    1.16
   3  -2   2   58.49    1.33
   3  -2   2   58.55    1.22
  -4   2  -2   18.53    0.60
  -4   2  -2   19.74    0.54
  -4   2  -2   19.74    0.54
   4  -2   2   18.13    0.53
   4  -2   2   18.35    0.59
   4  -2   2   18.13    0.53
   4  -2   2   18.74    0.75
   4  -2   2   19.41    0.41
   4  -2   2   19.41    0.41
  -5   2  -2   10.12    0.43
  -5   2  -2   10.12    0.43
  -5   2  -2    9.95    0.47
   5  -2   2   10.91    0.48
   5  -2   2   10.78    0.43
   5  -2   2   10.58    0.30
   5  -2   2   10.58    0.30
   5  -2   2   10.54    0.62
   5  -2   2   10.78    0.43
  -6   2  -2  175.95    2.94
  -6   2  -2  175.95    2.94
  -6   2  -2  176.41    3.11
   6  -2   2  178.74    2.65
   6  -2   2  177.42    3.54
   6  -2   2  180.30    3.07
   6  -2   2  178.74    2.65
  -7   2  -2    2.91    0.33
  -7   2  -2    2.91    0.33
  -7   2  -2    1.09    0.26
   7  -2   2    1.11    0.13
   7  -2   2    1.11    0.13
   7  -2   2    1.47    0.26
  -8   2  -2   33.77    1.02
  -8   2  -2   33.33    1.13
  -8   2  -2   33.77    1.02
   8  -2   2   33.74    0.72
   8  -2   2   33.88    1.11
   8  -2   2   33.74    0.72
  -9   2  -2    1.89    0.32
  -9   2  -2    1.14    0.30
  -9   2  -2    1.89    0.32
   9  -2   2    1.30    0.15
   9  -2   2    1.30    0.15
   9  -2   2    1.88    0.35
 -10   2  -2    7.80    0.58
 -10   2  -2    7.80    0.58
 -10   2  -2    8.88    0.68
  10  -2   2    7.29    0.62
  10  -2   2    8.40    0.31
  10  -2   2    8.40    0.31
  11   1  -2    1.73    0.23
  11   1  -2    2.21    0.46
  11   1  -2    1.73    0.23
 -11  -1   2    1.70    0.35
 -11  -1   2    2.09    0.40
 -11  -1   2    1.70    0.35
  10   1  -2   57.37    1.25
  10   1  -2   57.37    1.25
  10   1  -2   57.88    1.72
 -10  -1   2   60.69    1.51
 -10  -1   2   60.69    1.51
 -10  -1   2   60.59    1.64
   9   1  -2  103.40    2.08
   9   1  -2  103.87    1.85
   9   1  -2  102.96    2.33
   9   1  -2  103.40    2.08
   9   1  -2  103.87    1.85
  -9  -1   2  100.96    2.06
  -9  -1   2  100.96    2.06
  -9  -1   2  108.59    2.25
   8   1  -2   10.77    0.42
   8   1  -2   12.43    0.55
   8   1  -2   12.43    0.55
   8   1  -2   11.13    0.63
   8   1  -2   10.77    0.42
  -8  -1   2   10.91    0.52
  -8  -1   2   10.91    0.52
  -8  -1   2   11.58    0.59
   7   1  -2   99.24    2.38
   7   1  -2  100.63    1.87
   7   1  -2  100.31    2.06
   7   1  -2  100.63    1.87
   7   1  -2   98.01    1.70
   7   1  -2   98.01    1.70
  -7  -1   2   99.85    2.15
  -7  -1   2   99.42    1.96
  -7  -1   2   99.47    1.86
  -7  -1   2   99.47    1.86
   6   1  -2  156.85    2.45
   6   1  -2  154.58    2.58
   6   1  -2  157.85    3.09
   6   1  -2  154.58    2.58
   6   1  -2  157.60    2.77
   6   1  -2  156.85    2.45
  -6  -1   2  156.36    2.67
  -6  -1   2  158.50    2.59
  -6  -1   2  160.76    2.80
  -6  -1   2  159.58    2.90
  -6  -1   2  158.50    2.59
   5   1  -2  118.67    1.88
   5   1  -2  119.87    1.98
   5   1  -2  118.21    2.14
   5   1  -2  118.86    2.38
   5   1  -2  118.67    1.88
   5   1  -2  119.87    1.98
  -5  -1   2  120.92    1.99
  -5  -1   2  119.87    2.06
  -5  -1   2  120.92    1.99
  -5  -1   2  117.39    2.25
   4   1  -2    1.39    0.14
   4   1  -2    1.84    0.20
   4   1  -2    1.39    0.14
   4   1  -2    1.54    0.21
  -4  -1   2    2.03    0.15
  -4  -1   2    2.03    0.15
   3   1  -2   68.76    1.36
  -3  -1   2   69.72    1.35
  -2   1  -2  227.11    3.42
  -2   1  -2  226.24    3.72
   2  -1   2  222.35    3.66
   2  -1   2  225.16    3.43
  -3   1  -2    8.37    0.29
  -3   1  -2    8.56    0.50
  -3   1  -2    8.37    0.29
   3  -1   2    8.06    0.54
   3  -1   2    8.41    0.40
   3  -1   2    8.09    0.34
  -4   1  -2   69.37    1.26
  -4   1  -2   69.49    1.80
  -4   1  -2   69.37    1.26
  -4   1  -2   69.15    1.35
   4  -1   2   69.76    1.57
   4  -1   2   70.05    1.13
   4  -1   2   70.05    1.13
   4  -1   2   68.68    1.37
  -5   1  -2    5.50    0.30
  -5   1  -2    5.15    0.33
  -5   1  -2    5.50    0.30
   5  -1   2    5.31    0.42
   5  -1   2    5.19    0.22
   5  -1   2    5.19    0.22
  -6   1  -2  117.94    2.10
  -6   1  -2  117.94    2.10
  -6   1  -2  121.14    2.25
   6  -1   2  118.45    1.89
   6  -1   2  121.92    2.26
   6  -1   2  119.68    2.62
   6  -1   2  118.45    1.89
  -7   1  -2  404.51    6.06
  -7   1  -2  401.81    6.23
  -7   1  -2  404.51    6.06
   7  -1   2  396.50    6.24
   7  -1   2  401.83    5.76
   7  -1   2  401.83    5.76
  -8   1  -2   24.73    0.83
  -8   1  -2   25.56    0.93
  -8   1  -2   24.73    0.83
   8  -1   2   26.43    0.64
   8  -1   2   26.43    0.64
   8  -1   2   25.26    0.95
  -9   1  -2  126.67    2.47
  -9   1  -2  127.88    2.67
  -9   1  -2  126.67    2.47
   9  -1   2  128.27    2.71
   9  -1   2  126.64    2.11
   9  -1   2  126.64    2.11
 -10   1  -2    1.76    0.37
 -10   1  -2    2.46    0.38
 -10   1  -2    2.46    0.38
  10  -1   2    2.39    0.22
  10  -1   2    2.39    0.22
  10  -1   2    1.89    0.38
 -11   1  -2    5.99    0.59
 -11   1  -2    5.99    0.59
  11   0  -2    0.60    0.30
  11   0  -2    0.67    0.16
  11   0  -2    0.67    0.16
 -11   0   2    0.58    0.28
 -11   0   2    0.36    0.26
 -11   0   2    0.36    0.26
  10   0  -2   19.41    0.95
  10   0  -2   19.83    0.83
  10   0  -2   19.63    0.60
  10   0  -2   19.83    0.83
  10   0  -2   19.63    0.60
 -10   0   2   18.48    0.90
 -10   0   2   20.64    0.85
 -10   0   2   20.64    0.85
   9   0  -2   25.72    0.89
   9   0  -2   25.13    0.67
   9   0  -2   25.13    0.67
   9   0  -2   25.72    0.89
   9   0  -2   26.01    1.01
  -9   0   2   25.57    0.98
  -9   0   2   24.94    0.88
  -9   0   2   24.94    0.88
   8   0  -2    8.67    0.36
   8   0  -2    9.19    0.50
   8   0  -2    9.10    0.56
   8   0  -2    8.67    0.36
   8   0  -2    9.19    0.50
  -8   0   2    9.02    0.49
  -8   0   2    9.02    0.49
  -8   0   2    7.59    0.52
   7   0  -2   14.43    0.44
   7   0  -2   14.90    0.64
   7   0  -2   14.43    0.44
   7   0  -2   13.59    0.55
   7   0  -2   13.59    0.55
   7   0  -2   15.31    0.85
  -7   0   2   13.92    0.56
  -7   0   2   13.92    0.56
  -7   0   2   13.47    0.61
  -7   0   2   13.24    0.94
   6   0  -2  256.99    3.72
   6   0  -2  253.31    4.51
   6   0  -2  254.69    3.94
   6   0  -2  256.99    3.72
   6   0  -2  254.69    3.94
   6   0  -2  252.39    4.06
  -6   0   2  248.20    3.93
  -6   0   2  251.03    4.05
  -6   0   2  248.20    3.93
   5   0  -2    3.60    0.25
   5   0  -2    4.28    0.39
   5   0  -2    3.60    0.25
   5   0  -2    3.71    0.19
   5   0  -2    3.89    0.28
   5   0  -2    3.71    0.19
  -5   0   2    3.51    0.24
  -5   0   2    3.51    0.24
  -5   0   2    4.02    0.28
   4   0  -2  653.78    9.37
   4   0  -2  670.36    9.30
   4   0  -2  670.36    9.30
   4   0  -2  660.69    9.72
   4   0  -2  656.92    9.15
   4   0  -2  656.92    9.15
  -4   0   2  668.09    9.30
  -4   0   2  668.09    9.30
   3   0  -2   37.63    0.74
   3   0  -2   37.63    0.74
   3   0  -2   35.58    0.92
  -3   0   2   36.48    0.73
  -3   0   2   36.48    0.73
   1   0  -2  304.65    4.43
  -1   0   2  311.71    4.44
   0   0  -2   12.43    0.26
   0   0  -2   11.67    0.30
   0   0   2   12.64    0.30
   0   0   2   11.48    0.25
  -1   0  -2  129.58    1.99
  -1   0  -2  131.62    1.90
   1   0   2  133.81    2.26
   1   0   2  132.22    2.00
   1   0   2  128.97    1.89
  -2   0  -2  308.37    4.57
   2   0   2  309.43    4.59
   2   0   2  321.65    4.91
  -3   0  -2  193.43    2.85
  -3   0  -2  185.79    2.77
  -3   0  -2  185.79    2.77
   3   0   2  184.28    3.02
   3   0   2  185.32    3.32
  -4   0  -2  204.73    3.07
  -4   0  -2  202.29    3.15
  -4   0  -2  201.00    2.96
  -4   0  -2  204.73    3.07
   4   0   2  209.19    3.77
   4   0   2  201.26    2.96
   4   0   2  207.59    3.24
   4   0   2  204.33    2.92
   4   0   2  201.26    2.96
   4   0   2  198.90    3.41
  -5   0  -2    1.50    0.20
  -5   0  -2    1.60    0.18
  -5   0  -2    1.79    0.15
  -5   0  -2    1.60    0.18
   5   0   2    1.40    0.21
   5   0   2    1.01    0.12
   5   0   2    1.01    0.12
   5   0   2    0.90    0.20
  -6   0  -2  150.63    2.63
  -6   0  -2  150.13    2.51
  -6   0  -2  150.13    2.51
   6   0   2  152.92    2.71
   6   0   2  149.66    2.34
   6   0   2  149.66    2.34
   6   0   2  152.08    3.03
  -7   0  -2  326.91    5.08
  -7   0  -2  338.76    5.25
  -7   0  -2  326.91    5.08
   7   0   2  332.36    5.79
   7   0   2  338.04    4.87
   7   0   2  333.47    5.33
   7   0   2  338.04    4.87
  -8   0  -2   21.66    0.75
  -8   0  -2   21.66    0.75
  -8   0  -2   20.44    0.81
   8   0   2   21.75    0.88
   8   0   2   21.89    0.61
   8   0   2   21.89    0.61
  -9   0  -2    1.00    0.28
  -9   0  -2    1.11    0.25
  -9   0  -2    1.11    0.25
   9   0   2    0.82    0.15
   9   0   2    0.82    0.15
   9   0   2    1.36    0.32
 -10   0  -2    0.33    0.24
 -10   0  -2    0.35    0.22
 -10   0  -2    0.35    0.22
  10   0   2    0.21    0.13
  10   0   2    0.46    0.24
  10   0   2    0.21    0.13
 -11   0  -2   39.57    1.39
 -11   0  -2   38.74    1.24
 -11   0  -2   38.74    1.24
  11   0   2   37.51    0.93
  11   0   2   37.51    0.93
  11   0   2   36.77    1.43
  11  -1  -2    7.47    0.33
  11  -1  -2    6.93    0.33
  11  -1  -2    6.72    0.66
  11  -1  -2    6.93    0.33
  11  -1  -2    7.47    0.33
 -11   1   2    7.76    0.61
 -11   1   2    7.76    0.61
 -11   1   2    7.53    0.69
  10  -1  -2    5.75    0.56
  10  -1  -2    4.64    0.27
  10  -1  -2    4.75    0.49
  10  -1  -2    4.64    0.27
  10  -1  -2    4.75    0.49
 -10   1   2    4.82    0.50
 -10   1   2    4.82    0.50
 -10   1   2    6.37    0.65
   9  -1  -2   44.08    1.35
   9  -1  -2   44.32    1.25
   9  -1  -2   44.32    1.25
   9  -1  -2   43.55    0.92
   9  -1  -2   43.55    0.92
  -9   1   2   46.86    1.41
  -9   1   2   46.14    1.26
  -9   1   2   46.14    1.26
   8  -1  -2   13.59    0.62
   8  -1  -2   13.59    0.62
   8  -1  -2   12.97    0.66
   8  -1  -2   13.68    0.42
   8  -1  -2   13.68    0.42
  -8   1   2   13.03    0.68
  -8   1   2   12.66    0.60
  -8   1   2   12.66    0.60
   7  -1  -2   42.00    1.07
   7  -1  -2   42.00    1.07
   7  -1  -2   42.16    1.13
   7  -1  -2   41.46    0.82
   7  -1  -2   41.46    0.82
  -7   1   2   40.91    1.07
  -7   1   2   40.07    1.16
  -7   1   2   40.91    1.07
   6  -1  -2  159.72    2.76
   6  -1  -2  157.21    2.69
   6  -1  -2  167.14    3.29
   6  -1  -2  157.21    2.69
   6  -1  -2  159.44    2.41
   6  -1  -2  159.44    2.41
  -6   1   2  159.65    2.71
  -6   1   2  159.65    2.71
  -6   1   2  161.46    2.84
   5  -1  -2   17.24    0.41
   5  -1  -2   17.64    0.56
   5  -1  -2   17.64    0.56
   5  -1  -2   17.92    0.58
   5  -1  -2   17.24    0.41
   5  -1  -2   17.82    0.80
  -5   1   2   18.12    0.57
  -5   1   2   18.12    0.57
  -5   1   2   17.58    0.62
   4  -1  -2  148.55    2.37
   4  -1  -2  148.55    2.37
   4  -1  -2  148.91    2.38
   4  -1  -2  146.47    2.16
   4  -1  -2  148.67    2.76
   4  -1  -2  146.47    2.16
  -4   1   2  145.99    2.37
  -4   1   2  145.99    2.37
   3  -1  -2    4.65    0.32
   3  -1  -2    4.19    0.21
   3  -1  -2    4.31    0.22
   3  -1  -2    4.31    0.22
  -3   1   2    4.68    0.23
  -3   1   2    4.68    0.23
   1  -1  -2  125.00    2.04
   1  -1  -2  122.01    2.02
  -1   1   2  125.91    2.03
  -1   1   2  123.29    2.03
   0  -1  -2   85.81    1.41
   0   1   2   85.98    1.41
   0   1   2   82.81    1.39
  -1  -1  -2   14.14    0.39
  -1  -1  -2   16.01    0.30
   1   1   2   15.48    0.40
   1   1   2   14.81    0.31
   1   1   2   16.52    0.62
   1   1   2   15.62    0.53
  -2  -1  -2  129.43    2.09
  -2  -1  -2  129.64    1.92
   2   1   2  125.25    1.91
   2   1   2  129.00    2.28
   2   1   2  133.35    2.40
   2   1   2  129.67    2.00
   2   1   2  129.02    2.08
  -3  -1  -2  636.84    8.73
  -3  -1  -2  636.84    8.73
   3   1   2  615.04    8.99
   3   1   2  633.73    9.44
  -4  -1  -2  184.60    2.87
  -4  -1  -2  186.80    2.81
  -4  -1  -2  188.18    3.03
  -4  -1  -2  181.96    2.80
  -4  -1  -2  186.72    2.87
  -4  -1  -2  186.80    2.81
   4   1   2  180.73    2.76
   4   1   2  184.95    3.13
   4   1   2  184.15    3.53
   4   1   2  187.49    2.82
   4   1   2  190.31    2.97
  -5  -1  -2   18.23    0.57
  -5  -1  -2   18.69    0.53
  -5  -1  -2   18.65    0.58
  -5  -1  -2   18.69    0.53
  -5  -1  -2   17.95    0.55
   5   1   2   19.00    0.47
   5   1   2   18.07    0.73
   5   1   2   19.00    0.47
   5   1   2   17.25    0.46
  -6  -1  -2   44.29    1.06
  -6  -1  -2   46.17    1.03
  -6  -1  -2   44.97    1.00
  -6  -1  -2   44.97    1.00
   6   1   2   45.92    0.91
   6   1   2   45.92    0.91
   6   1   2   48.81    1.38
   6   1   2   45.53    0.88
   6   1   2   46.29    1.18
  -7  -1  -2  187.28    3.14
  -7  -1  -2  190.14    3.26
  -7  -1  -2  187.28    3.14
   7   1   2  191.82    3.76
   7   1   2  199.19    3.00
   7   1   2  199.19    3.00
   7   1   2  198.24    3.44
  -8  -1  -2    0.41    0.16
  -8  -1  -2    0.36    0.19
  -8  -1  -2    0.41    0.16
   8   1   2    0.54    0.14
   8   1   2    0.58    0.23
   8   1   2    0.54    0.14
  -9  -1  -2   46.98    1.23
  -9  -1  -2   47.86    1.34
  -9  -1  -2   46.98    1.23
   9   1   2   47.72    1.06
   9   1   2   47.72    1.06
   9   1   2   48.72    1.46
 -10  -1  -2    1.55    0.29
 -10  -1  -2    1.85    0.35
 -10  -1  -2    1.55    0.29
  10   1   2    2.37    0.44
  10   1   2    1.75    0.24
  10   1   2    1.75    0.24
 -11  -1  -2    0.92    0.28
 -11  -1  -2    1.43    0.36
 -11  -1  -2    0.92    0.28
  11   1   2    1.31    0.22
  11   1   2    1.31    0.22
  10  -2  -2    0.24    0.22
  10  -2  -2    0.15    0.09
  10  -2  -2   -0.15    0.18
  10  -2  -2    0.15    0.09
  10  -2  -2   -0.15    0.18
 -10   2   2    0.27    0.25
 -10   2   2    0.27    0.25
 -10   2   2   -0.20    0.21
   9  -2  -2   10.64    0.62
   9  -2  -2   11.68    0.67
   9  -2  -2   10.64    0.62
   9  -2  -2   11.27    0.34
   9  -2  -2   11.33    0.34
   9  -2  -2   11.33    0.34
   9  -2  -2   11.27    0.34
  -9   2   2   11.77    0.72
  -9   2   2   10.39    0.61
  -9   2   2   10.39    0.61
   8  -2  -2   13.16    0.63
   8  -2  -2   11.39    0.61
   8  -2  -2   13.16    0.63
   8  -2  -2   12.26    0.35
   8  -2  -2   12.26    0.35
  -8   2   2   11.82    0.61
  -8   2   2   11.82    0.61
  -8   2   2   12.55    0.71
   7  -2  -2    8.82    0.28
   7  -2  -2    8.76    0.48
   7  -2  -2    8.82    0.28
   7  -2  -2    9.00    0.49
   7  -2  -2    9.00    0.49
  -7   2   2    9.03    0.55
  -7   2   2    8.40    0.48
  -7   2   2    8.40    0.48
   6  -2  -2   96.89    2.35
   6  -2  -2   94.00    1.46
   6  -2  -2   95.24    1.82
   6  -2  -2   94.00    1.46
  -6   2   2   95.89    1.96
  -6   2   2   91.37    1.81
  -6   2   2   91.37    1.81
   5  -2  -2   56.94    1.21
   5  -2  -2   55.54    0.91
   5  -2  -2   56.94    1.21
   5  -2  -2   54.56    1.16
   5  -2  -2   55.98    1.57
   5  -2  -2   55.54    0.91
  -5   2   2   57.79    1.21
  -5   2   2   56.46    1.30
  -5   2   2   57.79    1.21
   4  -2  -2   44.57    0.92
   4  -2  -2   45.62    1.28
   4  -2  -2   46.32    0.99
   4  -2  -2   45.41    0.72
   4  -2  -2   46.32    0.99
   4  -2  -2   44.99    0.72
   4  -2  -2   44.99    0.72
   4  -2  -2   45.41    0.72
  -4   2   2   43.35    0.97
  -4   2   2   45.74    1.29
  -4   2   2   43.81    1.44
  -4   2   2   43.35    0.97
   3  -2  -2  261.88    3.64
   3  -2  -2  266.03    3.92
   3  -2  -2  261.88    3.64
   3  -2  -2  266.03    3.92
   3  -2  -2  265.06    3.81
   3  -2  -2  267.24    4.29
  -3   2   2  245.49    4.64
  -3   2   2  269.36    4.31
  -3   2   2  265.45    3.92
  -3   2   2  265.45    3.92
   2  -2  -2  216.11    3.10
   2  -2  -2  216.11    3.10
   2  -2  -2  201.65    3.37
  -2   2   2  207.79    3.39
  -2   2   2  199.76    3.83
   1  -2  -2  496.30    7.11
   1  -2  -2  489.07    7.09
  -1   2   2  485.27    7.68
  -1   2   2  492.75    7.10
  -1   2   2  495.00    7.11
   0  -2  -2   90.88    1.59
   0  -2  -2   96.71    2.06
   0   2   2   91.83    1.60
   0   2   2   92.03    2.06
   0   2   2   91.58    1.59
  -3  -2  -2  428.74    5.97
  -3  -2  -2  426.59    6.62
  -3  -2  -2  428.74    5.97
   3   2   2  433.71    6.70
   3   2   2  422.51    6.16
   3   2   2  427.75    6.22
   3   2   2  408.27    6.53
  -4  -2  -2   47.02    0.89
  -4  -2  -2   47.27    0.91
  -4  -2  -2   46.97    0.91
  -4  -2  -2   47.02    0.89
  -4  -2  -2   46.78    1.05
  -4  -2  -2   46.56    1.28
   4   2   2   47.19    1.25
   4   2   2   47.98    1.02
   4   2   2   47.23    1.13
   4   2   2   46.98    0.91
   4   2   2   48.74    1.47
  -5  -2  -2   13.10    0.42
  -5  -2  -2   13.10    0.42
  -5  -2  -2   13.17    0.44
  -5  -2  -2   14.37    0.67
  -5  -2  -2   13.24    0.52
  -5  -2  -2   12.99    0.45
  -5  -2  -2   12.93    0.44
   5   2   2   13.51    0.61
   5   2   2   12.98    0.42
   5   2   2   12.68    0.39
   5   2   2   15.88    0.58
   5   2   2   13.87    0.62
   5   2   2   12.68    0.39
  -6  -2  -2   87.39    1.63
  -6  -2  -2   89.38    1.64
  -6  -2  -2   87.90    1.61
  -6  -2  -2   90.19    1.80
  -6  -2  -2   87.90    1.61
  -6  -2  -2   89.69    1.68
   6   2   2   92.11    1.86
   6   2   2   92.88    2.06
   6   2   2   89.61    1.57
   6   2   2   89.90    1.54
   6   2   2   89.90    1.54
  -7  -2  -2   14.83    0.54
  -7  -2  -2   14.83    0.54
  -7  -2  -2   14.30    0.54
  -7  -2  -2   15.07    0.58
  -7  -2  -2   13.96    0.54
   7   2   2   14.95    0.48
   7   2   2   13.81    0.47
   7   2   2   13.81    0.47
   7   2   2   15.07    0.79
  -8  -2  -2    0.43    0.18
  -8  -2  -2    0.16    0.16
  -8  -2  -2    0.43    0.18
  -8  -2  -2    0.50    0.17
   8   2   2    0.06    0.10
   8   2   2    0.45    0.20
   8   2   2    0.06    0.10
  -9  -2  -2   61.71    1.53
  -9  -2  -2   60.93    1.43
  -9  -2  -2   60.93    1.43
   9   2   2   63.65    1.31
   9   2   2   63.65    1.31
 -10  -2  -2   23.91    0.87
 -10  -2  -2   22.36    0.91
 -10  -2  -2   23.91    0.87
  10   2   2   22.74    0.72
  10   2   2   22.74    0.72
 -11  -2  -2   25.82    0.97
 -11  -2  -2   25.82    0.97
 -11  -2  -2   25.39    1.04
  11   2   2   24.39    0.79
  11   2   2   24.39    0.79
  10  -3  -2    1.34    0.34
  10  -3  -2    1.34    0.34
  10  -3  -2    1.24    0.32
 -10   3   2    1.23    0.34
 -10   3   2    0.60    0.32
 -10   3   2    1.23    0.34
   9  -3  -2    0.60    0.23
   9  -3  -2    0.34    0.21
   9  -3  -2    0.34    0.21
  -9   3   2    0.50    0.24
  -9   3   2    0.50    0.24
  -9   3   2    0.23    0.25
   8  -3  -2   -0.05    0.14
   8  -3  -2    0.37    0.20
   8  -3  -2    0.37    0.20
  -8   3   2   -0.04    0.18
  -8   3   2    0.38    0.22
  -8   3   2    0.38    0.22
   7  -3  -2   12.82    0.58
   7  -3  -2   12.31    0.60
   7  -3  -2   12.31    0.60
  -7   3   2   12.90    0.69
  -7   3   2   14.10    0.63
  -7   3   2   14.10    0.63
   6  -3  -2  102.82    1.92
   6  -3  -2  104.31    1.99
   6  -3  -2  104.31    1.99
  -6   3   2  101.26    1.97
  -6   3   2   99.13    2.11
  -6   3   2  101.26    1.97
   5  -3  -2    0.76    0.14
   5  -3  -2    0.90    0.18
   5  -3  -2    0.90    0.18
   5  -3  -2    0.84    0.26
  -5   3   2    0.85    0.18
  -5   3   2    0.69    0.26
  -5   3   2    0.85    0.18
  -5   3   2    0.60    0.17
   4  -3  -2   49.16    0.96
   4  -3  -2   49.87    1.41
   4  -3  -2   49.18    1.07
   4  -3  -2   49.18    1.07
  -4   3   2   48.40    1.07
  -4   3   2   51.01    1.18
  -4   3   2   49.82    1.60
  -4   3   2   49.67    1.41
  -4   3   2   48.40    1.07
   3  -3  -2   87.35    1.90
   3  -3  -2   88.69    1.40
   3  -3  -2   88.16    1.56
   3  -3  -2   88.16    1.56
  -3   3   2   88.13    2.24
  -3   3   2   88.37    1.90
  -3   3   2   85.63    1.56
  -3   3   2   85.63    1.56
   2  -3  -2  168.55    2.44
   2  -3  -2  167.39    2.97
   2  -3  -2  177.50    2.68
   2  -3  -2  177.50    2.68
  -2   3   2  173.70    3.00
  -2   3   2  176.39    3.54
   1  -3  -2  690.29    9.55
   1  -3  -2  730.64   10.61
   1  -3  -2  690.29    9.55
   1  -3  -2  650.40    9.80
  -1   3   2  696.14   10.57
  -1   3   2  661.66    9.82
   0  -3  -2   73.77    1.89
   0  -3  -2   74.20    1.41
   0  -3  -2   71.10    1.38
   0   3   2   72.71    1.41
   0   3   2   74.59    1.26
   0   3   2   72.24    1.39
   0   3   2   73.99    1.91
  -1  -3  -2   25.49    1.01
  -1  -3  -2   24.36    0.64
   1   3   2   25.55    0.72
   1   3   2   23.78    0.62
   1   3   2   25.41    1.01
  -2  -3  -2  504.47    7.29
  -2  -3  -2  506.22    8.03
   2   3   2  489.77    7.25
   2   3   2  531.30    7.71
   2   3   2  515.31    7.65
   2   3   2  499.71    8.01
  -4  -3  -2  533.30    7.75
  -4  -3  -2  521.30    7.33
  -4  -3  -2  533.95    8.36
  -4  -3  -2  512.64    7.35
  -4  -3  -2  521.30    7.33
   4   3   2  533.35    8.34
   4   3   2  520.80    8.22
   4   3   2  518.04    7.67
   4   3   2  511.20    7.38
  -5  -3  -2  150.88    2.39
  -5  -3  -2  148.68    3.16
  -5  -3  -2  146.09    2.38
  -5  -3  -2  152.56    2.36
  -5  -3  -2  152.56    2.36
  -5  -3  -2  146.27    2.69
   5   3   2  144.30    2.71
   5   3   2  146.93    3.03
   5   3   2  152.67    2.41
  -6  -3  -2    2.73    0.22
  -6  -3  -2    1.78    0.19
  -6  -3  -2    2.73    0.22
  -6  -3  -2    1.70    0.23
  -6  -3  -2    1.70    0.23
  -6  -3  -2    1.20    0.17
  -6  -3  -2    1.73    0.27
  -6  -3  -2    1.62    0.35
   6   3   2    1.61    0.25
   6   3   2    2.10    0.20
   6   3   2    1.92    0.31
   6   3   2    2.10    0.20
   6   3   2    1.68    0.18
  -7  -3  -2  122.97    2.13
  -7  -3  -2  123.54    2.17
  -7  -3  -2  122.97    2.13
  -7  -3  -2  123.71    2.19
  -7  -3  -2  120.26    3.17
  -7  -3  -2  120.97    2.17
   7   3   2  125.31    2.67
   7   3   2  123.46    2.12
   7   3   2  119.00    2.05
   7   3   2  119.00    2.05
  -8  -3  -2    2.78    0.30
  -8  -3  -2    3.16    0.34
  -8  -3  -2    2.78    0.30
  -8  -3  -2    2.91    0.30
   8   3   2    2.79    0.25
   8   3   2    2.65    0.26
   8   3   2    2.65    0.26
  -9  -3  -2   27.36    0.89
  -9  -3  -2   27.08    0.91
  -9  -3  -2   26.68    0.85
  -9  -3  -2   26.68    0.85
   9   3   2   27.77    0.79
   9   3   2   27.77    0.79
 -10  -3  -2   66.58    1.57
 -10  -3  -2   68.58    1.62
 -10  -3  -2   66.58    1.57
  10   3   2   68.23    1.45
  10   3   2   68.23    1.45
 -11  -3  -2   37.88    1.17
 -11  -3  -2   37.88    1.17
 -11  -3  -2   39.44    1.58
  11   3   2   35.15    1.01
  11   3   2   35.15    1.01
   9  -4  -2  101.08    2.25
   9  -4  -2  100.71    2.24
   9  -4  -2  101.08    2.25
  -9   4   2  101.52    2.25
  -9   4   2  101.52    2.25
  -9   4   2  101.54    2.48
   8  -4  -2    8.89    0.56
   8  -4  -2    9.62    0.56
   8  -4  -2    8.89    0.56
  -8   4   2    9.33    0.58
  -8   4   2    9.33    0.58
  -8   4   2    9.18    0.66
   7  -4  -2  165.48    3.01
   7  -4  -2  164.94    2.91
   7  -4  -2  165.48    3.01
  -7   4   2  162.44    3.19
  -7   4   2  166.21    3.01
  -7   4   2  166.21    3.01
   6  -4  -2   70.21    1.57
   6  -4  -2   70.21    1.57
   6  -4  -2   69.44    1.44
  -6   4   2   73.79    1.59
  -6   4   2   70.61    1.70
  -6   4   2   73.79    1.59
   5  -4  -2    2.69    0.23
   5  -4  -2    2.54    0.43
   5  -4  -2    2.43    0.27
   5  -4  -2    2.43    0.27
  -5   4   2    2.26    0.30
  -5   4   2    3.08    0.30
  -5   4   2    3.08    0.30
  -5   4   2    2.74    0.44
   4  -4  -2    0.16    0.07
   4  -4  -2    0.73    0.24
   4  -4  -2    0.23    0.13
   4  -4  -2    0.23    0.13
  -4   4   2    0.50    0.22
  -4   4   2    0.23    0.12
  -4   4   2    0.02    0.11
  -4   4   2    0.23    0.12
   3  -4  -2   26.30    0.70
   3  -4  -2   26.03    0.52
   3  -4  -2   26.30    0.70
   3  -4  -2   27.29    0.96
  -3   4   2   26.50    0.95
  -3   4   2   25.08    0.69
  -3   4   2   25.08    0.69
  -3   4   2   27.28    1.21
   2  -4  -2   54.59    1.08
   2  -4  -2   54.59    1.08
   2  -4  -2   54.87    1.35
  -2   4   2   55.05    1.36
  -2   4   2   54.88    1.77
   1  -4  -2  208.31    4.10
   1  -4  -2  199.22    3.34
   1  -4  -2  198.52    3.03
   1  -4  -2  198.52    3.03
  -1   4   2  200.41    4.06
  -1   4   2  201.28    3.35
   0  -4  -2  258.74    3.92
   0  -4  -2  258.74    3.92
   0  -4  -2  266.58    4.92
   0   4   2  260.35    3.84
   0   4   2  265.21    4.94
   0   4   2  264.20    4.08
  -1  -4  -2  519.41    7.59
  -1  -4  -2  539.34    8.61
   1   4   2  528.74    8.58
   1   4   2  520.16    7.55
   1   4   2  517.72    7.60
  -2  -4  -2  662.99   10.44
  -2  -4  -2  662.65    9.24
  -2  -4  -2  627.02    9.42
   2   4   2  682.69    9.79
   2   4   2  671.15   10.46
  -3  -4  -2  198.19    2.91
  -3  -4  -2  204.13    4.13
  -3  -4  -2  204.00    2.96
  -3  -4  -2  204.00    2.96
  -3  -4  -2  201.99    2.86
  -3  -4  -2  198.25    3.13
  -3  -4  -2  198.19    2.91
   3   4   2  201.44    2.97
   3   4   2  203.82    3.21
   3   4   2  199.64    4.02
   3   4   2  201.75    3.71
  -4  -4  -2  300.25    4.25
  -4  -4  -2  289.81    4.22
  -4  -4  -2  292.94    4.50
  -4  -4  -2  292.86    4.15
  -4  -4  -2  294.37    4.23
  -4  -4  -2  300.25    4.25
  -4  -4  -2  288.33    4.14
  -4  -4  -2  292.71    5.47
  -4  -4  -2  289.81    4.22
   4   4   2  293.29    4.57
   4   4   2  296.26    5.24
   4   4   2  292.20    5.36
  -5  -4  -2    3.55    0.22
  -5  -4  -2    4.61    0.33
  -5  -4  -2    3.66    0.35
  -5  -4  -2    3.84    0.22
  -5  -4  -2    4.39    0.52
  -5  -4  -2    4.44    0.24
  -5  -4  -2    4.36    0.22
  -5  -4  -2    3.84    0.22
  -5  -4  -2    4.44    0.24
   5   4   2    4.04    0.48
   5   4   2    3.83    0.34
  -6  -4  -2   45.63    1.69
  -6  -4  -2   44.58    0.93
  -6  -4  -2   44.33    0.95
  -6  -4  -2   44.16    0.96
  -6  -4  -2   43.46    0.97
  -6  -4  -2   43.19    1.28
  -6  -4  -2   44.33    0.95
  -6  -4  -2   44.58    0.93
  -6  -4  -2   43.29    1.34
   6   4   2   44.00    1.26
   6   4   2   45.36    1.58
   6   4   2   43.71    1.00
   6   4   2   45.39    0.95
   6   4   2   45.39    0.95
  -7  -4  -2   51.50    1.11
  -7  -4  -2   51.50    1.11
  -7  -4  -2   49.22    1.12
  -7  -4  -2   50.31    1.12
  -7  -4  -2   45.94    1.41
   7   4   2   50.79    1.14
   7   4   2   51.28    1.07
   7   4   2   51.28    1.07
   7   4   2   50.82    1.49
  -8  -4  -2    9.42    0.47
  -8  -4  -2    9.63    0.45
  -8  -4  -2    9.63    0.45
   8   4   2    8.81    0.44
   8   4   2    8.45    0.41
   8   4   2    8.45    0.41
  -9  -4  -2  233.19    3.78
  -9  -4  -2  233.17    3.84
  -9  -4  -2  233.19    3.78
   9   4   2  227.44    3.71
   9   4   2  227.82    3.68
   9   4   2  227.82    3.68
 -10  -4  -2    5.60    0.44
 -10  -4  -2    4.42    0.42
 -10  -4  -2    5.60    0.44
  10   4   2    5.71    0.44
  10   4   2    5.71    0.44
 -11  -4  -2    1.41    0.30
 -11  -4  -2    1.41    0.30
 -11  -4  -2    1.29    0.29
  11   4   2    1.81    0.28
  11   4   2    1.81    0.28
   9  -5  -2    2.50    0.40
   9  -5  -2    1.97    0.33
   9  -5  -2    2.50    0.40
  -9   5   2    2.52    0.39
  -9   5   2    1.99    0.43
  -9   5   2    2.52    0.39
   8  -5  -2   22.41    0.85
   8  -5  -2   23.62    0.93
   8  -5  -2   23.62    0.93
  -8   5   2   24.20    0.95
  -8   5   2   24.30    1.07
  -8   5   2   24.20    0.95
   7  -5  -2   20.98    0.83
   7  -5  -2   20.98    0.83
   7  -5  -2   20.28    0.73
  -7   5   2   22.47    0.97
  -7   5   2   20.80    0.83
  -7   5   2   20.80    0.83
   6  -5  -2   44.91    1.20
   6  -5  -2   44.91    1.20
   6  -5  -2   45.77    1.06
  -6   5   2   44.22    1.32
  -6   5   2   43.74    1.19
  -6   5   2   43.74    1.19
   5  -5  -2   42.04    1.09
   5  -5  -2   42.22    0.92
   5  -5  -2   42.04    1.09
  -5   5   2   42.51    1.10
  -5   5   2   42.51    1.10
  -5   5   2   42.10    1.21
   4  -5  -2   18.15    0.88
   4  -5  -2   17.18    0.45
   4  -5  -2   18.02    0.63
   4  -5  -2   18.02    0.63
  -4   5   2   16.93    0.62
  -4   5   2   16.93    0.62
  -4   5   2   17.67    0.88
  -4   5   2   17.04    0.69
   3  -5  -2   20.27    0.87
   3  -5  -2   20.24    0.63
   3  -5  -2   20.24    0.63
   3  -5  -2   20.44    0.42
   3  -5  -2   20.42    0.41
  -3   5   2   20.35    0.63
  -3   5   2   20.35    0.63
  -3   5   2   20.75    0.71
  -3   5   2   20.61    0.88
   2  -5  -2   80.06    1.50
   2  -5  -2   80.06    1.50
   2  -5  -2   83.83    2.47
   2  -5  -2   80.91    1.84
  -2   5   2   82.67    2.87
  -2   5   2   83.48    1.87
   1  -5  -2   34.49    0.75
   1  -5  -2   34.49    0.75
   1  -5  -2   31.29    1.41
   1  -5  -2   30.80    0.94
  -1   5   2   31.40    1.69
  -1   5   2   30.80    0.95
   0  -5  -2   61.53    1.11
   0  -5  -2   59.71    1.99
   0  -5  -2   60.68    0.93
   0  -5  -2   61.53    1.11
   0   5   2   62.46    2.42
   0   5   2   60.20    1.34
   0   5   2   60.12    1.15
  -1  -5  -2   23.26    0.53
  -1  -5  -2   22.13    1.17
  -1  -5  -2   23.26    0.53
  -1  -5  -2   21.92    0.49
   1   5   2   19.69    1.53
   1   5   2   22.06    0.72
   1   5   2   22.14    0.67
  -2  -5  -2  113.91    1.77
  -2  -5  -2  111.98    1.64
  -2  -5  -2  111.98    1.64
  -2  -5  -2  110.58    2.92
  -2  -5  -2  109.10    1.84
  -2  -5  -2  113.91    1.77
   2   5   2  111.92    1.99
   2   5   2  113.24    2.29
  -3  -5  -2  541.38    7.50
  -3  -5  -2  528.90    7.43
  -3  -5  -2  536.70    7.70
  -3  -5  -2  541.38    7.50
  -3  -5  -2  546.01    9.18
  -3  -5  -2  528.90    7.43
   3   5   2  530.89    7.77
   3   5   2  534.40    7.46
   3   5   2  536.54    8.39
  -4  -5  -2  311.68    4.42
  -4  -5  -2  317.62    4.54
  -4  -5  -2  317.62    4.54
  -4  -5  -2  310.01    4.49
  -4  -5  -2  315.98    6.09
  -4  -5  -2  315.98    4.81
  -4  -5  -2  310.00    4.49
   4   5   2  313.58    4.86
  -5  -5  -2   21.66    0.54
  -5  -5  -2   22.55    0.57
  -5  -5  -2   21.66    0.54
  -5  -5  -2   22.58    0.55
  -5  -5  -2   22.16    0.75
  -5  -5  -2   22.55    0.57
  -5  -5  -2   21.58    1.23
   5   5   2   21.84    0.78
   5   5   2   23.11    0.63
  -6  -5  -2   45.88    1.42
  -6  -5  -2   47.15    0.97
  -6  -5  -2   44.24    1.84
  -6  -5  -2   47.03    1.23
  -6  -5  -2   45.43    0.95
  -6  -5  -2   45.43    0.95
  -6  -5  -2   47.15    0.97
  -6  -5  -2   47.20    0.98
   6   5   2   46.04    1.29
   6   5   2   44.10    1.04
  -7  -5  -2    2.28    0.21
  -7  -5  -2    2.83    0.27
  -7  -5  -2    1.79    0.20
  -7  -5  -2    2.41    0.40
  -7  -5  -2    2.83    0.27
  -7  -5  -2    2.14    0.23
  -7  -5  -2    1.79    0.20
   7   5   2    2.21    0.25
   7   5   2    2.18    0.36
  -8  -5  -2   15.46    0.60
  -8  -5  -2   14.79    1.26
  -8  -5  -2   16.90    0.60
  -8  -5  -2   15.52    0.59
  -8  -5  -2   16.90    0.60
   8   5   2   15.09    0.60
  -9  -5  -2   73.66    1.61
  -9  -5  -2   74.45    1.57
  -9  -5  -2   74.45    1.57
   9   5   2   72.96    1.59
 -10  -5  -2   42.32    1.14
 -10  -5  -2   39.77    1.16
 -10  -5  -2   42.32    1.14
  10   5   2   39.57    1.09
 -11  -5  -2   92.00    2.07
 -11  -5  -2   95.39    2.04
 -11  -5  -2   95.39    2.04
   8  -6  -2    2.85    0.40
   8  -6  -2    3.54    0.38
   8  -6  -2    2.85    0.40
  -8   6   2    3.71    0.55
  -8   6   2    3.49    0.45
  -8   6   2    3.49    0.45
   7  -6  -2    0.01    0.18
   7  -6  -2    0.12    0.14
   7  -6  -2    0.01    0.18
  -7   6   2   -0.04    0.19
  -7   6   2   -0.04    0.19
  -7   6   2   -0.08    0.20
   6  -6  -2    1.76    0.29
   6  -6  -2    1.76    0.29
   6  -6  -2    1.70    0.21
  -6   6   2    1.15    0.26
  -6   6   2    1.30    0.31
  -6   6   2    1.15    0.26
   5  -6  -2   39.92    1.09
   5  -6  -2   38.68    0.87
   5  -6  -2   39.92    1.09
  -5   6   2   40.35    1.21
  -5   6   2   39.20    1.09
  -5   6   2   39.20    1.09
   4  -6  -2  205.74    3.98
   4  -6  -2  203.91    3.37
   4  -6  -2  203.91    3.37
   4  -6  -2  199.24    3.00
  -4   6   2  196.27    3.50
  -4   6   2  201.98    3.36
  -4   6   2  201.98    3.36
  -4   6   2  205.68    4.01
   3  -6  -2  185.29    3.06
   3  -6  -2  187.23    3.58
   3  -6  -2  185.29    3.06
  -3   6   2  185.96    3.20
  -3   6   2  182.09    3.05
  -3   6   2  192.05    3.63
  -3   6   2  182.09    3.05
   2  -6  -2  390.98    6.17
   2  -6  -2  381.07    5.65
   2  -6  -2  388.85    7.26
   2  -6  -2  381.07    5.65
  -2   6   2  383.39    6.18
  -2   6   2  375.28    5.64
  -2   6   2  380.22    5.77
  -2   6   2  375.28    5.64
   1  -6  -2  177.56    4.20
   1  -6  -2  176.55    2.79
   1  -6  -2  175.19    3.16
   1  -6  -2  176.55    2.79
  -1   6   2  175.11    3.18
   0  -6  -2    0.62    0.08
   0  -6  -2    0.39    0.07
   0  -6  -2    0.29    0.27
   0  -6  -2    0.30    0.11
   0  -6  -2    0.30    0.11
   0   6   2    0.64    0.14
   0   6   2    0.40    0.16
  -1  -6  -2   54.34    2.06
  -1  -6  -2   54.17    1.02
  -1  -6  -2   54.17    1.02
  -1  -6  -2   52.22    0.97
   1   6   2   54.53    1.30
   1   6   2   53.35    1.23
  -2  -6  -2  338.68    6.66
  -2  -6  -2  340.13    4.73
  -2  -6  -2  340.13    4.73
  -2  -6  -2  338.95    5.00
   2   6   2  347.19    5.21
   2   6   2  352.34    5.62
  -3  -6  -2   20.03    1.26
  -3  -6  -2   19.25    0.60
  -3  -6  -2   19.74    0.43
  -3  -6  -2   19.74    0.43
   3   6   2   19.68    0.65
   3   6   2   20.64    0.45
  -4  -6  -2  338.75    6.78
  -4  -6  -2  342.12    5.22
  -4  -6  -2  344.54    4.93
  -4  -6  -2  343.79    4.88
  -4  -6  -2  343.79    4.88
  -4  -6  -2  344.54    4.93
   4   6   2  333.83    5.25
  -5  -6  -2    0.24    0.09
  -5  -6  -2    0.02    0.11
  -5  -6  -2    0.32    0.10
  -5  -6  -2    0.24    0.09
  -5  -6  -2    0.32    0.10
  -5  -6  -2    0.58    0.08
  -5  -6  -2   -0.02    0.23
   5   6   2    0.04    0.11
  -6  -6  -2  258.27    3.90
  -6  -6  -2  250.24    5.83
  -6  -6  -2  265.46    4.32
  -6  -6  -2  256.69    3.88
  -6  -6  -2  261.61    3.85
  -6  -6  -2  256.69    3.88
  -6  -6  -2  258.27    3.90
   6   6   2  259.81    4.38
   6   6   2  260.67    4.05
  -7  -6  -2   87.96    1.63
  -7  -6  -2   87.96    1.63
  -7  -6  -2   90.79    1.64
  -7  -6  -2   86.64    1.61
  -7  -6  -2   86.64    1.61
   7   6   2   88.70    2.09
   7   6   2   89.29    1.77
  -8  -6  -2    0.71    0.17
  -8  -6  -2    1.74    0.23
  -8  -6  -2    1.74    0.23
  -8  -6  -2    0.71    0.17
  -8  -6  -2    0.34    0.13
   8   6   2    0.18    0.13
  -9  -6  -2    1.98    0.26
  -9  -6  -2    1.44    0.24
  -9  -6  -2    1.44    0.24
   9   6   2    1.61    0.26
 -10  -6  -2    2.60    0.33
 -10  -6  -2    2.60    0.33
 -10  -6  -2    2.60    0.32
  10   6   2    2.85    0.35
 -11  -6  -2   21.91    0.86
  11   6   2   21.40    0.82
   7  -7  -2    0.14    0.21
   7  -7  -2   -0.03    0.12
   7  -7  -2    0.14    0.21
  -7   7   2    0.31    0.26
  -7   7   2   -0.09    0.21
  -7   7   2   -0.09    0.21
   6  -7  -2   91.37    1.72
   6  -7  -2   90.07    2.00
   6  -7  -2   90.07    2.00
  -6   7   2   93.48    2.03
  -6   7   2   93.48    2.03
  -6   7   2   91.30    2.19
   5  -7  -2    2.08    0.30
   5  -7  -2    2.08    0.30
   5  -7  -2    2.66    0.22
  -5   7   2    2.13    0.30
  -5   7   2    2.32    0.37
  -5   7   2    2.13    0.30
   4  -7  -2    3.09    0.18
   4  -7  -2    3.50    0.35
   4  -7  -2    3.50    0.35
  -4   7   2    2.90    0.37
  -4   7   2    3.02    0.34
  -4   7   2    3.02    0.34
   3  -7  -2  116.71    2.13
   3  -7  -2  112.47    2.61
   3  -7  -2  116.71    2.13
  -3   7   2  110.42    2.62
  -3   7   2  115.01    2.12
  -3   7   2  115.01    2.12
  -3   7   2  114.79    2.26
   2  -7  -2  114.05    2.07
   2  -7  -2  121.40    2.55
   2  -7  -2  114.05    2.07
  -2   7   2  116.43    2.08
  -2   7   2  116.43    2.08
  -2   7   2  115.48    2.18
  -2   7   2  114.88    2.55
   1  -7  -2    3.11    0.38
  -1   7   2    3.21    0.40
  -1   7   2    3.14    0.30
   0  -7  -2  188.08    2.94
   0  -7  -2  186.12    2.72
   0  -7  -2  188.08    2.94
   0   7   2  185.56    3.31
  -1  -7  -2   32.05    0.74
  -1  -7  -2   32.05    0.74
  -2  -7  -2    6.34    0.31
   2   7   2    6.31    0.38
  -3  -7  -2   94.65    1.44
  -3  -7  -2   94.65    1.75
  -3  -7  -2   94.65    1.44
   3   7   2   90.19    1.82
  -4  -7  -2    1.25    0.13
  -4  -7  -2    0.33    0.13
  -4  -7  -2    1.25    0.13
   4   7   2    0.41    0.15
  -5  -7  -2   34.57    1.00
  -5  -7  -2   33.67    0.73
  -5  -7  -2   33.67    0.73
   5   7   2   32.54    0.99
  -6  -7  -2    7.41    0.34
  -6  -7  -2    7.88    0.24
  -6  -7  -2    7.41    0.34
  -6  -7  -2    7.91    0.51
   6   7   2    7.86    0.53
  -7  -7  -2   10.82    0.44
  -7  -7  -2   10.37    0.63
  -7  -7  -2   10.55    0.39
  -7  -7  -2   10.82    0.44
   7   7   2   10.58    0.53
  -8  -7  -2   45.76    1.04
  -8  -7  -2   46.53    1.07
  -8  -7  -2   46.53    1.07
   8   7   2   45.59    1.20
  -9  -7  -2   34.84    0.94
  -9  -7  -2   34.84    0.94
  -9  -7  -2   33.51    0.93
   9   7   2   35.83    1.07
 -10  -7  -2   51.11    1.27
  10   7   2   49.51    1.35
 -11  -7  -2   15.25    0.69
  11   7   2   14.77    0.72
   6  -8  -2    0.33    0.14
   6  -8  -2   -0.07    0.19
   6  -8  -2   -0.07    0.19
  -6   8   2   -0.02    0.19
  -6   8   2   -0.24    0.21
  -6   8   2   -0.02    0.19
   5  -8  -2   26.42    0.92
   5  -8  -2   25.43    0.64
   5  -8  -2   26.42    0.92
  -5   8   2   25.98    0.92
  -5   8   2   25.98    0.92
  -5   8   2   26.50    1.04
   4  -8  -2   80.48    1.73
   4  -8  -2   80.48    1.73
   4  -8  -2   76.67    1.30
  -4   8   2   78.72    1.72
  -4   8   2   78.72    1.72
  -4   8   2   80.16    1.88
   3  -8  -2    0.45    0.19
   3  -8  -2    0.45    0.19
  -3   8   2    0.59    0.21
  -3   8   2    0.34    0.19
  -3   8   2    0.59    0.21
   0  -8  -2   41.94    0.80
  -1  -8  -2  200.59    3.07
  -2  -8  -2    3.59    0.26
  -3  -8  -2  107.31    1.56
  -3  -8  -2  107.31    1.56
  -3  -8  -2  104.02    1.96
  -4  -8  -2  161.18    2.41
  -4  -8  -2  161.18    2.41
  -4  -8  -2  160.30    2.83
  -5  -8  -2    4.38    0.38
  -5  -8  -2    4.80    0.25
  -5  -8  -2    4.80    0.25
  -6  -8  -2   34.37    0.80
  -6  -8  -2   33.90    1.10
  -6  -8  -2   34.37    0.80
  -7  -8  -2   30.58    0.78
  -7  -8  -2   30.58    0.78
  -7  -8  -2   29.23    1.08
  -8  -8  -2    0.15    0.13
  -8  -8  -2    0.45    0.12
  -8  -8  -2    0.15    0.13
  -9  -8  -2  156.28    2.61
  -9  -8  -2  158.91    2.74
  -9  -8  -2  158.91    2.74
   9   8   2  156.93    2.97
 -10  -8  -2   12.85    0.60
 -10  -8  -2   12.05    0.54
 -10  -8  -2   12.85    0.60
  10   8   2   11.74    0.65
 -11  -8  -2   24.22    0.83
  11   8   2   24.96    0.97
   5  -9  -2    0.26    0.11
  -5   9   2    0.52    0.28
   1  -9  -2  103.08    1.60
   0  -9  -2    3.59    0.21
  -1  -9  -2   14.53    0.48
  -2  -9  -2    0.78    0.16
  -3  -9  -2    8.05    0.43
  -4  -9  -2   30.08    0.58
  -4  -9  -2   29.30    0.93
  -4  -9  -2   30.08    0.58
  -5  -9  -2    4.99    0.24
  -5  -9  -2    5.35    0.43
  -5  -9  -2    4.99    0.24
  -6  -9  -2   35.88    1.16
  -6  -9  -2   34.55    0.80
  -6  -9  -2   34.55    0.80
  -7  -9  -2    2.68    0.25
  -7  -9  -2    2.50    0.40
  -7  -9  -2    2.68    0.25
  -8  -9  -2   25.70    0.76
  -8  -9  -2   25.70    0.76
  -9  -9  -2    0.60    0.19
  -9  -9  -2    0.60    0.19
 -10  -9  -2    3.33    0.37
 -10  -9  -2    3.33    0.37
  10   9   2    3.67    0.45
   0 -10  -2   25.31    0.64
  -1 -10  -2   78.33    1.50
  -2 -10  -2   20.43    0.67
  -3 -10  -2   53.90    1.29
  -4 -10  -2    3.04    0.35
  -5 -10  -2   33.25    1.09
  -5 -10  -2   32.82    0.67
  -5 -10  -2   32.82    0.67
  -6 -10  -2  110.65    2.41
  -6 -10  -2  110.95    1.85
  -6 -10  -2  110.95    1.85
  -7 -10  -2    0.63    0.25
  -7 -10  -2    0.47    0.13
  -7 -10  -2    0.47    0.13
  -8 -10  -2   71.91    1.46
  -8 -10  -2   71.91    1.46
  -8 -10  -2   72.83    2.01
  -9 -10  -2   19.20    0.69
  -9 -10  -2   19.20    0.69
   1 -11  -2    1.51    0.16
   0 -11  -2    0.15    0.11
  -1 -11  -2    7.96    0.41
  -2 -11  -2    2.17    0.28
  -3 -11  -2  138.02    2.59
  -4 -11  -2   30.64    1.02
  -5 -11  -2   23.28    0.93
  -6 -11  -2   17.49    0.47
  -6 -11  -2   15.58    0.82
  -6 -11  -2   17.49    0.47
  -7 -11  -2    0.91    0.16
  -7 -11  -2    0.91    0.16
  -7 -11  -2    0.91    0.29
  -8 -11  -2    4.66    0.35
  -8 -11  -2    4.66    0.35
  -8 -11  -2    4.52    0.59
  -9 -11  -2   17.67    0.65
  -9 -11  -2   17.67    0.65
   1 -12  -2    6.05    0.29
   0 -12  -2   17.36    0.57
  -1 -12  -2    8.47    0.45
  -2 -12  -2   43.09    1.15
  -3 -12  -2    6.92    0.48
  -4 -12  -2   20.71    0.86
  -5 -12  -2    2.68    0.40
  -6 -12  -2   82.14    2.08
  -7 -12  -2   12.20    0.80
  -7 -12  -2   12.45    0.41
  -7 -12  -2   12.45    0.41
  -4 -12   3   39.27    1.37
  -3 -12   3    6.74    0.58
  -2 -12   3    2.49    0.39
  -7 -11   3   38.15    0.95
  -7 -11   3   38.15    0.95
  -7 -11   3   38.76    1.49
  -6 -11   3    0.49    0.29
  -6 -11   3    0.27    0.12
  -6 -11   3    0.27    0.12
  -5 -11   3   12.35    0.39
  -5 -11   3   11.94    0.77
  -5 -11   3   12.35    0.39
  -4 -11   3   22.91    0.99
  -3 -11   3    2.97    0.41
  -2 -11   3    2.76    0.38
  -1 -11   3   47.61    1.34
   0 -11   3   15.55    0.71
   1 -11   3    0.38    0.18
  -8 -10   3   23.20    0.77
  -8 -10   3   23.20    0.77
  -7 -10   3    2.94    0.49
  -7 -10   3    3.98    0.34
  -7 -10   3    3.98    0.34
  -6 -10   3  154.39    2.54
  -6 -10   3  149.81    3.18
  -6 -10   3  154.39    2.54
  -5 -10   3    3.92    0.28
  -5 -10   3    3.50    0.46
  -5 -10   3    3.92    0.28
  -4 -10   3    0.80    0.12
  -4 -10   3    0.58    0.25
  -4 -10   3    0.80    0.12
  -3 -10   3    6.61    0.18
  -3 -10   3    6.61    0.18
  -3 -10   3    7.50    0.54
  -2 -10   3    1.36    0.27
  -1 -10   3    3.00    0.35
   0 -10   3   11.80    0.59
   1 -10   3   72.40    1.62
   2 -10   3    6.99    0.47
   3 -10   3   32.09    0.99
  -9  -9   3   12.65    0.60
  -9  -9   3   12.65    0.60
  -8  -9   3    2.49    0.29
  -8  -9   3    2.49    0.29
  -7  -9   3    3.56    0.32
  -7  -9   3    3.56    0.32
  -6  -9   3    1.70    0.21
  -6  -9   3    1.70    0.21
  -6  -9   3    2.25    0.39
  -5  -9   3    7.54    0.36
  -5  -9   3    7.54    0.36
  -5  -9   3    8.36    0.61
  -4  -9   3  197.85    2.99
  -4  -9   3  192.74    3.57
  -4  -9   3  197.85    2.99
  -3  -9   3  169.75    2.55
  -3  -9   3  172.81    3.16
  -3  -9   3  169.75    2.55
  -2  -9   3   43.79    1.21
  -1  -9   3   19.68    0.74
   0  -9   3   24.09    0.80
   1  -9   3    5.30    0.39
   2  -9   3   13.14    0.58
   3  -9   3   12.13    0.58
   4  -9   3   79.21    1.73
 -10  -8   3    6.23    0.42
  -9  -8   3   36.78    1.03
  -9  -8   3   36.78    1.03
  -9  -8   3   36.40    0.95
  -8  -8   3    9.98    0.49
  -8  -8   3    9.18    0.39
  -8  -8   3    9.98    0.49
  -7  -8   3    6.33    0.38
  -7  -8   3    6.33    0.38
  -6  -8   3   15.70    0.81
  -6  -8   3   15.82    0.54
  -6  -8   3   15.82    0.54
  -5  -8   3    0.15    0.11
  -5  -8   3    0.15    0.11
  -5  -8   3    0.49    0.23
  -4  -8   3   43.10    0.90
  -4  -8   3   44.54    1.26
  -4  -8   3   43.10    0.90
  -3  -8   3    4.43    0.40
  -3  -8   3    2.85    0.20
  -3  -8   3    2.85    0.20
  -2  -8   3    7.15    0.24
  -2  -8   3    7.90    0.67
  -2  -8   3    7.41    0.46
  -2  -8   3    7.15    0.24
  -1  -8   3    2.39    0.28
   0  -8   3    0.15    0.11
   1  -8   3   66.81    1.43
   2  -8   3   12.83    0.54
   3  -8   3    4.03    0.35
   4  -8   3   14.02    0.61
   5  -8   3    8.93    0.52
   6  -8   3    1.17    0.26
 -10  -7   3   -0.03    0.14
  -9  -7   3    0.56    0.18
  -8  -7   3    2.30    0.27
  -8  -7   3    1.52    0.22
  -8  -7   3    2.30    0.27
   7   7  -3   15.47    0.66
  -7  -7   3   15.66    0.53
  -7  -7   3   15.75    0.57
  -7  -7   3   15.75    0.57
  -6  -7   3   28.50    1.06
  -6  -7   3   31.15    0.79
  -6  -7   3   31.15    0.79
  -6  -7   3   30.05    0.69
  -5  -7   3   78.94    1.46
  -5  -7   3   78.94    1.46
  -5  -7   3   82.79    1.88
   4   7  -3    2.81    0.26
  -4  -7   3    2.70    0.21
  -4  -7   3    3.14    0.48
  -4  -7   3    3.73    0.37
  -4  -7   3    2.70    0.21
   3   7  -3   89.90    1.66
  -3  -7   3   93.54    1.53
  -3  -7   3   93.37    1.90
  -3  -7   3   92.42    2.33
  -3  -7   3   93.54    1.53
  -2  -7   3   13.99    0.36
  -2  -7   3   12.73    0.56
  -2  -7   3   12.57    0.76
  -2  -7   3   13.99    0.36
  -1  -7   3    0.23    0.06
  -1  -7   3    0.13    0.12
  -1  -7   3    0.23    0.06
  -1  -7   3    0.04    0.17
   0  -7   3  126.21    2.24
   1  -7   3  332.94    5.05
   2  -7   3   55.90    1.23
   3  -7   3   68.26    1.46
  -4   7  -3  116.11    2.29
   4  -7   3  112.24    2.16
  -5   7  -3   16.44    0.76
   5  -7   3   16.37    0.68
  -6   7  -3    3.10    0.43
   6  -7   3    3.04    0.37
  -7   7  -3   43.72    1.45
   7  -7   3   44.63    1.31
 -11  -6   3   58.89    1.55
 -10  -6   3    3.78    0.40
  -9  -6   3   56.93    1.38
  -8  -6   3    1.01    0.20
  -7  -6   3    4.65    0.32
  -7  -6   3    4.64    0.32
  -7  -6   3    4.64    0.32
   6   6  -3   24.63    0.77
  -6  -6   3   24.96    0.67
  -6  -6   3   24.24    0.68
  -6  -6   3   24.62    0.98
  -6  -6   3   24.24    0.68
   5   6  -3    3.67    0.29
  -5  -6   3    2.91    0.35
  -5  -6   3    3.51    0.22
  -5  -6   3    3.55    0.24
  -5  -6   3    3.55    0.24
  -5  -6   3    4.15    0.54
   4   6  -3    2.83    0.24
  -4  -6   3    2.95    0.14
  -4  -6   3    3.41    0.37
  -4  -6   3    3.31    0.21
  -4  -6   3    3.31    0.21
  -4  -6   3    3.19    0.45
   3   6  -3   49.63    1.03
  -3  -6   3   48.33    0.93
  -3  -6   3   50.44    1.50
  -3  -6   3   50.63    1.21
  -3  -6   3   48.33    0.93
   2   6  -3   55.30    1.05
  -2  -6   3   56.60    1.27
  -2  -6   3   56.51    1.57
  -2  -6   3   57.70    1.00
  -2  -6   3   57.70    1.00
  -1  -6   3  308.77    5.21
  -1  -6   3  313.89    4.39
  -1  -6   3  307.67    4.74
  -1  -6   3  313.89    4.39
  -1  -6   3  309.41    6.38
   0  -6   3  145.48    2.48
   0  -6   3  149.76    2.12
   0  -6   3  147.26    3.81
   0  -6   3  149.76    2.12
   1  -6   3    5.75    0.69
   1  -6   3    5.00    0.31
  -2   6  -3   89.07    1.67
   2  -6   3   86.25    1.64
  -3   6  -3    1.96    0.25
   3  -6   3    1.07    0.19
  -4   6  -3   42.32    1.15
   4  -6   3   43.03    1.08
  -5   6  -3   10.26    0.59
   5  -6   3    9.07    0.50
  -6   6  -3   74.57    1.83
   6  -6   3   74.93    1.71
  -7   6  -3   92.54    2.20
   7  -6   3   91.77    2.05
  -8   6  -3   21.21    1.02
 -11  -5   3    0.65    0.26
 -10  -5   3   69.70    1.67
  -9  -5   3   99.62    2.04
  -8  -5   3  121.92    2.28
  -7  -5   3  125.30    2.18
  -7  -5   3  123.21    2.18
  -7  -5   3  124.01    2.23
  -7  -5   3  125.30    2.18
  -6  -5   3    9.06    0.66
  -6  -5   3    9.28    0.39
  -6  -5   3    9.28    0.39
  -6  -5   3   10.50    0.46
  -6  -5   3    9.22    0.41
   5   5  -3   45.46    1.04
  -5  -5   3   45.90    0.95
  -5  -5   3   45.23    0.96
  -5  -5   3   45.90    0.95
  -5  -5   3   45.63    1.22
  -5  -5   3   45.77    1.44
   4   5  -3    0.16    0.10
   4   5  -3    0.00    0.07
  -4  -5   3    0.00    0.10
  -4  -5   3    0.30    0.08
  -4  -5   3    0.03    0.21
  -4  -5   3    0.00    0.13
  -4  -5   3    0.15    0.08
  -4  -5   3    0.15    0.08
   3   5  -3   10.13    0.38
  -3  -5   3   11.26    0.49
  -3  -5   3   10.80    0.28
  -3  -5   3    9.38    0.85
  -3  -5   3   10.12    0.33
  -3  -5   3   10.12    0.33
  -3  -5   3   11.02    0.61
   2   5  -3   40.21    0.82
  -2  -5   3   40.58    1.19
  -2  -5   3   40.63    1.72
  -2  -5   3   40.73    0.77
  -2  -5   3   40.90    0.98
  -2  -5   3   40.73    0.77
   1   5  -3  307.25    4.34
  -1  -5   3  304.49    4.61
  -1  -5   3  303.25    4.33
  -1  -5   3  308.44    4.98
  -1  -5   3  309.21    5.99
  -1  -5   3  303.25    4.33
   0  -5   3    4.25    0.16
   0  -5   3    4.25    0.16
   0  -5   3    4.14    0.27
   0  -5   3    4.43    0.57
   0  -5   3    4.17    0.34
   1  -5   3  455.60    6.19
   1  -5   3  446.91    6.53
   1  -5   3  455.60    6.19
   1  -5   3  444.43    7.86
  -2   5  -3   14.54    0.51
   2  -5   3   15.13    0.53
   2  -5   3   14.12    0.93
  -3   5  -3   25.39    0.77
  -3   5  -3   26.53    0.66
  -3   5  -3   26.53    0.66
   3  -5   3   26.37    0.75
  -4   5  -3    5.44    0.33
  -4   5  -3    5.44    0.33
  -4   5  -3    5.26    0.38
   4  -5   3    5.84    0.37
  -5   5  -3    6.26    0.45
  -5   5  -3    6.02    0.38
  -5   5  -3    6.02    0.38
   5  -5   3    6.46    0.41
  -6   5  -3    3.31    0.35
  -6   5  -3    2.63    0.37
  -6   5  -3    3.31    0.35
   6  -5   3    2.80    0.34
  -7   5  -3  170.78    3.29
  -7   5  -3  168.16    3.02
  -7   5  -3  168.16    3.02
   7  -5   3  170.29    3.16
  -8   5  -3    4.28    0.45
  -8   5  -3    5.01    0.58
  -8   5  -3    4.28    0.45
   8  -5   3    4.24    0.48
  11   4  -3   16.69    0.68
  11   4  -3   16.69    0.68
 -11  -4   3   15.94    0.78
  10   4  -3   11.77    0.56
  10   4  -3   11.77    0.56
 -10  -4   3   11.18    0.62
   9   4  -3  101.83    1.94
   9   4  -3  101.83    1.94
  -9  -4   3  102.42    2.08
   8   4  -3    4.14    0.33
   8   4  -3    4.14    0.33
  -8  -4   3    5.96    0.40
   7   4  -3   35.97    1.66
   7   4  -3   34.35    0.87
   7   4  -3   34.35    0.87
  -7  -4   3   35.14    1.29
  -7  -4   3   36.29    0.94
   6   4  -3  160.94    2.95
   6   4  -3  157.28    2.59
   6   4  -3  157.28    2.59
  -6  -4   3  160.96    2.65
  -6  -4   3  158.61    3.19
  -6  -4   3  157.52    3.98
   5   4  -3  173.37    2.98
  -5  -4   3  174.11    2.71
  -5  -4   3  177.46    4.16
  -5  -4   3  174.67    2.78
  -5  -4   3  172.15    3.04
  -5  -4   3  171.10    3.30
  -5  -4   3  174.11    2.71
   4   4  -3   50.70    1.07
   4   4  -3   49.18    1.03
  -4  -4   3   48.02    1.17
  -4  -4   3   48.53    0.97
  -4  -4   3   48.64    1.36
  -4  -4   3   48.60    1.01
  -4  -4   3   51.56    0.96
  -4  -4   3   48.40    1.86
  -4  -4   3   51.56    0.96
   3   4  -3   26.00    0.57
   3   4  -3   26.29    0.64
  -3  -4   3   25.99    0.48
  -3  -4   3   26.39    1.29
  -3  -4   3   25.21    0.74
  -3  -4   3   26.09    0.48
  -3  -4   3   25.44    0.53
  -3  -4   3   25.87    0.89
  -3  -4   3   26.41    0.58
  -3  -4   3   25.68    0.57
  -3  -4   3   26.41    0.58
  -3  -4   3   25.87    0.57
   2   4  -3   20.48    0.50
  -2  -4   3   18.81    0.59
  -2  -4   3   19.85    0.73
  -2  -4   3   19.42    0.45
  -2  -4   3   19.76    0.40
  -2  -4   3   20.13    1.09
  -2  -4   3   19.42    0.45
   1   4  -3  257.44    3.62
  -1  -4   3  249.64    4.91
  -1  -4   3  253.27    3.60
  -1  -4   3  252.39    4.09
  -1  -4   3  253.27    3.60
  -1  -4   3  246.76    3.83
   0   4  -3   19.29    0.41
   0   4  -3   18.70    0.38
   0  -4   3   19.76    1.02
   0  -4   3   18.69    0.54
   0  -4   3   18.85    0.40
   0  -4   3   18.19    0.64
   0  -4   3   19.16    0.40
   0  -4   3   19.16    0.40
  -1   4  -3  402.02    5.73
   1  -4   3  376.23    5.95
   1  -4   3  409.39    5.82
   1  -4   3  409.40    6.89
   1  -4   3  404.26    5.54
   1  -4   3  399.09    5.80
   1  -4   3  404.26    5.54
  -2   4  -3   26.31    0.69
  -2   4  -3   26.56    0.59
  -2   4  -3   26.56    0.59
   2  -4   3   26.89    0.48
   2  -4   3   27.12    0.78
   2  -4   3   26.87    0.69
   2  -4   3   26.89    0.48
  -3   4  -3  413.64    6.15
  -3   4  -3  416.31    5.98
  -3   4  -3  416.31    5.98
   3  -4   3  422.68    5.72
   3  -4   3  409.13    6.11
   3  -4   3  409.64    6.40
   3  -4   3  422.68    5.72
  -4   4  -3   19.29    0.59
  -4   4  -3   19.29    0.59
  -4   4  -3   19.75    0.69
   4  -4   3   20.22    0.67
   4  -4   3   20.45    0.37
   4  -4   3   19.72    0.83
   4  -4   3   20.45    0.37
  -5   4  -3    0.36    0.14
  -5   4  -3    0.36    0.14
  -5   4  -3    0.28    0.15
   5  -4   3    0.12    0.12
   5  -4   3    0.29    0.19
   5  -4   3    0.26    0.04
   5  -4   3    0.26    0.04
  -6   4  -3   56.03    1.28
  -6   4  -3   56.03    1.28
  -6   4  -3   53.55    1.41
   6  -4   3   55.03    1.36
  -7   4  -3    1.88    0.32
  -7   4  -3    2.27    0.32
  -7   4  -3    2.27    0.32
   7  -4   3    1.82    0.29
  -8   4  -3    0.02    0.20
  -8   4  -3    0.02    0.20
  -8   4  -3    0.09    0.23
   8  -4   3    0.09    0.18
  -9   4  -3   77.97    1.83
  -9   4  -3   77.97    1.83
  -9   4  -3   72.64    2.00
   9  -4   3   72.97    1.93
  11   3  -3   10.02    0.52
  11   3  -3   10.02    0.52
 -11  -3   3   10.78    0.63
 -11  -3   3   10.78    0.63
  10   3  -3    4.92    0.38
  10   3  -3    4.92    0.38
 -10  -3   3    5.00    0.44
 -10  -3   3    5.00    0.44
 -10  -3   3    4.66    0.44
   9   3  -3    0.21    0.15
   9   3  -3    0.21    0.15
  -9  -3   3    0.40    0.18
  -9  -3   3    0.20    0.16
  -9  -3   3    0.40    0.18
   8   3  -3    4.71    0.32
   8   3  -3    5.51    0.70
   8   3  -3    5.99    0.37
   8   3  -3    4.71    0.32
   8   3  -3    5.99    0.37
  -8  -3   3    5.30    0.60
  -8  -3   3    5.89    0.36
  -8  -3   3    5.89    0.36
  -8  -3   3    4.33    0.36
   7   3  -3    9.56    0.63
   7   3  -3    8.94    0.40
   7   3  -3    9.57    0.42
   7   3  -3    8.94    0.40
   7   3  -3    9.57    0.42
  -7  -3   3    9.14    0.41
  -7  -3   3    9.00    1.20
  -7  -3   3    9.14    0.41
  -7  -3   3    9.95    0.65
  -7  -3   3    9.14    0.45
   6   3  -3   24.96    0.64
   6   3  -3   23.38    0.90
   6   3  -3   24.96    0.64
   6   3  -3   23.36    0.76
   6   3  -3   24.04    0.64
   6   3  -3   24.04    0.64
   6   3  -3   23.77    0.90
  -6  -3   3   25.27    1.32
  -6  -3   3   24.81    0.97
  -6  -3   3   24.43    0.63
  -6  -3   3   24.43    0.63
  -6  -3   3   24.54    0.70
  -6  -3   3   22.00    0.74
   5   3  -3    2.97    0.20
   5   3  -3    2.59    0.21
   5   3  -3    2.97    0.20
   5   3  -3    3.32    0.26
   5   3  -3    2.59    0.21
   5   3  -3    2.79    0.29
   5   3  -3    3.32    0.31
  -5  -3   3    3.01    0.20
  -5  -3   3    3.20    0.36
  -5  -3   3    3.01    0.20
  -5  -3   3    3.22    0.23
   4   3  -3  567.86    8.23
  -4  -3   3  557.72    8.04
  -4  -3   3  581.86    8.56
   3   3  -3    0.09    0.07
  -3  -3   3    0.13    0.06
  -3  -3   3    0.05    0.06
  -3  -3   3    0.17    0.11
   2   3  -3  124.03    1.97
   2   3  -3  125.34    1.86
  -2  -3   3  125.85    1.86
  -2  -3   3  126.01    2.29
  -2  -3   3  128.73    1.85
  -2  -3   3  126.22    1.86
  -2  -3   3  123.67    1.92
   1   3  -3  187.88    2.74
  -1  -3   3  187.81    3.07
  -1  -3   3  188.63    2.67
  -1  -3   3  182.37    2.89
   0   3  -3  393.28    5.43
   0  -3   3  387.63    5.65
   0  -3   3  392.32    5.78
   0  -3   3  392.37    6.51
  -1   3  -3   94.81    1.61
  -1   3  -3   91.46    1.52
  -1   3  -3   88.43    1.99
   1  -3   3   93.44    1.41
   1  -3   3   93.44    1.41
   1  -3   3   94.71    1.59
   1  -3   3   93.24    1.64
   1  -3   3   92.56    2.19
   1  -3   3   94.92    1.61
  -2   3  -3  127.90    1.96
  -2   3  -3  127.90    1.96
  -2   3  -3  126.19    2.61
  -2   3  -3  128.34    2.34
  -2   3  -3  127.55    2.09
   2  -3   3  124.46    2.20
   2  -3   3  126.19    1.87
   2  -3   3  127.96    2.12
   2  -3   3  126.19    1.87
  -3   3  -3  303.99    4.39
  -3   3  -3  293.64    4.52
  -3   3  -3  303.99    4.39
   3  -3   3  302.65    4.98
   3  -3   3  302.40    4.21
   3  -3   3  291.20    4.52
   3  -3   3  302.40    4.21
   3  -3   3  300.37    4.77
  -4   3  -3   49.02    1.03
  -4   3  -3   48.14    1.14
  -4   3  -3   49.02    1.03
   4  -3   3   50.02    0.84
   4  -3   3   50.02    0.84
   4  -3   3   50.54    1.37
   4  -3   3   51.18    1.15
  -5   3  -3   55.90    1.19
  -5   3  -3   55.90    1.19
  -5   3  -3   55.09    1.32
   5  -3   3   55.87    0.94
   5  -3   3   54.52    1.29
   5  -3   3   57.38    1.60
   5  -3   3   55.87    0.94
  -6   3  -3  212.66    3.48
  -6   3  -3  212.66    3.48
  -6   3  -3  217.18    3.70
   6  -3   3  214.63    3.11
   6  -3   3  217.20    4.17
   6  -3   3  213.24    3.64
   6  -3   3  214.63    3.11
  -7   3  -3    2.29    0.29
  -7   3  -3    2.17    0.33
  -7   3  -3    2.29    0.29
   7  -3   3    2.77    0.16
   7  -3   3    2.24    0.33
   7  -3   3    2.77    0.16
  -8   3  -3   63.28    1.51
  -8   3  -3   63.28    1.51
  -8   3  -3   61.17    1.67
   8  -3   3   62.22    1.05
   8  -3   3   64.67    1.67
   8  -3   3   62.22    1.05
  -9   3  -3    5.60    0.53
  -9   3  -3    5.60    0.53
  -9   3  -3    4.70    0.54
   9  -3   3    4.82    0.19
   9  -3   3    5.28    0.56
   9  -3   3    4.82    0.19
  11   2  -3    0.97    0.22
  11   2  -3    0.97    0.22
 -11  -2   3    1.15    0.31
 -11  -2   3    1.15    0.31
  10   2  -3    3.72    0.32
  10   2  -3    3.72    0.32
 -10  -2   3    3.63    0.40
 -10  -2   3    3.63    0.40
   9   2  -3   13.10    0.59
   9   2  -3   12.09    0.70
   9   2  -3   12.33    0.50
   9   2  -3   12.33    0.50
   9   2  -3   12.07    0.84
   9   2  -3   13.10    0.59
  -9  -2   3   12.37    0.65
  -9  -2   3   12.34    0.58
  -9  -2   3   12.34    0.58
   8   2  -3    1.79    0.21
   8   2  -3    2.02    0.28
   8   2  -3    1.80    0.32
   8   2  -3    2.02    0.28
   8   2  -3    1.82    0.27
   8   2  -3    1.79    0.21
  -8  -2   3    2.39    0.29
  -8  -2   3    1.73    0.27
  -8  -2   3    2.39    0.29
  -8  -2   3    1.65    0.35
   7   2  -3   87.64    1.57
   7   2  -3   86.30    2.13
   7   2  -3   85.88    1.91
   7   2  -3   87.64    1.57
   7   2  -3   85.80    1.71
   7   2  -3   85.92    1.66
   7   2  -3   85.92    1.66
  -7  -2   3   84.86    1.64
  -7  -2   3   84.86    1.64
  -7  -2   3   86.43    1.74
  -7  -2   3   87.84    2.08
  -7  -2   3   87.15    1.69
   6   2  -3  112.50    2.39
   6   2  -3  109.88    1.93
   6   2  -3  109.88    1.93
   6   2  -3  116.46    1.89
   6   2  -3  116.46    1.89
   6   2  -3  111.74    2.19
   6   2  -3  111.73    2.00
  -6  -2   3  113.03    2.03
  -6  -2   3  111.55    2.36
  -6  -2   3  113.25    1.99
  -6  -2   3  111.45    1.94
  -6  -2   3  111.45    1.94
   5   2  -3  455.07    6.43
   5   2  -3  450.39    6.39
   5   2  -3  450.39    6.39
   5   2  -3  455.07    6.43
   5   2  -3  445.43    6.87
   5   2  -3  443.60    6.49
   5   2  -3  443.74    6.70
  -5  -2   3  453.92    6.93
  -5  -2   3  443.96    6.48
  -5  -2   3  447.79    6.42
  -5  -2   3  447.79    6.42
   4   2  -3  333.02    5.21
   4   2  -3  341.35    4.89
   4   2  -3  341.35    4.89
  -4  -2   3  346.56    4.89
  -4  -2   3  346.56    4.89
  -4  -2   3  336.18    4.97
  -4  -2   3  345.73    5.37
   3   2  -3   37.49    0.87
  -3  -2   3   38.50    0.89
  -3  -2   3   38.53    0.78
  -3  -2   3   38.23    1.01
   2   2  -3    5.64    0.24
   2   2  -3    5.10    0.22
  -2  -2   3    4.86    0.20
  -2  -2   3    5.40    0.23
  -2  -2   3    4.82    0.22
  -2  -2   3    5.15    0.32
   1   2  -3  321.17    4.51
  -1  -2   3  314.90    4.75
   0   2  -3   14.87    0.35
   0   2  -3   14.87    0.34
   0  -2   3   14.33    0.45
   0  -2   3   14.31    0.33
  -2   2  -3  109.14    1.82
  -2   2  -3  109.01    1.88
  -2   2  -3  112.57    1.72
  -2   2  -3  112.57    1.72
  -2   2  -3  112.13    2.31
   2  -2   3  111.49    2.18
   2  -2   3  109.25    1.88
   2  -2   3  110.21    1.66
   2  -2   3  110.21    1.66
   2  -2   3  107.20    1.92
  -3   2  -3  113.31    2.46
  -3   2  -3  109.28    1.93
  -3   2  -3  113.70    1.83
  -3   2  -3  113.70    1.83
   3  -2   3  114.82    2.13
   3  -2   3  115.21    1.72
   3  -2   3  113.39    2.13
   3  -2   3  114.81    1.99
   3  -2   3  115.21    1.72
  -4   2  -3    3.62    0.23
  -4   2  -3    3.11    0.26
  -4   2  -3    3.62    0.23
   4  -2   3    2.96    0.15
   4  -2   3    3.04    0.32
   4  -2   3    2.69    0.25
   4  -2   3    2.96    0.15
  -5   2  -3   77.05    1.47
  -5   2  -3   79.37    1.62
  -5   2  -3   77.05    1.47
   5  -2   3   76.47    1.88
   5  -2   3   77.10    1.28
   5  -2   3   77.09    1.28
   5  -2   3   77.43    1.62
  -6   2  -3   20.53    0.67
  -6   2  -3   20.53    0.67
  -6   2  -3   20.08    0.75
   6  -2   3   21.31    0.50
   6  -2   3   20.88    0.97
   6  -2   3   21.31    0.50
   6  -2   3   20.39    0.76
  -7   2  -3   15.55    0.61
  -7   2  -3   14.51    0.69
  -7   2  -3   15.55    0.61
   7  -2   3   15.50    0.44
   7  -2   3   15.50    0.44
   7  -2   3   15.25    0.70
  -8   2  -3   23.30    0.93
  -8   2  -3   21.91    0.80
  -8   2  -3   21.91    0.80
   8  -2   3   22.09    0.91
   8  -2   3   23.11    0.57
   8  -2   3   23.11    0.57
  -9   2  -3   44.78    1.41
  -9   2  -3   45.40    1.27
  -9   2  -3   45.40    1.27
   9  -2   3   44.74    0.91
   9  -2   3   44.74    0.91
   9  -2   3   44.05    1.41
 -10   2  -3    4.06    0.48
 -10   2  -3    4.06    0.48
 -10   2  -3    2.84    0.48
  10  -2   3    3.81    0.52
  10  -2   3    3.68    0.23
  10  -2   3    3.68    0.23
  11   1  -3    0.93    0.20
  11   1  -3    0.93    0.20
 -11  -1   3    0.62    0.29
 -11  -1   3    0.62    0.29
 -11  -1   3    0.73    0.30
  10   1  -3   17.08    0.60
  10   1  -3   17.08    0.60
  10   1  -3   17.86    0.78
  10   1  -3   17.82    0.93
  10   1  -3   17.86    0.78
 -10  -1   3   17.00    0.84
 -10  -1   3   18.57    0.78
 -10  -1   3   18.57    0.78
   9   1  -3    2.74    0.26
   9   1  -3    1.32    0.27
   9   1  -3    1.32    0.27
   9   1  -3    1.03    0.27
   9   1  -3    2.74    0.26
  -9  -1   3    1.46    0.31
  -9  -1   3    1.79    0.30
  -9  -1   3    1.79    0.30
   8   1  -3   37.03    0.86
   8   1  -3   34.67    0.99
   8   1  -3   36.76    1.17
   8   1  -3   34.67    0.99
   8   1  -3   37.03    0.86
  -8  -1   3   36.46    1.00
  -8  -1   3   36.46    1.00
  -8  -1   3   38.32    1.11
   7   1  -3    0.83    0.18
   7   1  -3    1.00    0.23
   7   1  -3    0.72    0.14
   7   1  -3    0.72    0.14
   7   1  -3    0.96    0.29
   7   1  -3    0.83    0.18
  -7  -1   3    0.56    0.16
  -7  -1   3    0.66    0.19
  -7  -1   3    0.56    0.16
  -7  -1   3    0.91    0.26
   6   1  -3  194.31    3.13
   6   1  -3  194.69    2.99
   6   1  -3  199.29    3.67
   6   1  -3  194.31    3.13
   6   1  -3  194.69    2.99
   6   1  -3  199.29    3.34
  -6  -1   3  194.51    3.24
  -6  -1   3  195.72    3.13
  -6  -1   3  198.58    3.52
  -6  -1   3  195.72    3.13
   5   1  -3   35.50    0.82
   5   1  -3   35.37    0.73
   5   1  -3   35.37    0.73
   5   1  -3   35.60    0.94
   5   1  -3   35.17    1.08
  -5  -1   3   35.79    0.81
  -5  -1   3   33.08    0.79
  -5  -1   3   33.08    0.79
   4   1  -3  136.30    2.55
   4   1  -3  144.69    2.18
   4   1  -3  144.69    2.18
   4   1  -3  142.66    2.24
   4   1  -3  142.66    2.24
  -4  -1   3  142.02    2.24
  -4  -1   3  142.02    2.24
   3   1  -3  141.94    2.42
  -3  -1   3  145.33    2.44
  -3  -1   3  139.02    2.40
   2   1  -3   63.57    1.21
  -2  -1   3   65.29    1.10
  -2  -1   3   67.52    1.23
  -2  -1   3   65.69    1.22
   1   1  -3  226.46    3.28
   1   1  -3  234.64    3.35
   1   1  -3  226.01    3.32
  -1  -1   3  226.92    3.27
  -1  -1   3  226.43    3.32
   0   1  -3   34.07    0.63
   0   1  -3   33.95    0.65
   0  -1   3   34.43    0.64
   0  -1   3   33.42    0.60
  -1   1  -3   -0.38    0.05
  -1   1  -3   -0.09    0.09
   1  -1   3   -0.30    0.11
   1  -1   3   -0.30    0.07
  -2   1  -3  198.23    2.87
  -2   1  -3  197.32    3.07
  -2   1  -3  198.29    3.51
   2  -1   3  194.04    3.09
   2  -1   3  203.06    3.49
  -3   1  -3   93.65    2.17
  -3   1  -3   92.52    1.55
  -3   1  -3   95.85    1.66
  -3   1  -3   92.52    1.55
  -3   1  -3   93.94    1.50
   3  -1   3   95.99    1.48
   3  -1   3   94.31    1.81
   3  -1   3   95.99    1.48
   3  -1   3   94.26    2.09
   3  -1   3   96.11    1.73
  -4   1  -3  359.23    5.34
  -4   1  -3  360.88    5.21
  -4   1  -3  360.88    5.21
   4  -1   3  354.53    5.07
   4  -1   3  366.97    5.43
   4  -1   3  354.53    5.07
   4  -1   3  357.51    5.63
  -5   1  -3   53.26    1.10
  -5   1  -3   53.26    1.10
  -5   1  -3   54.14    1.21
   5  -1   3   52.24    0.96
   5  -1   3   52.91    1.25
   5  -1   3   52.24    0.96
   5  -1   3   54.58    1.46
  -6   1  -3    5.47    0.34
  -6   1  -3    5.47    0.34
  -6   1  -3    5.75    0.39
   6  -1   3    5.57    0.49
   6  -1   3    5.71    0.26
   6  -1   3    6.39    0.43
   6  -1   3    5.71    0.26
  -7   1  -3   18.84    0.66
  -7   1  -3   18.10    0.74
  -7   1  -3   18.84    0.66
   7  -1   3   18.97    0.79
   7  -1   3   19.06    0.52
   7  -1   3   19.06    0.52
  -8   1  -3    0.16    0.16
  -8   1  -3    0.16    0.16
  -8   1  -3    0.59    0.23
   8  -1   3    0.95    0.25
   8  -1   3    0.18    0.10
   8  -1   3    0.18    0.10
  -9   1  -3    1.39    0.29
  -9   1  -3    0.95    0.30
  -9   1  -3    1.39    0.29
   9  -1   3    0.98    0.28
   9  -1   3    0.76    0.15
   9  -1   3    0.76    0.15
 -10   1  -3   40.15    1.37
 -10   1  -3   42.50    1.25
 -10   1  -3   42.50    1.25
  10  -1   3   39.71    0.92
  10  -1   3   39.71    0.92
  10  -1   3   39.80    1.42
  11   0  -3   14.34    0.52
  11   0  -3   13.93    0.76
  11   0  -3   13.70    0.88
  11   0  -3   13.93    0.76
  11   0  -3   14.34    0.52
 -11   0   3   14.68    0.78
 -11   0   3   14.23    0.85
 -11   0   3   14.68    0.78
  10   0  -3   75.88    2.04
  10   0  -3   80.65    1.52
  10   0  -3   79.01    1.86
  10   0  -3   80.65    1.52
  10   0  -3   79.01    1.86
 -10   0   3   83.46    1.90
 -10   0   3   83.46    1.90
 -10   0   3   84.08    2.07
   9   0  -3    1.19    0.30
   9   0  -3    1.32    0.19
   9   0  -3    1.14    0.24
   9   0  -3    1.14    0.24
   9   0  -3    1.32    0.19
  -9   0   3    1.73    0.34
  -9   0   3    1.53    0.28
  -9   0   3    1.53    0.28
   8   0  -3    0.16    0.10
   8   0  -3    0.16    0.10
   8   0  -3    0.48    0.18
   8   0  -3    0.48    0.20
   8   0  -3    0.48    0.18
  -8   0   3    0.37    0.17
  -8   0   3    0.37    0.17
  -8   0   3    0.41    0.19
   7   0  -3   52.77    1.70
   7   0  -3   49.39    1.19
   7   0  -3   49.39    1.19
   7   0  -3   52.39    1.01
   7   0  -3   51.56    1.33
   7   0  -3   52.39    1.01
  -7   0   3   50.13    1.20
  -7   0   3   50.13    1.20
  -7   0   3   50.27    1.29
   6   0  -3    3.16    0.30
   6   0  -3    3.66    0.29
   6   0  -3    3.23    0.20
   6   0  -3    3.66    0.29
   6   0  -3    3.23    0.20
   6   0  -3    2.37    0.37
  -6   0   3    2.86    0.31
  -6   0   3    2.62    0.27
  -6   0   3    2.62    0.27
   5   0  -3    1.49    0.18
   5   0  -3    1.85    0.23
   5   0  -3    1.71    0.15
   5   0  -3    1.71    0.15
   5   0  -3    1.49    0.18
   5   0  -3    3.07    0.38
  -5   0   3    1.68    0.19
  -5   0   3    1.68    0.19
   4   0  -3  152.04    2.27
   4   0  -3  152.50    2.41
   4   0  -3  152.50    2.41
   4   0  -3  152.04    2.27
   4   0  -3  149.92    2.50
   4   0  -3  149.23    2.76
  -4   0   3  150.41    2.41
  -4   0   3  153.23    2.79
  -4   0   3  150.41    2.41
   3   0  -3   62.74    1.11
   3   0  -3   62.74    1.11
   3   0  -3   61.53    1.35
   3   0  -3   60.85    1.19
   3   0  -3   60.83    1.09
  -3   0   3   63.25    1.36
   0   0  -3  140.85    2.08
   0   0  -3  143.95    2.21
   0   0   3  141.69    2.19
   1   0   3  514.72    7.66
  -2   0  -3    1.37    0.16
  -2   0  -3    1.38    0.12
   2   0   3    1.19    0.23
   2   0   3    1.08    0.15
  -3   0  -3  161.64    2.43
  -3   0  -3  157.37    2.42
  -3   0  -3  161.64    2.43
   3   0   3  163.10    3.09
   3   0   3  159.24    2.28
   3   0   3  156.26    2.37
   3   0   3  158.11    2.69
   3   0   3  163.90    2.71
  -4   0  -3   81.27    1.40
  -4   0  -3   83.47    1.42
  -4   0  -3   82.47    1.51
  -4   0  -3   83.47    1.42
   4   0   3   79.09    1.33
   4   0   3   82.61    1.61
   4   0   3   81.28    1.31
   4   0   3   79.09    1.33
   4   0   3   79.47    1.70
   4   0   3   83.81    2.05
  -5   0  -3   -0.04    0.07
  -5   0  -3    0.13    0.09
  -5   0  -3   -0.04    0.07
  -5   0  -3    0.13    0.07
   5   0   3    0.16    0.06
   5   0   3    0.06    0.13
   5   0   3    0.16    0.06
   5   0   3    0.04    0.04
   5   0   3   -0.04    0.08
  -6   0  -3  533.27    7.69
  -6   0  -3  531.73    7.86
  -6   0  -3  538.47    7.73
  -6   0  -3  538.47    7.73
   6   0   3  539.39    8.01
   6   0   3  530.83    8.33
   6   0   3  531.20    7.55
   6   0   3  531.20    7.55
  -7   0  -3   66.70    1.90
  -7   0  -3   67.02    1.42
  -7   0  -3   67.02    1.42
  -7   0  -3   69.47    1.55
   7   0   3   65.95    2.72
   7   0   3   68.84    1.64
   7   0   3   66.26    1.25
   7   0   3   66.26    1.25
  -8   0  -3   -0.09    0.12
  -8   0  -3    0.42    0.21
  -8   0  -3   -0.09    0.12
   8   0   3    0.32    0.11
   8   0   3    0.32    0.11
   8   0   3    0.30    0.18
  -9   0  -3   20.90    0.79
  -9   0  -3   20.90    0.79
  -9   0  -3   19.86    0.87
   9   0   3   19.75    0.61
   9   0   3   20.19    0.93
   9   0   3   19.75    0.61
 -10   0  -3   47.23    1.32
 -10   0  -3   47.23    1.32
 -10   0  -3   46.11    1.44
  10   0   3   46.58    1.54
  10   0   3   45.09    1.05
  10   0   3   45.09    1.05
 -11   0  -3    5.87    0.58
 -11   0  -3    5.87    0.58
 -11   0  -3    5.71    0.64
  11   0   3    5.35    0.62
  11   0   3    6.05    0.37
  11   0   3    6.05    0.37
  10  -1  -3    2.28    0.21
  10  -1  -3    1.72    0.37
  10  -1  -3    2.62    0.23
  10  -1  -3    2.28    0.21
  10  -1  -3    2.67    0.38
  10  -1  -3    2.62    0.23
  10  -1  -3    2.67    0.38
 -10   1   3    2.63    0.45
 -10   1   3    1.85    0.34
 -10   1   3    1.85    0.34
   9  -1  -3   56.76    1.58
   9  -1  -3   54.26    1.44
   9  -1  -3   54.26    1.44
   9  -1  -3   56.94    1.09
   9  -1  -3   56.94    1.09
  -9   1   3   56.59    1.46
  -9   1   3   56.59    1.46
  -9   1   3   57.81    1.62
   8  -1  -3    1.23    0.15
   8  -1  -3    1.16    0.25
   8  -1  -3    1.23    0.15
   8  -1  -3    1.16    0.25
   8  -1  -3    1.38    0.27
  -8   1   3    1.73    0.28
  -8   1   3    1.73    0.28
  -8   1   3    1.41    0.28
   7  -1  -3  122.25    1.94
   7  -1  -3  121.04    2.36
   7  -1  -3  122.25    2.27
   7  -1  -3  122.25    1.94
   7  -1  -3  122.25    2.27
  -7   1   3  122.29    2.27
  -7   1   3  120.13    2.41
  -7   1   3  122.29    2.27
   6  -1  -3  135.52    2.91
   6  -1  -3  130.60    2.41
   6  -1  -3  131.91    2.07
   6  -1  -3  131.90    2.07
   6  -1  -3  134.51    2.36
   6  -1  -3  134.51    2.36
  -6   1   3  135.76    2.92
  -6   1   3  134.20    2.49
  -6   1   3  134.25    2.36
  -6   1   3  134.25    2.36
   5  -1  -3    0.05    0.13
   5  -1  -3    0.07    0.09
   5  -1  -3    0.12    0.06
   5  -1  -3    0.07    0.10
   5  -1  -3    0.12    0.06
   5  -1  -3    0.07    0.10
  -5   1   3    0.35    0.18
  -5   1   3    0.13    0.10
  -5   1   3    0.13    0.10
   4  -1  -3   10.17    0.56
   4  -1  -3    9.91    0.39
   4  -1  -3    9.96    0.28
   4  -1  -3    9.96    0.28
   4  -1  -3    9.91    0.39
   4  -1  -3   10.52    0.41
  -4   1   3    9.45    0.54
  -4   1   3   11.10    0.41
  -4   1   3   11.10    0.41
   3  -1  -3   88.98    1.83
   3  -1  -3   91.56    1.54
   3  -1  -3   90.13    1.37
   3  -1  -3   89.64    1.37
   3  -1  -3   89.64    1.37
   3  -1  -3   91.56    1.54
   3  -1  -3   90.13    1.37
   3  -1  -3   89.67    1.55
  -3   1   3   88.55    1.82
   1  -1  -3   49.53    1.05
   1  -1  -3   52.22    1.08
  -1   1   3   51.00    1.06
  -1   1   3   51.94    1.08
  -2  -1  -3   59.35    1.17
  -2  -1  -3   58.61    1.00
   2   1   3   57.37    1.15
   2   1   3   58.40    1.00
   2   1   3   62.19    1.51
   2   1   3   60.95    1.48
  -3  -1  -3  274.28    3.93
  -3  -1  -3  274.16    3.95
  -3  -1  -3  274.28    3.93
   3   1   3  266.34    4.37
   3   1   3  276.07    4.68
   3   1   3  273.46    3.94
   3   1   3  265.96    4.19
   3   1   3  273.08    3.98
  -4  -1  -3  168.25    2.56
  -4  -1  -3  168.25    2.56
  -4  -1  -3  169.35    2.57
   4   1   3  152.15    3.03
   4   1   3  165.96    2.52
   4   1   3  162.10    2.80
   4   1   3  169.02    2.53
   4   1   3  164.23    2.88
   4   1   3  169.34    3.35
  -5  -1  -3   -0.05    0.07
  -5  -1  -3   -0.14    0.06
  -5  -1  -3    0.15    0.11
  -5  -1  -3   -0.08    0.06
  -5  -1  -3   -0.05    0.07
   5   1   3   -0.13    0.05
   5   1   3    0.20    0.09
   5   1   3   -0.18    0.09
   5   1   3    0.02    0.13
   5   1   3    0.80    0.18
   5   1   3    0.20    0.09
  -6  -1  -3   12.67    0.47
  -6  -1  -3   13.70    0.49
  -6  -1  -3   12.70    0.52
  -6  -1  -3   12.67    0.47
  -6  -1  -3   13.31    0.52
   6   1   3   13.55    0.43
   6   1   3   13.84    0.72
   6   1   3   13.55    0.43
   6   1   3   13.33    0.40
   6   1   3   14.35    0.63
  -7  -1  -3    0.18    0.16
  -7  -1  -3    0.58    0.16
  -7  -1  -3    0.58    0.16
   7   1   3    0.39    0.09
   7   1   3    0.31    0.11
   7   1   3    0.26    0.18
   7   1   3    0.31    0.11
   7   1   3    0.11    0.15
  -8  -1  -3  177.39    3.06
  -8  -1  -3  181.56    3.21
  -8  -1  -3  177.39    3.06
   8   1   3  179.35    2.87
   8   1   3  184.23    3.41
   8   1   3  179.35    2.87
  -9  -1  -3   85.81    1.95
  -9  -1  -3   86.10    1.83
  -9  -1  -3   86.10    1.83
   9   1   3   84.83    2.11
   9   1   3   85.93    1.63
   9   1   3   85.93    1.63
 -10  -1  -3   87.87    1.94
 -10  -1  -3   91.05    2.11
 -10  -1  -3   87.87    1.94
  10   1   3   86.87    1.70
  10   1   3   88.66    2.26
  10   1   3   86.87    1.70
 -11  -1  -3    6.78    0.56
 -11  -1  -3    6.78    0.56
  11   1   3    6.61    0.41
  11   1   3    6.61    0.41
  10  -2  -3   51.12    0.89
  10  -2  -3   48.94    1.46
  10  -2  -3   51.12    0.89
  10  -2  -3   48.94    1.46
  10  -2  -3   50.78    1.57
 -10   2   3   51.64    1.48
 -10   2   3   51.64    1.48
 -10   2   3   51.27    1.64
   9  -2  -3    0.33    0.20
   9  -2  -3    0.22    0.09
   9  -2  -3    0.13    0.19
   9  -2  -3    0.22    0.09
   9  -2  -3    0.13    0.19
  -9   2   3    0.32    0.24
  -9   2   3    0.27    0.21
  -9   2   3    0.27    0.21
   8  -2  -3   11.74    0.35
   8  -2  -3   11.15    0.59
   8  -2  -3   12.44    0.64
   8  -2  -3   11.15    0.59
   8  -2  -3   11.74    0.35
  -8   2   3   11.77    0.61
  -8   2   3   11.77    0.61
  -8   2   3   12.36    0.70
   7  -2  -3    3.04    0.33
   7  -2  -3    3.32    0.18
   7  -2  -3    3.02    0.17
   7  -2  -3    3.32    0.18
   7  -2  -3    3.52    0.36
   7  -2  -3    3.52    0.36
   7  -2  -3    3.02    0.17
  -7   2   3    3.30    0.35
  -7   2   3    2.92    0.35
  -7   2   3    3.30    0.35
   6  -2  -3   27.38    0.82
   6  -2  -3   29.20    1.18
   6  -2  -3   28.34    0.56
   6  -2  -3   27.38    0.82
   6  -2  -3   27.94    0.56
   6  -2  -3   28.34    0.56
   6  -2  -3   28.47    0.83
   6  -2  -3   27.94    0.56
  -6   2   3   26.62    0.82
  -6   2   3   26.62    0.82
  -6   2   3   26.52    0.91
  -6   2   3   28.32    1.17
   5  -2  -3  127.37    2.23
   5  -2  -3  127.08    2.19
   5  -2  -3  126.22    1.88
   5  -2  -3  126.22    1.88
   5  -2  -3  127.37    2.23
   5  -2  -3  127.73    2.72
  -5   2   3  126.18    2.23
  -5   2   3  125.76    2.70
  -5   2   3  126.18    2.23
   4  -2  -3  819.08   11.99
   4  -2  -3  811.03   11.45
   4  -2  -3  816.66   11.39
   4  -2  -3  811.03   11.45
  -4   2   3  813.18   11.46
  -4   2   3  813.18   11.46
  -4   2   3  811.82   11.98
   3  -2  -3  586.85    8.81
   3  -2  -3  585.02    8.30
   3  -2  -3  600.36    8.39
   3  -2  -3  600.36    8.39
  -3   2   3  587.59    8.81
   2  -2  -3  116.85    2.19
   2  -2  -3  119.02    1.82
   2  -2  -3  119.37    1.91
   2  -2  -3  119.37    1.91
   2  -2  -3  118.92    1.75
  -2   2   3  116.38    2.19
   1  -2  -3   39.62    0.85
   1  -2  -3   38.99    0.95
   1  -2  -3   39.71    0.98
   1  -2  -3   39.62    0.85
  -1   2   3   38.71    0.94
  -1   2   3   38.96    0.98
   0  -2  -3   63.53    1.26
   0   2   3   60.86    1.76
   0   2   3   65.38    1.28
   0   2   3   63.80    1.25
   0   2   3   64.61    1.31
  -1  -2  -3    0.28    0.11
   1   2   3    0.12    0.13
   1   2   3    0.20    0.09
   1   2   3   -0.02    0.04
   1   2   3   -0.02    0.15
  -2  -2  -3   63.39    1.03
  -2  -2  -3   64.86    1.27
   2   2   3   64.32    1.08
   2   2   3   67.65    1.27
   2   2   3   64.67    1.69
   2   2   3   64.27    1.55
   3   2   3  961.51   13.51
  -4  -2  -3   90.95    1.53
  -4  -2  -3   92.78    2.06
  -4  -2  -3   92.43    1.56
  -4  -2  -3   88.34    1.54
  -4  -2  -3   90.95    1.53
   4   2   3   91.13    1.65
   4   2   3   90.90    2.24
   4   2   3   89.45    1.53
   4   2   3   90.00    2.00
   4   2   3   90.62    1.82
  -5  -2  -3  126.85    2.12
  -5  -2  -3  131.46    2.17
  -5  -2  -3  131.38    2.16
  -5  -2  -3  137.42    2.67
  -5  -2  -3  126.85    2.12
   5   2   3  126.97    2.50
   5   2   3  129.40    2.12
   5   2   3  130.13    2.07
   5   2   3  131.92    3.03
   5   2   3  130.13    2.07
   5   2   3  128.28    2.52
   5   2   3  135.66    2.42
   5   2   3  130.67    2.38
  -6  -2  -3  125.63    2.17
  -6  -2  -3  123.72    2.13
  -6  -2  -3  126.61    2.16
  -6  -2  -3  123.72    2.13
   6   2   3  126.81    2.09
   6   2   3  126.48    2.58
   6   2   3  124.94    2.05
   6   2   3  124.94    2.05
  -7  -2  -3    0.63    0.16
  -7  -2  -3    0.63    0.16
  -7  -2  -3    0.51    0.14
   7   2   3    0.33    0.18
   7   2   3    0.26    0.10
   7   2   3    0.05    0.08
   7   2   3    0.05    0.08
   7   2   3    0.28    0.18
  -8  -2  -3   12.21    0.55
  -8  -2  -3   12.14    0.54
  -8  -2  -3   12.46    0.60
  -8  -2  -3   12.14    0.54
   8   2   3   12.36    0.43
   8   2   3   13.07    0.70
   8   2   3   11.62    0.46
   8   2   3   11.62    0.46
  -9  -2  -3   41.43    1.12
  -9  -2  -3   41.43    1.12
   9   2   3   41.23    1.00
   9   2   3   41.23    1.00
 -10  -2  -3    0.36    0.19
 -10  -2  -3    0.36    0.19
  10   2   3    0.04    0.14
  10   2   3    0.04    0.14
 -11  -2  -3  158.74    3.03
 -11  -2  -3  158.74    3.03
  11   2   3  159.01    2.77
  11   2   3  159.01    2.77
  10  -3  -3   40.15    1.33
  10  -3  -3   40.15    1.33
  10  -3  -3   40.83    1.39
 -10   3   3   41.56    1.51
 -10   3   3   43.46    1.37
 -10   3   3   43.46    1.37
   9  -3  -3    2.35    0.37
   9  -3  -3    2.29    0.37
   9  -3  -3    2.29    0.37
  -9   3   3    2.45    0.44
  -9   3   3    2.69    0.40
  -9   3   3    2.69    0.40
   8  -3  -3   32.66    1.06
   8  -3  -3   30.27    1.02
   8  -3  -3   32.66    1.06
  -8   3   3   31.23    1.16
  -8   3   3   32.85    1.06
  -8   3   3   32.85    1.06
   7  -3  -3  117.75    2.29
   7  -3  -3  117.75    2.29
   7  -3  -3  113.69    2.23
  -7   3   3  116.56    2.46
  -7   3   3  116.33    2.29
  -7   3   3  116.33    2.29
   6  -3  -3   14.57    0.61
   6  -3  -3   14.14    0.56
   6  -3  -3   14.57    0.61
  -6   3   3   13.35    0.59
  -6   3   3   14.08    0.67
  -6   3   3   13.35    0.59
   5  -3  -3    4.35    0.28
   5  -3  -3    4.28    0.32
   5  -3  -3    4.28    0.32
   5  -3  -3    4.59    0.49
  -5   3   3    4.15    0.47
  -5   3   3    4.06    0.31
  -5   3   3    4.06    0.31
   4  -3  -3  161.08    2.65
   4  -3  -3  161.08    2.65
   4  -3  -3  157.54    3.11
   4  -3  -3  158.34    2.51
  -4   3   3  160.61    3.13
  -4   3   3  154.60    3.58
  -4   3   3  158.53    2.65
  -4   3   3  158.53    2.65
   3  -3  -3  185.58    3.34
   3  -3  -3  185.75    2.92
   3  -3  -3  188.17    2.76
   3  -3  -3  185.75    2.92
  -3   3   3  174.15    3.90
  -3   3   3  187.03    3.34
   2  -3  -3   91.09    1.41
   2  -3  -3   92.57    1.58
   2  -3  -3   89.92    1.87
   2  -3  -3   92.57    1.58
  -2   3   3   85.80    2.40
  -2   3   3   89.79    1.87
   1  -3  -3  179.06    2.77
   1  -3  -3  186.35    3.08
   1  -3  -3  179.06    2.77
   1  -3  -3  184.51    2.57
   1  -3  -3  184.56    2.62
  -1   3   3  180.19    3.81
  -1   3   3  186.94    3.09
   0  -3  -3  354.37    5.02
   0  -3  -3  354.37    5.02
   0   3   3  347.47    6.14
   0   3   3  350.92    5.22
   0   3   3  346.47    5.26
  -1  -3  -3  202.71    3.91
  -1  -3  -3  205.34    3.25
   1   3   3  201.40    3.36
   1   3   3  197.24    3.95
   1   3   3  195.89    3.16
  -2  -3  -3  137.51    2.07
  -2  -3  -3  138.84    2.97
  -2  -3  -3  137.51    2.07
   2   3   3  133.47    2.61
   2   3   3  133.99    2.01
   2   3   3  134.54    2.97
   2   3   3  133.26    2.28
  -3  -3  -3  335.44    4.83
  -3  -3  -3  343.21    4.88
  -3  -3  -3  343.21    4.88
  -3  -3  -3  343.57    5.88
   3   3   3  338.01    5.15
   3   3   3  344.99    5.70
   3   3   3  342.96    5.87
  -4  -3  -3  236.57    3.48
  -4  -3  -3  234.10    3.48
  -4  -3  -3  234.10    3.48
  -4  -3  -3  230.00    4.36
  -4  -3  -3  238.09    3.47
   4   3   3  230.46    4.31
   4   3   3  235.38    4.40
   4   3   3  235.69    3.52
   4   3   3  240.12    3.83
  -5  -3  -3  202.47    3.13
  -5  -3  -3  203.50    3.96
  -5  -3  -3  202.47    3.13
  -5  -3  -3  207.44    3.15
  -5  -3  -3  204.17    3.14
   5   3   3  204.72    3.16
   5   3   3  202.74    3.87
   5   3   3  206.82    4.17
   5   3   3  203.91    3.53
  -6  -3  -3  103.29    1.78
  -6  -3  -3  105.48    1.85
  -6  -3  -3  105.32    1.86
  -6  -3  -3  103.29    1.78
  -6  -3  -3  106.75    1.87
  -6  -3  -3  105.48    1.85
   6   3   3  105.77    1.86
   6   3   3  107.07    2.28
  -7  -3  -3   59.12    1.25
  -7  -3  -3   59.12    1.25
  -7  -3  -3   58.56    1.27
  -7  -3  -3   58.05    1.26
   7   3   3   59.80    1.24
   7   3   3   58.23    1.18
   7   3   3   58.23    1.18
   7   3   3   57.90    1.65
  -8  -3  -3  132.30    2.37
  -8  -3  -3  127.34    2.32
  -8  -3  -3  127.34    2.32
   8   3   3  128.87    2.25
   8   3   3  131.31    2.23
   8   3   3  131.31    2.23
  -9  -3  -3    2.12    0.29
  -9  -3  -3    2.12    0.29
  -9  -3  -3    1.49    0.27
   9   3   3    2.16    0.25
   9   3   3    1.62    0.23
   9   3   3    1.62    0.23
 -10  -3  -3   23.75    0.87
 -10  -3  -3   25.47    0.91
 -10  -3  -3   23.75    0.87
  10   3   3   24.35    0.78
  10   3   3   24.35    0.78
 -11  -3  -3    1.09    0.29
 -11  -3  -3    0.92    0.27
 -11  -3  -3    1.09    0.29
  11   3   3    1.05    0.23
  11   3   3    1.05    0.23
   9  -4  -3   22.20    0.93
   9  -4  -3   23.49    0.96
   9  -4  -3   23.49    0.96
  -9   4   3   21.82    1.06
  -9   4   3   22.43    0.96
  -9   4   3   22.43    0.96
   8  -4  -3    1.11    0.27
   8  -4  -3    1.45    0.27
   8  -4  -3    1.11    0.27
  -8   4   3    2.02    0.34
  -8   4   3    2.03    0.38
  -8   4   3    2.02    0.34
   7  -4  -3   93.87    1.90
   7  -4  -3   93.38    2.00
   7  -4  -3   93.38    2.00
  -7   4   3   94.57    2.01
  -7   4   3   94.57    2.01
  -7   4   3   92.05    2.15
   6  -4  -3   -0.09    0.12
   6  -4  -3    0.25    0.12
   6  -4  -3   -0.09    0.12
  -6   4   3   -0.11    0.14
  -6   4   3    0.18    0.15
  -6   4   3    0.18    0.15
   5  -4  -3  180.95    3.67
   5  -4  -3  179.47    3.06
   5  -4  -3  179.21    2.88
   5  -4  -3  179.47    3.06
  -5   4   3  180.14    3.06
  -5   4   3  180.14    3.06
  -5   4   3  179.27    3.22
  -5   4   3  179.52    3.67
   4  -4  -3    1.26    0.20
   4  -4  -3    1.26    0.20
   4  -4  -3    1.24    0.15
   4  -4  -3    1.00    0.25
  -4   4   3    1.00    0.18
  -4   4   3    1.10    0.27
  -4   4   3    1.00    0.18
   3  -4  -3    6.45    0.34
   3  -4  -3    7.08    0.25
   3  -4  -3    7.04    0.50
   3  -4  -3    6.45    0.34
  -3   4   3    6.35    0.65
  -3   4   3    6.88    0.50
   2  -4  -3   11.80    0.59
   2  -4  -3   11.72    0.43
   2  -4  -3   11.72    0.43
   2  -4  -3   12.27    0.28
  -2   4   3   11.53    0.85
  -2   4   3   12.27    0.61
   1  -4  -3   33.35    0.52
   1  -4  -3   31.57    0.95
   1  -4  -3   32.28    0.73
   1  -4  -3   32.28    0.73
   1  -4  -3   33.35    0.55
  -1   4   3   33.25    1.42
  -1   4   3   33.87    0.97
   0  -4  -3  151.06    2.18
   0  -4  -3  152.18    2.38
   0  -4  -3  152.18    2.38
   0  -4  -3  156.24    3.46
   0  -4  -3  151.03    2.23
   0   4   3  153.99    3.50
   0   4   3  156.88    2.55
   0   4   3  153.13    2.66
  -1  -4  -3  139.92    2.17
  -1  -4  -3  142.85    3.24
  -1  -4  -3  138.61    2.14
  -1  -4  -3  139.92    2.17
   1   4   3  139.10    3.26
   1   4   3  139.83    2.54
   1   4   3  138.87    2.41
  -2  -4  -3    7.75    0.67
  -2  -4  -3    8.43    0.23
  -2  -4  -3    8.46    0.30
  -2  -4  -3    8.46    0.30
  -2  -4  -3    8.43    0.23
  -2  -4  -3    7.69    0.32
   2   4   3    7.74    0.21
   2   4   3    7.73    0.51
   2   4   3    7.25    0.38
   2   4   3    7.67    0.67
  -3  -4  -3   44.61    0.75
  -3  -4  -3   43.41    0.79
  -3  -4  -3   43.67    1.59
  -3  -4  -3   43.41    0.79
  -3  -4  -3   45.03    0.86
  -3  -4  -3   45.03    0.86
  -3  -4  -3   44.59    0.97
   3   4   3   44.26    1.38
   3   4   3   45.11    1.06
   3   4   3   43.91    1.59
  -4  -4  -3  305.70    4.44
  -4  -4  -3  305.70    4.44
  -4  -4  -3  303.97    4.29
  -4  -4  -3  299.05    4.38
  -4  -4  -3  309.21    4.67
  -4  -4  -3  311.61    5.71
  -4  -4  -3  299.53    4.37
  -4  -4  -3  295.46    4.28
  -4  -4  -3  299.53    4.37
   4   4   3  302.65    5.58
   4   4   3  307.54    4.78
   4   4   3  311.80    5.46
  -5  -4  -3  207.93    4.38
  -5  -4  -3  213.44    3.21
  -5  -4  -3  215.81    3.25
  -5  -4  -3  213.44    3.21
  -5  -4  -3  217.98    3.55
  -5  -4  -3  219.53    3.27
  -5  -4  -3  214.40    3.21
  -5  -4  -3  219.53    3.27
   5   4   3  209.63    4.28
   5   4   3  208.56    3.31
   5   4   3  211.99    3.66
   5   4   3  213.18    4.35
  -6  -4  -3   57.89    1.12
  -6  -4  -3   57.89    1.12
  -6  -4  -3   57.51    1.15
  -6  -4  -3   56.82    1.92
  -6  -4  -3   56.98    1.17
  -6  -4  -3   56.76    1.16
  -6  -4  -3   56.76    1.16
   6   4   3   57.69    1.52
   6   4   3   56.42    1.20
  -7  -4  -3  146.76    2.52
  -7  -4  -3  150.79    2.52
  -7  -4  -3  150.79    2.52
  -7  -4  -3  149.70    2.54
   7   4   3  148.85    3.04
   7   4   3  149.18    2.55
   7   4   3  147.51    2.80
   7   4   3  147.51    2.80
  -8  -4  -3    2.09    0.25
  -8  -4  -3    2.09    0.25
  -8  -4  -3    1.55    0.23
   8   4   3    1.90    0.22
   8   4   3    1.90    0.22
   8   4   3    1.83    0.25
  -9  -4  -3   35.67    1.01
  -9  -4  -3   35.67    1.01
  -9  -4  -3   36.35    1.04
   9   4   3   36.30    0.97
   9   4   3   35.84    0.95
   9   4   3   35.84    0.95
 -10  -4  -3   38.86    1.13
 -10  -4  -3   38.86    1.13
 -10  -4  -3   40.09    1.16
  10   4   3   38.53    1.01
  10   4   3   38.69    1.04
  10   4   3   38.69    1.04
 -11  -4  -3   24.11    0.91
 -11  -4  -3   22.78    0.92
 -11  -4  -3   24.11    0.91
  11   4   3   22.97    0.81
  11   4   3   22.97    0.81
   9  -5  -3    0.99    0.31
   9  -5  -3    1.07    0.27
   9  -5  -3    0.99    0.31
  -9   5   3    1.34    0.34
  -9   5   3    1.34    0.34
  -9   5   3    1.59    0.39
   8  -5  -3    0.78    0.22
   8  -5  -3    0.44    0.25
   8  -5  -3    0.44    0.25
  -8   5   3    0.85    0.29
  -8   5   3    0.85    0.29
  -8   5   3    0.75    0.31
   7  -5  -3   10.12    0.51
   7  -5  -3   10.13    0.59
   7  -5  -3   10.13    0.59
  -7   5   3   10.06    0.67
  -7   5   3    9.80    0.59
  -7   5   3    9.80    0.59
   6  -5  -3   -0.14    0.14
   6  -5  -3   -0.14    0.14
   6  -5  -3    0.02    0.10
  -6   5   3   -0.08    0.14
  -6   5   3   -0.08    0.14
  -6   5   3   -0.11    0.16
   5  -5  -3   61.53    1.22
   5  -5  -3   62.78    1.43
   5  -5  -3   62.78    1.43
  -5   5   3   59.64    1.41
  -5   5   3   62.21    1.56
  -5   5   3   59.64    1.41
   4  -5  -3   44.74    0.88
   4  -5  -3   43.76    1.09
   4  -5  -3   44.68    1.47
   4  -5  -3   43.76    1.09
  -4   5   3   43.31    1.19
  -4   5   3   44.77    1.48
  -4   5   3   44.08    1.10
  -4   5   3   44.08    1.10
   3  -5  -3  151.61    3.02
   3  -5  -3  152.18    2.21
   3  -5  -3  147.39    2.53
   3  -5  -3  147.39    2.53
  -3   5   3  146.55    2.53
  -3   5   3  149.94    3.02
  -3   5   3  146.55    2.53
   2  -5  -3  132.57    2.66
   2  -5  -3  134.12    2.26
   2  -5  -3  134.12    2.26
  -2   5   3  135.35    2.69
   1  -5  -3   12.31    0.43
   1  -5  -3   12.03    0.58
   1  -5  -3   12.31    0.43
   1  -5  -3   12.99    0.93
  -1   5   3   12.74    0.60
   0  -5  -3   25.80    0.63
   0  -5  -3   25.80    0.63
   0  -5  -3   25.22    0.49
   0  -5  -3   25.25    1.29
   0   5   3   25.90    0.82
   0   5   3   24.74    0.71
  -1  -5  -3  153.79    3.63
  -1  -5  -3  153.17    2.37
  -1  -5  -3  150.79    2.32
  -1  -5  -3  153.17    2.37
   1   5   3  149.88    2.64
   1   5   3  150.14    2.74
  -2  -5  -3    6.52    0.66
  -2  -5  -3    5.69    0.27
  -2  -5  -3    5.55    0.25
  -2  -5  -3    5.55    0.25
  -2  -5  -3    6.44    0.19
  -2  -5  -3    6.44    0.19
   2   5   3    5.76    0.44
   2   5   3    5.72    0.35
  -3  -5  -3  744.76   11.92
  -3  -5  -3  724.83   10.07
  -3  -5  -3  731.85   10.19
  -3  -5  -3  724.83   10.07
  -3  -5  -3  731.85   10.19
  -3  -5  -3  722.74   10.35
   3   5   3  725.09   10.51
   3   5   3  747.16   11.16
  -4  -5  -3   -0.06    0.20
   4   5   3    1.63    0.39
  -5  -5  -3  497.07    6.98
  -5  -5  -3  489.30    6.92
  -5  -5  -3  477.55    6.90
  -5  -5  -3  484.82    8.59
  -5  -5  -3  489.30    6.92
  -5  -5  -3  497.07    6.98
  -5  -5  -3  487.57    7.30
   5   5   3  493.41    7.43
   5   5   3  480.05    7.04
   5   5   3  484.51    8.30
  -6  -5  -3   55.01    1.37
  -6  -5  -3   53.68    1.10
  -6  -5  -3   55.73    1.13
  -6  -5  -3   52.70    2.02
  -6  -5  -3   53.68    1.08
  -6  -5  -3   55.73    1.13
  -6  -5  -3   53.68    1.08
   6   5   3   55.33    1.47
   6   5   3   53.46    1.18
  -7  -5  -3   61.60    1.24
  -7  -5  -3   61.85    1.28
  -7  -5  -3   61.07    1.28
  -7  -5  -3   61.85    1.28
  -7  -5  -3   62.96    1.60
  -7  -5  -3   61.60    1.24
   7   5   3   61.84    1.69
   7   5   3   61.33    1.34
  -8  -5  -3   20.02    0.69
  -8  -5  -3   20.69    0.68
  -8  -5  -3   20.69    0.68
   8   5   3   20.72    0.72
  -9  -5  -3    3.28    0.34
  -9  -5  -3    2.86    0.33
  -9  -5  -3    3.28    0.34
   9   5   3    2.37    0.29
 -10  -5  -3    0.22    0.18
 -10  -5  -3    0.27    0.18
 -10  -5  -3    0.22    0.18
  10   5   3    0.06    0.14
 -11  -5  -3  111.05    2.33
 -11  -5  -3  110.84    2.29
 -11  -5  -3  110.84    2.29
   8  -6  -3   19.88    0.79
   8  -6  -3   17.99    0.86
   8  -6  -3   17.99    0.86
  -8   6   3   21.13    1.04
  -8   6   3   19.87    0.90
  -8   6   3   19.87    0.90
   7  -6  -3   44.08    1.31
   7  -6  -3   45.78    1.16
   7  -6  -3   44.08    1.31
  -7   6   3   46.40    1.34
  -7   6   3   45.59    1.48
  -7   6   3   46.40    1.34
   6  -6  -3    5.48    0.34
   6  -6  -3    4.70    0.44
   6  -6  -3    4.70    0.44
  -6   6   3    4.21    0.41
  -6   6   3    4.21    0.41
  -6   6   3    5.85    0.52
   5  -6  -3   13.44    0.62
   5  -6  -3   13.44    0.62
   5  -6  -3   13.15    0.45
  -5   6   3   11.41    0.58
  -5   6   3   12.91    0.68
  -5   6   3   11.41    0.58
   4  -6  -3  108.81    1.75
   4  -6  -3  111.45    2.11
   4  -6  -3  111.45    2.11
  -4   6   3  105.64    2.22
  -4   6   3  108.56    2.10
  -4   6   3  108.56    2.10
   3  -6  -3   38.10    1.32
   3  -6  -3   38.84    0.99
   3  -6  -3   38.84    0.99
  -3   6   3   38.83    1.34
  -3   6   3   37.98    0.99
  -3   6   3   37.98    0.99
   2  -6  -3  238.65    4.27
   2  -6  -3  240.60    3.79
   2  -6  -3  240.60    3.79
  -2   6   3  247.85    4.33
   1  -6  -3   81.62    2.66
   1  -6  -3   82.62    1.54
   1  -6  -3   83.54    1.88
   1  -6  -3   82.62    1.54
  -1   6   3   79.02    1.41
  -1   6   3   82.69    1.89
   0  -6  -3    0.48    0.12
   0  -6  -3    0.82    0.09
   0  -6  -3    0.48    0.12
   0  -6  -3    0.58    0.32
   0  -6  -3    0.64    0.08
   0   6   3    0.58    0.18
   0   6   3    0.96    0.17
  -1  -6  -3  273.32    4.09
  -1  -6  -3  290.23    4.19
  -1  -6  -3  274.88    5.79
  -1  -6  -3  290.23    4.19
   1   6   3  281.64    4.60
   1   6   3  280.20    4.52
  -2  -6  -3   69.52    1.26
  -2  -6  -3   67.39    1.03
  -2  -6  -3   67.39    1.03
  -2  -6  -3   67.18    1.28
  -2  -6  -3   69.07    2.40
  -2  -6  -3   69.52    1.26
   2   6   3   68.50    1.74
   2   6   3   66.12    1.48
  -3  -6  -3   30.59    1.56
  -3  -6  -3   31.27    0.70
  -3  -6  -3   29.88    0.59
  -3  -6  -3   31.27    0.70
  -3  -6  -3   29.88    0.59
  -3  -6  -3   29.61    0.79
   3   6   3   30.07    0.89
   3   6   3   32.18    1.21
  -4  -6  -3   98.85    1.67
  -4  -6  -3   97.69    1.87
  -4  -6  -3   98.85    1.67
  -4  -6  -3   94.15    1.56
  -4  -6  -3   98.54    3.00
  -4  -6  -3   94.15    1.56
   4   6   3   98.44    2.53
   4   6   3   96.25    1.95
  -5  -6  -3    0.29    0.07
  -5  -6  -3    0.02    0.09
  -5  -6  -3    0.15    0.13
  -5  -6  -3    0.31    0.09
  -5  -6  -3    0.02    0.24
  -5  -6  -3    0.31    0.09
  -5  -6  -3    0.02    0.09
   5   6   3    0.13    0.14
  -6  -6  -3  186.26    2.89
  -6  -6  -3  186.26    2.89
  -6  -6  -3  181.11    4.69
  -6  -6  -3  185.70    2.96
  -6  -6  -3  189.13    2.86
  -6  -6  -3  184.24    3.31
  -6  -6  -3  185.70    2.96
   6   6   3  182.50    3.05
   6   6   3  190.60    3.43
  -7  -6  -3  113.30    1.99
  -7  -6  -3  108.16    1.92
  -7  -6  -3  113.30    1.99
  -7  -6  -3  108.16    1.92
  -7  -6  -3  106.31    1.92
   7   6   3  111.23    2.09
   7   6   3  112.80    2.48
  -8  -6  -3   21.24    0.69
  -8  -6  -3   22.14    0.69
  -8  -6  -3   21.45    0.67
  -8  -6  -3   21.24    0.69
  -8  -6  -3   21.45    0.67
   8   6   3   22.09    0.77
  -9  -6  -3   15.63    0.62
  -9  -6  -3   15.63    0.62
  -9  -6  -3   14.46    0.60
   9   6   3   13.91    0.64
 -10  -6  -3    5.91    0.45
 -10  -6  -3    5.71    0.44
 -10  -6  -3    5.91    0.45
  10   6   3    5.31    0.43
 -11  -6  -3   30.13    1.01
 -11  -6  -3   29.93    1.02
 -11  -6  -3   30.13    1.01
  11   6   3   31.80    1.01
   7  -7  -3   21.64    0.93
   7  -7  -3   21.64    0.93
   7  -7  -3   22.14    0.76
  -7   7   3   22.71    1.07
  -7   7   3   22.71    0.94
  -7   7   3   22.71    0.94
   6  -7  -3    5.99    0.54
   6  -7  -3    6.61    0.37
   6  -7  -3    5.99    0.54
  -6   7   3    5.96    0.49
  -6   7   3    6.51    0.58
  -6   7   3    5.96    0.49
   5  -7  -3   68.05    1.27
   5  -7  -3   66.74    1.59
   5  -7  -3   66.74    1.59
  -5   7   3   67.29    1.60
  -5   7   3   68.65    1.76
  -5   7   3   67.29    1.60
   4  -7  -3   10.74    0.33
   4  -7  -3   10.35    0.55
   4  -7  -3   10.35    0.55
  -4   7   3   10.61    0.55
  -4   7   3   10.61    0.55
  -4   7   3    9.55    0.58
   3  -7  -3    1.51    0.24
   3  -7  -3    1.54    0.35
   3  -7  -3    1.51    0.24
  -3   7   3    1.76    0.37
  -3   7   3    1.40    0.23
  -3   7   3    1.40    0.23
  -3   7   3    1.62    0.28
   2  -7  -3   21.38    0.69
   2  -7  -3   21.38    0.69
   2  -7  -3   21.94    0.95
  -2   7   3   20.99    0.95
   1  -7  -3  395.08    6.35
   1  -7  -3  396.79    5.87
   1  -7  -3  396.79    5.87
  -1   7   3  393.60    6.40
   0  -7  -3   34.29    0.84
   0  -7  -3   34.27    0.66
   0  -7  -3   34.29    0.84
   0   7   3   35.44    1.11
   0   7   3   34.33    0.93
  -1  -7  -3   47.39    1.01
  -1  -7  -3   47.45    0.93
  -1  -7  -3   47.39    1.01
   1   7   3   47.79    1.27
   1   7   3   49.48    1.32
  -2  -7  -3   49.13    1.02
  -2  -7  -3   49.38    1.04
  -2  -7  -3   49.13    1.02
   2   7   3   49.78    1.47
   2   7   3   49.74    1.26
  -3  -7  -3  349.39    5.35
  -3  -7  -3  359.91    5.22
  -3  -7  -3  356.64    5.00
  -3  -7  -3  359.91    5.22
  -3  -7  -3  356.64    5.00
   3   7   3  361.20    5.57
   3   7   3  358.31    6.18
  -4  -7  -3    1.78    0.19
  -4  -7  -3    1.08    0.20
  -4  -7  -3    1.61    0.14
  -4  -7  -3    1.61    0.14
  -4  -7  -3    1.78    0.19
   4   7   3    1.42    0.37
   4   7   3    1.13    0.22
  -5  -7  -3  116.68    1.97
  -5  -7  -3  114.43    1.87
  -5  -7  -3  118.58    2.27
  -5  -7  -3  114.43    1.87
  -5  -7  -3  116.68    1.97
   5   7   3  111.94    2.30
  -6  -7  -3   57.78    1.18
  -6  -7  -3   57.48    1.48
  -6  -7  -3   57.93    1.14
  -6  -7  -3   57.40    0.94
  -6  -7  -3   57.78    1.18
  -6  -7  -3   57.93    1.14
   6   7   3   56.49    1.52
  -7  -7  -3   52.38    1.04
  -7  -7  -3   52.74    1.41
  -7  -7  -3   53.28    1.12
  -7  -7  -3   52.74    1.41
  -7  -7  -3   53.28    1.12
  -7  -7  -3   53.97    1.49
   7   7   3   53.11    1.55
  -8  -7  -3   97.52    1.76
  -8  -7  -3   94.38    1.79
  -8  -7  -3   94.38    1.79
   8   7   3   97.82    1.99
  -9  -7  -3   12.95    0.55
  -9  -7  -3   13.07    0.56
  -9  -7  -3   13.07    0.56
   9   7   3   12.70    0.63
 -10  -7  -3   10.13    0.53
  10   7   3    9.63    0.57
 -11  -7  -3   28.42    0.95
  11   7   3   27.17    0.98
   6  -8  -3   18.12    0.82
   6  -8  -3   18.72    0.60
   6  -8  -3   18.12    0.82
  -6   8   3   18.37    0.84
  -6   8   3   18.37    0.84
  -6   8   3   18.55    0.95
   5  -8  -3   18.46    0.79
   5  -8  -3   18.54    0.52
   5  -8  -3   18.46    0.79
  -5   8   3   17.26    0.86
  -5   8   3   17.59    0.77
  -5   8   3   17.59    0.77
   4  -8  -3   73.36    1.67
   4  -8  -3   73.36    1.67
  -4   8   3   73.25    1.66
  -4   8   3   73.25    1.66
  -4   8   3   70.92    1.78
   3  -8  -3   54.18    1.33
   3  -8  -3   54.18    1.33
  -3   8   3   54.57    1.33
  -3   8   3   58.65    1.47
  -3   8   3   54.57    1.33
   2  -8  -3    8.79    0.47
   2  -8  -3    8.79    0.47
  -2   8   3    9.05    0.47
  -2   8   3    9.05    0.47
  -2   8   3   10.02    0.54
   1  -8  -3   61.81    1.32
   1  -8  -3   61.81    1.32
  -1   8   3   58.41    2.06
   0  -8  -3   31.05    0.99
   0  -8  -3   31.05    0.99
   0  -8  -3   29.69    0.62
   0   8   3   29.61    1.17
   0   8   3   30.12    0.89
  -1  -8  -3    1.15    0.15
   1   8   3    1.37    0.27
   1   8   3    1.13    0.27
  -2  -8  -3   49.88    1.07
   2   8   3   48.62    1.52
   2   8   3   50.98    1.58
  -3  -8  -3  249.79    3.46
  -3  -8  -3  249.79    3.46
  -3  -8  -3  245.27    3.93
  -4  -8  -3  102.18    1.62
  -4  -8  -3  102.18    1.62
  -4  -8  -3  103.03    2.02
  -5  -8  -3  242.27    4.05
  -5  -8  -3  239.34    3.57
  -5  -8  -3  239.34    3.57
  -6  -8  -3   16.30    0.74
  -6  -8  -3   16.54    0.51
  -6  -8  -3   16.54    0.51
  -7  -8  -3   63.61    1.68
  -7  -8  -3   61.86    1.26
  -7  -8  -3   61.86    1.26
  -8  -8  -3   64.18    1.35
  -8  -8  -3   63.33    1.16
  -8  -8  -3   64.18    1.35
  -9  -8  -3   -0.18    0.17
  -9  -8  -3    0.22    0.15
  -9  -8  -3   -0.18    0.17
   9   8   3    0.00    0.18
 -10  -8  -3   16.26    0.68
 -10  -8  -3   17.03    0.63
 -10  -8  -3   16.26    0.68
  10   8   3   17.39    0.79
 -11  -8  -3   48.62    1.24
  11   8   3   50.14    1.43
  -5   9   3   43.99    1.45
  -4   9   3    3.75    0.47
   0  -9  -3  161.95    2.49
  -1  -9  -3   23.03    0.62
  -2  -9  -3   16.04    0.56
  -3  -9  -3   31.50    0.89
  -4  -9  -3   18.00    0.71
  -4  -9  -3   18.96    0.42
  -4  -9  -3   18.96    0.42
  -5  -9  -3    0.14    0.07
  -5  -9  -3    0.14    0.07
  -5  -9  -3    0.30    0.16
  -6  -9  -3   22.94    0.61
  -6  -9  -3   22.94    0.61
  -6  -9  -3   23.50    0.92
  -7  -9  -3   12.83    0.74
  -7  -9  -3   12.32    0.47
  -7  -9  -3   12.32    0.47
  -8  -9  -3   99.32    1.85
  -8  -9  -3   99.32    1.85
  -9  -9  -3    0.09    0.15
  -9  -9  -3    0.09    0.15
 -10  -9  -3   67.05    1.52
 -10  -9  -3   67.05    1.52
  10   9   3   66.32    1.72
   0 -10  -3   35.37    0.78
  -1 -10  -3   14.81    0.51
  -2 -10  -3   19.12    0.64
  -3 -10  -3   27.26    0.85
  -4 -10  -3    7.21    0.47
  -5 -10  -3   10.71    0.33
  -5 -10  -3   10.54    0.61
  -5 -10  -3   10.71    0.33
  -6 -10  -3    1.12    0.16
  -6 -10  -3    1.12    0.16
  -6 -10  -3    1.18    0.28
  -7 -10  -3    1.28    0.18
  -7 -10  -3    1.50    0.33
  -7 -10  -3    1.28    0.18
  -8 -10  -3   22.91    1.07
  -8 -10  -3   24.20    0.72
  -8 -10  -3   24.20    0.72
  -9 -10  -3    4.44    0.38
  -9 -10  -3    4.44    0.38
   0 -11  -3    1.01    0.15
  -1 -11  -3    3.20    0.27
  -2 -11  -3    0.84    0.19
  -3 -11  -3   11.69    0.57
  -4 -11  -3    6.84    0.48
  -5 -11  -3   30.74    1.07
  -6 -11  -3    0.84    0.27
  -6 -11  -3    0.42    0.10
  -6 -11  -3    0.42    0.10
  -7 -11  -3    0.25    0.12
  -7 -11  -3    0.25    0.12
  -7 -11  -3    0.06    0.20
  -8 -11  -3    0.34    0.15
  -8 -11  -3    0.34    0.15
  -8 -11  -3    0.01    0.23
  -9 -11  -3    0.14    0.17
  -9 -11  -3    0.14    0.17
   0 -12  -3  115.75    1.98
  -1 -12  -3   18.08    0.63
  -2 -12  -3   76.20    1.63
  -3 -12  -3   49.56    1.31
  -4 -12  -3    0.08    0.17
  -5 -12  -3    0.14    0.19
  -6 -12  -3    7.24    0.60
  -7 -12  -3    4.46    0.25
  -7 -12  -3    4.42    0.57
  -7 -12  -3    4.46    0.25
  -3 -13  -3   36.59    1.13
  -4 -13  -3    4.81    0.46
  -6 -11   4   24.67    0.69
  -6 -11   4   25.03    1.17
  -6 -11   4   24.67    0.69
  -5 -11   4   14.15    0.46
  -5 -11   4   16.12    0.91
  -5 -11   4   14.15    0.46
  -4 -11   4    5.88    0.58
  -4 -11   4    5.01    0.21
  -4 -11   4    5.01    0.21
  -3 -11   4    6.53    0.58
  -2 -11   4    1.55    0.33
  -1 -11   4   10.91    0.66
   0 -11   4    0.18    0.20
  -8 -10   4    5.17    0.43
  -8 -10   4    5.17    0.43
  -7 -10   4    0.88    0.20
  -7 -10   4    0.88    0.20
  -6 -10   4   20.38    0.64
  -6 -10   4   20.38    0.64
  -6 -10   4   21.61    1.05
  -5 -10   4   45.04    0.98
  -5 -10   4   45.64    1.48
  -5 -10   4   45.04    0.98
  -4 -10   4    8.52    0.33
  -4 -10   4    8.52    0.33
  -4 -10   4    8.71    0.64
  -3 -10   4   12.53    0.33
  -3 -10   4   13.12    0.73
  -3 -10   4   12.53    0.33
  -2 -10   4   28.49    1.04
  -1 -10   4   24.66    0.93
   0 -10   4   24.30    0.90
   1 -10   4    3.11    0.36
   2 -10   4    3.07    0.38
   3 -10   4    7.80    0.53
  -9  -9   4    4.89    0.42
  -9  -9   4    4.89    0.42
  -8  -9   4    0.04    0.14
  -8  -9   4    0.04    0.14
  -7  -9   4   76.83    1.57
  -7  -9   4   76.83    1.57
  -6  -9   4  100.31    2.41
  -6  -9   4   99.94    1.85
  -6  -9   4   99.94    1.85
  -5  -9   4    3.06    0.26
  -5  -9   4    3.06    0.26
  -5  -9   4    2.51    0.40
  -4  -9   4  315.14    5.30
  -4  -9   4  314.69    4.63
  -4  -9   4  314.69    4.63
  -3  -9   4   23.57    0.56
  -3  -9   4   24.32    0.94
  -3  -9   4   23.57    0.56
  -2  -9   4   19.19    0.41
  -2  -9   4   19.19    0.41
  -2  -9   4   19.42    0.80
  -1  -9   4   59.03    1.48
   0  -9   4   12.50    0.62
   1  -9   4   65.43    1.55
   2  -9   4    0.01    0.14
   3  -9   4    1.41    0.27
   4  -9   4   15.84    0.73
 -10  -8   4    7.72    0.47
  -9  -8   4    3.22    0.36
  -9  -8   4    3.87    0.32
  -9  -8   4    3.22    0.36
  -8  -8   4    0.59    0.18
  -8  -8   4    0.16    0.11
  -8  -8   4    0.59    0.18
  -7  -8   4   40.09    1.01
  -7  -8   4   40.09    1.01
  -6  -8   4    6.55    0.37
  -6  -8   4    6.55    0.37
  -6  -8   4    7.78    0.62
  -5  -8   4  257.55    3.99
  -5  -8   4  269.92    4.61
  -5  -8   4  257.55    3.99
  -4  -8   4  185.69    2.88
  -4  -8   4  182.42    3.41
  -4  -8   4  185.69    2.88
  -3  -8   4   59.69    1.51
  -3  -8   4   59.34    1.10
  -3  -8   4   59.34    1.10
  -2  -8   4   23.78    1.27
  -2  -8   4   23.06    0.53
  -2  -8   4   23.06    0.53
  -2  -8   4   22.77    0.84
  -1  -8   4    1.62    0.26
  -1  -8   4    1.37    0.10
  -1  -8   4    1.37    0.10
   0  -8   4   21.18    0.76
   1  -8   4   31.26    0.94
   2  -8   4    1.04    0.22
   3  -8   4   86.03    1.85
   4  -8   4   17.76    0.75
   5  -8   4   37.83    1.17
 -10  -7   4    5.97    0.45
  -9  -7   4    1.07    0.22
  -8  -7   4   11.60    0.51
  -8  -7   4   11.60    0.54
  -8  -7   4   11.60    0.54
  -7  -7   4   53.66    1.22
  -7  -7   4   53.66    1.22
  -7  -7   4   54.67    1.16
  -6  -7   4   12.75    0.49
  -6  -7   4   12.23    0.42
  -6  -7   4   12.75    0.49
  -6  -7   4   13.31    0.89
  -5  -7   4   44.74    0.99
  -5  -7   4   44.74    0.99
  -5  -7   4   45.03    1.34
  -4  -7   4  185.52    2.92
  -4  -7   4  190.51    3.40
  -4  -7   4  185.52    2.92
   3   7  -4   54.33    1.19
  -3  -7   4   56.13    1.06
  -3  -7   4   56.13    1.06
  -3  -7   4   56.21    1.74
  -3  -7   4   54.60    1.39
  -2  -7   4   97.40    2.01
  -2  -7   4  101.99    1.64
  -2  -7   4  101.71    2.46
  -2  -7   4  101.99    1.64
  -1  -7   4    0.59    0.18
  -1  -7   4    0.57    0.09
  -1  -7   4    0.43    0.21
  -1  -7   4    0.57    0.09
   0  -7   4    0.14    0.04
   0  -7   4    0.17    0.12
   0  -7   4    0.14    0.04
   1  -7   4   35.65    0.97
   2  -7   4    0.04    0.12
   3  -7   4   74.12    1.63
   4  -7   4   12.03    0.60
   5  -7   4   12.86    0.66
   6  -7   4   46.77    1.35
 -10  -6   4   31.14    1.03
  -9  -6   4    1.87    0.28
  -8  -6   4    8.78    0.47
  -7  -6   4   83.79    1.62
  -7  -6   4   78.99    1.61
  -7  -6   4   83.79    1.62
  -6  -6   4    9.58    0.43
  -6  -6   4    9.58    0.43
  -6  -6   4    9.50    0.41
  -5  -6   4   -0.05    0.18
  -5  -6   4    0.08    0.17
  -5  -6   4    0.00    0.08
  -5  -6   4    0.05    0.09
  -5  -6   4    0.05    0.09
   4   6  -4    1.26    0.20
  -4  -6   4    1.42    0.32
  -4  -6   4    1.42    0.13
  -4  -6   4    1.20    0.16
  -4  -6   4    1.20    0.16
  -4  -6   4    0.83    0.21
   3   6  -4  189.15    3.09
  -3  -6   4  197.39    2.97
  -3  -6   4  195.34    3.35
  -3  -6   4  197.39    2.97
  -3  -6   4  195.01    3.75
   2   6  -4   18.57    0.55
  -2  -6   4   18.88    0.86
  -2  -6   4   18.81    0.48
  -2  -6   4   18.67    0.68
  -2  -6   4   18.81    0.48
  -1  -6   4   26.67    0.57
  -1  -6   4   26.17    1.00
  -1  -6   4   26.67    0.57
  -1  -6   4   25.60    0.80
   0  -6   4  138.76    2.47
   0  -6   4  143.19    2.11
   0  -6   4  148.01    2.85
   0  -6   4  137.53    4.45
   0  -6   4  143.19    2.11
   1  -6   4  108.40    1.58
   1  -6   4  105.42    2.00
   1  -6   4  108.40    1.58
   1  -6   4  107.29    3.16
   2  -6   4   35.74    0.96
   3  -6   4    0.97    0.21
  -4   6  -4   21.36    0.79
   4  -6   4   22.26    0.79
  -5   6  -4   18.94    0.79
   5  -6   4   18.37    0.76
  -6   6  -4   42.30    1.32
   6  -6   4   45.28    1.30
  -7   6  -4    0.19    0.24
   7  -6   4    0.01    0.18
 -11  -5   4   51.75    1.47
 -10  -5   4    0.80    0.25
  -9  -5   4   18.07    0.74
  -8  -5   4    0.86    0.21
  -7  -5   4   49.61    1.17
  -6  -5   4    0.17    0.10
  -6  -5   4    0.17    0.10
  -6  -5   4    0.08    0.22
  -5  -5   4   24.49    0.66
  -5  -5   4   28.30    1.11
  -5  -5   4   24.19    0.88
  -5  -5   4   24.49    0.66
  -5  -5   4   24.47    0.66
   4   5  -4   11.60    0.46
  -4  -5   4   11.87    0.39
  -4  -5   4   11.23    0.67
  -4  -5   4   11.21    0.56
   3   5  -4  113.64    1.95
  -3  -5   4  111.56    2.14
  -3  -5   4  113.09    1.84
  -3  -5   4  113.03    2.43
  -3  -5   4  113.09    1.84
  -3  -5   4  112.99    1.75
   2   5  -4   27.91    0.67
  -2  -5   4   27.19    0.97
  -2  -5   4   26.05    0.59
  -2  -5   4   27.23    0.80
  -2  -5   4   25.32    1.39
  -2  -5   4   26.05    0.59
   1   5  -4   17.19    0.46
  -1  -5   4   17.69    0.43
  -1  -5   4   17.00    1.12
  -1  -5   4   16.83    0.60
  -1  -5   4   17.69    0.43
  -1  -5   4   15.48    0.70
   0   5  -4   38.86    0.76
   0  -5   4   45.79    1.00
   0  -5   4   37.62    1.10
   0  -5   4   38.32    1.66
   0  -5   4   38.77    0.73
   0  -5   4   38.77    0.73
   1  -5   4  151.12    2.17
   1  -5   4  136.59    2.65
   1  -5   4  148.34    2.51
   1  -5   4  149.67    3.62
   1  -5   4  151.12    2.17
   2  -5   4   59.96    2.77
   2  -5   4   63.64    1.35
   2  -5   4   64.60    1.00
   2  -5   4   64.60    1.00
   3  -5   4  186.16    2.60
   3  -5   4  186.16    2.60
   3  -5   4  181.85    3.11
  -4   5  -4    2.62    0.30
   4  -5   4    2.30    0.29
  -5   5  -4   16.27    0.71
  -5   5  -4   16.83    0.60
  -5   5  -4   16.83    0.60
   5  -5   4   16.18    0.70
  -6   5  -4    0.44    0.22
  -6   5  -4    0.33    0.18
  -6   5  -4    0.33    0.18
   6  -5   4    0.59    0.20
  -7   5  -4    0.05    0.20
  -7   5  -4    0.08    0.23
  -7   5  -4    0.05    0.20
   7  -5   4    0.05    0.18
  -8   5  -4    2.49    0.43
  -8   5  -4    4.34    0.45
  -8   5  -4    4.34    0.45
   8  -5   4    2.54    0.41
  11   4  -4    5.71    0.46
  11   4  -4    5.71    0.46
 -11  -4   4    6.11    0.53
  10   4  -4   53.06    1.29
  10   4  -4   53.06    1.29
 -10  -4   4   54.74    1.44
   9   4  -4   47.77    1.16
   9   4  -4   47.77    1.16
  -9  -4   4   47.64    1.27
   8   4  -4   88.35    1.72
   8   4  -4   88.35    1.72
  -8  -4   4   89.72    1.84
   7   4  -4    8.26    0.40
   7   4  -4    8.26    0.40
  -7  -4   4    6.55    0.40
  -6  -4   4   18.51    0.62
  -6  -4   4   17.65    0.61
  -6  -4   4   17.65    0.61
  -6  -4   4   22.88    0.99
  -5  -4   4    3.40    0.24
  -5  -4   4    3.40    0.24
  -5  -4   4    3.23    0.39
  -4  -4   4    6.87    0.50
  -4  -4   4    7.30    0.44
  -4  -4   4    7.55    0.32
  -4  -4   4    7.31    0.76
   3   4  -4   87.16    1.55
  -3  -4   4   88.20    2.62
  -3  -4   4   83.17    1.44
  -3  -4   4   85.67    1.70
  -3  -4   4   85.13    1.92
  -3  -4   4   86.17    1.38
  -3  -4   4   83.17    1.44
  -3  -4   4   82.92    1.44
   2   4  -4   46.21    0.94
  -2  -4   4   46.35    1.09
  -2  -4   4   46.21    0.83
  -2  -4   4   46.82    1.79
  -2  -4   4   45.80    0.87
  -2  -4   4   49.35    1.27
  -2  -4   4   45.80    0.87
   1   4  -4   90.60    1.49
  -1  -4   4   88.90    2.52
  -1  -4   4   87.80    1.43
  -1  -4   4   88.29    1.84
  -1  -4   4   87.80    1.43
  -1  -4   4   86.41    1.66
   0   4  -4    5.68    0.23
   0  -4   4    5.23    0.57
   0  -4   4    5.46    0.36
   0  -4   4    5.46    0.19
   0  -4   4    5.15    0.30
   0  -4   4    5.53    0.21
   0  -4   4    5.53    0.21
  -1   4  -4    0.53    0.08
   1  -4   4    0.32    0.21
   1  -4   4    0.28    0.06
   1  -4   4    0.28    0.06
   1  -4   4    0.43    0.10
   1  -4   4    0.45    0.13
   1  -4   4    0.52    0.13
  -2   4  -4   10.32    0.33
  -2   4  -4   10.32    0.33
   2  -4   4   10.04    0.28
   2  -4   4   10.04    0.28
   2  -4   4   10.45    0.45
   2  -4   4   10.14    0.46
  -3   4  -4  179.59    2.77
  -3   4  -4  179.59    2.77
   3  -4   4  181.07    3.01
   3  -4   4  176.08    3.16
   3  -4   4  179.67    2.60
   3  -4   4  179.67    2.60
  -4   4  -4    1.99    0.21
  -4   4  -4    1.99    0.21
  -4   4  -4    1.94    0.26
   4  -4   4    2.04    0.26
   4  -4   4    2.49    0.36
   4  -4   4    2.12    0.12
   4  -4   4    2.12    0.12
  -5   4  -4   53.53    1.18
  -5   4  -4   54.60    1.35
  -5   4  -4   53.53    1.18
   5  -4   4   53.64    0.88
   5  -4   4   51.46    2.18
   5  -4   4   52.08    1.33
   5  -4   4   53.64    0.88
  -6   4  -4   49.24    1.18
  -6   4  -4   49.24    1.18
  -6   4  -4   48.65    1.34
   6  -4   4   49.02    1.33
   6  -4   4   49.58    0.81
   6  -4   4   49.58    0.81
  -7   4  -4   13.57    0.73
  -7   4  -4   13.24    0.61
  -7   4  -4   13.24    0.61
   7  -4   4   13.92    0.71
  -8   4  -4  124.05    2.44
  -8   4  -4  124.05    2.44
  -8   4  -4  122.87    2.69
   8  -4   4  124.21    2.66
  -9   4  -4   32.02    1.10
  -9   4  -4   32.62    1.28
  -9   4  -4   32.02    1.10
   9  -4   4   32.80    1.24
  11   3  -4    0.40    0.19
  11   3  -4    0.40    0.19
  10   3  -4    2.29    0.28
  10   3  -4    2.29    0.28
 -10  -3   4    2.12    0.37
   9   3  -4   47.85    1.13
   9   3  -4   47.85    1.13
  -9  -3   4   46.65    1.26
   8   3  -4   32.96    0.91
   8   3  -4   32.95    0.87
   8   3  -4   32.95    0.87
   8   3  -4   32.96    0.91
  -8  -3   4   32.62    0.89
  -8  -3   4   32.62    0.89
  -8  -3   4   33.54    0.97
   7   3  -4  329.92    4.91
   7   3  -4  329.92    4.91
   7   3  -4  328.51    5.56
   7   3  -4  325.57    4.93
   7   3  -4  325.57    4.93
  -7  -3   4  325.61    5.67
  -7  -3   4  324.27    4.91
  -7  -3   4  329.25    5.04
  -7  -3   4  324.27    4.91
   6   3  -4   56.25    1.15
   6   3  -4   59.47    1.16
   6   3  -4   56.25    1.15
   6   3  -4   59.47    1.16
   6   3  -4   55.26    1.48
  -6  -3   4   55.91    1.23
  -6  -3   4   59.02    1.64
  -6  -3   4   57.54    1.14
  -6  -3   4   57.54    1.14
   5   3  -4   23.09    0.81
   5   3  -4   23.46    0.58
   5   3  -4   23.46    0.58
  -5  -3   4   25.08    0.63
  -5  -3   4   25.08    0.63
  -5  -3   4   23.56    0.93
  -5  -3   4   24.28    0.83
  -5  -3   4   24.64    0.68
   4   3  -4   73.71    1.51
  -4  -3   4   76.83    1.77
  -4  -3   4   75.05    1.34
  -4  -3   4   75.05    1.34
  -4  -3   4   78.14    1.54
  -4  -3   4   75.37    1.39
   3   3  -4  108.22    1.83
   3   3  -4  109.38    1.83
  -3  -3   4  106.24    1.78
  -3  -3   4  109.41    1.79
  -3  -3   4  108.39    2.02
  -3  -3   4  107.49    1.83
  -3  -3   4  109.79    2.18
  -3  -3   4  107.26    1.80
  -3  -3   4  109.41    1.79
   2   3  -4   11.33    0.38
  -2  -3   4   11.88    0.47
  -2  -3   4   11.43    0.31
  -2  -3   4   11.92    0.31
  -2  -3   4   11.65    0.35
  -2  -3   4   11.76    0.31
  -2  -3   4   11.69    0.53
   1   3  -4    0.97    0.13
  -1  -3   4    1.17    0.17
  -1  -3   4    1.36    0.11
  -1  -3   4    0.97    0.11
  -1  -3   4    0.97    0.11
  -1  -3   4    1.49    0.08
  -1  -3   4    1.33    0.21
   0   3  -4  182.40    2.70
   0   3  -4  179.68    2.64
   0  -3   4  179.21    2.64
   0  -3   4  180.87    2.97
   0  -3   4  186.05    2.54
   0  -3   4  181.31    2.66
   0  -3   4  179.21    2.90
   0  -3   4  181.31    2.66
  -2   3  -4   30.02    0.62
  -2   3  -4   30.02    0.62
  -2   3  -4   30.57    0.59
   2  -3   4   28.79    0.58
   2  -3   4   28.79    0.58
   2  -3   4   29.36    0.78
   2  -3   4   28.11    0.78
   2  -3   4   30.02    0.69
  -3   3  -4    7.75    0.31
  -3   3  -4    8.00    0.27
  -3   3  -4    7.75    0.31
   3  -3   4    8.36    0.26
   3  -3   4    8.36    0.26
   3  -3   4    8.28    0.59
   3  -3   4    7.75    0.40
   3  -3   4    7.96    0.45
  -4   3  -4    7.75    0.42
  -4   3  -4    8.21    0.36
  -4   3  -4    8.21    0.36
   4  -3   4    7.81    0.26
   4  -3   4    7.81    0.26
   4  -3   4    7.46    0.43
   4  -3   4    8.10    0.51
  -5   3  -4   22.14    0.67
  -5   3  -4   21.95    0.77
  -5   3  -4   22.14    0.67
   5  -3   4   22.77    0.51
   5  -3   4   22.77    0.51
   5  -3   4   22.69    0.96
   5  -3   4   22.04    0.78
  -6   3  -4    5.46    0.37
  -6   3  -4    5.75    0.45
  -6   3  -4    5.46    0.37
   6  -3   4    6.29    0.68
   6  -3   4    5.50    0.23
   6  -3   4    5.50    0.23
   6  -3   4    5.27    0.43
  -7   3  -4    9.93    0.61
  -7   3  -4    9.39    0.51
  -7   3  -4    9.39    0.51
   7  -3   4    9.72    0.32
   7  -3   4    9.97    0.60
   7  -3   4    9.72    0.32
  -8   3  -4  258.18    4.52
  -8   3  -4  254.01    4.24
  -8   3  -4  254.01    4.24
   8  -3   4  255.97    3.72
   8  -3   4  255.97    3.72
   8  -3   4  256.12    4.52
  -9   3  -4   78.53    1.84
  -9   3  -4   80.25    2.07
  -9   3  -4   78.53    1.84
   9  -3   4   78.95    1.29
   9  -3   4   81.61    2.07
   9  -3   4   78.95    1.29
  11   2  -4    0.10    0.14
  11   2  -4    0.10    0.14
 -11  -2   4   -0.11    0.21
 -11  -2   4   -0.11    0.21
  10   2  -4    0.85    0.24
  10   2  -4    0.23    0.14
  10   2  -4    0.85    0.24
  10   2  -4    0.23    0.14
 -10  -2   4    0.58    0.22
 -10  -2   4    0.58    0.22
   9   2  -4    2.26    0.25
   9   2  -4    2.83    0.34
   9   2  -4    2.83    0.34
   9   2  -4    2.26    0.25
  -9  -2   4    2.53    0.33
  -9  -2   4    2.53    0.33
   8   2  -4    1.42    0.20
   8   2  -4    1.44    0.25
   8   2  -4    1.42    0.20
   8   2  -4    1.57    0.25
   8   2  -4    1.57    0.25
   8   2  -4    1.40    0.29
  -8  -2   4    1.38    0.24
  -8  -2   4    1.38    0.24
  -8  -2   4    1.68    0.28
   7   2  -4   52.58    1.41
   7   2  -4   52.21    1.17
   7   2  -4   52.35    1.59
   7   2  -4   53.30    1.11
   7   2  -4   52.21    1.17
   7   2  -4   52.55    1.23
   7   2  -4   53.30    1.11
  -7  -2   4   51.38    1.26
  -7  -2   4   52.59    1.17
  -7  -2   4   52.59    1.17
  -7  -2   4   54.39    1.22
  -7  -2   4   53.87    1.58
   6   2  -4   15.36    0.75
   6   2  -4   16.49    0.54
   6   2  -4   16.32    0.58
   6   2  -4   18.66    0.53
   6   2  -4   16.49    0.54
   6   2  -4   18.66    0.53
   6   2  -4   16.31    0.69
  -6  -2   4   15.93    0.56
  -6  -2   4   15.36    0.77
  -6  -2   4   15.80    0.53
  -6  -2   4   15.80    0.53
   5   2  -4  531.58    8.04
   5   2  -4  521.37    7.53
   5   2  -4  533.26    7.89
   5   2  -4  534.07    7.57
   5   2  -4  521.37    7.53
   5   2  -4  533.16    7.66
   5   2  -4  534.07    7.57
  -5  -2   4  535.45    7.56
  -5  -2   4  526.51    8.14
  -5  -2   4  535.45    7.56
  -5  -2   4  534.48    7.64
  -5  -2   4  541.96    8.08
   4   2  -4  241.28    3.67
   4   2  -4  241.42    3.90
   4   2  -4  242.96    3.57
   4   2  -4  241.42    3.85
   4   2  -4  241.38    3.57
   4   2  -4  242.96    3.57
   4   2  -4  241.38    3.57
  -4  -2   4  240.60    4.07
  -4  -2   4  240.28    3.65
  -4  -2   4  241.76    3.56
  -4  -2   4  241.76    3.56
  -4  -2   4  239.56    3.90
   3   2  -4   57.11    1.20
  -3  -2   4   58.48    1.10
  -3  -2   4   59.89    1.22
   2   2  -4   54.12    1.03
   2   2  -4   53.66    1.01
  -2  -2   4   55.20    1.04
  -2  -2   4   54.88    1.04
  -2  -2   4   52.94    0.99
   1   2  -4   20.64    0.49
   1   2  -4   21.27    0.51
  -1  -2   4   21.04    0.46
  -1  -2   4   20.75    0.49
  -1  -2   4   21.59    0.49
  -1  -2   4   21.21    0.66
  -1  -2   4   21.02    0.47
   0   2  -4  212.66    3.09
   0   2  -4  205.45    3.08
   0  -2   4  210.07    3.28
   0  -2   4  208.39    3.03
   0  -2   4  212.37    3.75
   0  -2   4  211.44    3.06
  -1   2  -4  324.10    4.67
  -1   2  -4  328.53    4.59
   1  -2   4  318.89    5.30
   1  -2   4  307.21    4.77
   1  -2   4  324.38    4.70
   1  -2   4  325.19    4.61
   1  -2   4  315.36    4.68
   1  -2   4  327.34    4.49
   1  -2   4  325.19    4.61
  -2   2  -4   23.63    0.52
  -2   2  -4   23.63    0.52
  -2   2  -4   23.68    0.52
  -2   2  -4   22.37    0.96
   2  -2   4   22.53    0.68
   2  -2   4   25.36    0.95
   2  -2   4   24.30    0.52
   2  -2   4   23.21    0.67
   2  -2   4   23.25    0.49
   2  -2   4   23.25    0.49
  -3   2  -4  245.51    3.53
  -3   2  -4  241.88    3.56
  -3   2  -4  241.88    3.56
   3  -2   4  240.34    3.91
   3  -2   4  240.95    4.06
   3  -2   4  236.99    3.81
   3  -2   4  236.86    3.47
   3  -2   4  236.86    3.47
  -4   2  -4   36.28    0.93
  -4   2  -4   37.51    0.83
  -4   2  -4   37.51    0.83
  -4   2  -4   36.25    0.78
   4  -2   4   37.10    0.72
   4  -2   4   37.10    0.72
   4  -2   4   37.02    1.10
   4  -2   4   37.18    1.00
  -5   2  -4   14.96    0.52
  -5   2  -4   14.96    0.52
  -5   2  -4   14.99    0.60
  -5   2  -4   16.08    0.49
   5  -2   4   16.62    0.66
   5  -2   4   15.03    0.75
   5  -2   4   15.01    0.41
   5  -2   4   15.01    0.41
  -6   2  -4    0.10    0.10
  -6   2  -4    0.08    0.12
  -6   2  -4    0.08    0.12
  -6   2  -4   -0.11    0.14
   6  -2   4    0.36    0.09
   6  -2   4    0.24    0.20
   6  -2   4    0.36    0.09
   6  -2   4    0.06    0.14
  -7   2  -4   -0.06    0.13
  -7   2  -4   -0.06    0.13
  -7   2  -4    0.01    0.18
   7  -2   4    0.00    0.07
   7  -2   4    0.05    0.13
   7  -2   4    0.00    0.07
  -8   2  -4   18.18    0.72
  -8   2  -4   18.18    0.72
  -8   2  -4   17.49    0.82
   8  -2   4   17.34    0.84
   8  -2   4   16.98    0.50
   8  -2   4   16.98    0.50
  -9   2  -4    0.56    0.23
  -9   2  -4    0.56    0.23
  -9   2  -4    0.68    0.29
   9  -2   4    0.69    0.14
   9  -2   4    0.69    0.14
   9  -2   4    0.30    0.23
 -10   2  -4   34.08    1.14
 -10   2  -4   34.08    1.14
  10  -2   4   31.53    0.74
  10  -2   4   31.53    0.74
  10  -2   4   32.00    1.28
  11   1  -4    6.22    0.56
  11   1  -4    6.00    0.39
  11   1  -4    6.00    0.39
  11   1  -4    6.22    0.56
 -11  -1   4    5.99    0.56
 -11  -1   4    6.75    0.98
 -11  -1   4    5.99    0.56
  10   1  -4   19.54    0.82
  10   1  -4   18.48    0.96
  10   1  -4   18.91    0.63
  10   1  -4   19.54    0.82
  10   1  -4   18.47    0.80
  10   1  -4   18.91    0.63
 -10  -1   4   18.42    0.80
 -10  -1   4   19.29    0.90
 -10  -1   4   18.42    0.80
   9   1  -4    0.06    0.16
   9   1  -4    0.24    0.13
   9   1  -4    0.06    0.19
   9   1  -4    0.24    0.13
   9   1  -4    0.50    0.21
   9   1  -4    0.50    0.21
  -9  -1   4   -0.05    0.18
  -9  -1   4    0.28    0.19
  -9  -1   4    0.28    0.19
   8   1  -4   13.33    0.58
   8   1  -4   12.47    0.46
   8   1  -4   13.34    0.70
   8   1  -4   12.47    0.46
   8   1  -4   11.43    0.56
   8   1  -4   11.43    0.56
  -8  -1   4   13.72    0.66
  -8  -1   4   11.81    0.83
  -8  -1   4   11.90    0.55
  -8  -1   4   11.90    0.55
   7   1  -4    0.91    0.19
   7   1  -4    0.76    0.14
   7   1  -4    0.53    0.24
   7   1  -4    0.91    0.19
   7   1  -4    0.91    0.22
   7   1  -4    0.93    0.18
   7   1  -4    0.76    0.14
  -7  -1   4    0.97    0.21
  -7  -1   4    0.66    0.28
  -7  -1   4    0.80    0.19
  -7  -1   4    0.80    0.19
  -7  -1   4    0.66    0.25
   6   1  -4    7.70    0.57
   6   1  -4    6.88    0.31
   6   1  -4    6.88    0.31
   6   1  -4    6.98    0.37
   6   1  -4    5.96    0.35
   6   1  -4    6.98    0.44
   6   1  -4    5.96    0.35
  -6  -1   4    6.64    0.35
  -6  -1   4    6.64    0.35
  -6  -1   4    6.66    0.55
   5   1  -4    4.04    0.23
   5   1  -4    4.04    0.23
   5   1  -4    3.69    0.25
   5   1  -4    3.69    0.25
   5   1  -4    3.59    0.26
   5   1  -4    3.63    0.37
   5   1  -4    3.59    0.31
  -5  -1   4    3.72    0.25
  -5  -1   4    3.75    0.38
  -5  -1   4    3.66    0.25
  -5  -1   4    3.72    0.25
   4   1  -4   20.72    0.55
   4   1  -4   19.58    0.55
   4   1  -4   19.57    0.65
   4   1  -4   20.72    0.55
   4   1  -4   20.46    0.50
   4   1  -4   20.00    0.73
   4   1  -4   20.46    0.50
  -4  -1   4   20.09    0.54
  -4  -1   4   19.39    0.73
  -4  -1   4   20.09    0.54
   1   1  -4  358.98    5.18
   1   1  -4  358.45    5.07
  -1  -1   4  351.31    5.14
  -1  -1   4  360.22    5.07
   0  -1   4  583.30    8.80
  -1   1  -4   -0.45    0.06
  -1   1  -4   -0.36    0.06
   1  -1   4   -0.30    0.06
   1  -1   4   -0.44    0.04
   1  -1   4   -0.44    0.07
   1  -1   4   -0.08    0.16
  -2   1  -4   67.45    1.13
  -2   1  -4   67.45    1.13
  -2   1  -4   66.82    1.15
  -2   1  -4   67.14    1.45
   2  -1   4   66.21    1.70
   2  -1   4   66.38    1.35
   2  -1   4   66.03    1.09
   2  -1   4   65.65    1.31
  -3   1  -4  240.61    3.50
  -3   1  -4  239.01    3.50
  -3   1  -4  240.61    3.50
   3  -1   4  232.96    3.75
   3  -1   4  232.52    3.43
   3  -1   4  237.27    3.36
   3  -1   4  228.04    3.78
   3  -1   4  232.52    3.43
   3  -1   4  245.54    4.32
  -4   1  -4   50.82    1.01
  -4   1  -4   50.82    1.01
  -4   1  -4   51.71    1.01
   4  -1   4   51.36    0.78
   4  -1   4   49.82    0.93
   4  -1   4   51.18    1.30
   4  -1   4   52.27    1.22
   4  -1   4   49.82    0.93
  -5   1  -4  713.41   10.16
  -5   1  -4  729.86   10.21
  -5   1  -4  729.86   10.21
  -5   1  -4  718.66   10.37
   5  -1   4  725.81   10.52
   5  -1   4  718.85   10.04
   5  -1   4  718.85   10.04
   5  -1   4  720.30   10.78
  -6   1  -4   84.58    1.77
  -6   1  -4   83.96    1.62
  -6   1  -4   83.21    1.59
  -6   1  -4   83.96    1.62
   6  -1   4   85.76    1.46
   6  -1   4   81.83    1.85
   6  -1   4   85.76    1.46
   6  -1   4   85.55    2.11
  -7   1  -4   11.60    0.61
  -7   1  -4   11.84    0.53
  -7   1  -4   11.84    0.53
   7  -1   4   11.41    0.41
   7  -1   4   11.86    0.65
   7  -1   4   11.41    0.41
  -8   1  -4  144.19    2.64
  -8   1  -4  144.19    2.64
  -8   1  -4  146.87    2.84
   8  -1   4  145.09    2.93
   8  -1   4  142.97    2.35
   8  -1   4  142.97    2.35
  -9   1  -4    8.35    0.61
  -9   1  -4    8.54    0.54
  -9   1  -4    8.54    0.54
   9  -1   4    8.15    0.38
   9  -1   4    8.15    0.38
   9  -1   4    8.88    0.66
 -10   1  -4    0.39    0.23
 -10   1  -4    0.39    0.23
  10  -1   4    0.30    0.13
  10  -1   4    0.30    0.13
  10  -1   4    0.51    0.28
  11   0  -4    9.80    0.44
  11   0  -4   10.33    0.64
  11   0  -4   11.36    0.70
  11   0  -4   10.33    0.77
  11   0  -4   11.36    0.70
  11   0  -4    9.80    0.44
 -11   0   4   10.01    0.67
 -11   0   4   10.27    0.78
 -11   0   4   10.01    0.67
  10   0  -4   17.35    0.77
  10   0  -4   18.23    0.82
  10   0  -4   17.06    0.56
  10   0  -4   17.36    0.92
  10   0  -4   17.06    0.56
  10   0  -4   18.23    0.82
 -10   0   4   16.57    0.88
 -10   0   4   16.94    0.79
 -10   0   4   16.94    0.79
   9   0  -4   16.28    0.53
   9   0  -4   14.87    0.70
   9   0  -4   15.12    0.81
   9   0  -4   15.06    0.68
   9   0  -4   14.87    0.70
   9   0  -4   16.28    0.53
  -9   0   4   16.02    0.72
  -9   0   4   16.02    0.72
  -9   0   4   16.48    0.82
   8   0  -4   12.34    0.44
   8   0  -4   12.16    0.68
   8   0  -4   11.01    0.57
   8   0  -4   11.01    0.57
   8   0  -4   12.34    0.44
   8   0  -4   12.16    0.56
  -8   0   4   12.60    0.67
  -8   0   4   12.42    0.59
  -8   0   4   12.42    0.59
   7   0  -4  116.12    2.17
   7   0  -4  115.48    2.33
   7   0  -4  117.56    1.93
   7   0  -4  115.53    2.11
   7   0  -4  116.12    2.17
   7   0  -4  117.56    1.93
  -7   0   4  114.78    2.16
  -7   0   4  113.20    2.29
  -7   0   4  114.78    2.16
   6   0  -4   27.24    0.87
   6   0  -4   26.02    0.77
   6   0  -4   26.02    0.77
   6   0  -4   28.25    1.11
   6   0  -4   27.27    0.74
   6   0  -4   27.81    0.64
   6   0  -4   27.81    0.64
  -6   0   4   27.03    1.09
  -6   0   4   27.66    0.78
  -6   0   4   27.66    0.78
   5   0  -4  119.68    2.03
   5   0  -4  117.85    2.07
   5   0  -4  119.70    2.19
   5   0  -4  117.85    2.07
   5   0  -4  124.52    1.92
   5   0  -4  124.52    1.92
   5   0  -4  124.98    2.54
  -5   0   4  121.22    2.52
  -5   0   4  116.40    2.07
  -5   0   4  116.40    2.07
   4   0  -4  102.74    1.65
   4   0  -4  103.28    1.89
   4   0  -4  105.97    1.79
   4   0  -4  103.33    1.75
   4   0  -4  105.97    1.79
   4   0  -4  101.19    2.12
   4   0  -4  102.74    1.65
   4   0  -4  107.10    1.69
  -4   0   4  104.23    2.13
  -4   0   4  102.49    1.78
  -4   0   4  102.49    1.78
   3   0  -4    2.23    0.16
   3   0  -4    1.69    0.13
   3   0  -4    1.21    0.11
   3   0  -4    2.23    0.20
   3   0  -4    1.21    0.11
   3   0  -4    1.87    0.17
   3   0  -4    1.69    0.13
   3   0  -4    1.87    0.17
   2   0  -4  459.83    6.61
   2   0  -4  450.65    6.76
   2   0  -4  459.83    6.61
   2   0  -4  469.44    6.85
  -2   0   4  468.05    6.47
  -2   0   4  458.90    6.81
  -2   0   4  459.13    6.77
   1   0  -4    8.11    0.34
   1   0  -4    8.13    0.35
  -1   0   4    7.78    0.34
  -1   0   4    8.11    0.26
  -1   0   4    8.31    0.35
   1   0   4  675.27   10.04
  -2   0  -4   66.53    1.13
  -2   0  -4   66.53    1.16
  -2   0  -4   66.53    1.13
   2   0   4   67.74    1.71
   2   0   4   67.14    1.13
   2   0   4   67.49    1.12
   2   0   4   67.32    1.31
  -3   0  -4  365.28    5.18
  -3   0  -4  365.28    5.18
  -3   0  -4  363.62    5.20
   3   0   4  366.73    6.04
   3   0   4  354.91    5.47
   3   0   4  348.57    5.13
   3   0   4  369.25    5.47
  -4   0  -4  106.27    1.79
  -4   0  -4  107.23    1.78
  -4   0  -4  107.23    1.78
   4   0   4  106.82    1.71
   4   0   4  105.64    2.10
   4   0   4  106.82    1.71
   4   0   4  105.81    2.55
   4   0   4  107.54    2.03
   4   0   4  105.60    1.69
   4   0   4  106.29    2.01
  -5   0  -4    6.53    0.32
  -5   0  -4    6.62    0.40
  -5   0  -4    5.80    0.31
  -5   0  -4    5.80    0.31
   5   0   4    7.30    0.50
   5   0   4    6.60    0.24
   5   0   4    6.77    0.43
   5   0   4    6.50    0.28
   5   0   4    6.50    0.28
  -6   0  -4   57.60    1.22
  -6   0  -4   57.60    1.22
  -6   0  -4   56.92    1.22
   6   0   4   56.41    1.09
   6   0   4   56.41    1.09
   6   0   4   57.60    1.44
   6   0   4   59.23    1.64
   6   0   4   57.08    0.95
  -7   0  -4    1.47    0.24
  -7   0  -4    1.29    0.26
  -7   0  -4    1.47    0.24
   7   0   4    1.71    0.19
   7   0   4    1.42    0.27
   7   0   4    1.71    0.19
  -8   0  -4    3.81    0.36
  -8   0  -4    3.81    0.36
   8   0   4    3.02    0.41
   8   0   4    3.77    0.26
   8   0   4    3.77    0.26
  -9   0  -4   14.60    0.67
  -9   0  -4   14.60    0.67
   9   0   4   14.52    0.81
   9   0   4   15.01    0.53
   9   0   4   15.01    0.53
 -10   0  -4    9.31    0.60
 -10   0  -4    9.31    0.60
  10   0   4    8.32    0.42
  10   0   4    8.32    0.42
  10   0   4    9.28    0.72
 -11   0  -4    2.36    0.42
 -11   0  -4    2.36    0.42
  11   0   4    1.81    0.24
  11   0   4    1.81    0.24
  11   0   4    3.21    0.57
  10  -1  -4    0.01    0.19
  10  -1  -4    0.01    0.19
  10  -1  -4    0.17    0.21
  10  -1  -4   -0.11    0.09
  10  -1  -4    0.18    0.18
  10  -1  -4   -0.11    0.09
 -10   1   4   -0.04    0.23
 -10   1   4    0.05    0.22
 -10   1   4    0.05    0.22
   9  -1  -4   -0.16    0.15
   9  -1  -4   -0.02    0.18
   9  -1  -4    0.04    0.10
   9  -1  -4   -0.02    0.18
   9  -1  -4    0.07    0.10
   9  -1  -4    0.07    0.10
   9  -1  -4    0.04    0.10
  -9   1   4   -0.04    0.18
  -9   1   4   -0.04    0.18
  -9   1   4    0.27    0.24
   8  -1  -4    0.05    0.08
   8  -1  -4    0.11    0.16
   8  -1  -4    0.17    0.16
   8  -1  -4    0.02    0.08
   8  -1  -4    0.05    0.08
   8  -1  -4    0.17    0.16
   8  -1  -4    0.02    0.08
  -8   1   4    0.04    0.16
  -8   1   4    0.23    0.19
  -8   1   4    0.04    0.16
   7  -1  -4   18.01    0.69
   7  -1  -4   18.39    0.74
   7  -1  -4   18.01    0.69
   7  -1  -4   17.29    0.48
   7  -1  -4   16.83    0.47
   7  -1  -4   17.29    0.48
   7  -1  -4   16.83    0.47
  -7   1   4   17.82    0.68
  -7   1   4   17.82    0.68
  -7   1   4   17.64    0.76
   6  -1  -4    7.41    0.28
   6  -1  -4    8.04    0.29
   6  -1  -4    8.04    0.29
   6  -1  -4    6.80    0.43
   6  -1  -4    8.28    0.43
   6  -1  -4    8.28    0.43
   6  -1  -4    7.41    0.28
   6  -1  -4    7.44    0.61
  -6   1   4    7.85    0.62
  -6   1   4    6.52    0.39
  -6   1   4    6.52    0.39
   5  -1  -4   14.73    0.39
   5  -1  -4   14.79    0.54
   5  -1  -4   14.73    0.39
   5  -1  -4   14.38    0.39
   5  -1  -4   14.85    0.77
   5  -1  -4   14.78    0.48
   5  -1  -4   14.80    0.56
   5  -1  -4   14.38    0.39
   5  -1  -4   14.79    0.54
  -5   1   4   15.58    0.78
  -5   1   4   14.93    0.54
  -5   1   4   14.93    0.54
   4  -1  -4   30.96    0.61
   4  -1  -4   31.15    0.79
   4  -1  -4   29.15    0.75
   4  -1  -4   31.89    0.62
   4  -1  -4   31.89    0.62
   4  -1  -4   31.14    0.69
   4  -1  -4   32.53    1.05
   4  -1  -4   29.15    0.75
   4  -1  -4   30.96    0.61
  -4   1   4   31.72    1.04
  -4   1   4   28.51    0.74
  -4   1   4   28.51    0.74
   3  -1  -4   10.92    0.40
   3  -1  -4   10.49    0.29
   3  -1  -4   10.08    0.52
   3  -1  -4   10.49    0.29
   3  -1  -4   11.17    0.39
   3  -1  -4   11.17    0.39
   3  -1  -4   10.92    0.34
  -3   1   4   10.55    0.53
   2  -1  -4    0.82    0.17
   2  -1  -4    0.69    0.11
   2  -1  -4    0.69    0.11
  -2   1   4    0.52    0.14
   1  -1  -4   23.72    0.69
   1  -1  -4   24.05    0.72
   1  -1  -4   23.47    0.61
   1  -1  -4   23.47    0.61
  -1   1   4   23.64    0.69
  -1   1   4   23.32    0.71
  -1   1   4   24.30    0.48
   0  -1  -4   40.59    0.68
   0  -1  -4   43.65    0.97
   0   1   4   42.93    1.15
   0   1   4   43.49    0.97
   0   1   4   43.13    0.94
  -1  -1  -4  202.46    2.93
  -1  -1  -4  205.33    3.19
   1   1   4  200.60    3.15
   1   1   4  207.02    3.58
   1   1   4  198.30    2.95
  -2  -1  -4   66.93    1.14
  -2  -1  -4   67.12    1.14
  -2  -1  -4   67.12    1.14
   2   1   4   65.06    1.32
   2   1   4   68.81    1.16
   2   1   4   66.55    1.69
  -3  -1  -4  222.60    3.32
  -3  -1  -4  222.60    3.32
  -3  -1  -4  230.19    3.77
  -3  -1  -4  220.83    3.33
   3   1   4  220.92    3.32
   3   1   4  225.56    4.14
   3   1   4  229.03    4.03
   3   1   4  224.89    3.60
  -5  -1  -4  748.22   10.57
  -5  -1  -4  754.80   10.60
  -5  -1  -4  765.35   10.73
  -5  -1  -4  748.22   10.57
   5   1   4  755.65   10.47
   5   1   4  746.86   10.50
   5   1   4  755.65   10.47
   5   1   4  732.73   11.05
   5   1   4  761.54   10.93
  -6  -1  -4   25.23    0.71
  -6  -1  -4   25.23    0.71
  -6  -1  -4   23.83    0.75
  -6  -1  -4   25.23    0.72
   6   1   4   23.84    0.87
   6   1   4   26.34    0.64
   6   1   4   24.83    0.98
   6   1   4   26.34    0.64
   6   1   4   24.89    0.62
  -7  -1  -4   17.21    0.62
  -7  -1  -4   17.21    0.62
   7   1   4   18.38    0.80
   7   1   4   18.69    0.55
   7   1   4   18.56    0.50
   7   1   4   18.69    0.55
  -8  -1  -4   42.50    1.11
  -8  -1  -4   42.50    1.11
   8   1   4   44.11    1.00
   8   1   4   44.11    1.00
   8   1   4   47.79    1.41
  -9  -1  -4   18.18    0.72
  -9  -1  -4   18.18    0.72
   9   1   4   19.21    0.62
   9   1   4   19.21    0.62
   9   1   4   17.99    0.91
 -10  -1  -4   49.68    1.36
 -10  -1  -4   49.68    1.36
  10   1   4   49.54    1.16
  10   1   4   49.54    1.16
 -11  -1  -4    1.36    0.32
 -11  -1  -4    1.36    0.32
  11   1   4    1.74    0.25
  11   1   4    1.74    0.25
  10  -2  -4   50.32    1.50
  10  -2  -4   50.06    1.37
  10  -2  -4   50.32    1.50
  10  -2  -4   51.07    0.90
  10  -2  -4   51.07    0.90
  10  -2  -4   49.97    1.59
 -10   2   4   51.82    1.67
 -10   2   4   53.74    1.52
 -10   2   4   53.74    1.52
   9  -2  -4    1.24    0.31
   9  -2  -4    1.24    0.31
   9  -2  -4    0.60    0.25
   9  -2  -4    0.51    0.11
   9  -2  -4    0.51    0.11
  -9   2   4    0.93    0.30
  -9   2   4    0.40    0.23
  -9   2   4    0.40    0.23
   8  -2  -4   13.63    0.39
   8  -2  -4   13.53    0.68
   8  -2  -4   13.63    0.39
   8  -2  -4   12.38    0.64
   8  -2  -4   12.38    0.64
  -8   2   4   14.21    0.68
  -8   2   4   14.21    0.68
  -8   2   4   15.13    0.78
   7  -2  -4   -0.06    0.14
   7  -2  -4    0.04    0.06
   7  -2  -4   -0.06    0.14
   7  -2  -4    0.04    0.06
   7  -2  -4    0.14    0.14
  -7   2   4    0.30    0.17
  -7   2   4    0.30    0.17
  -7   2   4    0.10    0.16
   6  -2  -4   22.68    0.76
   6  -2  -4   22.68    0.76
   6  -2  -4   23.62    1.30
   6  -2  -4   23.40    0.51
   6  -2  -4   22.09    0.75
   6  -2  -4   23.40    0.51
  -6   2   4   22.96    0.76
  -6   2   4   22.63    1.25
  -6   2   4   22.96    0.76
   5  -2  -4   23.50    0.71
   5  -2  -4   23.96    0.50
   5  -2  -4   24.51    1.02
   5  -2  -4   23.96    0.50
   5  -2  -4   21.85    0.71
   5  -2  -4   21.85    0.71
  -5   2   4   24.64    0.74
  -5   2   4   24.64    0.74
  -5   2   4   21.69    0.96
   4  -2  -4   47.69    0.92
   4  -2  -4   49.04    1.06
   4  -2  -4   46.16    0.80
   4  -2  -4   49.04    1.06
   4  -2  -4   44.99    1.35
   4  -2  -4   47.64    1.03
   4  -2  -4   46.16    0.80
  -4   2   4   46.18    1.05
  -4   2   4   46.95    1.37
  -4   2   4   46.18    1.05
   3  -2  -4   18.08    0.36
   3  -2  -4   18.08    0.36
   3  -2  -4   15.08    0.41
   3  -2  -4   14.73    0.67
   3  -2  -4   15.08    0.47
  -3   2   4   15.47    0.69
   2  -2  -4  274.78    4.02
   2  -2  -4  268.45    3.79
   2  -2  -4  263.49    3.86
   2  -2  -4  263.39    3.96
   2  -2  -4  268.45    3.79
   2  -2  -4  274.78    4.02
   2  -2  -4  271.83    4.37
  -2   2   4  276.52    4.39
   1  -2  -4   25.56    0.77
   1  -2  -4   25.91    0.60
   1  -2  -4   25.91    0.60
   1  -2  -4   26.18    0.52
   1  -2  -4   26.20    0.58
  -1   2   4   24.90    0.76
   0  -2  -4    5.75    0.24
   0  -2  -4    5.75    0.24
   0   2   4    4.97    0.30
   0   2   4    7.03    0.41
   0   2   4    5.26    0.16
  -1  -2  -4  211.89    3.06
  -1  -2  -4  211.89    3.06
   1   2   4  204.68    3.27
   1   2   4  203.73    2.98
   1   2   4  211.10    3.62
   1   2   4  196.60    4.07
  -2  -2  -4    3.80    0.16
  -2  -2  -4    3.99    0.20
  -2  -2  -4    3.93    0.19
  -2  -2  -4    3.99    0.20
   2   2   4    4.06    0.38
   2   2   4    3.71    0.19
   2   2   4    3.63    0.42
   2   2   4    4.00    0.27
  -3  -2  -4  273.24    4.05
  -3  -2  -4  274.78    4.08
  -3  -2  -4  274.31    4.03
  -3  -2  -4  273.24    4.05
   3   2   4  277.18    4.34
   3   2   4  280.86    4.95
   3   2   4  282.21    4.91
   3   2   4  286.64    4.20
  -4  -2  -4  105.61    1.77
  -4  -2  -4  106.33    1.82
  -4  -2  -4  106.28    1.77
  -4  -2  -4  106.28    1.77
   4   2   4  109.25    2.60
   4   2   4  108.44    1.90
   4   2   4  107.18    1.78
   4   2   4  104.73    2.07
   4   2   4  104.95    2.36
  -5  -2  -4  275.69    4.17
  -5  -2  -4  271.47    4.15
  -5  -2  -4  283.95    4.23
  -5  -2  -4  271.47    4.15
   5   2   4  278.18    4.08
   5   2   4  278.01    5.26
   5   2   4  279.41    4.14
   5   2   4  277.36    4.46
   5   2   4  277.11    4.60
   5   2   4  278.18    4.08
   5   2   4  273.41    4.73
  -6  -2  -4  101.91    1.85
  -6  -2  -4  103.49    1.88
  -6  -2  -4  102.04    1.83
  -6  -2  -4  102.04    1.83
   6   2   4  102.26    1.78
   6   2   4   99.40    1.73
   6   2   4   99.40    1.73
   6   2   4  100.42    2.25
   6   2   4  100.77    2.11
  -7  -2  -4   39.43    0.98
  -7  -2  -4   39.43    0.98
  -7  -2  -4   38.66    1.00
   7   2   4   36.75    0.88
   7   2   4   39.87    1.39
   7   2   4   36.75    0.88
   7   2   4   39.03    0.90
  -8  -2  -4   73.76    1.57
  -8  -2  -4   73.76    1.57
  -8  -2  -4   73.48    1.60
   8   2   4   74.59    1.45
   8   2   4   74.59    1.45
   8   2   4   75.09    1.41
  -9  -2  -4   15.15    0.66
  -9  -2  -4   15.15    0.66
   9   2   4   15.38    0.57
   9   2   4   15.38    0.57
 -10  -2  -4   17.28    0.76
 -10  -2  -4   17.28    0.76
  10   2   4   17.59    0.65
  10   2   4   17.59    0.65
 -11  -2  -4   12.81    0.72
 -11  -2  -4   12.81    0.72
  11   2   4   14.46    0.61
  11   2   4   14.46    0.61
  10  -3  -4   25.96    1.06
  10  -3  -4   25.96    1.06
  10  -3  -4   25.12    1.09
  10  -3  -4   25.07    0.92
 -10   3   4   26.34    1.20
 -10   3   4   22.55    1.00
 -10   3   4   22.55    1.00
   9  -3  -4    1.38    0.30
   9  -3  -4    1.38    0.30
   9  -3  -4    0.75    0.25
  -9   3   4    1.34    0.35
  -9   3   4    1.08    0.28
  -9   3   4    1.08    0.28
   8  -3  -4  137.20    2.70
   8  -3  -4  139.02    2.71
   8  -3  -4  137.20    2.70
  -8   3   4  140.64    2.92
  -8   3   4  135.92    2.69
  -8   3   4  135.92    2.69
   7  -3  -4   59.68    1.45
   7  -3  -4   59.97    1.48
   7  -3  -4   59.97    1.48
  -7   3   4   61.88    1.49
  -7   3   4   61.14    1.63
  -7   3   4   61.88    1.49
   6  -3  -4    1.55    0.23
   6  -3  -4    0.95    0.22
   6  -3  -4    0.95    0.22
  -6   3   4    0.98    0.22
  -6   3   4    0.98    0.22
  -6   3   4    1.64    0.28
   5  -3  -4  320.47    5.56
   5  -3  -4  307.96    4.88
   5  -3  -4  321.47    4.81
   5  -3  -4  307.96    4.88
  -5   3   4  317.23    5.55
  -5   3   4  316.66    4.90
  -5   3   4  316.66    4.90
   4  -3  -4    4.43    0.31
   4  -3  -4    4.43    0.31
   4  -3  -4    3.91    0.43
   4  -3  -4    4.69    0.27
  -4   3   4    4.66    0.32
  -4   3   4    4.46    0.45
  -4   3   4    4.66    0.32
   3  -3  -4   34.56    0.84
   3  -3  -4   36.27    0.69
   3  -3  -4   36.29    0.77
   3  -3  -4   34.56    0.84
   3  -3  -4   36.15    1.13
  -3   3   4   34.19    1.12
   2  -3  -4  541.41    7.46
   2  -3  -4  522.76    7.21
   2  -3  -4  522.88    7.30
   2  -3  -4  534.27    7.89
   2  -3  -4  541.41    7.46
  -2   3   4  538.22    7.90
  -2   3   4  441.69    8.70
   1  -3  -4  212.96    3.02
   1  -3  -4  216.01    3.55
   1  -3  -4  213.06    3.11
   1  -3  -4  216.23    3.21
   1  -3  -4  216.23    3.21
  -1   3   4  187.38    4.32
  -1   3   4  216.64    3.55
   0  -3  -4  523.02    7.32
   0  -3  -4  513.59    7.18
   0  -3  -4  513.61    7.27
   0  -3  -4  523.02    7.32
   0   3   4  524.42    7.64
   0   3   4  504.28    8.74
   0   3   4  529.63    7.74
  -1  -3  -4  252.93    3.70
  -1  -3  -4  252.93    3.70
  -1  -3  -4  252.55    3.73
   1   3   4  253.59    4.24
   1   3   4  249.60    3.95
   1   3   4  249.18    3.51
   1   3   4  252.24    4.96
  -2  -3  -4  139.17    2.26
  -2  -3  -4  137.42    2.01
  -2  -3  -4  138.84    2.15
  -2  -3  -4  138.84    2.15
   2   3   4  135.89    3.18
   2   3   4  137.24    2.78
   2   3   4  135.69    2.08
   2   3   4  137.79    2.39
  -3  -3  -4  203.26    3.15
  -3  -3  -4  203.26    3.15
  -3  -3  -4  207.80    3.09
  -3  -3  -4  217.73    4.19
  -3  -3  -4  213.79    3.36
   3   3   4  212.58    3.99
   3   3   4  213.26    4.20
   3   3   4  210.33    3.45
  -4  -3  -4   20.20    0.54
  -4  -3  -4   19.48    0.59
  -4  -3  -4   20.20    0.54
  -4  -3  -4   19.48    0.59
  -4  -3  -4   19.81    0.99
  -4  -3  -4   19.43    0.50
  -4  -3  -4   20.06    0.52
  -4  -3  -4   19.52    0.66
   4   3   4   19.21    0.54
   4   3   4   18.51    0.94
   4   3   4   21.26    0.74
   4   3   4   20.42    1.01
  -5  -3  -4    9.97    0.36
  -5  -3  -4    9.77    0.70
  -5  -3  -4   10.22    0.39
  -5  -3  -4    9.68    0.58
  -5  -3  -4    9.97    0.36
  -5  -3  -4   10.22    0.39
  -5  -3  -4   11.06    0.41
  -5  -3  -4   10.29    0.38
   5   3   4    9.98    0.67
   5   3   4   10.68    0.79
   5   3   4   10.27    0.56
  -6  -3  -4    8.80    0.36
  -6  -3  -4    7.88    0.37
  -6  -3  -4    8.80    0.36
  -6  -3  -4    9.13    0.40
  -6  -3  -4    7.88    0.37
  -6  -3  -4    8.79    0.39
   6   3   4    8.21    0.38
   6   3   4    8.40    0.35
   6   3   4    8.40    0.35
   6   3   4    8.52    0.56
  -7  -3  -4   46.14    1.09
  -7  -3  -4   46.14    1.09
  -7  -3  -4   49.09    1.13
   7   3   4   48.91    1.09
   7   3   4   50.37    1.53
   7   3   4   48.74    1.05
   7   3   4   48.74    1.05
  -8  -3  -4  147.76    2.64
  -8  -3  -4  147.76    2.64
  -8  -3  -4  154.35    2.70
   8   3   4  152.38    2.55
   8   3   4  152.38    2.55
   8   3   4  151.60    2.57
  -9  -3  -4    0.45    0.19
  -9  -3  -4    0.55    0.19
  -9  -3  -4    0.45    0.19
   9   3   4    0.37    0.15
   9   3   4    0.37    0.15
   9   3   4    0.27    0.13
 -10  -3  -4  134.45    2.60
 -10  -3  -4  134.45    2.60
 -10  -3  -4  138.58    2.65
  10   3   4  131.93    2.42
  10   3   4  131.93    2.42
 -11  -3  -4    0.65    0.24
 -11  -3  -4    0.50    0.25
 -11  -3  -4    0.50    0.25
  11   3   4    0.96    0.22
  11   3   4    0.96    0.22
   9  -4  -4   25.57    1.03
   9  -4  -4   25.57    1.03
   9  -4  -4   25.36    1.01
  -9   4   4   25.28    1.03
  -9   4   4   26.59    1.18
  -9   4   4   25.28    1.03
   8  -4  -4    1.53    0.29
   8  -4  -4    1.95    0.31
   8  -4  -4    1.53    0.29
  -8   4   4    1.44    0.30
  -8   4   4    1.44    0.30
  -8   4   4    1.96    0.37
   7  -4  -4   18.58    0.78
   7  -4  -4   18.58    0.78
   7  -4  -4   16.11    0.68
  -7   4   4   16.85    0.83
  -7   4   4   17.38    0.75
  -7   4   4   17.38    0.75
   6  -4  -4    7.22    0.47
   6  -4  -4    7.22    0.47
   6  -4  -4    7.35    0.42
  -6   4   4    7.09    0.53
  -6   4   4    6.82    0.46
  -6   4   4    6.82    0.46
   5  -4  -4  448.78    6.72
   5  -4  -4  448.78    6.72
   5  -4  -4  448.71    6.54
  -5   4   4  440.63    6.72
  -5   4   4  440.63    6.72
   4  -4  -4    9.75    0.65
   4  -4  -4   10.62    0.49
   4  -4  -4   10.62    0.49
   4  -4  -4   10.69    0.39
  -4   4   4   10.71    0.49
  -4   4   4    9.59    0.65
  -4   4   4   10.71    0.49
   3  -4  -4  402.21    6.39
   3  -4  -4  390.21    5.48
   3  -4  -4  384.36    5.80
   3  -4  -4  384.36    5.80
   3  -4  -4  390.54    5.58
  -3   4   4  393.19    6.36
   2  -4  -4   49.80    1.37
   2  -4  -4   52.38    0.86
   2  -4  -4   52.01    1.10
   2  -4  -4   52.01    1.10
   2  -4  -4   52.42    0.92
  -2   4   4   51.97    1.40
   1  -4  -4  245.26    3.61
   1  -4  -4  256.13    4.19
   1  -4  -4  254.45    3.80
   1  -4  -4  254.45    3.80
   1  -4  -4  245.23    3.54
  -1   4   4  256.76    4.20
  -1   4   4  247.39    5.79
   0  -4  -4  192.74    2.83
   0  -4  -4  190.74    2.90
   0  -4  -4  198.11    3.03
   0  -4  -4  204.59    2.72
   0  -4  -4  198.11    3.03
   0  -4  -4  192.68    2.91
   0  -4  -4  204.59    2.72
   0   4   4  197.54    3.33
   0   4   4  192.66    4.35
   0   4   4  196.96    3.35
  -1  -4  -4    1.57    0.17
  -1  -4  -4    1.90    0.10
  -1  -4  -4    1.57    0.17
  -1  -4  -4    1.69    0.15
  -1  -4  -4    1.90    0.10
  -1  -4  -4    1.55    0.38
   1   4   4    1.92    0.23
   1   4   4    2.47    0.50
   1   4   4    1.86    0.26
  -2  -4  -4  159.33    3.59
  -2  -4  -4  151.74    2.28
  -2  -4  -4  158.23    2.44
  -2  -4  -4  151.74    2.28
  -2  -4  -4  155.64    2.51
  -2  -4  -4  158.23    2.44
   2   4   4  157.27    3.65
   2   4   4  153.53    2.29
   2   4   4  159.26    3.09
   2   4   4  155.21    2.70
  -3  -4  -4   90.25    2.49
  -3  -4  -4   87.66    1.35
  -3  -4  -4   86.85    1.63
  -3  -4  -4   87.76    1.41
  -3  -4  -4   87.76    1.41
  -3  -4  -4   87.34    1.50
  -3  -4  -4   87.34    1.50
   3   4   4   89.40    2.21
   3   4   4   85.55    1.75
   3   4   4   86.08    2.46
  -4  -4  -4   78.18    1.36
  -4  -4  -4   78.94    1.27
  -4  -4  -4   82.65    1.63
  -4  -4  -4   81.15    2.38
  -4  -4  -4   83.36    1.45
  -4  -4  -4   79.96    1.37
  -4  -4  -4   78.18    1.36
  -4  -4  -4   83.36    1.45
   4   4   4   82.52    2.24
   4   4   4   82.23    1.74
   4   4   4   81.40    1.46
   4   4   4   80.15    2.34
  -5  -4  -4  170.48    2.68
  -5  -4  -4  170.79    2.63
  -5  -4  -4  162.26    2.63
  -5  -4  -4  178.46    2.74
  -5  -4  -4  162.26    2.63
  -5  -4  -4  173.60    2.99
  -5  -4  -4  178.46    2.74
  -5  -4  -4  174.42    3.86
   5   4   4  171.24    3.80
   5   4   4  166.68    2.74
   5   4   4  172.27    3.12
   5   4   4  169.37    3.73
  -6  -4  -4   59.15    1.22
  -6  -4  -4   60.25    1.22
  -6  -4  -4   59.54    1.17
  -6  -4  -4   59.54    1.17
  -6  -4  -4   59.79    1.19
  -6  -4  -4   59.15    1.22
   6   4   4   59.05    1.58
   6   4   4   60.93    1.26
   6   4   4   60.53    2.10
  -7  -4  -4    8.08    0.41
  -7  -4  -4    8.08    0.41
  -7  -4  -4    8.45    0.42
  -7  -4  -4    8.89    0.41
   7   4   4    9.37    0.63
   7   4   4    8.78    0.43
  -8  -4  -4   13.23    0.56
  -8  -4  -4   12.83    0.55
  -8  -4  -4   12.83    0.55
   8   4   4   13.39    0.55
  -9  -4  -4   27.61    0.89
  -9  -4  -4   27.61    0.89
  -9  -4  -4   28.45    0.91
   9   4   4   27.80    0.84
   9   4   4   29.44    0.84
   9   4   4   29.44    0.84
 -10  -4  -4  115.28    2.34
 -10  -4  -4  116.53    2.32
 -10  -4  -4  116.53    2.32
  10   4   4  114.38    2.15
  10   4   4  115.13    2.19
  10   4   4  115.13    2.19
 -11  -4  -4   51.61    1.43
 -11  -4  -4   51.61    1.43
 -11  -4  -4   52.80    1.46
  11   4   4   54.19    1.33
  11   4   4   54.19    1.33
   8  -5  -4    9.19    0.55
   8  -5  -4    8.49    0.60
   8  -5  -4    8.49    0.60
  -8   5   4    9.15    0.71
  -8   5   4    9.05    0.63
  -8   5   4    9.05    0.63
   7  -5  -4   11.82    0.66
   7  -5  -4   12.56    0.59
   7  -5  -4   11.82    0.66
  -7   5   4   12.42    0.66
  -7   5   4   12.56    0.75
  -7   5   4   12.42    0.66
   6  -5  -4    2.59    0.36
   6  -5  -4    2.59    0.36
  -6   5   4    3.23    0.39
  -6   5   4    3.21    0.42
  -6   5   4    3.23    0.39
   5  -5  -4   18.76    0.72
   5  -5  -4   18.76    0.72
   5  -5  -4   19.68    0.60
  -5   5   4   18.97    0.81
  -5   5   4   18.57    0.72
  -5   5   4   18.57    0.72
   4  -5  -4   46.27    1.16
   4  -5  -4   50.89    1.61
   4  -5  -4   46.27    1.16
   4  -5  -4   47.84    0.97
  -4   5   4   46.21    1.17
  -4   5   4   46.21    1.17
  -4   5   4   47.75    1.56
   3  -5  -4  502.63    6.99
   3  -5  -4  494.43    7.40
   3  -5  -4  494.43    7.40
   3  -5  -4  518.68    8.05
   3  -5  -4  503.07    7.08
  -3   5   4  514.97    8.06
   2  -5  -4  241.78    3.79
   2  -5  -4  243.51    4.27
   2  -5  -4  238.76    3.48
   2  -5  -4  238.75    3.41
   2  -5  -4  249.15    3.61
   2  -5  -4  241.78    3.79
  -2   5   4  242.10    4.28
   1  -5  -4   29.24    0.74
   1  -5  -4   28.45    0.51
   1  -5  -4   28.55    0.97
   1  -5  -4   28.45    0.56
   1  -5  -4   29.24    0.74
  -1   5   4   29.01    0.98
   0  -5  -4  321.95    6.26
   0  -5  -4  317.82    4.73
   0  -5  -4  317.82    4.73
   0  -5  -4  315.92    4.56
   0   5   4  322.70    5.13
   0   5   4  321.61    5.02
  -1  -5  -4    0.63    0.12
  -1  -5  -4    0.66    0.11
  -1  -5  -4    0.92    0.06
  -1  -5  -4    0.63    0.12
  -1  -5  -4    0.92    0.06
   1   5   4    0.76    0.18
   1   5   4    0.62    0.19
  -2  -5  -4  126.50    3.30
  -2  -5  -4  122.46    1.82
  -2  -5  -4  124.25    2.02
  -2  -5  -4  124.25    2.02
  -2  -5  -4  122.46    1.82
  -2  -5  -4  120.94    2.06
   2   5   4  120.50    2.60
   2   5   4  121.87    2.29
  -3  -5  -4   15.51    0.54
  -3  -5  -4   15.28    0.38
  -3  -5  -4   16.14    1.06
  -3  -5  -4   15.28    0.38
   3   5   4   15.23    0.84
   3   5   4   16.70    0.65
  -4  -5  -4   78.97    1.41
  -4  -5  -4   75.72    2.45
  -4  -5  -4   75.49    1.31
  -4  -5  -4   78.17    1.23
  -4  -5  -4   78.97    1.41
  -4  -5  -4   75.49    1.31
  -4  -5  -4   78.14    1.58
   4   5   4   75.79    1.68
   4   5   4   77.85    2.21
  -5  -5  -4  327.05    4.85
  -5  -5  -4  327.64    4.74
  -5  -5  -4  328.76    4.75
  -5  -5  -4  328.76    4.75
  -5  -5  -4  327.05    4.85
  -5  -5  -4  331.68    5.14
  -5  -5  -4  323.80    6.37
   5   5   4  320.77    6.10
   5   5   4  326.49    5.27
   5   5   4  321.15    4.89
  -6  -5  -4   43.78    1.22
  -6  -5  -4   43.28    0.95
  -6  -5  -4   44.21    0.94
  -6  -5  -4   43.29    0.99
  -6  -5  -4   43.64    1.83
  -6  -5  -4   44.21    0.94
  -6  -5  -4   43.29    0.99
   6   5   4   43.56    1.80
   6   5   4   43.41    1.32
   6   5   4   43.66    1.03
  -7  -5  -4   20.26    0.61
  -7  -5  -4   20.26    0.61
  -7  -5  -4   20.48    0.66
  -7  -5  -4   20.48    0.66
  -7  -5  -4   19.81    0.64
   7   5   4   20.77    0.95
   7   5   4   19.86    0.68
  -8  -5  -4    0.01    0.10
  -8  -5  -4    0.56    0.16
  -8  -5  -4    0.56    0.16
   8   5   4    0.25    0.14
  -9  -5  -4   15.08    0.64
  -9  -5  -4   14.72    0.64
  -9  -5  -4   15.08    0.64
   9   5   4   14.03    0.62
 -10  -5  -4    9.45    0.56
 -10  -5  -4    9.45    0.56
 -10  -5  -4    9.47    0.56
  10   5   4    9.87    0.53
 -11  -5  -4   52.65    1.42
 -11  -5  -4   51.04    1.43
 -11  -5  -4   52.65    1.42
  11   5   4   52.37    1.29
   8  -6  -4   25.74    1.06
   8  -6  -4   27.33    0.95
   8  -6  -4   25.74    1.06
  -8   6   4   27.90    1.09
  -8   6   4   28.91    1.24
  -8   6   4   27.90    1.09
   7  -6  -4    4.50    0.48
   7  -6  -4    6.19    0.41
   7  -6  -4    4.50    0.48
  -7   6   4    6.41    0.65
  -7   6   4    4.51    0.47
  -7   6   4    4.51    0.47
   6  -6  -4   16.44    0.74
   6  -6  -4   16.51    0.60
   6  -6  -4   16.44    0.74
  -6   6   4   16.18    0.74
  -6   6   4   16.65    0.83
  -6   6   4   16.18    0.74
   5  -6  -4    0.19    0.10
   5  -6  -4    0.20    0.17
   5  -6  -4    0.20    0.17
  -5   6   4   -0.15    0.14
  -5   6   4   -0.15    0.14
  -5   6   4   -0.04    0.15
   4  -6  -4  146.40    2.32
   4  -6  -4  148.64    2.67
   4  -6  -4  148.64    2.67
  -4   6   4  146.17    2.67
  -4   6   4  146.17    2.67
   3  -6  -4   77.54    1.63
   3  -6  -4   79.66    1.24
   3  -6  -4   77.54    1.63
   3  -6  -4   79.69    1.31
   3  -6  -4   80.78    2.10
  -3   6   4   82.47    2.12
   2  -6  -4  130.96    2.30
   2  -6  -4  129.47    1.88
   2  -6  -4  130.96    2.30
   2  -6  -4  129.47    1.94
   2  -6  -4  128.60    2.73
  -2   6   4  129.23    2.75
   1  -6  -4   45.04    1.04
   1  -6  -4   45.42    0.74
   1  -6  -4   45.40    0.79
   1  -6  -4   46.17    1.33
   1  -6  -4   48.56    0.89
   1  -6  -4   45.04    1.04
  -1   6   4   44.77    1.34
  -1   6   4   43.46    1.06
   0  -6  -4  142.45    2.39
   0  -6  -4  142.41    2.19
   0  -6  -4  142.45    2.39
   0  -6  -4  149.12    3.90
   0   6   4  141.77    2.62
   0   6   4  143.03    2.76
  -1  -6  -4   47.52    1.99
  -1  -6  -4   47.34    1.00
  -1  -6  -4   47.34    1.00
  -1  -6  -4   45.67    0.93
   1   6   4   47.57    1.26
   1   6   4   45.76    1.32
  -2  -6  -4  226.68    5.07
  -2  -6  -4  221.49    3.39
  -2  -6  -4  219.29    3.11
  -2  -6  -4  221.49    3.39
  -2  -6  -4  219.29    3.11
  -2  -6  -4  222.10    3.42
   2   6   4  217.41    4.08
   2   6   4  218.99    3.72
  -3  -6  -4  182.00    2.84
  -3  -6  -4  176.58    2.63
  -3  -6  -4  182.00    2.84
  -3  -6  -4  184.06    4.44
  -3  -6  -4  176.58    2.63
  -3  -6  -4  180.33    2.96
   3   6   4  182.61    3.70
   3   6   4  176.93    3.16
  -4  -6  -4  504.72    7.08
  -4  -6  -4  504.72    7.08
  -4  -6  -4  509.06    7.24
  -4  -6  -4  509.06    7.24
  -4  -6  -4  505.86    7.47
  -4  -6  -4  506.69    9.19
   4   6   4  497.18    8.43
   4   6   4  497.50    7.64
  -5  -6  -4   42.74    1.95
  -5  -6  -4   43.65    0.76
  -5  -6  -4   42.40    0.95
  -5  -6  -4   42.01    0.87
  -5  -6  -4   42.01    0.87
  -5  -6  -4   43.67    1.16
  -5  -6  -4   42.40    0.95
   5   6   4   43.68    1.24
   5   6   4   42.17    1.70
  -6  -6  -4   67.56    3.57
  -6  -6  -4   70.33    1.32
  -6  -6  -4   71.08    1.40
  -6  -6  -4   71.08    1.40
  -6  -6  -4   71.22    1.28
  -6  -6  -4   70.82    1.67
  -6  -6  -4   70.33    1.32
   6   6   4   70.52    1.46
   6   6   4   66.69    2.36
   6   6   4   72.11    1.78
  -7  -6  -4  167.82    2.72
  -7  -6  -4  167.61    2.72
  -7  -6  -4  167.82    2.72
  -7  -6  -4  165.95    2.80
  -7  -6  -4  165.95    2.80
   7   6   4  166.15    2.89
  -8  -6  -4   36.05    0.90
  -8  -6  -4   34.11    0.92
  -8  -6  -4   36.05    0.90
  -8  -6  -4   34.22    0.95
  -8  -6  -4   34.22    0.95
   8   6   4   33.76    0.99
  -9  -6  -4    0.24    0.14
  -9  -6  -4    0.40    0.17
  -9  -6  -4    0.40    0.17
   9   6   4    0.24    0.15
 -10  -6  -4   92.19    1.96
 -10  -6  -4   92.19    1.96
 -10  -6  -4   95.12    1.96
  10   6   4   90.14    1.96
 -11  -6  -4    5.40    0.51
 -11  -6  -4    5.40    0.51
 -11  -6  -4    5.12    0.46
  11   6   4    5.00    0.44
   7  -7  -4    1.85    0.27
   7  -7  -4    1.20    0.31
   7  -7  -4    1.20    0.31
  -7   7   4    1.93    0.36
  -7   7   4    2.42    0.46
  -7   7   4    1.93    0.36
   6  -7  -4   23.03    0.92
   6  -7  -4   23.37    0.72
   6  -7  -4   23.03    0.92
  -6   7   4   24.37    1.05
  -6   7   4   22.41    0.91
  -6   7   4   22.41    0.91
   5  -7  -4   81.09    1.85
   5  -7  -4   81.85    1.51
   5  -7  -4   81.09    1.85
  -5   7   4   80.19    2.00
  -5   7   4   85.80    1.88
  -5   7   4   85.80    1.88
   4  -7  -4    0.89    0.12
   4  -7  -4    0.92    0.10
   4  -7  -4    0.46    0.19
   4  -7  -4    0.46    0.19
  -4   7   4    0.25    0.18
  -4   7   4    0.30    0.19
  -4   7   4    0.25    0.18
   3  -7  -4   80.25    1.22
   3  -7  -4   80.24    1.28
   3  -7  -4   79.07    1.69
   3  -7  -4   79.07    1.69
  -3   7   4   80.46    1.70
  -3   7   4   80.46    1.70
   2  -7  -4    2.02    0.37
   2  -7  -4    2.66    0.30
   2  -7  -4    2.66    0.30
  -2   7   4    2.13    0.39
   1  -7  -4    7.12    0.23
   1  -7  -4    7.81    0.41
   1  -7  -4    7.81    0.41
  -1   7   4    7.86    0.58
  -1   7   4    7.11    0.39
   0  -7  -4    1.01    0.18
   0  -7  -4    1.01    0.18
   0  -7  -4    0.75    0.11
   0   7   4    0.99    0.22
   0   7   4    0.65    0.22
  -1  -7  -4   24.58    0.62
  -1  -7  -4   24.64    0.69
  -1  -7  -4   24.64    0.69
   1   7   4   26.29    0.93
   1   7   4   24.51    0.94
  -2  -7  -4  114.05    1.96
  -2  -7  -4  111.22    1.96
  -2  -7  -4  114.05    1.96
   2   7   4  112.89    2.28
   2   7   4  111.25    2.56
  -3  -7  -4  151.07    2.46
  -3  -7  -4  146.53    2.54
  -3  -7  -4  151.07    2.46
  -3  -7  -4  148.73    2.19
  -3  -7  -4  148.73    2.19
   3   7   4  147.24    2.78
   3   7   4  149.40    3.29
  -4  -7  -4   95.63    1.91
  -4  -7  -4   96.98    1.57
  -4  -7  -4   96.20    1.73
  -4  -7  -4   96.98    1.57
  -4  -7  -4   96.20    1.73
   4   7   4   99.00    2.65
   4   7   4   96.46    2.05
  -5  -7  -4   58.10    1.08
  -5  -7  -4   57.79    1.20
  -5  -7  -4   57.66    1.41
  -5  -7  -4   57.79    1.20
  -5  -7  -4   58.10    1.08
   5   7   4   53.61    2.01
   5   7   4   57.77    1.51
  -6  -7  -4   24.48    0.72
  -6  -7  -4   24.48    0.72
  -6  -7  -4   25.56    0.56
  -6  -7  -4   26.26    0.66
  -6  -7  -4   26.26    0.66
  -6  -7  -4   25.53    0.93
   6   7   4   25.15    0.98
  -7  -7  -4    2.69    0.29
  -7  -7  -4    2.59    0.20
  -7  -7  -4    2.36    0.23
  -7  -7  -4    2.69    0.29
  -7  -7  -4    2.79    0.39
  -7  -7  -4    2.36    0.23
  -8  -7  -4   75.02    1.58
  -8  -7  -4   73.36    1.49
  -8  -7  -4   73.36    1.49
  -8  -7  -4   75.02    1.58
  -8  -7  -4   74.70    1.45
   8   7   4   76.11    1.68
  -9  -7  -4    0.11    0.15
  -9  -7  -4   -0.08    0.11
  -9  -7  -4   -0.07    0.13
  -9  -7  -4    0.11    0.15
  -9  -7  -4   -0.07    0.13
   9   7   4   -0.01    0.14
 -10  -7  -4    5.14    0.40
 -10  -7  -4    5.93    0.47
 -10  -7  -4    5.93    0.47
  10   7   4    5.44    0.46
 -11  -7  -4    8.79    0.54
  11   7   4    8.16    0.56
   6  -8  -4   13.57    0.51
   6  -8  -4   13.56    0.44
   6  -8  -4   13.60    0.74
   6  -8  -4   13.60    0.74
  -6   8   4   12.90    0.72
  -6   8   4   13.43    0.82
  -6   8   4   12.90    0.72
   5  -8  -4   15.20    0.73
   5  -8  -4   15.20    0.73
   5  -8  -4   14.73    0.40
   5  -8  -4   14.74    0.47
  -5   8   4   14.37    0.80
  -5   8   4   13.59    0.70
  -5   8   4   13.59    0.70
   4  -8  -4    7.91    0.52
   4  -8  -4    7.91    0.52
   4  -8  -4    7.85    0.29
   4  -8  -4    7.85    0.24
  -4   8   4    7.66    0.57
  -4   8   4    7.33    0.50
  -4   8   4    7.33    0.50
   3  -8  -4   95.58    1.96
   3  -8  -4   95.58    1.96
  -3   8   4   95.21    2.09
  -3   8   4   92.98    1.95
  -3   8   4   92.98    1.95
   2  -8  -4    0.95    0.21
   2  -8  -4    0.95    0.21
   1  -8  -4    1.81    0.25
   1  -8  -4    1.81    0.25
  -1   8   4    1.51    0.21
  -1   8   4    1.76    0.35
   0  -8  -4   26.37    0.61
   0  -8  -4   27.51    0.78
   0  -8  -4   27.51    0.78
   0   8   4   25.76    1.02
   0   8   4   26.52    0.90
  -1  -8  -4   21.42    0.66
  -1  -8  -4   21.42    0.66
  -1  -8  -4   21.65    0.59
   1   8   4   20.52    0.89
   1   8   4   21.98    0.89
  -2  -8  -4   22.99    0.68
  -2  -8  -4   22.99    0.68
  -2  -8  -4   22.53    0.66
   2   8   4   22.89    1.03
   2   8   4   23.37    0.89
  -3  -8  -4   15.55    0.54
  -3  -8  -4   15.55    0.54
  -3  -8  -4   14.25    0.31
  -3  -8  -4   15.38    0.58
  -3  -8  -4   14.25    0.31
   3   8   4   15.54    0.92
   3   8   4   14.89    0.70
  -4  -8  -4    0.18    0.07
  -4  -8  -4    0.18    0.07
  -4  -8  -4   -0.17    0.10
   4   8   4    0.17    0.23
   4   8   4    0.09    0.16
  -5  -8  -4  115.28    1.86
  -5  -8  -4  115.28    1.86
  -5  -8  -4  112.79    2.28
   5   8   4  113.24    2.40
  -6  -8  -4    1.19    0.25
  -6  -8  -4    1.91    0.20
  -6  -8  -4    1.91    0.20
   6   8   4    1.57    0.30
  -7  -8  -4  261.66    4.02
  -7  -8  -4  261.66    4.02
  -7  -8  -4  262.69    4.59
  -8  -8  -4   71.42    1.28
  -8  -8  -4   71.23    1.46
  -8  -8  -4   71.23    1.46
  -9  -8  -4    2.60    0.32
  -9  -8  -4    2.60    0.32
  -9  -8  -4    2.83    0.27
   9   8   4    2.39    0.34
 -10  -8  -4   33.07    0.99
 -10  -8  -4   33.07    0.99
 -10  -8  -4   33.86    0.92
  10   8   4   33.31    1.12
 -11  -8  -4    0.60    0.21
   5  -9  -4   95.68    1.51
   5  -9  -4   95.74    1.60
   5  -9  -4   96.94    2.17
   5  -9  -4   96.94    2.17
  -5   9   4   96.64    2.34
  -5   9   4   95.96    2.16
  -5   9   4   95.96    2.16
   4  -9  -4   -0.13    0.18
   4  -9  -4   -0.13    0.18
  -4   9   4    0.41    0.24
  -4   9   4    0.08    0.19
  -4   9   4    0.08    0.19
   3  -9  -4   45.21    1.24
   3  -9  -4   45.21    1.24
  -3   9   4   43.60    1.51
  -3   9   4   45.78    1.25
  -3   9   4   45.78    1.25
   2  -9  -4    2.15    0.41
   2  -9  -4    2.15    0.41
  -2   9   4    2.40    0.48
  -2   9   4    2.40    0.48
   1  -9  -4   45.38    0.82
  -1   9   4   45.34    1.04
   0   9   4    0.53    0.19
  -1  -9  -4   15.69    0.51
   1   9   4   15.20    0.78
  -2  -9  -4   19.00    0.62
   2   9   4   20.00    1.00
  -3  -9  -4   89.52    1.79
  -4  -9  -4   11.59    0.57
  -4  -9  -4   11.26    0.30
  -4  -9  -4   11.26    0.30
  -5  -9  -4    3.40    0.21
  -5  -9  -4    3.30    0.36
  -5  -9  -4    3.40    0.21
  -6  -9  -4    8.67    0.36
  -6  -9  -4    7.87    0.55
  -6  -9  -4    8.67    0.36
  -7  -9  -4   88.55    2.14
  -7  -9  -4   89.96    1.65
  -7  -9  -4   89.96    1.65
  -8  -9  -4    2.34    0.26
  -8  -9  -4    2.34    0.26
  -9  -9  -4    0.93    0.21
  -9  -9  -4    0.93    0.21
 -10  -9  -4   50.98    1.28
 -10  -9  -4   50.98    1.28
  10   9   4   49.98    1.46
   0 -10  -4    1.97    0.19
  -1 -10  -4   27.09    0.73
  -2 -10  -4   98.71    1.87
  -3 -10  -4    9.54    0.49
  -4 -10  -4   39.49    1.13
  -5 -10  -4   81.44    1.34
  -5 -10  -4   82.73    1.90
  -5 -10  -4   81.44    1.34
  -6 -10  -4    1.98    0.34
  -6 -10  -4    1.88    0.19
  -6 -10  -4    1.88    0.19
  -7 -10  -4   39.79    0.92
  -7 -10  -4   39.79    0.92
  -7 -10  -4   39.89    1.35
  -8 -10  -4    0.12    0.13
  -8 -10  -4    0.12    0.13
  -8 -10  -4    0.39    0.26
  -9 -10  -4    0.78    0.20
  -9 -10  -4    0.78    0.20
   0 -11  -4   11.18    0.41
  -1 -11  -4  114.82    2.04
  -2 -11  -4    5.08    0.36
  -3 -11  -4   -0.01    0.13
  -4 -11  -4    3.13    0.37
  -5 -11  -4    0.10    0.16
  -6 -11  -4    0.26    0.09
  -6 -11  -4    0.26    0.09
  -6 -11  -4    0.34    0.20
  -7 -11  -4   29.88    0.73
  -7 -11  -4   28.05    1.16
  -7 -11  -4   29.88    0.73
  -8 -11  -4    6.93    0.38
  -8 -11  -4    8.78    0.71
  -8 -11  -4    6.93    0.38
   0 -12  -4   83.71    1.53
  -1 -12  -4    9.44    0.45
  -2 -12  -4   72.32    1.57
  -3 -12  -4   21.68    0.82
  -4 -12  -4   59.99    1.56
  -5 -12  -4   24.92    0.99
  -6 -12  -4    1.50    0.34
  -7 -12  -4    0.42    0.11
  -7 -12  -4    0.42    0.11
  -7 -12  -4    0.31    0.24
  -5 -11   5   11.64    0.43
  -5 -11   5   11.11    0.80
  -5 -11   5   11.64    0.43
  -4 -11   5    0.21    0.09
  -4 -11   5    0.21    0.09
  -4 -11   5    0.21    0.25
  -3 -11   5    0.10    0.23
  -2 -11   5   60.43    1.70
  -1 -11   5    1.71    0.35
  -7 -10   5   28.17    0.84
  -7 -10   5   28.17    0.84
  -6 -10   5    7.47    0.41
  -6 -10   5    7.47    0.41
  -6 -10   5    7.05    0.69
  -5 -10   5    7.29    0.65
  -5 -10   5    7.52    0.37
  -5 -10   5    7.52    0.37
  -4 -10   5    9.10    0.36
  -4 -10   5    9.10    0.36
  -4 -10   5    9.57    0.69
  -3 -10   5   21.00    0.95
  -3 -10   5   19.30    0.48
  -3 -10   5   19.30    0.48
  -2 -10   5   25.55    1.03
  -1 -10   5    0.10    0.20
   0 -10   5   18.56    0.84
   1 -10   5    0.09    0.19
   2 -10   5    3.18    0.42
  -8  -9   5    0.05    0.15
  -8  -9   5    0.05    0.15
  -7  -9   5   34.95    0.96
  -7  -9   5   34.95    0.96
  -6  -9   5   34.13    0.90
  -6  -9   5   34.13    0.90
  -6  -9   5   33.11    1.31
  -5  -9   5   90.80    2.22
  -5  -9   5   87.21    1.65
  -5  -9   5   87.21    1.65
  -4  -9   5   17.43    0.54
  -4  -9   5   17.43    0.54
  -4  -9   5   16.74    0.85
  -3  -9   5   22.56    0.58
  -3  -9   5   23.03    0.96
  -3  -9   5   22.56    0.58
  -2  -9   5    0.99    0.26
  -2  -9   5    1.08    0.13
  -2  -9   5    1.08    0.13
  -1  -9   5    0.30    0.19
   0  -9   5   53.71    1.44
   1  -9   5   27.39    0.97
   2  -9   5   13.11    0.69
   3  -9   5  113.79    2.40
   4  -9   5    0.57    0.24
  -9  -8   5   25.56    0.88
  -9  -8   5   25.56    0.88
  -9  -8   5   26.43    0.80
  -8  -8   5   23.56    0.79
  -8  -8   5   23.18    0.68
  -8  -8   5   23.56    0.79
  -7  -8   5    3.14    0.32
  -7  -8   5    3.14    0.32
  -6  -8   5    2.72    0.27
  -6  -8   5    2.72    0.27
  -5  -8   5  178.83    2.93
  -5  -8   5  185.26    3.54
  -5  -8   5  178.83    2.93
  -4  -8   5    0.53    0.14
  -4  -8   5    0.45    0.21
  -4  -8   5    0.53    0.14
  -3  -8   5    5.81    0.29
  -3  -8   5    5.66    0.48
  -3  -8   5    5.81    0.29
  -2  -8   5    0.97    0.13
  -2  -8   5    1.42    0.28
  -2  -8   5    0.97    0.13
  -1  -8   5    1.21    0.25
  -1  -8   5    1.62    0.13
  -1  -8   5    1.62    0.13
   0  -8   5    5.75    0.44
   1  -8   5    2.36    0.34
   2  -8   5    1.83    0.31
   3  -8   5   51.44    1.40
   4  -8   5   19.78    0.85
   5  -8   5    0.05    0.18
 -10  -7   5    5.01    0.43
  -9  -7   5    0.98    0.22
  -8  -7   5    0.32    0.17
  -8  -7   5    0.13    0.13
  -8  -7   5    0.32    0.17
  -7  -7   5    0.68    0.18
  -7  -7   5    0.68    0.18
  -7  -7   5    0.21    0.11
  -6  -7   5   11.61    0.49
  -6  -7   5   11.61    0.49
  -6  -7   5   11.68    0.42
  -5  -7   5    0.50    0.14
  -5  -7   5    0.88    0.11
  -5  -7   5    1.06    0.27
  -5  -7   5    0.50    0.14
  -4  -7   5  128.76    2.15
  -4  -7   5  127.34    2.60
  -4  -7   5  128.76    2.15
  -3  -7   5  269.15    5.46
  -3  -7   5  268.19    3.99
  -3  -7   5  268.19    3.99
  -3  -7   5  262.93    4.48
   2   7  -5  184.03    3.05
  -2  -7   5  189.23    2.87
  -2  -7   5  189.23    2.87
  -2  -7   5  190.35    3.36
  -2  -7   5  185.49    3.76
  -1  -7   5  119.63    1.89
  -1  -7   5  118.66    2.34
  -1  -7   5  119.63    1.89
  -1  -7   5  121.79    2.74
   0  -7   5   69.51    1.14
   0  -7   5   69.51    1.14
   0  -7   5   69.09    1.58
   1  -7   5    9.08    0.22
   1  -7   5    9.08    0.22
   1  -7   5    8.38    0.50
   2  -7   5  141.86    2.66
   3  -7   5    0.42    0.19
   4  -7   5    0.55    0.22
   5  -7   5   88.56    2.03
   6  -7   5    6.36    0.53
 -10  -6   5    2.44    0.34
  -9  -6   5    3.49    0.38
  -8  -6   5   27.54    0.87
  -7  -6   5   21.42    0.71
  -7  -6   5   22.36    0.72
  -7  -6   5   22.36    0.72
  -6  -6   5    1.61    0.21
  -6  -6   5    1.39    0.21
  -6  -6   5    1.39    0.21
  -5  -6   5  230.89    3.57
  -5  -6   5  230.89    3.57
  -5  -6   5  227.13    3.50
  -5  -6   5  226.21    4.04
  -4  -6   5   26.80    0.60
  -4  -6   5   26.72    0.70
  -4  -6   5   27.93    1.17
  -4  -6   5   26.15    0.95
  -4  -6   5   26.72    0.70
   3   6  -5   67.85    1.41
  -3  -6   5   68.87    1.27
  -3  -6   5   68.61    1.61
  -3  -6   5   68.87    1.27
  -3  -6   5   67.87    1.88
   2   6  -5  231.96    3.67
  -2  -6   5  235.29    3.52
  -2  -6   5  235.29    3.52
  -2  -6   5  237.40    4.31
  -2  -6   5  240.09    3.96
   1   6  -5   11.12    0.43
  -1  -6   5   11.12    0.36
  -1  -6   5   11.29    0.67
  -1  -6   5   12.03    0.57
  -1  -6   5   11.12    0.36
   0  -6   5  280.60    4.57
   0  -6   5  290.70    4.13
   0  -6   5  290.70    4.13
   1  -6   5   51.14    1.27
   1  -6   5   52.83    0.91
   1  -6   5   52.83    0.91
   2  -6   5   78.71    1.20
   2  -6   5   76.20    1.67
   2  -6   5   78.71    1.20
   3  -6   5   65.94    1.55
   4  -6   5    0.17    0.16
   5  -6   5    0.56    0.22
   6  -6   5    1.24    0.29
   7  -6   5    7.72    0.60
 -10  -5   5   21.77    0.88
  -9  -5   5    3.17    0.37
  -8  -5   5    0.43    0.18
  -7  -5   5    0.61    0.17
  -6  -5   5    2.06    0.24
  -6  -5   5    2.20    0.24
  -6  -5   5    2.20    0.24
  -5  -5   5  348.79    5.20
  -5  -5   5  353.69    5.22
  -5  -5   5  348.79    5.20
  -5  -5   5  352.52    6.05
   4   5  -5   11.74    0.49
  -4  -5   5   10.80    0.40
  -4  -5   5   11.30    0.59
  -4  -5   5   11.85    0.71
  -4  -5   5   11.80    0.42
  -4  -5   5   11.80    0.42
   3   5  -5  133.83    2.30
  -3  -5   5  135.59    2.53
  -3  -5   5  137.39    2.11
  -3  -5   5  135.92    2.18
  -3  -5   5  135.92    2.18
  -3  -5   5  131.70    2.80
   2   5  -5  111.43    1.95
  -2  -5   5  110.23    2.16
  -2  -5   5  112.93    1.84
  -2  -5   5  112.93    1.84
  -2  -5   5  113.61    2.42
  -2  -5   5  115.37    1.64
   1   5  -5    8.71    0.36
  -1  -5   5    8.75    0.31
  -1  -5   5    8.75    0.31
  -1  -5   5    8.23    0.46
  -1  -5   5    8.12    0.85
  -1  -5   5    9.00    0.54
   0   5  -5   36.39    0.79
   0  -5   5   35.59    1.08
   0  -5   5   35.35    0.96
   0  -5   5   34.01    1.63
   0  -5   5   35.44    0.71
   0  -5   5   35.44    0.71
   1  -5   5   19.11    0.45
   1  -5   5   19.11    1.18
   1  -5   5   18.98    0.68
   1  -5   5   19.11    0.45
   2  -5   5  162.98    2.41
   2  -5   5  161.22    2.85
   2  -5   5  162.98    2.41
   3  -5   5   45.65    0.80
   3  -5   5   45.65    0.80
   3  -5   5   45.23    1.19
   4  -5   5   54.01    0.88
   4  -5   5   54.01    0.88
   4  -5   5   52.54    1.36
   5  -5   5  106.92    2.25
   6  -5   5    8.94    0.59
   7  -5   5   18.51    0.87
   8  -5   5   -0.17    0.17
  11   4  -5    0.77    0.23
  11   4  -5    0.77    0.23
 -11  -4   5    0.57    0.25
  10   4  -5   11.84    0.58
  10   4  -5   11.84    0.58
 -10  -4   5   11.78    0.67
   9   4  -5   46.26    1.15
   9   4  -5   46.26    1.15
  -9  -4   5   46.17    1.27
  -8  -4   5   21.14    0.77
   7   4  -5    0.34    0.24
   7   4  -5    0.34    0.24
  -7  -4   5    0.70    0.18
  -6  -4   5   24.49    1.41
  -6  -4   5   27.59    0.79
  -5  -4   5   16.27    0.84
  -5  -4   5   20.30    0.61
  -4  -4   5    0.09    0.08
  -4  -4   5    0.17    0.17
  -4  -4   5    0.09    0.08
  -4  -4   5    0.20    0.09
  -4  -4   5    0.25    0.16
   3   4  -5    4.69    0.29
  -3  -4   5    5.61    0.27
  -3  -4   5    5.81    0.27
  -3  -4   5    5.81    0.27
  -3  -4   5    5.47    0.44
   2   4  -5   36.63    0.85
  -2  -4   5   37.19    0.99
  -2  -4   5   37.62    0.77
  -2  -4   5   37.62    0.77
  -2  -4   5   37.03    0.74
  -2  -4   5   35.66    1.11
   1   4  -5   22.41    0.59
  -1  -4   5   21.17    0.70
  -1  -4   5   22.09    0.80
  -1  -4   5   22.09    0.53
  -1  -4   5   22.09    0.53
  -1  -4   5   21.96    0.44
   0   4  -5   73.98    1.32
   0  -4   5   70.06    2.26
   0  -4   5   74.63    1.25
   0  -4   5   74.22    1.51
   0  -4   5   72.33    1.59
   0  -4   5   74.63    1.25
  -1   4  -5    5.61    0.26
   1  -4   5    6.37    0.24
   1  -4   5    5.40    0.59
   1  -4   5    5.94    0.36
   1  -4   5    5.61    0.35
   1  -4   5    6.37    0.24
  -2   4  -5   13.03    0.40
   2  -4   5   12.63    0.55
   2  -4   5   12.98    0.36
   2  -4   5   12.81    0.86
   2  -4   5   12.98    0.36
  -3   4  -5   12.83    0.46
  -3   4  -5   12.83    0.46
   3  -4   5   14.34    0.60
   3  -4   5   12.87    0.36
   3  -4   5   12.87    0.36
  -4   4  -5   41.32    0.94
  -4   4  -5   41.32    0.94
   4  -4   5   41.55    0.78
   4  -4   5   41.99    1.15
   4  -4   5   41.55    0.78
  -5   4  -5  231.34    3.69
  -5   4  -5  231.34    3.69
   5  -4   5  237.68    3.40
   5  -4   5  237.68    3.40
   5  -4   5  231.08    4.01
  -6   4  -5   38.80    1.03
  -6   4  -5   38.80    1.03
   6  -4   5   39.11    1.22
   6  -4   5   39.47    0.73
   6  -4   5   39.47    0.73
  -7   4  -5  118.89    2.29
  -7   4  -5  118.89    2.29
   7  -4   5  119.86    1.80
   7  -4   5  117.03    2.54
   7  -4   5  119.86    1.80
  -8   4  -5   27.46    0.96
  -8   4  -5   27.46    0.96
   8  -4   5   28.76    1.13
  11   3  -5   -0.06    0.14
  11   3  -5   -0.06    0.14
  10   3  -5   15.25    0.62
  10   3  -5   15.25    0.62
 -10  -3   5   13.39    0.77
   9   3  -5    1.07    0.20
   9   3  -5    1.07    0.20
  -9  -3   5    1.41    0.28
   8   3  -5  206.02    3.38
   8   3  -5  206.02    3.38
  -8  -3   5  216.45    3.58
   7   3  -5    3.50    0.30
   7   3  -5    3.50    0.30
  -7  -3   5    3.05    0.32
   6   3  -5  441.92    6.45
   6   3  -5  441.92    6.45
  -6  -3   5  434.73    7.21
  -6  -3   5  455.03    6.59
   5   3  -5  150.22    2.40
   5   3  -5  146.57    2.71
   5   3  -5  150.22    2.40
  -5  -3   5  145.67    2.72
  -5  -3   5  143.63    2.96
  -5  -3   5  144.29    2.47
   4   3  -5    1.01    0.14
   4   3  -5    1.34    0.20
   4   3  -5    1.01    0.14
  -4  -3   5    2.07    0.20
  -4  -3   5    2.78    0.22
  -4  -3   5    1.37    0.21
  -4  -3   5    2.78    0.22
  -4  -3   5    1.27    0.26
   3   3  -5   98.82    1.75
   3   3  -5  102.73    1.77
  -3  -3   5  107.31    2.16
  -3  -3   5   99.45    1.75
  -3  -3   5   98.53    1.94
  -3  -3   5   99.02    1.67
  -3  -3   5   99.02    1.67
  -3  -3   5   98.95    1.72
  -3  -3   5  100.42    2.13
   2   3  -5    0.69    0.13
  -2  -3   5    0.52    0.10
  -2  -3   5    0.77    0.11
  -2  -3   5    0.52    0.10
  -2  -3   5    0.45    0.09
  -2  -3   5    0.51    0.14
  -2  -3   5    0.43    0.08
  -2  -3   5    0.45    0.16
   1   3  -5   36.71    0.71
   1   3  -5   37.13    0.80
  -1  -3   5   35.51    0.72
  -1  -3   5   35.90    0.69
  -1  -3   5   36.51    0.74
  -1  -3   5   36.51    0.74
  -1  -3   5   36.61    0.67
  -1  -3   5   37.02    0.93
  -1  -3   5   36.57    1.01
   0   3  -5   55.13    1.05
   0   3  -5   55.05    1.00
   0  -3   5   54.46    0.99
   0  -3   5   56.03    0.93
   0  -3   5   54.91    1.21
   0  -3   5   57.57    1.00
   0  -3   5   54.46    0.99
   0  -3   5   55.09    1.25
  -1   3  -5   17.03    0.46
  -1   3  -5   16.92    0.49
  -1   3  -5   17.03    0.46
  -1   3  -5   16.93    0.47
   1  -3   5   16.67    0.50
   1  -3   5   16.83    0.56
   1  -3   5   16.44    0.42
   1  -3   5   17.43    0.60
   1  -3   5   16.44    0.42
  -2   3  -5  189.60    2.79
  -2   3  -5  189.60    2.79
  -2   3  -5  187.04    2.82
   2  -3   5  183.11    2.75
   2  -3   5  183.11    2.75
   2  -3   5  187.15    3.11
   2  -3   5  189.49    3.07
   2  -3   5  172.66    3.70
  -3   3  -5   83.74    1.47
  -3   3  -5   85.13    1.48
  -3   3  -5   83.74    1.47
   3  -3   5   84.36    1.79
   3  -3   5   85.19    1.40
   3  -3   5   84.28    1.74
   3  -3   5   85.19    1.40
  -4   3  -5   76.89    1.43
  -4   3  -5   76.45    1.41
  -4   3  -5   76.89    1.43
   4  -3   5   78.32    1.82
   4  -3   5   77.29    1.30
   4  -3   5   77.29    1.30
   4  -3   5   74.77    1.67
  -5   3  -5   24.40    0.70
  -5   3  -5   24.40    0.70
   5  -3   5   22.66    0.55
   5  -3   5   22.66    0.55
   5  -3   5   24.12    1.00
   5  -3   5   21.69    0.83
  -6   3  -5   31.00    0.88
  -6   3  -5   31.00    0.88
   6  -3   5   31.75    0.69
   6  -3   5   31.75    0.69
   6  -3   5   32.33    1.08
  -7   3  -5   10.43    0.54
  -7   3  -5   10.43    0.54
   7  -3   5   11.84    0.38
   7  -3   5   10.96    0.66
   7  -3   5   11.84    0.38
  -8   3  -5   22.27    0.84
  -8   3  -5   22.27    0.84
   8  -3   5   21.30    0.54
   8  -3   5   22.19    0.99
   8  -3   5   21.30    0.54
  -9   3  -5    6.67    0.53
  -9   3  -5    6.67    0.53
   9  -3   5    6.40    0.27
   9  -3   5    6.40    0.27
   9  -3   5    7.03    0.64
  11   2  -5    0.21    0.37
  11   2  -5    0.32    0.18
  11   2  -5    0.21    0.37
  11   2  -5    0.32    0.18
  10   2  -5    7.55    0.54
  10   2  -5    8.35    0.45
  10   2  -5    8.35    0.45
  10   2  -5    7.55    0.54
 -10  -2   5    8.19    0.54
 -10  -2   5    8.19    0.54
   9   2  -5    2.55    0.32
   9   2  -5    2.55    0.32
   9   2  -5    2.29    0.27
   9   2  -5    2.29    0.27
  -9  -2   5    2.26    0.31
  -9  -2   5    2.26    0.31
   8   2  -5   33.80    0.96
   8   2  -5   34.24    0.88
   8   2  -5   34.24    0.88
   8   2  -5   33.80    0.96
  -8  -2   5   33.91    0.95
  -8  -2   5   33.91    0.95
   7   2  -5  184.20    3.41
   7   2  -5  182.00    2.96
   7   2  -5  182.00    2.96
   7   2  -5  186.78    3.67
   7   2  -5  189.10    3.08
   7   2  -5  189.10    3.08
   7   2  -5  184.26    3.14
  -7  -2   5  182.18    3.05
  -7  -2   5  189.14    3.70
  -7  -2   5  182.18    3.05
  -7  -2   5  182.15    3.12
   6   2  -5   61.40    1.64
   6   2  -5   60.17    1.20
   6   2  -5   60.46    1.32
   6   2  -5   61.22    1.26
   6   2  -5   60.47    1.50
   6   2  -5   60.17    1.20
   6   2  -5   61.22    1.26
  -6  -2   5   60.87    1.31
  -6  -2   5   59.45    1.23
  -6  -2   5   59.99    1.64
  -6  -2   5   62.07    1.71
  -6  -2   5   59.45    1.23
   5   2  -5  237.91    3.62
   5   2  -5  238.32    4.06
   5   2  -5  234.80    3.59
   5   2  -5  240.18    3.73
   5   2  -5  234.80    3.59
   5   2  -5  237.91    3.62
   5   2  -5  240.08    3.96
  -5  -2   5  238.58    3.70
  -5  -2   5  237.35    4.07
  -5  -2   5  236.35    4.21
  -5  -2   5  234.86    3.60
  -5  -2   5  234.86    3.60
   4   2  -5    3.97    0.33
   4   2  -5    4.11    0.24
   4   2  -5    4.29    0.28
   4   2  -5    4.11    0.24
   4   2  -5    4.30    0.34
  -4  -2   5    4.28    0.27
  -4  -2   5    4.17    0.24
  -4  -2   5    4.17    0.24
  -4  -2   5    3.96    0.33
   3   2  -5    2.65    0.19
   3   2  -5    2.65    0.19
   3   2  -5    3.02    0.26
  -3  -2   5    3.44    0.22
  -3  -2   5    2.08    0.24
  -3  -2   5    2.74    0.25
   2   2  -5    1.76    0.16
  -2  -2   5    1.92    0.17
  -2  -2   5    1.71    0.15
  -2  -2   5    1.63    0.17
   1   2  -5   82.33    1.42
   1   2  -5   82.97    1.45
  -1  -2   5   80.15    1.43
  -1  -2   5   81.37    1.39
  -1  -2   5   82.85    1.40
   0   2  -5  515.93    7.18
   0   2  -5  492.31    7.19
   0  -2   5  505.71    7.10
   0  -2   5  510.38    7.11
   0  -2   5  505.71    7.10
   0  -2   5  510.56    8.07
   0  -2   5  511.45    7.39
  -1   2  -5    2.44    0.15
  -1   2  -5    2.44    0.15
  -1   2  -5    2.12    0.19
   1  -2   5    3.17    0.23
   1  -2   5    2.00    0.33
   1  -2   5    2.26    0.15
   1  -2   5    2.26    0.15
   1  -2   5    2.42    0.24
   1  -2   5    2.57    0.20
   1  -2   5    2.33    0.14
  -2   2  -5   11.15    0.34
  -2   2  -5   11.54    0.37
  -2   2  -5   11.15    0.34
   2  -2   5   10.91    0.49
   2  -2   5   10.79    0.45
   2  -2   5   10.75    0.33
   2  -2   5   10.75    0.33
   2  -2   5   10.74    0.36
   2  -2   5   11.37    0.27
  -3   2  -5   25.08    0.62
  -3   2  -5   25.59    0.61
  -3   2  -5   25.59    0.61
   3  -2   5   24.52    0.56
   3  -2   5   24.85    0.79
   3  -2   5   24.52    0.56
   3  -2   5   24.78    0.80
  -4   2  -5   76.65    1.42
  -4   2  -5   76.65    1.42
  -4   2  -5   78.02    1.42
   4  -2   5   76.13    1.32
   4  -2   5   77.42    1.78
   4  -2   5   76.13    1.32
   4  -2   5   76.36    1.68
  -5   2  -5   11.66    0.47
  -5   2  -5   11.66    0.47
  -5   2  -5   11.31    0.44
   5  -2   5   11.94    0.68
   5  -2   5   10.89    0.58
   5  -2   5   11.11    0.37
   5  -2   5   11.11    0.37
  -6   2  -5    0.69    0.18
  -6   2  -5    0.69    0.18
   6  -2   5    0.68    0.26
   6  -2   5    1.01    0.25
   6  -2   5    0.91    0.13
   6  -2   5    0.91    0.13
  -7   2  -5   28.39    0.87
  -7   2  -5   28.39    0.87
   7  -2   5   28.78    0.69
   7  -2   5   29.40    1.07
   7  -2   5   28.78    0.69
  -8   2  -5   72.48    1.64
  -8   2  -5   72.48    1.64
   8  -2   5   70.80    1.89
   8  -2   5   72.27    1.34
   8  -2   5   72.27    1.34
  -9   2  -5    0.08    0.21
  -9   2  -5    0.08    0.21
   9  -2   5    0.13    0.23
   9  -2   5    0.24    0.11
   9  -2   5    0.24    0.11
 -10   2  -5   25.50    1.00
 -10   2  -5   25.50    1.00
  10   1  -5    7.18    0.54
  10   1  -5    9.47    0.45
  10   1  -5    9.47    0.45
  10   1  -5    7.30    0.55
  10   1  -5    7.30    0.67
  10   1  -5    7.18    0.54
 -10  -1   5    7.33    0.54
 -10  -1   5    8.32    0.64
 -10  -1   5    7.33    0.54
   9   1  -5   11.49    0.60
   9   1  -5   10.72    0.47
   9   1  -5   11.49    0.60
   9   1  -5   10.65    0.59
   9   1  -5   10.64    0.71
   9   1  -5   10.72    0.47
  -9  -1   5   11.01    0.58
  -9  -1   5   11.01    0.58
  -9  -1   5   10.95    0.67
   8   1  -5   64.92    1.71
   8   1  -5   64.93    1.49
   8   1  -5   67.17    1.32
   8   1  -5   64.44    1.50
   8   1  -5   67.17    1.32
   8   1  -5   64.44    1.50
  -8  -1   5   63.26    1.47
  -8  -1   5   63.26    1.47
  -8  -1   5   67.41    1.63
   7   1  -5   21.79    0.62
   7   1  -5   23.55    1.07
   7   1  -5   22.80    0.88
   7   1  -5   21.79    0.62
   7   1  -5   24.11    0.66
   7   1  -5   22.78    0.74
   7   1  -5   22.12    0.74
   7   1  -5   22.12    0.74
  -7  -1   5   22.58    1.06
  -7  -1   5   22.72    0.74
  -7  -1   5   22.72    0.74
  -7  -1   5   21.79    1.00
   6   1  -5   72.90    1.45
   6   1  -5   70.40    1.64
   6   1  -5   71.40    1.87
   6   1  -5   69.72    1.32
   6   1  -5   70.39    1.45
   6   1  -5   72.90    1.45
   6   1  -5   69.72    1.32
  -6  -1   5   70.33    1.43
  -6  -1   5   72.04    1.87
  -6  -1   5   70.33    1.43
   5   1  -5    3.20    0.22
   5   1  -5    2.33    0.24
   5   1  -5    3.20    0.22
   5   1  -5    2.33    0.24
   5   1  -5    3.80    0.28
   5   1  -5    3.51    0.38
   5   1  -5    3.80    0.34
  -5  -1   5    3.19    0.25
  -5  -1   5    3.04    0.25
  -5  -1   5    3.04    0.25
  -5  -1   5    2.50    0.36
   4   1  -5   14.65    0.43
   4   1  -5   15.50    0.50
   4   1  -5   15.67    0.49
   4   1  -5   14.65    0.43
   4   1  -5   15.67    0.49
   4   1  -5   15.51    0.60
   4   1  -5   16.09    0.67
  -4  -1   5   15.40    0.48
  -4  -1   5   15.40    0.48
  -4  -1   5   15.93    0.66
   3   1  -5 1000.00   13.52
   3   1  -5  960.51   13.57
   3   1  -5 1000.00   13.52
   3   1  -5  986.60   13.48
   3   1  -5  986.60   13.48
  -3  -1   5  934.63   13.55
   2   1  -5   44.02    1.03
   2   1  -5   42.49    0.99
   2   1  -5   44.18    0.92
   2   1  -5   44.18    0.92
  -2  -1   5   42.78    0.99
  -2  -1   5   42.44    1.00
  -2  -1   5   43.68    0.87
   1   1  -5   61.05    1.24
   1   1  -5   64.87    1.13
  -1  -1   5   63.56    1.13
  -1  -1   5   61.58    1.20
   0   1  -5  209.49    3.29
   0   1  -5  212.46    3.19
   0  -1   5  218.29    3.96
   0  -1   5  213.74    3.25
   0  -1   5  213.35    3.17
  -1   1  -5  108.42    1.67
  -1   1  -5  108.42    1.67
  -1   1  -5  106.14    1.85
  -1   1  -5  106.29    1.74
   1  -1   5  103.28    1.69
   1  -1   5  104.58    1.82
   1  -1   5  105.70    2.39
   1  -1   5  106.85    1.66
  -2   1  -5  413.10    5.77
  -2   1  -5  409.91    5.82
  -2   1  -5  413.10    5.77
   2  -1   5  409.74    5.74
   2  -1   5  419.28    6.77
   2  -1   5  401.51    6.01
   2  -1   5  401.55    5.74
   2  -1   5  387.50    6.05
   2  -1   5  401.55    5.74
  -3   1  -5   33.86    0.73
  -3   1  -5   32.22    0.73
  -3   1  -5   33.86    0.73
   3  -1   5   32.92    0.64
   3  -1   5   31.20    0.67
   3  -1   5   31.20    0.67
   3  -1   5   33.03    0.59
   3  -1   5   32.86    0.93
   3  -1   5   31.78    0.91
  -4   1  -5   44.11    0.95
  -4   1  -5   44.11    0.95
  -4   1  -5   45.45    0.96
   4  -1   5   44.98    0.88
   4  -1   5   44.99    1.18
   4  -1   5   45.23    1.23
   4  -1   5   44.99    0.78
   4  -1   5   44.98    0.88
  -5   1  -5  145.00    2.42
  -5   1  -5  146.87    2.43
  -5   1  -5  145.00    2.42
   5  -1   5  143.73    2.72
   5  -1   5  144.33    2.29
   5  -1   5  144.33    2.29
   5  -1   5  146.56    2.90
  -6   1  -5   58.26    1.50
  -6   1  -5   58.70    1.27
  -6   1  -5   58.70    1.27
   6  -1   5   58.99    1.69
   6  -1   5   60.66    1.14
   6  -1   5   58.79    1.52
   6  -1   5   60.66    1.14
  -7   1  -5   15.18    0.61
  -7   1  -5   15.18    0.61
   7  -1   5   14.72    0.48
   7  -1   5   14.47    0.74
   7  -1   5   14.72    0.48
  -8   1  -5   55.45    1.36
  -8   1  -5   55.45    1.36
   8  -1   5   54.54    1.13
   8  -1   5   54.54    1.13
   8  -1   5   58.02    1.63
  -9   1  -5    0.26    0.20
  -9   1  -5    0.26    0.20
   9  -1   5    0.58    0.14
   9  -1   5    0.58    0.14
   9  -1   5    0.19    0.21
 -10   1  -5   55.26    1.50
 -10   1  -5   55.26    1.50
  10  -1   5   54.45    1.17
  10  -1   5   54.45    1.17
  10  -1   5   56.91    1.78
  10   0  -5    4.93    0.49
  10   0  -5    4.45    0.57
  10   0  -5    3.98    0.32
  10   0  -5    4.57    0.48
  10   0  -5    3.45    0.29
  10   0  -5    3.45    0.29
  10   0  -5    3.98    0.32
  10   0  -5    4.93    0.49
 -10   0   5    4.36    0.46
 -10   0   5    4.36    0.46
 -10   0   5    3.38    0.48
   9   0  -5    4.55    0.30
   9   0  -5    4.02    0.42
   9   0  -5    3.34    0.44
   9   0  -5    4.02    0.42
   9   0  -5    4.55    0.30
   9   0  -5    4.59    0.30
   9   0  -5    3.44    0.37
   9   0  -5    4.59    0.30
  -9   0   5    4.08    0.43
  -9   0   5    4.08    0.43
  -9   0   5    4.01    0.48
   8   0  -5   84.34    2.00
   8   0  -5   82.94    1.54
   8   0  -5   84.59    1.82
   8   0  -5   85.75    1.56
   8   0  -5   85.75    1.56
   8   0  -5   84.59    1.82
   8   0  -5   84.28    1.77
   8   0  -5   82.94    1.54
  -8   0   5   86.84    1.83
  -8   0   5   84.06    1.96
  -8   0   5   86.84    1.83
   7   0  -5   19.95    0.57
   7   0  -5   19.95    0.57
   7   0  -5   21.61    0.75
   7   0  -5   20.58    0.58
   7   0  -5   21.61    0.75
   7   0  -5   20.58    0.58
   7   0  -5   22.05    0.85
   7   0  -5   22.04    0.72
  -7   0   5   20.96    0.73
  -7   0   5   20.96    0.73
   6   0  -5    0.07    0.11
   6   0  -5    0.07    0.11
   6   0  -5    0.03    0.08
   6   0  -5    0.02    0.15
   6   0  -5    0.07    0.11
   6   0  -5    0.05    0.07
   6   0  -5    0.03    0.08
   6   0  -5    0.06    0.13
   6   0  -5    0.05    0.07
  -6   0   5    0.01    0.11
  -6   0   5    0.04    0.17
  -6   0   5    0.01    0.11
   5   0  -5   83.93    1.44
   5   0  -5   86.28    1.45
   5   0  -5   82.58    1.60
   5   0  -5   84.65    1.57
   5   0  -5   85.88    2.02
   5   0  -5   86.28    1.45
   5   0  -5   83.93    1.44
   5   0  -5   82.58    1.60
   5   0  -5   84.68    1.74
  -5   0   5   82.29    1.59
  -5   0   5   86.20    2.03
  -5   0   5   82.29    1.59
   4   0  -5    8.86    0.36
   4   0  -5    8.86    0.44
   4   0  -5    8.43    0.30
   4   0  -5    8.43    0.30
   4   0  -5    9.12    0.38
   4   0  -5    9.12    0.38
   4   0  -5    8.82    0.31
   4   0  -5    8.82    0.31
   4   0  -5    8.58    0.33
   3   0  -5   70.73    1.31
   3   0  -5   67.57    1.26
   3   0  -5   68.70    1.39
   3   0  -5   67.89    1.17
   3   0  -5   69.35    1.55
   3   0  -5   67.89    1.17
   3   0  -5   67.57    1.26
   3   0  -5   68.69    1.25
  -3   0   5   65.87    1.51
   2   0  -5    6.21    0.31
   2   0  -5    6.30    0.27
   2   0  -5    6.14    0.36
   2   0  -5    6.15    0.27
   2   0  -5    6.30    0.32
   2   0  -5    6.15    0.27
  -2   0   5    6.08    0.36
   1   0  -5  161.55    2.90
   1   0  -5  154.40    2.58
   1   0  -5  159.42    2.41
   1   0  -5  158.81    2.36
   1   0  -5  159.42    2.41
  -1   0   5  157.14    2.62
  -1   0   5  156.50    2.85
   0   0  -5  314.93    4.48
   0   0  -5  314.93    4.48
   0   0  -5  303.11    4.70
   0   0  -5  314.41    4.48
   0   0  -5  310.73    4.71
   0   0   5  312.65    4.67
   0   0   5  315.76    5.26
  -1   0  -5   36.37    0.73
  -1   0  -5   34.02    1.02
  -1   0  -5   34.15    0.69
  -1   0  -5   34.15    0.69
   1   0   5   36.26    1.21
   1   0   5   35.02    0.72
   1   0   5   34.50    0.83
  -2   0  -5  179.43    3.54
  -2   0  -5  168.01    2.60
  -2   0  -5  165.85    2.56
  -2   0  -5  165.85    2.56
   2   0   5  171.14    3.39
   2   0   5  166.47    2.57
   2   0   5  168.35    2.79
  -3   0  -5  122.48    1.94
  -3   0  -5  122.48    1.94
  -3   0  -5  117.85    1.96
  -3   0  -5  119.29    2.20
   3   0   5  121.24    2.21
   3   0   5  117.09    2.21
   3   0   5  116.47    1.88
   3   0   5  118.59    2.74
   3   0   5  116.47    1.88
   3   0   5  121.05    1.91
  -4   0  -5  325.38    4.78
  -4   0  -5  325.38    4.78
  -4   0  -5  328.28    4.82
  -4   0  -5  314.19    5.07
   4   0   5  324.95    4.71
   4   0   5  325.55    4.70
   4   0   5  324.93    5.20
   4   0   5  335.02    5.15
   4   0   5  324.95    4.71
  -5   0  -5   61.99    1.26
  -5   0  -5   65.93    1.30
  -5   0  -5   61.99    1.26
  -5   0  -5   62.51    1.47
   5   0   5   62.90    1.13
   5   0   5   64.75    1.64
   5   0   5   64.25    1.18
   5   0   5   64.25    1.18
   5   0   5   65.66    1.54
  -6   0  -5   40.39    0.98
  -6   0  -5   40.47    1.05
  -6   0  -5   40.39    0.98
   6   0   5   40.71    0.76
   6   0   5   40.24    0.88
   6   0   5   40.67    1.21
   6   0   5   41.83    1.36
   6   0   5   40.24    0.88
  -7   0  -5   13.74    0.56
  -7   0  -5   13.74    0.56
   7   0   5   12.56    0.45
   7   0   5   11.93    0.68
   7   0   5   12.56    0.45
  -8   0  -5    8.49    0.49
  -8   0  -5    8.49    0.49
   8   0   5    8.24    0.39
   8   0   5    8.24    0.39
   8   0   5    8.76    0.63
  -9   0  -5    2.36    0.33
  -9   0  -5    2.36    0.33
   9   0   5    2.56    0.25
   9   0   5    2.56    0.25
   9   0   5    3.11    0.47
 -10   0  -5   43.59    1.30
 -10   0  -5   43.59    1.30
  10   0   5   44.78    1.07
  10   0   5   44.78    1.07
  10   0   5   45.38    1.58
  10  -1  -5    4.70    0.29
  10  -1  -5    3.94    0.47
  10  -1  -5    5.12    0.50
  10  -1  -5    3.94    0.47
  10  -1  -5    4.70    0.29
  10  -1  -5    4.98    0.59
 -10   1   5    4.63    0.52
 -10   1   5    4.63    0.52
 -10   1   5    4.95    0.58
   9  -1  -5   22.55    0.82
   9  -1  -5   22.53    0.61
   9  -1  -5   22.55    0.97
   9  -1  -5   20.12    0.86
   9  -1  -5   20.12    0.86
   9  -1  -5   22.53    0.61
  -9   1   5   21.55    0.98
  -9   1   5   20.81    0.86
  -9   1   5   20.81    0.86
   8  -1  -5   24.01    0.88
   8  -1  -5   25.27    0.64
   8  -1  -5   24.01    0.88
   8  -1  -5   25.27    0.64
   8  -1  -5   23.62    0.94
   8  -1  -5   23.61    0.79
  -8   1   5   24.46    0.88
  -8   1   5   24.17    0.97
  -8   1   5   24.46    0.88
   7  -1  -5   61.07    1.14
   7  -1  -5   59.79    1.42
   7  -1  -5   58.73    1.32
   7  -1  -5   61.07    1.14
   7  -1  -5   59.79    1.42
   7  -1  -5   58.74    1.50
  -7   1   5   62.99    1.44
  -7   1   5   62.99    1.44
   6  -1  -5   -0.05    0.12
   6  -1  -5    0.21    0.13
   6  -1  -5    0.21    0.13
   6  -1  -5    0.07    0.07
   6  -1  -5   -0.05    0.10
   6  -1  -5    0.15    0.20
   6  -1  -5    0.07    0.07
  -6   1   5    0.44    0.25
  -6   1   5    0.16    0.12
  -6   1   5    0.16    0.12
   5  -1  -5    9.44    0.45
   5  -1  -5    9.33    0.39
   5  -1  -5    9.44    0.45
   5  -1  -5    9.34    0.47
   5  -1  -5    9.23    0.62
   5  -1  -5    9.06    0.32
   5  -1  -5    9.06    0.32
  -5   1   5    9.28    0.62
  -5   1   5    9.08    0.44
  -5   1   5    9.08    0.44
   4  -1  -5   24.00    0.92
   4  -1  -5   23.57    0.61
   4  -1  -5   23.41    0.53
   4  -1  -5   22.95    0.67
   4  -1  -5   23.41    0.53
   4  -1  -5   22.95    0.67
   4  -1  -5   23.57    0.71
  -4   1   5   22.11    0.89
   3  -1  -5  371.58    5.36
   3  -1  -5  367.21    5.17
   3  -1  -5  355.96    5.41
   3  -1  -5  366.91    5.78
   3  -1  -5  371.58    5.36
   3  -1  -5  355.71    5.25
   3  -1  -5  367.21    5.17
  -3   1   5  361.96    5.76
   2  -1  -5   31.47    0.72
   2  -1  -5   30.62    0.67
   2  -1  -5   31.47    0.58
   2  -1  -5   30.62    0.76
   2  -1  -5   31.42    0.62
   2  -1  -5   31.85    0.93
   2  -1  -5   31.47    0.72
   2  -1  -5   31.42    0.62
  -2   1   5   30.81    0.64
  -2   1   5   30.68    0.91
   1  -1  -5  295.55    4.25
   1  -1  -5  295.65    4.38
   1  -1  -5  294.25    4.29
   1  -1  -5  291.14    4.27
   1  -1  -5  294.25    4.29
  -1   1   5  292.19    4.56
  -1   1   5  295.66    4.22
   0  -1  -5    7.17    0.30
   0  -1  -5    6.50    0.27
   0  -1  -5    6.50    0.27
   0   1   5    7.01    0.49
   0   1   5    7.01    0.36
  -1  -1  -5   79.81    1.49
  -1  -1  -5   81.46    1.32
   1   1   5   82.54    1.97
   1   1   5   81.82    1.56
  -2  -1  -5  391.67    5.64
  -2  -1  -5  388.93    5.83
  -2  -1  -5  403.27    5.65
  -2  -1  -5  403.27    5.65
   2   1   5  387.14    5.91
   2   1   5  396.45    5.66
   2   1   5  404.31    6.57
  -3  -1  -5  102.47    1.71
  -3  -1  -5  102.47    1.71
  -3  -1  -5  104.00    1.73
  -3  -1  -5  102.66    1.89
   3   1   5  101.31    1.96
   3   1   5  103.18    1.71
   3   1   5  105.01    2.51
  -4  -1  -5  427.35    6.11
  -4  -1  -5  427.35    6.11
  -4  -1  -5  419.62    6.29
  -4  -1  -5  423.17    6.12
   4   1   5  421.89    6.03
   4   1   5  421.89    6.03
   4   1   5  412.07    6.44
   4   1   5  425.13    6.08
   4   1   5  418.68    7.24
   4   1   5  441.19    6.66
   4   1   5  420.63    6.87
   4   1   5  422.16    6.50
  -5  -1  -5  460.49    6.72
  -5  -1  -5  465.26    6.70
  -5  -1  -5  469.73    6.89
  -5  -1  -5  465.26    6.70
   5   1   5  455.62    6.59
   5   1   5  455.62    6.59
   5   1   5  465.25    7.21
   5   1   5  458.05    6.62
  -6  -1  -5   80.00    1.56
  -6  -1  -5   80.32    1.59
  -6  -1  -5   79.77    1.68
  -6  -1  -5   80.00    1.56
   6   1   5   81.69    1.45
   6   1   5   79.93    1.85
   6   1   5   82.06    2.01
   6   1   5   81.30    1.47
   6   1   5   81.30    1.47
  -7  -1  -5   93.83    1.84
  -7  -1  -5   93.83    1.84
  -7  -1  -5   96.77    2.07
   7   1   5   92.72    2.14
   7   1   5   95.03    1.63
   7   1   5   96.81    1.72
   7   1   5   96.81    1.72
  -8  -1  -5   42.97    1.13
  -8  -1  -5   42.97    1.13
   8   1   5   44.03    1.01
   8   1   5   43.86    1.40
   8   1   5   44.03    1.01
  -9  -1  -5    2.84    0.34
  -9  -1  -5    2.84    0.34
   9   1   5    3.35    0.30
   9   1   5    3.35    0.30
 -10  -1  -5    1.87    0.34
 -10  -1  -5    1.87    0.34
  10   1   5    2.29    0.27
  10   1   5    2.29    0.27
 -11  -1  -5   27.20    1.04
 -11  -1  -5   27.20    1.04
  11   1   5   26.27    0.83
  11   1   5   26.27    0.83
  10  -2  -5   35.84    1.12
  10  -2  -5   35.52    0.68
  10  -2  -5   35.52    0.68
  10  -2  -5   33.99    1.22
  10  -2  -5   35.87    1.32
  10  -2  -5   33.99    1.22
 -10   2   5   35.72    1.39
 -10   2   5   36.22    1.25
 -10   2   5   36.22    1.25
   9  -2  -5   47.29    1.25
   9  -2  -5   49.09    1.42
   9  -2  -5   47.31    1.45
   9  -2  -5   48.08    0.91
   9  -2  -5   49.09    1.42
   9  -2  -5   48.08    0.91
  -9   2   5   49.16    1.41
  -9   2   5   49.40    1.56
  -9   2   5   49.16    1.41
   8  -2  -5   23.65    0.56
   8  -2  -5   23.65    0.56
   8  -2  -5   25.20    0.80
   8  -2  -5   23.71    0.90
   8  -2  -5   23.71    0.90
   8  -2  -5   25.21    0.95
  -8   2   5   23.50    0.89
  -8   2   5   26.06    1.04
  -8   2   5   23.50    0.89
   7  -2  -5    6.04    0.45
   7  -2  -5    6.05    0.26
   7  -2  -5    6.18    0.45
   7  -2  -5    6.05    0.26
   7  -2  -5    6.18    0.45
   7  -2  -5    6.04    0.37
  -7   2   5    6.46    0.45
  -7   2   5    6.46    0.45
  -7   2   5    5.85    0.49
   6  -2  -5   35.01    0.99
   6  -2  -5   34.20    0.85
   6  -2  -5   33.15    0.68
   6  -2  -5   33.15    0.68
   6  -2  -5   35.01    0.99
   6  -2  -5   34.21    0.99
  -6   2   5   33.64    0.98
  -6   2   5   33.64    0.98
   5  -2  -5   71.94    1.50
   5  -2  -5   72.47    1.93
   5  -2  -5   71.73    1.19
   5  -2  -5   71.74    1.50
   5  -2  -5   71.74    1.50
   5  -2  -5   71.91    1.35
   5  -2  -5   71.73    1.19
  -5   2   5   70.79    1.50
  -5   2   5   67.57    1.88
  -5   2   5   70.79    1.50
   4  -2  -5    0.13    0.10
   4  -2  -5    0.14    0.16
   4  -2  -5    0.21    0.09
   4  -2  -5    0.20    0.10
   4  -2  -5    0.37    0.08
   4  -2  -5    0.13    0.10
   4  -2  -5    0.37    0.08
  -4   2   5    0.13    0.16
   3  -2  -5    0.12    0.10
   3  -2  -5    0.10    0.05
   3  -2  -5    0.19    0.08
   3  -2  -5    0.06    0.13
   3  -2  -5    0.10    0.05
   3  -2  -5    0.18    0.09
   3  -2  -5    0.12    0.10
  -3   2   5    0.27    0.16
   2  -2  -5    0.38    0.10
   2  -2  -5    0.38    0.07
   2  -2  -5    0.63    0.12
   2  -2  -5    0.38    0.07
   2  -2  -5    0.40    0.14
   2  -2  -5    0.63    0.12
   2  -2  -5    0.39    0.08
  -2   2   5    0.66    0.18
   1  -2  -5  464.65    6.55
   1  -2  -5  470.72    6.39
   1  -2  -5  456.38    6.88
   1  -2  -5  449.94    6.56
   1  -2  -5  470.72    6.39
   1  -2  -5  464.65    6.55
   1  -2  -5  449.77    6.43
  -1   2   5  437.50    6.86
   0  -2  -5    9.78    0.34
   0  -2  -5    9.78    0.34
   0  -2  -5    9.91    0.37
   0  -2  -5    9.91    0.31
   0   2   5   10.01    0.57
   0   2   5   10.29    0.46
   0   2   5    9.96    0.28
  -1  -2  -5   22.43    0.54
  -1  -2  -5   22.28    0.50
  -1  -2  -5   22.43    0.54
   1   2   5   22.23    0.90
   1   2   5   20.80    0.67
  -2  -2  -5   24.81    0.59
  -2  -2  -5   24.81    0.59
  -2  -2  -5   24.40    0.52
  -2  -2  -5   24.79    0.59
   2   2   5   24.97    1.02
   2   2   5   23.71    0.73
   2   2   5   23.94    1.18
  -3  -2  -5  122.35    2.01
  -3  -2  -5  123.57    2.06
  -3  -2  -5  125.56    1.99
  -3  -2  -5  122.35    2.01
   3   2   5  126.37    2.02
   3   2   5  124.07    2.29
   3   2   5  126.64    2.97
   3   2   5  123.67    2.83
  -4  -2  -5   54.93    1.09
  -4  -2  -5   55.38    1.10
  -4  -2  -5   55.38    1.10
  -4  -2  -5   54.63    1.14
   4   2   5   55.89    1.36
   4   2   5   56.25    1.71
   4   2   5   56.35    1.11
   4   2   5   57.60    1.84
  -5  -2  -5   44.12    0.97
  -5  -2  -5   45.36    0.99
  -5  -2  -5   43.80    1.03
  -5  -2  -5   44.12    0.97
   5   2   5   44.00    0.91
   5   2   5   44.69    0.97
   5   2   5   44.00    0.91
   5   2   5   45.54    1.28
   5   2   5   43.13    1.20
  -6  -2  -5   16.35    0.56
  -6  -2  -5   16.48    0.57
  -6  -2  -5   16.41    0.60
  -6  -2  -5   16.35    0.56
   6   2   5   16.52    0.53
   6   2   5   17.67    0.82
   6   2   5   16.61    0.52
   6   2   5   17.52    0.76
   6   2   5   16.61    0.52
  -7  -2  -5  299.68    4.65
  -7  -2  -5  291.13    4.58
  -7  -2  -5  291.13    4.58
   7   2   5  294.91    4.45
   7   2   5  294.91    4.45
   7   2   5  295.87    4.46
  -8  -2  -5   30.20    0.90
  -8  -2  -5   30.38    0.94
  -8  -2  -5   30.20    0.90
   8   2   5   30.34    0.81
   8   2   5   30.34    0.81
   8   2   5   30.57    0.77
  -9  -2  -5   81.75    1.79
  -9  -2  -5   76.68    1.73
  -9  -2  -5   76.68    1.73
   9   2   5   77.33    1.43
   9   2   5   82.12    1.61
   9   2   5   82.12    1.61
 -10  -2  -5   40.81    1.21
 -10  -2  -5   40.81    1.21
  10   2   5   39.20    1.04
  10   2   5   39.20    1.04
 -11  -2  -5    7.85    0.59
 -11  -2  -5    7.85    0.59
  11   2   5    8.72    0.50
  11   2   5    8.72    0.50
   9  -3  -5    9.56    0.54
   9  -3  -5    8.60    0.63
   9  -3  -5    9.57    0.65
   9  -3  -5    8.60    0.63
  -9   3   5    8.78    0.63
  -9   3   5   10.53    0.75
  -9   3   5    8.78    0.63
   8  -3  -5   73.89    1.80
   8  -3  -5   74.49    1.80
   8  -3  -5   73.89    1.80
   8  -3  -5   74.46    1.59
  -8   3   5   75.99    1.81
  -8   3   5   75.99    1.81
  -8   3   5   77.35    1.99
   7  -3  -5   29.23    0.81
   7  -3  -5   28.14    0.96
   7  -3  -5   28.14    0.96
   7  -3  -5   29.25    0.95
  -7   3   5   29.11    1.08
  -7   3   5   29.14    0.98
  -7   3   5   29.14    0.98
   6  -3  -5   25.10    0.82
   6  -3  -5   24.61    0.85
   6  -3  -5   25.09    0.70
   6  -3  -5   26.70    0.47
   6  -3  -5   24.61    0.85
   6  -3  -5   26.70    0.47
  -6   3   5   26.63    0.87
  -6   3   5   26.63    0.87
   5  -3  -5    2.06    0.28
   5  -3  -5    1.57    0.18
   5  -3  -5    2.06    0.28
   5  -3  -5    1.53    0.22
   5  -3  -5    1.85    0.37
  -5   3   5    1.34    0.24
  -5   3   5    1.34    0.24
  -5   3   5    1.84    0.37
   4  -3  -5   26.58    0.72
   4  -3  -5   25.47    0.47
   4  -3  -5   25.10    1.03
   4  -3  -5   25.24    0.76
   4  -3  -5   26.56    0.62
   4  -3  -5   25.24    0.76
   4  -3  -5   25.47    0.47
  -4   3   5   24.43    1.02
   3  -3  -5  197.50    3.06
   3  -3  -5  197.36    2.92
   3  -3  -5  188.81    3.13
   3  -3  -5  188.81    3.13
   3  -3  -5  197.64    2.77
   3  -3  -5  197.64    2.77
   3  -3  -5  199.53    3.64
  -3   3   5  193.80    3.61
   2  -3  -5   26.79    0.58
   2  -3  -5   28.62    0.50
   2  -3  -5   26.67    0.95
   2  -3  -5   28.62    0.50
   2  -3  -5   26.76    0.66
  -2   3   5   27.74    0.96
   1  -3  -5    0.16    0.05
   1  -3  -5    0.00    0.07
   1  -3  -5    0.00    0.07
   1  -3  -5    0.26    0.07
   1  -3  -5    0.26    0.08
   1  -3  -5    0.04    0.10
   1  -3  -5    0.16    0.05
  -1   3   5    0.02    0.10
   0  -3  -5   32.49    0.59
   0  -3  -5   32.49    0.59
   0  -3  -5   31.68    0.64
   0  -3  -5   33.91    0.74
   0  -3  -5   33.91    0.74
   0  -3  -5   31.69    0.72
   0   3   5   26.99    1.41
   0   3   5   30.28    0.91
   0   3   5   30.26    1.02
  -1  -3  -5  124.60    2.01
  -1  -3  -5  123.13    2.06
  -1  -3  -5  124.62    1.87
  -1  -3  -5  124.60    2.01
  -1  -3  -5  124.62    1.87
   1   3   5  127.48    2.60
   1   3   5  123.88    2.28
   1   3   5  113.99    3.13
   1   3   5  125.52    1.88
  -2  -3  -5   10.83    0.42
  -2  -3  -5   10.58    0.31
  -2  -3  -5   10.62    0.37
  -2  -3  -5   10.21    0.28
  -2  -3  -5   10.58    0.31
  -2  -3  -5   10.62    0.37
   2   3   5   10.26    0.65
   2   3   5   10.36    0.49
   2   3   5    9.56    0.79
  -3  -3  -5   32.79    0.73
  -3  -3  -5   32.79    0.73
  -3  -3  -5   32.74    0.68
  -3  -3  -5   31.99    0.85
  -3  -3  -5   31.05    0.66
  -3  -3  -5   31.05    0.66
   3   3   5   30.33    0.91
   3   3   5   31.36    1.24
   3   3   5   31.49    1.39
  -4  -3  -5  168.92    2.64
  -4  -3  -5  169.75    2.64
  -4  -3  -5  169.64    2.68
  -4  -3  -5  171.29    2.71
  -4  -3  -5  169.75    2.64
  -4  -3  -5  171.29    2.71
  -4  -3  -5  178.73    2.96
   4   3   5  167.86    3.73
   4   3   5  171.19    3.06
   4   3   5  175.83    3.74
   4   3   5  171.23    2.72
  -5  -3  -5   59.54    1.16
  -5  -3  -5   61.52    1.23
  -5  -3  -5   61.75    1.20
  -5  -3  -5   62.82    1.47
  -5  -3  -5   61.52    1.23
  -5  -3  -5   59.54    1.16
  -5  -3  -5   60.28    1.22
   5   3   5   62.49    1.24
   5   3   5   61.36    1.89
   5   3   5   62.53    1.56
   5   3   5   62.26    2.06
  -6  -3  -5   20.45    0.63
  -6  -3  -5   21.49    0.65
  -6  -3  -5   21.49    0.65
  -6  -3  -5   21.52    0.66
   6   3   5   21.19    0.64
   6   3   5   20.56    0.59
   6   3   5   20.56    0.59
   6   3   5   22.08    0.92
  -7  -3  -5    5.67    0.37
  -7  -3  -5    5.67    0.37
  -7  -3  -5    5.07    0.35
   7   3   5    4.66    0.32
   7   3   5    4.97    0.31
   7   3   5    4.97    0.31
  -8  -3  -5   21.55    0.76
  -8  -3  -5   24.46    0.79
  -8  -3  -5   24.46    0.79
   8   3   5   22.32    0.71
   8   3   5   22.10    0.69
   8   3   5   22.10    0.69
  -9  -3  -5   39.33    1.11
  -9  -3  -5   39.33    1.11
  -9  -3  -5   39.53    1.13
   9   3   5   39.16    0.97
   9   3   5   38.13    1.00
   9   3   5   38.13    1.00
 -10  -3  -5   23.66    0.88
 -10  -3  -5   23.66    0.88
 -10  -3  -5   25.81    0.93
  10   3   5   24.88    0.81
  10   3   5   24.88    0.81
  10   3   5   23.57    0.69
 -11  -3  -5   18.80    0.85
 -11  -3  -5   18.24    0.83
 -11  -3  -5   18.24    0.83
  11   3   5   19.12    0.73
  11   3   5   19.12    0.73
   9  -4  -5   41.13    1.14
   9  -4  -5   41.15    1.33
   9  -4  -5   43.11    1.39
   9  -4  -5   43.11    1.39
  -9   4   5   42.73    1.38
  -9   4   5   39.90    1.49
  -9   4   5   42.73    1.38
   8  -4  -5   -0.22    0.12
   8  -4  -5   -0.01    0.19
   8  -4  -5   -0.21    0.14
   8  -4  -5   -0.01    0.19
  -8   4   5   -0.14    0.19
  -8   4   5   -0.14    0.19
  -8   4   5    0.26    0.24
   7  -4  -5   -0.11    0.11
   7  -4  -5   -0.11    0.10
   7  -4  -5    0.08    0.20
   7  -4  -5    0.08    0.20
  -7   4   5    0.25    0.20
  -7   4   5    0.25    0.20
  -7   4   5    0.02    0.20
   6  -4  -5    2.00    0.27
   6  -4  -5    2.28    0.32
   6  -4  -5    2.05    0.23
   6  -4  -5    2.28    0.32
  -6   4   5    2.10    0.31
  -6   4   5    2.10    0.31
   5  -4  -5   19.95    0.74
   5  -4  -5   19.95    0.74
   5  -4  -5   21.49    0.58
   5  -4  -5   21.51    0.68
  -5   4   5   21.15    0.76
  -5   4   5   21.15    0.76
   4  -4  -5   13.74    0.48
   4  -4  -5   14.32    0.58
   4  -4  -5   13.30    0.79
   4  -4  -5   14.32    0.58
   4  -4  -5   13.73    0.41
  -4   4   5   13.56    0.79
   3  -4  -5  370.89    6.10
   3  -4  -5  364.72    5.50
   3  -4  -5  364.69    5.19
   3  -4  -5  364.85    5.32
   3  -4  -5  364.72    5.50
  -3   4   5  360.07    6.06
   2  -4  -5   30.80    0.81
   2  -4  -5   30.66    0.62
   2  -4  -5   30.55    1.06
   2  -4  -5   30.65    0.70
   2  -4  -5   30.80    0.81
  -2   4   5   30.17    1.05
   1  -4  -5  107.02    1.68
   1  -4  -5  109.17    1.90
   1  -4  -5  108.55    2.24
   1  -4  -5  107.03    1.78
   1  -4  -5  109.17    1.90
  -1   4   5  111.86    2.27
   0  -4  -5  160.19    2.42
   0  -4  -5  165.84    2.62
   0  -4  -5  165.84    2.62
   0  -4  -5  163.37    2.31
   0  -4  -5  163.37    2.31
   0  -4  -5  160.22    2.53
   0  -4  -5  160.25    2.53
   0   4   5  164.53    3.05
   0   4   5  160.72    2.94
  -1  -4  -5  198.58    3.05
  -1  -4  -5  196.96    2.82
  -1  -4  -5  196.96    2.82
  -1  -4  -5  194.85    3.03
  -1  -4  -5  194.85    3.03
   1   4   5  190.50    3.32
   1   4   5  199.38    3.65
  -2  -4  -5    7.92    0.33
  -2  -4  -5    7.37    0.25
  -2  -4  -5    7.37    0.25
  -2  -4  -5    7.42    0.35
  -2  -4  -5    7.92    0.33
   2   4   5    7.23    0.27
   2   4   5    7.20    0.42
   2   4   5    7.42    0.57
  -3  -4  -5    1.47    0.20
  -3  -4  -5    1.85    0.19
  -3  -4  -5    1.81    0.12
  -3  -4  -5    1.18    0.12
  -3  -4  -5    1.18    0.12
  -3  -4  -5    1.85    0.19
   3   4   5    1.54    0.33
   3   4   5    1.29    0.22
  -4  -4  -5   53.88    1.02
  -4  -4  -5   53.80    1.02
  -4  -4  -5   54.44    0.92
  -4  -4  -5   53.80    1.02
  -4  -4  -5   53.79    1.10
  -4  -4  -5   53.79    1.10
  -4  -4  -5   55.74    1.29
   4   4   5   57.08    1.86
   4   4   5   55.14    1.11
   4   4   5   55.98    1.38
  -5  -4  -5  108.91    1.85
  -5  -4  -5  105.76    1.78
  -5  -4  -5  107.77    1.90
  -5  -4  -5  109.70    2.14
  -5  -4  -5  109.90    1.83
  -5  -4  -5  109.90    1.83
  -5  -4  -5  107.77    1.90
   5   4   5  105.76    1.91
   5   4   5  109.21    2.92
   5   4   5  110.21    2.28
  -6  -4  -5    1.70    0.19
  -6  -4  -5    2.20    0.25
  -6  -4  -5    1.62    0.20
  -6  -4  -5    2.20    0.25
  -6  -4  -5    1.91    0.19
  -6  -4  -5    1.70    0.19
   6   4   5    2.07    0.35
   6   4   5    1.48    0.20
  -7  -4  -5   67.65    1.42
  -7  -4  -5   65.98    1.40
  -7  -4  -5   67.65    1.42
  -7  -4  -5   66.52    1.38
   7   4   5   67.54    1.43
  -8  -4  -5   18.95    0.69
  -8  -4  -5   18.45    0.68
  -8  -4  -5   18.45    0.68
   8   4   5   18.50    0.67
  -9  -4  -5    5.36    0.42
  -9  -4  -5    5.63    0.43
  -9  -4  -5    5.36    0.42
   9   4   5    5.64    0.39
 -10  -4  -5   17.47    0.76
 -10  -4  -5   17.47    0.76
 -10  -4  -5   17.45    0.77
  10   4   5   18.43    0.70
  10   4   5   17.70    0.67
  10   4   5   18.43    0.70
 -11  -4  -5    0.36    0.24
 -11  -4  -5    0.54    0.24
 -11  -4  -5    0.36    0.24
  11   4   5    0.23    0.18
  11   4   5    0.23    0.18
   8  -5  -5    9.69    0.65
   8  -5  -5    9.83    0.49
   8  -5  -5    9.84    0.59
   8  -5  -5    9.69    0.65
  -8   5   5    9.38    0.72
  -8   5   5    9.69    0.66
  -8   5   5    9.69    0.66
   7  -5  -5    6.61    0.52
   7  -5  -5    6.44    0.37
   7  -5  -5    6.44    0.45
   7  -5  -5    6.61    0.52
  -7   5   5    7.07    0.54
  -7   5   5    7.07    0.54
  -7   5   5    6.83    0.59
   6  -5  -5    1.86    0.25
   6  -5  -5    1.91    0.22
   6  -5  -5    1.48    0.28
   6  -5  -5    1.48    0.28
  -6   5   5    2.02    0.31
  -6   5   5    2.02    0.31
  -6   5   5    1.99    0.36
   5  -5  -5    3.49    0.38
   5  -5  -5    3.62    0.29
   5  -5  -5    3.62    0.24
   5  -5  -5    3.49    0.38
  -5   5   5    3.76    0.39
  -5   5   5    3.76    0.39
   4  -5  -5    6.43    0.43
   4  -5  -5    6.43    0.43
   4  -5  -5    7.32    0.29
   4  -5  -5    7.32    0.34
  -4   5   5    7.30    0.46
  -4   5   5    7.30    0.46
   3  -5  -5  122.78    1.92
   3  -5  -5  124.20    2.26
   3  -5  -5  124.20    2.26
   3  -5  -5  127.65    2.78
   3  -5  -5  122.77    2.03
  -3   5   5  126.61    2.78
   2  -5  -5   50.81    1.16
   2  -5  -5   50.81    1.16
   2  -5  -5   50.80    1.48
   2  -5  -5   51.78    0.98
   2  -5  -5   51.78    0.90
  -2   5   5   52.93    1.51
   1  -5  -5  179.07    2.71
   1  -5  -5  174.97    2.89
   1  -5  -5  174.97    2.89
   1  -5  -5  179.07    2.61
  -1   5   5  181.20    3.34
   0  -5  -5  128.32    2.04
   0  -5  -5  123.45    2.14
   0  -5  -5  123.45    2.14
   0   5   5  127.43    2.52
   0   5   5  128.76    2.56
  -1  -5  -5  299.68    4.50
  -1  -5  -5  299.80    4.47
  -1  -5  -5  302.60    4.18
  -1  -5  -5  299.68    4.50
  -1  -5  -5  302.60    4.18
   1   5   5  296.74    4.86
   1   5   5  304.79    5.14
  -2  -5  -5   75.58    1.22
  -2  -5  -5   76.55    1.47
  -2  -5  -5   78.30    2.54
  -2  -5  -5   77.07    1.42
  -2  -5  -5   75.58    1.22
  -2  -5  -5   77.07    1.42
   2   5   5   75.06    1.22
   2   5   5   77.96    2.03
   2   5   5   76.39    1.70
  -3  -5  -5    7.57    0.34
  -3  -5  -5    7.44    0.26
  -3  -5  -5    7.22    0.39
  -3  -5  -5    7.44    0.26
  -3  -5  -5    7.57    0.34
  -3  -5  -5    7.99    0.80
   3   5   5    7.98    0.47
   3   5   5    7.30    0.62
  -4  -5  -5   50.05    0.96
  -4  -5  -5   50.96    1.07
  -4  -5  -5   50.96    1.07
  -4  -5  -5   50.09    0.87
  -4  -5  -5   49.70    1.21
  -4  -5  -5   49.24    1.97
  -4  -5  -5   50.05    0.96
   4   5   5   49.68    1.77
   4   5   5   51.10    1.34
  -5  -5  -5    6.70    0.31
  -5  -5  -5    6.19    0.44
  -5  -5  -5    6.69    0.35
  -5  -5  -5    6.69    0.35
  -5  -5  -5    6.70    0.31
  -5  -5  -5    6.74    0.29
  -5  -5  -5    6.84    0.75
   5   5   5    7.23    0.73
   5   5   5    7.22    0.50
  -6  -5  -5  201.03    3.14
  -6  -5  -5  197.32    3.22
  -6  -5  -5  197.32    3.22
  -6  -5  -5  200.51    3.54
  -6  -5  -5  198.17    3.12
  -6  -5  -5  198.17    3.12
  -6  -5  -5  207.96    5.12
   6   5   5  197.36    3.26
   6   5   5  200.94    3.72
   6   5   5  202.75    4.60
  -7  -5  -5   52.86    1.17
  -7  -5  -5   52.43    1.21
  -7  -5  -5   52.92    1.14
  -7  -5  -5   52.92    1.14
  -7  -5  -5   52.43    1.21
   7   5   5   52.78    1.24
  -8  -5  -5    0.62    0.15
  -8  -5  -5    1.00    0.20
  -8  -5  -5    1.00    0.20
   8   5   5    0.87    0.19
  -9  -5  -5   82.56    1.78
  -9  -5  -5   82.56    1.78
  -9  -5  -5   81.19    1.75
   9   5   5   84.37    1.78
 -10  -5  -5   56.81    1.43
 -10  -5  -5   53.46    1.41
 -10  -5  -5   53.46    1.41
  10   5   5   55.60    1.36
 -11  -5  -5    8.09    0.57
 -11  -5  -5    7.57    0.56
 -11  -5  -5    8.09    0.57
  11   5   5    7.66    0.48
   8  -6  -5    0.03    0.15
   8  -6  -5    0.03    0.13
   8  -6  -5   -0.04    0.21
   8  -6  -5   -0.04    0.21
  -8   6   5    0.01    0.25
  -8   6   5    0.00    0.22
  -8   6   5    0.00    0.22
   7  -6  -5    0.40    0.24
   7  -6  -5    0.27    0.17
   7  -6  -5    0.28    0.14
   7  -6  -5    0.40    0.24
  -7   6   5    0.11    0.23
  -7   6   5    0.45    0.25
  -7   6   5    0.45    0.25
   6  -6  -5   54.61    1.48
   6  -6  -5   57.01    1.29
   6  -6  -5   56.97    1.14
   6  -6  -5   54.61    1.48
  -6   6   5   56.55    1.50
  -6   6   5   56.55    1.50
  -6   6   5   56.28    1.64
   5  -6  -5   21.79    0.66
   5  -6  -5   20.84    0.81
   5  -6  -5   20.84    0.81
   5  -6  -5   21.79    0.56
  -5   6   5   21.09    0.82
  -5   6   5   21.09    0.82
   4  -6  -5  181.92    3.21
   4  -6  -5  183.82    2.88
   4  -6  -5  181.92    3.21
   4  -6  -5  183.88    2.75
  -4   6   5  182.88    3.21
  -4   6   5  182.88    3.21
   3  -6  -5  276.26    4.46
   3  -6  -5  283.34    4.01
   3  -6  -5  276.26    4.46
   3  -6  -5  283.38    4.12
   2  -6  -5    4.55    0.35
   2  -6  -5    5.35    0.51
   2  -6  -5    4.55    0.35
   2  -6  -5    6.62    0.27
   2  -6  -5    6.62    0.22
  -2   6   5    5.02    0.51
   1  -6  -5   29.83    0.58
   1  -6  -5   29.71    0.82
   1  -6  -5   29.85    0.64
   1  -6  -5   29.71    0.82
  -1   6   5   30.85    1.10
  -1   6   5   28.90    0.94
   0  -6  -5   53.80    1.03
   0  -6  -5   52.12    1.16
   0  -6  -5   52.12    1.16
   0   6   5   54.66    1.46
   0   6   5   55.79    1.50
  -1  -6  -5    4.32    0.76
  -1  -6  -5    3.98    0.28
  -1  -6  -5    4.35    0.25
  -1  -6  -5    3.98    0.28
   1   6   5    4.48    0.44
   1   6   5    4.30    0.39
  -2  -6  -5  286.83    4.02
  -2  -6  -5  285.98    4.34
  -2  -6  -5  284.67    4.37
  -2  -6  -5  286.83    4.02
  -2  -6  -5  285.98    4.34
  -2  -6  -5  299.61    6.42
   2   6   5  279.04    5.12
   2   6   5  283.01    4.71
  -3  -6  -5  118.01    2.04
  -3  -6  -5  123.16    3.63
  -3  -6  -5  115.36    2.14
  -3  -6  -5  118.01    2.04
  -3  -6  -5  117.98    1.83
  -3  -6  -5  117.98    1.83
   3   6   5  120.67    2.39
   3   6   5  120.56    2.89
  -4  -6  -5  441.59    6.73
  -4  -6  -5  449.99    6.54
  -4  -6  -5  445.29    6.34
  -4  -6  -5  449.99    6.54
  -4  -6  -5  445.29    6.34
  -4  -6  -5  455.48    9.46
   4   6   5  448.33    7.82
   4   6   5  448.95    6.97
  -5  -6  -5  761.67   10.81
  -5  -6  -5  747.32   10.65
  -5  -6  -5  785.18   11.15
  -5  -6  -5  747.32   10.65
  -5  -6  -5  761.67   10.81
   5   6   5  778.78   11.34
   5   6   5  758.88   12.37
  -6  -6  -5   33.95    0.88
  -6  -6  -5   33.89    0.81
  -6  -6  -5   33.46    1.09
  -6  -6  -5   33.95    0.88
  -6  -6  -5   32.90    0.75
  -6  -6  -5   33.89    0.81
   6   6   5   34.18    1.66
   6   6   5   33.73    1.18
   6   6   5   34.49    0.92
  -7  -6  -5   11.46    0.46
  -7  -6  -5   12.25    0.48
  -7  -6  -5   12.23    0.53
  -7  -6  -5   12.23    0.53
  -7  -6  -5   12.25    0.48
   7   6   5   12.36    0.56
  -8  -6  -5   15.88    0.58
  -8  -6  -5   15.88    0.58
  -8  -6  -5   13.91    0.60
  -8  -6  -5   13.91    0.60
  -8  -6  -5   14.77    0.57
   8   6   5   14.52    0.64
  -9  -6  -5    0.03    0.11
  -9  -6  -5    0.11    0.16
  -9  -6  -5    0.11    0.16
   9   6   5    0.20    0.16
 -10  -6  -5   32.71    1.05
 -10  -6  -5   32.71    1.05
 -10  -6  -5   33.24    1.02
  10   6   5   33.36    1.06
 -11  -6  -5    6.28    0.55
 -11  -6  -5    6.28    0.55
 -11  -6  -5    6.53    0.50
  11   6   5    6.32    0.48
   7  -7  -5   10.76    0.70
   7  -7  -5   10.76    0.70
   7  -7  -5   11.04    0.46
   7  -7  -5   11.05    0.54
  -7   7   5   10.53    0.69
  -7   7   5   10.57    0.78
  -7   7   5   10.53    0.69
   6  -7  -5    0.68    0.27
   6  -7  -5    0.66    0.17
   6  -7  -5    0.68    0.14
   6  -7  -5    0.68    0.27
  -6   7   5    0.87    0.32
  -6   7   5    0.18    0.22
  -6   7   5    0.18    0.22
   5  -7  -5    2.76    0.38
   5  -7  -5    2.76    0.38
   5  -7  -5    3.46    0.22
   5  -7  -5    3.46    0.27
  -5   7   5    3.98    0.44
  -5   7   5    3.26    0.45
  -5   7   5    3.98    0.44
   4  -7  -5    0.39    0.20
   4  -7  -5    0.55    0.11
   4  -7  -5    0.39    0.20
   4  -7  -5    0.54    0.13
  -4   7   5    0.00    0.14
  -4   7   5    0.00    0.14
   3  -7  -5   20.51    0.75
   3  -7  -5   20.15    0.45
   3  -7  -5   20.51    0.75
   3  -7  -5   20.15    0.51
   2  -7  -5   25.18    0.81
   2  -7  -5   25.56    0.57
   2  -7  -5   23.99    1.22
   2  -7  -5   25.18    0.81
   2  -7  -5   25.54    0.51
  -2   7   5   26.39    0.83
  -2   7   5   26.27    1.33
   1  -7  -5  170.44    2.87
   1  -7  -5  166.81    2.55
   1  -7  -5  167.68    2.55
   1  -7  -5  170.44    2.87
   1  -7  -5  167.64    2.46
  -1   7   5  176.75    3.42
  -1   7   5  157.00    3.00
   0  -7  -5    0.04    0.11
   0  -7  -5    0.13    0.08
   0  -7  -5    0.04    0.11
   0   7   5    0.14    0.18
   0   7   5    0.30    0.17
  -1  -7  -5    0.17    0.12
  -1  -7  -5    0.17    0.12
  -1  -7  -5    0.15    0.09
   1   7   5    0.43    0.20
   1   7   5    0.05    0.14
  -2  -7  -5   10.44    0.45
  -2  -7  -5   11.70    0.24
  -2  -7  -5   10.44    0.45
  -2  -7  -5   10.30    0.44
  -2  -7  -5   11.70    0.24
  -2  -7  -5   11.16    0.22
  -2  -7  -5   11.16    0.22
   2   7   5   10.42    0.72
   2   7   5   11.41    0.62
  -3  -7  -5  230.04    3.32
  -3  -7  -5  231.83    3.63
  -3  -7  -5  232.35    3.74
  -3  -7  -5  231.83    3.63
  -3  -7  -5  230.04    3.32
   3   7   5  230.38    4.62
   3   7   5  232.86    4.03
  -4  -7  -5   43.16    0.83
  -4  -7  -5   43.16    0.83
  -4  -7  -5   43.05    1.01
  -4  -7  -5   43.31    1.13
  -4  -7  -5   43.05    1.01
   4   7   5   44.22    1.28
   4   7   5   40.87    1.68
  -5  -7  -5   47.21    1.09
  -5  -7  -5   47.59    0.95
  -5  -7  -5   47.00    1.27
  -5  -7  -5   47.21    1.09
  -5  -7  -5   47.59    0.95
   5   7   5   46.52    1.90
   5   7   5   46.86    1.38
  -6  -7  -5  410.77    6.09
  -6  -7  -5  409.82    5.93
  -6  -7  -5  405.76    6.45
  -6  -7  -5  409.82    5.93
  -6  -7  -5  410.77    6.09
   6   7   5  401.20    7.77
   6   7   5  403.07    6.93
  -7  -7  -5    1.01    0.28
  -7  -7  -5    0.65    0.12
  -7  -7  -5    0.27    0.13
  -7  -7  -5    0.17    0.15
  -7  -7  -5    0.27    0.13
  -7  -7  -5    0.17    0.15
  -8  -7  -5    1.14    0.21
  -8  -7  -5    1.08    0.18
  -8  -7  -5    1.14    0.21
  -8  -7  -5    1.22    0.23
  -8  -7  -5    1.22    0.23
   8   7   5    0.98    0.24
  -9  -7  -5    7.99    0.45
  -9  -7  -5    7.99    0.45
  -9  -7  -5    7.48    0.48
  -9  -7  -5    8.02    0.43
  -9  -7  -5    7.48    0.48
   9   7   5    7.26    0.51
 -10  -7  -5    0.04    0.14
 -10  -7  -5   -0.36    0.15
 -10  -7  -5   -0.36    0.15
  10   7   5    0.03    0.16
 -11  -7  -5   14.96    0.75
 -11  -7  -5   14.96    0.75
 -11  -7  -5   13.55    0.65
  11   7   5   14.16    0.71
   6  -8  -5   43.69    1.37
   6  -8  -5   44.34    0.93
   6  -8  -5   43.69    1.37
   6  -8  -5   44.34    1.05
  -6   8   5   44.81    1.38
  -6   8   5   43.51    1.51
  -6   8   5   44.81    1.38
   5  -8  -5    3.10    0.42
   5  -8  -5    3.10    0.42
   5  -8  -5    3.38    0.22
   5  -8  -5    3.38    0.26
  -5   8   5    3.11    0.45
  -5   8   5    3.10    0.40
  -5   8   5    3.10    0.40
   4  -8  -5   19.91    0.53
   4  -8  -5   20.93    0.84
   4  -8  -5   19.94    0.46
   4  -8  -5   20.93    0.84
  -4   8   5   19.06    0.89
  -4   8   5   19.17    0.81
  -4   8   5   19.17    0.81
   3  -8  -5    2.88    0.19
   3  -8  -5    3.04    0.37
   3  -8  -5    3.04    0.37
   3  -8  -5    2.88    0.16
  -3   8   5    3.04    0.37
  -3   8   5    3.04    0.37
   2  -8  -5    3.57    0.19
   2  -8  -5    4.09    0.40
   2  -8  -5    3.57    0.16
   2  -8  -5    4.09    0.40
  -2   8   5    3.75    0.32
   1  -8  -5  111.49    2.12
   1  -8  -5  112.43    1.77
   1  -8  -5  111.49    2.12
  -1   8   5  102.53    2.19
   0  -8  -5    0.50    0.12
   0  -8  -5    0.87    0.19
   0  -8  -5    0.87    0.19
   0   8   5    0.59    0.23
   0   8   5    0.52    0.20
  -1  -8  -5  199.70    3.09
  -1  -8  -5  194.34    3.22
  -1  -8  -5  194.34    3.22
   1   8   5  201.56    3.70
   1   8   5  187.27    3.76
  -2  -8  -5  254.27    4.00
  -2  -8  -5  252.48    3.97
  -2  -8  -5  254.27    4.00
   2   8   5  250.90    4.81
   2   8   5  255.54    4.44
  -3  -8  -5   16.92    0.35
  -3  -8  -5   17.92    0.61
  -3  -8  -5   17.34    0.63
  -3  -8  -5   16.92    0.35
  -3  -8  -5   17.92    0.61
   3   8   5   16.90    0.79
   3   8   5   15.70    0.98
  -4  -8  -5   67.00    1.37
  -4  -8  -5   63.18    1.10
  -4  -8  -5   63.18    1.10
  -4  -8  -5   62.13    1.47
  -4  -8  -5   67.00    1.37
   4   8   5   62.67    2.16
   4   8   5   62.78    1.65
  -5  -8  -5   30.57    1.01
  -5  -8  -5   31.15    0.71
  -5  -8  -5   31.36    0.86
  -5  -8  -5   31.36    0.86
  -5  -8  -5   31.15    0.71
   5   8   5   32.89    1.61
   5   8   5   31.73    1.12
  -6  -8  -5   14.98    0.59
  -6  -8  -5   15.84    0.75
  -6  -8  -5   14.98    0.59
  -6  -8  -5   15.07    0.49
  -6  -8  -5   15.07    0.49
   6   8   5   15.90    1.22
  -7  -8  -5  143.51    2.54
  -7  -8  -5  140.08    2.37
  -7  -8  -5  136.80    2.88
  -7  -8  -5  143.51    2.54
  -7  -8  -5  140.08    2.37
  -8  -8  -5   23.76    0.73
  -8  -8  -5   24.85    1.01
  -8  -8  -5   23.76    0.73
  -8  -8  -5   24.85    1.01
  -9  -8  -5  113.56    2.13
  -9  -8  -5  113.56    2.13
  -9  -8  -5  112.21    1.96
   9   8   5  113.85    2.36
 -10  -8  -5   27.41    0.81
 -10  -8  -5   28.63    0.91
 -10  -8  -5   28.63    0.91
  10   8   5   27.62    1.03
   5  -9  -5   11.50    0.35
   5  -9  -5   11.74    0.70
   5  -9  -5   11.74    0.70
   5  -9  -5   11.50    0.41
  -5   9   5   11.19    0.78
  -5   9   5   10.93    0.68
  -5   9   5   10.93    0.68
   4  -9  -5   76.47    1.84
   4  -9  -5   76.47    1.84
  -4   9   5   78.69    1.86
  -4   9   5   78.69    1.86
  -4   9   5   74.68    1.96
   3  -9  -5   26.85    0.95
   3  -9  -5   26.85    0.95
  -3   9   5   25.15    0.93
  -3   9   5   22.88    0.96
  -3   9   5   25.15    0.93
   2  -9  -5    8.40    0.52
   2  -9  -5    8.40    0.52
   1  -9  -5    4.88    0.39
   1  -9  -5    5.72    0.26
   1  -9  -5    4.88    0.39
  -1   9   5    5.31    0.40
   0  -9  -5    2.30    0.30
   0  -9  -5    2.07    0.19
   0  -9  -5    2.30    0.30
   0   9   5    2.08    0.34
  -1  -9  -5    5.09    0.39
  -1  -9  -5    5.53    0.32
  -1  -9  -5    5.09    0.39
   1   9   5    5.00    0.50
  -2  -9  -5   18.00    0.62
   2   9   5   17.47    0.97
  -3  -9  -5    0.06    0.11
   3   9   5   -0.03    0.18
  -4  -9  -5   51.93    0.88
  -4  -9  -5   51.39    1.31
  -4  -9  -5   51.93    0.88
   4   9   5   51.09    1.98
  -5  -9  -5    1.26    0.14
  -5  -9  -5    1.62    0.28
  -5  -9  -5    1.26    0.14
   5   9   5    1.09    0.42
  -6  -9  -5   57.25    1.12
  -6  -9  -5   54.59    1.53
  -6  -9  -5   57.25    1.12
  -7  -9  -5   19.48    0.61
  -7  -9  -5   19.48    0.61
  -7  -9  -5   20.14    0.93
  -8  -9  -5   34.45    0.91
  -8  -9  -5   34.45    0.91
  -9  -9  -5   44.32    1.12
  -9  -9  -5   44.32    1.12
 -10  -9  -5    5.50    0.45
 -10  -9  -5    5.50    0.45
  10   9   5    3.92    0.46
   1 -10  -5   53.43    0.99
   0 -10  -5   31.10    0.74
   0  10   5   30.70    1.07
  -1 -10  -5    1.32    0.20
   1  10   5    1.42    0.33
  -2 -10  -5   69.94    1.47
   2  10   5   68.56    2.10
  -3 -10  -5    0.74    0.20
   3  10   5    1.30    0.41
  -4 -10  -5    0.04    0.13
  -5 -10  -5   31.70    0.64
  -5 -10  -5   31.70    0.64
  -5 -10  -5   31.32    1.07
  -6 -10  -5  110.29    2.44
  -6 -10  -5  112.39    1.86
  -6 -10  -5  112.39    1.86
  -7 -10  -5   12.73    0.47
  -7 -10  -5   11.60    0.74
  -7 -10  -5   12.73    0.47
  -8 -10  -5   20.34    1.01
  -8 -10  -5   20.21    0.66
  -8 -10  -5   20.21    0.66
  -9 -10  -5    0.90    0.20
  -9 -10  -5    0.90    0.20
   0 -11  -5    3.84    0.26
  -1 -11  -5  104.11    1.92
  -2 -11  -5   14.12    0.59
  -3 -11  -5    4.84    0.40
  -4 -11  -5    6.10    0.47
  -5 -11  -5    5.60    0.49
  -6 -11  -5    8.26    0.30
  -6 -11  -5    8.48    0.62
  -6 -11  -5    8.26    0.30
  -7 -11  -5   42.49    1.44
  -7 -11  -5   41.54    0.91
  -7 -11  -5   41.54    0.91
  -8 -11  -5   14.21    0.53
  -8 -11  -5   13.95    0.89
  -8 -11  -5   14.21    0.53
   0 -12  -5   46.92    1.01
  -1 -12  -5    3.85    0.32
  -2 -12  -5   40.21    1.09
  -3 -12  -5   30.70    0.99
  -4 -12  -5   36.32    1.16
  -5 -12  -5   21.56    0.93
  -6 -12  -5    4.63    0.53
  -7 -12  -5   22.57    1.06
  -7 -12  -5   21.75    0.54
  -7 -12  -5   21.75    0.54
  -6 -10   6   -0.01    0.13
  -6 -10   6   -0.01    0.13
  -5 -10   6   14.36    0.54
  -5 -10   6   15.31    0.93
  -5 -10   6   14.36    0.54
  -4 -10   6    1.52    0.19
  -4 -10   6    1.38    0.36
  -4 -10   6    1.52    0.19
  -3 -10   6    1.68    0.17
  -3 -10   6    1.68    0.17
  -3 -10   6    1.36    0.35
  -2 -10   6   10.80    0.28
  -2 -10   6    9.54    0.69
  -2 -10   6   10.80    0.28
  -1 -10   6    6.41    0.58
   0 -10   6   65.87    1.78
   1 -10   6    3.67    0.47
  -8  -9   6   16.61    0.69
  -8  -9   6   16.61    0.69
  -7  -9   6    1.48    0.26
  -7  -9   6    1.48    0.26
  -6  -9   6   96.16    1.85
  -6  -9   6   96.16    1.85
  -5  -9   6  126.79    2.24
  -5  -9   6  126.79    2.24
  -5  -9   6  130.55    2.90
  -4  -9   6    1.26    0.33
  -4  -9   6    1.00    0.18
  -4  -9   6    1.00    0.18
  -3  -9   6   52.35    1.07
  -3  -9   6   52.35    1.07
  -3  -9   6   55.30    1.62
  -2  -9   6   17.94    0.48
  -2  -9   6   17.94    0.48
  -2  -9   6   16.84    0.84
  -1  -9   6    6.76    0.23
  -1  -9   6    6.72    0.56
  -1  -9   6    6.76    0.23
   0  -9   6    0.18    0.19
   1  -9   6    6.35    0.54
   2  -9   6  156.42    3.10
   3  -9   6   87.69    2.10
  -9  -8   6    0.02    0.26
  -9  -8   6    0.02    0.26
  -9  -8   6    0.10    0.14
  -8  -8   6    0.84    0.22
  -8  -8   6    0.84    0.22
  -7  -8   6   -0.10    0.12
  -7  -8   6   -0.10    0.12
  -6  -8   6   12.99    0.54
  -6  -8   6   12.99    0.54
  -5  -8   6   10.05    0.46
  -5  -8   6   11.63    0.74
  -5  -8   6   10.05    0.46
  -4  -8   6    0.23    0.12
  -4  -8   6    0.36    0.21
  -4  -8   6    0.23    0.12
  -3  -8   6   56.86    1.15
  -3  -8   6   57.76    1.61
  -3  -8   6   56.86    1.15
  -2  -8   6    6.48    0.30
  -2  -8   6    6.48    0.30
  -2  -8   6    7.00    0.54
  -1  -8   6   22.66    0.55
  -1  -8   6   22.66    0.55
  -1  -8   6   23.57    0.93
   0  -8   6    3.50    0.17
   0  -8   6    2.86    0.37
   0  -8   6    3.50    0.17
   1  -8   6    1.58    0.31
   2  -8   6    5.25    0.50
   3  -8   6    5.48    0.51
   4  -8   6    6.51    0.56
  -9  -7   6    4.57    0.39
  -8  -7   6    3.75    0.44
  -8  -7   6    3.80    0.33
  -8  -7   6    3.75    0.44
  -7  -7   6   12.71    0.51
  -7  -7   6   12.39    0.56
  -7  -7   6   12.39    0.56
  -6  -7   6   95.09    1.82
  -6  -7   6   95.09    1.82
  -6  -7   6   94.26    1.68
  -5  -7   6    1.84    0.16
  -5  -7   6    1.41    0.22
  -5  -7   6    1.41    0.22
  -5  -7   6    1.36    0.37
  -4  -7   6    0.99    0.16
  -4  -7   6    0.81    0.24
  -4  -7   6    0.99    0.16
  -3  -7   6   18.20    0.55
  -3  -7   6   18.59    0.82
  -3  -7   6   18.20    0.55
  -2  -7   6   29.80    0.71
  -2  -7   6   29.15    1.02
  -2  -7   6   28.86    1.25
  -2  -7   6   29.80    0.71
  -1  -7   6   90.83    1.54
  -1  -7   6   90.83    1.54
  -1  -7   6   91.02    2.00
   0  -7   6   50.66    0.94
   0  -7   6   49.08    1.34
   0  -7   6   50.66    0.94
   1  -7   6   16.77    0.40
   1  -7   6   16.77    0.40
   1  -7   6   15.51    0.72
   2  -7   6  191.81    3.47
   3  -7   6   36.92    1.19
   4  -7   6   22.14    0.92
   5  -7   6    5.09    0.54
 -10  -6   6   -0.15    0.16
  -9  -6   6    1.14    0.25
  -8  -6   6    5.51    0.41
  -7  -6   6    1.95    0.27
  -7  -6   6    1.95    0.27
  -7  -6   6    1.90    0.26
  -6  -6   6    8.58    0.42
  -6  -6   6    9.06    0.45
  -6  -6   6    9.06    0.45
  -5  -6   6   25.20    0.72
  -5  -6   6   25.64    0.69
  -5  -6   6   25.20    0.72
  -4  -6   6    8.30    0.38
  -4  -6   6    7.62    0.54
  -4  -6   6    8.30    0.38
  -4  -6   6    8.03    0.31
  -3  -6   6   45.56    0.98
  -3  -6   6   44.91    1.53
  -3  -6   6   45.56    0.98
  -3  -6   6   46.92    1.32
  -2  -6   6   73.20    1.71
  -2  -6   6   74.37    1.97
  -2  -6   6   72.80    1.34
  -2  -6   6   72.80    1.34
   1   6  -6   63.88    1.32
  -1  -6   6   65.11    1.18
  -1  -6   6   65.11    1.18
  -1  -6   6   63.03    1.53
  -1  -6   6   61.08    1.72
   0   6  -6    0.26    0.12
   0  -6   6    0.19    0.16
   0  -6   6    0.33    0.10
   0  -6   6    0.33    0.10
   1  -6   6    0.53    0.10
   1  -6   6    0.53    0.10
   1  -6   6    0.25    0.16
   2  -6   6   25.81    0.92
   2  -6   6   27.98    0.58
   2  -6   6   27.98    0.58
   3  -6   6   73.33    1.78
   3  -6   6   78.55    1.21
   3  -6   6   78.55    1.21
   4  -6   6  123.71    2.55
   5  -6   6   46.48    1.40
   6  -6   6    1.65    0.34
 -10  -5   6   43.42    1.30
  -9  -5   6   19.30    0.80
  -8  -5   6    4.36    0.39
  -7  -5   6   27.04    0.84
  -6  -5   6   32.45    0.89
  -5  -5   6    8.73    0.41
  -5  -5   6    8.34    0.40
  -5  -5   6    8.73    0.41
  -4  -5   6  120.92    2.07
  -4  -5   6  121.45    2.47
  -4  -5   6  119.63    2.73
  -4  -5   6  121.73    2.05
  -4  -5   6  120.92    2.07
  -3  -5   6  320.47    4.71
  -3  -5   6  319.93    4.64
  -3  -5   6  316.15    5.15
  -3  -5   6  314.92    5.47
  -3  -5   6  320.47    4.71
   2   5  -6    0.22    0.13
  -2  -5   6    0.11    0.06
  -2  -5   6    0.36    0.12
  -2  -5   6    0.36    0.12
  -2  -5   6    0.04    0.16
  -2  -5   6    0.27    0.18
   1   5  -6  237.83    3.68
  -1  -5   6  234.48    3.52
  -1  -5   6  240.03    3.95
  -1  -5   6  234.48    3.52
  -1  -5   6  231.66    4.15
   0   5  -6    5.05    0.30
   0  -5   6    5.25    0.25
   0  -5   6    4.60    0.41
   0  -5   6    5.25    0.25
   0  -5   6    5.66    0.41
  -1   5  -6   18.94    0.57
   1  -5   6   18.63    1.27
   1  -5   6   18.47    0.72
   1  -5   6   18.69    0.48
   1  -5   6   18.69    0.48
   2  -5   6   11.15    0.35
   2  -5   6   10.90    0.57
   2  -5   6   11.15    0.35
   3  -5   6    6.85    0.26
   3  -5   6    6.85    0.26
   3  -5   6    6.31    0.46
   4  -5   6    9.21    0.29
   4  -5   6    9.21    0.29
   4  -5   6    9.16    0.57
   5  -5   6   73.32    1.81
   5  -5   6   73.03    1.18
   5  -5   6   73.03    1.18
   6  -5   6    4.88    0.52
   7  -5   6   56.58    1.66
  10   4  -6   10.20    0.56
  10   4  -6   10.20    0.56
 -10  -4   6   11.51    0.67
   9   4  -6    5.59    0.44
   9   4  -6    5.59    0.44
  -9  -4   6    5.06    0.47
   8   4  -6    4.91    0.40
   8   4  -6    4.91    0.40
  -8  -4   6    5.38    0.44
  -7  -4   6   50.10    1.24
  -6  -4   6   89.30    1.76
  -5  -4   6   72.74    1.42
  -5  -4   6   74.91    1.48
  -5  -4   6   72.17    1.99
  -5  -4   6   72.74    1.42
  -4  -4   6  134.84    2.27
  -4  -4   6  134.18    2.23
  -4  -4   6  133.88    2.86
  -4  -4   6  134.18    2.23
   3   4  -6    2.66    0.25
  -3  -4   6    2.68    0.22
  -3  -4   6    2.99    0.22
  -3  -4   6    1.87    0.27
  -3  -4   6    2.68    0.22
  -3  -4   6    2.87    0.41
   2   4  -6    6.75    0.35
  -2  -4   6    6.68    0.30
  -2  -4   6    6.69    0.28
  -2  -4   6    6.68    0.30
  -2  -4   6    6.29    0.43
  -2  -4   6    6.39    0.48
   1   4  -6  135.50    2.23
  -1  -4   6  127.40    2.09
  -1  -4   6  130.65    2.00
  -1  -4   6  131.47    2.57
  -1  -4   6  132.95    2.44
  -1  -4   6  127.40    2.09
   0   4  -6  328.72    4.79
   0  -4   6  319.54    5.13
   0  -4   6  320.38    4.66
   0  -4   6  317.40    5.03
   0  -4   6  320.38    4.66
  -1   4  -6   69.36    1.31
   1  -4   6   67.89    1.21
   1  -4   6   67.89    1.21
   1  -4   6   67.08    1.51
   1  -4   6   69.26    2.27
  -2   4  -6  159.96    2.54
   2  -4   6  155.80    2.82
   2  -4   6  154.53    2.40
   2  -4   6  154.53    2.40
   3  -4   6   -0.08    0.14
   3  -4   6    0.07    0.07
   3  -4   6    0.07    0.07
   4  -4   6    5.39    0.25
   4  -4   6    5.39    0.25
   4  -4   6    5.40    0.44
  -5   4  -6    9.50    0.53
  -5   4  -6    9.50    0.53
   5  -4   6    8.62    0.31
   5  -4   6    8.05    0.55
   5  -4   6    8.62    0.31
  -6   4  -6    2.11    0.29
  -6   4  -6    2.11    0.29
   6  -4   6    2.29    0.18
   6  -4   6    2.07    0.36
   6  -4   6    2.29    0.18
  -7   4  -6  136.03    2.56
  -7   4  -6  136.03    2.56
   7  -4   6  138.10    2.10
   7  -4   6  138.10    2.10
   7  -4   6  136.38    2.89
  -8   4  -6   18.81    0.79
  -8   4  -6   18.81    0.79
   8  -4   6   19.02    0.96
   8  -4   6   19.41    0.42
   8  -4   6   19.41    0.42
  10   3  -6   11.35    0.56
  10   3  -6   11.35    0.56
 -10  -3   6   11.94    0.69
   9   3  -6    0.14    0.16
   9   3  -6    0.14    0.16
  -9  -3   6   -0.12    0.16
   8   3  -6    6.20    0.39
   8   3  -6    6.20    0.39
  -8  -3   6    6.85    0.47
   7   3  -6    1.91    0.24
   7   3  -6    1.91    0.24
  -7  -3   6    2.04    0.28
   6   3  -6  206.25    3.28
   6   3  -6  206.25    3.28
  -6  -3   6  207.54    3.41
   5   3  -6  268.38    4.12
   5   3  -6  268.38    4.12
  -5  -3   6  275.61    4.23
  -5  -3   6  274.43    4.85
   4   3  -6   92.24    1.61
   4   3  -6   90.37    1.61
   4   3  -6   92.24    1.61
   4   3  -6   90.37    1.61
  -4  -3   6   89.21    1.60
  -4  -3   6   89.00    2.11
  -4  -3   6   89.21    1.60
  -4  -3   6   87.42    1.65
   3   3  -6  147.93    2.47
  -3  -3   6  146.20    2.43
  -3  -3   6  150.57    2.71
  -3  -3   6  146.26    2.90
  -3  -3   6  151.61    2.39
  -3  -3   6  151.61    2.39
   2   3  -6   46.13    1.00
  -2  -3   6   45.34    1.27
  -2  -3   6   45.95    0.95
  -2  -3   6   46.63    0.93
  -2  -3   6   45.70    1.15
  -2  -3   6   46.63    0.93
   1   3  -6  231.10    3.53
  -1  -3   6  230.58    3.42
  -1  -3   6  226.96    3.86
  -1  -3   6  230.58    3.42
  -1  -3   6  229.93    3.75
  -1  -3   6  228.32    3.42
   0   3  -6   15.63    0.50
   0  -3   6   15.61    0.44
   0  -3   6   15.99    0.62
   0  -3   6   16.13    0.41
   0  -3   6   15.61    0.44
   0  -3   6   15.24    0.62
  -1   3  -6   21.25    0.59
   1  -3   6   20.85    0.52
   1  -3   6   21.50    0.68
   1  -3   6   21.88    0.43
   1  -3   6   21.70    0.74
   1  -3   6   20.85    0.52
  -2   3  -6   63.52    1.23
  -2   3  -6   64.29    1.15
  -2   3  -6   64.29    1.15
   2  -3   6   65.38    1.84
   2  -3   6   61.24    1.13
   2  -3   6   61.24    1.13
   2  -3   6   63.92    1.46
  -3   3  -6  116.37    1.94
  -3   3  -6  116.37    1.94
  -3   3  -6  115.62    2.00
   3  -3   6  116.99    1.89
   3  -3   6  118.06    2.29
   3  -3   6  116.99    1.89
  -4   3  -6  137.80    2.31
  -4   3  -6  140.81    2.35
  -4   3  -6  137.80    2.31
   4  -3   6  137.96    2.19
   4  -3   6  138.70    2.66
   4  -3   6  137.96    2.19
  -5   3  -6    9.75    0.45
  -5   3  -6    9.75    0.45
   5  -3   6   10.06    0.36
   5  -3   6   10.06    0.36
   5  -3   6    9.93    0.60
  -6   3  -6   68.04    1.46
  -6   3  -6   68.04    1.46
   6  -3   6   67.83    1.75
   6  -3   6   68.09    1.25
   6  -3   6   68.09    1.25
  -7   3  -6    1.64    0.27
  -7   3  -6    1.64    0.27
   7  -3   6    1.26    0.16
   7  -3   6    1.82    0.36
   7  -3   6    1.26    0.16
  -8   3  -6    6.00    0.48
  -8   3  -6    6.00    0.48
   8  -3   6    6.25    0.30
   8  -3   6    6.25    0.30
   8  -3   6    6.07    0.64
  -9   3  -6    3.30    0.43
  -9   3  -6    3.30    0.43
   9  -3   6    3.15    0.22
   9  -3   6    3.15    0.22
   9  -3   6    3.33    0.51
  10   2  -6    7.32    0.45
  10   2  -6    8.11    0.46
  10   2  -6    8.11    0.46
  10   2  -6    7.32    0.45
   9   2  -6   32.60    0.90
   9   2  -6   32.60    0.90
   8   2  -6    0.27    0.18
   8   2  -6    0.27    0.18
   8   2  -6   -0.01    0.11
   8   2  -6   -0.01    0.11
  -8  -2   6    0.35    0.17
  -8  -2   6    0.35    0.17
   7   2  -6  120.10    2.20
   7   2  -6  120.10    2.20
   7   2  -6  121.80    2.11
   7   2  -6  121.80    2.11
  -7  -2   6  119.11    2.25
  -7  -2   6  120.53    2.18
  -7  -2   6  120.53    2.18
  -7  -2   6  109.46    3.70
   6   2  -6    2.42    0.26
   6   2  -6    3.27    0.34
   6   2  -6    3.23    0.28
   6   2  -6    3.23    0.28
   6   2  -6    3.18    0.40
   6   2  -6    3.33    0.44
   6   2  -6    2.42    0.26
  -6  -2   6    2.58    0.40
  -6  -2   6    3.25    0.32
  -6  -2   6    2.83    0.27
  -6  -2   6    2.51    0.43
  -6  -2   6    2.83    0.27
   5   2  -6   54.77    1.14
   5   2  -6   56.56    1.12
   5   2  -6   56.56    1.12
   5   2  -6   52.47    1.37
   5   2  -6   52.47    1.21
   5   2  -6   54.77    1.14
   5   2  -6   56.76    1.47
  -5  -2   6   55.05    1.13
  -5  -2   6   55.05    1.13
  -5  -2   6   57.19    1.22
  -5  -2   6   52.93    1.44
   4   2  -6   50.58    1.02
   4   2  -6   52.05    1.03
   4   2  -6   50.33    1.27
   4   2  -6   52.05    1.03
   4   2  -6   49.88    1.27
   4   2  -6   50.71    1.02
   4   2  -6   50.30    1.11
   4   2  -6   50.58    1.02
   4   2  -6   50.71    1.02
  -4  -2   6   49.52    1.01
  -4  -2   6   49.52    1.01
  -4  -2   6   49.17    1.09
  -4  -2   6   51.18    1.29
   3   2  -6  180.19    2.86
   3   2  -6  191.18    3.00
   3   2  -6  191.28    3.21
   3   2  -6  183.94    2.86
   3   2  -6  181.19    3.07
   3   2  -6  183.94    2.86
   3   2  -6  180.19    2.86
   3   2  -6  187.79    2.83
   3   2  -6  187.79    2.83
  -3  -2   6  185.22    2.93
  -3  -2   6  186.73    3.09
   2   2  -6    0.24    0.09
   2   2  -6    0.24    0.09
   2   2  -6    0.03    0.08
   2   2  -6   -0.05    0.09
  -2  -2   6    0.06    0.08
  -2  -2   6    0.10    0.08
  -2  -2   6    0.10    0.09
  -2  -2   6    0.09    0.08
  -2  -2   6    0.10    0.08
   1   2  -6  540.99    7.83
   1   2  -6  558.40    7.78
  -1  -2   6  543.87    7.68
  -1  -2   6  557.05    7.76
  -1  -2   6  543.10    7.72
  -1  -2   6  540.52    7.99
  -1  -2   6  535.75    7.81
  -1  -2   6  543.87    7.68
   0   2  -6   72.01    1.20
   0   2  -6   72.00    1.32
   0   2  -6   72.01    1.20
   0   2  -6   70.27    1.36
   0  -2   6   71.58    1.32
   0  -2   6   71.25    1.24
   0  -2   6   72.96    1.50
   0  -2   6   71.65    1.20
   0  -2   6   66.97    1.96
   0  -2   6   70.16    1.25
   0  -2   6   71.25    1.24
  -1   2  -6   10.69    0.34
  -1   2  -6   10.69    0.34
  -1   2  -6   11.29    0.40
   1  -2   6   10.94    0.51
   1  -2   6   10.73    0.42
   1  -2   6   10.96    0.35
   1  -2   6   11.28    0.34
   1  -2   6   10.96    0.35
  -2   2  -6  404.95    5.71
  -2   2  -6  398.62    5.80
  -2   2  -6  404.95    5.71
   2  -2   6  397.34    6.10
   2  -2   6  401.32    5.61
   2  -2   6  393.33    5.82
   2  -2   6  401.41    5.70
   2  -2   6  401.41    5.70
   2  -2   6  387.10    5.97
  -3   2  -6   22.70    0.63
  -3   2  -6   21.81    0.59
  -3   2  -6   21.81    0.59
   3  -2   6   23.15    0.80
   3  -2   6   23.75    0.42
   3  -2   6   23.55    0.57
   3  -2   6   23.55    0.57
   3  -2   6   23.46    0.81
  -4   2  -6  289.53    4.37
  -4   2  -6  296.20    4.42
  -4   2  -6  289.53    4.37
   4  -2   6  289.27    4.77
   4  -2   6  288.48    4.27
   4  -2   6  288.48    4.27
   4  -2   6  294.70    4.86
  -5   2  -6   18.22    0.63
  -5   2  -6   17.15    0.59
  -5   2  -6   17.15    0.59
   5  -2   6   18.94    0.87
   5  -2   6   19.60    0.81
   5  -2   6   18.86    0.52
   5  -2   6   18.86    0.52
  -6   2  -6  362.57    5.47
  -6   2  -6  362.57    5.47
   6  -2   6  358.35    5.24
   6  -2   6  358.35    5.24
   6  -2   6  351.85    5.86
  -7   2  -6   21.42    0.76
  -7   2  -6   21.42    0.76
   7  -2   6   20.57    0.59
   7  -2   6   21.22    0.94
   7  -2   6   20.57    0.59
  -8   2  -6    0.24    0.20
  -8   2  -6    0.24    0.20
   8  -2   6    0.22    0.11
   8  -2   6    0.22    0.11
   8  -2   6    0.16    0.20
  -9   2  -6   10.92    0.65
  -9   2  -6   10.92    0.65
   9  -2   6   11.69    0.45
   9  -2   6   12.07    0.82
   9  -2   6   11.69    0.45
  10   1  -6   17.37    0.64
  10   1  -6   17.37    0.64
  10   1  -6   16.58    0.79
  10   1  -6   18.16    0.64
  10   1  -6   18.16    0.64
  10   1  -6   16.58    0.79
 -10  -1   6   18.35    0.80
 -10  -1   6   18.35    0.80
   9   1  -6   20.38    0.66
   9   1  -6   20.38    0.66
   9   1  -6   20.03    0.98
   9   1  -6   20.82    0.82
   9   1  -6   20.82    0.82
   9   1  -6   20.13    0.66
   9   1  -6   20.13    0.66
   9   1  -6   20.04    0.82
  -9  -1   6   20.98    0.81
  -9  -1   6   20.98    0.81
  -9  -1   6   21.00    0.91
   8   1  -6   54.46    1.15
   8   1  -6   50.57    1.13
   8   1  -6   50.57    1.13
   8   1  -6   50.79    1.31
   8   1  -6   52.62    1.32
   8   1  -6   54.46    1.15
   8   1  -6   50.80    1.51
   8   1  -6   52.62    1.32
  -8  -1   6   52.38    1.44
  -8  -1   6   50.86    1.29
  -8  -1   6   50.86    1.29
   7   1  -6   29.24    0.89
   7   1  -6   31.71    0.92
   7   1  -6   29.35    0.77
   7   1  -6   31.74    1.08
   7   1  -6   29.24    0.89
   7   1  -6   31.19    0.79
   7   1  -6   31.19    0.79
   7   1  -6   29.35    0.77
  -7  -1   6   30.99    0.90
  -7  -1   6   30.99    0.90
   6   1  -6  137.81    2.89
   6   1  -6  135.52    2.38
   6   1  -6  134.66    2.23
   6   1  -6  134.66    2.23
   6   1  -6  135.52    2.38
   6   1  -6  132.43    2.39
   6   1  -6  136.16    2.24
   6   1  -6  136.16    2.24
   6   1  -6  132.43    2.63
  -6  -1   6  134.40    2.36
  -6  -1   6  134.40    2.36
  -6  -1   6  131.06    2.86
   5   1  -6  152.31    2.44
   5   1  -6  149.13    2.98
   5   1  -6  153.22    2.44
   5   1  -6  153.03    2.81
   5   1  -6  152.31    2.44
   5   1  -6  154.12    2.55
   5   1  -6  154.12    2.55
   5   1  -6  152.94    2.59
   5   1  -6  153.22    2.44
  -5  -1   6  151.73    3.00
  -5  -1   6  149.02    2.53
  -5  -1   6  154.33    2.57
  -5  -1   6  149.02    2.53
   4   1  -6  181.38    3.13
   4   1  -6  181.09    2.81
   4   1  -6  181.33    2.81
   4   1  -6  179.69    2.87
   4   1  -6  181.33    2.81
   4   1  -6  181.09    2.81
   4   1  -6  181.54    2.92
   4   1  -6  185.85    3.29
   4   1  -6  179.69    2.87
  -4  -1   6  178.81    2.91
  -4  -1   6  180.47    3.26
   3   1  -6  184.18    2.76
   3   1  -6  176.06    3.06
   3   1  -6  171.17    2.71
   3   1  -6  184.18    2.76
   3   1  -6  171.17    2.71
   3   1  -6  170.95    2.80
   3   1  -6  170.95    2.98
  -3  -1   6  176.24    3.06
  -3  -1   6  177.33    2.80
   2   1  -6    0.01    0.07
   2   1  -6    0.53    0.14
   2   1  -6    0.51    0.17
   2   1  -6    0.01    0.07
  -2  -1   6    1.31    0.16
   1   1  -6  187.55    2.88
   1   1  -6  188.43    2.83
   1   1  -6  188.43    2.83
  -1  -1   6  187.79    3.02
  -1  -1   6  189.32    2.90
   0   1  -6  116.33    1.92
   0   1  -6  116.66    1.85
   0   1  -6  116.66    1.85
   0  -1   6  114.37    1.90
   0  -1   6  120.60    2.73
   0  -1   6  116.77    2.02
  -1   1  -6   24.26    0.62
  -1   1  -6   25.62    0.58
  -1   1  -6   25.22    0.80
  -1   1  -6   25.62    0.58
   1  -1   6   24.37    0.59
   1  -1   6   24.39    0.69
   1  -1   6   24.98    0.57
   1  -1   6   24.98    0.57
  -2   1  -6  413.98    5.75
  -2   1  -6  413.98    5.75
  -2   1  -6  386.18    6.13
  -2   1  -6  409.76    5.83
   2  -1   6  405.27    6.02
   2  -1   6  396.45    7.55
   2  -1   6  395.09    5.72
   2  -1   6  395.09    5.72
   2  -1   6  392.69    6.10
   2  -1   6  406.60    5.74
  -3   1  -6  176.24    2.75
  -3   1  -6  181.87    2.83
  -3   1  -6  176.24    2.75
  -3   1  -6  174.88    3.13
   3  -1   6  177.96    3.08
   3  -1   6  176.04    3.10
   3  -1   6  175.35    2.71
   3  -1   6  176.81    2.67
   3  -1   6  175.35    2.71
  -4   1  -6   90.58    1.62
  -4   1  -6   89.51    1.66
  -4   1  -6   90.58    1.62
   4  -1   6   89.07    1.96
   4  -1   6   90.55    1.45
   4  -1   6   88.25    1.54
   4  -1   6   88.25    1.54
  -5   1  -6   26.43    0.74
  -5   1  -6   26.83    0.76
  -5   1  -6   26.43    0.74
   5  -1   6   26.81    0.66
   5  -1   6   27.95    0.97
   5  -1   6   26.81    0.66
   5  -1   6   26.55    1.02
  -6   1  -6   -0.05    0.12
  -6   1  -6   -0.05    0.12
   6  -1   6    0.22    0.10
   6  -1   6    0.31    0.18
   6  -1   6    0.22    0.10
   6  -1   6    0.02    0.18
  -7   1  -6    0.23    0.16
  -7   1  -6    0.23    0.16
   7  -1   6    0.56    0.13
   7  -1   6    0.28    0.20
   7  -1   6    0.56    0.13
  -8   1  -6    0.13    0.17
  -8   1  -6    0.13    0.17
   8  -1   6    0.12    0.11
   8  -1   6   -0.25    0.16
   8  -1   6    0.12    0.11
  -9   1  -6   46.21    1.30
  -9   1  -6   46.21    1.30
   9  -1   6   44.66    1.03
   9  -1   6   44.66    1.03
   9  -1   6   44.29    1.54
 -10   1  -6   21.88    0.92
 -10   1  -6   21.88    0.92
  10  -1   6   21.48    0.67
  10  -1   6   22.15    1.13
  10  -1   6   21.48    0.67
  10   0  -6    0.09    0.22
  10   0  -6    0.22    0.22
  10   0  -6   -0.28    0.10
  10   0  -6    0.09    0.18
  10   0  -6    0.22    0.22
  10   0  -6   -0.28    0.10
 -10   0   6   -0.12    0.19
 -10   0   6    0.08    0.23
 -10   0   6   -0.12    0.19
   9   0  -6   35.51    0.88
   9   0  -6   31.62    1.09
   9   0  -6   35.15    1.09
   9   0  -6   35.16    1.29
   9   0  -6   35.51    0.88
   9   0  -6   31.62    1.09
  -9   0   6   35.69    1.12
  -9   0   6   35.28    1.24
  -9   0   6   35.69    1.12
   8   0  -6    1.39    0.27
   8   0  -6    1.29    0.20
   8   0  -6    1.29    0.20
   8   0  -6    1.99    0.22
   8   0  -6    1.99    0.22
   8   0  -6    1.39    0.27
   8   0  -6    1.89    0.29
   8   0  -6    1.83    0.34
  -8   0   6    1.96    0.30
  -8   0   6    1.62    0.33
  -8   0   6    1.96    0.30
   7   0  -6   34.54    0.97
   7   0  -6   35.03    0.83
   7   0  -6   34.88    1.01
   7   0  -6   34.53    1.14
   7   0  -6   34.88    1.01
   7   0  -6   35.03    0.83
   7   0  -6   34.45    0.82
   7   0  -6   34.45    0.82
  -7   0   6   36.47    1.02
  -7   0   6   36.47    1.02
   6   0  -6   19.81    0.67
   6   0  -6   21.21    0.58
   6   0  -6   21.21    0.58
   6   0  -6   21.85    0.72
   6   0  -6   21.85    0.72
   6   0  -6   20.85    0.98
   6   0  -6   20.12    0.57
   6   0  -6   19.82    0.79
   6   0  -6   20.12    0.57
  -6   0   6   20.88    0.99
  -6   0   6   19.95    0.69
  -6   0   6   19.95    0.69
   5   0  -6  134.03    2.31
   5   0  -6  130.94    2.28
   5   0  -6  130.89    2.48
   5   0  -6  134.03    2.31
   5   0  -6  134.83    2.00
   5   0  -6  132.11    2.78
   5   0  -6  129.09    2.13
   5   0  -6  129.09    2.13
  -5   0   6  130.54    2.30
  -5   0   6  133.04    2.78
  -5   0   6  130.54    2.30
   4   0  -6  389.85    5.95
   4   0  -6  394.97    5.70
   4   0  -6  391.57    5.76
   4   0  -6  391.12    5.61
   4   0  -6  391.57    5.76
   4   0  -6  391.12    5.61
   4   0  -6  389.79    5.74
   4   0  -6  386.86    6.23
  -4   0   6  384.80    6.22
   3   0  -6   17.40    0.71
   3   0  -6   18.09    0.58
   3   0  -6   18.07    0.49
   3   0  -6   18.32    0.54
   3   0  -6   16.75    0.52
   3   0  -6   18.32    0.64
   3   0  -6   18.07    0.49
   3   0  -6   16.75    0.52
  -3   0   6   16.71    0.70
  -3   0   6   19.05    0.56
   2   0  -6  128.75    2.07
   2   0  -6  125.49    2.08
   2   0  -6  125.49    2.24
   2   0  -6  127.77    2.22
   2   0  -6  125.91    2.02
   2   0  -6  126.29    2.34
   2   0  -6  128.75    2.07
   2   0  -6  125.91    2.02
  -2   0   6  124.27    2.33
  -2   0   6  129.87    2.16
   1   0  -6    0.33    0.15
   1   0  -6    0.54    0.16
   1   0  -6    0.55    0.13
   1   0  -6    0.95    0.13
   1   0  -6    0.95    0.13
  -1   0   6    0.84    0.13
  -1   0   6    0.51    0.14
   0   0  -6  326.29    4.68
   0   0  -6  323.70    4.97
   0   0  -6  318.82    4.67
   0   0  -6  326.29    4.68
   0   0   6  327.13    4.71
   0   0   6  319.89    4.90
   0   0   6  321.27    5.62
  -1   0  -6   14.58    0.42
  -1   0  -6   14.41    0.58
  -1   0  -6   14.58    0.42
  -1   0  -6   14.02    0.43
   1   0   6   13.90    0.52
   1   0   6   14.55    0.81
  -2   0  -6    1.62    0.23
  -2   0  -6    0.72    0.12
  -2   0  -6    0.87    0.14
  -2   0  -6    0.72    0.12
   2   0   6    0.85    0.12
   2   0   6    0.60    0.14
   2   0   6    0.85    0.26
   2   0   6    1.52    0.27
  -3   0  -6    5.75    0.28
  -3   0  -6    5.67    0.39
  -3   0  -6    6.02    0.30
  -3   0  -6    5.75    0.28
   3   0   6    5.70    0.26
   3   0   6    5.54    0.37
   3   0   6    5.01    0.60
   3   0   6    5.37    0.26
   3   0   6    5.65    0.40
   3   0   6    5.70    0.26
  -4   0  -6  357.24    5.57
  -4   0  -6  352.09    5.20
  -4   0  -6  352.09    5.20
  -4   0  -6  356.65    5.25
   4   0   6  354.87    5.13
   4   0   6  358.22    5.13
   4   0   6  350.91    5.63
   4   0   6  344.76    5.58
   4   0   6  354.87    5.13
  -5   0  -6   97.87    1.81
  -5   0  -6  102.02    1.86
  -5   0  -6   97.87    1.81
  -5   0  -6   99.96    2.08
   5   0   6  102.73    2.24
   5   0   6   99.74    1.68
   5   0   6  101.51    2.16
   5   0   6  102.52    1.74
   5   0   6  102.52    1.74
  -6   0  -6   10.72    0.48
  -6   0  -6   10.72    0.48
   6   0   6   10.92    0.35
   6   0   6   10.89    0.69
   6   0   6   12.24    0.67
   6   0   6   11.14    0.42
   6   0   6   11.14    0.42
  -7   0  -6   39.06    1.04
  -7   0  -6   39.06    1.04
   7   0   6   38.91    0.91
   7   0   6   38.91    0.91
   7   0   6   38.87    1.29
  -8   0  -6   30.56    0.95
  -8   0  -6   30.56    0.95
   8   0   6   29.65    0.80
   8   0   6   30.88    1.19
   8   0   6   29.65    0.80
  -9   0  -6    0.01    0.18
  -9   0  -6    0.01    0.18
   9   0   6   -0.05    0.11
   9   0   6   -0.05    0.11
   9   0   6    0.41    0.26
 -10   0  -6    3.00    0.40
 -10   0  -6    3.00    0.40
  10   0   6    2.75    0.29
  10   0   6    2.75    0.29
  10  -1  -6   17.64    0.55
  10  -1  -6   17.09    0.80
  10  -1  -6   16.85    0.86
  10  -1  -6   17.09    0.95
  10  -1  -6   17.64    0.55
  10  -1  -6   16.85    0.86
 -10   1   6   18.32    0.86
 -10   1   6   18.32    0.86
 -10   1   6   18.05    0.96
   9  -1  -6   48.59    1.39
   9  -1  -6   47.37    1.02
   9  -1  -6   46.99    1.50
   9  -1  -6   47.37    1.02
   9  -1  -6   48.59    1.39
   9  -1  -6   46.99    1.29
  -9   1   6   48.58    1.38
  -9   1   6   49.29    1.54
  -9   1   6   48.58    1.38
   8  -1  -6   25.41    1.01
   8  -1  -6   24.56    0.92
   8  -1  -6   24.56    0.92
   8  -1  -6   26.50    0.68
   8  -1  -6   26.50    0.68
   8  -1  -6   25.41    0.85
  -8   1   6   26.06    0.92
  -8   1   6   27.00    1.06
  -8   1   6   26.06    0.92
   7  -1  -6   13.08    0.67
   7  -1  -6   12.47    0.61
   7  -1  -6   12.47    0.61
   7  -1  -6   13.08    0.56
   7  -1  -6   11.88    0.42
   7  -1  -6   11.88    0.42
  -7   1   6   12.21    0.60
  -7   1   6   12.21    0.60
   6  -1  -6   24.86    0.87
   6  -1  -6   24.26    0.61
   6  -1  -6   24.85    0.74
   6  -1  -6   24.26    0.61
   6  -1  -6   22.77    0.78
   6  -1  -6   22.77    0.78
  -6   1   6   24.53    0.80
  -6   1   6   24.53    0.80
   5  -1  -6    2.14    0.26
   5  -1  -6    2.73    0.30
   5  -1  -6    2.80    0.26
   5  -1  -6    2.60    0.21
   5  -1  -6    3.12    0.43
   5  -1  -6    2.14    0.26
   5  -1  -6    2.60    0.21
  -5   1   6    2.43    0.27
  -5   1   6    2.43    0.27
  -5   1   6    2.11    0.37
   4  -1  -6    3.36    0.30
   4  -1  -6    2.35    0.26
   4  -1  -6    3.36    0.30
   4  -1  -6    3.00    0.19
   4  -1  -6    3.00    0.19
   4  -1  -6    2.45    0.35
   4  -1  -6    2.42    0.22
  -4   1   6    1.86    0.31
   3  -1  -6   48.77    0.94
   3  -1  -6   48.77    0.94
   3  -1  -6   51.38    1.08
   3  -1  -6   51.38    1.08
   3  -1  -6   50.16    1.15
   3  -1  -6   50.17    1.02
   3  -1  -6   50.36    1.37
  -3   1   6   51.30    1.37
   2  -1  -6   52.00    1.03
   2  -1  -6   54.55    0.98
   2  -1  -6   51.84    1.07
   2  -1  -6   51.84    1.07
   2  -1  -6   54.41    0.98
   2  -1  -6   52.03    1.15
   2  -1  -6   54.41    0.98
   2  -1  -6   51.06    1.31
  -2   1   6   50.44    1.30
   1  -1  -6   76.89    1.38
   1  -1  -6   76.54    1.39
   1  -1  -6   76.89    1.38
   1  -1  -6   75.00    1.35
   1  -1  -6   78.57    1.31
   1  -1  -6   78.57    1.31
   1  -1  -6   74.99    1.48
  -1   1   6   73.23    1.60
   0  -1  -6   26.01    0.71
   0  -1  -6   24.99    0.61
   0  -1  -6   24.84    0.61
   0  -1  -6   24.99    0.70
   0  -1  -6   24.84    0.61
   0  -1  -6   25.95    0.69
   0   1   6   26.28    1.06
   0   1   6   25.32    0.76
  -1  -1  -6   58.56    1.12
  -1  -1  -6   62.38    1.09
  -1  -1  -6   61.77    1.27
  -1  -1  -6   58.56    1.12
   1   1   6   61.39    1.33
   1   1   6   61.53    1.13
   1   1   6   61.98    1.78
  -2  -1  -6    0.06    0.07
  -2  -1  -6    0.06    0.07
  -2  -1  -6    0.18    0.09
  -2  -1  -6    0.13    0.07
   2   1   6    0.30    0.08
   2   1   6    0.40    0.20
   2   1   6    0.11    0.09
  -3  -1  -6   43.33    1.07
  -3  -1  -6   44.34    0.92
  -3  -1  -6   42.24    0.90
  -3  -1  -6   42.24    0.90
   3   1   6   42.29    1.12
   3   1   6   43.76    1.57
   3   1   6   42.49    0.91
  -4  -1  -6   35.79    0.83
  -4  -1  -6   35.79    0.83
  -4  -1  -6   34.90    0.84
   4   1   6   36.12    1.08
   4   1   6   35.23    0.81
   4   1   6   34.32    1.05
   4   1   6   35.97    0.78
   4   1   6   35.97    0.78
   4   1   6   35.33    1.44
  -5  -1  -6   68.62    1.37
  -5  -1  -6   66.05    1.34
  -5  -1  -6   68.08    1.51
  -5  -1  -6   66.05    1.34
   5   1   6   67.28    1.27
   5   1   6   68.46    1.30
   5   1   6   69.06    1.72
   5   1   6   67.28    1.27
   5   1   6   67.62    1.64
  -6  -1  -6  162.35    2.90
  -6  -1  -6  158.52    2.72
  -6  -1  -6  158.52    2.72
   6   1   6  161.94    2.62
   6   1   6  163.93    2.60
   6   1   6  161.94    2.62
   6   1   6  163.51    3.26
  -7  -1  -6   27.46    0.83
  -7  -1  -6   26.80    0.90
  -7  -1  -6   27.46    0.83
   7   1   6   26.32    1.05
   7   1   6   27.36    0.74
   7   1   6   27.36    0.74
   7   1   6   26.30    0.67
  -8  -1  -6    1.30    0.25
  -8  -1  -6    1.30    0.25
   8   1   6    1.22    0.19
   8   1   6    1.22    0.19
   8   1   6    1.72    0.16
  -9  -1  -6   12.40    0.63
  -9  -1  -6   12.40    0.63
   9   1   6   10.88    0.50
   9   1   6   10.88    0.50
 -10  -1  -6    6.55    0.52
 -10  -1  -6    6.55    0.52
  10   1   6    5.66    0.39
  10   1   6    5.66    0.39
   9  -2  -6   31.74    1.13
   9  -2  -6   33.21    1.03
   9  -2  -6   32.80    0.70
   9  -2  -6   32.80    0.70
   9  -2  -6   31.74    1.13
   9  -2  -6   33.22    1.21
  -9   2   6   33.78    1.29
  -9   2   6   33.86    1.16
  -9   2   6   33.86    1.16
   8  -2  -6   40.92    0.83
   8  -2  -6   39.40    1.08
   8  -2  -6   40.75    1.23
   8  -2  -6   40.92    0.83
   8  -2  -6   39.42    1.26
   8  -2  -6   40.75    1.23
  -8   2   6   39.08    1.21
  -8   2   6   41.42    1.37
  -8   2   6   39.08    1.21
   7  -2  -6    2.89    0.21
   7  -2  -6    1.42    0.28
   7  -2  -6    2.53    0.29
   7  -2  -6    1.42    0.28
   7  -2  -6    2.89    0.21
   7  -2  -6    2.46    0.34
  -7   2   6    2.54    0.34
  -7   2   6    2.54    0.34
   6  -2  -6  141.78    2.57
   6  -2  -6  134.58    2.15
   6  -2  -6  134.58    2.15
   6  -2  -6  136.01    2.38
   6  -2  -6  135.95    2.59
   6  -2  -6  141.78    2.57
  -6   2   6  139.49    2.56
  -6   2   6  139.49    2.56
   5  -2  -6   70.00    1.51
   5  -2  -6   70.10    1.94
   5  -2  -6   66.48    1.47
   5  -2  -6   69.93    1.35
   5  -2  -6   66.48    1.47
   5  -2  -6   66.13    1.18
   5  -2  -6   66.13    1.18
  -5   2   6   68.27    1.92
  -5   2   6   68.21    1.48
  -5   2   6   68.21    1.48
   4  -2  -6   69.70    1.20
   4  -2  -6   67.47    1.43
   4  -2  -6   70.90    1.33
   4  -2  -6   72.38    1.87
   4  -2  -6   70.98    1.47
   4  -2  -6   67.47    1.43
   4  -2  -6   69.70    1.20
  -4   2   6   69.54    1.84
   3  -2  -6   80.50    1.53
   3  -2  -6   77.92    1.31
   3  -2  -6   77.92    1.31
   3  -2  -6   79.21    1.55
   3  -2  -6   80.50    1.53
   3  -2  -6   78.85    1.89
   3  -2  -6   79.42    1.41
  -3   2   6   75.71    1.85
   2  -2  -6    5.28    0.22
   2  -2  -6    5.05    0.29
   2  -2  -6    5.05    0.29
   2  -2  -6    4.87    0.30
   2  -2  -6    5.28    0.22
   2  -2  -6    4.87    0.25
   2  -2  -6    4.99    0.39
  -2   2   6    4.78    0.39
   1  -2  -6  114.22    1.81
   1  -2  -6  110.88    1.99
   1  -2  -6  114.22    1.81
   1  -2  -6  120.23    1.97
   1  -2  -6  110.89    1.86
   1  -2  -6  120.23    1.97
  -1   2   6  116.20    2.26
   0  -2  -6    2.60    0.22
   0  -2  -6    2.49    0.14
   0  -2  -6    2.59    0.18
   0  -2  -6    2.60    0.22
   0  -2  -6    2.59    0.18
   0   2   6    2.01    0.26
   0   2   6    2.52    0.35
  -1  -2  -6  409.36    5.84
  -1  -2  -6  401.15    5.78
  -1  -2  -6  409.36    5.84
  -1  -2  -6  407.29    5.76
  -1  -2  -6  410.06    5.99
  -1  -2  -6  407.29    5.76
   1   2   6  410.37    6.74
   1   2   6  382.72    6.10
  -2  -2  -6   69.64    1.24
  -2  -2  -6   69.07    1.29
  -2  -2  -6   69.08    1.19
  -2  -2  -6   70.27    1.44
  -2  -2  -6   69.64    1.24
  -2  -2  -6   68.43    1.30
  -2  -2  -6   69.07    1.29
   2   2   6   74.15    2.02
   2   2   6   68.08    1.51
   2   2   6   72.78    1.29
  -3  -2  -6   86.44    1.74
  -3  -2  -6   84.81    1.51
  -3  -2  -6   84.81    1.51
  -3  -2  -6   86.16    1.47
  -3  -2  -6   84.63    1.47
  -3  -2  -6   85.18    1.58
  -3  -2  -6   84.63    1.47
   3   2   6   84.67    2.32
   3   2   6   83.50    1.78
   3   2   6   84.80    1.52
   3   2   6   82.94    2.47
  -4  -2  -6  119.41    2.07
  -4  -2  -6  119.41    2.07
  -4  -2  -6  122.81    2.16
  -4  -2  -6  123.59    2.07
  -4  -2  -6  125.19    2.04
  -4  -2  -6  125.19    2.04
   4   2   6  125.51    2.03
   4   2   6  125.11    3.07
   4   2   6  125.87    3.04
   4   2   6  121.34    2.42
   4   2   6  123.58    2.09
   4   2   6  125.51    2.03
  -5  -2  -6   25.73    0.72
  -5  -2  -6   26.78    0.73
  -5  -2  -6   25.95    0.78
  -5  -2  -6   25.73    0.72
   5   2   6   26.80    0.68
   5   2   6   26.80    0.68
   5   2   6   28.83    0.73
   5   2   6   27.24    0.98
  -6  -2  -6   28.53    0.80
  -6  -2  -6   28.53    0.80
  -6  -2  -6   28.71    0.86
   6   2   6   30.59    1.13
   6   2   6   28.99    0.77
  -7  -2  -6   38.64    1.05
  -7  -2  -6   34.30    0.96
  -7  -2  -6   34.30    0.96
   7   2   6   36.44    0.89
   7   2   6   36.00    0.89
   7   2   6   36.00    0.89
  -8  -2  -6   29.10    0.91
  -8  -2  -6   29.92    0.95
  -8  -2  -6   29.10    0.91
   8   2   6   28.67    0.77
   8   2   6   27.88    0.80
   8   2   6   27.88    0.80
  -9  -2  -6   40.59    1.17
  -9  -2  -6   40.59    1.17
  -9  -2  -6   42.74    1.23
   9   2   6   41.66    1.06
   9   2   6   42.93    0.92
   9   2   6   41.66    1.06
 -10  -2  -6   77.14    1.83
 -10  -2  -6   77.14    1.83
  10   2   6   79.00    1.64
  10   2   6   79.00    1.64
 -11  -2  -6   17.32    0.84
 -11  -2  -6   17.32    0.84
  11   2   6   17.70    0.70
  11   2   6   17.70    0.70
   9  -3  -6   26.11    1.05
   9  -3  -6   27.10    0.92
   9  -3  -6   26.11    1.05
   9  -3  -6   27.11    1.09
  -9   3   6   28.08    1.09
  -9   3   6   27.03    1.19
  -9   3   6   28.08    1.09
   8  -3  -6   10.59    0.54
   8  -3  -6   10.60    0.65
   8  -3  -6   11.65    0.68
   8  -3  -6   11.65    0.68
  -8   3   6   11.22    0.74
  -8   3   6   12.30    0.69
  -8   3   6   12.30    0.69
   7  -3  -6    4.41    0.46
   7  -3  -6    4.41    0.46
   7  -3  -6    4.74    0.35
   7  -3  -6    4.74    0.43
   7  -3  -6    4.85    0.17
   7  -3  -6    4.85    0.17
  -7   3   6    4.61    0.47
  -7   3   6    4.61    0.47
   6  -3  -6   22.63    0.46
   6  -3  -6   23.44    0.83
   6  -3  -6   23.44    0.83
   6  -3  -6   22.63    0.46
   6  -3  -6   22.49    0.80
   6  -3  -6   22.48    0.68
  -6   3   6   20.72    0.80
  -6   3   6   20.72    0.80
   5  -3  -6   17.47    0.68
   5  -3  -6   17.19    0.39
   5  -3  -6   17.19    0.39
   5  -3  -6   16.66    0.64
   5  -3  -6   17.47    0.68
   5  -3  -6   16.66    0.54
  -5   3   6   17.33    0.68
  -5   3   6   17.33    0.68
   4  -3  -6  122.06    2.04
   4  -3  -6  125.21    2.26
   4  -3  -6  120.83    1.84
   4  -3  -6  120.83    1.84
   4  -3  -6  125.03    2.76
   4  -3  -6  125.21    2.26
   4  -3  -6  122.07    2.20
  -4   3   6  120.18    2.73
   3  -3  -6  171.38    2.93
   3  -3  -6  178.90    2.59
   3  -3  -6  171.38    2.93
   3  -3  -6  176.52    2.89
   3  -3  -6  181.82    3.44
   3  -3  -6  176.59    2.74
   3  -3  -6  178.90    2.59
  -3   3   6  181.78    3.44
   2  -3  -6  368.33    5.50
   2  -3  -6  370.15    5.98
   2  -3  -6  376.55    5.20
   2  -3  -6  376.55    5.20
   2  -3  -6  366.46    5.46
   2  -3  -6  368.33    5.50
   2  -3  -6  366.40    5.31
  -2   3   6  365.46    5.97
   1  -3  -6  453.00    6.46
   1  -3  -6  453.03    6.61
   1  -3  -6  452.79    6.62
   1  -3  -6  452.79    6.62
   1  -3  -6  457.61    6.37
   1  -3  -6  457.61    6.37
  -1   3   6  466.52    7.06
   0  -3  -6    9.09    0.38
   0  -3  -6    9.09    0.38
   0  -3  -6    9.34    0.29
   0  -3  -6    9.34    0.29
   0  -3  -6    9.32    0.39
   0  -3  -6    9.32    0.33
   0  -3  -6    8.67    0.38
   0   3   6   10.14    0.63
   0   3   6    9.97    0.52
   0   3   6    9.71    0.29
  -1  -3  -6  139.57    2.13
  -1  -3  -6  138.42    2.35
  -1  -3  -6  141.68    2.28
  -1  -3  -6  141.68    2.28
  -1  -3  -6  137.15    1.98
  -1  -3  -6  139.57    2.13
   1   3   6  133.03    2.55
   1   3   6  141.71    2.99
  -2  -3  -6    1.76    0.19
  -2  -3  -6    1.53    0.14
  -2  -3  -6    1.23    0.18
  -2  -3  -6    1.53    0.14
  -2  -3  -6    1.76    0.19
  -2  -3  -6    1.60    0.12
   2   3   6    1.41    0.23
   2   3   6    1.64    0.35
  -3  -3  -6   96.47    1.86
  -3  -3  -6   95.97    1.60
  -3  -3  -6   95.33    1.69
  -3  -3  -6   95.97    1.60
  -3  -3  -6   93.99    1.61
  -3  -3  -6   95.33    1.69
   3   3   6   93.66    1.96
   3   3   6   99.36    2.55
   3   3   6   95.95    3.28
   3   3   6   96.35    1.67
  -4  -3  -6  216.12    3.36
  -4  -3  -6  222.00    3.32
  -4  -3  -6  217.55    3.64
  -4  -3  -6  222.00    3.32
  -4  -3  -6  221.00    3.41
  -4  -3  -6  221.00    3.41
  -4  -3  -6  215.46    3.29
   4   3   6  216.95    4.64
   4   3   6  214.61    4.51
   4   3   6  216.08    3.39
   4   3   6  216.28    3.77
  -5  -3  -6   20.67    0.63
  -5  -3  -6   19.51    0.62
  -5  -3  -6   20.21    0.59
  -5  -3  -6   20.67    0.63
  -5  -3  -6   20.35    0.58
  -5  -3  -6   20.35    0.58
   5   3   6   20.48    0.70
   5   3   6   19.68    0.62
   5   3   6   22.15    1.23
   5   3   6   20.86    0.85
   5   3   6   20.48    0.70
  -6  -3  -6  301.03    4.63
  -6  -3  -6  301.03    4.63
  -6  -3  -6  302.62    4.65
  -6  -3  -6  300.24    4.60
   6   3   6  298.07    4.61
   6   3   6  302.82    5.20
  -7  -3  -6   37.61    1.01
  -7  -3  -6   37.24    0.99
  -7  -3  -6   37.24    0.99
   7   3   6   38.44    0.97
   7   3   6   38.74    0.93
   7   3   6   38.74    0.93
  -8  -3  -6    8.87    0.49
  -8  -3  -6    9.22    0.50
  -8  -3  -6    9.22    0.50
   8   3   6    8.99    0.45
   8   3   6    8.72    0.44
   8   3   6    8.72    0.44
  -9  -3  -6    9.47    0.55
  -9  -3  -6   10.03    0.56
  -9  -3  -6    9.47    0.55
   9   3   6    9.69    0.49
   9   3   6    9.69    0.49
   9   3   6    9.23    0.45
 -10  -3  -6    3.18    0.39
 -10  -3  -6    3.15    0.40
 -10  -3  -6    3.18    0.39
  10   3   6    3.68    0.29
  10   3   6    2.85    0.32
  10   3   6    2.85    0.32
 -11  -3  -6    1.30    0.30
 -11  -3  -6    0.79    0.29
 -11  -3  -6    0.79    0.29
  11   3   6    1.56    0.27
  11   3   6    1.56    0.27
   9  -4  -6  136.22    2.57
   9  -4  -6  136.23    2.86
   9  -4  -6  134.56    2.86
   9  -4  -6  134.56    2.86
  -9   4   6  134.76    3.10
  -9   4   6  135.69    2.88
  -9   4   6  135.69    2.88
   8  -4  -6    8.24    0.48
   8  -4  -6    8.01    0.60
   8  -4  -6    8.25    0.58
   8  -4  -6    8.01    0.60
  -8   4   6    9.04    0.63
  -8   4   6    8.87    0.70
  -8   4   6    9.04    0.63
   7  -4  -6  124.24    2.56
   7  -4  -6  126.38    2.27
   7  -4  -6  126.40    2.50
   7  -4  -6  124.24    2.56
  -7   4   6  130.96    2.80
  -7   4   6  127.72    2.58
  -7   4   6  127.72    2.58
   6  -4  -6    3.96    0.36
   6  -4  -6    4.37    0.45
   6  -4  -6    4.37    0.45
   6  -4  -6    3.96    0.30
  -6   4   6    3.78    0.42
  -6   4   6    3.78    0.42
   5  -4  -6   84.76    1.57
   5  -4  -6   88.55    1.86
   5  -4  -6   84.80    1.72
   5  -4  -6   88.55    1.86
  -5   4   6   86.93    1.85
  -5   4   6   86.93    1.85
   4  -4  -6    0.01    0.13
   4  -4  -6    0.35    0.13
   4  -4  -6    1.07    0.36
   4  -4  -6    0.35    0.11
   4  -4  -6    0.01    0.13
  -4   4   6    0.39    0.28
   3  -4  -6   61.32    1.26
   3  -4  -6   61.37    1.36
   3  -4  -6   61.44    1.14
   3  -4  -6   61.37    1.36
   3  -4  -6   61.82    1.75
  -3   4   6   64.44    1.78
   2  -4  -6   21.67    0.62
   2  -4  -6   21.65    0.54
   2  -4  -6   22.30    0.38
   2  -4  -6   22.96    0.70
   2  -4  -6   22.30    0.38
   2  -4  -6   22.33    0.37
   2  -4  -6   22.33    0.37
   2  -4  -6   22.96    0.70
   2  -4  -6   22.46    0.94
  -2   4   6   23.70    0.96
   1  -4  -6  297.54    4.05
   1  -4  -6  284.48    4.42
   1  -4  -6  297.54    4.05
   1  -4  -6  286.28    4.34
   1  -4  -6  284.48    4.42
   1  -4  -6  286.58    4.20
  -1   4   6  293.35    4.88
   0  -4  -6   14.12    0.50
   0  -4  -6   13.90    0.33
   0  -4  -6   13.31    0.47
   0  -4  -6   13.66    0.47
   0  -4  -6   13.90    0.33
   0  -4  -6   13.31    0.40
   0  -4  -6   14.12    0.50
   0   4   6   14.40    0.75
   0   4   6   14.06    0.66
  -1  -4  -6   15.31    0.37
  -1  -4  -6   15.15    0.50
  -1  -4  -6   14.72    0.51
  -1  -4  -6   15.15    0.50
  -1  -4  -6   15.31    0.37
   1   4   6   15.79    0.67
   1   4   6   14.32    0.80
   1   4   6   14.91    0.38
  -2  -4  -6  192.07    3.02
  -2  -4  -6  192.07    3.02
  -2  -4  -6  192.38    2.85
  -2  -4  -6  192.38    2.85
  -2  -4  -6  192.36    3.13
   2   4   6  188.12    3.35
   2   4   6  191.30    3.90
  -3  -4  -6   76.47    1.46
  -3  -4  -6   77.94    1.34
  -3  -4  -6   77.94    1.34
  -3  -4  -6   77.33    1.27
  -3  -4  -6   76.47    1.46
   3   4   6   79.79    2.26
   3   4   6   78.17    1.75
  -4  -4  -6    9.93    0.35
  -4  -4  -6    8.45    0.38
  -4  -4  -6    8.45    0.38
  -4  -4  -6    8.43    0.32
  -4  -4  -6    9.93    0.35
  -4  -4  -6    8.35    0.46
   4   4   6    8.45    0.52
   4   4   6    8.73    0.38
   4   4   6    8.64    0.75
  -5  -4  -6    0.51    0.13
  -5  -4  -6    0.41    0.11
  -5  -4  -6    0.25    0.15
  -5  -4  -6    1.11    0.18
  -5  -4  -6    0.51    0.13
  -5  -4  -6    0.65    0.12
  -5  -4  -6    1.11    0.18
   5   4   6    0.44    0.19
   5   4   6    0.37    0.24
   5   4   6    0.40    0.12
  -6  -4  -6   43.50    0.98
  -6  -4  -6   46.81    1.09
  -6  -4  -6   46.81    1.09
  -6  -4  -6   45.23    1.00
  -6  -4  -6   44.03    1.03
  -6  -4  -6   45.23    1.00
   6   4   6   46.70    1.42
   6   4   6   44.45    1.07
  -7  -4  -6   46.16    1.14
  -7  -4  -6   47.35    1.13
  -7  -4  -6   47.32    1.13
  -7  -4  -6   46.16    1.14
   7   4   6   47.59    1.14
  -8  -4  -6   96.44    1.94
  -8  -4  -6   93.78    1.90
  -8  -4  -6   96.44    1.94
   8   4   6   95.83    1.90
  -9  -4  -6   83.45    1.83
  -9  -4  -6   86.01    1.84
  -9  -4  -6   83.45    1.83
   9   4   6   82.84    1.74
 -10  -4  -6   15.78    0.73
 -10  -4  -6   16.45    0.75
 -10  -4  -6   15.78    0.73
  10   4   6   14.44    0.61
 -11  -4  -6    0.58    0.27
 -11  -4  -6    0.59    0.24
 -11  -4  -6    0.58    0.27
  11   4   6    1.49    0.24
  11   4   6    0.66    0.21
  11   4   6    0.66    0.21
   8  -5  -6   20.84    0.74
   8  -5  -6   20.85    0.88
   8  -5  -6   20.46    0.95
   8  -5  -6   20.46    0.95
  -8   5   6   22.28    1.09
  -8   5   6   22.28    0.97
  -8   5   6   22.28    0.97
   7  -5  -6   62.27    1.67
   7  -5  -6   66.30    1.59
   7  -5  -6   62.27    1.67
   7  -5  -6   66.30    1.40
  -7   5   6   68.69    1.90
  -7   5   6   67.05    1.72
  -7   5   6   67.05    1.72
   6  -5  -6   71.34    1.72
   6  -5  -6   70.06    1.40
   6  -5  -6   70.03    1.57
   6  -5  -6   71.34    1.72
  -6   5   6   69.81    1.71
  -6   5   6   69.81    1.71
   5  -5  -6  103.06    1.97
   5  -5  -6  103.06    1.81
   5  -5  -6  102.87    2.15
   5  -5  -6  102.87    2.15
  -5   5   6  107.55    2.18
  -5   5   6  107.55    2.18
   4  -5  -6   33.36    0.86
   4  -5  -6   33.34    0.76
   4  -5  -6   34.12    1.01
   4  -5  -6   34.12    1.01
   3  -5  -6    6.73    0.34
   3  -5  -6    6.22    0.41
   3  -5  -6    7.35    0.61
   3  -5  -6    6.73    0.28
   3  -5  -6    6.22    0.41
  -3   5   6    6.45    0.58
   2  -5  -6   36.64    0.97
   2  -5  -6   35.97    0.74
   2  -5  -6   35.97    0.83
   2  -5  -6   36.57    1.27
   2  -5  -6   36.64    0.97
  -2   5   6   37.29    1.28
   1  -5  -6   46.85    1.00
   1  -5  -6   51.34    1.15
   1  -5  -6   46.81    0.90
   1  -5  -6   51.34    1.15
  -1   5   6   47.52    1.39
  -1   5   6   49.75    1.44
   0  -5  -6   11.96    0.48
   0  -5  -6   12.51    0.44
   0  -5  -6   12.19    0.25
   0  -5  -6   11.96    0.48
   0  -5  -6   12.19    0.25
   0   5   6   13.19    0.66
   0   5   6   12.67    0.71
  -1  -5  -6  101.82    1.85
  -1  -5  -6  103.04    1.56
  -1  -5  -6  103.04    1.56
  -1  -5  -6  102.94    1.85
  -1  -5  -6  101.82    1.85
   1   5   6  104.60    2.47
   1   5   6  104.54    2.19
  -2  -5  -6    0.90    0.10
  -2  -5  -6    0.65    0.15
  -2  -5  -6    0.65    0.15
  -2  -5  -6    0.90    0.10
  -2  -5  -6    0.88    0.16
   2   5   6    1.06    0.30
   2   5   6    0.92    0.22
  -3  -5  -6  209.69    3.35
  -3  -5  -6  213.78    3.50
  -3  -5  -6  209.69    3.35
  -3  -5  -6  212.70    3.15
  -3  -5  -6  212.70    3.15
   3   5   6  213.70    3.73
   3   5   6  213.86    4.37
  -4  -5  -6  216.52    3.63
  -4  -5  -6  216.85    3.25
  -4  -5  -6  217.85    3.42
  -4  -5  -6  216.85    3.25
  -4  -5  -6  217.35    3.14
  -4  -5  -6  217.85    3.42
   4   5   6  212.77    3.81
   4   5   6  209.85    4.56
  -5  -5  -6    2.12    0.24
  -5  -5  -6    2.57    0.22
  -5  -5  -6    2.57    0.22
  -5  -5  -6    2.12    0.24
  -5  -5  -6    2.60    0.20
  -5  -5  -6    2.14    0.31
   5   5   6    2.75    0.39
   5   5   6    2.76    0.26
   5   5   6    2.39    0.54
  -6  -5  -6   22.13    0.63
  -6  -5  -6   21.44    0.63
  -6  -5  -6   21.82    0.70
  -6  -5  -6   22.13    0.63
  -6  -5  -6   21.82    0.70
   6   5   6   21.74    1.10
   6   5   6   23.08    1.37
   6   5   6   20.69    0.70
  -7  -5  -6    0.16    0.12
  -7  -5  -6    0.28    0.16
  -7  -5  -6    0.41    0.14
  -7  -5  -6    0.28    0.16
  -7  -5  -6    0.16    0.12
   7   5   6    0.65    0.18
  -8  -5  -6   13.38    0.60
  -8  -5  -6   13.26    0.56
  -8  -5  -6   13.38    0.60
   8   5   6   13.22    0.60
  -9  -5  -6   80.79    1.79
  -9  -5  -6   80.79    1.79
  -9  -5  -6   79.60    1.74
   9   5   6   79.88    1.75
 -10  -5  -6    0.42    0.21
 -10  -5  -6    0.42    0.21
 -10  -5  -6    0.28    0.18
  10   5   6    0.25    0.17
 -11  -5  -6   37.41    1.21
 -11  -5  -6   37.41    1.21
 -11  -5  -6   35.09    1.16
  11   5   6   36.45    1.07
   7  -6  -6   16.23    0.81
   7  -6  -6   15.94    0.59
   7  -6  -6   16.23    0.81
   7  -6  -6   15.94    0.70
  -7   6   6   16.40    0.92
  -7   6   6   14.56    0.79
  -7   6   6   14.56    0.79
   6  -6  -6   11.80    0.68
   6  -6  -6   12.31    0.47
   6  -6  -6   12.32    0.56
   6  -6  -6   11.80    0.68
  -6   6   6   13.04    0.70
  -6   6   6   11.95    0.76
  -6   6   6   13.04    0.70
   5  -6  -6    0.14    0.10
   5  -6  -6    0.25    0.17
   5  -6  -6    0.25    0.17
   5  -6  -6    0.14    0.12
  -5   6   6    0.25    0.18
  -5   6   6    0.25    0.18
   4  -6  -6   72.98    1.30
   4  -6  -6   72.98    1.43
   4  -6  -6   71.05    1.65
   4  -6  -6   71.05    1.65
   3  -6  -6   30.00    0.65
   3  -6  -6   30.42    0.93
   3  -6  -6   30.42    0.93
   3  -6  -6   30.02    0.74
   2  -6  -6   49.70    1.55
   2  -6  -6   47.81    0.89
   2  -6  -6   47.43    1.18
   2  -6  -6   47.82    0.99
   2  -6  -6   47.43    1.18
  -2   6   6   48.45    1.55
   1  -6  -6  103.93    1.77
   1  -6  -6  100.42    1.95
   1  -6  -6  100.42    1.95
   1  -6  -6  103.90    1.66
  -1   6   6  107.94    2.42
  -1   6   6  105.15    2.32
   0  -6  -6   15.00    0.49
   0  -6  -6   15.22    0.56
   0  -6  -6   15.22    0.56
   0   6   6   13.87    0.76
   0   6   6   14.68    0.75
  -1  -6  -6   54.94    0.83
  -1  -6  -6   54.22    1.19
  -1  -6  -6   54.94    0.83
  -1  -6  -6   53.51    1.15
  -1  -6  -6   54.22    1.19
   1   6   6   54.34    1.48
   1   6   6   52.55    1.66
  -2  -6  -6   53.21    1.16
  -2  -6  -6   51.65    0.90
  -2  -6  -6   51.65    0.90
  -2  -6  -6   52.96    1.19
  -2  -6  -6   53.21    1.16
   2   6   6   53.88    1.76
   2   6   6   56.22    1.47
  -3  -6  -6   73.22    1.46
  -3  -6  -6   73.22    1.46
  -3  -6  -6   73.45    1.56
  -3  -6  -6   73.74    1.24
  -3  -6  -6   73.74    1.24
   3   6   6   74.03    1.77
   3   6   6   72.53    2.21
  -4  -6  -6    0.61    0.12
  -4  -6  -6    1.06    0.19
  -4  -6  -6    0.61    0.12
  -4  -6  -6    0.81    0.21
  -4  -6  -6    1.06    0.19
   4   6   6    0.94    0.25
   4   6   6    1.19    0.39
  -5  -6  -6  143.59    2.71
  -5  -6  -6  140.94    2.30
  -5  -6  -6  143.12    2.12
  -5  -6  -6  140.94    2.30
  -5  -6  -6  140.14    2.46
  -5  -6  -6  140.14    2.46
   5   6   6  148.24    3.73
   5   6   6  141.99    2.88
  -6  -6  -6   22.71    0.65
  -6  -6  -6   23.98    0.92
  -6  -6  -6   22.59    0.60
  -6  -6  -6   25.11    0.76
  -6  -6  -6   25.11    0.76
  -6  -6  -6   22.71    0.65
   6   6   6   24.70    1.46
   6   6   6   23.43    0.76
  -7  -6  -6   51.39    1.24
  -7  -6  -6   52.79    1.12
  -7  -6  -6   52.31    1.15
  -7  -6  -6   51.39    1.24
  -7  -6  -6   52.31    1.15
   7   6   6   51.20    1.27
  -8  -6  -6   21.85    0.70
  -8  -6  -6   21.05    0.70
  -8  -6  -6   21.05    0.70
  -8  -6  -6   22.48    0.79
  -8  -6  -6   22.48    0.79
   8   6   6   20.49    0.78
  -9  -6  -6    3.87    0.35
  -9  -6  -6    2.74    0.36
  -9  -6  -6    2.74    0.36
   9   6   6    3.57    0.39
 -10  -6  -6   15.10    0.72
 -10  -6  -6   13.51    0.64
 -10  -6  -6   15.10    0.72
  10   6   6   14.30    0.69
 -11  -6  -6    0.82    0.29
 -11  -6  -6    1.01    0.26
 -11  -6  -6    0.82    0.29
  11   6   6    1.03    0.25
   7  -7  -6    3.87    0.51
   7  -7  -6    3.87    0.51
   7  -7  -6    5.33    0.36
   7  -7  -6    5.33    0.43
  -7   7   6    4.37    0.55
  -7   7   6    4.37    0.55
  -7   7   6    3.89    0.55
   6  -7  -6    9.89    0.65
   6  -7  -6   12.05    0.55
   6  -7  -6    9.89    0.65
   6  -7  -6   12.05    0.46
  -6   7   6   12.27    0.79
  -6   7   6   12.39    0.71
  -6   7   6   12.39    0.71
   5  -7  -6    0.30    0.21
   5  -7  -6    0.30    0.21
   5  -7  -6    0.33    0.14
   5  -7  -6    0.34    0.12
  -5   7   6    0.10    0.19
  -5   7   6    0.10    0.19
   4  -7  -6    1.34    0.27
   4  -7  -6    1.34    0.27
  -4   7   6    1.21    0.27
  -4   7   6    1.21    0.27
   3  -7  -6    7.63    0.49
   3  -7  -6    8.00    0.29
   3  -7  -6    7.63    0.49
   3  -7  -6    8.01    0.35
   2  -7  -6   12.85    0.36
   2  -7  -6   14.00    0.61
   2  -7  -6   12.85    0.43
   2  -7  -6   14.00    0.61
  -2   7   6   12.06    0.66
   1  -7  -6   43.21    0.92
   1  -7  -6   45.00    1.14
   1  -7  -6   45.00    1.14
   1  -7  -6   43.19    0.83
   1  -7  -6   44.08    0.93
  -1   7   6   47.57    1.58
  -1   7   6   42.39    1.34
   0  -7  -6   72.05    1.38
   0  -7  -6   74.63    1.56
   0  -7  -6   74.63    1.56
   0   7   6   69.89    1.91
   0   7   6   75.42    1.93
  -1  -7  -6   99.47    1.81
  -1  -7  -6  100.19    1.90
  -1  -7  -6  100.19    1.90
   1   7   6   98.69    2.48
   1   7   6  100.47    2.27
  -2  -7  -6   24.77    0.75
  -2  -7  -6   26.16    0.47
  -2  -7  -6   24.77    0.75
  -2  -7  -6   26.16    0.47
  -2  -7  -6   26.42    0.77
   2   7   6   26.37    1.00
   2   7   6   25.70    1.20
  -3  -7  -6    1.52    0.13
  -3  -7  -6    1.17    0.20
  -3  -7  -6    1.17    0.20
  -3  -7  -6    1.67    0.23
  -3  -7  -6    1.52    0.13
   3   7   6    1.52    0.30
   3   7   6    1.53    0.39
  -4  -7  -6   32.66    0.88
  -4  -7  -6   33.48    0.71
  -4  -7  -6   33.48    0.71
  -4  -7  -6   31.75    0.98
  -4  -7  -6   32.66    0.88
   4   7   6   33.59    1.15
   4   7   6   33.26    1.55
  -5  -7  -6    0.30    0.14
  -5  -7  -6    0.30    0.14
  -5  -7  -6    0.46    0.18
  -5  -7  -6    0.36    0.10
  -5  -7  -6    0.36    0.10
   5   7   6    0.23    0.25
   5   7   6    0.66    0.24
  -6  -7  -6   32.88    0.93
  -6  -7  -6   32.88    0.93
  -6  -7  -6   34.41    1.13
  -6  -7  -6   32.15    0.79
  -6  -7  -6   32.15    0.79
   6   7   6   32.24    1.72
  -7  -7  -6  132.91    2.16
  -7  -7  -6  137.38    2.48
  -7  -7  -6  137.38    2.48
  -7  -7  -6  135.14    2.33
  -7  -7  -6  135.14    2.33
  -8  -7  -6    0.66    0.18
  -8  -7  -6    1.09    0.18
  -8  -7  -6    0.77    0.22
  -8  -7  -6    0.77    0.22
  -8  -7  -6    0.66    0.18
   8   7   6    0.93    0.23
  -9  -7  -6  109.82    2.23
  -9  -7  -6  112.33    2.12
  -9  -7  -6  109.73    2.05
  -9  -7  -6  109.82    2.23
  -9  -7  -6  112.33    2.12
   9   7   6  109.00    2.28
 -10  -7  -6    5.91    0.42
 -10  -7  -6    5.55    0.50
 -10  -7  -6    5.55    0.50
  10   7   6    5.51    0.47
   6  -8  -6   31.14    1.16
   6  -8  -6   32.18    0.77
   6  -8  -6   31.14    1.16
   6  -8  -6   32.22    0.89
  -6   8   6   30.90    1.16
  -6   8   6   30.90    1.16
  -6   8   6   30.78    1.28
   5  -8  -6    0.71    0.14
   5  -8  -6    0.69    0.16
   5  -8  -6    0.30    0.22
   5  -8  -6    0.30    0.22
  -5   8   6    0.50    0.24
  -5   8   6    0.50    0.24
  -5   8   6    0.32    0.25
   4  -8  -6   47.45    1.36
   4  -8  -6   47.06    0.90
   4  -8  -6   47.45    1.36
   4  -8  -6   47.09    1.00
  -4   8   6   47.04    1.35
  -4   8   6   47.04    1.35
   3  -8  -6   68.32    1.13
   3  -8  -6   65.14    1.59
   3  -8  -6   65.14    1.59
   3  -8  -6   68.31    1.24
  -3   8   6   59.05    1.58
   2  -8  -6   16.73    0.70
   2  -8  -6   15.88    0.47
   2  -8  -6   16.73    0.70
   2  -8  -6   15.87    0.40
  -2   8   6   14.34    0.72
   1  -8  -6    0.08    0.13
   1  -8  -6    0.03    0.08
   1  -8  -6    0.08    0.13
  -1   8   6    0.22    0.17
   0  -8  -6   40.82    1.08
   0  -8  -6   40.82    1.08
   0  -8  -6   40.53    0.91
   0   8   6   36.08    1.33
  -1  -8  -6   83.09    1.62
  -1  -8  -6   86.58    1.75
  -1  -8  -6   86.58    1.75
   1   8   6   85.42    2.29
   1   8   6   87.40    2.16
  -2  -8  -6   60.20    1.33
  -2  -8  -6   62.06    1.36
  -2  -8  -6   62.06    1.36
   2   8   6   60.18    1.67
   2   8   6   55.91    1.91
  -3  -8  -6   16.99    0.63
  -3  -8  -6   16.99    0.63
  -3  -8  -6   17.11    0.37
  -3  -8  -6   17.11    0.37
  -3  -8  -6   15.90    0.65
   3   8   6   17.25    0.83
   3   8   6   15.66    1.03
  -4  -8  -6  362.50    5.07
  -4  -8  -6  362.50    5.07
  -4  -8  -6  345.35    5.41
  -4  -8  -6  345.35    5.41
  -4  -8  -6  354.58    5.60
   4   8   6  366.43    6.41
   4   8   6  350.13    6.83
  -5  -8  -6   38.56    1.02
  -5  -8  -6   38.00    1.16
  -5  -8  -6   38.78    0.82
  -5  -8  -6   38.78    0.82
  -5  -8  -6   38.56    1.02
   5   8   6   36.87    1.78
  -6  -8  -6   29.29    0.73
  -6  -8  -6   28.14    1.05
  -6  -8  -6   28.65    0.87
  -6  -8  -6   29.29    0.73
  -6  -8  -6   28.65    0.87
   6   8   6   28.20    1.64
  -7  -8  -6   10.11    0.53
  -7  -8  -6   10.67    0.45
  -7  -8  -6    9.90    0.68
  -7  -8  -6   10.11    0.53
  -7  -8  -6   10.67    0.45
   7   8   6   10.44    1.09
  -8  -8  -6    0.47    0.20
  -8  -8  -6    0.47    0.20
  -8  -8  -6    0.31    0.15
  -8  -8  -6    0.31    0.15
  -9  -8  -6    0.65    0.24
  -9  -8  -6    0.76    0.22
  -9  -8  -6    0.65    0.24
  -9  -8  -6    0.38    0.14
  -9  -8  -6    0.76    0.22
   9   8   6    0.30    0.22
 -10  -8  -6   57.70    1.29
 -10  -8  -6   62.29    1.45
 -10  -8  -6   61.26    1.57
 -10  -8  -6   62.29    1.45
 -10  -8  -6   61.26    1.57
  10   8   6   60.89    1.62
   5  -9  -6    1.19    0.33
   5  -9  -6    1.19    0.33
   5  -9  -6    1.47    0.20
   5  -9  -6    1.51    0.17
  -5   9   6    1.47    0.34
  -5   9   6    1.37    0.36
  -5   9   6    1.47    0.34
   4  -9  -6    9.07    0.61
   4  -9  -6    9.07    0.61
   4  -9  -6    8.81    0.30
   4  -9  -6    8.81    0.36
  -4   9   6    7.70    0.58
  -4   9   6    7.75    0.66
  -4   9   6    7.70    0.58
   3  -9  -6   17.73    0.80
   3  -9  -6   17.86    0.48
   3  -9  -6   17.73    0.80
   3  -9  -6   17.85    0.42
  -3   9   6   16.69    0.77
  -3   9   6   13.96    0.67
  -3   9   6   16.69    0.77
   2  -9  -6   55.16    1.01
   2  -9  -6   52.78    1.38
   2  -9  -6   52.78    1.38
  -2   9   6   43.62    1.32
   1  -9  -6   58.65    1.43
   1  -9  -6   58.65    1.43
   1  -9  -6   57.12    1.11
  -1   9   6   51.44    1.52
   0  -9  -6    3.58    0.26
   0  -9  -6    4.01    0.40
   0  -9  -6    4.01    0.40
   0   9   6    3.07    0.42
  -1  -9  -6   20.25    0.65
  -1  -9  -6   18.73    0.71
  -1  -9  -6   18.73    0.71
   1   9   6   17.93    0.98
  -2  -9  -6    3.69    0.36
  -2  -9  -6    3.01    0.29
  -2  -9  -6    3.69    0.36
   2   9   6    3.27    0.54
  -3  -9  -6    4.55    0.36
  -3  -9  -6    4.08    0.37
  -3  -9  -6    4.08    0.37
   3   9   6    4.03    0.59
  -4  -9  -6   69.99    1.15
  -4  -9  -6   72.68    1.54
  -4  -9  -6   72.68    1.54
  -4  -9  -6   67.80    1.63
  -4  -9  -6   69.99    1.15
   4   9   6   66.72    2.39
  -5  -9  -6    5.81    0.66
  -5  -9  -6    5.69    0.27
  -5  -9  -6    4.86    0.44
  -5  -9  -6    5.69    0.27
  -5  -9  -6    5.81    0.66
   5   9   6    5.63    0.77
  -6  -9  -6  139.02    2.82
  -6  -9  -6  137.42    2.25
  -6  -9  -6  137.42    2.25
   6   9   6  133.73    3.95
  -7  -9  -6    0.90    0.18
  -7  -9  -6    0.90    0.18
  -7  -9  -6    0.86    0.28
  -8  -9  -6   20.81    0.68
  -8  -9  -6   20.81    0.68
  -9  -9  -6    0.16    0.17
  -9  -9  -6    0.16    0.17
 -10  -9  -6   33.38    1.01
 -10  -9  -6   33.38    1.01
  10   9   6   34.08    1.19
   4 -10  -6    7.49    0.59
   4 -10  -6    7.49    0.59
  -4  10   6    7.34    0.58
  -4  10   6    7.34    0.58
   3 -10  -6   11.31    0.69
   3 -10  -6   11.31    0.69
  -3  10   6   11.48    0.69
  -3  10   6   11.48    0.69
   2 -10  -6    2.10    0.19
   2 -10  -6    2.21    0.38
   2 -10  -6    2.21    0.38
   1 -10  -6    3.90    0.25
  -1  10   6    3.74    0.40
   0 -10  -6   16.10    0.54
   0  10   6   14.16    0.80
  -1 -10  -6  148.50    2.49
   1  10   6  135.00    3.18
  -2 -10  -6    8.31    0.46
   2  10   6    8.32    0.75
  -3 -10  -6   61.11    1.46
   3  10   6   61.30    2.18
  -4 -10  -6   35.62    1.10
   4  10   6   33.30    1.68
  -5 -10  -6    0.00    0.15
  -5 -10  -6    0.22    0.08
  -5 -10  -6    0.22    0.08
   5  10   6    0.32    0.33
  -6 -10  -6    0.45    0.12
  -6 -10  -6    0.45    0.12
  -6 -10  -6    0.35    0.22
  -7 -10  -6    4.40    0.30
  -7 -10  -6    4.59    0.54
  -7 -10  -6    4.40    0.30
  -8 -10  -6  136.04    2.39
  -8 -10  -6  136.04    2.39
  -8 -10  -6  140.60    3.10
  -9 -10  -6    8.13    0.46
  -9 -10  -6    8.13    0.46
   1 -11  -6   20.85    0.57
   0 -11  -6    0.05    0.10
  -1 -11  -6    6.97    0.40
  -2 -11  -6   15.86    0.64
  -3 -11  -6    5.91    0.45
  -4 -11  -6  163.00    3.08
  -5 -11  -6    2.65    0.39
  -6 -11  -6   19.37    0.49
  -6 -11  -6   19.37    0.49
  -6 -11  -6   18.83    0.91
  -7 -11  -6   36.96    1.36
  -7 -11  -6   36.76    0.85
  -7 -11  -6   36.76    0.85
  -8 -11  -6    7.54    0.40
  -8 -11  -6    7.54    0.40
  -8 -11  -6    7.56    0.70
   0 -12  -6   43.71    1.00
  -1 -12  -6   24.97    0.78
  -2 -12  -6    2.52    0.32
  -3 -12  -6   32.63    1.05
  -4 -12  -6    5.36    0.48
  -5 -12  -6    7.20    0.58
  -6 -12  -6   36.08    1.30
  -5 -10   7    0.06    0.14
  -5 -10   7    0.06    0.14
  -5 -10   7    0.07    0.27
  -4 -10   7   68.37    1.37
  -4 -10   7   71.84    2.04
  -4 -10   7   68.37    1.37
  -3 -10   7    4.57    0.27
  -3 -10   7    4.17    0.54
  -3 -10   7    4.57    0.27
  -2 -10   7    0.07    0.08
  -2 -10   7    0.07    0.08
  -2 -10   7    0.21    0.24
  -1 -10   7    3.02    0.45
   0 -10   7    0.34    0.25
  -7  -9   7   10.93    0.55
  -7  -9   7   10.93    0.55
  -6  -9   7   19.24    0.70
  -6  -9   7   19.24    0.70
  -5  -9   7   54.57    1.23
  -5  -9   7   54.57    1.23
  -4  -9   7   18.61    0.62
  -4  -9   7   18.82    0.99
  -4  -9   7   18.61    0.62
  -3  -9   7   16.45    0.54
  -3  -9   7   17.97    0.92
  -3  -9   7   16.45    0.54
  -2  -9   7    6.58    0.60
  -2  -9   7    5.84    0.30
  -2  -9   7    5.84    0.30
  -1  -9   7   59.20    1.69
  -1  -9   7   58.55    1.05
  -1  -9   7   58.55    1.05
   0  -9   7   29.15    1.14
   1  -9   7   24.87    1.05
   2  -9   7   20.38    0.97
  -8  -8   7    0.31    0.19
  -8  -8   7    0.29    0.13
  -8  -8   7    0.31    0.19
  -7  -8   7   17.19    0.68
  -7  -8   7   17.19    0.68
  -6  -8   7    3.80    0.35
  -6  -8   7    3.80    0.35
  -5  -8   7    0.22    0.15
  -5  -8   7    0.22    0.15
  -4  -8   7    2.63    0.42
  -4  -8   7    3.44    0.29
  -4  -8   7    3.44    0.29
  -3  -8   7    2.39    0.24
  -3  -8   7    2.39    0.24
  -3  -8   7    2.22    0.37
  -2  -8   7    2.21    0.38
  -2  -8   7    2.02    0.21
  -2  -8   7    2.02    0.21
  -1  -8   7    1.36    0.32
  -1  -8   7    1.56    0.17
  -1  -8   7    1.56    0.17
   0  -8   7   18.05    0.46
   0  -8   7   17.69    0.86
   0  -8   7   18.05    0.46
   1  -8   7   49.78    1.49
   1  -8   7   51.64    0.85
   1  -8   7   51.64    0.85
   2  -8   7   88.62    2.13
   3  -8   7    3.19    0.45
   4  -8   7   25.60    1.08
  -9  -7   7   26.16    0.89
  -8  -7   7    5.69    0.41
  -7  -7   7   16.83    0.67
  -7  -7   7   16.83    0.67
  -7  -7   7   16.66    0.61
  -6  -7   7   39.43    0.92
  -6  -7   7   41.13    1.06
  -6  -7   7   41.13    1.06
  -5  -7   7    0.01    0.13
  -5  -7   7    0.01    0.13
  -5  -7   7    0.11    0.08
  -4  -7   7   75.34    1.47
  -4  -7   7   75.34    1.47
  -4  -7   7   69.94    1.89
  -3  -7   7    5.00    0.31
  -3  -7   7    5.00    0.31
  -3  -7   7    4.84    0.53
  -2  -7   7    6.72    0.54
  -2  -7   7    5.84    0.31
  -2  -7   7    5.84    0.31
  -1  -7   7   20.49    0.57
  -1  -7   7   21.71    0.90
  -1  -7   7   20.49    0.57
   0  -7   7   15.89    0.77
   0  -7   7   15.81    0.46
   0  -7   7   15.81    0.46
   1  -7   7   22.96    0.55
   1  -7   7   22.96    0.55
   1  -7   7   22.83    0.93
   2  -7   7   86.18    1.37
   2  -7   7   86.18    1.37
   2  -7   7   85.98    2.04
   3  -7   7    2.92    0.42
   4  -7   7  127.02    2.74
   5  -7   7    3.34    0.48
  -9  -6   7   14.49    0.70
  -8  -6   7    6.00    0.44
  -7  -6   7    8.15    0.46
  -6  -6   7    4.64    0.33
  -6  -6   7    3.85    0.33
  -6  -6   7    3.85    0.33
  -5  -6   7    3.52    0.27
  -5  -6   7    3.58    0.33
  -5  -6   7    3.58    0.33
  -4  -6   7  113.05    2.00
  -4  -6   7  113.27    2.87
  -4  -6   7  111.48    1.87
  -4  -6   7  113.05    2.00
  -3  -6   7   20.88    0.63
  -3  -6   7   20.88    0.63
  -3  -6   7   21.34    0.89
  -2  -6   7   30.26    1.22
  -2  -6   7   32.31    1.08
  -2  -6   7   32.75    0.79
  -2  -6   7   32.75    0.79
  -1  -6   7   30.35    0.73
  -1  -6   7   30.35    0.73
  -1  -6   7   29.17    1.02
   0  -6   7    1.06    0.14
   0  -6   7    1.20    0.26
   0  -6   7    1.06    0.14
   1  -6   7    0.08    0.08
   1  -6   7    0.08    0.08
   1  -6   7    0.30    0.18
   2  -6   7    0.21    0.09
   2  -6   7    0.21    0.09
   2  -6   7    0.13    0.18
   3  -6   7    8.53    0.59
   3  -6   7    9.26    0.30
   3  -6   7    9.26    0.30
   4  -6   7   76.52    1.22
   4  -6   7   76.52    1.22
   4  -6   7   78.42    1.95
   5  -6   7   30.88    1.17
   6  -6   7   65.75    1.85
 -10  -5   7    3.54    0.45
  -9  -5   7   29.33    1.01
  -8  -5   7    6.43    0.47
  -7  -5   7   19.35    0.73
  -6  -5   7   26.36    0.81
  -5  -5   7    1.63    0.22
  -5  -5   7    1.89    0.23
  -5  -5   7    1.89    0.23
  -4  -5   7  114.69    2.01
  -4  -5   7  114.69    2.01
  -4  -5   7  111.38    1.98
  -3  -5   7    2.73    0.25
  -3  -5   7    3.40    0.47
  -3  -5   7    2.73    0.25
  -3  -5   7    2.85    0.22
  -3  -5   7    2.64    0.34
  -2  -5   7  104.31    2.20
  -2  -5   7  104.40    1.81
  -2  -5   7  104.40    1.81
  -2  -5   7  105.23    1.66
  -2  -5   7  102.74    2.39
  -1  -5   7    4.11    0.43
  -1  -5   7    4.62    0.27
  -1  -5   7    4.62    0.27
  -1  -5   7    4.32    0.42
   0  -5   7   93.51    1.61
   0  -5   7   93.51    1.61
   0  -5   7   93.13    2.02
   1  -5   7    0.30    0.19
   1  -5   7    0.04    0.08
   1  -5   7    0.04    0.08
   2  -5   7   80.44    1.87
   2  -5   7   83.06    1.43
   2  -5   7   83.06    1.43
   3  -5   7   20.33    0.52
   3  -5   7   20.33    0.52
   3  -5   7   19.39    0.84
   4  -5   7   23.30    0.55
   4  -5   7   23.30    0.55
   4  -5   7   21.33    0.92
   5  -5   7    3.58    0.20
   5  -5   7    3.58    0.20
   5  -5   7    3.62    0.48
   6  -5   7   24.26    0.51
   6  -5   7   24.42    1.05
   6  -5   7   24.26    0.51
   7  -5   7   26.71    1.15
  10   4  -7   12.81    0.63
  10   4  -7   12.74    0.63
  10   4  -7   12.81    0.63
  10   4  -7   12.74    0.63
 -10  -4   7   13.66    0.75
   9   4  -7    3.68    0.37
   9   4  -7    3.68    0.37
  -9  -4   7    3.91    0.44
  -8  -4   7    0.82    0.24
  -7  -4   7   84.84    1.79
  -6  -4   7   10.18    0.50
  -5  -4   7  106.74    1.99
  -4  -4   7   50.10    1.14
  -4  -4   7   52.63    1.12
  -4  -4   7   52.63    1.12
  -4  -4   7   52.30    1.62
  -3  -4   7   66.16    1.29
  -3  -4   7   64.86    1.27
  -3  -4   7   64.21    1.57
  -3  -4   7   64.81    1.77
  -3  -4   7   64.86    1.27
   2   4  -7   25.30    0.76
  -2  -4   7   24.27    0.88
  -2  -4   7   26.11    0.67
  -2  -4   7   25.79    0.64
  -2  -4   7   26.11    0.67
  -2  -4   7   25.45    0.99
   1   4  -7  129.73    2.23
  -1  -4   7  128.95    2.01
  -1  -4   7  125.85    2.10
  -1  -4   7  127.64    2.59
  -1  -4   7  126.21    2.47
  -1  -4   7  125.85    2.10
   0   4  -7   79.68    1.55
   0  -4   7   76.93    1.79
   0  -4   7   80.63    1.23
   0  -4   7   80.61    1.43
   0  -4   7   80.67    1.78
   0  -4   7   80.61    1.43
  -1   4  -7  155.16    2.61
   1  -4   7  160.85    2.91
   1  -4   7  155.91    2.47
   1  -4   7  155.91    2.47
  -2   4  -7    1.38    0.20
   2  -4   7    1.39    0.16
   2  -4   7    1.35    0.29
   2  -4   7    1.39    0.16
   3  -4   7   29.32    0.69
   3  -4   7   31.39    1.05
   3  -4   7   29.32    0.69
   4  -4   7  116.73    1.94
   4  -4   7  120.99    2.49
   4  -4   7  116.73    1.94
   5  -4   7    2.52    0.20
   5  -4   7    1.13    0.29
   5  -4   7    2.52    0.20
   6  -4   7   30.42    0.69
   6  -4   7   28.75    1.13
   6  -4   7   30.42    0.69
   7  -4   7   11.10    0.75
   7  -4   7   10.47    0.36
   7  -4   7   10.47    0.36
   8  -4   7    0.09    0.22
  10   3  -7   22.62    0.80
  10   3  -7   23.19    0.81
  10   3  -7   23.19    0.81
  10   3  -7   22.62    0.80
 -10  -3   7   22.83    0.96
   9   3  -7    3.08    0.35
   9   3  -7    2.68    0.31
   9   3  -7    2.68    0.31
   9   3  -7    3.08    0.35
  -9  -3   7    3.61    0.44
   8   3  -7   34.44    0.96
   8   3  -7   34.75    0.96
   8   3  -7   34.75    0.96
   8   3  -7   34.44    0.96
  -8  -3   7   34.83    1.08
   7   3  -7   17.38    0.62
   7   3  -7   16.92    0.62
   7   3  -7   17.38    0.62
   7   3  -7   16.92    0.62
  -7  -3   7   16.88    0.69
   6   3  -7   19.78    0.64
   6   3  -7   19.79    0.64
   6   3  -7   19.79    0.64
   6   3  -7   19.78    0.64
  -6  -3   7   19.93    0.71
   5   3  -7  116.63    2.07
   5   3  -7  119.34    2.08
   5   3  -7  119.34    2.08
   5   3  -7  116.63    2.07
  -5  -3   7  121.16    2.18
  -4  -3   7   -0.06    0.09
  -4  -3   7   -0.06    0.09
  -4  -3   7    0.01    0.10
  -4  -3   7    0.11    0.18
   3   3  -7   78.68    1.51
  -3  -3   7   76.74    1.42
  -3  -3   7   76.74    1.42
  -3  -3   7   75.63    1.47
  -3  -3   7   75.20    1.90
   2   3  -7  131.53    2.24
  -2  -3   7  129.32    2.47
  -2  -3   7  126.93    2.13
  -2  -3   7  130.46    2.64
  -2  -3   7  126.93    2.13
  -2  -3   7  133.73    2.18
   1   3  -7  299.11    4.48
  -1  -3   7  291.80    4.84
  -1  -3   7  288.51    4.72
  -1  -3   7  293.51    4.34
  -1  -3   7  293.51    4.34
  -1  -3   7  297.61    4.36
   0   3  -7   87.05    1.61
   0  -3   7   86.33    1.50
   0  -3   7   82.75    1.79
   0  -3   7   84.96    1.83
   0  -3   7   86.33    1.50
   0  -3   7   85.17    1.46
  -1   3  -7   94.65    1.74
   1  -3   7   96.19    1.63
   1  -3   7   94.34    1.98
   1  -3   7   96.55    1.52
   1  -3   7   96.19    1.63
  -2   3  -7    7.57    0.37
   2  -3   7    7.01    0.31
   2  -3   7    6.75    0.48
   2  -3   7    7.01    0.31
  -3   3  -7    3.83    0.29
  -3   3  -7    3.60    0.28
  -3   3  -7    3.60    0.28
   3  -3   7    4.11    0.24
   3  -3   7    4.11    0.24
   3  -3   7    4.42    0.45
  -4   3  -7   19.56    0.61
  -4   3  -7   19.56    0.61
   4  -3   7   19.45    0.83
   4  -3   7   19.79    0.55
   4  -3   7   19.79    0.55
  -5   3  -7    3.49    0.32
  -5   3  -7    3.49    0.32
   5  -3   7    3.00    0.24
   5  -3   7    4.24    0.49
   5  -3   7    3.00    0.24
  -6   3  -7   92.11    1.84
  -6   3  -7   92.11    1.84
   6  -3   7   93.36    1.64
   6  -3   7   93.28    2.21
   6  -3   7   93.36    1.64
  -7   3  -7  116.50    2.26
  -7   3  -7  116.50    2.26
   7  -3   7  116.24    1.96
   7  -3   7  111.09    2.60
   7  -3   7  116.24    1.96
  -8   3  -7    2.47    0.35
  -8   3  -7    2.47    0.35
   8  -3   7    2.71    0.23
   8  -3   7    3.16    0.48
   8  -3   7    2.71    0.23
  10   2  -7    1.40    0.26
  10   2  -7    1.29    0.24
  10   2  -7    1.40    0.26
  10   2  -7    1.29    0.24
   9   2  -7   28.68    0.87
   9   2  -7   31.48    0.90
   9   2  -7   31.48    0.90
   9   2  -7   28.68    0.87
   8   2  -7    7.71    0.43
   8   2  -7    8.58    0.45
   8   2  -7    8.58    0.45
   8   2  -7    7.71    0.43
   8   2  -7    8.03    0.45
   7   2  -7    1.68    0.22
   7   2  -7    1.26    0.20
   7   2  -7    1.68    0.22
   7   2  -7    1.26    0.20
  -7  -2   7    1.54    0.26
   6   2  -7  195.70    3.13
   6   2  -7  195.70    3.13
   6   2  -7  192.82    3.12
   6   2  -7  192.82    3.12
  -6  -2   7  195.08    3.28
   5   2  -7   44.57    1.01
   5   2  -7   44.57    1.01
   5   2  -7   44.91    1.01
   5   2  -7   44.91    1.01
  -5  -2   7   46.27    1.10
   4   2  -7    5.04    0.30
   4   2  -7    5.04    0.30
  -4  -2   7    6.19    0.35
   3   2  -7    1.87    0.20
   3   2  -7    1.87    0.20
  -3  -2   7    2.91    0.24
  -3  -2   7    2.02    0.21
  -3  -2   7    2.02    0.21
  -3  -2   7    2.45    0.26
   2   2  -7    0.12    0.10
   2   2  -7    0.12    0.10
   2   2  -7    0.14    0.09
  -2  -2   7    0.04    0.08
  -2  -2   7    0.31    0.10
  -2  -2   7    0.04    0.08
  -2  -2   7    0.23    0.11
   1   2  -7  198.78    3.15
   1   2  -7  199.95    3.02
   1   2  -7  199.95    3.02
  -1  -2   7  202.25    3.42
  -1  -2   7  197.51    3.10
  -1  -2   7  203.45    3.18
  -1  -2   7  199.81    3.06
  -1  -2   7  199.81    3.06
   0   2  -7    8.08    0.37
   0   2  -7    7.72    0.30
   0   2  -7    7.72    0.30
   0  -2   7    8.10    0.47
   0  -2   7    7.51    0.32
   0  -2   7    8.48    0.38
   0  -2   7    8.11    0.32
   0  -2   7    8.11    0.32
  -1   2  -7  231.34    3.42
  -1   2  -7  231.34    3.42
  -1   2  -7  232.38    3.56
   1  -2   7  226.36    3.60
   1  -2   7  224.63    3.43
   1  -2   7  230.63    3.83
   1  -2   7  225.94    3.42
   1  -2   7  224.63    3.43
  -2   2  -7  354.64    5.13
  -2   2  -7  354.64    5.13
  -2   2  -7  340.54    5.62
  -2   2  -7  356.40    5.25
   2  -2   7  354.86    5.12
   2  -2   7  344.09    5.56
   2  -2   7  354.86    5.12
   2  -2   7  354.87    5.42
   2  -2   7  355.53    5.05
  -3   2  -7    5.26    0.30
  -3   2  -7    5.01    0.33
  -3   2  -7    5.26    0.30
   3  -2   7    5.05    0.44
   3  -2   7    5.60    0.28
   3  -2   7    5.57    0.21
   3  -2   7    6.19    0.43
   3  -2   7    5.60    0.28
  -4   2  -7   30.12    0.78
  -4   2  -7   30.12    0.78
   4  -2   7   29.90    1.04
   4  -2   7   29.96    1.05
   4  -2   7   31.88    0.74
   4  -2   7   31.88    0.74
  -5   2  -7   32.22    0.86
  -5   2  -7   32.22    0.86
   5  -2   7   30.68    1.10
   5  -2   7   31.72    0.76
   5  -2   7   32.63    1.19
   5  -2   7   31.72    0.76
  -6   2  -7   11.07    0.52
  -6   2  -7   11.07    0.52
   6  -2   7   12.39    0.72
   6  -2   7   13.02    0.46
   6  -2   7   13.02    0.46
  -7   2  -7    1.36    0.25
  -7   2  -7    1.36    0.25
   7  -2   7    1.54    0.33
   7  -2   7    1.24    0.18
   7  -2   7    1.24    0.18
  -8   2  -7   21.17    0.83
  -8   2  -7   21.17    0.83
   8  -2   7   22.26    1.05
   8  -2   7   21.84    0.64
   8  -2   7   21.84    0.64
  -9   2  -7   33.35    1.11
  -9   2  -7   33.35    1.11
   9  -2   7   32.83    0.83
   9  -2   7   32.83    0.83
   9  -2   7   33.50    1.37
  10   1  -7    3.25    0.33
  10   1  -7    3.25    0.33
  10   1  -7    3.33    0.43
  10   1  -7    3.33    0.43
 -10  -1   7    3.41    0.43
 -10  -1   7    3.41    0.43
   9   1  -7    0.51    0.17
   9   1  -7    0.01    0.19
   9   1  -7    0.51    0.17
   9   1  -7    0.01    0.19
  -9  -1   7    0.39    0.22
  -9  -1   7    0.39    0.22
   8   1  -7   22.38    0.82
   8   1  -7   19.16    0.65
   8   1  -7   19.81    0.80
   8   1  -7   22.38    0.82
   8   1  -7   20.37    0.66
   8   1  -7   20.37    0.66
   8   1  -7   19.81    0.95
   8   1  -7   19.16    0.65
  -8  -1   7   21.10    0.79
  -8  -1   7   21.10    0.79
   7   1  -7   35.58    1.02
   7   1  -7   37.76    0.91
   7   1  -7   37.19    1.24
   7   1  -7   36.10    0.90
   7   1  -7   37.76    0.91
   7   1  -7   35.58    1.02
   7   1  -7   36.10    0.90
   7   1  -7   37.17    1.06
  -7  -1   7   35.73    1.01
  -7  -1   7   35.73    1.01
   6   1  -7   11.91    0.46
   6   1  -7   11.48    0.53
   6   1  -7   11.48    0.53
   6   1  -7   11.48    0.65
   6   1  -7   11.48    0.54
   6   1  -7   11.76    0.74
   6   1  -7   11.55    0.49
   6   1  -7   12.09    0.47
   6   1  -7   11.91    0.46
   6   1  -7   12.09    0.47
  -6  -1   7   11.96    0.75
  -6  -1   7   11.69    0.52
  -6  -1   7   11.69    0.52
   5   1  -7   87.60    1.58
   5   1  -7   87.60    1.58
   5   1  -7   83.38    1.65
   5   1  -7   85.71    1.90
   5   1  -7   85.86    1.70
   5   1  -7   83.38    1.65
   5   1  -7   86.79    1.75
   5   1  -7   87.78    2.07
  -5  -1   7   84.28    2.05
  -5  -1   7   85.73    1.64
  -5  -1   7   85.73    1.64
   4   1  -7   40.97    0.91
   4   1  -7   41.15    1.15
   4   1  -7   42.12    1.23
   4   1  -7   41.77    0.96
   4   1  -7   41.12    1.00
   4   1  -7   40.97    0.91
   4   1  -7   41.77    0.96
  -4  -1   7   40.64    1.22
  -4  -1   7   43.29    1.00
   3   1  -7   30.13    0.92
   3   1  -7   28.39    0.71
   3   1  -7   28.76    0.72
   3   1  -7   28.39    0.71
   3   1  -7   30.12    0.79
   3   1  -7   29.65    0.93
   3   1  -7   28.76    0.72
  -3  -1   7   29.08    0.76
  -3  -1   7   28.64    0.92
   2   1  -7  298.69    4.41
   2   1  -7  294.84    4.51
   2   1  -7  294.75    4.72
   2   1  -7  303.94    4.44
   2   1  -7  303.94    4.44
   2   1  -7  298.69    4.41
  -2  -1   7  295.55    4.48
  -2  -1   7  303.20    4.71
   1   1  -7   71.52    1.27
   1   1  -7   66.98    1.28
   1   1  -7   71.52    1.27
   1   1  -7   70.77    1.30
   1   1  -7   66.98    1.28
  -1  -1   7   68.61    1.44
  -1  -1   7   70.19    1.32
   0   1  -7  112.31    1.83
   0   1  -7  108.42    2.17
   0   1  -7  112.31    1.83
   0   1  -7  110.67    1.90
   0  -1   7  110.41    1.83
   0  -1   7  110.22    2.14
   0  -1   7  110.41    1.83
   0  -1   7  109.74    1.88
   0  -1   7  114.84    2.81
   0  -1   7  111.93    2.01
  -1   1  -7    1.71    0.18
  -1   1  -7    1.21    0.24
  -1   1  -7    1.71    0.18
  -1   1  -7    1.39    0.19
   1  -1   7    1.05    0.14
   1  -1   7    2.20    0.19
   1  -1   7    1.00    0.53
   1  -1   7    1.05    0.14
   1  -1   7    1.14    0.23
   1  -1   7    1.40    0.21
  -2   1  -7   63.08    1.54
  -2   1  -7   64.64    1.21
  -2   1  -7   65.02    1.28
  -2   1  -7   64.64    1.21
   2  -1   7   64.42    1.51
   2  -1   7   63.34    1.41
   2  -1   7   64.45    1.19
   2  -1   7   63.00    1.20
   2  -1   7   64.45    1.19
  -3   1  -7   41.31    0.96
  -3   1  -7   39.39    1.19
  -3   1  -7   40.54    0.90
  -3   1  -7   40.54    0.90
   3  -1   7   39.71    1.12
   3  -1   7   41.13    0.85
   3  -1   7   39.94    0.86
   3  -1   7   40.95    1.17
   3  -1   7   39.94    0.86
  -4   1  -7  927.94   12.91
  -4   1  -7  909.20   12.82
  -4   1  -7  909.20   12.82
   4  -1   7  913.24   12.74
   4  -1   7  912.53   13.32
   4  -1   7  913.24   12.74
   4  -1   7  917.32   13.34
  -5   1  -7   20.25    0.65
  -5   1  -7   20.25    0.65
   5  -1   7   20.95    0.88
   5  -1   7   21.26    0.45
   5  -1   7   19.78    0.58
   5  -1   7   19.78    0.58
   5  -1   7   21.68    0.93
  -6   1  -7   71.01    1.52
  -6   1  -7   71.01    1.52
   6  -1   7   73.03    1.39
   6  -1   7   73.60    1.87
   6  -1   7   73.03    1.39
  -7   1  -7    4.92    0.39
  -7   1  -7    4.92    0.39
   7  -1   7    4.35    0.51
   7  -1   7    4.81    0.31
   7  -1   7    4.81    0.31
  -8   1  -7    2.44    0.34
  -8   1  -7    2.44    0.34
   8  -1   7    2.08    0.24
   8  -1   7    2.13    0.41
   8  -1   7    2.08    0.24
  -9   1  -7    0.12    0.21
  -9   1  -7    0.12    0.21
   9  -1   7   -0.11    0.22
   9  -1   7    0.08    0.11
   9  -1   7    0.08    0.11
  10   0  -7    1.72    0.36
  10   0  -7    1.72    0.36
  10   0  -7    2.48    0.27
  10   0  -7    2.48    0.27
  10   0  -7    1.83    0.44
  10   0  -7    1.88    0.37
 -10   0   7    2.20    0.37
 -10   0   7    2.74    0.46
 -10   0   7    2.20    0.37
   9   0  -7   72.04    1.76
   9   0  -7   72.04    1.76
   9   0  -7   73.82    2.01
   9   0  -7   71.03    1.45
   9   0  -7   73.76    1.74
   9   0  -7   71.03    1.45
  -9   0   7   73.04    1.93
  -9   0   7   70.24    1.73
  -9   0   7   70.24    1.73
   8   0  -7   14.64    0.69
   8   0  -7   14.64    0.69
   8   0  -7   14.35    0.68
   8   0  -7   15.32    0.54
   8   0  -7   14.35    0.81
   8   0  -7   15.32    0.54
  -8   0   7   13.55    0.66
  -8   0   7   13.55    0.66
   7   0  -7   16.41    0.67
   7   0  -7   17.83    0.57
   7   0  -7   16.45    0.69
   7   0  -7   16.45    0.69
   7   0  -7   16.41    0.80
   7   0  -7   17.83    0.57
  -7   0   7   16.64    0.68
  -7   0   7   16.64    0.68
   6   0  -7    0.67    0.21
   6   0  -7    0.97    0.21
   6   0  -7    0.68    0.18
   6   0  -7    0.65    0.31
   6   0  -7    0.85    0.15
   6   0  -7    0.85    0.15
   6   0  -7    0.97    0.21
  -6   0   7    0.70    0.32
  -6   0   7    0.44    0.17
  -6   0   7    0.44    0.17
   5   0  -7   32.17    0.65
   5   0  -7   31.49    0.76
   5   0  -7   32.36    0.87
   5   0  -7   31.94    1.19
   5   0  -7   31.49    0.76
   5   0  -7   32.39    1.02
   5   0  -7   31.03    0.88
   5   0  -7   31.03    0.88
  -5   0   7   31.06    1.17
  -5   0   7   32.19    0.88
  -5   0   7   32.19    0.88
   4   0  -7   89.75    1.72
   4   0  -7   94.72    1.70
   4   0  -7   92.48    1.62
   4   0  -7   92.48    1.62
   4   0  -7   94.20    2.13
   4   0  -7   92.43    1.73
   4   0  -7   92.46    1.92
   4   0  -7   89.75    1.72
  -4   0   7   93.28    2.12
   3   0  -7    6.52    0.46
   3   0  -7    5.85    0.29
   3   0  -7    4.61    0.36
   3   0  -7    4.61    0.30
   3   0  -7    4.95    0.32
   3   0  -7    4.75    0.31
   3   0  -7    4.75    0.31
   3   0  -7    5.85    0.29
  -3   0   7    5.66    0.43
  -3   0   7    4.82    0.29
   2   0  -7  521.11    7.51
   2   0  -7  504.27    7.52
   2   0  -7  510.04    7.29
   2   0  -7  505.69    7.22
   2   0  -7  505.69    7.22
   2   0  -7  504.16    7.31
   2   0  -7  510.04    7.29
  -2   0   7  505.16    7.64
  -2   0   7  510.05    7.30
   1   0  -7  349.40    5.34
   1   0  -7  351.62    4.98
   1   0  -7  348.80    5.30
   1   0  -7  346.16    5.05
   1   0  -7  348.41    5.10
   1   0  -7  338.43    5.03
   1   0  -7  346.16    5.05
   1   0  -7  338.43    5.03
  -1   0   7  348.37    5.09
  -1   0   7  340.32    5.34
   0   0  -7    0.60    0.15
   0   0  -7    0.01    0.09
   0   0  -7    0.58    0.18
   0   0  -7    0.03    0.07
   0   0  -7    0.36    0.10
   0   0  -7    0.16    0.11
   0   0  -7    0.01    0.09
   0   0  -7    0.03    0.07
   0   0  -7    0.36    0.15
   0   0   7   -0.05    0.16
   0   0   7   -0.11    0.09
  -1   0  -7  275.32    4.06
  -1   0  -7  276.21    4.10
  -1   0  -7  267.46    4.41
  -1   0  -7  275.32    4.06
   1   0   7  275.86    4.33
   1   0   7  274.80    4.10
   1   0   7  269.92    5.15
  -2   0  -7    2.76    0.32
  -2   0  -7    2.86    0.23
  -2   0  -7    3.13    0.22
  -2   0  -7    3.13    0.22
   2   0   7    2.86    0.20
   2   0   7    3.35    0.23
   2   0   7    3.01    0.46
   2   0   7    2.86    0.20
   2   0   7    3.59    0.39
   2   0   7    3.11    0.29
  -3   0  -7    3.54    0.25
  -3   0  -7    3.73    0.35
  -3   0  -7    3.59    0.26
  -3   0  -7    3.54    0.25
   3   0   7    3.68    0.36
   3   0   7    3.51    0.32
   3   0   7    3.35    0.22
   3   0   7    3.31    0.23
   3   0   7    3.35    0.22
  -4   0  -7  146.27    2.49
  -4   0  -7  152.92    2.56
  -4   0  -7  146.27    2.49
  -4   0  -7  152.47    2.86
   4   0   7  154.28    2.91
   4   0   7  158.09    2.93
   4   0   7  151.17    2.44
  -5   0  -7   30.81    0.82
  -5   0  -7   30.81    0.82
   5   0   7   28.45    1.04
   5   0   7   29.96    0.71
   5   0   7   29.66    0.74
   5   0   7   29.66    0.74
   5   0   7   29.60    1.09
  -6   0  -7  183.71    3.10
  -6   0  -7  183.71    3.10
   6   0   7  186.71    2.97
   6   0   7  186.71    2.97
   6   0   7  186.62    2.84
   6   0   7  187.43    3.54
  -7   0  -7   31.00    0.93
  -7   0  -7   31.00    0.93
   7   0   7   30.91    0.81
   7   0   7   30.91    0.81
   7   0   7   28.53    1.14
  -8   0  -7   11.67    0.60
  -8   0  -7   11.67    0.60
   8   0   7   11.78    0.50
   8   0   7   11.78    0.50
   8   0   7   12.01    0.79
  -9   0  -7    3.53    0.41
  -9   0  -7    3.53    0.41
   9   0   7    2.89    0.30
   9   0   7    2.89    0.30
 -10   0  -7   -0.23    0.19
 -10   0  -7   -0.23    0.19
  10   0   7   -0.01    0.13
  10   0   7   -0.01    0.13
   9  -1  -7    0.23    0.23
   9  -1  -7   -0.14    0.20
   9  -1  -7    0.11    0.12
   9  -1  -7    0.11    0.12
   9  -1  -7   -0.14    0.17
   9  -1  -7    0.23    0.23
  -9   1   7    0.22    0.23
  -9   1   7    0.15    0.23
  -9   1   7    0.15    0.23
   8  -1  -7    2.39    0.23
   8  -1  -7    2.52    0.36
   8  -1  -7    3.21    0.37
   8  -1  -7    3.13    0.44
   8  -1  -7    2.39    0.23
   8  -1  -7    2.52    0.36
  -8   1   7    2.27    0.35
  -8   1   7    2.27    0.35
   7  -1  -7   36.60    1.20
   7  -1  -7   35.53    1.08
   7  -1  -7   35.53    1.08
   7  -1  -7   36.60    1.03
   7  -1  -7   35.55    0.84
   7  -1  -7   35.55    0.84
  -7   1   7   36.90    1.09
  -7   1   7   36.90    1.09
   6  -1  -7   66.15    1.26
   6  -1  -7   67.82    1.44
   6  -1  -7   63.97    1.49
   6  -1  -7   67.90    1.63
   6  -1  -7   63.97    1.49
   6  -1  -7   66.15    1.26
  -6   1   7   64.77    1.49
  -6   1   7   64.77    1.49
   5  -1  -7  161.61    2.59
   5  -1  -7  165.57    2.77
   5  -1  -7  165.46    3.41
   5  -1  -7  167.69    2.86
   5  -1  -7  165.62    2.99
   5  -1  -7  161.61    2.59
   5  -1  -7  167.69    2.86
  -5   1   7  161.19    3.38
   4  -1  -7   25.87    0.63
   4  -1  -7   24.05    0.74
   4  -1  -7   25.22    1.02
   4  -1  -7   25.17    0.71
   4  -1  -7   25.16    0.83
   4  -1  -7   24.05    0.74
   4  -1  -7   25.87    0.63
  -4   1   7   23.82    0.99
   3  -1  -7  137.34    2.34
   3  -1  -7  137.34    2.34
   3  -1  -7  132.22    2.16
   3  -1  -7  136.98    2.72
   3  -1  -7  132.22    2.16
   3  -1  -7  135.78    2.27
   3  -1  -7  136.88    1.98
   3  -1  -7  135.91    2.46
  -3   1   7  137.72    2.72
   2  -1  -7  158.04    2.74
   2  -1  -7  159.38    2.48
   2  -1  -7  158.92    2.60
   2  -1  -7  159.38    2.48
   2  -1  -7  158.03    2.56
   2  -1  -7  157.25    2.50
   2  -1  -7  158.92    2.60
  -2   1   7  160.10    2.96
   1  -1  -7    2.37    0.22
   1  -1  -7    2.37    0.22
   1  -1  -7    2.55    0.28
   1  -1  -7    2.65    0.21
   1  -1  -7    2.65    0.21
   1  -1  -7    2.62    0.23
   1  -1  -7    2.13    0.20
  -1   1   7    2.65    0.21
  -1   1   7    2.14    0.28
   0  -1  -7   78.61    1.59
   0  -1  -7   78.17    1.54
   0  -1  -7   78.11    1.58
   0  -1  -7   80.20    1.44
   0  -1  -7   78.57    1.44
   0  -1  -7   80.20    1.44
   0   1   7   77.60    1.42
   0   1   7   78.93    2.17
   0   1   7   79.49    1.68
  -1  -1  -7  155.75    2.74
  -1  -1  -7  158.73    2.47
  -1  -1  -7  161.41    2.55
  -1  -1  -7  159.18    2.73
  -1  -1  -7  161.41    2.55
  -1  -1  -7  161.88    2.52
  -1  -1  -7  161.88    2.52
   1   1   7  156.31    2.81
   1   1   7  158.98    3.48
   1   1   7  160.49    2.55
  -2  -1  -7   18.17    0.52
  -2  -1  -7   17.16    0.53
  -2  -1  -7   18.07    0.52
  -2  -1  -7   17.16    0.53
  -2  -1  -7   18.07    0.52
  -2  -1  -7   17.16    0.64
   2   1   7   18.48    0.54
   2   1   7   17.26    0.67
   2   1   7   18.86    1.02
  -3  -1  -7  326.10    4.86
  -3  -1  -7  326.10    4.86
  -3  -1  -7  324.62    5.13
  -3  -1  -7  324.90    4.87
  -3  -1  -7  336.91    4.93
  -3  -1  -7  336.91    4.93
   3   1   7  323.73    4.86
   3   1   7  326.93    4.80
   3   1   7  327.03    5.23
   3   1   7  319.52    5.25
   3   1   7  326.93    4.80
   3   1   7  337.56    6.17
  -4  -1  -7   15.09    0.65
  -4  -1  -7   15.66    0.53
  -4  -1  -7   15.61    0.54
  -4  -1  -7   15.66    0.53
   4   1   7   15.50    0.73
   4   1   7   16.03    0.50
   4   1   7   16.48    0.53
   4   1   7   15.51    0.71
   4   1   7   16.03    0.50
  -5  -1  -7   41.89    1.00
  -5  -1  -7   41.89    1.00
  -5  -1  -7   43.65    1.17
  -5  -1  -7   42.27    1.15
   5   1   7   42.29    0.95
   5   1   7   41.25    0.93
   5   1   7   41.25    0.93
   5   1   7   40.43    1.29
  -6  -1  -7   16.13    0.70
  -6  -1  -7   15.64    0.60
  -6  -1  -7   15.64    0.60
   6   1   7   15.64    0.53
   6   1   7   15.64    0.53
   6   1   7   16.35    0.53
  -7  -1  -7   14.88    0.61
  -7  -1  -7   15.94    0.70
  -7  -1  -7   14.88    0.61
   7   1   7   13.47    0.52
   7   1   7   13.47    0.52
   7   1   7   13.74    0.47
  -8  -1  -7  108.60    2.18
  -8  -1  -7  108.60    2.18
   8   1   7  110.32    2.01
   8   1   7  106.24    1.78
   8   1   7  110.32    2.01
  -9  -1  -7   59.58    1.51
  -9  -1  -7   59.58    1.51
   9   1   7   57.38    1.31
   9   1   7   57.38    1.31
 -10  -1  -7    0.40    0.26
 -10  -1  -7    0.40    0.26
  10   1   7    0.92    0.20
  10   1   7    0.92    0.20
   9  -2  -7   14.85    0.82
   9  -2  -7   17.30    0.91
   9  -2  -7   14.85    0.82
   9  -2  -7   17.11    0.49
   9  -2  -7   17.11    0.49
   9  -2  -7   17.30    0.76
  -9   2   7   17.68    0.96
  -9   2   7   18.72    0.89
  -9   2   7   18.72    0.89
   8  -2  -7   18.21    0.83
   8  -2  -7   17.41    0.51
   8  -2  -7   17.19    0.72
   8  -2  -7   17.41    0.51
   8  -2  -7   18.21    0.83
   8  -2  -7   17.19    0.85
  -8   2   7   17.38    0.80
  -8   2   7   17.38    0.80
   7  -2  -7    2.11    0.19
   7  -2  -7    2.11    0.19
   7  -2  -7    1.93    0.33
   7  -2  -7    1.99    0.28
   7  -2  -7    1.75    0.30
   7  -2  -7    1.75    0.30
  -7   2   7    1.86    0.30
  -7   2   7    1.86    0.30
   6  -2  -7   25.61    0.87
   6  -2  -7   25.61    0.87
   6  -2  -7   24.07    0.89
   6  -2  -7   23.03    0.59
   6  -2  -7   24.07    0.76
   6  -2  -7   23.03    0.59
  -6   2   7   25.12    0.86
  -6   2   7   25.12    0.86
   5  -2  -7    1.21    0.16
   5  -2  -7    1.21    0.16
   5  -2  -7    0.99    0.18
   5  -2  -7    0.70    0.19
   5  -2  -7    0.70    0.19
   5  -2  -7    0.97    0.22
   4  -2  -7  138.24    2.47
   4  -2  -7  139.07    2.34
   4  -2  -7  138.94    2.19
   4  -2  -7  140.10    2.98
   4  -2  -7  138.84    2.53
   4  -2  -7  138.24    2.47
   4  -2  -7  138.94    2.19
  -4   2   7  140.54    2.97
   3  -2  -7    4.04    0.23
   3  -2  -7    4.08    0.27
   3  -2  -7    4.08    0.33
   3  -2  -7    4.86    0.32
   3  -2  -7    4.86    0.32
   3  -2  -7    4.49    0.44
   3  -2  -7    4.04    0.23
  -3   2   7    4.25    0.43
   2  -2  -7  207.10    3.17
   2  -2  -7  205.75    3.08
   2  -2  -7  209.43    3.70
   2  -2  -7  207.35    3.35
   2  -2  -7  199.57    3.26
   2  -2  -7  199.57    3.26
   2  -2  -7  205.75    3.08
  -2   2   7  204.67    3.68
   1  -2  -7    1.74    0.17
   1  -2  -7    2.56    0.10
   1  -2  -7    2.72    0.18
   1  -2  -7    2.34    0.22
   1  -2  -7    2.72    0.18
   1  -2  -7    2.34    0.22
   1  -2  -7    1.70    0.20
  -1   2   7    2.17    0.31
   0  -2  -7   51.00    1.06
   0  -2  -7   51.00    1.06
   0  -2  -7   50.28    1.15
   0  -2  -7   49.84    1.15
   0  -2  -7   49.90    0.98
   0  -2  -7   51.52    0.94
   0  -2  -7   50.27    1.02
   0  -2  -7   49.90    0.98
   0   2   7   52.09    1.66
   0   2   7   50.16    1.29
  -1  -2  -7   18.56    0.55
  -1  -2  -7   18.46    0.40
  -1  -2  -7   18.41    0.53
  -1  -2  -7   19.12    0.65
  -1  -2  -7   18.56    0.55
  -1  -2  -7   19.14    0.51
  -1  -2  -7   19.14    0.51
   1   2   7   19.37    1.00
   1   2   7   18.08    0.70
   1   2   7   18.12    0.53
  -2  -2  -7   96.00    1.59
  -2  -2  -7   99.41    1.91
  -2  -2  -7   95.88    1.71
  -2  -2  -7   95.75    1.74
  -2  -2  -7   97.02    1.66
  -2  -2  -7   95.88    1.71
  -2  -2  -7   97.02    1.66
   2   2   7   97.23    1.99
   2   2   7   97.91    1.70
   2   2   7   95.56    2.55
  -3  -2  -7   16.96    0.50
  -3  -2  -7   16.65    0.51
  -3  -2  -7   17.49    0.55
  -3  -2  -7   17.49    0.55
  -3  -2  -7   17.55    0.59
  -3  -2  -7   16.65    0.51
   3   2   7   17.15    1.03
   3   2   7   17.14    0.54
   3   2   7   16.99    0.70
  -4  -2  -7  172.51    2.81
  -4  -2  -7  168.19    2.74
  -4  -2  -7  172.51    2.81
  -4  -2  -7  167.35    2.89
  -4  -2  -7  170.34    2.76
  -4  -2  -7  168.19    2.74
   4   2   7  173.91    3.20
   4   2   7  177.70    4.25
   4   2   7  172.77    2.80
   4   2   7  179.16    4.35
  -5  -2  -7  112.84    2.13
  -5  -2  -7  112.94    2.04
  -5  -2  -7  112.94    2.04
  -5  -2  -7  113.39    2.03
   5   2   7  115.78    2.47
   5   2   7  115.42    1.96
   5   2   7  111.14    2.01
   5   2   7  115.42    1.96
  -6  -2  -7  114.72    2.13
  -6  -2  -7  116.75    2.22
  -6  -2  -7  114.72    2.13
   6   2   7  116.38    2.03
   6   2   7  117.80    2.08
   6   2   7  116.38    2.03
  -7  -2  -7   12.15    0.59
  -7  -2  -7   11.50    0.53
  -7  -2  -7   11.50    0.53
   7   2   7   11.69    0.48
   7   2   7   11.98    0.48
   7   2   7   11.98    0.48
  -8  -2  -7    3.66    0.40
  -8  -2  -7    3.44    0.38
  -8  -2  -7    3.44    0.38
   8   2   7    3.02    0.26
   8   2   7    3.30    0.31
   8   2   7    3.30    0.31
  -9  -2  -7    0.86    0.23
  -9  -2  -7    0.86    0.23
  -9  -2  -7    0.36    0.23
   9   2   7    0.58    0.15
   9   2   7    0.36    0.17
   9   2   7    0.36    0.17
 -10  -2  -7    1.29    0.30
 -10  -2  -7    1.17    0.31
 -10  -2  -7    1.17    0.31
  10   2   7    1.12    0.24
  10   2   7    1.12    0.24
   9  -3  -7    6.60    0.65
   9  -3  -7    6.60    0.65
   9  -3  -7    5.75    0.51
   9  -3  -7    5.60    0.60
  -9   3   7    6.07    0.63
  -9   3   7    5.70    0.66
  -9   3   7    6.07    0.63
   8  -3  -7   13.07    0.75
   8  -3  -7   13.03    0.73
   8  -3  -7   13.07    0.62
   8  -3  -7   13.03    0.73
  -8   3   7   13.27    0.73
  -8   3   7   14.22    0.85
  -8   3   7   13.27    0.73
   7  -3  -7   49.01    0.84
   7  -3  -7   48.65    1.20
   7  -3  -7   48.68    1.38
   7  -3  -7   49.01    0.84
   7  -3  -7   46.45    1.34
   7  -3  -7   46.45    1.34
  -7   3   7   50.21    1.38
  -7   3   7   50.21    1.38
   6  -3  -7    0.42    0.18
   6  -3  -7    0.49    0.09
   6  -3  -7    0.22    0.16
   6  -3  -7    0.42    0.18
   6  -3  -7    0.22    0.14
   6  -3  -7    0.49    0.09
  -6   3   7   -0.03    0.14
  -6   3   7   -0.03    0.14
   5  -3  -7    8.38    0.49
   5  -3  -7    8.14    0.49
   5  -3  -7    8.14    0.49
   5  -3  -7    8.12    0.28
   5  -3  -7    8.12    0.28
   5  -3  -7    8.38    0.41
   4  -3  -7   39.83    1.06
   4  -3  -7   40.15    0.77
   4  -3  -7   40.18    1.06
   4  -3  -7   41.78    1.45
   4  -3  -7   40.28    0.93
   4  -3  -7   39.83    1.06
   4  -3  -7   40.15    0.77
  -4   3   7   41.77    1.45
   3  -3  -7   66.32    1.41
   3  -3  -7   66.40    1.41
   3  -3  -7   63.49    1.11
   3  -3  -7   65.41    1.78
   3  -3  -7   63.49    1.11
   3  -3  -7   66.41    1.26
   3  -3  -7   66.32    1.41
  -3   3   7   64.07    1.77
   2  -3  -7  100.06    1.64
   2  -3  -7  100.50    1.89
   2  -3  -7  104.53    1.91
   2  -3  -7  100.06    1.64
   2  -3  -7  104.41    1.75
   2  -3  -7  100.50    1.89
   2  -3  -7  104.36    2.30
  -2   3   7  104.93    2.30
   1  -3  -7  353.09    5.31
   1  -3  -7  353.11    5.06
   1  -3  -7  353.09    5.31
   1  -3  -7  354.07    5.16
   1  -3  -7  353.11    5.06
   1  -3  -7  354.16    5.34
  -1   3   7  361.04    5.77
   0  -3  -7    5.66    0.28
   0  -3  -7    5.93    0.25
   0  -3  -7    5.66    0.34
   0  -3  -7    5.93    0.25
   0  -3  -7    5.40    0.32
   0  -3  -7    5.92    0.34
   0  -3  -7    5.40    0.32
   0   3   7    5.47    0.43
   0   3   7    5.81    0.55
  -1  -3  -7   69.09    1.45
  -1  -3  -7   70.46    1.10
  -1  -3  -7   68.93    1.23
  -1  -3  -7   70.29    1.36
  -1  -3  -7   70.29    1.36
  -1  -3  -7   68.93    1.23
   1   3   7   68.88    1.62
   1   3   7   67.39    1.99
  -2  -3  -7   25.42    0.69
  -2  -3  -7   25.42    0.69
  -2  -3  -7   25.28    0.61
  -2  -3  -7   25.09    0.58
  -2  -3  -7   24.68    0.78
  -2  -3  -7   25.28    0.61
   2   3   7   25.54    1.20
   2   3   7   24.77    0.65
   2   3   7   24.77    0.87
  -3  -3  -7   17.43    0.56
  -3  -3  -7   16.79    0.66
  -3  -3  -7   17.23    0.51
  -3  -3  -7   17.17    0.50
  -3  -3  -7   17.17    0.50
  -3  -3  -7   17.43    0.56
  -3  -3  -7   16.70    0.43
   3   3   7   16.98    0.72
   3   3   7   17.16    1.03
   3   3   7   16.92    0.54
  -4  -3  -7    8.63    0.40
  -4  -3  -7    8.97    0.34
  -4  -3  -7    8.22    0.35
  -4  -3  -7    8.10    0.37
  -4  -3  -7    8.63    0.40
  -4  -3  -7    8.22    0.35
   4   3   7    8.26    0.39
   4   3   7    8.25    0.77
   4   3   7    7.69    0.51
  -5  -3  -7   26.92    0.72
  -5  -3  -7   26.92    0.72
  -5  -3  -7   27.32    0.78
  -5  -3  -7   27.75    0.77
  -5  -3  -7   28.56    0.73
  -5  -3  -7   27.32    0.78
   5   3   7   26.79    1.01
   5   3   7   28.97    0.79
  -6  -3  -7  163.91    2.78
  -6  -3  -7  165.61    2.82
  -6  -3  -7  168.24    2.84
  -6  -3  -7  165.61    2.82
   6   3   7  162.97    2.79
  -7  -3  -7    8.07    0.46
  -7  -3  -7    8.07    0.46
  -7  -3  -7    8.50    0.47
   7   3   7    8.77    0.45
   7   3   7    8.47    0.44
   7   3   7    8.77    0.45
  -8  -3  -7    0.63    0.21
  -8  -3  -7    0.63    0.21
  -8  -3  -7    0.78    0.21
   8   3   7    0.73    0.19
   8   3   7    0.93    0.19
   8   3   7    0.73    0.19
  -9  -3  -7    3.82    0.41
  -9  -3  -7    2.70    0.35
  -9  -3  -7    3.82    0.41
   9   3   7    2.53    0.30
   9   3   7    2.53    0.30
   9   3   7    2.95    0.30
 -10  -3  -7    0.32    0.22
 -10  -3  -7    0.00    0.18
 -10  -3  -7    0.32    0.22
  10   3   7    0.52    0.19
  10   3   7    0.52    0.19
  10   3   7    0.35    0.14
   8  -4  -7    1.36    0.34
   8  -4  -7    0.88    0.27
   8  -4  -7    0.90    0.23
   8  -4  -7    1.36    0.34
  -8   4   7    1.57    0.36
  -8   4   7    0.93    0.33
  -8   4   7    1.57    0.36
   7  -4  -7   24.07    0.96
   7  -4  -7   22.52    0.76
   7  -4  -7   22.52    0.90
   7  -4  -7   24.07    0.96
  -7   4   7   23.03    0.94
  -7   4   7   23.03    0.94
   6  -4  -7   42.76    1.21
   6  -4  -7   45.67    1.29
   6  -4  -7   42.74    1.05
   6  -4  -7   45.67    1.29
  -6   4   7   44.50    1.28
  -6   4   7   44.50    1.28
   5  -4  -7   30.10    0.93
   5  -4  -7   30.22    0.98
   5  -4  -7   30.10    0.80
   5  -4  -7   30.22    0.98
  -5   4   7   32.53    1.01
  -5   4   7   32.53    1.01
   4  -4  -7   60.17    1.20
   4  -4  -7   58.86    1.40
   4  -4  -7   58.86    1.40
   4  -4  -7   60.09    1.35
   3  -4  -7   20.53    0.72
   3  -4  -7   20.74    0.58
   3  -4  -7   20.53    0.72
   3  -4  -7   20.75    0.40
   3  -4  -7   20.74    0.68
   3  -4  -7   21.68    1.00
   3  -4  -7   20.75    0.40
  -3   4   7   21.82    1.00
   2  -4  -7  120.58    1.81
   2  -4  -7  120.28    2.00
   2  -4  -7  124.85    2.67
   2  -4  -7  120.31    2.15
   2  -4  -7  120.58    1.81
  -2   4   7  123.61    2.67
   1  -4  -7   60.06    1.29
   1  -4  -7   59.19    1.13
   1  -4  -7   60.33    1.01
   1  -4  -7   60.33    1.01
   1  -4  -7   60.06    1.29
   1  -4  -7   59.24    1.25
  -1   4   7   61.83    1.64
   0  -4  -7   21.51    0.49
   0  -4  -7   23.02    0.69
   0  -4  -7   22.29    0.68
   0  -4  -7   22.28    0.59
   0  -4  -7   23.02    0.69
   0  -4  -7   21.51    0.49
   0  -4  -7   22.40    0.68
   0   4   7   21.98    1.03
   0   4   7   23.35    0.90
  -1  -4  -7  160.64    2.45
  -1  -4  -7  160.64    2.45
  -1  -4  -7  156.63    2.73
  -1  -4  -7  163.44    2.69
  -1  -4  -7  163.44    2.69
   1   4   7  162.38    3.05
   1   4   7  166.44    3.52
  -2  -4  -7   14.13    0.41
  -2  -4  -7   13.99    0.51
  -2  -4  -7   13.74    0.56
  -2  -4  -7   13.99    0.51
  -2  -4  -7   14.13    0.41
   2   4   7   14.23    0.90
   2   4   7   13.79    0.66
  -3  -4  -7   23.71    0.53
  -3  -4  -7   22.62    0.67
  -3  -4  -7   22.62    0.67
  -3  -4  -7   22.32    0.77
  -3  -4  -7   22.63    0.58
  -3  -4  -7   22.63    0.58
   3   4   7   22.57    1.19
   3   4   7   22.50    0.87
   3   4   7   22.79    0.64
  -4  -4  -7   12.50    0.43
  -4  -4  -7   13.46    0.62
  -4  -4  -7   12.50    0.43
  -4  -4  -7   12.80    0.49
  -4  -4  -7   12.73    0.42
  -4  -4  -7   12.80    0.49
   4   4   7   12.98    0.67
   4   4   7   13.31    0.50
   4   4   7   13.84    0.98
  -5  -4  -7   10.00    0.40
  -5  -4  -7    9.75    0.45
  -5  -4  -7    9.75    0.45
  -5  -4  -7   10.00    0.40
  -5  -4  -7    9.92    0.40
   5   4   7    9.89    0.45
   5   4   7    9.50    0.60
   5   4   7    9.86    0.89
  -6  -4  -7    0.16    0.13
  -6  -4  -7    0.16    0.13
  -6  -4  -7    0.10    0.10
  -6  -4  -7   -0.02    0.09
  -6  -4  -7   -0.02    0.09
   6   4   7    0.08    0.10
  -7  -4  -7   33.09    0.95
  -7  -4  -7   30.62    0.89
  -7  -4  -7   33.09    0.95
   7   4   7   31.38    0.92
  -8  -4  -7  199.77    3.44
  -8  -4  -7  202.10    3.48
  -8  -4  -7  202.10    3.48
   8   4   7  206.53    3.44
  -9  -4  -7    8.97    0.56
  -9  -4  -7    8.97    0.56
  -9  -4  -7    9.63    0.55
   9   4   7   10.16    0.52
 -10  -4  -7   29.64    1.04
 -10  -4  -7   27.01    0.99
 -10  -4  -7   29.64    1.04
  10   4   7   27.37    0.87
   8  -5  -7   23.91    0.98
   8  -5  -7   23.50    1.04
   8  -5  -7   23.50    1.04
   8  -5  -7   23.92    0.83
  -8   5   7   24.90    1.07
  -8   5   7   25.17    1.19
  -8   5   7   24.90    1.07
   7  -5  -7   45.89    1.39
   7  -5  -7   45.35    1.12
   7  -5  -7   45.89    1.39
   7  -5  -7   45.35    1.30
  -7   5   7   42.64    1.50
  -7   5   7   43.19    1.37
  -7   5   7   43.19    1.37
   6  -5  -7    1.53    0.27
   6  -5  -7    1.57    0.23
   6  -5  -7    1.96    0.33
   6  -5  -7    1.96    0.33
  -6   5   7    1.84    0.33
  -6   5   7    1.84    0.33
   5  -5  -7  208.49    3.29
   5  -5  -7  205.34    3.65
   5  -5  -7  205.34    3.65
   5  -5  -7  208.46    3.50
  -5   5   7  210.38    3.68
  -5   5   7  210.38    3.68
   4  -5  -7  121.66    2.39
   4  -5  -7  121.66    2.39
   4  -5  -7  124.01    2.07
   4  -5  -7  124.07    2.25
   3  -5  -7   11.62    0.57
   3  -5  -7   12.53    0.51
   3  -5  -7   11.62    0.57
   3  -5  -7   12.53    0.43
   2  -5  -7  414.50    6.26
   2  -5  -7  429.34    6.44
   2  -5  -7  414.19    6.10
   2  -5  -7  429.34    6.44
  -2   5   7  445.07    7.10
   1  -5  -7    2.70    0.24
   1  -5  -7    2.96    0.10
   1  -5  -7    3.39    0.11
   1  -5  -7    2.87    0.29
   1  -5  -7    2.70    0.20
   1  -5  -7    3.39    0.11
   1  -5  -7    2.96    0.10
   1  -5  -7    2.87    0.29
  -1   5   7    2.52    0.40
  -1   5   7    3.24    0.42
   0  -5  -7   77.21    1.19
   0  -5  -7   75.98    1.54
   0  -5  -7   75.37    1.49
   0  -5  -7   75.98    1.54
   0  -5  -7   77.21    1.19
   0   5   7   75.61    2.08
   0   5   7   76.16    1.88
  -1  -5  -7   85.98    1.39
  -1  -5  -7   86.66    1.69
  -1  -5  -7   87.99    1.69
  -1  -5  -7   85.98    1.39
  -1  -5  -7   87.99    1.69
   1   5   7   86.00    2.33
   1   5   7   88.70    2.03
  -2  -5  -7   19.87    0.64
  -2  -5  -7   19.07    0.47
  -2  -5  -7   19.15    0.67
  -2  -5  -7   19.07    0.47
  -2  -5  -7   19.87    0.64
   2   5   7   20.39    1.10
   2   5   7   19.86    0.83
  -3  -5  -7  320.60    5.01
  -3  -5  -7  316.10    4.62
  -3  -5  -7  316.10    4.62
  -3  -5  -7  318.99    4.85
  -3  -5  -7  318.98    4.85
   3   5   7  310.39    5.26
   3   5   7  325.58    6.11
  -4  -5  -7  455.86    6.54
  -4  -5  -7  457.03    6.99
  -4  -5  -7  452.59    6.41
  -4  -5  -7  455.86    6.54
  -4  -5  -7  459.10    6.74
  -4  -5  -7  459.10    6.74
   4   5   7  455.48    8.19
   4   5   7  458.83    7.22
  -5  -5  -7    0.66    0.15
  -5  -5  -7    0.89    0.14
  -5  -5  -7    0.61    0.17
  -5  -5  -7    0.61    0.17
  -5  -5  -7    0.66    0.15
  -5  -5  -7    0.51    0.18
   5   5   7    0.54    0.23
   5   5   7    0.73    0.16
   5   5   7    0.94    0.36
  -6  -5  -7  170.30    2.77
  -6  -5  -7  171.11    2.77
  -6  -5  -7  166.46    2.90
  -6  -5  -7  166.46    2.90
  -6  -5  -7  171.11    2.77
   6   5   7  171.50    2.92
  -7  -5  -7    2.40    0.26
  -7  -5  -7    2.40    0.26
  -7  -5  -7    2.02    0.28
  -7  -5  -7    2.02    0.28
  -7  -5  -7    1.90    0.24
   7   5   7    1.73    0.25
  -8  -5  -7   30.75    0.97
  -8  -5  -7   30.75    0.97
  -8  -5  -7   30.39    0.91
   8   5   7   31.13    0.96
  -9  -5  -7   35.21    1.09
  -9  -5  -7   34.12    1.03
  -9  -5  -7   35.21    1.09
   9   5   7   35.15    1.05
 -10  -5  -7   15.30    0.75
 -10  -5  -7   15.30    0.75
 -10  -5  -7   13.92    0.68
  10   5   7   15.88    0.69
   7  -6  -7   30.42    1.16
   7  -6  -7   32.36    1.07
   7  -6  -7   32.35    0.92
   7  -6  -7   30.42    1.16
  -7   6   7   37.35    1.27
  -7   6   7   37.35    1.27
  -7   6   7   30.83    1.30
   6  -6  -7   40.29    1.29
   6  -6  -7   41.64    1.15
   6  -6  -7   40.29    1.29
   6  -6  -7   41.63    1.00
  -6   6   7   42.15    1.32
  -6   6   7   42.15    1.32
   5  -6  -7    0.35    0.13
   5  -6  -7    0.35    0.22
   5  -6  -7    0.34    0.16
   5  -6  -7    0.35    0.22
  -5   6   7    0.25    0.20
  -5   6   7    0.25    0.20
   4  -6  -7   20.75    0.83
   4  -6  -7   20.75    0.83
   4  -6  -7   23.11    0.72
   4  -6  -7   23.09    0.61
   3  -6  -7   -0.08    0.11
   3  -6  -7   -0.08    0.11
   3  -6  -7    0.20    0.09
   3  -6  -7    0.20    0.11
   2  -6  -7   71.18    1.57
   2  -6  -7   68.65    1.25
   2  -6  -7   71.18    1.57
   2  -6  -7   68.61    1.38
   1  -6  -7   76.75    1.36
   1  -6  -7   77.39    1.63
   1  -6  -7   77.39    1.63
   1  -6  -7   76.74    1.48
  -1   6   7   73.92    2.03
  -1   6   7   80.46    2.07
   0  -6  -7  109.50    2.06
   0  -6  -7  106.63    1.96
   0  -6  -7  109.50    2.06
   0   6   7  112.53    2.49
   0   6   7  106.77    2.61
  -1  -6  -7   77.60    1.20
  -1  -6  -7   76.19    1.57
  -1  -6  -7   77.60    1.20
  -1  -6  -7   76.19    1.57
  -1  -6  -7   77.53    1.56
   1   6   7   80.91    1.96
   1   6   7   74.69    2.18
  -2  -6  -7   77.54    1.57
  -2  -6  -7   76.52    1.26
  -2  -6  -7   77.54    1.57
  -2  -6  -7   76.52    1.26
  -2  -6  -7   76.35    1.60
   2   6   7   78.58    1.91
   2   6   7   77.00    2.31
  -3  -6  -7  144.76    2.23
  -3  -6  -7  142.43    2.50
  -3  -6  -7  144.76    2.23
  -3  -6  -7  141.62    2.62
  -3  -6  -7  142.43    2.50
   3   6   7  142.99    3.52
   3   6   7  144.54    2.90
  -4  -6  -7   36.96    0.97
  -4  -6  -7   37.71    0.82
  -4  -6  -7   36.96    0.97
  -4  -6  -7   37.71    0.82
  -4  -6  -7   38.33    1.11
   4   6   7   39.64    1.27
   4   6   7   40.01    1.75
  -5  -6  -7   15.43    0.72
  -5  -6  -7   16.34    0.51
  -5  -6  -7   15.34    0.60
  -5  -6  -7   16.34    0.51
  -5  -6  -7   15.34    0.60
  -5  -6  -7   17.12    0.39
   5   6   7   17.13    1.20
  -6  -6  -7   31.19    0.81
  -6  -6  -7   32.66    0.75
  -6  -6  -7   32.77    0.93
  -6  -6  -7   32.77    0.93
  -6  -6  -7   32.37    1.12
  -6  -6  -7   31.19    0.81
   6   6   7   31.60    0.93
   6   6   7   33.21    1.76
  -7  -6  -7   -0.09    0.11
  -7  -6  -7    0.02    0.13
  -7  -6  -7    0.02    0.13
  -7  -6  -7   -0.09    0.11
  -7  -6  -7    0.12    0.10
   7   6   7    0.01    0.12
  -8  -6  -7  117.61    2.17
  -8  -6  -7  117.00    2.32
  -8  -6  -7  121.12    2.20
  -8  -6  -7  121.12    2.20
  -8  -6  -7  117.00    2.32
   8   6   7  121.03    2.35
  -9  -6  -7    1.69    0.30
  -9  -6  -7    1.46    0.24
  -9  -6  -7    1.69    0.30
   9   6   7    1.31    0.27
 -10  -6  -7   23.50    0.93
 -10  -6  -7   24.62    0.87
 -10  -6  -7   23.50    0.93
  10   6   7   23.79    0.90
   6  -7  -7    0.22    0.17
   6  -7  -7    0.26    0.24
   6  -7  -7    0.23    0.14
   6  -7  -7    0.26    0.24
  -6   7   7    0.08    0.24
  -6   7   7    0.34    0.26
  -6   7   7    0.08    0.24
   5  -7  -7   15.67    0.61
   5  -7  -7   14.40    0.75
   5  -7  -7   14.40    0.75
   5  -7  -7   15.67    0.52
  -5   7   7   16.15    0.79
  -5   7   7   16.15    0.79
   4  -7  -7    0.64    0.23
   4  -7  -7    0.44    0.14
   4  -7  -7    0.64    0.23
   4  -7  -7    0.45    0.12
   3  -7  -7    0.58    0.14
   3  -7  -7    0.53    0.21
   3  -7  -7    0.53    0.21
   3  -7  -7    0.60    0.12
   2  -7  -7    2.74    0.20
   2  -7  -7    2.74    0.24
   2  -7  -7    2.80    0.35
   2  -7  -7    2.80    0.35
  -2   7   7    2.68    0.43
   1  -7  -7   14.85    0.63
   1  -7  -7   14.85    0.63
   1  -7  -7   14.76    0.52
  -1   7   7   13.68    0.82
   0  -7  -7  126.82    2.33
   0  -7  -7  121.48    2.16
   0  -7  -7  126.82    2.33
   0   7   7  119.20    2.88
  -1  -7  -7  225.43    3.72
  -1  -7  -7  225.43    3.72
  -1  -7  -7  222.05    3.63
   1   7   7  233.66    4.24
   1   7   7  226.51    4.59
  -2  -7  -7  224.84    3.70
  -2  -7  -7  227.07    3.73
  -2  -7  -7  224.84    3.70
  -2  -7  -7  228.43    3.23
  -2  -7  -7  228.43    3.23
   2   7   7  233.94    4.19
   2   7   7  222.47    4.70
  -3  -7  -7   42.49    0.80
  -3  -7  -7   42.49    0.80
  -3  -7  -7   41.65    1.07
  -3  -7  -7   40.27    1.12
  -3  -7  -7   41.65    1.07
   3   7   7   42.06    1.74
   3   7   7   42.86    1.37
  -4  -7  -7   10.09    0.56
  -4  -7  -7   10.04    0.36
  -4  -7  -7   10.76    0.50
  -4  -7  -7   10.76    0.50
  -4  -7  -7   10.04    0.36
   4   7   7   10.39    0.93
  -5  -7  -7    0.14    0.14
  -5  -7  -7    0.36    0.11
  -5  -7  -7    0.14    0.14
  -5  -7  -7    0.36    0.11
  -5  -7  -7   -0.03    0.13
   5   7   7    0.53    0.33
  -6  -7  -7    2.21    0.23
  -6  -7  -7    2.59    0.32
  -6  -7  -7    2.21    0.23
  -6  -7  -7    2.59    0.32
  -6  -7  -7    2.89    0.41
   6   7   7    2.24    0.59
  -7  -7  -7   17.43    0.50
  -7  -7  -7   18.90    0.63
  -7  -7  -7   18.46    0.72
  -7  -7  -7   18.46    0.72
  -7  -7  -7   18.90    0.63
  -8  -7  -7  170.88    2.80
  -8  -7  -7  170.62    3.09
  -8  -7  -7  170.62    3.09
  -8  -7  -7  175.05    2.94
  -8  -7  -7  175.05    2.94
   8   7   7  173.43    3.14
  -9  -7  -7   38.02    1.05
  -9  -7  -7   37.67    1.16
  -9  -7  -7   37.67    1.16
  -9  -7  -7   36.87    0.98
  -9  -7  -7   38.02    1.05
   9   7   7   37.31    1.17
 -10  -7  -7   21.98    0.90
 -10  -7  -7   21.98    0.90
 -10  -7  -7   22.00    0.78
  10   7   7   23.00    0.91
   5  -8  -7   23.92    0.75
   5  -8  -7   21.95    0.96
   5  -8  -7   21.95    0.96
   5  -8  -7   23.91    0.64
  -5   8   7   24.53    1.01
  -5   8   7   24.53    1.01
   4  -8  -7   13.77    0.73
   4  -8  -7   13.08    0.43
   4  -8  -7   13.77    0.73
   4  -8  -7   13.08    0.51
  -4   8   7   13.85    0.73
  -4   8   7   13.85    0.73
   3  -8  -7    5.82    0.53
   3  -8  -7    5.03    0.26
   3  -8  -7    5.82    0.53
   3  -8  -7    5.03    0.31
  -3   8   7    4.18    0.47
   2  -8  -7   31.50    0.68
   2  -8  -7   29.83    0.99
   2  -8  -7   29.83    0.99
   2  -8  -7   30.63    0.77
   2  -8  -7   31.51    0.78
  -2   8   7   28.27    1.16
   1  -8  -7    0.93    0.24
   1  -8  -7    0.70    0.15
   1  -8  -7    0.93    0.24
  -1   8   7    0.84    0.28
   0  -8  -7   46.46    1.20
   0  -8  -7   44.36    1.04
   0  -8  -7   46.46    1.20
   0   8   7   41.54    1.56
  -1  -8  -7   67.30    1.51
  -1  -8  -7   66.64    1.42
  -1  -8  -7   67.30    1.51
   1   8   7   64.03    2.06
  -2  -8  -7   66.14    1.48
  -2  -8  -7   65.32    1.46
  -2  -8  -7   66.14    1.48
   2   8   7   63.08    2.13
  -3  -8  -7   76.78    1.22
  -3  -8  -7   77.16    1.64
  -3  -8  -7   77.16    1.64
  -3  -8  -7   76.78    1.22
  -3  -8  -7   76.17    1.68
   3   8   7   72.93    2.45
  -4  -8  -7   34.69    0.71
  -4  -8  -7   33.73    1.06
  -4  -8  -7   34.69    0.71
  -4  -8  -7   33.33    0.96
  -4  -8  -7   33.33    0.96
   4   8   7   32.71    1.66
  -5  -8  -7   27.30    0.99
  -5  -8  -7   26.12    0.66
  -5  -8  -7   27.76    0.87
  -5  -8  -7   26.12    0.66
  -5  -8  -7   27.76    0.87
   5   8   7   27.14    1.58
  -6  -8  -7   46.36    1.41
  -6  -8  -7   46.95    1.02
  -6  -8  -7   47.51    1.23
  -6  -8  -7   47.51    1.23
  -6  -8  -7   46.95    1.02
   6   8   7   48.90    2.24
  -7  -8  -7   33.07    0.86
  -7  -8  -7   33.07    0.86
  -7  -8  -7   33.79    1.02
  -7  -8  -7   32.91    1.22
  -7  -8  -7   33.79    1.02
  -8  -8  -7   77.28    1.76
  -8  -8  -7   76.82    1.58
  -8  -8  -7   76.82    1.58
  -8  -8  -7   77.28    1.76
  -9  -8  -7    1.44    0.28
  -9  -8  -7    1.04    0.28
  -9  -8  -7    1.33    0.25
  -9  -8  -7    1.04    0.28
  -9  -8  -7    1.33    0.25
   9   8   7    1.52    0.30
 -10  -8  -7   12.46    0.62
 -10  -8  -7   12.99    0.70
 -10  -8  -7   12.99    0.70
 -10  -8  -7   13.18    0.53
 -10  -8  -7   12.46    0.62
  10   8   7   12.50    0.72
   4  -9  -7    2.36    0.39
   4  -9  -7    1.83    0.22
   4  -9  -7    2.36    0.39
   4  -9  -7    1.88    0.18
  -4   9   7    1.54    0.35
  -4   9   7    1.54    0.35
   3  -9  -7    2.71    0.39
   3  -9  -7    2.20    0.19
   3  -9  -7    2.35    0.23
   3  -9  -7    2.14    0.23
   3  -9  -7    2.71    0.39
   2  -9  -7   19.83    0.59
   2  -9  -7   21.31    0.85
   2  -9  -7   21.31    0.85
  -2   9   7   16.24    0.88
   1  -9  -7   13.89    0.51
   1  -9  -7   14.61    0.69
   1  -9  -7   14.61    0.69
  -1   9   7   12.54    0.80
   0  -9  -7   48.32    1.27
   0  -9  -7   47.19    1.09
   0  -9  -7   48.32    1.27
   0   9   7   42.64    1.59
  -1  -9  -7    1.28    0.26
  -1  -9  -7    1.28    0.26
  -1  -9  -7    1.05    0.20
   1   9   7    1.42    0.39
  -2  -9  -7    6.65    0.45
  -2  -9  -7    6.98    0.43
  -2  -9  -7    6.65    0.45
   2   9   7    7.37    0.75
  -3  -9  -7    2.15    0.29
  -3  -9  -7    2.15    0.29
  -3  -9  -7    1.94    0.28
   3   9   7    2.40    0.54
  -4  -9  -7    0.63    0.20
  -4  -9  -7    0.46    0.09
  -4  -9  -7    0.63    0.20
  -4  -9  -7    0.54    0.19
  -4  -9  -7    0.46    0.09
   4   9   7    0.49    0.31
  -5  -9  -7   29.52    0.92
  -5  -9  -7   29.52    0.92
  -5  -9  -7   29.96    0.68
  -5  -9  -7   29.96    0.68
  -5  -9  -7   29.48    1.06
   5   9   7   26.56    1.61
  -6  -9  -7   47.32    1.44
  -6  -9  -7   46.16    0.99
  -6  -9  -7   46.58    1.23
  -6  -9  -7   46.58    1.23
  -6  -9  -7   46.16    0.99
   6   9   7   47.10    2.25
  -7  -9  -7   10.45    0.72
  -7  -9  -7   10.15    0.56
  -7  -9  -7   10.15    0.56
  -7  -9  -7   10.65    0.45
  -7  -9  -7   10.65    0.45
   7   9   7   11.94    1.24
  -8  -9  -7   26.31    0.78
  -8  -9  -7   25.64    0.94
  -8  -9  -7   25.64    0.94
  -8  -9  -7   26.31    0.78
  -9  -9  -7   44.12    1.13
  -9  -9  -7   44.12    1.13
   3 -10  -7    1.34    0.18
   3 -10  -7    1.57    0.34
   3 -10  -7    1.57    0.34
  -3  10   7    0.88    0.29
  -3  10   7    0.88    0.29
   2 -10  -7   41.30    1.28
   2 -10  -7   41.30    1.28
   2 -10  -7   39.04    0.90
   1 -10  -7    5.28    0.33
   1 -10  -7    4.78    0.48
   1 -10  -7    4.78    0.48
   0 -10  -7   13.47    0.66
   0 -10  -7   12.83    0.52
   0 -10  -7   13.47    0.66
  -1 -10  -7   10.20    0.57
  -1 -10  -7   11.34    0.52
  -1 -10  -7   10.20    0.57
   1  10   7   10.41    1.09
  -2 -10  -7    2.82    0.33
  -2 -10  -7    3.03    0.46
  -2 -10  -7    3.03    0.46
   2  10   7    2.37    0.52
  -3 -10  -7   62.17    1.50
   3  10   7   58.03    2.27
  -4 -10  -7   12.16    0.65
   4  10   7   11.72    1.11
  -5 -10  -7    4.93    0.23
  -5 -10  -7    4.93    0.23
  -5 -10  -7    6.00    0.51
  -6 -10  -7    7.15    0.58
  -6 -10  -7    7.02    0.33
  -6 -10  -7    7.02    0.33
  -7 -10  -7    6.40    0.35
  -7 -10  -7    6.40    0.35
  -7 -10  -7    5.98    0.59
  -8 -10  -7   29.77    0.84
  -8 -10  -7   29.77    0.84
  -9 -10  -7    0.29    0.17
  -9 -10  -7    0.29    0.17
   2 -11  -7   13.14    0.44
   1 -11  -7    6.63    0.35
   0 -11  -7   24.81    0.75
  -1 -11  -7    0.39    0.15
  -2 -11  -7    0.62    0.19
  -3 -11  -7   55.50    1.44
  -4 -11  -7    1.93    0.33
  -5 -11  -7   11.77    0.70
  -6 -11  -7   45.50    1.47
  -6 -11  -7   44.23    0.86
  -6 -11  -7   44.23    0.86
  -7 -11  -7   27.73    0.72
  -7 -11  -7   27.73    0.72
  -7 -11  -7   29.52    1.22
  -8 -11  -7   46.79    1.63
  -8 -11  -7   43.89    1.04
  -8 -11  -7   43.89    1.04
  -1 -12  -7   11.12    0.53
  -2 -12  -7   35.23    1.06
  -3 -12  -7  156.21    2.96
  -4 -12  -7   11.42    0.67
  -5 -12  -7    8.49    0.63
  -6 -12  -7   36.95    1.35
  -6  -9   8    0.07    0.16
  -6  -9   8    0.07    0.16
  -5  -9   8   47.60    1.16
  -5  -9   8   47.60    1.16
  -4  -9   8   12.33    0.52
  -4  -9   8   12.95    0.87
  -4  -9   8   12.33    0.52
  -3  -9   8   44.79    1.03
  -3  -9   8   44.79    1.03
  -3  -9   8   46.11    1.58
  -2  -9   8   48.74    1.03
  -2  -9   8   48.74    1.03
  -2  -9   8   46.53    1.58
  -1  -9   8   15.85    0.47
  -1  -9   8   15.85    0.47
  -1  -9   8   14.64    0.88
   0  -9   8   17.86    0.95
   0  -9   8   18.55    0.42
   0  -9   8   18.55    0.42
   1  -9   8   68.42    1.94
  -7  -8   8   21.07    0.78
  -7  -8   8   21.07    0.78
  -6  -8   8   27.09    0.86
  -6  -8   8   27.09    0.86
  -5  -8   8   50.98    1.22
  -5  -8   8   50.98    1.22
  -4  -8   8   31.88    0.87
  -4  -8   8   31.88    0.87
  -3  -8   8    6.92    0.39
  -3  -8   8    6.95    0.65
  -3  -8   8    6.92    0.39
  -2  -8   8    4.88    0.31
  -2  -8   8    4.88    0.31
  -2  -8   8    4.82    0.54
  -1  -8   8    3.66    0.27
  -1  -8   8    3.66    0.27
  -1  -8   8    3.54    0.48
   0  -8   8    1.01    0.32
   0  -8   8    1.17    0.16
   0  -8   8    1.17    0.16
   1  -8   8  124.08    2.78
   1  -8   8  127.76    1.96
   1  -8   8  127.76    1.96
   2  -8   8    3.61    0.48
   3  -8   8   25.66    1.12
  -8  -7   8   11.38    0.56
  -7  -7   8    0.09    0.17
  -7  -7   8    0.23    0.14
  -7  -7   8    0.09    0.17
  -6  -7   8    3.96    0.29
  -6  -7   8    3.97    0.36
  -6  -7   8    3.97    0.36
  -5  -7   8    9.22    0.48
  -5  -7   8    9.22    0.48
  -4  -7   8   20.82    0.68
  -4  -7   8   20.82    0.68
  -3  -7   8   11.57    0.48
  -3  -7   8   11.57    0.48
  -3  -7   8   11.57    0.73
  -2  -7   8   20.84    0.63
  -2  -7   8   18.46    0.90
  -2  -7   8   20.84    0.63
  -1  -7   8    5.99    0.55
  -1  -7   8    5.85    0.32
  -1  -7   8    5.85    0.32
   0  -7   8   14.80    0.48
   0  -7   8   14.80    0.48
   0  -7   8   15.64    0.81
   1  -7   8   32.12    0.74
   1  -7   8   34.25    1.22
   1  -7   8   32.12    0.74
   2  -7   8   18.41    0.48
   2  -7   8   18.41    0.48
   2  -7   8   19.08    0.92
   3  -7   8   14.48    0.83
   3  -7   8   14.19    0.35
   3  -7   8   14.19    0.35
   4  -7   8   41.99    1.44
  -9  -6   8   16.25    0.74
  -8  -6   8    4.01    0.40
  -7  -6   8    2.51    0.32
  -6  -6   8   -0.10    0.14
  -6  -6   8   -0.10    0.14
  -6  -6   8   -0.14    0.10
  -5  -6   8    1.09    0.19
  -5  -6   8    1.19    0.21
  -5  -6   8    1.19    0.21
  -4  -6   8    5.69    0.30
  -4  -6   8    6.21    0.37
  -4  -6   8    6.21    0.37
  -3  -6   8    1.50    0.21
  -3  -6   8    1.11    0.15
  -3  -6   8    1.28    0.30
  -3  -6   8    1.50    0.21
  -2  -6   8   41.70    0.96
  -2  -6   8   41.70    0.96
  -2  -6   8   41.53    1.32
  -1  -6   8   19.04    0.58
  -1  -6   8   20.18    0.88
  -1  -6   8   19.04    0.58
   0  -6   8   32.04    1.12
   0  -6   8   29.70    0.74
   0  -6   8   29.70    0.74
   1  -6   8   55.62    1.57
   1  -6   8   57.16    1.12
   1  -6   8   57.16    1.12
   2  -6   8    2.40    0.37
   2  -6   8    2.34    0.21
   2  -6   8    2.34    0.21
   3  -6   8   31.33    0.70
   3  -6   8   33.63    1.21
   3  -6   8   31.33    0.70
   4  -6   8   19.60    0.48
   4  -6   8   19.60    0.48
   4  -6   8   19.19    0.95
   5  -6   8    4.76    0.57
   5  -6   8    5.52    0.19
   5  -6   8    5.52    0.19
  -9  -5   8   19.11    0.83
  -8  -5   8    7.01    0.50
  -7  -5   8   41.42    1.14
  -6  -5   8   38.99    1.05
  -5  -5   8   88.25    1.73
  -5  -5   8   87.33    1.74
  -5  -5   8   88.25    1.73
  -4  -5   8  104.24    1.92
  -4  -5   8  104.24    1.92
  -4  -5   8  105.29    1.90
  -3  -5   8    1.44    0.18
  -3  -5   8    0.86    0.17
  -3  -5   8    0.86    0.17
  -2  -5   8    1.25    0.19
  -2  -5   8    1.25    0.19
  -2  -5   8    1.52    0.30
  -2  -5   8    1.33    0.33
  -2  -5   8    1.49    0.16
  -1  -5   8   11.94    0.45
  -1  -5   8   12.70    0.68
  -1  -5   8   11.94    0.45
   0  -5   8    7.99    0.55
   0  -5   8    9.13    0.38
   0  -5   8    9.13    0.38
   1  -5   8   51.09    1.45
   1  -5   8   51.69    1.06
   1  -5   8   51.69    1.06
   2  -5   8    3.04    0.40
   2  -5   8    3.12    0.25
   2  -5   8    3.12    0.25
   3  -5   8   55.60    1.57
   3  -5   8   54.85    1.09
   3  -5   8   54.85    1.09
   4  -5   8   27.37    1.10
   4  -5   8   27.60    0.67
   4  -5   8   27.60    0.67
   5  -5   8    0.93    0.14
   5  -5   8    1.26    0.35
   5  -5   8    0.93    0.14
   6  -5   8    0.88    0.32
   6  -5   8    1.12    0.14
   6  -5   8    1.12    0.14
   9   4  -8   18.65    0.75
   9   4  -8   20.14    0.78
   9   4  -8   20.14    0.78
   9   4  -8   18.65    0.75
  -9  -4   8   19.46    0.85
  -8  -4   8   22.46    0.87
  -7  -4   8   28.73    0.94
  -6  -4   8   61.21    1.43
  -5  -4   8    0.42    0.15
  -4  -4   8   53.16    1.20
  -3  -4   8    8.50    0.41
  -3  -4   8    8.30    0.64
  -3  -4   8    8.01    0.39
  -3  -4   8    8.50    0.41
  -2  -4   8  221.32    3.44
  -2  -4   8  217.72    3.89
  -2  -4   8  218.62    4.09
  -2  -4   8  224.74    3.42
  -2  -4   8  221.32    3.44
  -1  -4   8    1.43    0.30
  -1  -4   8    1.66    0.19
  -1  -4   8    1.66    0.19
  -1  -4   8    1.31    0.15
  -1  -4   8    1.42    0.30
   0  -4   8   26.94    0.97
   0  -4   8   26.73    0.70
   0  -4   8   26.73    0.70
   0  -4   8   28.01    0.57
   1  -4   8    2.39    0.35
   1  -4   8    2.39    0.23
   1  -4   8    2.39    0.23
   2  -4   8   19.08    0.56
   2  -4   8   20.34    0.86
   2  -4   8   19.08    0.56
   3  -4   8    4.09    0.26
   3  -4   8    4.16    0.45
   3  -4   8    4.09    0.26
   4  -4   8   12.91    0.45
   4  -4   8   12.91    0.45
   4  -4   8   13.00    0.74
   5  -4   8  138.98    2.26
   5  -4   8  138.98    2.26
   5  -4   8  135.98    2.93
   6  -4   8  134.15    2.93
   6  -4   8  131.71    2.17
   6  -4   8  131.71    2.17
   7  -4   8    2.73    0.23
   7  -4   8    2.73    0.23
   7  -4   8    2.42    0.43
   9   3  -8   36.14    1.04
   9   3  -8   36.14    1.04
   9   3  -8   36.03    1.04
   9   3  -8   36.03    1.04
  -9  -3   8   36.46    1.19
   8   3  -8  278.96    4.42
   8   3  -8  277.02    4.42
   8   3  -8  277.02    4.42
   8   3  -8  278.96    4.42
  -8  -3   8  269.49    4.60
   7   3  -8   90.12    1.79
   7   3  -8   90.12    1.79
   7   3  -8   89.23    1.78
   7   3  -8   89.23    1.78
  -7  -3   8   85.95    1.89
   6   3  -8    0.86    0.20
   6   3  -8    0.86    0.20
   6   3  -8    1.11    0.22
   6   3  -8    1.11    0.22
  -6  -3   8    1.02    0.22
   5   3  -8    4.57    0.36
   5   3  -8    4.57    0.36
  -5  -3   8    5.62    0.38
  -4  -3   8   44.84    1.09
  -3  -3   8   91.82    1.74
  -3  -3   8   91.03    1.68
  -3  -3   8   94.31    2.25
  -3  -3   8   91.03    1.68
   2   3  -8  125.20    2.41
  -2  -3   8  124.39    2.65
  -2  -3   8  124.21    2.12
  -2  -3   8  125.10    2.15
  -2  -3   8  124.21    2.12
   1   3  -8    9.72    0.57
  -1  -3   8    9.19    0.39
  -1  -3   8   10.16    0.61
  -1  -3   8    9.70    0.57
  -1  -3   8    9.19    0.39
  -1  -3   8    9.83    0.40
   0  -3   8  203.92    3.12
   0  -3   8  203.30    3.60
   0  -3   8  203.28    3.17
   0  -3   8  203.28    3.17
   0  -3   8  204.32    3.60
   1  -3   8   38.04    0.85
   1  -3   8   38.04    0.85
   1  -3   8   36.76    1.14
   1  -3   8   36.05    0.76
   2  -3   8  145.65    2.85
   2  -3   8  144.91    2.37
   2  -3   8  144.91    2.37
   2  -3   8  147.47    2.13
   3  -3   8    1.69    0.19
   3  -3   8    1.36    0.29
   3  -3   8    1.69    0.19
   4  -3   8   34.96    0.83
   4  -3   8   34.96    0.83
   4  -3   8   35.89    1.20
   5  -3   8    4.66    0.29
   5  -3   8    4.66    0.29
   5  -3   8    5.54    0.54
  -6   3  -8   70.88    1.54
  -6   3  -8   70.88    1.54
   6  -3   8   70.41    1.36
   6  -3   8   70.41    1.36
   6  -3   8   68.28    1.90
  -7   3  -8    0.14    0.19
  -7   3  -8    0.14    0.19
   7  -3   8    0.63    0.14
   7  -3   8    0.63    0.14
   7  -3   8    0.14    0.23
  -8   3  -8   62.32    1.57
  -8   3  -8   62.32    1.57
   8  -3   8   62.01    1.24
   8  -3   8   61.36    1.91
   8  -3   8   62.01    1.24
   9   2  -8   46.05    1.18
   9   2  -8   46.05    1.18
   8   2  -8   12.75    0.56
   8   2  -8   12.75    0.56
   7   2  -8    1.72    0.24
   7   2  -8    1.72    0.24
   7   2  -8    1.87    0.29
  -7  -2   8    1.86    0.30
   6   2  -8   15.07    0.57
   6   2  -8   15.07    0.57
  -6  -2   8   14.33    0.63
   5   2  -8    6.87    0.38
   5   2  -8    6.87    0.38
  -5  -2   8    7.10    0.43
   4   2  -8   45.61    1.04
   4   2  -8   45.61    1.04
  -4  -2   8   45.85    1.11
   3   2  -8    2.97    0.27
   3   2  -8    2.97    0.27
  -3  -2   8    2.70    0.28
   2   2  -8   30.44    0.81
   2   2  -8   30.79    0.80
   2   2  -8   30.44    0.81
  -2  -2   8   29.51    0.79
  -2  -2   8   29.90    0.75
  -2  -2   8   29.90    0.75
   1   2  -8   45.81    1.05
  -1  -2   8   47.04    0.98
  -1  -2   8   47.04    0.98
  -1  -2   8   45.15    1.01
   0   2  -8   10.58    0.45
   0  -2   8   11.06    0.41
   0  -2   8   11.06    0.41
   0  -2   8   10.81    0.41
  -1   2  -8   58.64    1.26
  -1   2  -8   60.99    1.18
  -1   2  -8   58.90    1.55
  -1   2  -8   60.99    1.18
   1  -2   8   59.15    1.16
   1  -2   8   58.41    1.15
   1  -2   8   59.15    1.16
   1  -2   8   58.06    1.49
  -2   2  -8  407.63    6.53
  -2   2  -8  411.33    5.92
  -2   2  -8  426.73    6.87
  -2   2  -8  411.33    5.92
   2  -2   8  404.55    5.85
   2  -2   8  398.55    5.91
   2  -2   8  402.43    6.43
   2  -2   8  398.55    5.91
  -3   2  -8    5.94    0.33
  -3   2  -8    5.94    0.33
   3  -2   8    7.17    0.33
   3  -2   8    6.32    0.25
   3  -2   8    5.70    0.49
   3  -2   8    7.17    0.33
  -4   2  -8   19.08    0.62
  -4   2  -8   19.08    0.62
   4  -2   8   18.64    0.85
   4  -2   8   18.21    0.56
   4  -2   8   18.21    0.56
  -5   2  -8    9.08    0.46
  -5   2  -8    9.08    0.46
   5  -2   8   10.07    0.41
   5  -2   8   10.07    0.41
   5  -2   8   10.24    0.67
  -6   2  -8   68.35    1.51
  -6   2  -8   68.35    1.51
   6  -2   8   70.37    1.38
   6  -2   8   70.37    1.38
   6  -2   8   70.39    1.90
  -7   2  -8    2.44    0.33
  -7   2  -8    2.44    0.33
   7  -2   8    2.24    0.24
   7  -2   8    2.24    0.24
   7  -2   8    2.81    0.45
  -8   2  -8   23.39    0.89
  -8   2  -8   23.39    0.89
   8  -2   8   22.21    0.68
   8  -2   8   22.57    1.11
   8  -2   8   22.21    0.68
   9   1  -8    3.33    0.33
   9   1  -8    3.33    0.33
   8   1  -8    8.88    0.46
   8   1  -8    8.88    0.46
   7   1  -8    0.08    0.12
   7   1  -8    0.23    0.18
   7   1  -8   -0.07    0.15
   7   1  -8    0.23    0.18
   7   1  -8    0.08    0.12
   7   1  -8   -0.07    0.18
  -7  -1   8    0.30    0.17
  -7  -1   8    0.30    0.17
   6   1  -8    0.39    0.17
   6   1  -8    0.30    0.21
   6   1  -8    0.57    0.15
   6   1  -8    0.46    0.14
   6   1  -8    0.57    0.15
   6   1  -8    0.31    0.17
   6   1  -8    0.39    0.17
  -6  -1   8    0.42    0.18
  -6  -1   8    0.42    0.18
   5   1  -8    6.00    0.39
   5   1  -8    7.11    0.51
   5   1  -8    6.49    0.42
   5   1  -8    6.56    0.36
   5   1  -8    6.00    0.39
   5   1  -8    7.11    0.43
   5   1  -8    6.29    0.86
   5   1  -8    6.56    0.36
  -5  -1   8    5.98    0.62
  -5  -1   8    6.86    0.41
  -5  -1   8    6.63    0.38
  -5  -1   8    6.63    0.38
   4   1  -8    7.32    0.36
   4   1  -8    6.96    0.50
   4   1  -8    7.41    0.39
   4   1  -8    7.32    0.36
   4   1  -8    7.41    0.39
   4   1  -8    7.74    0.53
   4   1  -8    6.96    0.41
   4   1  -8    6.61    0.45
  -4  -1   8    6.75    0.39
  -4  -1   8    7.44    0.52
   3   1  -8   33.15    0.82
   3   1  -8   32.66    0.83
   3   1  -8   33.15    0.82
   3   1  -8   33.34    1.03
   3   1  -8   32.66    0.83
   3   1  -8   33.33    0.89
   3   1  -8   32.69    1.01
  -3  -1   8   34.34    0.88
  -3  -1   8   32.57    1.03
   2   1  -8  254.87    4.22
   2   1  -8  260.75    3.93
   2   1  -8  252.99    3.93
   2   1  -8  254.83    4.54
   2   1  -8  267.22    4.33
   2   1  -8  260.75    3.93
   2   1  -8  252.99    3.93
  -2  -1   8  258.08    4.21
  -2  -1   8  261.64    4.00
   1   1  -8    0.46    0.13
   1   1  -8    0.87    0.22
   1   1  -8    0.41    0.12
   1   1  -8    0.41    0.12
   1   1  -8    0.61    0.13
   1   1  -8    0.46    0.13
  -1  -1   8    0.61    0.13
  -1  -1   8    0.69    0.18
  -1  -1   8    0.61    0.13
  -1  -1   8    0.52    0.13
   0   1  -8  232.40    3.99
   0   1  -8  231.57    3.54
   0   1  -8  236.99    3.61
   0   1  -8  236.99    3.61
   0   1  -8  235.03    3.62
   0   1  -8  231.57    3.54
   0  -1   8  231.01    3.77
   0  -1   8  230.90    3.53
   0  -1   8  230.90    3.53
   0  -1   8  231.24    3.59
  -1   1  -8    9.33    0.41
  -1   1  -8    8.66    0.37
  -1   1  -8    8.51    0.54
  -1   1  -8    8.66    0.37
   1  -1   8    9.25    0.47
   1  -1   8    9.25    0.37
   1  -1   8    9.25    0.37
   1  -1   8   10.80    0.58
   1  -1   8    9.13    0.38
  -2   1  -8   10.94    0.42
  -2   1  -8   10.94    0.42
  -2   1  -8   11.20    0.47
  -2   1  -8   11.02    0.62
   2  -1   8   11.14    0.41
   2  -1   8   10.84    0.59
   2  -1   8   11.14    0.41
   2  -1   8   10.55    0.53
   2  -1   8   11.99    0.43
  -3   1  -8   58.12    1.19
  -3   1  -8   58.12    1.19
  -3   1  -8   55.18    1.52
   3  -1   8   56.33    1.12
   3  -1   8   56.11    1.44
   3  -1   8   57.38    1.14
   3  -1   8   55.41    1.49
   3  -1   8   57.38    1.14
  -4   1  -8   71.87    1.43
  -4   1  -8   71.08    1.83
  -4   1  -8   71.87    1.43
   4  -1   8   71.03    1.77
   4  -1   8   71.73    1.29
   4  -1   8   70.41    1.37
   4  -1   8   70.41    1.37
   4  -1   8   69.96    1.78
  -5   1  -8    8.59    0.44
  -5   1  -8    8.59    0.44
   5  -1   8    8.97    0.63
   5  -1   8    8.94    0.40
   5  -1   8    8.93    0.30
   5  -1   8    8.94    0.40
   5  -1   8    8.64    0.60
  -6   1  -8  175.71    3.00
  -6   1  -8  175.71    3.00
   6  -1   8  175.07    2.85
   6  -1   8  175.07    2.85
   6  -1   8  171.26    3.46
  -7   1  -8    6.81    0.45
  -7   1  -8    6.81    0.45
   7  -1   8    6.02    0.58
   7  -1   8    6.31    0.36
   7  -1   8    6.31    0.36
  -8   1  -8   42.98    1.24
  -8   1  -8   42.98    1.24
   8  -1   8   45.71    1.08
   8  -1   8   46.59    1.60
   8  -1   8   45.71    1.08
  -9   1  -8   46.19    1.33
  -9   1  -8   46.19    1.33
   9  -1   8   41.99    1.06
   9  -1   8   41.99    1.06
   9   0  -8   65.48    1.69
   9   0  -8   64.25    1.38
   9   0  -8   64.47    1.66
   9   0  -8   64.47    1.93
   9   0  -8   65.48    1.69
   9   0  -8   64.25    1.38
  -9   0   8   64.87    1.85
  -9   0   8   64.25    1.66
  -9   0   8   64.25    1.66
   8   0  -8    5.03    0.48
   8   0  -8    4.32    0.44
   8   0  -8    4.63    0.35
   8   0  -8    4.63    0.35
   8   0  -8    4.20    0.51
   8   0  -8    5.03    0.48
  -8   0   8    4.83    0.46
  -8   0   8    4.83    0.46
   7   0  -8   43.20    1.37
   7   0  -8   42.20    1.00
   7   0  -8   39.60    1.16
   7   0  -8   43.18    1.17
   7   0  -8   39.60    1.16
   7   0  -8   42.20    1.00
  -7   0   8   41.85    1.16
  -7   0   8   41.85    1.16
   6   0  -8    0.45    0.18
   6   0  -8    1.08    0.25
   6   0  -8    0.45    0.18
   6   0  -8    0.26    0.12
   6   0  -8    1.11    0.22
   6   0  -8    0.26    0.12
  -6   0   8    0.87    0.22
  -6   0   8    0.87    0.22
   5   0  -8   23.39    0.76
   5   0  -8   23.42    0.67
   5   0  -8   22.60    0.75
   5   0  -8   23.42    0.67
   5   0  -8   23.22    0.66
   5   0  -8   22.60    0.88
   5   0  -8   23.52    1.03
   5   0  -8   23.39    0.76
  -5   0   8   22.13    1.01
   4   0  -8  143.18    2.51
   4   0  -8  145.41    2.46
   4   0  -8  149.16    2.77
   4   0  -8  144.08    2.40
   4   0  -8  147.49    2.96
   4   0  -8  144.08    2.40
   4   0  -8  149.06    2.53
   4   0  -8  143.18    2.51
  -4   0   8  142.43    2.93
   3   0  -8    0.08    0.12
   3   0  -8    0.14    0.10
   3   0  -8    0.00    0.12
   3   0  -8    0.08    0.12
   3   0  -8    0.14    0.10
   3   0  -8    0.13    0.11
   3   0  -8    0.00    0.11
  -3   0   8    0.00    0.09
  -3   0   8    0.00    0.14
   2   0  -8    3.93    0.29
   2   0  -8    4.04    0.26
   2   0  -8    5.18    0.31
   2   0  -8    4.05    0.33
   2   0  -8    5.18    0.31
   2   0  -8    3.93    0.35
   2   0  -8    4.04    0.26
  -2   0   8    4.50    0.39
  -2   0   8    4.32    0.29
   1   0  -8   29.89    0.92
   1   0  -8   31.72    0.76
   1   0  -8   30.57    0.92
   1   0  -8   31.72    0.76
   1   0  -8   30.06    0.76
   1   0  -8   30.06    0.76
   1   0  -8   30.57    0.80
  -1   0   8   29.06    1.35
  -1   0   8   30.61    0.78
  -1   0   8   29.90    0.93
   0   0  -8  128.10    2.15
   0   0  -8  128.10    2.15
   0   0  -8  128.22    2.41
   0   0  -8  129.94    2.42
   0   0  -8  130.65    2.47
   0   0  -8  128.63    2.16
   0   0  -8  128.63    2.16
   0   0  -8  128.19    2.22
   0   0  -8  127.91    2.12
   0   0   8  127.50    3.18
   0   0   8  131.94    2.20
   0   0   8  131.34    2.41
  -1   0  -8    0.17    0.11
  -1   0  -8    0.17    0.11
  -1   0  -8    0.71    0.14
  -1   0  -8    0.19    0.09
  -1   0  -8    0.71    0.14
  -1   0  -8    0.05    0.11
   1   0   8    0.14    0.09
   1   0   8    0.18    0.13
   1   0   8    0.14    0.09
   1   0   8    0.11    0.08
   1   0   8    0.18    0.23
  -2   0  -8    2.23    0.23
  -2   0  -8    1.31    0.27
  -2   0  -8    2.23    0.23
  -2   0  -8    1.36    0.19
   2   0   8    1.52    0.24
   2   0   8    1.20    0.15
   2   0   8    1.20    0.15
  -3   0  -8  326.43    4.86
  -3   0  -8  322.08    4.91
  -3   0  -8  321.53    5.29
  -3   0  -8  326.43    4.86
   3   0   8  326.36    4.80
   3   0   8  323.65    5.22
   3   0   8  322.09    4.83
   3   0   8  320.35    5.32
   3   0   8  326.36    4.80
  -4   0  -8    1.72    0.21
  -4   0  -8    1.72    0.21
  -4   0  -8    1.39    0.27
   4   0   8    1.62    0.30
   4   0   8    1.25    0.26
   4   0   8    1.92    0.21
   4   0   8    1.92    0.21
   4   0   8    1.64    0.19
  -5   0  -8   57.26    1.28
  -5   0  -8   57.26    1.28
  -5   0  -8   59.31    1.57
   5   0   8   58.83    1.16
   5   0   8   57.24    1.20
   5   0   8   57.24    1.20
   5   0   8   57.08    1.61
   5   0   8   58.26    1.66
  -6   0  -8   33.73    0.95
  -6   0  -8   33.73    0.95
  -6   0  -8   29.12    1.60
   6   0   8   34.53    0.86
   6   0   8   34.25    0.76
   6   0   8   34.53    0.86
   6   0   8   31.90    1.51
  -7   0  -8    0.37    0.18
  -7   0  -8    0.37    0.18
   7   0   8    0.75    0.17
   7   0   8    0.75    0.17
  -8   0  -8    2.09    0.33
  -8   0  -8    2.09    0.33
   8   0   8    1.49    0.22
   8   0   8    1.49    0.22
  -9   0  -8    1.86    0.32
  -9   0  -8    1.86    0.32
   9   0   8    1.46    0.23
   9   0   8    1.46    0.23
   9  -1  -8    0.41    0.27
   9  -1  -8    0.42    0.23
   9  -1  -8    0.36    0.15
   9  -1  -8    1.10    0.30
   9  -1  -8    0.36    0.15
   9  -1  -8    1.10    0.30
  -9   1   8    0.33    0.27
  -9   1   8    0.70    0.28
  -9   1   8    0.70    0.28
   8  -1  -8   12.59    0.49
   8  -1  -8   12.57    0.66
   8  -1  -8   12.48    0.69
   8  -1  -8   12.59    0.49
   8  -1  -8   12.57    0.79
   8  -1  -8   12.48    0.69
  -8   1   8   12.74    0.69
  -8   1   8   12.74    0.69
   7  -1  -8   32.59    1.00
   7  -1  -8   34.30    1.07
   7  -1  -8   34.30    1.07
   7  -1  -8   32.60    1.17
   7  -1  -8   31.55    0.81
   7  -1  -8   31.55    0.81
  -7   1   8   32.07    1.04
  -7   1   8   32.07    1.04
   6  -1  -8    0.25    0.11
   6  -1  -8    0.00    0.15
   6  -1  -8    0.00    0.12
   6  -1  -8    0.25    0.11
   6  -1  -8    0.07    0.15
   6  -1  -8    0.07    0.15
  -6   1   8    0.28    0.17
  -6   1   8    0.28    0.17
   5  -1  -8    3.55    0.36
   5  -1  -8    3.55    0.36
   5  -1  -8    3.80    0.28
   5  -1  -8    3.60    0.33
   5  -1  -8    3.80    0.28
   5  -1  -8    3.51    0.38
   4  -1  -8   12.97    0.75
   4  -1  -8   12.73    0.44
   4  -1  -8   11.29    0.59
   4  -1  -8   12.22    0.53
   4  -1  -8   12.22    0.53
   4  -1  -8   11.30    0.49
   4  -1  -8   12.73    0.44
  -4   1   8   13.46    0.76
   3  -1  -8   35.04    0.81
   3  -1  -8   35.26    1.03
   3  -1  -8   34.88    0.67
   3  -1  -8   35.24    0.89
   3  -1  -8   34.98    1.18
   3  -1  -8   35.04    0.81
   3  -1  -8   35.23    0.92
   3  -1  -8   35.23    0.92
  -3   1   8   34.48    1.17
   2  -1  -8   15.49    0.54
   2  -1  -8   15.49    0.64
   2  -1  -8   15.91    0.50
   2  -1  -8   17.98    0.59
   2  -1  -8   15.91    0.50
   2  -1  -8   17.98    0.59
   2  -1  -8   16.48    0.52
  -2   1   8   15.28    0.72
  -2   1   8   17.08    0.77
   1  -1  -8   22.09    0.66
   1  -1  -8   22.94    0.69
   1  -1  -8   22.91    0.61
   1  -1  -8   22.91    0.61
   1  -1  -8   22.09    0.66
  -1   1   8   23.38    0.85
  -1   1   8   23.44    0.65
   0  -1  -8   22.03    0.64
   0  -1  -8   22.52    0.72
   0  -1  -8   21.29    0.60
   0  -1  -8   22.03    0.64
   0  -1  -8   22.14    0.65
   0  -1  -8   22.01    0.76
   0  -1  -8   22.15    0.76
   0  -1  -8   21.29    0.60
   0   1   8   22.66    1.17
   0   1   8   21.87    0.63
   0   1   8   22.56    0.82
  -1  -1  -8   79.61    1.49
  -1  -1  -8   80.31    1.70
  -1  -1  -8   79.61    1.49
  -1  -1  -8   76.72    1.64
  -1  -1  -8   78.18    1.41
   1   1   8   78.00    1.73
   1   1   8   81.68    2.38
   1   1   8   80.47    1.50
  -2  -1  -8   13.40    0.59
  -2  -1  -8   13.48    0.48
  -2  -1  -8   13.48    0.48
  -2  -1  -8   13.31    0.48
  -2  -1  -8   13.95    0.47
  -2  -1  -8   13.31    0.48
   2   1   8   13.94    0.46
   2   1   8   13.06    0.47
   2   1   8   13.18    0.62
   2   1   8   13.94    0.46
   2   1   8   14.28    0.96
  -3  -1  -8  393.84    5.73
  -3  -1  -8  368.25    5.70
  -3  -1  -8  393.53    5.72
  -3  -1  -8  368.25    5.70
  -3  -1  -8  391.59    6.03
  -3  -1  -8  393.53    5.72
   3   1   8  393.12    6.13
   3   1   8  387.45    5.72
   3   1   8  389.73    5.66
   3   1   8  389.73    5.66
  -4  -1  -8   22.10    0.68
  -4  -1  -8   21.39    0.67
  -4  -1  -8   22.02    0.82
  -4  -1  -8   21.39    0.67
   4   1   8   22.68    0.89
   4   1   8   23.20    0.64
   4   1   8   23.20    0.64
   4   1   8   22.70    0.66
  -5  -1  -8  128.99    2.29
  -5  -1  -8  124.89    2.49
  -5  -1  -8  128.99    2.29
   5   1   8  129.47    2.21
   5   1   8  129.47    2.21
   5   1   8  128.43    2.21
   5   1   8  128.83    2.74
  -6  -1  -8   56.24    1.31
  -6  -1  -8   60.19    1.50
  -6  -1  -8   56.24    1.31
   6   1   8   55.46    1.22
   6   1   8   59.11    1.22
   6   1   8   55.46    1.22
  -7  -1  -8    0.74    0.21
  -7  -1  -8    0.74    0.21
  -7  -1  -8    1.05    0.25
   7   1   8    0.56    0.16
   7   1   8    1.00    0.16
   7   1   8    0.56    0.16
  -8  -1  -8   14.26    0.67
  -8  -1  -8   14.26    0.67
  -8  -1  -8   15.02    0.83
   8   1   8   14.46    0.58
   8   1   8   14.67    0.45
   8   1   8   14.46    0.58
  -9  -1  -8    6.14    0.50
  -9  -1  -8    6.14    0.50
   9   1   8    5.95    0.41
   9   1   8    5.95    0.41
 -10  -1  -8   15.23    0.79
 -10  -1  -8   15.23    0.79
  10   1   8   16.71    0.67
  10   1   8   16.71    0.67
   9  -2  -8    8.03    0.70
   9  -2  -8    7.06    0.33
   9  -2  -8    8.34    0.58
   9  -2  -8    8.03    0.70
   9  -2  -8    7.06    0.33
   9  -2  -8    8.34    0.70
  -9   2   8    8.07    0.71
  -9   2   8    8.16    0.63
  -9   2   8    8.16    0.63
   8  -2  -8   13.87    0.74
   8  -2  -8   13.17    0.81
   8  -2  -8   13.87    0.74
   8  -2  -8   13.77    0.46
   8  -2  -8   13.77    0.46
   8  -2  -8   13.17    0.67
  -8   2   8   13.82    0.74
  -8   2   8   13.82    0.74
   7  -2  -8   50.28    1.39
   7  -2  -8   50.42    1.49
   7  -2  -8   50.41    1.29
   7  -2  -8   50.85    1.04
   7  -2  -8   50.28    1.39
   7  -2  -8   50.85    1.04
  -7   2   8   51.22    1.39
  -7   2   8   51.22    1.39
   6  -2  -8    0.69    0.13
   6  -2  -8    0.69    0.13
   6  -2  -8    0.42    0.20
   6  -2  -8    0.09    0.16
   6  -2  -8    0.42    0.20
   6  -2  -8    0.09    0.13
  -6   2   8    0.30    0.19
  -6   2   8    0.30    0.19
   5  -2  -8    0.28    0.18
   5  -2  -8    0.60    0.18
   5  -2  -8    0.58    0.21
   5  -2  -8    0.58    0.12
   5  -2  -8    0.58    0.12
   5  -2  -8    0.28    0.18
   4  -2  -8    7.77    0.62
   4  -2  -8    7.98    0.49
   4  -2  -8    7.98    0.41
   4  -2  -8    7.95    0.34
   4  -2  -8    7.95    0.34
   4  -2  -8    7.68    0.44
   4  -2  -8    7.68    0.44
  -4   2   8    8.18    0.63
   3  -2  -8  317.41    4.65
   3  -2  -8  313.88    4.91
   3  -2  -8  320.07    5.44
   3  -2  -8  318.22    5.02
   3  -2  -8  318.22    4.79
   3  -2  -8  317.41    4.65
   3  -2  -8  313.88    4.91
  -3   2   8  316.32    5.43
   2  -2  -8  118.45    2.25
   2  -2  -8  118.48    2.06
   2  -2  -8  119.61    1.97
   2  -2  -8  120.12    2.15
   2  -2  -8  120.12    2.15
   2  -2  -8  119.61    1.97
  -2   2   8  117.43    2.51
   1  -2  -8    5.40    0.27
   1  -2  -8    5.44    0.33
   1  -2  -8    5.72    0.20
   1  -2  -8    6.00    0.32
   1  -2  -8    5.40    0.27
   1  -2  -8    6.01    0.38
   1  -2  -8    5.44    0.33
  -1   2   8    5.22    0.44
   0  -2  -8   45.51    1.00
   0  -2  -8   45.11    1.03
   0  -2  -8   44.99    1.14
   0  -2  -8   45.85    0.92
   0  -2  -8   44.22    0.94
   0  -2  -8   45.52    1.14
   0  -2  -8   45.11    1.03
   0  -2  -8   44.22    0.94
   0   2   8   45.51    0.98
   0   2   8   43.18    1.24
   0   2   8   44.33    1.65
  -1  -2  -8   83.59    1.50
  -1  -2  -8   83.59    1.50
  -1  -2  -8   83.47    1.58
  -1  -2  -8   82.58    1.54
  -1  -2  -8   83.47    1.58
  -1  -2  -8   83.72    1.75
   1   2   8   84.41    1.55
   1   2   8   82.03    1.84
   1   2   8   84.12    2.41
  -2  -2  -8    6.36    0.32
  -2  -2  -8    6.13    0.42
  -2  -2  -8    6.17    0.27
  -2  -2  -8    6.36    0.32
  -2  -2  -8    6.17    0.33
  -2  -2  -8    6.36    0.35
  -2  -2  -8    6.17    0.33
   2   2   8    6.61    0.33
   2   2   8    6.73    0.46
   2   2   8    6.01    0.64
  -3  -2  -8   24.36    0.66
  -3  -2  -8   23.84    0.70
  -3  -2  -8   23.33    1.02
  -3  -2  -8   24.36    0.66
  -3  -2  -8   23.84    0.70
  -3  -2  -8   22.94    0.62
  -3  -2  -8   23.04    0.73
   3   2   8   23.15    0.68
   3   2   8   24.36    1.30
   3   2   8   24.18    0.90
  -4  -2  -8    2.08    0.24
  -4  -2  -8    2.55    0.29
  -4  -2  -8    2.24    0.24
  -4  -2  -8    2.24    0.24
  -4  -2  -8    1.90    0.22
  -4  -2  -8    2.08    0.24
   4   2   8    2.01    0.33
   4   2   8    2.47    0.24
  -5  -2  -8  180.50    3.18
  -5  -2  -8  183.39    3.08
  -5  -2  -8  183.39    3.08
   5   2   8  187.01    3.05
   5   2   8  185.78    2.99
   5   2   8  189.60    3.59
   5   2   8  185.78    2.99
  -6  -2  -8  164.04    2.92
  -6  -2  -8  160.45    2.82
  -6  -2  -8  160.45    2.82
   6   2   8  162.79    2.75
   6   2   8  162.31    2.71
   6   2   8  162.31    2.71
  -7  -2  -8   62.08    1.43
  -7  -2  -8   62.08    1.43
  -7  -2  -8   61.30    1.50
   7   2   8   59.82    1.31
   7   2   8   57.78    1.29
   7   2   8   57.78    1.29
  -8  -2  -8   72.54    1.68
  -8  -2  -8   74.05    1.76
  -8  -2  -8   72.54    1.68
   8   2   8   76.34    1.51
   8   2   8   75.89    1.57
   8   2   8   75.89    1.57
  -9  -2  -8   -0.04    0.17
  -9  -2  -8    0.06    0.19
  -9  -2  -8    0.06    0.19
   9   2   8    0.07    0.10
   9   2   8    0.39    0.18
   9   2   8    0.39    0.18
 -10  -2  -8    4.93    0.52
 -10  -2  -8    4.93    0.52
 -10  -2  -8    4.87    0.51
  10   2   8    4.98    0.41
  10   2   8    4.98    0.41
   8  -3  -8   30.85    1.01
   8  -3  -8   30.83    1.14
   8  -3  -8   30.83    1.14
   8  -3  -8   30.85    1.19
  -8   3   8   32.73    1.17
  -8   3   8   32.73    1.17
   7  -3  -8  100.30    2.23
   7  -3  -8  101.16    1.61
   7  -3  -8  102.60    2.04
   7  -3  -8  101.16    1.61
   7  -3  -8  100.30    2.23
   7  -3  -8  102.64    2.29
  -7   3   8  102.98    2.24
  -7   3   8  102.98    2.24
   6  -3  -8    1.59    0.30
   6  -3  -8    1.74    0.16
   6  -3  -8    1.59    0.30
   6  -3  -8    1.75    0.26
   6  -3  -8    1.74    0.16
   6  -3  -8    1.70    0.30
  -6   3   8    1.13    0.26
  -6   3   8    1.13    0.26
   5  -3  -8   46.11    1.10
   5  -3  -8   45.05    1.23
   5  -3  -8   46.12    1.27
   5  -3  -8   45.05    1.23
   5  -3  -8   46.48    0.89
   5  -3  -8   46.48    0.89
   4  -3  -8   49.82    1.24
   4  -3  -8   47.94    1.09
   4  -3  -8   47.94    1.25
   4  -3  -8   46.36    0.92
   4  -3  -8   49.82    1.24
   4  -3  -8   46.36    0.92
   3  -3  -8  105.13    1.72
   3  -3  -8  104.81    1.87
   3  -3  -8  104.81    2.05
   3  -3  -8  105.13    1.72
   3  -3  -8  106.08    2.49
   3  -3  -8  102.40    2.02
   3  -3  -8  102.40    2.02
  -3   3   8  105.98    2.48
   2  -3  -8  122.66    2.08
   2  -3  -8  122.63    2.26
   2  -3  -8  121.67    2.22
   2  -3  -8  121.67    2.22
   2  -3  -8  118.60    1.95
   2  -3  -8  118.60    1.95
  -2   3   8  122.49    2.64
   1  -3  -8    2.18    0.18
   1  -3  -8    1.28    0.21
   1  -3  -8    1.58    0.19
   1  -3  -8    1.54    0.23
   1  -3  -8    2.18    0.18
   1  -3  -8    1.28    0.21
  -1   3   8    1.23    0.33
  -1   3   8    1.11    0.26
   0  -3  -8  219.25    3.61
   0  -3  -8  216.61    3.32
   0  -3  -8  219.14    3.41
   0  -3  -8  218.49    3.51
   0  -3  -8  218.49    3.51
   0  -3  -8  224.38    3.63
   0  -3  -8  216.61    3.32
   0   3   8  224.62    3.92
   0   3   8  221.69    4.47
  -1  -3  -8   47.84    0.98
  -1  -3  -8   46.92    0.85
  -1  -3  -8   49.83    1.10
  -1  -3  -8   47.84    0.98
  -1  -3  -8   48.45    1.20
  -1  -3  -8   49.83    1.10
   1   3   8   47.35    1.34
   1   3   8   48.69    1.75
  -2  -3  -8    9.70    0.37
  -2  -3  -8    9.82    0.43
  -2  -3  -8    9.36    0.34
  -2  -3  -8    9.82    0.43
  -2  -3  -8    9.70    0.37
  -2  -3  -8    9.82    0.51
   2   3   8    9.03    0.40
   2   3   8    9.62    0.56
   2   3   8   10.08    0.81
  -3  -3  -8  199.86    3.31
  -3  -3  -8  199.86    3.31
  -3  -3  -8  212.56    3.59
  -3  -3  -8  208.95    3.22
  -3  -3  -8  204.82    3.23
  -3  -3  -8  208.95    3.22
   3   3   8  208.51    3.30
   3   3   8  208.39    4.57
   3   3   8  210.09    3.73
  -4  -3  -8   12.63    0.46
  -4  -3  -8   12.63    0.46
  -4  -3  -8   12.28    0.48
  -4  -3  -8   12.20    0.42
  -4  -3  -8   12.20    0.51
  -4  -3  -8   12.20    0.51
   4   3   8   12.80    0.99
   4   3   8   11.88    0.66
   4   3   8   13.54    0.52
  -5  -3  -8  105.91    1.91
  -5  -3  -8  107.73    2.02
  -5  -3  -8  105.06    1.92
  -5  -3  -8  107.73    2.02
  -5  -3  -8  107.45    2.01
  -5  -3  -8  105.06    1.92
   5   3   8  117.18    3.39
   5   3   8  109.33    2.01
  -6  -3  -8   20.42    0.71
  -6  -3  -8   21.00    0.72
  -6  -3  -8   20.42    0.71
   6   3   8   19.91    0.68
  -7  -3  -8   40.40    1.11
  -7  -3  -8   41.38    1.12
  -7  -3  -8   41.38    1.12
   7   3   8   39.63    1.05
  -8  -3  -8   91.39    1.95
  -8  -3  -8   91.39    1.95
  -8  -3  -8   92.10    1.96
   8   3   8   90.37    1.83
  -9  -3  -8    0.07    0.16
  -9  -3  -8    0.06    0.19
  -9  -3  -8    0.06    0.19
   9   3   8    0.23    0.14
   9   3   8    0.06    0.15
   9   3   8    0.06    0.15
 -10  -3  -8   55.07    1.53
 -10  -3  -8   55.07    1.53
 -10  -3  -8   55.00    1.52
  10   3   8   55.61    1.37
  10   3   8   54.80    1.21
  10   3   8   55.61    1.37
   8  -4  -8   25.61    1.07
   8  -4  -8   26.95    0.92
   8  -4  -8   26.95    1.09
   8  -4  -8   25.61    1.07
  -8   4   8   27.37    1.10
  -8   4   8   27.37    1.10
  -8   4   8   25.78    1.21
   7  -4  -8   20.50    0.91
   7  -4  -8   21.02    0.77
   7  -4  -8   21.02    0.91
   7  -4  -8   20.50    0.91
  -7   4   8   23.78    0.97
  -7   4   8   23.78    0.97
   6  -4  -8   19.65    0.69
   6  -4  -8   18.43    0.83
   6  -4  -8   19.65    0.82
   6  -4  -8   18.43    0.83
  -6   4   8   19.69    0.86
  -6   4   8   19.69    0.86
   5  -4  -8   94.63    2.00
   5  -4  -8   94.72    2.04
   5  -4  -8   94.72    2.04
   5  -4  -8   94.58    1.80
   4  -4  -8    0.69    0.19
   4  -4  -8    1.19    0.10
   4  -4  -8    1.19    0.10
   4  -4  -8    0.96    0.23
   4  -4  -8    0.71    0.16
   4  -4  -8    0.96    0.23
   3  -4  -8   73.92    1.58
   3  -4  -8   73.59    1.19
   3  -4  -8   72.95    1.61
   3  -4  -8   72.95    1.61
   3  -4  -8   73.59    1.19
   3  -4  -8   73.88    1.42
   2  -4  -8  105.75    1.85
   2  -4  -8  105.35    2.03
   2  -4  -8  106.14    1.66
   2  -4  -8  106.14    1.66
   2  -4  -8  105.75    2.02
   2  -4  -8  105.35    2.03
  -2   4   8  103.99    2.46
   1  -4  -8    8.59    0.30
   1  -4  -8    8.43    0.37
   1  -4  -8    9.11    0.45
   1  -4  -8    8.43    0.44
   1  -4  -8    9.11    0.45
   1  -4  -8    8.59    0.30
  -1   4   8    9.41    0.62
  -1   4   8    8.65    0.70
   0  -4  -8   80.91    1.37
   0  -4  -8   79.64    1.49
   0  -4  -8   80.91    1.37
   0  -4  -8   79.80    1.61
   0  -4  -8   79.80    1.61
   0  -4  -8   79.66    1.65
   0  -4  -8   78.48    1.64
   0   4   8   83.57    1.98
   0   4   8   82.89    2.34
  -1  -4  -8   36.38    0.77
  -1  -4  -8   37.27    0.95
  -1  -4  -8   36.82    1.00
  -1  -4  -8   36.38    0.77
  -1  -4  -8   37.27    0.95
   1   4   8   36.68    1.51
   1   4   8   36.59    1.20
  -2  -4  -8   80.42    1.73
  -2  -4  -8   79.38    1.60
  -2  -4  -8   82.54    1.24
  -2  -4  -8   79.38    1.60
  -2  -4  -8   82.17    1.44
  -2  -4  -8   82.17    1.44
   2   4   8   84.30    1.95
   2   4   8   82.98    2.47
  -3  -4  -8   23.36    0.84
  -3  -4  -8   25.61    0.65
  -3  -4  -8   25.01    0.58
  -3  -4  -8   25.61    0.65
  -3  -4  -8   25.86    0.76
  -3  -4  -8   25.86    0.76
   3   4   8   25.13    0.77
   3   4   8   25.44    1.36
   3   4   8   23.82    0.94
  -4  -4  -8   11.33    0.43
  -4  -4  -8   11.56    0.51
  -4  -4  -8   11.56    0.51
  -4  -4  -8   11.82    0.42
  -4  -4  -8   11.33    0.43
  -4  -4  -8   11.13    0.60
   4   4   8   11.59    0.67
   4   4   8   11.53    0.96
   4   4   8   11.69    0.49
  -5  -4  -8   90.22    1.81
  -5  -4  -8   95.49    1.72
  -5  -4  -8   95.50    1.72
  -5  -4  -8   90.22    1.81
  -5  -4  -8   93.12    1.72
   5   4   8   94.57    1.83
  -6  -4  -8   14.73    0.56
  -6  -4  -8   17.45    0.66
  -6  -4  -8   15.54    0.56
  -6  -4  -8   17.45    0.66
  -6  -4  -8   15.54    0.56
   6   4   8   15.97    0.62
  -7  -4  -8    1.64    0.26
  -7  -4  -8    1.64    0.26
  -7  -4  -8    1.74    0.25
   7   4   8    2.37    0.30
  -8  -4  -8   16.47    0.70
  -8  -4  -8   17.25    0.70
  -8  -4  -8   16.47    0.70
   8   4   8   16.38    0.67
  -9  -4  -8   16.01    0.71
  -9  -4  -8   16.46    0.76
  -9  -4  -8   16.46    0.76
   9   4   8   15.86    0.66
 -10  -4  -8   38.71    1.24
 -10  -4  -8   38.71    1.24
 -10  -4  -8   36.58    1.18
  10   4   8   38.83    1.07
   7  -5  -8    1.51    0.31
   7  -5  -8    2.35    0.41
   7  -5  -8    2.35    0.41
   7  -5  -8    1.55    0.26
  -7   5   8    2.17    0.40
  -7   5   8    2.17    0.40
   6  -5  -8    0.06    0.21
   6  -5  -8    0.20    0.18
   6  -5  -8    0.06    0.21
   6  -5  -8    0.21    0.15
  -6   5   8    0.08    0.22
  -6   5   8    0.08    0.22
   5  -5  -8   36.44    1.15
   5  -5  -8   36.44    1.15
   5  -5  -8   35.19    0.91
   5  -5  -8   35.19    1.06
   4  -5  -8   19.08    0.71
   4  -5  -8   18.75    0.76
   4  -5  -8   19.08    0.60
   4  -5  -8   18.75    0.76
   3  -5  -8   47.45    1.02
   3  -5  -8   47.32    1.25
   3  -5  -8   47.48    1.16
   3  -5  -8   47.32    1.25
   2  -5  -8  156.77    2.79
   2  -5  -8  154.20    2.69
   2  -5  -8  156.77    2.79
   2  -5  -8  154.39    2.51
   1  -5  -8    3.68    0.26
   1  -5  -8    3.13    0.33
   1  -5  -8    3.68    0.31
   1  -5  -8    4.00    0.16
   1  -5  -8    4.00    0.16
   1  -5  -8    3.13    0.33
  -1   5   8    2.76    0.42
  -1   5   8    3.50    0.50
   0  -5  -8  197.67    3.31
   0  -5  -8  197.67    3.31
   0  -5  -8  194.93    3.28
   0  -5  -8  198.48    2.90
   0  -5  -8  198.48    2.90
   0   5   8  198.79    4.17
   0   5   8  200.37    3.78
  -1  -5  -8   18.08    0.64
  -1  -5  -8   17.90    0.46
  -1  -5  -8   18.00    0.67
  -1  -5  -8   17.90    0.46
  -1  -5  -8   18.08    0.64
   1   5   8   19.23    0.88
   1   5   8   19.38    1.09
  -2  -5  -8   46.28    1.12
  -2  -5  -8   45.40    1.19
  -2  -5  -8   46.28    1.12
  -2  -5  -8   46.13    0.91
  -2  -5  -8   46.13    0.91
   2   5   8   45.70    1.79
   2   5   8   47.71    1.41
  -3  -5  -8   15.77    0.69
  -3  -5  -8   16.33    0.49
  -3  -5  -8   16.33    0.49
  -3  -5  -8   17.67    0.64
  -3  -5  -8   17.67    0.64
   3   5   8   18.23    1.15
   3   5   8   17.63    0.83
  -4  -5  -8   18.41    0.55
  -4  -5  -8   18.80    0.46
  -4  -5  -8   18.24    0.76
  -4  -5  -8   18.41    0.55
  -4  -5  -8   18.43    0.66
  -4  -5  -8   18.43    0.66
   4   5   8   18.64    1.03
   4   5   8   19.98    1.26
  -5  -5  -8   10.22    0.39
  -5  -5  -8   10.25    0.49
  -5  -5  -8   10.45    0.43
  -5  -5  -8   10.25    0.49
  -5  -5  -8   10.45    0.43
   5   5   8   10.45    0.98
   5   5   8    9.85    0.48
  -6  -5  -8    9.15    0.42
  -6  -5  -8    9.15    0.42
  -6  -5  -8    8.93    0.49
  -6  -5  -8    8.60    0.40
  -6  -5  -8    8.93    0.49
   6   5   8    9.67    0.49
  -7  -5  -8   49.92    1.16
  -7  -5  -8   47.48    1.24
  -7  -5  -8   49.92    1.16
  -7  -5  -8   48.02    1.15
  -7  -5  -8   47.48    1.24
   7   5   8   49.89    1.26
  -8  -5  -8   24.01    0.87
  -8  -5  -8   24.01    0.87
  -8  -5  -8   22.26    0.77
   8   5   8   22.85    0.83
  -9  -5  -8    0.92    0.22
  -9  -5  -8    0.31    0.20
  -9  -5  -8    0.31    0.20
   9   5   8    0.49    0.20
 -10  -5  -8   -0.05    0.17
 -10  -5  -8    0.32    0.23
 -10  -5  -8    0.32    0.23
  10   5   8    0.29    0.18
   7  -6  -8   19.93    0.96
   7  -6  -8   20.10    0.87
   7  -6  -8   20.12    0.73
   7  -6  -8   19.93    0.96
  -7   6   8   22.13    1.01
  -7   6   8   22.13    1.01
  -7   6   8   19.35    1.06
   6  -6  -8   28.38    0.83
   6  -6  -8   28.39    0.97
   6  -6  -8   27.42    1.08
   6  -6  -8   27.42    1.08
  -6   6   8   29.22    1.11
  -6   6   8   29.22    1.11
   5  -6  -8   11.19    0.66
   5  -6  -8   10.55    0.56
   5  -6  -8   11.19    0.66
   5  -6  -8   10.55    0.47
  -5   6   8   11.50    0.68
  -5   6   8   11.50    0.68
   4  -6  -8   17.80    0.68
   4  -6  -8   16.92    0.77
   4  -6  -8   16.92    0.77
   4  -6  -8   17.80    0.57
   3  -6  -8   54.13    1.08
   3  -6  -8   54.17    1.23
   3  -6  -8   47.33    1.32
   3  -6  -8   47.33    1.32
   2  -6  -8    3.74    0.31
   2  -6  -8    3.74    0.25
   2  -6  -8    2.73    0.33
   2  -6  -8    2.73    0.33
  -2   6   8    4.28    0.52
   1  -6  -8   19.50    0.73
   1  -6  -8   19.50    0.73
   1  -6  -8   19.37    0.66
   1  -6  -8   20.07    0.67
   1  -6  -8   20.07    0.57
  -1   6   8   20.43    1.06
   0  -6  -8  193.68    3.32
   0  -6  -8  198.21    2.76
   0  -6  -8  197.78    3.27
   0  -6  -8  193.68    3.32
   0  -6  -8  198.21    2.76
   0   6   8  194.02    4.13
  -1  -6  -8    7.27    0.24
  -1  -6  -8    7.07    0.42
  -1  -6  -8    7.71    0.45
  -1  -6  -8    7.71    0.45
  -1  -6  -8    7.27    0.24
   1   6   8    7.84    0.63
   1   6   8    7.94    0.73
  -2  -6  -8  148.38    2.69
  -2  -6  -8  147.47    2.63
  -2  -6  -8  148.69    2.28
  -2  -6  -8  148.69    2.28
  -2  -6  -8  147.47    2.63
   2   6   8  148.37    3.65
   2   6   8  151.25    3.15
  -3  -6  -8  171.91    2.67
  -3  -6  -8  172.23    2.97
  -3  -6  -8  175.73    3.11
  -3  -6  -8  171.91    2.67
  -3  -6  -8  172.23    2.97
   3   6   8  176.36    4.18
  -4  -6  -8   19.93    0.56
  -4  -6  -8   19.93    0.56
  -4  -6  -8   19.50    0.80
  -4  -6  -8   20.52    0.72
  -4  -6  -8   20.52    0.72
   4   6   8   21.95    1.34
  -5  -6  -8    6.52    0.34
  -5  -6  -8    6.81    0.43
  -5  -6  -8    6.52    0.34
  -5  -6  -8    6.24    0.50
  -5  -6  -8    6.63    0.23
  -5  -6  -8    6.81    0.43
   5   6   8    6.54    0.83
  -6  -6  -8    1.23    0.24
  -6  -6  -8    0.86    0.14
  -6  -6  -8    0.77    0.15
  -6  -6  -8    1.23    0.24
  -6  -6  -8    0.77    0.15
   6   6   8    0.81    0.20
  -7  -6  -8    1.30    0.21
  -7  -6  -8    1.55    0.27
  -7  -6  -8    1.85    0.22
  -7  -6  -8    1.30    0.21
  -7  -6  -8    1.55    0.27
   7   6   8    1.90    0.29
  -8  -6  -8   43.46    1.10
  -8  -6  -8   41.61    1.06
  -8  -6  -8   40.39    1.18
  -8  -6  -8   40.39    1.18
  -8  -6  -8   43.46    1.10
   8   6   8   40.02    1.18
  -9  -6  -8    3.99    0.36
  -9  -6  -8    4.73    0.47
  -9  -6  -8    4.73    0.47
   9   6   8    3.92    0.42
 -10  -6  -8   57.71    1.58
 -10  -6  -8   59.64    1.47
 -10  -6  -8   57.71    1.58
  10   6   8   56.33    1.50
   6  -7  -8   19.54    0.66
   6  -7  -8   19.11    0.93
   6  -7  -8   19.54    0.78
   6  -7  -8   19.11    0.93
  -6   7   8   20.53    0.97
  -6   7   8   20.53    0.97
   5  -7  -8   41.19    0.98
   5  -7  -8   40.67    1.32
   5  -7  -8   40.67    1.32
   5  -7  -8   41.22    1.12
  -5   7   8   43.57    1.36
  -5   7   8   43.57    1.36
   4  -7  -8    2.14    0.27
   4  -7  -8    2.20    0.23
   4  -7  -8    2.76    0.41
   4  -7  -8    2.76    0.41
   3  -7  -8    5.57    0.37
   3  -7  -8    5.58    0.31
   3  -7  -8    5.65    0.51
   3  -7  -8    5.65    0.51
   2  -7  -8  103.71    2.14
   2  -7  -8  103.71    2.14
   2  -7  -8  100.92    1.75
   2  -7  -8  100.97    1.91
  -2   7   8   98.46    2.59
   1  -7  -8    1.82    0.27
   1  -7  -8    1.42    0.22
   1  -7  -8    1.82    0.27
  -1   7   8    1.16    0.35
   0  -7  -8    0.41    0.16
   0  -7  -8    0.31    0.14
   0  -7  -8    0.41    0.16
   0   7   8    0.28    0.24
  -1  -7  -8   42.82    0.66
  -1  -7  -8   41.12    1.09
  -1  -7  -8   42.82    0.66
  -1  -7  -8   42.81    1.14
  -1  -7  -8   42.81    1.14
   1   7   8   42.00    1.70
  -2  -7  -8   24.17    0.81
  -2  -7  -8   24.87    0.52
  -2  -7  -8   24.87    0.52
  -2  -7  -8   24.17    0.81
  -2  -7  -8   24.54    0.84
   2   7   8   24.93    1.34
  -3  -7  -8  164.68    2.96
  -3  -7  -8  170.79    3.09
  -3  -7  -8  164.68    2.96
  -3  -7  -8  175.11    2.60
  -3  -7  -8  175.11    2.60
   3   7   8  167.69    4.14
  -4  -7  -8   25.12    0.63
  -4  -7  -8   24.23    0.90
  -4  -7  -8   24.23    0.81
  -4  -7  -8   24.23    0.81
  -4  -7  -8   25.12    0.63
   4   7   8   25.40    1.49
  -5  -7  -8  186.76    2.95
  -5  -7  -8  186.76    2.95
  -5  -7  -8  187.55    3.48
  -5  -7  -8  186.36    3.23
  -5  -7  -8  186.36    3.23
   5   7   8  186.79    4.73
  -6  -7  -8   46.11    1.22
  -6  -7  -8   46.11    1.22
  -6  -7  -8   45.82    1.04
  -6  -7  -8   45.82    1.04
  -6  -7  -8   46.28    1.41
   6   7   8   45.59    2.20
  -7  -7  -8   56.98    1.25
  -7  -7  -8   56.35    1.42
  -7  -7  -8   56.98    1.25
  -7  -7  -8   56.35    1.42
  -7  -7  -8   54.78    1.05
  -8  -7  -8    0.51    0.20
  -8  -7  -8    0.35    0.21
  -8  -7  -8    0.28    0.13
  -8  -7  -8    0.51    0.20
  -8  -7  -8    0.35    0.21
   8   7   8    0.57    0.23
  -9  -7  -8   64.91    1.40
  -9  -7  -8   63.00    1.48
  -9  -7  -8   63.00    1.48
  -9  -7  -8   66.67    1.65
  -9  -7  -8   66.67    1.65
   9   7   8   63.15    1.63
 -10  -7  -8   22.57    0.80
 -10  -7  -8   22.95    0.95
 -10  -7  -8   22.95    0.95
  10   7   8   24.78    0.96
   5  -8  -8    0.27    0.13
   5  -8  -8    0.18    0.23
   5  -8  -8    0.18    0.23
   5  -8  -8    0.26    0.16
  -5   8   8    0.37    0.27
  -5   8   8    0.37    0.27
   4  -8  -8    0.35    0.15
   4  -8  -8    0.19    0.22
   4  -8  -8    0.36    0.13
   4  -8  -8    0.19    0.22
   3  -8  -8   10.76    0.64
   3  -8  -8   10.00    0.39
   3  -8  -8   10.76    0.64
   3  -8  -8   10.01    0.47
   2  -8  -8    0.80    0.15
   2  -8  -8    0.82    0.17
   2  -8  -8    0.68    0.23
   2  -8  -8    0.68    0.23
   2  -8  -8    0.78    0.17
  -2   8   8    0.82    0.30
   1  -8  -8    2.12    0.33
   1  -8  -8    2.12    0.33
   1  -8  -8    2.07    0.25
  -1   8   8    2.08    0.44
   0  -8  -8  218.82    3.73
   0  -8  -8  218.82    3.73
   0  -8  -8  215.17    3.54
   0   8   8  209.89    4.49
  -1  -8  -8   10.58    0.57
  -1  -8  -8   10.58    0.57
  -1  -8  -8   10.61    0.52
   1   8   8   10.18    0.87
  -2  -8  -8   77.88    1.71
  -2  -8  -8   77.03    1.69
  -2  -8  -8   77.88    1.71
   2   8   8   75.04    2.50
  -3  -8  -8   11.43    0.57
  -3  -8  -8   12.08    0.34
  -3  -8  -8   12.08    0.34
  -3  -8  -8   11.43    0.57
  -3  -8  -8   11.81    0.61
   3   8   8   11.81    1.01
  -4  -8  -8   33.49    0.71
  -4  -8  -8   30.89    0.96
  -4  -8  -8   31.40    1.06
  -4  -8  -8   33.49    0.71
  -4  -8  -8   30.89    0.96
   4   8   8   29.91    1.66
  -5  -8  -8   12.34    0.60
  -5  -8  -8   12.34    0.60
  -5  -8  -8   11.07    0.42
  -5  -8  -8   11.07    0.42
  -5  -8  -8   13.30    0.70
   5   8   8   11.33    1.09
  -6  -8  -8   14.88    0.52
  -6  -8  -8   14.92    0.80
  -6  -8  -8   14.32    0.66
  -6  -8  -8   14.88    0.52
  -6  -8  -8   14.32    0.66
   6   8   8   14.34    1.27
  -7  -8  -8  121.30    2.17
  -7  -8  -8  122.09    2.42
  -7  -8  -8  121.30    2.17
  -7  -8  -8  122.09    2.42
  -8  -8  -8  144.56    2.55
  -8  -8  -8  141.50    2.77
  -8  -8  -8  141.50    2.77
  -8  -8  -8  144.56    2.55
  -9  -8  -8   15.30    0.76
  -9  -8  -8   15.50    0.65
  -9  -8  -8   15.30    0.76
  -9  -8  -8   15.50    0.65
   9   8   8   15.74    0.78
   4  -9  -8   18.69    0.90
   4  -9  -8   18.69    0.90
   4  -9  -8   17.95    0.63
   4  -9  -8   17.95    0.54
  -4   9   8   17.24    0.88
  -4   9   8   17.24    0.88
   3  -9  -8   20.78    0.92
   3  -9  -8   22.27    0.69
   3  -9  -8   22.25    0.59
   3  -9  -8   21.08    0.68
   3  -9  -8   20.78    0.92
   2  -9  -8   19.86    0.86
   2  -9  -8   19.86    0.86
   2  -9  -8   19.44    0.65
   1  -9  -8    3.41    0.30
   1  -9  -8    3.85    0.42
   1  -9  -8    3.85    0.42
   0  -9  -8   56.72    1.29
   0  -9  -8   56.30    1.45
   0  -9  -8   56.30    1.45
   0   9   8   51.90    1.91
  -1  -9  -8    0.48    0.21
  -1  -9  -8    0.12    0.13
  -1  -9  -8    0.48    0.21
   1   9   8    0.37    0.29
  -2  -9  -8  212.77    3.57
  -2  -9  -8  206.11    3.58
  -2  -9  -8  206.11    3.58
   2   9   8  196.55    4.65
  -3  -9  -8    1.17    0.26
  -3  -9  -8    1.30    0.26
  -3  -9  -8    1.17    0.26
   3   9   8    1.32    0.45
  -4  -9  -8    0.71    0.11
  -4  -9  -8    0.71    0.11
  -4  -9  -8    0.63    0.23
  -4  -9  -8    0.76    0.23
  -4  -9  -8    0.63    0.23
   4   9   8    0.99    0.42
  -5  -9  -8    3.66    0.41
  -5  -9  -8    3.38    0.42
  -5  -9  -8    3.21    0.22
  -5  -9  -8    3.21    0.22
  -5  -9  -8    3.66    0.41
   5   9   8    3.19    0.70
  -6  -9  -8    5.55    0.54
  -6  -9  -8    5.65    0.44
  -6  -9  -8    5.84    0.32
  -6  -9  -8    5.84    0.32
  -6  -9  -8    5.65    0.44
   6   9   8    5.87    1.00
  -7  -9  -8   13.69    0.53
  -7  -9  -8   13.80    0.84
  -7  -9  -8   13.66    0.68
  -7  -9  -8   13.69    0.53
  -7  -9  -8   13.66    0.68
  -8  -9  -8   40.28    1.03
  -8  -9  -8   39.22    1.21
  -8  -9  -8   39.22    1.21
  -8  -9  -8   40.28    1.03
  -9  -9  -8   15.24    0.77
  -9  -9  -8   15.24    0.77
  -9  -9  -8   16.96    0.67
  -9  -9  -8   16.96    0.67
   3 -10  -8   14.04    0.78
   3 -10  -8   14.30    0.53
   3 -10  -8   14.04    0.78
  -3  10   8   12.42    0.74
  -3  10   8   12.42    0.74
   2 -10  -8   16.22    0.82
   2 -10  -8   15.89    0.58
   2 -10  -8   16.22    0.82
   1 -10  -8   42.26    1.30
   1 -10  -8   41.57    1.04
   1 -10  -8   42.26    1.30
   0 -10  -8    2.30    0.36
   0 -10  -8    2.32    0.28
   0 -10  -8    2.30    0.36
  -1 -10  -8    1.69    0.26
  -1 -10  -8    1.95    0.32
  -1 -10  -8    1.95    0.32
  -2 -10  -8   20.39    0.82
  -2 -10  -8   20.39    0.82
  -2 -10  -8   20.40    0.79
  -3 -10  -8    3.02    0.39
  -3 -10  -8    3.02    0.39
  -3 -10  -8    3.11    0.38
  -4 -10  -8   12.49    0.64
  -4 -10  -8   12.84    0.69
  -4 -10  -8   12.49    0.64
  -5 -10  -8    6.59    0.55
  -5 -10  -8    6.38    0.27
  -5 -10  -8    5.19    0.48
  -5 -10  -8    6.38    0.27
  -5 -10  -8    5.19    0.48
  -6 -10  -8   33.39    0.78
  -6 -10  -8   33.39    0.78
  -6 -10  -8   34.07    1.25
  -7 -10  -8    1.72    0.37
  -7 -10  -8    1.44    0.21
  -7 -10  -8    1.44    0.21
  -8 -10  -8   -0.01    0.13
  -8 -10  -8   -0.01    0.13
   1 -11  -8   31.77    0.87
   0 -11  -8   43.41    1.11
  -1 -11  -8   14.30    0.64
  -2 -11  -8   66.84    1.59
  -3 -11  -8    0.36    0.20
  -4 -11  -8    0.79    0.25
  -5 -11  -8   24.20    1.02
  -6 -11  -8    1.28    0.15
  -6 -11  -8    1.58    0.37
  -6 -11  -8    1.28    0.15
  -7 -11  -8   59.86    1.19
  -7 -11  -8   59.86    1.19
  -7 -11  -8   58.94    1.83
  -2 -12  -8   40.75    1.19
  -3 -12  -8   11.38    0.65
  -4 -12  -8    0.13    0.20
  -5 -12  -8    0.34    0.24
  -3  -9   9   22.95    0.71
  -3  -9   9   22.95    0.71
  -3  -9   9   24.13    1.19
  -2  -9   9    0.71    0.34
  -2  -9   9    1.14    0.19
  -2  -9   9    1.14    0.19
  -1  -9   9    1.47    0.18
  -1  -9   9    1.47    0.18
  -1  -9   9    1.52    0.39
  -6  -8   9    0.20    0.18
  -6  -8   9    0.20    0.18
  -5  -8   9   24.41    0.81
  -5  -8   9   24.41    0.81
  -4  -8   9   31.68    0.91
  -4  -8   9   31.68    0.91
  -3  -8   9   26.28    0.79
  -3  -8   9   30.87    1.49
  -3  -8   9   26.28    0.79
  -2  -8   9    4.20    0.32
  -2  -8   9    4.20    0.32
  -2  -8   9    4.31    0.57
  -1  -8   9   18.77    0.98
  -1  -8   9   16.78    0.56
  -1  -8   9   16.78    0.56
   0  -8   9    0.13    0.10
   0  -8   9    0.13    0.10
   0  -8   9    0.16    0.24
   1  -8   9    5.33    0.27
   1  -8   9    5.74    0.64
   1  -8   9    5.33    0.27
   2  -8   9    0.25    0.26
   2  -8   9    0.33    0.08
   2  -8   9    0.33    0.08
  -7  -7   9    8.03    0.45
  -7  -7   9    9.22    0.55
  -7  -7   9    9.22    0.55
  -6  -7   9    1.27    0.20
  -6  -7   9    1.24    0.25
  -6  -7   9    1.24    0.25
  -5  -7   9    1.30    0.24
  -5  -7   9    1.30    0.24
  -4  -7   9   46.64    1.14
  -4  -7   9   46.64    1.14
  -3  -7   9   32.30    0.89
  -3  -7   9   32.30    0.89
  -2  -7   9  117.13    2.10
  -2  -7   9  119.43    2.71
  -2  -7   9  117.13    2.10
  -1  -7   9    5.90    0.34
  -1  -7   9    5.90    0.34
  -1  -7   9    5.50    0.61
   0  -7   9  127.07    2.16
   0  -7   9  128.09    2.83
   0  -7   9  127.07    2.16
   1  -7   9    6.16    0.61
   1  -7   9    4.82    0.30
   1  -7   9    4.82    0.30
   2  -7   9   32.61    1.28
   2  -7   9   32.43    0.74
   2  -7   9   32.43    0.74
   3  -7   9    9.76    0.33
   3  -7   9   10.46    0.75
   3  -7   9    9.76    0.33
  -8  -6   9    0.48    0.22
  -7  -6   9   26.06    0.87
  -6  -6   9   15.81    0.75
  -6  -6   9   15.81    0.75
  -6  -6   9   16.27    0.63
  -5  -6   9   83.01    1.73
  -5  -6   9   83.01    1.73
  -5  -6   9   85.66    1.65
  -4  -6   9    0.98    0.16
  -4  -6   9    1.19    0.22
  -4  -6   9    1.19    0.22
  -3  -6   9    6.57    0.39
  -3  -6   9    6.57    0.39
  -2  -6   9    2.07    0.25
  -2  -6   9    1.78    0.36
  -2  -6   9    2.07    0.25
  -1  -6   9    2.51    0.40
  -1  -6   9    2.62    0.25
  -1  -6   9    2.62    0.25
   0  -6   9   45.32    1.01
   0  -6   9   45.32    1.01
   0  -6   9   43.29    1.42
   1  -6   9   34.72    1.25
   1  -6   9   32.52    0.81
   1  -6   9   32.52    0.81
   2  -6   9   54.00    1.65
   2  -6   9   54.75    1.12
   2  -6   9   54.75    1.12
   3  -6   9  149.08    2.40
   3  -6   9  151.42    3.18
   3  -6   9  149.08    2.40
   4  -6   9    6.81    0.30
   4  -6   9    6.81    0.30
   4  -6   9    7.35    0.67
   5  -6   9    8.33    0.72
   5  -6   9    8.71    0.30
   5  -6   9    8.71    0.30
  -8  -5   9    1.60    0.30
  -7  -5   9    1.40    0.27
  -6  -5   9   10.00    0.52
  -5  -5   9    1.85    0.26
  -5  -5   9    2.22    0.33
  -5  -5   9    2.22    0.33
  -4  -5   9   10.89    0.50
  -4  -5   9   10.89    0.50
  -4  -5   9   10.72    0.48
  -3  -5   9    0.46    0.15
  -3  -5   9    0.22    0.11
  -3  -5   9    0.46    0.15
  -2  -5   9   18.28    0.61
  -2  -5   9   18.77    0.52
  -2  -5   9   18.28    0.61
  -1  -5   9    1.76    0.23
  -1  -5   9    1.76    0.23
  -1  -5   9    2.13    0.37
   0  -5   9    2.06    0.22
   0  -5   9    1.91    0.34
   0  -5   9    2.06    0.22
   1  -5   9    4.28    0.29
   1  -5   9    4.01    0.48
   1  -5   9    4.28    0.29
   2  -5   9    0.60    0.27
   2  -5   9    0.45    0.13
   2  -5   9    0.45    0.13
   3  -5   9   35.13    1.26
   3  -5   9   32.90    0.81
   3  -5   9   32.90    0.81
   4  -5   9    1.28    0.19
   4  -5   9    0.66    0.29
   4  -5   9    1.28    0.19
   5  -5   9  117.87    1.98
   5  -5   9  119.99    2.79
   5  -5   9  117.87    1.98
   6  -5   9   16.80    0.49
   6  -5   9   16.80    0.49
   6  -5   9   17.34    0.98
   9   4  -9   11.18    0.62
   9   4  -9   11.18    0.62
   9   4  -9   12.98    0.75
  -9  -4   9   12.19    0.70
  -8  -4   9   20.83    0.86
  -7  -4   9    1.64    0.29
  -6  -4   9   33.07    1.00
  -5  -4   9    4.65    0.37
  -4  -4   9    0.76    0.18
  -4  -4   9    0.90    0.29
  -4  -4   9    0.90    0.29
  -3  -4   9   12.93    0.52
  -3  -4   9   12.93    0.52
  -3  -4   9   13.84    0.53
  -2  -4   9   38.62    0.93
  -2  -4   9   38.34    1.39
  -2  -4   9   37.67    0.91
  -2  -4   9   38.62    0.93
  -1  -4   9   12.93    0.76
  -1  -4   9   11.09    0.89
  -1  -4   9   12.02    0.43
  -1  -4   9   12.16    0.48
  -1  -4   9   12.16    0.48
   0  -4   9  172.31    3.30
   0  -4   9  171.66    2.61
   0  -4   9  171.78    2.79
   0  -4   9  171.78    2.79
   1  -4   9    1.83    0.21
   1  -4   9    1.83    0.21
   2  -4   9   46.72    1.44
   2  -4   9   46.43    1.03
   2  -4   9   46.43    1.03
   3  -4   9    9.76    0.67
   3  -4   9   10.18    0.42
   3  -4   9   10.18    0.42
   4  -4   9    9.82    0.41
   4  -4   9    9.82    0.41
   4  -4   9    9.22    0.67
   5  -4   9   77.32    1.46
   5  -4   9   77.32    1.46
   5  -4   9   77.05    2.09
   6  -4   9   28.85    1.23
   6  -4   9   28.84    0.74
   6  -4   9   28.84    0.74
   9   3  -9   41.07    1.16
   9   3  -9   41.07    1.16
  -9  -3   9   42.14    1.32
   8   3  -9   25.53    0.97
   8   3  -9   26.62    0.89
   8   3  -9   26.62    0.89
  -8  -3   9   26.71    0.99
   7   3  -9  236.12    3.88
   7   3  -9  236.12    3.88
  -7  -3   9  233.32    4.01
   6   3  -9   10.28    0.52
   6   3  -9   10.28    0.52
  -6  -3   9   10.78    0.57
  -5  -3   9   82.27    1.74
  -4  -3   9    0.36    0.15
  -3  -3   9  135.46    2.40
  -2  -3   9   15.65    0.55
  -2  -3   9   16.22    0.84
  -2  -3   9   15.99    0.57
  -2  -3   9   15.65    0.55
  -1  -3   9   40.72    0.95
  -1  -3   9   40.57    0.95
  -1  -3   9   40.12    1.31
  -1  -3   9   40.57    0.95
   0  -3   9   88.22    1.59
   0  -3   9   87.58    1.63
   0  -3   9   87.58    1.63
   0  -3   9   88.29    2.04
  -1   3  -9   94.53    2.42
   1  -3   9  100.56    1.79
   1  -3   9  100.70    2.24
   1  -3   9  100.09    1.68
   1  -3   9  100.56    1.79
   2  -3   9   32.47    1.14
   2  -3   9   31.64    0.80
   2  -3   9   31.34    0.62
   2  -3   9   31.64    0.80
   3  -3   9   55.33    1.16
   3  -3   9   55.33    1.16
   3  -3   9   56.37    1.59
   4  -3   9    0.65    0.26
   4  -3   9    0.52    0.14
   4  -3   9    0.52    0.14
   5  -3   9   30.66    0.80
   5  -3   9   30.66    0.80
   5  -3   9   30.70    1.22
   6  -3   9    4.56    0.31
   6  -3   9    4.56    0.31
   6  -3   9    3.59    0.51
   7  -3   9    2.36    0.44
   7  -3   9    2.54    0.25
   7  -3   9    2.54    0.25
   9   2  -9    9.29    0.53
   9   2  -9    9.29    0.53
   8   2  -9   60.67    1.41
   8   2  -9   60.67    1.41
   7   2  -9   18.79    0.70
   7   2  -9   19.71    0.76
   7   2  -9   18.79    0.70
  -7  -2   9   18.26    0.78
   6   2  -9   45.64    1.13
   6   2  -9   46.12    1.32
   6   2  -9   45.64    1.13
  -6  -2   9   46.48    1.23
   5   2  -9   18.27    0.65
   5   2  -9   18.27    0.65
   5   2  -9   19.19    0.83
  -5  -2   9   19.24    0.72
   4   2  -9   23.56    0.72
   4   2  -9   23.56    0.72
  -4  -2   9   20.69    0.72
   3   2  -9  124.22    2.21
   3   2  -9  124.22    2.21
  -3  -2   9  124.10    2.25
   2   2  -9  103.24    1.91
  -2  -2   9  102.13    1.91
   1   2  -9  220.67    3.98
   1   2  -9  229.18    4.23
  -1  -2   9  217.31    3.44
  -1  -2   9  217.31    3.44
  -1  -2   9  217.57    3.49
   0   2  -9   41.17    1.30
   0  -2   9   42.22    0.95
   0  -2   9   42.22    0.95
   0  -2   9   41.50    0.96
  -1   2  -9   82.17    2.01
   1  -2   9   82.99    1.54
   1  -2   9   82.27    1.54
   1  -2   9   85.65    2.01
   1  -2   9   82.27    1.54
  -2   2  -9   61.11    1.72
   2  -2   9   62.28    1.26
   2  -2   9   62.58    1.65
   2  -2   9   62.34    1.20
   2  -2   9   62.28    1.26
  -3   2  -9    1.60    0.26
  -3   2  -9    1.60    0.26
   3  -2   9    1.10    0.17
   3  -2   9    1.10    0.17
   3  -2   9    1.42    0.31
   3  -2   9    1.65    0.16
  -4   2  -9    0.51    0.17
  -4   2  -9    0.51    0.17
   4  -2   9    0.13    0.11
   4  -2   9   -0.03    0.16
   4  -2   9    0.13    0.11
  -5   2  -9  117.74    2.20
  -5   2  -9  117.74    2.20
   5  -2   9  118.57    2.09
   5  -2   9  121.42    2.71
   5  -2   9  118.57    2.09
  -6   2  -9   12.95    0.60
  -6   2  -9   12.95    0.60
   6  -2   9   11.62    0.48
   6  -2   9   11.96    0.78
   6  -2   9   11.62    0.48
  -7   2  -9   79.19    1.77
  -7   2  -9   79.19    1.77
   7  -2   9   80.62    2.20
   7  -2   9   78.68    1.56
   7  -2   9   78.68    1.56
  -8   2  -9    1.50    0.32
  -8   2  -9    1.50    0.32
   8  -2   9    1.59    0.41
   8  -2   9    1.33    0.21
   8  -2   9    1.33    0.21
   9   1  -9    0.15    0.17
   9   1  -9    0.15    0.17
   8   1  -9   67.84    1.48
   8   1  -9   67.84    1.48
   7   1  -9    6.78    0.41
   7   1  -9    6.78    0.41
   6   1  -9    7.30    0.41
   6   1  -9    8.14    0.42
   6   1  -9    7.30    0.41
   5   1  -9    0.08    0.12
   5   1  -9    0.08    0.12
   5   1  -9    0.35    0.17
   4   1  -9    1.10    0.19
   4   1  -9    0.90    0.23
   4   1  -9    1.10    0.19
  -4  -1   9    0.85    0.19
   3   1  -9   49.90    1.12
   3   1  -9   48.17    1.19
   3   1  -9   48.17    1.19
   3   1  -9   49.90    1.12
   3   1  -9   50.27    1.36
  -3  -1   9   52.25    1.19
   2   1  -9  227.30    3.64
   2   1  -9  227.30    3.64
   2   1  -9  232.11    3.62
   2   1  -9  232.11    3.62
   2   1  -9  238.47    4.05
  -2  -1   9  230.66    3.69
   1   1  -9    0.20    0.13
   1   1  -9    0.42    0.16
   1   1  -9    0.20    0.13
   1   1  -9    0.42    0.16
   1   1  -9    0.35    0.13
   1   1  -9    0.45    0.22
  -1  -1   9    0.39    0.13
   0   1  -9  499.10    7.23
   0   1  -9  500.23    7.30
   0   1  -9  499.85    7.78
   0   1  -9  499.10    7.23
   0  -1   9  504.68    7.23
   0  -1   9  504.68    7.23
   0  -1   9  497.27    7.29
  -1   1  -9   46.87    1.39
  -1   1  -9   46.30    1.03
  -1   1  -9   47.05    1.09
  -1   1  -9   46.30    1.03
   1  -1   9   47.74    1.03
   1  -1   9   45.70    1.04
   1  -1   9   47.74    1.03
  -2   1  -9   52.28    1.13
  -2   1  -9   52.31    1.50
  -2   1  -9   52.28    1.13
   2  -1   9   52.07    1.11
   2  -1   9   54.29    1.13
   2  -1   9   52.07    1.11
  -3   1  -9   19.56    0.62
  -3   1  -9   19.56    0.62
  -3   1  -9   19.16    0.90
   3  -1   9   18.56    0.57
   3  -1   9   19.68    0.60
   3  -1   9   19.68    0.60
   3  -1   9   18.13    1.14
  -4   1  -9  103.32    1.95
  -4   1  -9  104.74    2.41
  -4   1  -9  103.32    1.95
   4  -1   9  106.99    1.81
   4  -1   9  106.52    1.90
   4  -1   9  106.52    1.90
   4  -1   9  103.86    2.40
  -5   1  -9   -0.01    0.12
  -5   1  -9   -0.01    0.12
   5  -1   9    1.79    0.36
   5  -1   9    0.05    0.10
   5  -1   9    0.29    0.09
   5  -1   9    0.05    0.10
  -6   1  -9   47.21    1.21
  -6   1  -9   47.21    1.21
   6  -1   9   46.80    1.09
   6  -1   9   46.80    1.09
  -7   1  -9   29.42    0.97
  -7   1  -9   29.42    0.97
   7  -1   9   29.93    0.84
   7  -1   9   29.93    0.84
  -8   1  -9   65.50    1.62
  -8   1  -9   65.50    1.62
   8  -1   9   66.41    1.42
   8  -1   9   66.41    1.42
   9   0  -9    2.28    0.39
   9   0  -9    1.85    0.45
   9   0  -9    2.28    0.39
   9   0  -9    2.11    0.28
   9   0  -9    2.11    0.28
   9   0  -9    1.80    0.53
  -9   0   9    2.25    0.38
  -9   0   9    2.25    0.38
   8   0  -9   14.49    0.88
   8   0  -9   13.31    0.57
   8   0  -9   14.22    0.73
   8   0  -9   13.31    0.57
   8   0  -9   14.22    0.73
   8   0  -9   14.50    0.73
  -8   0   9   14.37    0.72
  -8   0   9   14.37    0.72
   7   0  -9    2.62    0.28
   7   0  -9    3.50    0.42
   7   0  -9    3.40    0.50
   7   0  -9    2.31    0.33
   7   0  -9    2.31    0.33
   7   0  -9    2.62    0.28
  -7   0   9    2.57    0.34
  -7   0   9    2.57    0.34
   6   0  -9   52.10    1.17
   6   0  -9   52.10    1.17
   6   0  -9   50.81    1.31
   6   0  -9   50.81    1.31
   6   0  -9   51.38    1.31
   6   0  -9   51.41    1.51
  -6   0   9   52.68    1.31
  -6   0   9   52.68    1.31
   5   0  -9   33.70    0.98
   5   0  -9   36.23    0.90
   5   0  -9   36.23    0.90
   5   0  -9   33.67    0.98
   5   0  -9   33.70    0.98
   5   0  -9   33.67    1.15
   4   0  -9   19.38    0.64
   4   0  -9   17.98    0.66
   4   0  -9   20.00    0.83
   4   0  -9   21.64    0.64
   4   0  -9   19.99    0.70
   4   0  -9   21.64    0.64
   4   0  -9   17.98    0.66
   4   0  -9   17.80    0.88
  -4   0   9   18.72    0.89
   3   0  -9   50.35    1.16
   3   0  -9   48.96    1.34
   3   0  -9   49.08    1.09
   3   0  -9   49.08    1.09
   3   0  -9   50.35    1.16
   3   0  -9   51.42    1.24
   3   0  -9   48.97    1.17
  -3   0   9   49.18    1.16
  -3   0   9   50.26    1.44
   2   0  -9   32.59    1.04
   2   0  -9   34.79    0.85
   2   0  -9   31.75    0.85
   2   0  -9   32.53    0.99
   2   0  -9   32.57    0.89
   2   0  -9   34.79    0.85
   2   0  -9   31.75    0.85
  -2   0   9   33.89    0.88
  -2   0   9   32.29    1.07
   1   0  -9   21.40    0.65
   1   0  -9   20.07    0.78
   1   0  -9   21.11    0.64
   1   0  -9   21.40    0.65
   1   0  -9   21.41    0.81
   1   0  -9   21.11    0.64
  -1   0   9   20.76    1.21
  -1   0   9   21.79    0.82
   0   0  -9  165.39    2.70
   0   0  -9  159.82    2.70
   0   0  -9  164.48    2.65
   0   0  -9  159.11    3.01
   0   0  -9  159.82    2.70
   0   0  -9  165.39    2.70
   0   0   9  165.46    2.99
   0   0   9  162.93    2.73
   0   0   9  175.44    5.24
  -1   0  -9   35.66    0.88
  -1   0  -9   34.81    0.88
  -1   0  -9   34.81    0.88
  -1   0  -9   34.47    1.11
  -1   0  -9   36.16    0.88
  -1   0  -9   36.16    0.88
   1   0   9   35.13    0.84
   1   0   9   39.49    1.11
   1   0   9   35.13    0.84
   1   0   9   34.52    0.88
  -2   0  -9  520.96    7.57
  -2   0  -9  520.96    7.57
  -2   0  -9  527.75    8.05
  -2   0  -9  525.12    7.61
   2   0   9  538.48    7.97
   2   0   9  515.91    7.58
   2   0   9  515.14    7.51
   2   0   9  515.14    7.51
  -3   0  -9   23.58    0.71
  -3   0  -9   23.58    0.71
  -3   0  -9   25.44    0.96
   3   0   9   24.34    0.92
   3   0   9   25.09    0.69
   3   0   9   25.09    0.69
   3   0   9   23.56    0.69
  -4   0  -9   57.13    1.28
  -4   0  -9   61.79    1.62
  -4   0  -9   57.13    1.28
   4   0   9   60.19    1.24
   4   0   9   59.71    1.24
   4   0   9   59.71    1.24
   4   0   9   60.30    1.63
  -5   0  -9   27.19    0.84
  -5   0  -9   27.19    0.84
  -5   0  -9   27.83    1.06
   5   0   9   28.54    0.74
   5   0   9   27.38    0.77
   5   0   9   27.38    0.77
  -6   0  -9    6.14    0.43
  -6   0  -9    6.14    0.43
  -6   0  -9    6.76    0.55
   6   0   9    6.71    0.32
   6   0   9    5.88    0.36
   6   0   9    5.88    0.36
  -7   0  -9    2.09    0.33
  -7   0  -9    2.09    0.33
   7   0   9    3.07    0.31
   7   0   9    3.07    0.31
  -8   0  -9    1.60    0.32
  -8   0  -9    1.60    0.32
   8   0   9    1.59    0.24
   8   0   9    1.59    0.24
  -9   0  -9   10.70    0.66
  -9   0  -9   10.70    0.66
   9   0   9   12.31    0.56
   9   0   9   12.31    0.56
   9  -1  -9   15.40    0.57
   9  -1  -9   15.56    0.94
   9  -1  -9   15.40    0.57
   9  -1  -9   17.04    0.87
   9  -1  -9   15.56    0.79
   9  -1  -9   17.04    0.87
  -9   1   9   16.65    0.83
  -9   1   9   16.02    0.94
  -9   1   9   16.65    0.83
   8  -1  -9   40.48    1.28
   8  -1  -9   41.64    1.46
   8  -1  -9   41.72    1.24
   8  -1  -9   41.02    1.00
   8  -1  -9   40.48    1.28
   8  -1  -9   41.02    1.00
  -8   1   9   42.27    1.29
  -8   1   9   42.27    1.29
   7  -1  -9   56.70    1.45
   7  -1  -9   56.71    1.68
   7  -1  -9   59.19    1.25
   7  -1  -9   61.01    1.55
   7  -1  -9   59.19    1.25
   7  -1  -9   61.01    1.55
  -7   1   9   57.91    1.50
  -7   1   9   57.91    1.50
   6  -1  -9    0.03    0.11
   6  -1  -9   -0.06    0.17
   6  -1  -9    0.03    0.11
   6  -1  -9   -0.06    0.17
   6  -1  -9    0.15    0.19
   6  -1  -9    0.15    0.16
  -6   1   9   -0.12    0.15
  -6   1   9   -0.12    0.15
   5  -1  -9    1.52    0.27
   5  -1  -9    2.06    0.35
   5  -1  -9    2.11    0.30
   5  -1  -9    1.52    0.27
   5  -1  -9    2.04    0.23
   5  -1  -9    2.04    0.23
   4  -1  -9    1.58    0.20
   4  -1  -9    1.10    0.21
   4  -1  -9    1.15    0.30
   4  -1  -9    1.58    0.20
   4  -1  -9    1.06    0.25
   4  -1  -9    1.49    0.25
   4  -1  -9    1.49    0.25
  -4   1   9    0.98    0.28
   3  -1  -9    1.40    0.23
   3  -1  -9    1.45    0.22
   3  -1  -9    1.76    0.20
   3  -1  -9    1.76    0.20
   3  -1  -9    1.41    0.26
   3  -1  -9    1.80    0.15
   3  -1  -9    1.40    0.23
  -3   1   9    1.41    0.30
   2  -1  -9  126.98    2.13
   2  -1  -9  121.33    2.22
   2  -1  -9  126.49    2.15
   2  -1  -9  125.16    2.22
   2  -1  -9  121.33    2.22
   2  -1  -9  126.98    2.13
   2  -1  -9  125.16    2.44
  -2   1   9  124.74    2.61
   1  -1  -9  105.82    1.89
   1  -1  -9  108.29    1.97
   1  -1  -9  105.82    1.89
   1  -1  -9  108.75    1.98
   1  -1  -9  108.22    2.01
   1  -1  -9  108.75    1.98
   1  -1  -9  108.33    2.18
  -1   1   9  105.02    2.90
  -1   1   9  109.98    1.96
  -1   1   9  108.02    2.28
   0  -1  -9    0.76    0.17
   0  -1  -9    0.04    0.09
   0  -1  -9    0.04    0.09
   0  -1  -9    0.24    0.13
   0  -1  -9    0.76    0.17
   0  -1  -9    0.28    0.14
   0   1   9    0.65    0.32
   0   1   9    0.28    0.16
   0   1   9    0.94    0.16
  -1  -1  -9    2.69    0.27
  -1  -1  -9    2.50    0.30
  -1  -1  -9    2.23    0.24
  -1  -1  -9    2.23    0.24
  -1  -1  -9    2.68    0.21
  -1  -1  -9    2.83    0.40
  -1  -1  -9    2.69    0.27
   1   1   9    2.50    0.33
   1   1   9    3.37    0.60
  -2  -1  -9  113.78    2.24
  -2  -1  -9  110.85    2.00
  -2  -1  -9  110.85    2.00
  -2  -1  -9  109.97    1.98
  -2  -1  -9  111.47    1.95
  -2  -1  -9  109.97    1.98
   2   1   9  110.44    2.00
   2   1   9  114.33    2.32
  -3  -1  -9    0.03    0.12
  -3  -1  -9    0.12    0.13
  -3  -1  -9    0.07    0.10
  -3  -1  -9    0.12    0.13
   3   1   9    0.00    0.14
   3   1   9    0.47    0.13
   3   1   9    0.49    0.13
   3   1   9    0.47    0.13
  -4  -1  -9   32.85    0.89
  -4  -1  -9   31.73    1.04
  -4  -1  -9   32.85    0.89
   4   1   9   32.66    0.84
   4   1   9   33.52    1.15
   4   1   9   32.66    0.84
   4   1   9   32.71    0.87
  -5  -1  -9  261.45    4.46
  -5  -1  -9  263.79    4.20
  -5  -1  -9  263.79    4.20
   5   1   9  259.27    4.11
   5   1   9  265.59    4.10
   5   1   9  265.59    4.10
  -6  -1  -9    4.69    0.42
  -6  -1  -9    3.71    0.43
  -6  -1  -9    4.69    0.42
   6   1   9    3.95    0.33
   6   1   9    3.92    0.29
   6   1   9    3.95    0.33
  -7  -1  -9   77.79    1.74
  -7  -1  -9   80.41    1.91
  -7  -1  -9   77.79    1.74
   7   1   9   78.49    1.61
   7   1   9   79.54    1.52
   7   1   9   78.49    1.61
  -8  -1  -9   16.52    0.75
  -8  -1  -9   17.06    0.82
  -8  -1  -9   16.52    0.75
   8   1   9   17.30    0.60
   8   1   9   17.26    0.66
   8   1   9   17.26    0.66
  -9  -1  -9    3.78    0.45
  -9  -1  -9    3.78    0.45
   9   1   9    3.62    0.36
   9   1   9    3.62    0.36
   8  -2  -9   92.79    1.68
   8  -2  -9   95.73    2.20
   8  -2  -9   96.59    2.08
   8  -2  -9   92.79    1.68
   8  -2  -9   96.36    2.36
   8  -2  -9   95.73    2.20
  -8   2   9   94.28    2.18
  -8   2   9   94.28    2.18
   7  -2  -9    6.60    0.59
   7  -2  -9    6.11    0.34
   7  -2  -9    6.57    0.58
   7  -2  -9    6.11    0.34
   7  -2  -9    6.57    0.48
   7  -2  -9    6.60    0.59
  -7   2   9    6.92    0.54
  -7   2   9    6.92    0.54
   6  -2  -9   24.11    0.67
   6  -2  -9   24.06    0.83
   6  -2  -9   24.54    0.91
   6  -2  -9   24.54    0.91
   6  -2  -9   24.11    0.67
   6  -2  -9   24.06    0.98
  -6   2   9   25.79    0.93
  -6   2   9   25.79    0.93
   5  -2  -9    0.81    0.23
   5  -2  -9    0.81    0.23
   5  -2  -9    0.54    0.14
   5  -2  -9    0.47    0.21
   5  -2  -9    0.54    0.14
   5  -2  -9    0.48    0.18
   4  -2  -9   38.69    0.89
   4  -2  -9   40.01    1.19
   4  -2  -9   40.00    1.02
   4  -2  -9   38.69    0.89
   4  -2  -9   40.76    1.11
   4  -2  -9   40.76    1.11
   3  -2  -9    2.86    0.26
   3  -2  -9    2.29    0.31
   3  -2  -9    2.86    0.26
   3  -2  -9    2.16    0.27
   3  -2  -9    2.36    0.26
   3  -2  -9    2.16    0.27
  -3   2   9    2.18    0.39
   2  -2  -9    7.16    0.42
   2  -2  -9    9.15    0.38
   2  -2  -9    8.57    0.50
   2  -2  -9    8.57    0.42
   2  -2  -9    9.15    0.38
   2  -2  -9    7.16    0.42
  -2   2   9    8.72    0.61
   1  -2  -9    1.83    0.19
   1  -2  -9    1.46    0.22
   1  -2  -9    1.83    0.19
   1  -2  -9    1.70    0.13
   1  -2  -9    2.12    0.25
   1  -2  -9    2.06    0.29
   1  -2  -9    1.46    0.22
  -1   2   9    1.59    0.29
  -1   2   9    1.44    0.38
   0  -2  -9   22.51    0.81
   0  -2  -9   22.50    0.68
   0  -2  -9   21.49    0.60
   0  -2  -9   22.17    0.62
   0  -2  -9   22.48    0.70
   0  -2  -9   21.73    0.79
   0  -2  -9   22.17    0.62
   0  -2  -9   22.48    0.70
   0   2   9   22.83    1.24
   0   2   9   21.10    0.66
   0   2   9   21.83    0.88
  -1  -2  -9    0.19    0.13
  -1  -2  -9    0.09    0.09
  -1  -2  -9    0.42    0.12
  -1  -2  -9    0.42    0.12
  -1  -2  -9    0.19    0.13
  -1  -2  -9    0.18    0.14
   1   2   9    0.08    0.09
   1   2   9   -0.01    0.20
   1   2   9   -0.08    0.12
  -2  -2  -9   27.87    0.95
  -2  -2  -9   29.06    0.77
  -2  -2  -9   29.04    0.81
  -2  -2  -9   28.37    0.82
  -2  -2  -9   29.04    0.81
  -2  -2  -9   29.06    0.77
   2   2   9   27.78    1.44
   2   2   9   29.28    1.02
   2   2   9   28.31    0.78
  -3  -2  -9    1.26    0.19
  -3  -2  -9    1.26    0.19
  -3  -2  -9    1.74    0.25
  -3  -2  -9    1.70    0.20
  -3  -2  -9    1.46    0.22
  -3  -2  -9    1.46    0.22
   3   2   9    1.46    0.20
   3   2   9    1.49    0.29
  -4  -2  -9    0.11    0.12
  -4  -2  -9    0.19    0.17
  -4  -2  -9    0.19    0.17
  -4  -2  -9   -0.01    0.10
  -4  -2  -9   -0.01    0.12
  -4  -2  -9    0.11    0.12
   4   2   9   -0.02    0.09
   4   2   9    0.07    0.16
  -5  -2  -9   14.10    0.63
  -5  -2  -9   15.78    0.62
  -5  -2  -9   15.78    0.62
   5   2   9   14.17    0.57
  -6  -2  -9   12.00    0.60
  -6  -2  -9   12.48    0.58
  -6  -2  -9   12.48    0.58
   6   2   9   11.44    0.50
   6   2   9   11.44    0.50
   6   2   9   11.24    0.50
  -7  -2  -9   31.16    1.05
  -7  -2  -9   32.93    1.01
  -7  -2  -9   32.93    1.01
   7   2   9   32.67    0.91
   7   2   9   32.67    0.91
   7   2   9   34.03    0.92
  -8  -2  -9   41.88    1.21
  -8  -2  -9   41.88    1.21
  -8  -2  -9   41.15    1.26
   8   2   9   40.94    1.08
   8   2   9   41.12    1.02
   8   2   9   40.94    1.08
  -9  -2  -9   34.01    1.16
  -9  -2  -9   32.15    1.12
  -9  -2  -9   32.15    1.12
   9   2   9   36.25    1.02
   9   2   9   34.06    0.84
   9   2   9   36.25    1.02
   8  -3  -9    7.83    0.67
   8  -3  -9    8.42    0.71
   8  -3  -9    7.84    0.55
   8  -3  -9    8.42    0.71
  -8   3   9    6.85    0.63
  -8   3   9    6.85    0.63
   7  -3  -9   35.96    1.26
   7  -3  -9   36.53    1.22
   7  -3  -9   34.13    0.72
   7  -3  -9   34.13    0.72
   7  -3  -9   36.53    1.22
   7  -3  -9   35.95    1.08
  -7   3   9   36.71    1.22
  -7   3   9   36.71    1.22
   6  -3  -9    6.59    0.54
   6  -3  -9    6.59    0.45
   6  -3  -9    6.71    0.29
   6  -3  -9    5.26    0.50
   6  -3  -9    5.26    0.50
   6  -3  -9    6.71    0.29
  -6   3   9    5.11    0.49
  -6   3   9    5.11    0.49
   5  -3  -9   87.95    1.98
   5  -3  -9   88.87    1.51
   5  -3  -9   83.91    1.91
   5  -3  -9   87.91    1.76
   5  -3  -9   88.87    1.51
   5  -3  -9   83.91    1.91
   4  -3  -9   27.17    0.65
   4  -3  -9   27.17    0.65
   4  -3  -9   24.69    0.90
   4  -3  -9   24.69    0.77
   4  -3  -9   26.17    0.89
   4  -3  -9   26.17    0.89
   3  -3  -9   59.57    1.42
   3  -3  -9   60.28    1.29
   3  -3  -9   60.76    1.15
   3  -3  -9   60.30    1.47
   3  -3  -9   59.57    1.42
   3  -3  -9   60.76    1.15
   2  -3  -9   17.59    0.67
   2  -3  -9   17.57    0.51
   2  -3  -9   16.75    0.58
   2  -3  -9   16.75    0.69
   2  -3  -9   17.57    0.51
   2  -3  -9   17.59    0.67
  -2   3   9   17.15    0.88
   1  -3  -9   12.96    0.55
   1  -3  -9   13.43    0.61
   1  -3  -9   12.96    0.55
   1  -3  -9   13.43    0.51
   1  -3  -9   12.02    0.43
   1  -3  -9   12.02    0.43
  -1   3   9   12.38    0.70
  -1   3   9   13.67    0.96
   0  -3  -9   17.19    0.62
   0  -3  -9   16.73    0.51
   0  -3  -9   17.19    0.62
   0  -3  -9   17.26    0.69
   0  -3  -9   16.73    0.51
   0   3   9   15.24    0.76
   0   3   9   16.15    1.05
  -1  -3  -9    3.66    0.29
  -1  -3  -9    3.66    0.35
  -1  -3  -9    3.66    0.29
  -1  -3  -9    3.25    0.26
  -1  -3  -9    3.25    0.26
  -1  -3  -9    2.96    0.18
   1   3   9    2.76    0.51
   1   3   9    2.97    0.40
  -2  -3  -9   83.34    1.55
  -2  -3  -9   84.77    1.67
  -2  -3  -9   84.77    1.67
  -2  -3  -9   83.81    1.51
  -2  -3  -9   83.34    1.55
  -2  -3  -9   82.09    1.84
   2   3   9   85.73    1.64
   2   3   9   83.95    1.98
   2   3   9   85.86    2.64
  -3  -3  -9   31.45    0.80
  -3  -3  -9   29.73    1.01
  -3  -3  -9   31.08    0.79
  -3  -3  -9   31.95    0.88
  -3  -3  -9   31.95    0.88
  -3  -3  -9   31.08    0.79
   3   3   9   32.09    1.60
   3   3   9   30.92    0.85
   3   3   9   30.02    1.08
  -4  -3  -9   84.78    1.74
  -4  -3  -9   86.94    1.69
  -4  -3  -9   86.43    1.65
  -4  -3  -9   84.78    1.74
  -4  -3  -9   86.43    1.65
   4   3   9   87.16    1.72
   4   3   9   94.80    2.98
  -5  -3  -9  136.25    2.46
  -5  -3  -9  135.46    2.36
  -5  -3  -9  132.27    2.43
  -5  -3  -9  135.46    2.36
  -5  -3  -9  136.25    2.46
   5   3   9  136.24    2.44
  -6  -3  -9   47.31    1.21
  -6  -3  -9   47.51    1.21
  -6  -3  -9   47.51    1.21
   6   3   9   48.74    1.19
  -7  -3  -9   -0.05    0.13
  -7  -3  -9    0.20    0.17
  -7  -3  -9    0.20    0.17
   7   3   9   -0.11    0.11
  -8  -3  -9    3.57    0.39
  -8  -3  -9    3.41    0.39
  -8  -3  -9    3.41    0.39
   8   3   9    3.46    0.33
  -9  -3  -9   27.11    1.01
  -9  -3  -9   28.11    1.00
  -9  -3  -9   27.11    1.01
   9   3   9   28.52    1.25
   9   3   9   28.73    0.86
   9   3   9   28.52    1.25
 -10  -3  -9    5.61    0.60
 -10  -3  -9    6.28    0.54
 -10  -3  -9    5.61    0.60
  10   3   9    5.70    0.49
  10   3   9    5.68    0.36
  10   3   9    5.70    0.49
   7  -4  -9   14.94    0.80
   7  -4  -9   13.93    0.78
   7  -4  -9   13.93    0.78
   7  -4  -9   14.93    0.67
  -7   4   9   15.43    0.82
  -7   4   9   15.43    0.82
   6  -4  -9    3.17    0.35
   6  -4  -9    3.08    0.41
   6  -4  -9    3.25    0.43
   6  -4  -9    3.25    0.43
  -6   4   9    3.22    0.44
  -6   4   9    3.22    0.44
   5  -4  -9   22.91    0.46
   5  -4  -9   25.44    0.94
   5  -4  -9   23.18    0.75
   5  -4  -9   25.44    0.94
   5  -4  -9   23.21    0.89
   5  -4  -9   22.91    0.46
   4  -4  -9   -0.10    0.14
   4  -4  -9    0.03    0.11
   4  -4  -9    0.07    0.07
   4  -4  -9    0.07    0.07
   4  -4  -9   -0.10    0.14
   4  -4  -9    0.03    0.13
   3  -4  -9  163.14    2.47
   3  -4  -9  159.05    2.93
   3  -4  -9  165.93    2.95
   3  -4  -9  159.05    2.93
   3  -4  -9  163.14    2.47
   3  -4  -9  165.80    2.73
   2  -4  -9    0.20    0.14
   2  -4  -9    0.20    0.14
   2  -4  -9    0.20    0.08
   2  -4  -9    0.20    0.08
   1  -4  -9  134.35    2.12
   1  -4  -9  132.44    2.28
   1  -4  -9  132.48    2.48
   1  -4  -9  134.35    2.12
   1  -4  -9  133.71    2.44
   1  -4  -9  133.71    2.44
  -1   4   9  133.12    2.95
  -1   4   9  129.01    3.27
   0  -4  -9    3.25    0.22
   0  -4  -9    3.25    0.22
   0  -4  -9    2.94    0.32
   0  -4  -9    2.47    0.30
   0  -4  -9    2.94    0.32
   0   4   9    2.62    0.40
   0   4   9    2.40    0.48
  -1  -4  -9   54.84    1.10
  -1  -4  -9   56.80    1.30
  -1  -4  -9   56.80    1.30
  -1  -4  -9   58.13    1.40
  -1  -4  -9   54.84    1.10
   1   4   9   58.18    1.60
   1   4   9   56.57    2.04
  -2  -4  -9   69.37    1.49
  -2  -4  -9   69.37    1.49
  -2  -4  -9   71.30    1.11
  -2  -4  -9   69.71    1.63
  -2  -4  -9   68.40    1.31
  -2  -4  -9   68.40    1.31
   2   4   9   72.47    2.40
   2   4   9   70.83    1.82
  -3  -4  -9    7.56    0.36
  -3  -4  -9    7.56    0.36
  -3  -4  -9    8.97    0.54
  -3  -4  -9    8.34    0.32
  -3  -4  -9    8.88    0.46
  -3  -4  -9    8.88    0.46
   3   4   9    8.23    0.83
   3   4   9    8.36    0.57
   3   4   9    8.26    0.58
  -4  -4  -9   15.40    0.51
  -4  -4  -9   15.84    0.54
  -4  -4  -9   16.54    0.64
  -4  -4  -9   16.01    0.75
  -4  -4  -9   15.84    0.54
  -4  -4  -9   16.54    0.64
   4   4   9   16.62    1.20
   4   4   9   15.15    0.59
  -5  -4  -9   91.38    1.72
  -5  -4  -9   92.62    1.86
  -5  -4  -9   89.35    1.71
  -5  -4  -9   91.38    1.72
  -5  -4  -9   92.62    1.86
   5   4   9   89.64    1.82
  -6  -4  -9    0.06    0.12
  -6  -4  -9    0.26    0.13
  -6  -4  -9    0.06    0.12
  -6  -4  -9    0.26    0.13
  -6  -4  -9    0.07    0.11
   6   4   9    0.16    0.13
  -7  -4  -9  110.43    2.23
  -7  -4  -9  113.41    2.16
  -7  -4  -9  110.43    2.23
   7   4   9  113.70    2.20
  -8  -4  -9    1.15    0.26
  -8  -4  -9    1.24    0.25
  -8  -4  -9    1.15    0.26
   8   4   9    0.74    0.20
  -9  -4  -9    2.71    0.40
  -9  -4  -9    2.87    0.36
  -9  -4  -9    2.71    0.40
   9   4   9    2.37    0.31
 -10  -4  -9    4.82    0.49
 -10  -4  -9    5.32    0.55
 -10  -4  -9    5.32    0.55
  10   4   9    4.55    0.40
   7  -5  -9    1.20    0.34
   7  -5  -9    0.84    0.23
   7  -5  -9    0.81    0.27
   7  -5  -9    1.20    0.34
  -7   5   9    0.78    0.31
  -7   5   9    0.78    0.31
   6  -5  -9   81.95    1.93
   6  -5  -9   78.12    1.97
   6  -5  -9   81.97    1.70
   6  -5  -9   78.12    1.97
  -6   5   9   82.66    2.02
  -6   5   9   82.66    2.02
   5  -5  -9    0.63    0.26
   5  -5  -9    0.63    0.26
   5  -5  -9    1.02    0.21
   5  -5  -9    1.00    0.25
   4  -5  -9   14.75    0.67
   4  -5  -9   14.31    0.71
   4  -5  -9   14.74    0.56
   4  -5  -9   14.31    0.71
   3  -5  -9   51.46    1.15
   3  -5  -9   51.44    1.31
   3  -5  -9   51.71    1.36
   3  -5  -9   51.71    1.36
   2  -5  -9   18.41    0.59
   2  -5  -9   17.81    0.39
   2  -5  -9   17.81    0.39
   2  -5  -9   17.72    0.72
   2  -5  -9   18.43    0.70
   2  -5  -9   17.72    0.72
  -2   5   9   18.56    1.08
   1  -5  -9   92.86    1.48
   1  -5  -9   92.43    1.88
   1  -5  -9   92.11    1.91
   1  -5  -9   92.86    1.48
   1  -5  -9   92.11    1.91
   1  -5  -9   93.39    1.89
   1  -5  -9   92.39    1.70
  -1   5   9   92.83    2.65
   0  -5  -9   92.24    1.90
   0  -5  -9   92.62    1.89
   0  -5  -9   92.62    1.89
   0  -5  -9   91.68    1.52
   0  -5  -9   91.68    1.52
   0   5   9   93.52    2.71
  -1  -5  -9  218.46    3.65
  -1  -5  -9  222.82    3.74
  -1  -5  -9  218.46    3.65
  -1  -5  -9  222.44    3.31
  -1  -5  -9  222.44    3.31
   1   5   9  218.77    4.76
  -2  -5  -9  451.91    6.44
  -2  -5  -9  440.68    6.75
  -2  -5  -9  454.04    6.92
  -2  -5  -9  440.68    6.75
  -2  -5  -9  451.91    6.44
   2   5   9  454.53    8.20
  -3  -5  -9  109.85    2.11
  -3  -5  -9  110.30    2.29
  -3  -5  -9  110.71    1.88
  -3  -5  -9  109.85    2.11
  -3  -5  -9  110.71    1.88
   3   5   9  108.44    3.21
  -4  -5  -9   62.67    1.25
  -4  -5  -9   58.41    1.40
  -4  -5  -9   62.67    1.25
  -4  -5  -9   58.41    1.40
  -4  -5  -9   64.00    1.62
  -4  -5  -9   62.42    1.10
   4   5   9   63.83    2.42
  -5  -5  -9   70.02    1.31
  -5  -5  -9   67.73    1.37
  -5  -5  -9   67.73    1.37
  -5  -5  -9   68.04    1.53
  -5  -5  -9   68.04    1.53
   5   5   9   67.81    1.51
  -6  -5  -9   22.13    0.70
  -6  -5  -9   20.97    0.79
  -6  -5  -9   22.02    0.67
  -6  -5  -9   20.97    0.79
  -6  -5  -9   22.13    0.70
   6   5   9   21.60    0.77
  -7  -5  -9   33.44    0.93
  -7  -5  -9   33.44    0.93
  -7  -5  -9   32.96    1.03
  -7  -5  -9   32.96    1.03
  -7  -5  -9   32.59    0.91
   7   5   9   32.56    1.00
  -8  -5  -9   12.47    0.58
  -8  -5  -9   12.13    0.65
  -8  -5  -9   12.13    0.65
   8   5   9   12.52    0.62
  -9  -5  -9   57.69    1.54
  -9  -5  -9   57.69    1.54
  -9  -5  -9   57.09    1.44
   9   5   9   58.46    1.48
 -10  -5  -9  124.90    2.67
 -10  -5  -9  124.90    2.67
 -10  -5  -9  128.05    2.55
  10   5   9  125.09    2.49
   6  -6  -9    1.10    0.31
   6  -6  -9    1.01    0.22
   6  -6  -9    0.98    0.26
   6  -6  -9    1.10    0.31
  -6   6   9    1.11    0.32
  -6   6   9    1.11    0.32
   5  -6  -9    8.80    0.62
   5  -6  -9    9.01    0.55
   5  -6  -9    9.00    0.46
   5  -6  -9    8.80    0.62
   4  -6  -9   44.17    1.31
   4  -6  -9   44.57    1.05
   4  -6  -9   44.58    1.21
   4  -6  -9   44.17    1.31
   3  -6  -9   27.50    0.99
   3  -6  -9   30.32    0.80
   3  -6  -9   27.50    0.99
   3  -6  -9   30.28    0.93
   2  -6  -9   14.51    0.52
   2  -6  -9   14.51    0.62
  -2   6   9   14.50    0.97
   1  -6  -9    0.18    0.14
   1  -6  -9    0.21    0.14
   1  -6  -9    0.12    0.16
   1  -6  -9    0.12    0.16
   1  -6  -9    0.18    0.12
  -1   6   9    0.29    0.24
   0  -6  -9   12.19    0.59
   0  -6  -9   11.27    0.55
   0  -6  -9   11.22    0.30
   0  -6  -9   11.22    0.30
   0  -6  -9   12.19    0.59
   0   6   9   12.55    0.93
  -1  -6  -9    5.06    0.23
  -1  -6  -9    5.09    0.39
  -1  -6  -9    5.06    0.23
  -1  -6  -9    5.31    0.41
  -1  -6  -9    5.09    0.39
   1   6   9    5.38    0.67
  -2  -6  -9   84.46    1.78
  -2  -6  -9   85.39    1.46
  -2  -6  -9   85.39    1.46
  -2  -6  -9   84.46    1.78
  -2  -6  -9   80.86    1.83
   2   6   9   86.09    2.74
  -3  -6  -9    7.24    0.32
  -3  -6  -9    7.60    0.46
  -3  -6  -9    7.24    0.32
  -3  -6  -9    7.33    0.50
  -3  -6  -9    7.60    0.46
   3   6   9    7.07    0.81
  -4  -6  -9   47.48    1.00
  -4  -6  -9   43.58    1.17
  -4  -6  -9   47.48    1.00
  -4  -6  -9   46.97    1.35
  -4  -6  -9   43.58    1.17
   4   6   9   47.40    2.09
  -5  -6  -9   65.13    1.31
  -5  -6  -9   63.41    1.70
  -5  -6  -9   65.20    1.51
  -5  -6  -9   65.20    1.51
  -5  -6  -9   65.13    1.31
   5   6   9   63.62    2.58
  -6  -6  -9    7.29    0.32
  -6  -6  -9    7.49    0.39
  -6  -6  -9    7.49    0.39
  -6  -6  -9    6.85    0.47
  -6  -6  -9    6.85    0.47
   6   6   9    7.09    0.46
  -7  -6  -9    0.13    0.14
  -7  -6  -9    0.13    0.14
  -7  -6  -9    0.08    0.11
  -7  -6  -9    1.10    0.27
  -7  -6  -9    1.10    0.27
   7   6   9    0.00    0.15
  -8  -6  -9   -0.11    0.14
  -8  -6  -9   -0.14    0.17
  -8  -6  -9   -0.14    0.17
  -8  -6  -9    0.81    0.19
  -8  -6  -9   -0.11    0.14
   8   6   9   -0.20    0.14
  -9  -6  -9    5.85    0.55
  -9  -6  -9    5.85    0.55
  -9  -6  -9    6.33    0.43
   9   6   9    6.83    0.51
 -10  -6  -9   -0.01    0.24
 -10  -6  -9   -0.01    0.24
   5  -7  -9    0.50    0.17
   5  -7  -9    0.49    0.20
   5  -7  -9    0.69    0.28
   5  -7  -9    0.69    0.28
  -5   7   9    0.64    0.29
  -5   7   9    0.64    0.29
   4  -7  -9    8.40    0.50
   4  -7  -9    9.13    0.62
   4  -7  -9    8.40    0.42
   4  -7  -9    9.13    0.62
   3  -7  -9    0.97    0.26
   3  -7  -9    0.31    0.15
   3  -7  -9    0.32    0.13
   3  -7  -9    0.97    0.26
   2  -7  -9    0.23    0.15
   2  -7  -9    0.10    0.14
   2  -7  -9    0.11    0.19
   2  -7  -9    0.23    0.12
   2  -7  -9    0.11    0.19
  -2   7   9    1.17    0.38
   1  -7  -9  112.26    2.29
   1  -7  -9  111.33    2.15
   1  -7  -9  112.26    2.29
  -1   7   9  110.60    3.00
   0  -7  -9    1.36    0.27
   0  -7  -9    1.35    0.23
   0  -7  -9    1.36    0.27
   0   7   9    1.13    0.39
  -1  -7  -9   35.64    1.07
  -1  -7  -9   36.24    1.06
  -1  -7  -9   35.64    1.07
  -1  -7  -9   36.12    0.63
  -1  -7  -9   36.12    0.63
   1   7   9   35.34    1.64
  -2  -7  -9    2.92    0.34
  -2  -7  -9    2.73    0.17
  -2  -7  -9    2.00    0.29
  -2  -7  -9    2.92    0.34
  -2  -7  -9    2.73    0.17
   2   7   9    2.56    0.56
  -3  -7  -9    1.79    0.28
  -3  -7  -9    1.10    0.24
  -3  -7  -9    1.79    0.28
  -3  -7  -9    1.54    0.16
  -3  -7  -9    1.54    0.16
   3   7   9    2.04    0.53
  -4  -7  -9   43.26    1.17
  -4  -7  -9   41.05    0.90
  -4  -7  -9   43.26    1.17
  -4  -7  -9   41.05    0.90
  -4  -7  -9   40.53    1.27
   4   7   9   40.93    1.99
  -5  -7  -9   17.77    0.73
  -5  -7  -9   17.26    0.56
  -5  -7  -9   17.26    0.56
  -5  -7  -9   17.44    0.84
  -5  -7  -9   17.77    0.73
   5   7   9   18.37    1.39
  -6  -7  -9   56.81    1.43
  -6  -7  -9   53.55    1.19
  -6  -7  -9   56.81    1.43
  -6  -7  -9   55.02    1.61
  -6  -7  -9   53.55    1.19
  -7  -7  -9   95.88    2.07
  -7  -7  -9   95.88    2.07
  -7  -7  -9   95.31    1.85
  -7  -7  -9   95.31    1.85
  -8  -7  -9    2.91    0.25
  -8  -7  -9    3.26    0.34
  -8  -7  -9    3.84    0.45
  -8  -7  -9    3.84    0.45
  -8  -7  -9    3.26    0.34
   8   7   9    3.01    0.39
  -9  -7  -9   43.04    1.18
  -9  -7  -9   44.80    1.34
  -9  -7  -9   42.69    1.07
  -9  -7  -9   43.04    1.18
  -9  -7  -9   44.80    1.34
   9   7   9   42.57    1.31
   5  -8  -9    4.58    0.56
   5  -8  -9    4.01    0.40
   5  -8  -9    4.01    0.33
   5  -8  -9    4.58    0.56
  -5   8   9    4.11    0.54
  -5   8   9    4.11    0.54
   4  -8  -9    0.02    0.22
   4  -8  -9    0.02    0.22
   4  -8  -9    0.09    0.12
   4  -8  -9    0.09    0.14
   3  -8  -9    1.00    0.22
   3  -8  -9    1.03    0.19
   3  -8  -9    0.37    0.24
   3  -8  -9    0.37    0.24
   2  -8  -9    0.35    0.20
   2  -8  -9   -0.04    0.11
   2  -8  -9    0.35    0.20
   1  -8  -9    1.20    0.27
   1  -8  -9    0.83    0.20
   1  -8  -9    1.20    0.27
  -1   8   9    0.98    0.37
   0  -8  -9   28.64    0.99
   0  -8  -9   27.82    0.90
   0  -8  -9   28.64    0.99
   0   8   9   26.77    1.41
  -1  -8  -9    0.86    0.24
  -1  -8  -9    0.80    0.21
  -1  -8  -9    0.86    0.24
   1   8   9    1.01    0.40
  -2  -8  -9   87.70    1.92
  -2  -8  -9   86.78    1.91
  -2  -8  -9   86.90    1.31
  -2  -8  -9   86.90    1.31
  -2  -8  -9   86.78    1.91
   2   8   9   84.02    2.81
  -3  -8  -9    0.37    0.09
  -3  -8  -9    0.29    0.17
  -3  -8  -9    0.31    0.19
  -3  -8  -9    0.31    0.19
  -3  -8  -9    0.37    0.09
   3   8   9    0.17    0.27
  -4  -8  -9    4.81    0.50
  -4  -8  -9    4.94    0.27
  -4  -8  -9    4.77    0.45
  -4  -8  -9    4.94    0.27
  -4  -8  -9    4.77    0.45
   4   8   9    5.51    0.81
  -5  -8  -9    0.46    0.19
  -5  -8  -9    0.46    0.19
  -5  -8  -9    0.75    0.15
  -5  -8  -9    0.75    0.15
  -5  -8  -9    0.60    0.24
   5   8   9    0.67    0.42
  -6  -8  -9    0.67    0.26
  -6  -8  -9    0.29    0.18
  -6  -8  -9    0.64    0.16
  -6  -8  -9    0.29    0.18
  -6  -8  -9    0.64    0.16
   6   8   9    0.65    0.46
  -7  -8  -9   11.77    0.65
  -7  -8  -9   10.57    0.50
  -7  -8  -9   10.57    0.50
  -7  -8  -9   11.77    0.65
  -8  -8  -9   53.79    1.28
  -8  -8  -9   53.79    1.28
  -8  -8  -9   54.19    1.49
  -8  -8  -9   54.19    1.49
  -9  -8  -9   22.95    0.98
  -9  -8  -9   22.95    0.98
  -9  -8  -9   25.07    0.85
  -9  -8  -9   25.07    0.85
   9   8   9   22.65    0.95
   3  -9  -9   31.58    1.18
   3  -9  -9   33.79    0.96
   3  -9  -9   31.58    1.18
   2  -9  -9   27.08    0.85
   2  -9  -9   26.99    1.04
   2  -9  -9   26.99    1.04
   1  -9  -9    9.49    0.62
   1  -9  -9    8.33    0.48
   1  -9  -9    9.49    0.62
   0  -9  -9   68.38    1.55
   0  -9  -9   66.02    1.67
   0  -9  -9   66.02    1.67
  -1  -9  -9   42.71    1.18
  -1  -9  -9   41.64    1.24
  -1  -9  -9   41.64    1.24
   1   9   9   37.21    2.31
  -2  -9  -9   59.84    1.53
  -2  -9  -9   63.06    1.57
  -2  -9  -9   63.06    1.57
   2   9   9   58.36    2.33
  -3  -9  -9   11.76    0.64
  -3  -9  -9   11.76    0.64
  -3  -9  -9   12.35    0.28
  -3  -9  -9   12.35    0.28
  -3  -9  -9   11.90    0.65
   3   9   9   11.74    1.09
  -4  -9  -9   54.25    1.44
  -4  -9  -9   54.25    1.44
  -4  -9  -9   55.76    1.01
  -4  -9  -9   54.86    1.55
  -4  -9  -9   55.76    1.01
   4   9   9   53.91    2.40
  -5  -9  -9   48.02    0.99
  -5  -9  -9   48.02    0.99
  -5  -9  -9   46.82    1.45
  -5  -9  -9   49.41    1.35
  -5  -9  -9   49.41    1.35
   5   9   9   47.53    2.38
  -6  -9  -9    2.64    0.38
  -6  -9  -9    3.10    0.27
  -6  -9  -9    3.10    0.27
  -6  -9  -9    3.37    0.47
  -6  -9  -9    2.64    0.38
   6   9   9    1.95    0.82
  -7  -9  -9   41.03    1.01
  -7  -9  -9   41.09    1.26
  -7  -9  -9   41.09    1.26
  -7  -9  -9   41.03    1.01
  -7  -9  -9   40.50    1.47
  -8  -9  -9    7.16    0.44
  -8  -9  -9    7.99    0.58
  -8  -9  -9    7.16    0.44
  -8  -9  -9    7.99    0.58
   2 -10  -9    0.01    0.13
   2 -10  -9   -0.03    0.21
   2 -10  -9   -0.03    0.21
   1 -10  -9   11.97    0.73
   1 -10  -9   13.27    0.59
   1 -10  -9   11.97    0.73
   0 -10  -9  107.76    2.38
   0 -10  -9  107.76    2.38
   0 -10  -9  110.50    2.18
  -1 -10  -9   31.38    1.02
  -1 -10  -9   32.18    1.12
  -1 -10  -9   32.18    1.12
  -2 -10  -9   16.06    0.77
  -2 -10  -9   16.06    0.77
  -2 -10  -9   16.12    0.74
  -3 -10  -9    0.22    0.18
  -3 -10  -9    0.25    0.21
  -3 -10  -9    0.25    0.21
  -4 -10  -9    2.04    0.35
  -4 -10  -9    2.32    0.35
  -4 -10  -9    2.32    0.35
  -5 -10  -9   12.33    0.38
  -5 -10  -9   12.33    0.38
  -5 -10  -9   10.97    0.65
  -5 -10  -9   10.97    0.65
  -5 -10  -9   12.10    0.75
  -6 -10  -9   21.23    0.89
  -6 -10  -9   20.66    0.60
  -6 -10  -9   20.72    1.01
  -6 -10  -9   20.66    0.60
  -6 -10  -9   21.23    0.89
  -7 -10  -9   49.03    1.10
  -7 -10  -9   50.44    1.44
  -7 -10  -9   49.03    1.10
  -7 -10  -9   50.44    1.44
  -7 -10  -9   48.96    1.66
  -8 -10  -9    4.50    0.57
  -8 -10  -9    4.50    0.57
   0 -11  -9   26.16    1.05
   0 -11  -9   24.07    0.85
   0 -11  -9   26.16    1.05
  -1 -11  -9  110.51    2.25
  -1 -11  -9  110.04    2.42
  -1 -11  -9  110.04    2.42
  -2 -11  -9  157.77    3.30
  -2 -11  -9  163.19    3.06
  -2 -11  -9  157.77    3.30
  -3 -11  -9    2.37    0.36
  -4 -11  -9   27.36    1.08
  -5 -11  -9    1.00    0.30
  -6 -11  -9    0.33    0.11
  -6 -11  -9    0.33    0.11
  -6 -11  -9    0.82    0.31
  -4  -8  10    6.07    0.46
  -4  -8  10    6.07    0.46
  -3  -8  10   -0.11    0.15
  -3  -8  10   -0.11    0.15
  -2  -8  10   11.95    0.52
  -2  -8  10   11.95    0.52
  -1  -8  10   69.78    1.41
  -1  -8  10   69.78    1.41
  -1  -8  10   71.90    2.09
   0  -8  10    1.74    0.42
   0  -8  10    3.78    0.29
   0  -8  10    3.78    0.29
  -6  -7  10    0.10    0.17
  -6  -7  10    0.18    0.14
  -6  -7  10    0.10    0.17
  -5  -7  10    0.61    0.21
  -5  -7  10    0.61    0.21
  -4  -7  10    2.54    0.31
  -4  -7  10    2.54    0.31
  -3  -7  10   -0.05    0.14
  -3  -7  10   -0.05    0.14
  -2  -7  10    2.72    0.29
  -2  -7  10    2.72    0.29
  -1  -7  10   14.14    0.56
  -1  -7  10   16.01    0.92
  -1  -7  10   14.14    0.56
   0  -7  10   12.23    0.49
   0  -7  10   11.78    0.82
   0  -7  10   12.23    0.49
   1  -7  10    0.67    0.31
   1  -7  10    0.42    0.14
   1  -7  10    0.42    0.14
   2  -7  10   26.85    1.21
   2  -7  10   25.63    0.68
   2  -7  10   25.63    0.68
  -7  -6  10    0.20    0.18
  -6  -6  10    3.73    0.35
  -5  -6  10   41.91    1.13
  -5  -6  10   41.76    1.04
  -5  -6  10   41.91    1.13
  -4  -6  10    0.24    0.16
  -4  -6  10    0.24    0.16
  -4  -6  10    0.34    0.13
  -3  -6  10   42.34    1.08
  -3  -6  10   42.34    1.08
  -2  -6  10    2.40    0.28
  -2  -6  10    2.40    0.28
  -1  -6  10    6.02    0.37
  -1  -6  10    6.02    0.37
  -1  -6  10    5.54    0.94
   0  -6  10    8.61    0.42
   0  -6  10    7.86    0.67
   0  -6  10    8.61    0.42
   1  -6  10    1.27    0.20
   1  -6  10    1.83    0.39
   1  -6  10    1.27    0.20
   2  -6  10   87.19    1.64
   2  -6  10   92.03    2.35
   2  -6  10   87.19    1.64
   3  -6  10   16.47    0.54
   3  -6  10   16.91    0.96
   3  -6  10   16.47    0.54
   4  -6  10   11.35    0.42
   4  -6  10   11.35    0.42
   4  -6  10   12.10    0.85
  -7  -5  10    3.03    0.37
  -6  -5  10   42.64    1.18
  -5  -5  10    0.33    0.15
  -4  -5  10    0.38    0.15
  -4  -5  10    0.21    0.16
  -4  -5  10    0.21    0.16
  -3  -5  10   37.44    0.98
  -3  -5  10   37.44    0.98
  -3  -5  10   36.34    0.91
  -2  -5  10   14.43    0.48
  -2  -5  10   15.00    0.58
  -2  -5  10   15.00    0.58
  -1  -5  10   34.98    0.92
  -1  -5  10   34.98    0.92
   0  -5  10   15.84    0.58
   0  -5  10   19.14    0.94
   0  -5  10   15.84    0.58
   1  -5  10   10.88    0.47
   1  -5  10   10.88    0.47
   1  -5  10   10.69    0.73
   2  -5  10   10.37    0.75
   2  -5  10   10.18    0.44
   2  -5  10   10.18    0.44
   3  -5  10    0.40    0.15
   3  -5  10    0.40    0.15
   3  -5  10    0.34    0.27
   4  -5  10   23.36    0.67
   4  -5  10   23.73    1.13
   4  -5  10   23.36    0.67
   5  -5  10   78.36    2.21
   5  -5  10   75.21    1.44
   5  -5  10   75.21    1.44
   8   4 -10   28.97    1.18
  -8  -4  10   28.64    1.04
  -7  -4  10    4.83    0.44
  -6  -4  10   49.55    1.32
  -5  -4  10   11.99    0.59
  -4  -4  10   13.05    0.57
  -3  -4  10    3.05    0.32
  -3  -4  10    3.05    0.32
  -3  -4  10    2.24    0.27
  -2  -4  10    5.27    0.34
  -2  -4  10    5.24    0.36
  -2  -4  10    5.24    0.36
  -1  -4  10   45.64    1.01
  -1  -4  10   46.21    1.09
  -1  -4  10   46.21    1.09
   0  -4  10   70.20    1.42
   0  -4  10   69.32    1.25
   0  -4  10   70.20    1.42
   1  -4  10    0.26    0.13
   1  -4  10    0.26    0.13
   1  -4  10    0.37    0.24
   2  -4  10   77.26    2.02
   2  -4  10   74.78    1.49
   2  -4  10   74.78    1.49
   3  -4  10   38.83    0.94
   3  -4  10   38.83    0.94
   3  -4  10   38.01    1.37
   4  -4  10   86.96    2.28
   4  -4  10   89.21    1.68
   4  -4  10   89.21    1.68
   5  -4  10    3.42    0.53
   5  -4  10    3.10    0.28
   5  -4  10    3.10    0.28
   6  -4  10   11.02    0.46
   6  -4  10   11.02    0.46
   6  -4  10   12.03    0.86
   8   3 -10    0.11    0.18
   8   3 -10    0.11    0.18
   8   3 -10    0.56    0.25
  -8  -3  10    0.39    0.23
   7   3 -10    1.18    0.26
   7   3 -10    1.18    0.26
   7   3 -10    1.64    0.34
  -7  -3  10    1.58    0.32
   6   3 -10    4.04    0.50
  -6  -3  10    3.49    0.39
  -5  -3  10   16.17    0.68
  -4  -3  10    5.70    0.41
  -3  -3  10   19.62    0.69
  -2  -3  10    4.13    0.33
  -2  -3  10    4.13    0.33
  -2  -3  10    4.46    0.33
  -1  -3  10  108.92    2.56
  -1  -3  10  106.72    1.97
  -1  -3  10  111.32    2.00
  -1  -3  10  111.32    2.00
   0   3 -10   49.20    1.56
   0  -3  10   47.16    1.06
   0  -3  10   50.59    1.12
   0  -3  10   50.59    1.12
  -1   3 -10    4.15    0.52
   1  -3  10    3.26    0.30
   1  -3  10    3.26    0.30
   1  -3  10    3.92    0.25
   2  -3  10    0.94    0.30
   2  -3  10    0.67    0.15
   2  -3  10    0.58    0.10
   2  -3  10    0.67    0.15
   3  -3  10   -0.12    0.18
   3  -3  10    0.10    0.11
   3  -3  10    0.10    0.11
   4  -3  10   47.25    1.09
   4  -3  10   47.30    1.55
   4  -3  10   47.25    1.09
   5  -3  10   71.33    2.04
   5  -3  10   69.35    1.43
   5  -3  10   69.35    1.43
   6  -3  10    4.28    0.57
   6  -3  10    4.27    0.34
   6  -3  10    4.27    0.34
   7  -3  10   10.85    0.85
   7  -3  10   10.89    0.48
   7  -3  10   10.89    0.48
   8   2 -10   18.49    0.74
   8   2 -10   18.49    0.74
  -8  -2  10   18.56    0.94
   7   2 -10    7.75    0.49
   7   2 -10    7.40    0.48
   7   2 -10    7.40    0.48
  -7  -2  10    6.63    0.52
   6   2 -10    1.29    0.23
   6   2 -10    1.29    0.23
   6   2 -10    0.85    0.25
  -6  -2  10    0.93    0.25
   5   2 -10    0.58    0.23
   5   2 -10    0.30    0.16
   5   2 -10    0.30    0.16
  -5  -2  10    0.61    0.21
   4   2 -10   26.92    0.83
   4   2 -10   26.21    1.03
   4   2 -10   26.92    0.83
  -4  -2  10   27.47    0.87
   3   2 -10   32.34    1.17
  -3  -2  10   32.36    0.94
   2   2 -10    2.27    0.38
  -2  -2  10    1.83    0.24
   1   2 -10  175.12    3.47
  -1  -2  10  181.32    2.94
  -1  -2  10  174.24    2.96
  -1  -2  10  181.32    2.94
   0   2 -10   36.15    1.27
   0  -2  10   37.24    0.92
   0  -2  10   34.72    0.90
   0  -2  10   34.72    0.90
  -1   2 -10    7.74    0.62
   1  -2  10    9.09    0.42
   1  -2  10    9.09    0.42
   1  -2  10    7.92    0.39
  -2   2 -10    7.88    0.64
   2  -2  10    9.84    0.44
   2  -2  10    8.29    0.38
   2  -2  10    9.84    0.44
  -3   2 -10    5.18    0.71
   3  -2  10    5.15    0.27
   3  -2  10    5.59    0.34
   3  -2  10    5.59    0.34
   4  -2  10    0.06    0.12
   4  -2  10    0.06    0.12
   5  -2  10   20.74    0.67
   5  -2  10   20.74    0.67
  -6   2 -10    4.38    0.56
  -6   2 -10    4.38    0.56
   6  -2  10    5.25    0.36
   6  -2  10    5.25    0.36
  -7   2 -10   48.06    1.35
  -7   2 -10   48.06    1.35
   7  -2  10   50.34    1.17
   7  -2  10   50.34    1.17
   8   1 -10   51.57    1.28
   8   1 -10   51.57    1.28
   7   1 -10    0.61    0.19
   7   1 -10    0.61    0.19
   6   1 -10   46.17    1.16
   6   1 -10   46.17    1.16
   5   1 -10    0.19    0.16
   5   1 -10    0.43    0.17
   5   1 -10    0.43    0.17
  -5  -1  10    0.20    0.15
   4   1 -10   15.62    0.60
   4   1 -10   16.50    0.74
   4   1 -10   15.62    0.60
  -4  -1  10   16.54    0.66
   3   1 -10    7.94    0.43
   3   1 -10    6.52    0.50
   3   1 -10    7.94    0.43
  -3  -1  10    7.09    0.43
   2   1 -10  121.98    2.56
   2   1 -10  121.96    2.20
   2   1 -10  121.96    2.20
  -2  -1  10  120.83    2.24
   1   1 -10    9.60    0.63
   1   1 -10   10.52    0.61
   1   1 -10   10.52    0.61
   1   1 -10    9.31    0.43
  -1  -1  10    9.88    0.47
   0   1 -10   71.98    1.83
   0   1 -10   68.27    1.80
   0   1 -10   68.27    1.80
   0  -1  10   68.40    1.44
  -1   1 -10   27.93    0.78
  -1   1 -10   27.93    0.78
  -1   1 -10   28.22    1.09
   1  -1  10   29.20    0.78
   1  -1  10   27.63    0.79
   1  -1  10   29.20    0.78
  -2   1 -10  152.59    3.12
  -2   1 -10  152.29    2.59
  -2   1 -10  152.29    2.59
   2  -1  10  151.62    2.55
   2  -1  10  151.62    2.55
   2  -1  10  151.28    2.57
  -3   1 -10   85.73    1.68
  -3   1 -10   85.73    1.68
  -3   1 -10   84.81    2.13
   3  -1  10   83.82    1.63
   3  -1  10   83.82    1.63
   3  -1  10   84.75    1.60
  -4   1 -10  100.22    2.41
  -4   1 -10   98.96    1.92
  -4   1 -10   98.96    1.92
   4  -1  10  100.23    1.86
   4  -1  10  100.54    1.77
   4  -1  10  100.23    1.86
  -5   1 -10  105.73    2.03
  -5   1 -10  105.73    2.03
   5  -1  10  100.71    1.92
   5  -1  10  100.71    1.92
   5  -1  10  102.64    1.72
  -6   1 -10   34.52    1.03
  -6   1 -10   34.52    1.03
   6  -1  10   33.79    0.92
   6  -1  10   33.79    0.92
  -7   1 -10    6.29    0.49
  -7   1 -10    6.29    0.49
   7  -1  10    5.95    0.40
   7  -1  10    5.95    0.40
  -8   1 -10    0.51    0.24
  -8   1 -10    0.51    0.24
   8  -1  10    0.56    0.17
   8  -1  10    0.56    0.17
   8   0 -10    1.57    0.25
   8   0 -10    1.57    0.25
   7   0 -10    8.17    0.82
   7   0 -10    8.14    0.77
   7   0 -10    7.95    0.97
   7   0 -10    6.83    0.43
   7   0 -10    6.83    0.43
   7   0 -10    8.14    0.77
  -7   0  10    6.45    0.65
  -7   0  10    6.45    0.65
   6   0 -10    7.02    0.50
   6   0 -10    6.32    0.39
   6   0 -10    6.91    0.50
   6   0 -10    6.91    0.50
   6   0 -10    6.32    0.39
   6   0 -10    7.03    0.60
  -6   0  10    6.46    0.48
  -6   0  10    6.46    0.48
   5   0 -10    7.66    0.59
   5   0 -10    7.66    0.49
   5   0 -10    8.18    0.43
   5   0 -10    8.02    0.49
   5   0 -10    8.02    0.49
   5   0 -10    8.18    0.43
   4   0 -10   15.22    0.57
   4   0 -10   15.24    0.56
   4   0 -10   15.04    0.77
   4   0 -10   15.04    0.64
   4   0 -10   13.21    0.60
   4   0 -10   15.22    0.57
   4   0 -10   13.21    0.60
   3   0 -10   51.91    1.23
   3   0 -10   51.91    1.23
   3   0 -10   52.59    1.18
   3   0 -10   53.34    1.64
   3   0 -10   52.15    1.29
   3   0 -10   52.59    1.18
  -3   0  10   52.96    1.26
   2   0 -10   22.03    0.83
   2   0 -10   21.91    0.72
   2   0 -10   22.82    0.70
   2   0 -10   22.82    0.70
   2   0 -10   21.91    0.72
  -2   0  10   22.07    0.73
  -2   0  10   21.43    1.14
   1   0 -10  122.00    2.20
   1   0 -10  124.12    2.20
   1   0 -10  124.12    2.20
   1   0 -10  122.00    2.20
   1   0 -10  119.78    2.46
  -1   0  10  122.38    2.23
  -1   0  10  124.26    2.51
   0   0 -10    1.24    0.21
   0   0 -10    0.90    0.25
   0   0 -10    1.24    0.21
   0   0 -10    1.05    0.20
   0   0 -10    1.04    0.18
   0   0 -10    1.05    0.20
   0   0  10    1.79    0.24
   0   0  10    1.05    0.26
  -1   0 -10   55.25    1.20
  -1   0 -10   53.39    1.20
  -1   0 -10   54.19    1.50
  -1   0 -10   53.39    1.20
   1   0  10   54.18    1.22
   1   0  10   54.38    1.44
  -2   0 -10  166.78    2.83
  -2   0 -10  160.27    3.20
  -2   0 -10  166.78    2.83
   2   0  10  170.64    2.79
   2   0  10  170.64    2.79
   2   0  10  168.52    3.16
   2   0  10  167.12    2.82
  -3   0 -10   15.16    0.78
  -3   0 -10   15.53    0.60
  -3   0 -10   15.53    0.60
   3   0  10   15.70    0.57
   3   0  10   15.58    0.76
  -4   0 -10   20.33    0.70
  -4   0 -10   18.79    0.88
  -4   0 -10   20.33    0.70
   4   0  10   20.04    0.65
   4   0  10   19.86    0.65
   4   0  10   20.04    0.65
  -5   0 -10   90.01    1.83
  -5   0 -10   88.52    2.16
  -5   0 -10   90.01    1.83
   5   0  10   89.03    1.74
   5   0  10   89.03    1.74
   5   0  10   87.82    1.67
  -6   0 -10   13.51    0.77
  -6   0 -10   13.10    0.62
  -6   0 -10   13.10    0.62
   6   0  10   13.93    0.57
   6   0  10   13.15    0.47
   6   0  10   13.93    0.57
  -7   0 -10  100.08    2.11
  -7   0 -10  100.08    2.11
   7   0  10  100.10    1.95
   7   0  10  100.10    1.95
  -8   0 -10   19.53    0.84
  -8   0 -10   19.53    0.84
   8   0  10   19.37    0.71
   8   0  10   19.37    0.71
   8  -1 -10   46.03    1.11
   8  -1 -10   44.86    1.40
   8  -1 -10   47.43    1.61
   8  -1 -10   44.87    1.40
   8  -1 -10   46.03    1.11
   8  -1 -10   47.40    1.37
  -8   1  10   46.25    1.39
  -8   1  10   46.25    1.39
   7  -1 -10    1.89    0.35
   7  -1 -10    1.47    0.23
   7  -1 -10    1.16    0.28
   7  -1 -10    1.47    0.23
   7  -1 -10    1.89    0.35
   7  -1 -10    1.12    0.33
  -7   1  10    1.91    0.35
  -7   1  10    1.91    0.35
   6  -1 -10   55.84    1.48
   6  -1 -10   58.04    1.27
   6  -1 -10   58.04    1.27
   6  -1 -10   55.84    1.48
   6  -1 -10   57.38    1.67
   6  -1 -10   57.38    1.44
  -6   1  10   59.43    1.49
  -6   1  10   59.43    1.49
   5  -1 -10    0.45    0.19
   5  -1 -10    0.97    0.19
   5  -1 -10    0.97    0.19
   5  -1 -10    0.47    0.21
   5  -1 -10    0.47    0.21
   5  -1 -10    0.44    0.22
   4  -1 -10   22.56    0.80
   4  -1 -10   22.56    0.80
   4  -1 -10   22.44    0.92
   4  -1 -10   21.63    0.68
   4  -1 -10   22.43    0.78
   4  -1 -10   21.63    0.68
   3  -1 -10    6.91    0.43
   3  -1 -10    6.91    0.43
   3  -1 -10    6.73    0.27
   3  -1 -10    6.26    0.37
   3  -1 -10    6.26    0.37
   3  -1 -10    6.84    0.43
   3  -1 -10    6.83    0.52
  -3   1  10    6.91    0.57
   2  -1 -10   10.61    0.51
   2  -1 -10   11.08    0.47
   2  -1 -10   12.59    0.54
   2  -1 -10   11.19    0.47
   2  -1 -10   12.59    0.54
   2  -1 -10   10.62    0.61
   2  -1 -10   11.08    0.47
  -2   1  10   12.42    0.71
   1  -1 -10  127.96    2.25
   1  -1 -10  127.96    2.25
   1  -1 -10  129.87    2.58
   1  -1 -10  130.24    2.36
   1  -1 -10  128.73    2.58
   1  -1 -10  129.81    2.34
   1  -1 -10  130.81    2.34
   1  -1 -10  130.81    2.34
  -1   1  10  126.49    2.66
  -1   1  10  131.60    3.52
   0  -1 -10  222.58    3.64
   0  -1 -10  229.05    3.58
   0  -1 -10  223.26    3.76
   0  -1 -10  222.58    3.64
   0  -1 -10  229.05    3.58
   0   1  10  219.50    5.02
   0   1  10  227.46    3.64
   0   1  10  227.40    4.00
  -1  -1 -10  313.90    4.83
  -1  -1 -10  313.90    4.83
  -1  -1 -10  315.42    4.88
  -1  -1 -10  313.71    5.09
  -1  -1 -10  315.42    4.88
   1   1  10  322.85    5.28
   1   1  10  322.75    4.90
  -2  -1 -10    0.17    0.15
  -2  -1 -10    0.15    0.17
  -2  -1 -10    0.51    0.16
  -2  -1 -10    0.22    0.12
  -2  -1 -10    0.51    0.16
  -2  -1 -10    0.17    0.15
   2   1  10    1.61    0.32
   2   1  10    0.47    0.15
  -3  -1 -10    0.38    0.18
   3   1  10    0.28    0.19
   3   1  10    0.30    0.13
  -4  -1 -10  145.68    2.60
  -4  -1 -10  146.50    2.85
  -4  -1 -10  145.68    2.60
   4   1  10  145.99    2.56
   4   1  10  146.36    2.98
   4   1  10  146.36    2.98
  -5  -1 -10    0.52    0.20
  -5  -1 -10    0.76    0.23
  -5  -1 -10    0.52    0.20
   5   1  10    0.79    0.17
   5   1  10    1.03    0.18
   5   1  10    0.79    0.17
  -6  -1 -10   54.21    1.35
  -6  -1 -10   54.21    1.35
  -6  -1 -10   53.54    1.51
   6   1  10   51.79    1.21
   6   1  10   55.47    1.26
   6   1  10   55.47    1.26
  -7  -1 -10   82.91    1.87
  -7  -1 -10   85.35    2.05
  -7  -1 -10   82.91    1.87
   7   1  10   87.42    1.75
   7   1  10   83.72    1.62
   7   1  10   87.42    1.75
  -8  -1 -10    1.42    0.31
  -8  -1 -10    1.50    0.33
  -8  -1 -10    1.42    0.31
   8   1  10    1.21    0.23
   8   1  10    1.21    0.23
  -9  -1 -10   98.62    2.23
  -9  -1 -10  101.19    2.35
  -9  -1 -10   98.62    2.23
   9   1  10   95.82    1.98
   9   1  10   95.82    1.98
   8  -2 -10   38.25    1.43
   8  -2 -10   42.73    1.37
   8  -2 -10   38.87    0.92
   8  -2 -10   38.87    0.92
   8  -2 -10   42.73    1.37
   8  -2 -10   38.23    1.22
  -8   2  10   39.85    1.32
  -8   2  10   39.85    1.32
   7  -2 -10    0.18    0.13
   7  -2 -10   -0.08    0.21
   7  -2 -10   -0.08    0.21
   7  -2 -10    0.21    0.22
   7  -2 -10    0.18    0.13
   7  -2 -10    0.21    0.19
  -7   2  10   -0.04    0.21
  -7   2  10   -0.04    0.21
   6  -2 -10   65.38    1.33
   6  -2 -10   65.38    1.33
   6  -2 -10   64.90    1.78
   6  -2 -10   64.89    1.55
   6  -2 -10   65.88    1.66
   6  -2 -10   65.88    1.66
  -6   2  10   67.22    1.67
  -6   2  10   67.22    1.67
   5  -2 -10   41.62    1.14
   5  -2 -10   41.61    1.33
   5  -2 -10   41.31    0.98
   5  -2 -10   44.63    1.25
   5  -2 -10   44.63    1.25
   5  -2 -10   41.31    0.98
   4  -2 -10   50.35    1.10
   4  -2 -10   48.73    1.30
   4  -2 -10   51.57    1.25
   4  -2 -10   48.73    1.30
   4  -2 -10   51.59    1.44
   4  -2 -10   50.35    1.10
   3  -2 -10   58.60    1.21
   3  -2 -10   58.60    1.21
   3  -2 -10   57.21    1.39
   3  -2 -10   58.61    1.53
   3  -2 -10   58.62    1.34
   3  -2 -10   57.21    1.39
   2  -2 -10   46.72    1.14
   2  -2 -10   45.75    1.04
   2  -2 -10   47.82    1.20
   2  -2 -10   46.75    1.31
   2  -2 -10   45.75    1.04
   2  -2 -10   47.82    1.20
  -2   2  10   47.96    1.50
   1  -2 -10    0.52    0.11
   1  -2 -10    0.53    0.20
   1  -2 -10    0.51    0.16
   1  -2 -10    0.53    0.20
   1  -2 -10    0.46    0.20
   1  -2 -10    0.35    0.18
   1  -2 -10    0.36    0.15
   1  -2 -10    0.51    0.16
  -1   2  10    0.67    0.33
  -1   2  10    0.18    0.19
   0  -2 -10  105.44    2.03
   0  -2 -10  106.09    1.92
   0  -2 -10  105.44    2.03
   0  -2 -10  107.17    1.88
   0  -2 -10  111.04    2.26
   0  -2 -10  106.09    1.92
   0   2  10  107.33    3.13
   0   2  10  107.30    2.00
   0   2  10  110.58    2.40
  -1  -2 -10  172.61    2.96
  -1  -2 -10  174.67    2.91
  -1  -2 -10  176.08    3.23
  -1  -2 -10  172.61    2.96
   1   2  10  173.86    4.23
   1   2  10  177.92    3.37
   1   2  10  173.96    2.94
  -2  -2 -10   22.75    0.75
  -2  -2 -10   23.03    0.75
  -2  -2 -10   23.03    0.75
  -2  -2 -10   22.12    0.70
  -2  -2 -10   22.12    0.70
   2   2  10   21.90    0.93
   2   2  10   24.71    0.75
  -3  -2 -10   85.79    1.79
  -3  -2 -10   84.28    1.67
  -3  -2 -10   86.54    1.74
  -3  -2 -10   86.54    1.74
  -3  -2 -10   84.28    1.67
   3   2  10   86.87    1.73
   3   2  10   86.94    2.14
  -4  -2 -10  109.55    2.10
  -4  -2 -10  109.55    2.10
  -4  -2 -10  107.86    2.17
  -4  -2 -10  109.32    2.17
   4   2  10  109.06    2.07
  -5  -2 -10    7.35    0.46
  -5  -2 -10    8.09    0.50
  -5  -2 -10    7.35    0.46
   5   2  10    7.85    0.44
  -6  -2 -10    0.21    0.16
  -6  -2 -10    0.01    0.14
  -6  -2 -10    0.01    0.14
   6   2  10    0.13    0.13
  -7  -2 -10   37.39    1.13
  -7  -2 -10   37.39    1.13
  -7  -2 -10   37.80    1.19
   7   2  10   36.57    1.00
   7   2  10   37.72    1.05
   7   2  10   37.72    1.05
  -8  -2 -10    0.29    0.20
  -8  -2 -10    0.29    0.20
  -8  -2 -10    0.03    0.18
   8   2  10    0.01    0.14
   8   2  10    0.36    0.15
   8   2  10    0.01    0.14
  -9  -2 -10   65.73    1.75
  -9  -2 -10   67.65    1.73
  -9  -2 -10   67.65    1.73
   9   2  10   65.63    1.54
   9   2  10   65.63    1.54
   9   2  10   65.71    1.45
   7  -3 -10   30.49    1.14
   7  -3 -10   30.73    1.21
   7  -3 -10   29.72    0.68
   7  -3 -10   30.74    1.02
   7  -3 -10   30.49    1.14
   7  -3 -10   29.72    0.68
  -7   3  10   29.53    1.12
  -7   3  10   29.53    1.12
   6  -3 -10   85.15    1.99
   6  -3 -10   81.95    1.47
   6  -3 -10   81.86    1.80
   6  -3 -10   81.95    1.47
   6  -3 -10   81.86    2.04
   6  -3 -10   85.15    1.99
  -6   3  10   82.75    1.97
  -6   3  10   82.75    1.97
   5  -3 -10   16.42    0.52
   5  -3 -10   17.10    0.78
   5  -3 -10   18.01    0.70
   5  -3 -10   18.01    0.84
   5  -3 -10   17.10    0.78
   5  -3 -10   16.42    0.52
   4  -3 -10   73.93    1.37
   4  -3 -10   73.00    1.78
   4  -3 -10   73.93    1.37
   4  -3 -10   72.97    1.57
   4  -3 -10   72.51    1.71
   4  -3 -10   72.51    1.71
   3  -3 -10   85.04    1.54
   3  -3 -10   85.59    1.72
   3  -3 -10   84.56    1.84
   3  -3 -10   85.04    1.54
   3  -3 -10   84.56    1.84
   3  -3 -10   85.57    1.94
   2  -3 -10    0.57    0.21
   2  -3 -10    0.18    0.12
   2  -3 -10    0.57    0.21
   2  -3 -10    0.35    0.16
   2  -3 -10    0.34    0.19
   2  -3 -10    0.18    0.12
   1  -3 -10  353.18    5.34
   1  -3 -10  345.92    5.45
   1  -3 -10  351.54    5.20
   1  -3 -10  353.54    5.62
   1  -3 -10  351.54    5.20
   1  -3 -10  345.92    5.45
   1  -3 -10  353.38    5.61
  -1   3  10  354.12    6.81
   0  -3 -10  122.72    2.30
   0  -3 -10  122.99    2.11
   0  -3 -10  121.82    2.45
   0  -3 -10  122.72    2.30
   0  -3 -10  122.99    2.11
   0   3  10  121.73    3.37
   0   3  10  127.86    2.74
  -1  -3 -10    7.31    0.44
  -1  -3 -10    8.17    0.53
  -1  -3 -10    8.20    0.39
  -1  -3 -10    8.53    0.31
  -1  -3 -10    8.20    0.39
  -1  -3 -10    7.31    0.44
   1   3  10    7.75    0.82
   1   3  10    7.60    0.59
  -2  -3 -10    5.78    0.40
  -2  -3 -10    5.91    0.31
  -2  -3 -10    7.14    0.37
  -2  -3 -10    5.77    0.47
  -2  -3 -10    7.14    0.37
  -2  -3 -10    5.78    0.40
   2   3  10    5.80    0.37
   2   3  10    6.32    0.53
   2   3  10    6.75    0.78
  -3  -3 -10   15.95    0.57
  -3  -3 -10   16.39    0.57
  -3  -3 -10   16.67    0.65
  -3  -3 -10   15.95    0.57
  -3  -3 -10   16.67    0.65
   3   3  10   16.30    0.62
  -4  -3 -10  115.87    2.08
  -4  -3 -10  115.87    2.08
  -4  -3 -10  112.22    2.11
  -4  -3 -10  114.39    2.19
  -4  -3 -10  114.39    2.19
   4   3  10  113.02    2.16
  -5  -3 -10    2.53    0.32
  -5  -3 -10    2.42    0.29
  -5  -3 -10    2.53    0.32
   5   3  10    2.22    0.28
  -6  -3 -10   27.97    0.90
  -6  -3 -10   26.67    0.90
  -6  -3 -10   26.67    0.90
   6   3  10   27.77    0.88
  -7  -3 -10   59.08    1.49
  -7  -3 -10   59.08    1.49
  -7  -3 -10   58.92    1.47
   7   3  10   58.88    1.40
  -8  -3 -10   11.45    0.66
  -8  -3 -10   12.48    0.65
  -8  -3 -10   11.45    0.66
   8   3  10   12.26    0.57
  -9  -3 -10    2.04    0.33
  -9  -3 -10    1.78    0.36
  -9  -3 -10    1.78    0.36
   9   3  10    2.48    0.29
   7  -4 -10    4.06    0.43
   7  -4 -10    3.95    0.51
   7  -4 -10    4.29    0.52
   7  -4 -10    4.29    0.52
  -7   4  10    4.54    0.55
  -7   4  10    4.54    0.55
   6  -4 -10    4.78    0.52
   6  -4 -10    4.78    0.52
   6  -4 -10    5.64    0.49
   6  -4 -10    5.49    0.58
  -6   4  10    6.12    0.58
  -6   4  10    6.12    0.58
   5  -4 -10   18.78    0.72
   5  -4 -10   17.71    0.44
   5  -4 -10   19.65    0.86
   5  -4 -10   17.71    0.44
   5  -4 -10   18.79    0.85
   5  -4 -10   19.65    0.86
   4  -4 -10    0.22    0.17
   4  -4 -10    0.18    0.19
   4  -4 -10    0.02    0.08
   4  -4 -10    0.18    0.19
   4  -4 -10    0.02    0.08
   4  -4 -10    0.23    0.15
   3  -4 -10   23.89    0.59
   3  -4 -10   24.34    0.89
   3  -4 -10   24.34    0.89
   3  -4 -10   23.54    0.75
   3  -4 -10   23.89    0.59
   3  -4 -10   23.51    0.89
   2  -4 -10    0.49    0.11
   2  -4 -10    0.72    0.22
   2  -4 -10    0.49    0.11
   2  -4 -10    0.44    0.18
   2  -4 -10    0.72    0.22
   2  -4 -10    0.45    0.15
  -2   4  10    1.03    0.39
   1  -4 -10   22.39    0.79
   1  -4 -10   21.57    0.59
   1  -4 -10   22.52    0.84
   1  -4 -10   22.70    0.72
   1  -4 -10   22.39    0.79
   1  -4 -10   21.57    0.59
   1  -4 -10   22.71    0.84
  -1   4  10   22.36    1.32
   0  -4 -10   10.30    0.41
   0  -4 -10   10.30    0.41
   0  -4 -10   11.96    0.58
   0  -4 -10   12.40    0.63
   0  -4 -10   11.96    0.58
   0   4  10   12.82    1.02
  -1  -4 -10    8.08    0.37
  -1  -4 -10    7.91    0.47
  -1  -4 -10    7.74    0.52
  -1  -4 -10    7.91    0.47
  -1  -4 -10    8.08    0.37
   1   4  10    8.51    0.87
  -2  -4 -10   17.94    0.56
  -2  -4 -10   18.20    0.78
  -2  -4 -10   16.45    0.66
  -2  -4 -10   16.45    0.66
  -2  -4 -10   17.94    0.56
  -2  -4 -10   17.58    0.40
   2   4  10   16.32    1.18
  -3  -4 -10   56.80    1.35
  -3  -4 -10   55.61    1.52
  -3  -4 -10   55.25    1.19
  -3  -4 -10   55.25    1.19
  -3  -4 -10   56.56    1.08
  -3  -4 -10   56.80    1.35
   3   4  10   57.91    2.31
  -4  -4 -10   10.53    0.47
  -4  -4 -10   10.53    0.47
  -4  -4 -10   12.12    0.58
  -4  -4 -10   12.12    0.58
  -4  -4 -10   11.82    0.45
   4   4  10   11.46    0.54
  -5  -4 -10   10.54    0.56
  -5  -4 -10   10.03    0.45
  -5  -4 -10   11.64    0.50
  -5  -4 -10   10.54    0.56
  -5  -4 -10   11.64    0.50
   5   4  10   10.62    0.53
  -6  -4 -10   44.30    1.58
  -6  -4 -10   42.56    1.09
  -6  -4 -10   44.30    1.58
  -6  -4 -10   43.35    1.20
  -6  -4 -10   43.35    1.20
   6   4  10   40.80    1.15
  -7  -4 -10   29.72    0.93
  -7  -4 -10   30.42    1.01
  -7  -4 -10   30.42    1.01
   7   4  10   31.75    0.98
  -8  -4 -10   33.02    1.03
  -8  -4 -10   32.02    1.09
  -8  -4 -10   32.02    1.09
   8   4  10   32.21    1.01
  -9  -4 -10   40.58    1.22
  -9  -4 -10   39.03    1.27
  -9  -4 -10   39.03    1.27
   9   4  10   40.51    1.15
   6  -5 -10   45.85    1.42
   6  -5 -10   45.85    1.22
   6  -5 -10   46.51    1.46
   6  -5 -10   46.51    1.46
  -6   5  10   47.71    1.47
  -6   5  10   47.71    1.47
   5  -5 -10    0.69    0.24
   5  -5 -10    0.53    0.24
   5  -5 -10    0.53    0.24
   5  -5 -10    0.71    0.21
   4  -5 -10  118.33    2.43
   4  -5 -10  118.36    2.20
   4  -5 -10  117.51    2.47
   4  -5 -10  117.51    2.47
   3  -5 -10   12.00    0.65
   3  -5 -10   13.59    0.67
   3  -5 -10   14.26    0.32
   3  -5 -10   14.26    0.32
   3  -5 -10   12.00    0.65
   3  -5 -10   13.59    0.56
   2  -5 -10   13.15    0.54
   2  -5 -10   13.41    0.65
   2  -5 -10   13.41    0.65
   2  -5 -10   13.26    0.36
   2  -5 -10   13.15    0.64
   2  -5 -10   13.26    0.36
  -2   5  10   12.57    0.98
   1  -5 -10   33.37    0.71
   1  -5 -10   32.57    1.03
   1  -5 -10   34.70    1.05
   1  -5 -10   32.56    0.89
   1  -5 -10   32.20    1.03
   1  -5 -10   34.70    1.05
   1  -5 -10   33.37    0.71
  -1   5  10   34.83    1.61
   0  -5 -10    3.31    0.37
   0  -5 -10    3.40    0.22
   0  -5 -10    3.31    0.37
   0  -5 -10    3.86    0.41
   0  -5 -10    3.40    0.22
   0   5  10    3.53    0.62
  -1  -5 -10  185.48    3.39
  -1  -5 -10  189.27    2.93
  -1  -5 -10  189.04    3.28
  -1  -5 -10  189.27    2.93
  -1  -5 -10  189.04    3.28
   1   5  10  190.04    4.49
  -2  -5 -10  106.91    1.86
  -2  -5 -10  106.91    1.86
  -2  -5 -10  109.35    2.29
  -2  -5 -10  107.65    2.15
  -2  -5 -10  107.65    2.15
   2   5  10  110.77    3.26
  -3  -5 -10    0.79    0.16
  -3  -5 -10    0.55    0.19
  -3  -5 -10    0.55    0.19
  -3  -5 -10    0.40    0.20
  -3  -5 -10    0.79    0.16
   3   5  10    0.86    0.39
  -4  -5 -10  115.13    2.52
  -4  -5 -10  116.56    2.29
  -4  -5 -10  117.91    2.07
  -4  -5 -10  117.91    2.07
  -4  -5 -10  117.87    1.88
  -4  -5 -10  116.56    2.29
   4   5  10  121.49    3.65
  -5  -5 -10   31.18    0.78
  -5  -5 -10   33.49    1.02
  -5  -5 -10   33.49    1.02
  -5  -5 -10   32.35    0.87
  -5  -5 -10   32.35    0.87
   5   5  10   32.20    0.97
  -6  -5 -10   40.47    1.18
  -6  -5 -10   42.23    1.05
  -6  -5 -10   39.35    0.98
  -6  -5 -10   42.23    1.05
  -6  -5 -10   40.47    1.18
   6   5  10   39.74    1.14
  -7  -5 -10   -0.32    0.11
  -7  -5 -10   -0.32    0.11
  -7  -5 -10   -0.10    0.17
  -7  -5 -10    0.44    0.16
  -7  -5 -10   -0.10    0.17
   7   5  10    0.08    0.14
  -8  -5 -10    8.59    0.58
  -8  -5 -10    8.61    0.49
  -8  -5 -10    8.59    0.58
   8   5  10    7.94    0.53
  -9  -5 -10   28.68    1.08
  -9  -5 -10   28.63    0.97
  -9  -5 -10   28.68    1.08
   9   5  10   27.79    0.99
   6  -6 -10    0.80    0.22
   6  -6 -10    0.78    0.30
   6  -6 -10    0.78    0.30
   6  -6 -10    0.78    0.26
  -6   6  10    1.11    0.36
  -6   6  10    1.11    0.36
   5  -6 -10   29.66    1.05
   5  -6 -10   29.57    1.13
   5  -6 -10   29.57    1.13
   5  -6 -10   29.65    0.89
   4  -6 -10   29.60    1.09
   4  -6 -10   29.60    1.09
   4  -6 -10   29.87    0.87
   4  -6 -10   29.86    1.02
   3  -6 -10   38.18    1.21
   3  -6 -10   37.31    0.97
   3  -6 -10   38.18    1.21
   3  -6 -10   37.35    1.12
  -3   6  10   36.47    1.84
   2  -6 -10   11.32    0.60
   2  -6 -10   11.76    0.64
   2  -6 -10   11.32    0.50
   2  -6 -10   11.76    0.64
  -2   6  10   10.54    0.92
   1  -6 -10    3.10    0.38
   1  -6 -10    4.47    0.17
   1  -6 -10    3.10    0.38
   1  -6 -10    4.47    0.17
   1  -6 -10    4.46    0.40
  -1   6  10    4.22    0.64
   0  -6 -10   26.21    0.92
   0  -6 -10   26.48    0.57
   0  -6 -10   27.86    0.94
   0  -6 -10   26.48    0.57
   0  -6 -10   27.86    0.94
   0   6  10   28.14    1.48
  -1  -6 -10    1.74    0.29
  -1  -6 -10    1.46    0.16
  -1  -6 -10    1.46    0.16
   1   6  10    2.02    0.54
  -2  -6 -10    7.99    0.33
  -2  -6 -10    7.99    0.33
  -2  -6 -10    8.10    0.49
  -2  -6 -10    7.85    0.53
  -2  -6 -10    8.10    0.49
   2   6  10    8.50    0.91
  -3  -6 -10   34.48    1.15
  -3  -6 -10   35.54    0.82
  -3  -6 -10   35.54    0.82
  -3  -6 -10   32.96    1.02
  -3  -6 -10   32.96    1.02
   3   6  10   35.21    1.82
  -4  -6 -10   32.74    1.02
  -4  -6 -10   32.73    1.15
  -4  -6 -10   32.52    0.83
  -4  -6 -10   32.52    0.83
  -4  -6 -10   32.74    1.02
   4   6  10   34.68    1.86
  -5  -6 -10   69.05    1.64
  -5  -6 -10   71.65    1.89
  -5  -6 -10   69.05    1.64
  -5  -6 -10   70.70    1.42
  -5  -6 -10   70.70    1.42
  -6  -6 -10   29.08    0.99
  -6  -6 -10   29.08    0.99
  -6  -6 -10   31.29    0.87
  -6  -6 -10   31.29    0.87
  -6  -6 -10   30.14    0.72
   6   6  10   29.90    0.98
  -7  -6 -10   54.28    1.28
  -7  -6 -10   54.28    1.28
  -7  -6 -10   54.88    1.47
  -7  -6 -10   54.88    1.47
  -7  -6 -10   52.81    1.17
   7   6  10   53.60    1.42
  -8  -6 -10   21.17    0.77
  -8  -6 -10   19.63    0.86
  -8  -6 -10   19.07    0.68
  -8  -6 -10   21.17    0.77
  -8  -6 -10   19.63    0.86
   8   6  10   19.68    0.83
  -9  -6 -10   23.34    0.97
  -9  -6 -10   23.34    0.97
  -9  -6 -10   22.49    0.80
   9   6  10   23.62    0.93
   5  -7 -10    0.95    0.34
   5  -7 -10    0.75    0.21
   5  -7 -10    0.95    0.34
   5  -7 -10    0.73    0.24
  -5   7  10    0.22    0.28
  -5   7  10    0.22    0.28
   4  -7 -10   11.83    0.53
   4  -7 -10   11.83    0.63
   4  -7 -10   11.05    0.71
   4  -7 -10   11.05    0.71
   3  -7 -10   -0.27    0.15
   3  -7 -10   -0.27    0.15
   3  -7 -10   -0.06    0.10
   3  -7 -10   -0.06    0.12
   2  -7 -10   70.88    1.78
   2  -7 -10   72.64    1.67
   2  -7 -10   70.88    1.78
   2  -7 -10   73.41    1.68
   2  -7 -10   73.37    1.49
   1  -7 -10   47.02    1.33
   1  -7 -10   47.02    1.33
   1  -7 -10   45.07    1.25
  -1   7  10   45.25    1.89
   0  -7 -10    3.51    0.38
   0  -7 -10    3.58    0.43
   0  -7 -10    3.58    0.43
   0   7  10    4.85    0.77
  -1  -7 -10  164.37    2.39
  -1  -7 -10  164.37    2.39
  -1  -7 -10  160.45    3.00
  -1  -7 -10  158.01    2.99
  -1  -7 -10  158.01    2.99
   1   7  10  156.50    4.09
  -2  -7 -10   16.23    0.44
  -2  -7 -10   15.19    0.72
  -2  -7 -10   14.93    0.69
  -2  -7 -10   16.23    0.44
  -2  -7 -10   14.93    0.69
   2   7  10   15.66    1.21
  -3  -7 -10   50.70    1.02
  -3  -7 -10   50.62    1.35
  -3  -7 -10   50.62    1.35
  -3  -7 -10   51.19    1.44
  -3  -7 -10   50.70    1.02
   3   7  10   51.00    2.25
  -4  -7 -10    9.44    0.40
  -4  -7 -10    9.44    0.40
  -4  -7 -10    9.01    0.55
  -4  -7 -10   10.54    0.66
  -4  -7 -10    9.01    0.55
   4   7  10   10.55    1.08
  -5  -7 -10    0.06    0.10
  -5  -7 -10   -0.06    0.15
  -5  -7 -10   -0.02    0.16
  -5  -7 -10   -0.02    0.16
  -5  -7 -10    0.06    0.10
   5   7  10   -0.06    0.28
  -6  -7 -10   31.60    1.06
  -6  -7 -10   32.36    0.88
  -6  -7 -10   32.36    0.88
  -6  -7 -10   31.60    1.06
  -7  -7 -10  104.72    1.99
  -7  -7 -10  100.59    2.22
  -7  -7 -10  104.72    1.99
  -7  -7 -10  100.59    2.22
  -8  -7 -10    0.30    0.23
  -8  -7 -10   -0.09    0.14
  -8  -7 -10    0.13    0.11
  -8  -7 -10   -0.09    0.14
  -8  -7 -10    0.30    0.23
   8   7  10    0.11    0.19
  -9  -7 -10   83.27    1.66
  -9  -7 -10   81.67    2.02
  -9  -7 -10   84.83    1.83
  -9  -7 -10   84.83    1.83
  -9  -7 -10   81.67    2.02
   9   7  10   83.06    1.98
   4  -8 -10   18.97    0.78
   4  -8 -10   18.96    0.66
   4  -8 -10   19.09    0.94
   4  -8 -10   19.09    0.94
   3  -8 -10   21.50    0.95
   3  -8 -10   20.00    0.67
   3  -8 -10   21.23    0.80
   3  -8 -10   20.01    0.79
   3  -8 -10   21.50    0.95
   2  -8 -10    9.28    0.62
   2  -8 -10   10.06    0.55
   2  -8 -10    9.28    0.62
   1  -8 -10    0.61    0.23
   1  -8 -10    0.13    0.15
   1  -8 -10    0.61    0.23
   0  -8 -10    0.23    0.21
   0  -8 -10    0.30    0.18
   0  -8 -10    0.23    0.21
   0   8  10    0.19    0.35
  -1  -8 -10   65.57    1.65
  -1  -8 -10   67.03    1.63
  -1  -8 -10   65.57    1.65
   1   8  10   67.36    2.52
  -2  -8 -10    7.39    0.24
  -2  -8 -10    7.39    0.24
  -2  -8 -10    8.46    0.55
  -2  -8 -10    8.46    0.55
  -2  -8 -10    7.03    0.52
   2   8  10    7.53    0.89
  -3  -8 -10   59.77    1.54
  -3  -8 -10   62.68    1.65
  -3  -8 -10   60.48    1.10
  -3  -8 -10   59.77    1.54
  -3  -8 -10   60.48    1.10
   3   8  10   60.50    2.51
  -4  -8 -10   78.62    1.82
  -4  -8 -10   76.35    1.41
  -4  -8 -10   76.35    1.41
  -4  -8 -10   77.87    1.95
  -4  -8 -10   78.62    1.82
   4   8  10   75.12    2.95
  -5  -8 -10    8.49    0.39
  -5  -8 -10    7.43    0.61
  -5  -8 -10    8.34    0.56
  -5  -8 -10    8.34    0.56
  -5  -8 -10    8.49    0.39
   5   8  10    8.78    1.08
  -6  -8 -10    7.20    0.63
  -6  -8 -10    6.94    0.39
  -6  -8 -10    7.19    0.53
  -6  -8 -10    7.19    0.53
  -6  -8 -10    6.94    0.39
  -7  -8 -10    1.45    0.24
  -7  -8 -10    2.08    0.36
  -7  -8 -10    2.08    0.36
  -7  -8 -10    1.45    0.24
  -8  -8 -10    4.98    0.41
  -8  -8 -10    4.88    0.50
  -8  -8 -10    4.98    0.41
  -8  -8 -10    4.88    0.50
   3  -9 -10    1.13    0.34
   3  -9 -10    1.13    0.34
   3  -9 -10    1.18    0.26
   2  -9 -10   22.49    0.99
   2  -9 -10   22.98    0.83
   2  -9 -10   22.49    0.99
   1  -9 -10   24.89    1.01
   1  -9 -10   25.48    0.90
   1  -9 -10   24.89    1.01
   0  -9 -10    4.74    0.50
   0  -9 -10    4.65    0.42
   0  -9 -10    4.74    0.50
  -1  -9 -10   16.86    0.76
  -1  -9 -10   16.45    0.78
  -1  -9 -10   16.45    0.78
  -2  -9 -10    2.26    0.37
  -2  -9 -10    2.26    0.37
  -2  -9 -10    1.69    0.31
  -3  -9 -10    0.75    0.24
  -3  -9 -10    0.65    0.09
  -3  -9 -10    2.17    0.35
  -3  -9 -10    2.17    0.35
  -3  -9 -10    0.65    0.09
  -4  -9 -10   12.44    0.40
  -4  -9 -10   12.44    0.40
  -4  -9 -10   13.73    0.72
  -4  -9 -10   12.56    0.74
  -4  -9 -10   13.73    0.72
  -5  -9 -10   34.14    1.26
  -5  -9 -10   32.85    0.79
  -5  -9 -10   33.83    1.13
  -5  -9 -10   32.85    0.79
  -5  -9 -10   33.83    1.13
  -6  -9 -10   21.77    0.66
  -6  -9 -10   21.77    0.66
  -6  -9 -10   24.35    0.96
  -6  -9 -10   23.07    1.07
  -6  -9 -10   24.35    0.96
  -7  -9 -10    1.77    0.34
  -7  -9 -10    1.33    0.22
  -7  -9 -10    1.33    0.22
  -7  -9 -10    1.77    0.34
  -8  -9 -10   12.79    0.56
  -8  -9 -10    9.71    0.66
  -8  -9 -10   12.79    0.56
  -8  -9 -10    9.71    0.66
   1 -10 -10    3.66    0.48
   1 -10 -10    4.69    0.41
   1 -10 -10    3.66    0.48
   0 -10 -10    0.72    0.27
   0 -10 -10    0.41    0.20
   0 -10 -10    0.72    0.27
  -1 -10 -10   39.17    1.28
  -1 -10 -10   39.17    1.28
  -1 -10 -10   40.44    1.23
  -2 -10 -10   69.42    1.80
  -2 -10 -10   73.29    1.80
  -2 -10 -10   69.42    1.80
  -3 -10 -10   20.60    0.91
  -3 -10 -10   20.60    0.91
  -3 -10 -10   22.27    0.94
  -4 -10 -10    0.07    0.06
  -4 -10 -10   -0.20    0.18
  -4 -10 -10   -0.20    0.18
  -4 -10 -10    0.07    0.06
  -4 -10 -10    0.22    0.20
  -5 -10 -10   18.01    0.84
  -5 -10 -10   17.78    0.49
  -5 -10 -10   17.78    0.49
  -5 -10 -10   18.01    0.84
  -5 -10 -10   17.19    0.91
  -6 -10 -10   13.37    0.48
  -6 -10 -10   13.38    0.75
  -6 -10 -10   14.02    0.87
  -6 -10 -10   13.38    0.75
  -6 -10 -10   13.37    0.48
  -7 -10 -10    6.59    0.38
  -7 -10 -10    6.70    0.71
  -7 -10 -10    5.70    0.57
  -7 -10 -10    6.59    0.38
  -7 -10 -10    5.70    0.57
  -1 -11 -10    0.23    0.20
  -1 -11 -10    0.46    0.25
  -1 -11 -10    0.46    0.25
  -2 -11 -10   80.07    1.93
  -2 -11 -10   78.09    1.97
  -2 -11 -10   78.09    1.97
  -3 -11 -10    0.76    0.30
  -3 -11 -10    1.14    0.29
  -3 -11 -10    0.76    0.30
  -4 -11 -10   31.78    1.20
  -4 -11 -10   30.41    1.14
  -4 -11 -10   30.41    1.14
  -5 -11 -10   -0.26    0.23
  -5 -11 -10    0.14    0.22
  -5 -11 -10   -0.26    0.23
  -4  -7  11    0.17    0.18
  -4  -7  11    0.17    0.18
  -3  -7  11   34.76    1.01
  -3  -7  11   34.76    1.01
  -2  -7  11    9.94    0.51
  -2  -7  11    9.94    0.51
  -1  -7  11    0.19    0.16
  -1  -7  11    0.19    0.16
   0  -7  11   19.99    0.68
   0  -7  11   19.99    0.68
  -6  -6  11    4.55    0.39
  -5  -6  11    0.57    0.22
  -5  -6  11    0.57    0.18
  -5  -6  11    0.57    0.22
  -4  -6  11    1.20    0.26
  -4  -6  11    1.20    0.26
  -4  -6  11    0.76    0.16
  -3  -6  11    0.15    0.16
  -3  -6  11    0.15    0.16
  -2  -6  11    1.76    0.28
  -2  -6  11    1.76    0.28
  -1  -6  11    9.65    0.48
  -1  -6  11    9.65    0.48
   0  -6  11    0.12    0.14
   0  -6  11    0.12    0.14
   1  -6  11    0.82    0.33
   1  -6  11    1.40    0.21
   1  -6  11    1.40    0.21
   2  -6  11    0.65    0.16
   2  -6  11    0.65    0.16
   2  -6  11    1.86    0.44
  -6  -5  11   27.45    0.93
  -5  -5  11   21.98    0.79
  -4  -5  11    2.90    0.33
  -4  -5  11    2.90    0.33
  -4  -5  11    3.71    0.34
  -3  -5  11    7.81    0.47
  -3  -5  11    7.40    0.40
  -3  -5  11    7.81    0.47
  -2  -5  11   15.22    0.62
  -2  -5  11   16.67    0.53
  -2  -5  11   15.22    0.62
  -1  -5  11    3.13    0.31
  -1  -5  11    3.13    0.31
   0  -5  11    2.06    0.26
   0  -5  11    2.06    0.26
   1  -5  11   36.35    0.95
   1  -5  11   36.35    0.95
   2  -5  11    9.57    0.46
   2  -5  11    9.57    0.46
   2  -5  11    9.64    0.87
   3  -5  11    3.14    0.52
   3  -5  11    3.04    0.30
   3  -5  11    3.04    0.30
   4  -5  11   17.14    0.59
   4  -5  11   16.41    1.00
   4  -5  11   17.14    0.59
   7   4 -11    7.88    0.71
  -7  -4  11    8.55    0.59
  -6  -4  11   27.41    0.96
  -5  -4  11    1.63    0.28
  -4  -4  11   33.48    0.99
  -3  -4  11    4.98    0.37
  -2  -4  11   16.38    0.60
  -2  -4  11   16.75    0.64
  -2  -4  11   16.75    0.64
  -1  -4  11    4.44    0.30
  -1  -4  11    4.19    0.36
  -1  -4  11    4.19    0.36
   0   4 -11   70.25    2.07
   0  -4  11   70.68    1.48
   0  -4  11   70.68    1.48
   0  -4  11   69.31    1.29
   1  -4  11    5.28    0.36
   1  -4  11    5.28    0.36
   2  -4  11    5.87    0.37
   2  -4  11    5.87    0.37
   3  -4  11   40.15    1.01
   3  -4  11   40.15    1.01
   4  -4  11   45.65    2.06
   4  -4  11   43.76    1.07
   4  -4  11   43.76    1.07
   5  -4  11    1.61    0.23
   5  -4  11    1.55    0.44
   5  -4  11    1.61    0.23
   7   3 -11   18.03    0.88
   7   3 -11   19.49    0.80
   7   3 -11   19.49    0.80
  -7  -3  11   18.54    0.84
   6   3 -11    4.73    0.55
  -6  -3  11    4.07    0.43
   5   3 -11   38.00    1.38
  -5  -3  11   38.62    1.13
   4   3 -11   25.04    1.11
  -4  -3  11   24.75    0.86
   3   3 -11   28.51    1.19
  -3  -3  11   27.20    0.87
   2   3 -11   54.13    1.70
  -2  -3  11   50.95    1.24
   1   3 -11  208.90    4.08
  -1  -3  11  201.28    3.35
  -1  -3  11  201.71    3.33
  -1  -3  11  201.28    3.35
   0   3 -11   56.88    1.79
   0  -3  11   59.35    1.30
   0  -3  11   59.35    1.30
   0  -3  11   56.37    1.23
  -1   3 -11    4.00    0.54
   1  -3  11    3.28    0.31
   1  -3  11    3.28    0.31
   1  -3  11    3.36    0.25
   2  -3  11   27.83    0.64
   2  -3  11   26.62    0.80
   2  -3  11   26.62    0.80
   3  -3  11   -0.04    0.10
   3  -3  11   -0.04    0.10
   4  -3  11    7.37    0.42
   4  -3  11    7.37    0.42
   5  -3  11   15.55    0.59
   5  -3  11   15.55    0.59
   6  -3  11   99.45    1.90
   6  -3  11   99.45    1.90
   7   2 -11    1.24    0.28
   7   2 -11    1.24    0.28
  -7  -2  11    0.97    0.28
   6   2 -11   20.61    0.78
   6   2 -11   20.61    0.78
   6   2 -11   20.56    0.87
  -6  -2  11   19.57    0.82
   5   2 -11    1.04    0.24
   5   2 -11    1.24    0.31
   5   2 -11    1.04    0.24
  -5  -2  11    0.90    0.24
   4   2 -11    6.97    0.51
   4   2 -11    6.12    0.55
   4   2 -11    6.97    0.51
  -4  -2  11    6.37    0.45
   3   2 -11   12.16    0.76
  -3  -2  11   12.93    0.59
   2   2 -11    1.50    0.34
  -2  -2  11    0.96    0.21
   1   2 -11    5.33    0.59
  -1  -2  11    5.19    0.37
   0   2 -11    1.29    0.32
   0  -2  11    1.34    0.22
   0  -2  11    1.51    0.22
   0  -2  11    1.34    0.22
  -1   2 -11   78.70    2.12
   1  -2  11   77.88    1.55
   1  -2  11   76.96    1.57
   1  -2  11   76.96    1.57
  -2   2 -11   45.91    1.58
   2  -2  11   45.84    1.10
   2  -2  11   45.84    1.10
   2  -2  11   46.40    1.05
  -3   2 -11   17.21    0.96
   3  -2  11   16.58    0.51
   3  -2  11   16.14    0.60
   3  -2  11   16.14    0.60
   4  -2  11   25.47    0.79
   4  -2  11   25.47    0.79
   5  -2  11   15.81    0.61
   5  -2  11   15.81    0.61
   6  -2  11    0.81    0.20
   6  -2  11    0.81    0.20
   8   1 -11    2.24    0.31
   8   1 -11    2.24    0.31
   7   1 -11    1.32    0.25
   7   1 -11    1.32    0.25
   6   1 -11    6.29    0.48
   6   1 -11    6.29    0.48
   5   1 -11   63.53    1.45
   5   1 -11   63.30    1.50
   5   1 -11   63.53    1.45
  -5  -1  11   63.05    1.55
   4   1 -11   39.20    1.20
   4   1 -11   37.42    1.04
   4   1 -11   37.42    1.04
  -4  -1  11   38.21    1.10
   3   1 -11    3.61    0.35
   3   1 -11    3.61    0.35
   3   1 -11    2.67    0.37
  -3  -1  11    2.29    0.30
   2   1 -11   17.97    0.67
   2   1 -11   17.97    0.67
   2   1 -11   18.34    0.86
  -2  -1  11   16.70    0.66
   1   1 -11   14.87    0.79
  -1  -1  11   14.78    0.60
   0   1 -11    0.08    0.16
   0  -1  11    0.03    0.10
  -1   1 -11   22.40    1.00
   1  -1  11   21.87    0.71
  -2   1 -11   13.41    0.80
   2  -1  11   14.09    0.55
   2  -1  11   14.09    0.55
   2  -1  11   13.64    0.54
  -3   1 -11   55.10    1.45
  -3   1 -11   55.10    1.45
  -3   1 -11   54.37    1.69
   3  -1  11   55.22    1.24
   3  -1  11   55.22    1.24
   3  -1  11   53.50    1.20
  -4   1 -11  193.43    3.27
  -4   1 -11  192.49    3.84
  -4   1 -11  193.43    3.27
   4  -1  11  187.73    3.05
   4  -1  11  189.67    3.18
   4  -1  11  189.67    3.18
  -5   1 -11    2.70    0.33
  -5   1 -11    2.83    0.48
  -5   1 -11    2.70    0.33
   5  -1  11    2.45    0.29
   5  -1  11    3.10    0.22
   5  -1  11    2.45    0.29
  -6   1 -11   41.71    1.19
  -6   1 -11   41.71    1.19
   6  -1  11   41.54    1.08
   6  -1  11   41.54    1.08
  -7   1 -11   42.21    1.25
  -7   1 -11   42.21    1.25
   7  -1  11   42.34    1.11
   7  -1  11   42.34    1.11
   7   0 -11   33.95    0.99
   7   0 -11   33.95    0.99
   6   0 -11    1.38    0.25
   6   0 -11    1.38    0.25
   5   0 -11    0.49    0.17
   5   0 -11    0.49    0.17
   4   0 -11    5.60    0.39
   4   0 -11    6.46    0.37
   4   0 -11    5.60    0.39
   3   0 -11    0.35    0.16
   3   0 -11    0.35    0.16
   3   0 -11    0.27    0.18
   3   0 -11    0.41    0.16
   3   0 -11    0.27    0.18
  -3   0  11    1.59    0.26
   2   0 -11   66.34    1.44
   2   0 -11   65.29    1.46
   2   0 -11   67.41    1.62
   2   0 -11   65.29    1.46
   2   0 -11   66.34    1.44
  -2   0  11   67.26    1.51
   1   0 -11   13.07    0.68
   1   0 -11   14.35    0.59
   1   0 -11   13.47    0.57
   1   0 -11   13.47    0.57
   1   0 -11   14.35    0.59
  -1   0  11   14.82    0.61
   0   0 -11   35.13    0.97
   0   0 -11   35.25    0.96
   0   0 -11   35.13    0.97
   0   0 -11   34.29    1.16
   0   0 -11   35.25    0.96
   0   0  11   38.34    1.01
  -1   0 -11    5.25    0.49
  -1   0 -11    5.64    0.38
  -1   0 -11    5.64    0.38
   1   0  11    5.08    0.36
  -2   0 -11    1.54    0.24
  -2   0 -11    1.54    0.24
  -2   0 -11    0.84    0.26
   2   0  11    1.17    0.21
  -3   0 -11    1.39    0.23
  -3   0 -11    2.29    0.36
  -3   0 -11    1.39    0.23
   3   0  11    1.26    0.21
   3   0  11    1.49    0.22
   3   0  11    1.49    0.22
  -4   0 -11    4.76    0.39
  -4   0 -11    4.76    0.39
  -4   0 -11    6.20    0.56
   4   0  11    5.24    0.36
   4   0  11    5.24    0.36
   4   0  11    5.19    0.35
  -5   0 -11   11.31    0.57
  -5   0 -11   11.31    0.57
  -5   0 -11   10.27    0.71
   5   0  11   10.04    0.50
   5   0  11   10.04    0.50
   5   0  11   10.16    0.46
  -6   0 -11   29.34    0.98
  -6   0 -11   29.34    0.98
  -6   0 -11   29.44    1.18
   6   0  11   29.44    0.77
   6   0  11   29.72    0.89
   6   0  11   29.72    0.89
  -7   0 -11   43.89    1.27
  -7   0 -11   44.48    1.49
  -7   0 -11   43.89    1.27
   7   0  11   42.96    1.13
   7   0  11   42.96    1.13
  -8   0 -11   18.18    0.85
  -8   0 -11   18.18    0.85
   7  -1 -11    2.79    0.47
   7  -1 -11    2.46    0.40
   7  -1 -11    2.55    0.30
   7  -1 -11    2.86    0.40
   7  -1 -11    2.55    0.30
   7  -1 -11    2.46    0.40
  -7   1  11    2.80    0.41
  -7   1  11    2.80    0.41
   6  -1 -11   42.23    1.26
   6  -1 -11   38.89    1.20
   6  -1 -11   39.34    1.04
   6  -1 -11   42.23    1.26
   6  -1 -11   38.88    1.40
   6  -1 -11   39.34    1.04
  -6   1  11   40.52    1.23
  -6   1  11   40.52    1.23
   5  -1 -11    0.33    0.21
   5  -1 -11    0.06    0.14
   5  -1 -11    0.32    0.25
   5  -1 -11    0.30    0.22
   5  -1 -11    0.30    0.22
   5  -1 -11    0.06    0.14
   4  -1 -11    6.93    0.41
   4  -1 -11    6.58    0.47
   4  -1 -11    6.93    0.41
   4  -1 -11    7.21    0.48
   4  -1 -11    7.21    0.59
   4  -1 -11    6.58    0.47
   3  -1 -11    2.03    0.30
   3  -1 -11    2.21    0.32
   3  -1 -11    2.36    0.28
   3  -1 -11    2.15    0.38
   3  -1 -11    2.36    0.28
   3  -1 -11    2.03    0.30
   2  -1 -11    4.52    0.31
   2  -1 -11    3.53    0.35
   2  -1 -11    4.55    0.36
   2  -1 -11    4.68    0.42
   2  -1 -11    3.53    0.35
   2  -1 -11    4.55    0.49
   2  -1 -11    4.55    0.36
  -2   1  11    5.93    1.01
   1  -1 -11    3.70    0.36
   1  -1 -11    4.61    0.37
   1  -1 -11    4.61    0.37
   1  -1 -11    4.91    0.36
   1  -1 -11    3.70    0.36
  -1   1  11    5.26    0.50
  -1   1  11    4.85    0.37
   0  -1 -11   14.35    0.59
   0  -1 -11   14.35    0.59
   0  -1 -11   13.45    0.55
   0  -1 -11   13.45    0.55
   0  -1 -11   13.04    0.62
   0   1  11   13.44    0.74
   0   1  11   13.48    0.58
  -1  -1 -11   99.84    1.95
  -1  -1 -11   96.90    2.09
  -1  -1 -11   99.84    1.95
  -1  -1 -11   98.18    1.90
  -1  -1 -11   98.18    1.90
   1   1  11  101.00    2.28
   1   1  11   98.41    1.94
  -2  -1 -11    9.92    0.51
  -2  -1 -11    9.81    0.59
  -2  -1 -11    9.92    0.51
   2   1  11   10.66    0.78
   2   1  11   10.05    0.50
  -3  -1 -11   42.24    1.27
  -3  -1 -11   42.56    1.12
  -3  -1 -11   42.56    1.12
   3   1  11   41.59    1.08
  -4  -1 -11   12.93    0.60
  -4  -1 -11   14.17    0.72
  -4  -1 -11   12.93    0.60
   4   1  11   13.17    0.57
  -5  -1 -11   30.44    0.95
  -5  -1 -11   29.13    1.07
  -5  -1 -11   30.44    0.95
   5   1  11   28.45    0.86
  -6  -1 -11   78.08    1.76
  -6  -1 -11   78.08    1.76
  -6  -1 -11   77.79    1.95
   6   1  11   78.59    1.61
   6   1  11   77.67    1.65
   6   1  11   77.67    1.65
  -7  -1 -11   11.63    0.65
  -7  -1 -11   11.63    0.65
  -7  -1 -11   11.92    0.72
   7   1  11   11.98    0.57
   7   1  11   11.98    0.57
   7   1  11   11.72    0.49
  -8  -1 -11    0.14    0.22
  -8  -1 -11    0.14    0.22
  -8  -1 -11    0.39    0.25
   8   1  11    0.18    0.16
   8   1  11    0.18    0.16
   7  -2 -11    8.42    0.43
   7  -2 -11    9.32    0.66
   7  -2 -11    9.32    0.66
   7  -2 -11    8.42    0.43
   7  -2 -11    9.46    0.74
   7  -2 -11    9.45    0.61
  -7   2  11    9.03    0.65
  -7   2  11    9.03    0.65
   6  -2 -11    7.85    0.58
   6  -2 -11    7.85    0.58
   6  -2 -11    7.86    0.66
   6  -2 -11    7.40    0.40
   6  -2 -11    7.40    0.40
   6  -2 -11    7.85    0.54
  -6   2  11    7.91    0.59
  -6   2  11    7.91    0.59
   5  -2 -11    6.39    0.48
   5  -2 -11    5.60    0.52
   5  -2 -11    5.60    0.52
   5  -2 -11    6.39    0.58
   5  -2 -11    6.21    0.38
   5  -2 -11    6.21    0.38
   4  -2 -11   47.14    1.09
   4  -2 -11   46.83    1.24
   4  -2 -11   46.83    1.44
   4  -2 -11   47.14    1.09
   4  -2 -11   45.71    1.29
   4  -2 -11   45.71    1.29
   3  -2 -11    1.11    0.24
   3  -2 -11    2.41    0.34
   3  -2 -11    0.87    0.19
   3  -2 -11    0.87    0.19
   3  -2 -11    2.41    0.34
   3  -2 -11    1.08    0.28
   2  -2 -11    0.36    0.14
   2  -2 -11    0.67    0.24
   2  -2 -11    0.69    0.21
   2  -2 -11    0.47    0.20
   2  -2 -11    0.47    0.20
   2  -2 -11    0.36    0.14
  -2   2  11    0.53    0.39
   1  -2 -11  170.99    3.03
   1  -2 -11  171.11    3.00
   1  -2 -11  170.99    3.03
   1  -2 -11  177.84    2.89
   1  -2 -11  171.30    2.62
   1  -2 -11  177.84    2.89
   1  -2 -11  171.17    3.27
   1  -2 -11  172.22    3.28
  -1   2  11  170.12    4.36
   0  -2 -11   37.43    1.04
   0  -2 -11   36.70    0.89
   0  -2 -11   36.19    0.94
   0  -2 -11   36.19    0.94
   0  -2 -11   37.43    1.04
   0  -2 -11   36.39    1.21
   0   2  11   36.32    1.00
   0   2  11   39.51    1.88
  -1  -2 -11    6.36    0.38
  -1  -2 -11    6.36    0.38
  -1  -2 -11    6.01    0.38
  -1  -2 -11    5.90    0.42
  -1  -2 -11    5.90    0.42
   1   2  11    6.33    0.41
  -2  -2 -11   62.51    1.44
  -2  -2 -11   63.07    1.38
  -2  -2 -11   64.05    1.44
  -2  -2 -11   62.51    1.44
  -2  -2 -11   63.07    1.38
   2   2  11   63.31    1.42
  -3  -2 -11  187.30    3.30
  -3  -2 -11  190.91    3.18
  -3  -2 -11  189.27    3.26
  -3  -2 -11  190.91    3.18
  -3  -2 -11  189.27    3.26
   3   2  11  187.40    3.23
  -4  -2 -11   60.43    1.44
  -4  -2 -11   60.43    1.44
  -4  -2 -11   61.12    1.50
   4   2  11   62.51    1.42
  -5  -2 -11    9.05    0.55
  -5  -2 -11    8.35    0.51
  -5  -2 -11    8.35    0.51
   5   2  11    8.31    0.47
  -6  -2 -11    5.44    0.45
  -6  -2 -11    5.69    0.47
  -6  -2 -11    5.44    0.45
   6   2  11    5.87    0.40
  -7  -2 -11   51.21    1.41
  -7  -2 -11   51.21    1.41
  -7  -2 -11   52.84    1.48
   7   2  11   54.05    1.28
  -8  -2 -11    4.95    0.51
  -8  -2 -11    4.02    0.47
  -8  -2 -11    4.95    0.51
   8   2  11    4.62    0.35
   8   2  11    4.80    0.44
   8   2  11    4.80    0.44
   7  -3 -11   23.23    0.61
   7  -3 -11   23.61    0.93
   7  -3 -11   22.08    1.00
   7  -3 -11   23.23    0.61
   7  -3 -11   22.08    1.00
   7  -3 -11   23.62    1.10
  -7   3  11   26.68    1.08
  -7   3  11   26.68    1.08
   6  -3 -11    1.09    0.33
   6  -3 -11    1.09    0.33
   6  -3 -11    0.55    0.15
   6  -3 -11    1.03    0.27
   6  -3 -11    1.01    0.32
   6  -3 -11    0.55    0.15
  -6   3  11    0.63    0.29
  -6   3  11    0.63    0.29
   5  -3 -11    5.68    0.33
   5  -3 -11    5.30    0.53
   5  -3 -11    5.68    0.33
   5  -3 -11    5.30    0.53
   5  -3 -11    6.40    0.47
   5  -3 -11    6.40    0.57
   4  -3 -11    8.45    0.57
   4  -3 -11    9.06    0.62
   4  -3 -11    8.45    0.57
   4  -3 -11    7.80    0.38
   4  -3 -11    9.06    0.52
   4  -3 -11    7.80    0.38
   3  -3 -11    9.69    0.43
   3  -3 -11    9.83    0.58
   3  -3 -11    9.69    0.43
   3  -3 -11    8.95    0.60
   3  -3 -11    9.83    0.58
   3  -3 -11    8.94    0.50
   2  -3 -11    6.24    0.46
   2  -3 -11    5.64    0.41
   2  -3 -11    6.24    0.46
   2  -3 -11    5.65    0.50
   2  -3 -11    6.31    0.36
   2  -3 -11    6.31    0.36
  -2   3  11    5.29    0.75
   1  -3 -11  395.96    6.34
   1  -3 -11  389.78    6.12
   1  -3 -11  394.66    5.85
   1  -3 -11  389.78    6.12
   1  -3 -11  395.94    6.03
   1  -3 -11  396.91    6.35
   1  -3 -11  394.66    5.85
  -1   3  11  400.50    7.72
   0  -3 -11    1.59    0.31
   0  -3 -11    1.44    0.29
   0  -3 -11    1.59    0.31
   0  -3 -11    1.33    0.22
   0  -3 -11    1.33    0.22
   0   3  11    1.38    0.51
  -1  -3 -11   97.45    1.66
  -1  -3 -11   99.58    2.23
  -1  -3 -11  104.12    2.05
  -1  -3 -11   98.29    1.85
  -1  -3 -11  104.12    2.05
  -1  -3 -11   98.29    1.85
   1   3  11   98.32    3.15
  -2  -3 -11    1.99    0.22
  -2  -3 -11    2.33    0.32
  -2  -3 -11    1.45    0.22
  -2  -3 -11    2.33    0.32
  -2  -3 -11    1.45    0.22
   2   3  11    1.18    0.21
  -3  -3 -11   24.18    0.75
  -3  -3 -11   23.12    0.82
  -3  -3 -11   24.18    0.75
  -3  -3 -11   23.12    0.82
  -3  -3 -11   23.48    0.72
   3   3  11   23.94    0.80
  -4  -3 -11    1.19    0.26
  -4  -3 -11    1.09    0.20
  -4  -3 -11    1.30    0.22
  -4  -3 -11    1.19    0.26
  -4  -3 -11    1.30    0.22
   4   3  11    1.27    0.23
  -5  -3 -11   30.94    0.99
  -5  -3 -11   30.94    0.99
  -5  -3 -11   27.36    0.90
   5   3  11   29.19    0.93
  -6  -3 -11   40.13    1.18
  -6  -3 -11   40.13    1.18
  -6  -3 -11   41.16    1.16
   6   3  11   42.11    1.15
  -7  -3 -11    1.04    0.27
  -7  -3 -11    1.04    0.27
  -7  -3 -11    1.00    0.25
   7   3  11    1.34    0.25
  -8  -3 -11   -0.06    0.19
  -8  -3 -11    0.15    0.19
  -8  -3 -11   -0.06    0.19
   8   3  11    0.40    0.18
   6  -4 -11    4.53    0.55
   6  -4 -11    4.91    0.46
   6  -4 -11    4.72    0.18
   6  -4 -11    4.72    0.18
   6  -4 -11    4.53    0.55
   6  -4 -11    4.78    0.54
  -6   4  11    4.76    0.56
  -6   4  11    4.76    0.56
   5  -4 -11   62.51    1.12
   5  -4 -11   62.60    1.68
   5  -4 -11   62.74    1.50
   5  -4 -11   62.77    1.72
   5  -4 -11   62.60    1.68
   5  -4 -11   62.51    1.12
   4  -4 -11    0.42    0.12
   4  -4 -11    0.52    0.25
   4  -4 -11    0.55    0.20
   4  -4 -11    0.52    0.25
   4  -4 -11    0.42    0.12
   4  -4 -11    0.53    0.24
   3  -4 -11   11.02    0.54
   3  -4 -11   10.53    0.40
   3  -4 -11   11.50    0.64
   3  -4 -11   11.50    0.64
   3  -4 -11   11.03    0.64
   3  -4 -11   10.53    0.40
   2  -4 -11   28.97    0.99
   2  -4 -11   29.19    1.04
   2  -4 -11   29.93    0.74
   2  -4 -11   29.93    0.74
   2  -4 -11   29.18    0.89
   2  -4 -11   28.97    0.99
  -2   4  11   29.24    1.59
   1  -4 -11    1.30    0.18
   1  -4 -11    0.84    0.20
   1  -4 -11    0.83    0.25
   1  -4 -11    1.30    0.18
   1  -4 -11    0.80    0.22
   1  -4 -11    0.82    0.24
   1  -4 -11    0.80    0.22
  -1   4  11    1.52    0.49
   0  -4 -11    9.16    0.41
   0  -4 -11    8.98    0.60
   0  -4 -11    8.12    0.52
   0  -4 -11    8.12    0.52
   0  -4 -11    9.16    0.41
   0   4  11    8.09    0.91
  -1  -4 -11  303.39    5.05
  -1  -4 -11  289.79    4.80
  -1  -4 -11  301.49    4.54
  -1  -4 -11  289.79    4.80
  -1  -4 -11  301.49    4.54
   1   4  11  305.82    6.42
  -2  -4 -11   53.07    1.36
  -2  -4 -11   53.27    1.17
  -2  -4 -11   54.17    1.00
  -2  -4 -11   54.87    1.53
  -2  -4 -11   53.07    1.36
  -2  -4 -11   53.27    1.17
   2   4  11   54.87    2.31
  -3  -4 -11  177.79    2.95
  -3  -4 -11  177.79    2.95
  -3  -4 -11  180.17    3.17
  -3  -4 -11  180.17    3.17
  -3  -4 -11  175.64    2.77
   3   4  11  174.41    3.44
  -4  -4 -11   22.52    0.72
  -4  -4 -11   22.52    0.72
  -4  -4 -11   22.58    0.84
  -4  -4 -11   22.58    0.66
  -4  -4 -11   22.58    0.84
   4   4  11   22.65    0.80
  -5  -4 -11    0.21    0.14
  -5  -4 -11    0.30    0.19
  -5  -4 -11    0.30    0.19
  -5  -4 -11    0.21    0.14
   5   4  11    0.04    0.14
  -6  -4 -11    0.20    0.19
  -6  -4 -11    0.35    0.15
  -6  -4 -11    0.20    0.19
   6   4  11    0.11    0.14
  -7  -4 -11    3.70    0.41
  -7  -4 -11    4.02    0.37
  -7  -4 -11    3.70    0.41
   7   4  11    4.61    0.41
  -8  -4 -11   81.11    1.95
  -8  -4 -11   81.41    1.83
  -8  -4 -11   81.11    1.95
   8   4  11   80.55    1.82
   6  -5 -11    7.64    0.52
   6  -5 -11    7.64    0.63
   6  -5 -11    8.17    0.66
   6  -5 -11    8.17    0.66
  -6   5  11    7.03    0.69
  -6   5  11    7.03    0.69
   5  -5 -11   33.25    1.21
   5  -5 -11   33.47    1.03
   5  -5 -11   33.25    1.21
   5  -5 -11   33.46    1.21
   4  -5 -11  157.91    2.78
   4  -5 -11  157.92    3.06
   4  -5 -11  149.42    3.02
   4  -5 -11  149.42    3.02
   3  -5 -11    5.48    0.49
   3  -5 -11    4.72    0.21
   3  -5 -11    4.72    0.21
   3  -5 -11    5.47    0.40
   3  -5 -11    4.15    0.45
   3  -5 -11    4.15    0.45
  -3   5  11    5.20    0.76
   2  -5 -11   33.83    0.71
   2  -5 -11   32.81    1.09
   2  -5 -11   33.23    1.11
   2  -5 -11   33.79    1.12
   2  -5 -11   33.83    0.71
   2  -5 -11   32.81    1.09
   2  -5 -11   33.80    0.96
  -2   5  11   34.64    1.72
   1  -5 -11   13.70    0.70
   1  -5 -11   14.38    0.45
   1  -5 -11   14.97    0.71
   1  -5 -11   14.97    0.71
   1  -5 -11   14.38    0.45
  -1   5  11   13.96    1.13
   0  -5 -11   38.89    1.15
   0  -5 -11   37.19    0.84
   0  -5 -11   37.56    1.20
   0  -5 -11   37.19    0.84
   0  -5 -11   38.89    1.15
   0   5  11   36.55    1.81
  -1  -5 -11  129.06    2.17
  -1  -5 -11  129.06    2.17
  -1  -5 -11  127.56    2.51
  -1  -5 -11  132.55    2.67
  -1  -5 -11  127.56    2.51
   1   5  11  131.57    3.73
  -2  -5 -11  111.55    1.97
  -2  -5 -11  112.18    2.44
  -2  -5 -11  113.27    2.28
  -2  -5 -11  113.27    2.28
  -2  -5 -11  111.55    1.97
   2   5  11  115.58    3.51
  -3  -5 -11   25.60    1.02
  -3  -5 -11   24.64    0.90
  -3  -5 -11   24.64    0.90
  -3  -5 -11   27.16    0.75
  -3  -5 -11   27.16    0.75
   3   5  11   24.82    1.61
  -4  -5 -11  103.38    1.69
  -4  -5 -11  104.33    2.17
  -4  -5 -11  103.61    1.93
  -4  -5 -11  103.61    1.93
  -4  -5 -11  104.33    2.17
  -5  -5 -11   11.95    0.64
  -5  -5 -11   11.95    0.64
  -5  -5 -11   12.49    0.53
  -5  -5 -11   11.93    0.45
  -5  -5 -11   12.49    0.53
   5   5  11   12.50    0.61
  -6  -5 -11   31.13    1.05
  -6  -5 -11   31.13    1.05
  -6  -5 -11   31.24    0.85
  -6  -5 -11   33.37    0.94
  -6  -5 -11   33.37    0.94
   6   5  11   32.66    1.04
  -7  -5 -11    0.75    0.24
  -7  -5 -11    0.75    0.24
  -7  -5 -11    1.15    0.21
   7   5  11    1.30    0.27
  -8  -5 -11   67.28    1.75
  -8  -5 -11   67.28    1.75
  -8  -5 -11   68.66    1.57
   8   5  11   69.65    1.69
   5  -6 -11   12.42    0.77
   5  -6 -11   12.49    0.73
   5  -6 -11   12.42    0.77
   5  -6 -11   12.50    0.61
   4  -6 -11    3.84    0.49
   4  -6 -11    4.48    0.48
   4  -6 -11    4.60    0.41
   4  -6 -11    3.84    0.49
   3  -6 -11    1.97    0.29
   3  -6 -11    1.33    0.30
   3  -6 -11    1.91    0.34
   3  -6 -11    1.33    0.30
   2  -6 -11   28.75    0.87
   2  -6 -11   28.77    1.02
   2  -6 -11   29.24    1.02
   2  -6 -11   27.07    1.02
   2  -6 -11   27.07    1.02
  -2   6  11   29.00    2.10
   1  -6 -11    4.38    0.43
   1  -6 -11    4.22    0.20
   1  -6 -11    3.83    0.42
   1  -6 -11    3.83    0.42
   1  -6 -11    4.22    0.20
  -1   6  11    4.14    0.72
   0  -6 -11   12.96    0.67
   0  -6 -11   12.96    0.67
   0  -6 -11   13.03    0.40
   0  -6 -11   13.03    0.40
   0  -6 -11   13.27    0.69
   0   6  11   12.55    1.08
  -1  -6 -11   20.88    0.56
  -1  -6 -11   20.88    0.56
  -1  -6 -11   20.15    0.83
  -1  -6 -11   20.15    0.83
  -1  -6 -11   21.48    0.89
   1   6  11   20.61    1.39
  -2  -6 -11    3.95    0.44
  -2  -6 -11    4.63    0.47
  -2  -6 -11    4.63    0.47
  -2  -6 -11    4.15    0.27
  -2  -6 -11    4.15    0.27
   2   6  11    4.56    0.82
  -3  -6 -11    6.65    0.35
  -3  -6 -11    6.68    0.50
  -3  -6 -11    6.68    0.50
  -3  -6 -11    6.65    0.35
  -3  -6 -11    7.19    0.57
   3   6  11    7.44    0.94
  -4  -6 -11    4.15    0.33
  -4  -6 -11    4.31    0.53
  -4  -6 -11    4.15    0.33
  -4  -6 -11    5.07    0.49
  -4  -6 -11    5.07    0.49
   4   6  11    3.94    0.78
  -5  -6 -11   16.16    0.60
  -5  -6 -11   17.16    0.77
  -5  -6 -11   16.16    0.60
  -5  -6 -11   17.16    0.77
  -6  -6 -11   90.83    1.56
  -6  -6 -11   90.89    1.79
  -6  -6 -11   84.36    1.99
  -6  -6 -11   84.36    1.99
  -6  -6 -11   90.89    1.79
   6   6  11   91.37    1.99
  -7  -6 -11    4.38    0.49
  -7  -6 -11    4.38    0.49
  -7  -6 -11    3.79    0.29
  -7  -6 -11    3.65    0.35
  -7  -6 -11    3.65    0.35
   7   6  11    3.91    0.42
  -8  -6 -11   93.53    1.87
  -8  -6 -11   98.89    2.13
  -8  -6 -11   98.89    2.13
  -8  -6 -11   96.20    2.22
  -8  -6 -11   96.20    2.22
   8   6  11   96.99    2.16
   4  -7 -11   39.02    1.35
   4  -7 -11   39.02    1.35
   4  -7 -11   38.72    1.23
   4  -7 -11   38.71    1.06
   3  -7 -11    7.81    0.55
   3  -7 -11    8.05    0.62
   3  -7 -11    7.95    0.47
   3  -7 -11    7.95    0.56
   3  -7 -11    8.05    0.62
   2  -7 -11    2.21    0.29
   2  -7 -11    1.76    0.36
   2  -7 -11    2.35    0.35
   2  -7 -11    2.15    0.34
   2  -7 -11    1.76    0.36
   1  -7 -11    5.32    0.52
   1  -7 -11    5.34    0.46
   1  -7 -11    5.32    0.52
   0  -7 -11   24.99    0.47
   0  -7 -11   23.85    0.93
   0  -7 -11   23.63    0.93
   0  -7 -11   24.99    0.47
   0  -7 -11   23.63    0.93
   0   7  11   25.65    1.53
  -1  -7 -11   34.14    0.70
  -1  -7 -11   34.94    1.14
  -1  -7 -11   35.24    1.16
  -1  -7 -11   34.14    0.70
  -1  -7 -11   34.94    1.14
   1   7  11   33.69    1.80
  -2  -7 -11   39.49    0.84
  -2  -7 -11   39.24    1.27
  -2  -7 -11   39.49    0.84
  -2  -7 -11   40.95    1.23
  -2  -7 -11   40.95    1.23
   2   7  11   40.54    2.04
  -3  -7 -11   14.03    0.71
  -3  -7 -11   13.48    0.47
  -3  -7 -11   14.03    0.71
  -3  -7 -11   15.32    0.80
  -3  -7 -11   13.48    0.47
   3   7  11   14.63    1.28
  -4  -7 -11    1.80    0.32
  -4  -7 -11    1.49    0.20
  -4  -7 -11    1.49    0.20
  -4  -7 -11    1.84    0.36
  -4  -7 -11    1.80    0.32
   4   7  11    1.62    0.56
  -5  -7 -11   10.25    0.46
  -5  -7 -11   10.42    0.72
  -5  -7 -11   11.38    0.65
  -5  -7 -11   11.38    0.65
  -5  -7 -11   10.25    0.46
  -6  -7 -11    2.08    0.36
  -6  -7 -11    2.17    0.29
  -6  -7 -11    2.17    0.29
  -6  -7 -11    2.08    0.36
  -7  -7 -11   47.49    1.19
  -7  -7 -11   46.28    1.40
  -7  -7 -11   47.49    1.19
  -7  -7 -11   46.28    1.40
  -8  -7 -11    2.15    0.39
  -8  -7 -11    1.55    0.27
  -8  -7 -11    2.15    0.39
  -8  -7 -11    1.55    0.27
   8   7  11    1.79    0.34
   3  -8 -11    1.03    0.34
   3  -8 -11    1.19    0.27
   3  -8 -11    1.57    0.25
   3  -8 -11    1.03    0.34
   3  -8 -11    1.53    0.30
   2  -8 -11   36.92    1.27
   2  -8 -11   36.92    1.27
   2  -8 -11   35.09    1.15
   1  -8 -11   11.20    0.68
   1  -8 -11   11.19    0.63
   1  -8 -11   11.20    0.68
   0  -8 -11    0.47    0.24
   0  -8 -11    0.89    0.25
   0  -8 -11    0.47    0.24
  -1  -8 -11    0.72    0.25
  -1  -8 -11    0.72    0.25
  -1  -8 -11    0.63    0.23
  -2  -8 -11    1.47    0.32
  -2  -8 -11    2.20    0.36
  -2  -8 -11    1.47    0.32
  -2  -8 -11    2.23    0.17
  -2  -8 -11    2.23    0.17
  -3  -8 -11   65.78    1.67
  -3  -8 -11   64.63    1.20
  -3  -8 -11   65.78    1.67
  -3  -8 -11   65.60    1.77
  -3  -8 -11   64.63    1.20
   3   8  11   58.83    3.84
  -4  -8 -11   20.23    0.96
  -4  -8 -11   19.62    0.86
  -4  -8 -11   19.62    0.86
  -4  -8 -11   19.83    0.59
  -4  -8 -11   19.83    0.59
   4   8  11   17.65    1.96
  -5  -8 -11   30.63    1.08
  -5  -8 -11   28.53    0.78
  -5  -8 -11   29.56    1.20
  -5  -8 -11   30.63    1.08
  -5  -8 -11   28.53    0.78
   5   8  11   28.87    2.87
  -6  -8 -11   79.32    1.61
  -6  -8 -11   80.56    1.95
  -6  -8 -11   79.32    1.61
  -6  -8 -11   80.56    1.95
  -7  -8 -11    0.97    0.21
  -7  -8 -11    0.97    0.21
  -7  -8 -11    0.27    0.23
  -7  -8 -11    0.27    0.23
  -8  -8 -11   44.81    1.43
  -8  -8 -11   44.81    1.43
   2  -9 -11    2.66    0.43
   2  -9 -11    2.66    0.43
   2  -9 -11    2.91    0.37
   1  -9 -11   28.23    1.01
   1  -9 -11   28.72    1.13
   1  -9 -11   28.72    1.13
   0  -9 -11   37.94    1.28
   0  -9 -11   37.51    1.21
   0  -9 -11   37.94    1.28
  -1  -9 -11   32.02    1.15
  -1  -9 -11   33.18    1.14
  -1  -9 -11   32.02    1.15
  -2  -9 -11    0.30    0.23
  -2  -9 -11    0.93    0.27
  -2  -9 -11    0.30    0.23
  -3  -9 -11   56.17    1.57
  -3  -9 -11   55.59    1.61
  -3  -9 -11   56.17    1.57
  -3  -9 -11   55.00    0.96
  -3  -9 -11   55.00    0.96
  -4  -9 -11    7.01    0.56
  -4  -9 -11    6.44    0.30
  -4  -9 -11    6.81    0.60
  -4  -9 -11    6.44    0.30
  -4  -9 -11    7.01    0.56
  -5  -9 -11    9.79    0.73
  -5  -9 -11   10.60    0.43
  -5  -9 -11   10.60    0.43
  -5  -9 -11   10.02    0.66
  -5  -9 -11   10.02    0.66
  -6  -9 -11   41.82    1.52
  -6  -9 -11   42.86    1.02
  -6  -9 -11   44.24    1.37
  -6  -9 -11   44.24    1.37
  -6  -9 -11   42.86    1.02
  -7  -9 -11    2.56    0.43
  -7  -9 -11    2.56    0.43
  -7  -9 -11    2.23    0.27
  -7  -9 -11    2.23    0.27
   0 -10 -11   34.15    1.24
   0 -10 -11   32.68    1.12
   0 -10 -11   34.15    1.24
  -1 -10 -11   52.46    1.56
  -1 -10 -11   48.34    1.44
  -1 -10 -11   52.46    1.56
  -2 -10 -11    0.17    0.20
  -2 -10 -11    0.10    0.23
  -2 -10 -11    0.10    0.23
  -3 -10 -11   46.98    1.49
  -3 -10 -11   48.64    1.48
  -3 -10 -11   48.64    1.48
  -4 -10 -11    1.65    0.13
  -4 -10 -11    1.29    0.34
  -4 -10 -11    1.65    0.13
  -4 -10 -11    1.60    0.36
  -4 -10 -11    1.29    0.34
  -5 -10 -11   24.59    1.02
  -5 -10 -11   22.36    0.59
  -5 -10 -11   24.33    1.11
  -5 -10 -11   24.59    1.02
  -5 -10 -11   22.36    0.59
  -6 -10 -11   -0.08    0.21
  -6 -10 -11   -0.08    0.21
  -4  -6  12    0.12    0.18
  -4  -6  12    0.12    0.18
  -3  -6  12    2.22    0.33
  -3  -6  12    2.22    0.33
  -2  -6  12    7.09    0.48
  -2  -6  12    7.09    0.48
  -1  -6  12  124.54    2.33
  -1  -6  12  124.54    2.33
   0  -6  12   62.65    1.41
   0  -6  12   62.65    1.41
  -5  -5  12   44.80    1.21
  -4  -5  12   19.17    0.71
  -3  -5  12   11.29    0.58
  -3  -5  12   11.29    0.58
  -3  -5  12   11.98    0.51
  -2  -5  12   -0.20    0.15
  -2  -5  12   -0.20    0.15
  -2  -5  12   -0.08    0.10
   1   5 -12    1.25    0.42
  -1  -5  12    0.66    0.21
  -1  -5  12    0.66    0.21
   0  -5  12    0.12    0.14
   0  -5  12    0.12    0.14
   1  -5  12   21.99    0.75
   1  -5  12   21.99    0.75
   2  -5  12    0.88    0.20
   2  -5  12    0.88    0.20
   6   4 -12   20.94    1.10
  -6  -4  12   21.58    0.88
   5   4 -12    2.53    0.50
  -5  -4  12    3.50    0.41
   4   4 -12   17.06    1.02
  -4  -4  12   18.31    0.73
   3   4 -12    8.97    0.78
  -3  -4  12    9.41    0.51
   2   4 -12   54.59    1.87
  -2  -4  12   57.97    1.36
  -2  -4  12   57.97    1.36
  -2  -4  12   54.65    1.27
   1   4 -12   20.04    1.13
  -1  -4  12   20.22    0.64
  -1  -4  12   19.36    0.72
  -1  -4  12   19.36    0.72
   0   4 -12    6.55    0.75
   0  -4  12    5.18    0.41
   0  -4  12    5.18    0.41
   0  -4  12    5.78    0.30
   1  -4  12   34.87    0.97
   1  -4  12   34.87    0.97
   2  -4  12    0.28    0.15
   2  -4  12    0.28    0.15
   3  -4  12   44.17    1.11
   3  -4  12   44.17    1.11
   4  -4  12    1.07    0.23
   4  -4  12    1.07    0.23
   6   3 -12    7.54    0.66
  -6  -3  12    7.40    0.55
   5   3 -12   11.20    0.79
  -5  -3  12   10.71    0.62
   4   3 -12    2.54    0.47
  -4  -3  12    2.37    0.33
   3   3 -12    2.94    0.50
  -3  -3  12    2.67    0.33
   2   3 -12    1.17    0.36
  -2  -3  12    1.40    0.24
   1   3 -12   38.23    1.49
  -1  -3  12   38.25    1.02
  -1  -3  12   38.10    1.07
  -1  -3  12   38.10    1.07
   0   3 -12    1.23    0.39
   0  -3  12    1.98    0.27
   0  -3  12    1.55    0.22
   0  -3  12    1.98    0.27
  -1   3 -12   19.90    1.11
   1  -3  12   20.43    0.72
   1  -3  12   20.43    0.72
   1  -3  12   19.33    0.61
  -2   3 -12    6.37    0.75
   2  -3  12    7.21    0.43
   2  -3  12    7.21    0.43
   3  -3  12    2.07    0.26
   3  -3  12    2.07    0.26
   4  -3  12    3.72    0.36
   4  -3  12    3.72    0.36
   5  -3  12   27.30    0.85
   5  -3  12   27.30    0.85
   7   2 -12    0.41    0.21
   7   2 -12    0.41    0.21
  -7  -2  12    0.74    0.27
   6   2 -12   33.17    1.09
   6   2 -12   32.64    1.03
   6   2 -12   32.64    1.03
  -6  -2  12   32.67    1.12
   5   2 -12   23.02    0.86
   5   2 -12   23.02    0.86
   5   2 -12   22.93    0.99
  -5  -2  12   24.39    0.92
   4   2 -12   18.94    0.95
  -4  -2  12   19.69    0.80
   3   2 -12   64.47    1.86
  -3  -2  12   64.12    1.53
   2   2 -12   12.03    0.79
  -2  -2  12   11.86    0.58
   1   2 -12    5.92    0.64
  -1  -2  12    5.88    0.41
   0   2 -12    4.75    0.60
   0  -2  12    4.83    0.36
  -1   2 -12   58.85    1.84
   1  -2  12   58.20    1.34
   1  -2  12   58.20    1.34
   1  -2  12   57.19    1.29
  -2   2 -12    1.45    0.38
   2  -2  12    1.98    0.27
   2  -2  12    1.70    0.22
   2  -2  12    1.98    0.27
  -3   2 -12   51.08    1.77
   3  -2  12   52.12    1.24
   3  -2  12   53.02    1.09
   3  -2  12   52.12    1.24
   4  -2  12   17.68    0.68
   4  -2  12   17.68    0.68
   5  -2  12   41.76    1.10
   5  -2  12   41.76    1.10
   7   1 -12   16.36    0.72
   7   1 -12   16.36    0.72
   6   1 -12    0.05    0.18
   6   1 -12    0.05    0.18
  -6  -1  12    0.13    0.22
   5   1 -12    2.65    0.33
   5   1 -12    2.57    0.33
   5   1 -12    2.65    0.33
  -5  -1  12    3.13    0.41
   4   1 -12   84.27    1.94
   4   1 -12   83.30    1.80
   4   1 -12   83.30    1.80
  -4  -1  12   84.78    1.88
   3   1 -12    3.70    0.39
   3   1 -12    3.70    0.39
   3   1 -12    3.57    0.45
  -3  -1  12    3.53    0.38
   2   1 -12   61.22    1.72
  -2  -1  12   63.64    1.49
   1   1 -12    8.33    0.66
  -1  -1  12    9.39    0.51
   0   1 -12   26.14    1.12
   0  -1  12   26.95    0.85
  -1   1 -12   28.00    1.17
   1  -1  12   26.89    0.84
  -2   1 -12    3.38    0.50
   2  -1  12    3.79    0.36
   2  -1  12    3.79    0.36
   2  -1  12    3.04    0.31
  -3   1 -12    1.36    0.37
   3  -1  12    1.27    0.21
   3  -1  12    0.80    0.19
   3  -1  12    0.80    0.19
  -4   1 -12   56.18    1.79
   4  -1  12   56.86    1.33
   4  -1  12   55.20    1.20
   4  -1  12   56.86    1.33
  -5   1 -12    0.05    0.25
   5  -1  12    0.04    0.15
   5  -1  12    0.04    0.15
   6  -1  12   87.48    1.82
   6  -1  12   87.48    1.82
   7   0 -12   35.89    1.06
   7   0 -12   35.89    1.06
   6   0 -12    6.20    0.47
   6   0 -12    6.20    0.47
   5   0 -12    2.20    0.32
   5   0 -12    2.20    0.32
   4   0 -12    1.10    0.29
   4   0 -12    1.12    0.24
   4   0 -12    1.12    0.24
   3   0 -12    6.50    0.44
   3   0 -12    4.85    0.41
   3   0 -12    4.85    0.41
  -3   0  12    6.38    0.46
   2   0 -12   10.40    0.53
   2   0 -12   10.40    0.53
   2   0 -12    9.37    0.57
  -2   0  12    9.87    0.54
   1   0 -12    6.03    0.46
   1   0 -12    4.32    0.46
   1   0 -12    6.03    0.46
  -1   0  12    4.40    0.38
   0   0 -12   45.90    1.33
   0   0 -12   45.90    1.33
   0   0 -12   44.02    1.37
   0   0  12   44.85    1.19
  -1   0 -12   63.72    1.74
  -1   0 -12   62.60    1.45
  -1   0 -12   62.60    1.45
   1   0  12   63.57    1.45
  -2   0 -12    0.65    0.21
  -2   0 -12    0.65    0.21
  -2   0 -12    0.73    0.28
   2   0  12    0.89    0.20
  -3   0 -12   57.69    1.39
  -3   0 -12   57.69    1.39
  -3   0 -12   57.81    1.69
   3   0  12   58.50    1.35
  -4   0 -12    0.85    0.23
  -4   0 -12    0.12    0.23
  -4   0 -12    0.85    0.23
   4   0  12    0.21    0.16
   4   0  12    0.31    0.14
   4   0  12    0.21    0.16
  -5   0 -12    0.36    0.27
  -5   0 -12    0.35    0.20
  -5   0 -12    0.35    0.20
   5   0  12    0.22    0.17
   5   0  12    0.22    0.17
   5   0  12    0.41    0.15
  -6   0 -12   25.97    1.13
  -6   0 -12   26.41    0.96
  -6   0 -12   26.41    0.96
   6   0  12   26.68    0.73
   6   0  12   26.02    0.86
   6   0  12   26.02    0.86
  -7   0 -12    0.90    0.27
  -7   0 -12    0.90    0.27
  -7   0 -12    0.12    0.24
   7   0  12    0.08    0.17
   7   0  12    0.08    0.17
   7  -1 -12   -0.04    0.14
   7  -1 -12   -0.04    0.14
   6  -1 -12    0.29    0.18
   6  -1 -12    0.29    0.18
   6  -1 -12    0.33    0.27
   6  -1 -12    0.33    0.27
  -6   1  12    0.29    0.25
  -6   1  12    0.29    0.25
   5  -1 -12   29.23    1.03
   5  -1 -12   29.23    1.03
   5  -1 -12   29.10    0.89
   5  -1 -12   29.10    0.89
   4  -1 -12   11.59    0.55
   4  -1 -12   11.07    0.62
   4  -1 -12   11.59    0.55
   4  -1 -12   11.07    0.62
   3  -1 -12   14.14    0.66
   3  -1 -12   14.60    0.61
   3  -1 -12   14.60    0.61
   3  -1 -12   14.14    0.66
   2  -1 -12    6.84    0.48
   2  -1 -12    7.92    0.46
   2  -1 -12    6.84    0.48
   2  -1 -12    7.49    0.38
   2  -1 -12    7.92    0.46
  -2   1  12    7.84    0.65
   1  -1 -12    1.50    0.26
   1  -1 -12    1.73    0.26
   1  -1 -12    1.78    0.26
   1  -1 -12    1.73    0.26
   1  -1 -12    1.50    0.26
  -1   1  12    0.99    0.22
   0  -1 -12   34.23    1.06
   0  -1 -12   36.14    1.00
   0  -1 -12   35.32    1.03
   0  -1 -12   36.14    1.00
   0  -1 -12   35.32    1.03
   0   1  12   35.87    1.03
  -1  -1 -12    2.46    0.30
  -1  -1 -12    2.46    0.30
  -1  -1 -12    2.71    0.34
  -1  -1 -12    2.93    0.36
  -1  -1 -12    2.71    0.34
   1   1  12    2.87    0.32
  -2  -1 -12   85.13    1.95
  -2  -1 -12   81.62    1.76
  -2  -1 -12   81.62    1.76
   2   1  12   81.62    1.74
  -3  -1 -12  110.31    2.39
  -3  -1 -12  112.53    2.21
  -3  -1 -12  112.53    2.21
   3   1  12  109.23    2.16
  -4  -1 -12    0.00    0.17
  -4  -1 -12    0.19    0.19
  -4  -1 -12    0.00    0.17
   4   1  12    0.30    0.15
  -5  -1 -12   82.63    1.86
  -5  -1 -12   83.72    2.05
  -5  -1 -12   82.63    1.86
   5   1  12   83.11    1.74
  -6  -1 -12   11.24    0.72
  -6  -1 -12   10.65    0.63
  -6  -1 -12   10.65    0.63
   6   1  12   12.63    0.87
   6   1  12   11.12    0.52
   6   1  12   12.63    0.87
  -7  -1 -12    2.06    0.38
  -7  -1 -12    1.40    0.30
  -7  -1 -12    1.40    0.30
   7   1  12    1.49    0.22
   7   1  12    2.66    0.34
   7   1  12    2.66    0.34
   6  -2 -12    9.14    0.62
   6  -2 -12   11.01    0.69
   6  -2 -12    9.14    0.74
   6  -2 -12    9.82    0.48
   6  -2 -12   11.01    0.69
   6  -2 -12    9.82    0.48
  -6   2  12    9.59    0.66
  -6   2  12    9.59    0.66
   5  -2 -12    0.63    0.19
   5  -2 -12    0.56    0.28
   5  -2 -12    0.83    0.27
   5  -2 -12    0.63    0.19
   5  -2 -12    0.58    0.24
   5  -2 -12    0.83    0.27
   4  -2 -12   54.16    1.64
   4  -2 -12   52.00    1.23
   4  -2 -12   52.00    1.23
   4  -2 -12   55.23    1.48
   4  -2 -12   55.23    1.48
   4  -2 -12   54.16    1.41
   3  -2 -12   81.84    1.64
   3  -2 -12   79.72    2.03
   3  -2 -12   79.88    1.84
   3  -2 -12   79.88    1.84
   3  -2 -12   81.84    1.64
   3  -2 -12   79.69    1.78
  -3   2  12   76.64    2.90
   2  -2 -12   79.01    1.80
   2  -2 -12   80.36    1.64
   2  -2 -12   82.53    2.04
   2  -2 -12   79.01    1.80
   2  -2 -12   80.36    1.64
   2  -2 -12   81.60    2.03
   2  -2 -12   82.49    1.79
  -2   2  12   80.41    2.94
   1  -2 -12    0.05    0.08
   1  -2 -12    0.30    0.22
   1  -2 -12   -0.07    0.16
   1  -2 -12    0.17    0.14
   1  -2 -12    0.29    0.27
   1  -2 -12   -0.07    0.16
   1  -2 -12    0.17    0.14
   1  -2 -12    0.69    0.38
   0  -2 -12    1.55    0.27
   0  -2 -12    1.55    0.27
   0  -2 -12    1.70    0.24
   0  -2 -12    1.79    0.22
   0  -2 -12    1.70    0.24
   0   2  12    2.23    0.31
  -1  -2 -12    5.78    0.38
  -1  -2 -12    5.78    0.38
  -1  -2 -12    4.95    0.36
  -1  -2 -12    5.11    0.41
  -1  -2 -12    5.11    0.41
   1   2  12    4.55    0.39
  -2  -2 -12    5.27    0.43
  -2  -2 -12    4.28    0.41
  -2  -2 -12    5.27    0.43
  -2  -2 -12    4.28    0.41
  -2  -2 -12    5.08    0.39
   2   2  12    5.06    0.39
  -3  -2 -12   55.81    1.41
  -3  -2 -12   57.85    1.43
  -3  -2 -12   55.81    1.41
   3   2  12   58.87    1.40
  -4  -2 -12    1.93    0.33
  -4  -2 -12    1.93    0.33
  -4  -2 -12    1.15    0.25
   4   2  12    1.22    0.23
  -5  -2 -12   16.40    0.73
  -5  -2 -12   15.13    0.73
  -5  -2 -12   16.40    0.73
   5   2  12   15.14    0.66
  -6  -2 -12   61.39    1.60
  -6  -2 -12   61.07    1.57
  -6  -2 -12   61.07    1.57
   6   2  12   61.23    1.45
  -7  -2 -12    3.41    0.43
  -7  -2 -12    3.41    0.43
  -7  -2 -12    3.96    0.46
   7   2  12    4.17    0.36
   6  -3 -12    0.02    0.23
   6  -3 -12    0.34    0.15
   6  -3 -12    0.24    0.23
   6  -3 -12    0.24    0.27
   6  -3 -12    0.34    0.15
   6  -3 -12    0.02    0.23
  -6   3  12   -0.14    0.25
  -6   3  12   -0.14    0.25
   5  -3 -12   64.89    1.86
   5  -3 -12   66.22    1.33
   5  -3 -12   66.22    1.33
   5  -3 -12   62.16    1.69
   5  -3 -12   62.16    1.69
   5  -3 -12   64.89    1.61
   4  -3 -12   14.56    0.75
   4  -3 -12   14.34    0.83
   4  -3 -12   14.56    0.75
   4  -3 -12   14.34    0.69
   4  -3 -12   13.83    0.53
   4  -3 -12   13.83    0.53
   3  -3 -12    8.59    0.53
   3  -3 -12    7.44    0.40
   3  -3 -12    7.43    0.55
   3  -3 -12    7.43    0.55
   3  -3 -12    8.59    0.64
   3  -3 -12    7.44    0.40
  -3   3  12    7.22    0.92
   2  -3 -12   27.87    1.08
   2  -3 -12   25.56    0.76
   2  -3 -12   25.18    0.93
   2  -3 -12   25.70    1.04
   2  -3 -12   25.18    0.93
   2  -3 -12   25.56    0.76
   2  -3 -12   25.69    0.88
  -2   3  12   25.09    1.60
   1  -3 -12    6.29    0.55
   1  -3 -12    5.76    0.45
   1  -3 -12    6.10    0.37
   1  -3 -12    5.76    0.45
   1  -3 -12    6.10    0.37
  -1   3  12    5.19    0.88
   0  -3 -12   22.69    0.72
   0  -3 -12   20.89    0.82
   0  -3 -12   21.95    0.96
   0  -3 -12   22.69    0.72
   0  -3 -12   20.89    0.82
   0   3  12   22.06    1.50
  -1  -3 -12   63.36    1.55
  -1  -3 -12   64.65    1.18
  -1  -3 -12   65.41    1.41
  -1  -3 -12   65.41    1.41
  -1  -3 -12   63.36    1.55
  -2  -3 -12   50.97    1.33
  -2  -3 -12   48.16    1.08
  -2  -3 -12   49.02    1.18
  -2  -3 -12   49.02    1.18
  -2  -3 -12   50.97    1.33
   2   3  12   48.15    1.25
  -3  -3 -12   64.62    1.55
  -3  -3 -12   64.62    1.55
  -3  -3 -12   63.36    1.38
  -3  -3 -12   62.95    1.41
  -3  -3 -12   62.95    1.41
   3   3  12   64.13    1.51
  -4  -3 -12    6.97    0.43
  -4  -3 -12    7.28    0.44
  -4  -3 -12    6.97    0.43
  -4  -3 -12    6.35    0.46
  -4  -3 -12    6.35    0.46
   4   3  12    6.53    0.45
  -5  -3 -12    3.19    0.35
  -5  -3 -12    3.27    0.39
  -5  -3 -12    3.27    0.39
   5   3  12    3.14    0.35
  -6  -3 -12   51.00    1.35
  -6  -3 -12   52.04    1.44
  -6  -3 -12   52.04    1.44
   6   3  12   53.02    1.36
  -7  -3 -12    4.81    0.48
  -7  -3 -12    5.09    0.47
  -7  -3 -12    4.81    0.48
   7   3  12    5.63    0.45
  -8  -3 -12    0.22    0.22
   8   3  12    0.44    0.19
   6  -4 -12   -0.31    0.22
   6  -4 -12   -0.31    0.22
  -6   4  12   -0.18    0.25
  -6   4  12   -0.18    0.25
   5  -4 -12   38.14    1.31
   5  -4 -12   39.46    0.83
   5  -4 -12   40.14    1.40
   5  -4 -12   38.14    1.31
   5  -4 -12   39.46    0.83
   5  -4 -12   40.17    1.19
   4  -4 -12    2.03    0.39
   4  -4 -12    2.08    0.33
   4  -4 -12    1.73    0.20
   4  -4 -12    1.73    0.20
   4  -4 -12    0.62    0.27
   4  -4 -12    0.62    0.27
   3  -4 -12    0.73    0.15
   3  -4 -12    0.73    0.15
   3  -4 -12    0.86    0.28
   3  -4 -12    0.86    0.28
   3  -4 -12    1.08    0.29
   3  -4 -12    1.11    0.25
  -3   4  12    0.61    0.46
   2  -4 -12   17.02    0.78
   2  -4 -12   15.91    0.82
   2  -4 -12   15.91    0.68
   2  -4 -12   15.91    0.82
   2  -4 -12   15.76    0.54
   2  -4 -12   15.76    0.54
   2  -4 -12   17.02    0.78
  -2   4  12   17.00    1.32
   1  -4 -12   16.67    0.76
   1  -4 -12   16.57    0.83
   1  -4 -12   16.38    0.57
   1  -4 -12   16.38    0.57
   1  -4 -12   16.67    0.76
  -1   4  12   16.10    1.31
   0  -4 -12    4.05    0.32
   0  -4 -12    4.48    0.45
   0  -4 -12    4.05    0.32
   0  -4 -12    4.48    0.45
   0  -4 -12    4.10    0.48
   0   4  12    5.31    0.88
  -1  -4 -12   58.43    1.47
  -1  -4 -12   55.35    1.23
  -1  -4 -12   58.43    1.47
  -1  -4 -12   55.35    1.23
  -1  -4 -12   56.42    1.63
   1   4  12   57.40    2.45
  -2  -4 -12   -0.08    0.17
  -2  -4 -12   -0.06    0.12
  -2  -4 -12   -0.08    0.17
  -2  -4 -12   -0.06    0.12
  -2  -4 -12    0.01    0.24
  -3  -4 -12   93.60    1.81
  -3  -4 -12   89.40    1.60
  -3  -4 -12   93.60    1.81
  -3  -4 -12   91.86    2.01
  -3  -4 -12   91.86    2.01
   3   4  12   94.85    1.96
  -4  -4 -12   10.42    0.60
  -4  -4 -12   10.38    0.51
  -4  -4 -12   10.38    0.51
  -4  -4 -12   10.42    0.60
   4   4  12   10.49    0.57
  -5  -4 -12   43.13    1.14
  -5  -4 -12   43.13    1.14
  -5  -4 -12   44.94    1.30
  -5  -4 -12   44.94    1.30
  -5  -4 -12   44.31    1.09
   5   4  12   45.39    1.25
  -6  -4 -12    2.89    0.40
  -6  -4 -12    2.89    0.40
  -6  -4 -12    2.76    0.32
   6   4  12    2.22    0.33
  -7  -4 -12   71.33    1.81
  -7  -4 -12   71.22    1.64
  -7  -4 -12   71.33    1.81
   7   4  12   71.83    1.70
  -8  -4 -12    1.08    0.33
  -8  -4 -12    1.08    0.33
  -8  -4 -12    1.09    0.27
   8   4  12    1.05    0.27
   5  -5 -12    4.39    0.52
   5  -5 -12    3.92    0.51
   5  -5 -12    3.92    0.51
   5  -5 -12    4.51    0.44
   4  -5 -12    8.65    0.25
   4  -5 -12    8.65    0.25
   4  -5 -12    8.75    0.65
   4  -5 -12    8.61    0.53
   4  -5 -12    8.62    0.64
   4  -5 -12    8.75    0.65
   3  -5 -12    6.90    0.47
   3  -5 -12    6.71    0.54
   3  -5 -12    8.04    0.30
   3  -5 -12    6.71    0.54
   3  -5 -12    8.04    0.30
   3  -5 -12    6.91    0.57
   2  -5 -12   18.70    0.84
   2  -5 -12   18.15    0.52
   2  -5 -12   18.71    0.73
   2  -5 -12   18.72    0.87
   2  -5 -12   18.70    0.84
   2  -5 -12   18.51    0.87
   2  -5 -12   18.15    0.52
  -2   5  12   18.17    1.82
   1  -5 -12    3.75    0.44
   1  -5 -12    3.65    0.43
   1  -5 -12    4.15    0.26
   1  -5 -12    4.15    0.26
   1  -5 -12    3.65    0.43
  -1   5  12    4.14    0.76
   0  -5 -12  157.59    2.98
   0  -5 -12  154.86    3.10
   0  -5 -12  157.59    2.98
   0  -5 -12  149.57    2.52
   0  -5 -12  149.57    2.52
   0   5  12  158.74    4.30
  -1  -5 -12   48.28    1.36
  -1  -5 -12   48.28    1.36
  -1  -5 -12   48.24    1.07
  -1  -5 -12   49.69    1.50
  -1  -5 -12   48.24    1.07
   1   5  12   48.08    2.25
  -2  -5 -12   70.87    1.44
  -2  -5 -12   71.97    1.74
  -2  -5 -12   70.87    1.44
  -2  -5 -12   71.97    1.74
  -2  -5 -12   70.97    1.89
   2   5  12   72.91    2.85
  -3  -5 -12    4.52    0.36
  -3  -5 -12    3.73    0.52
  -3  -5 -12    3.98    0.45
  -3  -5 -12    4.52    0.36
  -3  -5 -12    3.98    0.45
  -4  -5 -12   29.67    0.86
  -4  -5 -12   28.78    1.02
  -4  -5 -12   29.67    0.86
  -4  -5 -12   28.78    1.02
  -5  -5 -12    3.37    0.41
  -5  -5 -12    3.09    0.32
  -5  -5 -12    4.04    0.28
  -5  -5 -12    3.37    0.41
  -5  -5 -12    3.09    0.32
   5   5  12    3.68    0.40
  -6  -5 -12    0.23    0.13
  -6  -5 -12    0.52    0.18
  -6  -5 -12    0.32    0.20
  -6  -5 -12    0.52    0.18
  -6  -5 -12    0.32    0.20
   6   5  12    0.75    0.24
  -7  -5 -12    0.08    0.15
  -7  -5 -12    0.36    0.24
  -7  -5 -12    0.36    0.24
   7   5  12    0.28    0.19
  -8  -5 -12   75.98    1.70
  -8  -5 -12   76.11    1.95
  -8  -5 -12   76.11    1.95
   8   5  12   77.15    1.84
   4  -6 -12    1.44    0.33
   4  -6 -12    1.36    0.36
   4  -6 -12    1.36    0.36
   4  -6 -12    1.48    0.28
   3  -6 -12    4.80    0.55
   3  -6 -12    4.58    0.42
   3  -6 -12    4.80    0.55
   3  -6 -12    4.69    0.51
   3  -6 -12    4.45    0.50
   2  -6 -12   19.21    0.89
   2  -6 -12   19.21    0.41
   2  -6 -12   18.60    0.88
   2  -6 -12   19.59    0.89
   2  -6 -12   19.20    0.75
   2  -6 -12   19.21    0.41
   2  -6 -12   19.59    0.89
   1  -6 -12   22.32    0.53
   1  -6 -12   22.32    0.53
   1  -6 -12   20.84    0.91
   1  -6 -12   23.32    0.97
   1  -6 -12   20.84    0.91
   0  -6 -12    6.32    0.52
   0  -6 -12    6.64    0.55
   0  -6 -12    6.40    0.30
   0  -6 -12    6.40    0.30
   0  -6 -12    6.32    0.52
   0   6  12    6.20    0.87
  -1  -6 -12  104.55    2.28
  -1  -6 -12  102.88    2.36
  -1  -6 -12  102.98    1.80
  -1  -6 -12  102.98    1.80
  -1  -6 -12  104.55    2.28
   1   6  12  107.95    3.49
  -2  -6 -12   32.92    0.82
  -2  -6 -12   32.92    0.82
  -2  -6 -12   31.99    1.10
  -2  -6 -12   32.15    1.20
  -2  -6 -12   31.99    1.10
   2   6  12   33.70    1.94
  -3  -6 -12  330.63    5.44
  -3  -6 -12  329.35    5.68
  -3  -6 -12  325.48    4.98
  -3  -6 -12  325.48    4.98
  -3  -6 -12  330.63    5.44
   3   6  12  337.89    7.42
  -4  -6 -12    1.91    0.37
  -4  -6 -12    0.81    0.18
  -4  -6 -12    1.91    0.37
  -4  -6 -12    0.81    0.18
  -5  -6 -12    0.60    0.19
  -5  -6 -12    0.69    0.26
  -5  -6 -12    0.60    0.19
  -5  -6 -12    0.69    0.26
  -6  -6 -12    0.37    0.24
  -6  -6 -12    0.60    0.20
  -6  -6 -12    0.37    0.24
  -6  -6 -12    0.60    0.20
   6   6  12    0.42    0.21
  -7  -6 -12    0.35    0.14
  -7  -6 -12    0.38    0.19
  -7  -6 -12    0.57    0.26
  -7  -6 -12    0.57    0.26
  -7  -6 -12    0.38    0.19
   7   6  12    0.17    0.20
   3  -7 -12   35.38    1.22
   3  -7 -12   35.09    1.21
   3  -7 -12   34.82    1.28
   3  -7 -12   35.07    1.04
   3  -7 -12   34.82    1.28
   2  -7 -12   16.03    0.84
   2  -7 -12   15.90    0.80
   2  -7 -12   16.03    0.84
   1  -7 -12    2.01    0.35
   1  -7 -12    2.01    0.35
   1  -7 -12    2.33    0.38
   0  -7 -12   10.21    0.30
   0  -7 -12    9.65    0.64
   0  -7 -12    9.65    0.64
   0  -7 -12   10.21    0.30
   0  -7 -12   10.05    0.66
  -1  -7 -12    3.38    0.22
  -1  -7 -12    2.79    0.40
  -1  -7 -12    3.65    0.44
  -1  -7 -12    3.38    0.22
  -1  -7 -12    2.79    0.40
  -2  -7 -12    4.08    0.26
  -2  -7 -12    4.55    0.49
  -2  -7 -12    4.08    0.26
  -2  -7 -12    4.55    0.49
  -2  -7 -12    5.05    0.55
   2   7  12    6.83    1.26
  -3  -7 -12   25.42    1.09
  -3  -7 -12   25.96    0.70
  -3  -7 -12   25.96    0.70
  -3  -7 -12   25.92    1.01
  -3  -7 -12   25.92    1.01
   3   7  12   26.07    1.78
  -4  -7 -12    1.98    0.24
  -4  -7 -12    1.74    0.35
  -4  -7 -12    1.98    0.24
  -4  -7 -12    1.89    0.37
  -4  -7 -12    1.74    0.35
   4   7  12    2.17    0.69
  -5  -7 -12  134.06    2.78
  -5  -7 -12  136.81    2.41
  -5  -7 -12  134.06    2.78
  -5  -7 -12  136.81    2.41
  -6  -7 -12   14.97    0.80
  -6  -7 -12   15.90    0.63
  -6  -7 -12   14.97    0.80
  -6  -7 -12   15.90    0.63
  -7  -7 -12   38.71    1.08
  -7  -7 -12   39.93    1.32
  -7  -7 -12   39.93    1.32
  -7  -7 -12   38.71    1.08
   7   7  12   39.42    1.27
   2  -8 -12   28.58    1.14
   2  -8 -12   28.58    1.14
   2  -8 -12   25.65    1.03
   1  -8 -12    2.88    0.41
   1  -8 -12    2.85    0.43
   1  -8 -12    2.85    0.43
   0  -8 -12   40.88    1.32
   0  -8 -12   38.71    1.32
   0  -8 -12   38.71    1.32
  -1  -8 -12    0.42    0.23
  -1  -8 -12    0.50    0.07
  -1  -8 -12    0.42    0.23
  -1  -8 -12    0.50    0.07
  -1  -8 -12    0.23    0.20
  -2  -8 -12    2.23    0.40
  -2  -8 -12    2.06    0.17
  -2  -8 -12    1.95    0.37
  -2  -8 -12    2.06    0.17
  -2  -8 -12    1.95    0.37
  -3  -8 -12    9.96    0.66
  -3  -8 -12    9.93    0.71
  -3  -8 -12    9.96    0.66
  -3  -8 -12    9.87    0.39
  -3  -8 -12    9.87    0.39
  -4  -8 -12   20.12    0.61
  -4  -8 -12   17.84    0.87
  -4  -8 -12   17.84    0.87
  -4  -8 -12   21.00    1.02
  -4  -8 -12   20.12    0.61
  -5  -8 -12    3.06    0.29
  -5  -8 -12    2.68    0.41
  -5  -8 -12    3.06    0.29
  -5  -8 -12    2.62    0.45
  -5  -8 -12    2.68    0.41
  -6  -8 -12    3.97    0.50
  -6  -8 -12    3.81    0.35
  -6  -8 -12    3.81    0.35
  -6  -8 -12    3.97    0.50
  -7  -8 -12   48.50    1.50
  -7  -8 -12   48.50    1.50
   1  -9 -12    0.65    0.30
   1  -9 -12    0.65    0.30
   1  -9 -12    0.67    0.26
   0  -9 -12   10.72    0.72
   0  -9 -12   10.54    0.68
   0  -9 -12   10.72    0.72
  -1  -9 -12    9.57    0.66
  -1  -9 -12   10.28    0.69
  -1  -9 -12   10.28    0.69
  -2  -9 -12    2.33    0.42
  -2  -9 -12    2.25    0.40
  -2  -9 -12    2.33    0.42
  -3  -9 -12    6.39    0.61
  -3  -9 -12    7.07    0.27
  -3  -9 -12    7.07    0.27
  -3  -9 -12    6.39    0.61
  -3  -9 -12    7.81    0.64
  -4  -9 -12    7.96    0.68
  -4  -9 -12    8.12    0.62
  -4  -9 -12    7.74    0.34
  -4  -9 -12    8.12    0.62
  -4  -9 -12    7.74    0.34
  -5  -9 -12    0.84    0.17
  -5  -9 -12    0.73    0.31
  -5  -9 -12    0.85    0.30
  -5  -9 -12    0.85    0.30
  -5  -9 -12    0.84    0.17
  -6  -9 -12    1.20    0.34
  -6  -9 -12    1.20    0.34
  -2 -10 -12    0.36    0.25
  -2 -10 -12    0.36    0.25
  -3 -10 -12    0.82    0.32
  -3 -10 -12    0.82    0.32
  -3 -10 -12    0.55    0.28
   2   5 -13   21.67    1.27
  -2  -5  13   23.11    0.85
  -2  -5  13   23.11    0.85
   1   5 -13    2.94    0.60
  -1  -5  13    2.07    0.31
  -1  -5  13    2.07    0.31
   0  -5  13   77.55    1.69
   0  -5  13   77.55    1.69
   4   4 -13    8.84    0.82
  -4  -4  13    8.11    0.52
   3   4 -13   23.80    1.25
  -3  -4  13   24.44    0.84
   2   4 -13   82.85    2.44
  -2  -4  13   81.41    1.69
   1   4 -13   55.24    1.96
  -1  -4  13   53.10    1.34
  -1  -4  13   53.68    1.20
  -1  -4  13   53.10    1.34
   0   4 -13   57.30    2.03
   0  -4  13   59.34    1.42
   0  -4  13   59.34    1.42
  -1   4 -13   57.84    2.05
   1  -4  13   57.45    1.38
   1  -4  13   57.45    1.38
   2  -4  13   29.64    0.91
   2  -4  13   29.64    0.91
   5   3 -13   50.11    1.68
  -5  -3  13   52.50    1.44
   4   3 -13    7.82    0.74
  -4  -3  13    6.57    0.51
   3   3 -13   63.27    1.99
  -3  -3  13   62.64    1.53
   2   3 -13    3.93    0.60
  -2  -3  13    3.85    0.37
   1   3 -13    1.35    0.41
  -1  -3  13    0.76    0.20
   0   3 -13   11.60    0.89
   0  -3  13   12.61    0.58
   0  -3  13   12.61    0.58
   0  -3  13   10.94    0.51
  -1   3 -13   30.98    1.42
   1  -3  13   30.58    0.94
   1  -3  13   30.58    0.94
   1  -3  13   30.94    0.81
  -2   3 -13    1.62    0.45
   2  -3  13    1.61    0.27
   2  -3  13    1.61    0.27
   3  -3  13   46.73    1.21
   3  -3  13   46.73    1.21
   5   2 -13   32.95    1.09
   5   2 -13   32.95    1.09
   5   2 -13   33.17    1.19
  -5  -2  13   33.64    1.14
   4   2 -13    4.34    0.53
  -4  -2  13    4.23    0.44
   3   2 -13   35.12    1.35
  -3  -2  13   35.71    1.11
   2   2 -13   44.60    1.57
  -2  -2  13   45.42    1.24
   1   2 -13    0.92    0.35
  -1  -2  13    0.88    0.22
   0   2 -13   48.43    1.69
   0  -2  13   47.43    1.21
  -1   2 -13    0.71    0.34
   1  -2  13    0.93    0.37
   1  -2  13    0.65    0.19
   1  -2  13    0.93    0.37
  -2   2 -13    8.27    0.76
   2  -2  13    8.03    0.49
   2  -2  13    7.78    0.42
   2  -2  13    8.03    0.49
  -3   2 -13   49.95    1.80
   3  -2  13   49.23    1.24
   3  -2  13   50.09    1.07
   3  -2  13   49.23    1.24
  -4   2 -13    4.54    0.67
   4  -2  13    4.98    0.41
   4  -2  13    4.98    0.41
   6   1 -13    4.39    0.44
   6   1 -13    4.39    0.44
  -6  -1  13    4.94    0.53
   5   1 -13   30.19    1.00
   5   1 -13   30.19    1.00
  -5  -1  13   29.45    1.07
   4   1 -13   18.65    0.81
   4   1 -13   18.12    0.77
   4   1 -13   18.12    0.77
  -4  -1  13   17.99    0.81
   3   1 -13    0.46    0.24
   3   1 -13    0.45    0.21
   3   1 -13    0.45    0.21
  -3  -1  13    0.34    0.20
   2   1 -13   14.92    0.83
  -2  -1  13   14.15    0.68
   1   1 -13    7.89    0.66
  -1  -1  13    8.08    0.51
   0   1 -13   68.34    1.95
   0  -1  13   68.15    1.57
  -1   1 -13    1.14    0.36
   1  -1  13    0.86    0.21
  -2   1 -13   45.85    1.60
   2  -1  13   43.50    1.14
  -3   1 -13    0.91    0.34
   3  -1  13    0.89    0.20
   3  -1  13    0.76    0.20
   3  -1  13    0.76    0.20
  -4   1 -13    0.45    0.30
   4  -1  13    0.68    0.20
   4  -1  13    0.53    0.15
   4  -1  13    0.68    0.20
  -5   1 -13    2.11    0.46
   5  -1  13    2.31    0.32
   5  -1  13    2.31    0.32
   6   0 -13   25.43    0.90
   6   0 -13   25.43    0.90
   5   0 -13   64.66    1.54
   5   0 -13   64.66    1.54
   4   0 -13    4.45    0.43
   4   0 -13    4.45    0.43
  -4   0  13    4.15    0.46
   3   0 -13   54.56    1.37
   3   0 -13   54.56    1.37
   3   0 -13   51.80    1.29
  -3   0  13   52.23    1.42
   2   0 -13    3.63    0.38
   2   0 -13    3.63    0.38
   2   0 -13    3.46    0.41
  -2   0  13    3.71    0.40
   1   0 -13    0.32    0.19
   1   0 -13    0.61    0.24
   1   0 -13    0.32    0.19
  -1   0  13    0.49    0.20
   0   0 -13    9.75    0.64
   0   0  13   10.59    0.57
  -1   0 -13    1.71    0.34
   1   0  13    2.25    0.31
  -2   0 -13   29.38    1.18
   2   0  13   30.41    0.95
  -3   0 -13   54.32    1.67
   3   0  13   51.75    1.30
  -4   0 -13    4.83    0.49
  -4   0 -13    6.12    0.65
  -4   0 -13    4.83    0.49
   4   0  13    5.87    0.40
  -5   0 -13   51.82    1.41
  -5   0 -13   51.82    1.41
  -5   0 -13   52.01    1.65
   5   0  13   52.27    1.22
   5   0  13   52.58    1.33
   5   0  13   52.58    1.33
  -6   0 -13    0.54    0.26
  -6   0 -13    0.54    0.26
  -6   0 -13   -0.05    0.24
   6   0  13    0.07    0.17
   6   0  13    0.07    0.17
   6  -1 -13    6.50    0.50
   6  -1 -13    6.50    0.50
   5  -1 -13    0.75    0.23
   5  -1 -13    0.75    0.23
   4  -1 -13    9.77    0.54
   4  -1 -13    9.77    0.54
   3  -1 -13    1.92    0.42
   3  -1 -13    1.58    0.27
   3  -1 -13    1.58    0.27
   3  -1 -13    1.92    0.42
   2  -1 -13   52.05    1.30
   2  -1 -13   52.95    1.39
   2  -1 -13   52.05    1.30
   2  -1 -13   50.92    1.11
   2  -1 -13   52.95    1.39
  -2   1  13   53.15    1.39
   1  -1 -13    1.63    0.27
   1  -1 -13    1.78    0.32
   1  -1 -13    1.63    0.27
   1  -1 -13    1.73    0.26
   1  -1 -13    1.78    0.32
  -1   1  13    1.48    0.27
   0  -1 -13   32.35    1.04
   0  -1 -13   33.33    1.03
   0  -1 -13   34.41    1.01
   0  -1 -13   32.35    1.04
   0  -1 -13   34.41    1.01
   0   1  13   34.18    1.05
  -1  -1 -13   14.19    0.68
  -1  -1 -13   16.12    0.72
  -1  -1 -13   14.19    0.68
  -1  -1 -13   15.97    0.73
  -1  -1 -13   16.12    0.72
   1   1  13   16.05    0.69
  -2  -1 -13    1.61    0.31
  -2  -1 -13    1.31    0.27
  -2  -1 -13    1.31    0.27
   2   1  13    1.55    0.27
  -3  -1 -13   19.55    0.87
  -3  -1 -13   19.55    0.79
  -3  -1 -13   19.55    0.79
   3   1  13   18.58    0.74
  -4  -1 -13    2.10    0.34
  -4  -1 -13    1.30    0.32
  -4  -1 -13    2.10    0.34
   4   1  13    1.13    0.24
  -5  -1 -13   90.38    2.19
  -5  -1 -13   90.19    2.02
  -5  -1 -13   90.19    2.02
   5   1  13   90.09    1.88
  -6  -1 -13    3.13    0.46
  -6  -1 -13    3.18    0.44
  -6  -1 -13    3.18    0.44
   6   1  13    2.70    0.31
   5  -2 -13   10.64    0.81
   5  -2 -13    9.12    0.66
   5  -2 -13   10.64    0.68
   5  -2 -13   11.16    0.54
   5  -2 -13    9.12    0.66
   5  -2 -13   11.16    0.54
   4  -2 -13    1.16    0.35
   4  -2 -13    1.20    0.30
   4  -2 -13    0.75    0.21
   4  -2 -13    1.19    0.29
   4  -2 -13    1.20    0.30
   4  -2 -13    0.75    0.21
   3  -2 -13    0.66    0.21
   3  -2 -13    0.66    0.21
   3  -2 -13    0.90    0.28
   3  -2 -13    0.90    0.28
   2  -2 -13   79.33    1.69
   2  -2 -13   79.33    1.69
   2  -2 -13   80.97    1.87
   2  -2 -13   80.97    1.87
   1  -2 -13    0.06    0.15
   1  -2 -13    0.06    0.15
   1  -2 -13   -0.18    0.17
   1  -2 -13   -0.18    0.17
   0  -2 -13   21.28    0.76
   0  -2 -13   21.10    0.84
   0  -2 -13   21.10    0.84
   0  -2 -13   21.28    0.76
   0  -2 -13   23.15    0.66
   0   2  13   22.43    0.84
  -1  -2 -13    0.15    0.15
  -1  -2 -13    0.15    0.15
  -1  -2 -13    0.79    0.25
  -1  -2 -13    0.79    0.25
  -1  -2 -13    0.25    0.14
   1   2  13    0.42    0.19
  -2  -2 -13   49.44    1.26
  -2  -2 -13   49.06    1.34
  -2  -2 -13   49.06    1.34
  -2  -2 -13   48.46    1.25
  -2  -2 -13   48.46    1.25
   2   2  13   49.83    1.31
  -3  -2 -13   46.89    1.28
  -3  -2 -13   46.72    1.31
  -3  -2 -13   46.72    1.31
   3   2  13   48.68    1.29
  -4  -2 -13    6.00    0.54
  -4  -2 -13    6.00    0.54
  -4  -2 -13    6.15    0.49
   4   2  13    5.88    0.45
  -5  -2 -13   14.62    0.73
  -5  -2 -13   14.98    0.74
  -5  -2 -13   14.98    0.74
   5   2  13   13.89    0.66
  -6  -2 -13    6.90    0.56
  -6  -2 -13    6.90    0.56
  -6  -2 -13    6.49    0.54
   6   2  13    6.86    0.47
   5  -3 -13   57.62    1.26
   5  -3 -13   55.41    1.62
   5  -3 -13   55.41    1.62
   5  -3 -13   58.09    1.55
   5  -3 -13   58.12    1.81
   5  -3 -13   57.62    1.26
   4  -3 -13    7.72    0.57
   4  -3 -13    7.61    0.61
   4  -3 -13    7.73    0.69
   4  -3 -13    7.14    0.42
   4  -3 -13    7.61    0.61
   4  -3 -13    7.14    0.42
   3  -3 -13  210.20    3.45
   3  -3 -13  208.28    3.84
   3  -3 -13  208.28    3.84
   3  -3 -13  210.20    3.45
   3  -3 -13  214.40    3.73
   3  -3 -13  214.47    4.09
   2  -3 -13    1.90    0.35
   2  -3 -13    5.40    0.50
   2  -3 -13    3.20    0.32
   2  -3 -13    3.20    0.32
   2  -3 -13    1.90    0.35
   2  -3 -13    5.25    0.59
  -2   3  13    2.52    0.72
   1  -3 -13   18.10    0.80
   1  -3 -13   18.10    0.80
   1  -3 -13   15.99    0.63
   1  -3 -13   17.67    0.92
   1  -3 -13   15.99    0.63
   0  -3 -13    5.98    0.41
   0  -3 -13    5.98    0.41
   0  -3 -13    6.04    0.49
   0  -3 -13    6.04    0.49
  -1  -3 -13    0.51    0.12
  -1  -3 -13    0.10    0.18
  -1  -3 -13    0.60    0.18
  -1  -3 -13    0.10    0.18
  -1  -3 -13    0.60    0.18
  -2  -3 -13   43.22    1.13
  -2  -3 -13   43.22    1.13
  -2  -3 -13   44.29    1.28
  -2  -3 -13   43.77    1.00
  -2  -3 -13   44.29    1.28
   2   3  13   42.48    1.21
  -3  -3 -13    9.93    0.60
  -3  -3 -13    9.93    0.60
  -3  -3 -13   10.27    0.49
  -3  -3 -13    8.91    0.51
  -3  -3 -13    8.91    0.51
   3   3  13    9.87    0.57
  -4  -3 -13   30.12    1.38
  -4  -3 -13   25.86    0.97
  -4  -3 -13   25.86    0.97
  -4  -3 -13   26.39    0.86
  -4  -3 -13   30.12    1.38
   4   3  13   26.37    0.94
  -5  -3 -13   23.07    0.92
  -5  -3 -13   21.35    0.80
  -5  -3 -13   23.07    0.92
   5   3  13   21.54    0.84
  -6  -3 -13   33.85    1.16
  -6  -3 -13   33.85    1.16
  -6  -3 -13   33.77    1.08
   6   3  13   35.46    1.10
  -7  -3 -13    1.79    0.33
  -7  -3 -13    1.64    0.36
  -7  -3 -13    1.64    0.36
   7   3  13    1.06    0.25
   5  -4 -13   50.61    1.57
   5  -4 -13   51.80    1.44
   5  -4 -13   51.84    1.69
   5  -4 -13   50.61    1.57
   4  -4 -13    7.83    0.63
   4  -4 -13    7.83    0.63
   4  -4 -13    7.59    0.38
   4  -4 -13    7.59    0.38
   4  -4 -13    8.04    0.57
   4  -4 -13    8.05    0.69
   3  -4 -13   84.01    2.06
   3  -4 -13   87.37    1.94
   3  -4 -13   87.35    2.21
   3  -4 -13   87.02    1.64
   3  -4 -13   84.01    2.06
   3  -4 -13   88.61    2.22
   3  -4 -13   87.02    1.64
   2  -4 -13   18.02    0.93
   2  -4 -13   17.49    0.83
   2  -4 -13   18.01    0.77
   2  -4 -13   17.45    0.61
   2  -4 -13   17.49    0.83
   2  -4 -13   17.45    0.61
   2  -4 -13   17.47    0.92
   1  -4 -13   40.82    1.40
   1  -4 -13   39.16    1.25
   1  -4 -13   41.15    1.01
   1  -4 -13   41.15    1.01
   1  -4 -13   39.16    1.25
  -1   4  13   40.82    2.14
   0  -4 -13   25.84    1.11
   0  -4 -13   28.72    0.82
   0  -4 -13   28.72    0.82
   0  -4 -13   26.10    0.99
   0  -4 -13   26.10    0.99
   0   4  13   26.76    1.74
  -1  -4 -13    8.14    0.95
  -1  -4 -13    8.53    0.57
  -1  -4 -13    8.89    0.46
  -1  -4 -13    8.89    0.46
  -1  -4 -13    8.53    0.57
  -2  -4 -13    1.64    0.24
  -2  -4 -13    1.27    0.29
  -2  -4 -13    1.27    0.29
  -2  -4 -13    1.64    0.24
  -3  -4 -13   40.60    1.08
  -3  -4 -13   40.60    1.08
  -3  -4 -13   40.16    1.24
  -3  -4 -13   40.16    1.24
  -3  -4 -13   40.61    0.87
   3   4  13   41.16    1.20
  -4  -4 -13   22.13    0.67
  -4  -4 -13   21.18    0.89
  -4  -4 -13   22.51    0.79
  -4  -4 -13   22.51    0.79
  -4  -4 -13   21.18    0.89
   4   4  13   22.86    0.87
  -5  -4 -13   19.96    0.88
  -5  -4 -13   22.73    0.80
  -5  -4 -13   22.73    0.80
  -5  -4 -13   21.78    0.72
  -5  -4 -13   19.96    0.88
   5   4  13   21.91    0.87
  -6  -4 -13    7.88    0.59
  -6  -4 -13    9.14    0.51
  -6  -4 -13    7.88    0.59
   6   4  13    8.62    0.57
  -7  -4 -13   72.96    1.88
  -7  -4 -13   72.96    1.88
  -7  -4 -13   70.62    1.66
   7   4  13   73.11    1.76
   4  -5 -13    8.01    0.27
   4  -5 -13    7.66    0.66
   4  -5 -13    7.66    0.55
   4  -5 -13    8.01    0.27
   4  -5 -13    8.01    0.65
   4  -5 -13    8.01    0.65
   3  -5 -13    0.43    0.21
   3  -5 -13    0.54    0.28
   3  -5 -13    0.70    0.29
   3  -5 -13    0.41    0.25
   3  -5 -13    0.48    0.12
   3  -5 -13    0.48    0.12
   3  -5 -13    0.70    0.29
   2  -5 -13    0.15    0.11
   2  -5 -13    0.44    0.24
   2  -5 -13    0.15    0.11
   2  -5 -13    0.45    0.25
   2  -5 -13    0.23    0.22
   2  -5 -13    0.23    0.22
   2  -5 -13    0.45    0.21
   1  -5 -13    3.38    0.28
   1  -5 -13    3.58    0.46
   1  -5 -13    3.39    0.45
   1  -5 -13    3.58    0.46
   1  -5 -13    3.38    0.28
   0  -5 -13   33.46    0.86
   0  -5 -13   33.46    0.86
   0  -5 -13   34.21    1.17
   0  -5 -13   34.21    1.17
   0  -5 -13   33.21    1.25
   0   5  13   34.75    1.97
  -1  -5 -13    3.25    0.49
  -1  -5 -13    2.78    0.29
  -1  -5 -13    2.55    0.38
  -1  -5 -13    2.55    0.38
  -1  -5 -13    2.78    0.29
   1   5  13    2.50    0.70
  -2  -5 -13   85.58    1.99
  -2  -5 -13   80.10    1.64
  -2  -5 -13   85.58    1.99
  -2  -5 -13   80.10    1.64
  -2  -5 -13   87.28    2.20
  -3  -5 -13   32.60    0.91
  -3  -5 -13   32.60    0.91
  -3  -5 -13   31.74    1.12
  -3  -5 -13   31.74    1.12
  -4  -5 -13   26.88    1.03
  -4  -5 -13   26.41    0.84
  -4  -5 -13   26.88    1.03
  -4  -5 -13   26.41    0.84
  -5  -5 -13    2.53    0.39
  -5  -5 -13    2.47    0.30
  -5  -5 -13    2.53    0.39
  -5  -5 -13    2.97    0.24
  -5  -5 -13    2.47    0.30
   5   5  13    2.87    0.39
  -6  -5 -13    3.59    0.45
  -6  -5 -13    3.88    0.32
  -6  -5 -13    3.59    0.45
  -6  -5 -13    4.21    0.39
  -6  -5 -13    4.21    0.39
   6   5  13    4.81    0.50
  -7  -5 -13   30.60    1.16
  -7  -5 -13   31.31    0.92
  -7  -5 -13   30.60    1.16
   7   5  13   30.91    1.09
   3  -6 -13    1.87    0.31
   3  -6 -13    1.47    0.35
   3  -6 -13    1.47    0.35
   3  -6 -13    2.02    0.39
   3  -6 -13    1.82    0.37
   2  -6 -13    0.65    0.11
   2  -6 -13    0.65    0.11
   2  -6 -13    0.08    0.23
   2  -6 -13    0.08    0.23
   2  -6 -13    1.21    0.31
   1  -6 -13    2.30    0.38
   1  -6 -13    2.77    0.22
   1  -6 -13    1.67    0.35
   1  -6 -13    2.30    0.38
   1  -6 -13    2.77    0.22
   0  -6 -13    3.90    0.46
   0  -6 -13    4.32    0.27
   0  -6 -13    4.32    0.27
   0  -6 -13    3.90    0.46
   0  -6 -13    4.18    0.52
  -1  -6 -13    4.91    0.31
  -1  -6 -13    4.64    0.54
  -1  -6 -13    4.91    0.31
  -1  -6 -13    5.02    0.53
  -1  -6 -13    5.02    0.53
  -2  -6 -13   31.91    1.15
  -2  -6 -13   32.38    1.26
  -2  -6 -13   34.61    0.87
  -2  -6 -13   31.91    1.15
  -2  -6 -13   34.61    0.87
   2   6  13   33.58    2.12
  -3  -6 -13   16.59    0.60
  -3  -6 -13   16.16    0.92
  -3  -6 -13   16.17    0.82
  -3  -6 -13   16.17    0.82
  -3  -6 -13   16.59    0.60
  -4  -6 -13   74.01    1.57
  -4  -6 -13   75.26    1.89
  -4  -6 -13   75.26    1.89
  -4  -6 -13   74.01    1.57
  -5  -6 -13    4.08    0.52
  -5  -6 -13    4.77    0.39
  -5  -6 -13    4.77    0.39
  -5  -6 -13    4.08    0.52
  -6  -6 -13    8.00    0.62
  -6  -6 -13    8.00    0.62
  -6  -6 -13    7.93    0.50
  -6  -6 -13    7.93    0.50
   6   6  13    8.32    0.59
   2  -7 -13    3.78    0.54
   2  -7 -13    3.78    0.54
   2  -7 -13    3.15    0.47
   1  -7 -13    1.63    0.35
   1  -7 -13    1.63    0.35
   1  -7 -13    1.51    0.34
   0  -7 -13    0.75    0.29
   0  -7 -13    0.75    0.12
   0  -7 -13    0.75    0.12
   0  -7 -13    0.75    0.29
   0  -7 -13    0.80    0.30
  -1  -7 -13    4.29    0.53
  -1  -7 -13    3.78    0.47
  -1  -7 -13    3.78    0.47
  -1  -7 -13    4.42    0.26
  -1  -7 -13    4.42    0.26
  -2  -7 -13   16.54    0.85
  -2  -7 -13   19.34    0.97
  -2  -7 -13   16.54    0.85
  -2  -7 -13   17.39    0.55
  -2  -7 -13   17.39    0.55
  -3  -7 -13   41.00    0.98
  -3  -7 -13   41.00    0.98
  -3  -7 -13   41.97    1.36
  -3  -7 -13   41.97    1.36
  -3  -7 -13   41.25    1.47
  -4  -7 -13   15.22    0.82
  -4  -7 -13   16.55    0.60
  -4  -7 -13   16.55    0.60
  -4  -7 -13   15.57    1.26
  -4  -7 -13   15.22    0.82
  -5  -7 -13   62.90    1.40
  -5  -7 -13   62.90    1.40
  -5  -7 -13   64.62    1.76
  -5  -7 -13   64.62    1.76
  -6  -7 -13    0.75    0.20
  -6  -7 -13    0.72    0.29
  -6  -7 -13    0.72    0.29
  -6  -7 -13    0.75    0.20
   1  -8 -13   27.52    1.14
   1  -8 -13   25.74    1.09
   1  -8 -13   27.52    1.14
   0  -8 -13    2.14    0.41
   0  -8 -13    2.77    0.44
   0  -8 -13    2.14    0.41
  -1  -8 -13    2.77    0.44
  -1  -8 -13    3.37    0.17
  -1  -8 -13    3.42    0.47
  -1  -8 -13    3.37    0.17
  -1  -8 -13    2.77    0.44
  -2  -8 -13  103.27    2.50
  -2  -8 -13  105.53    1.73
  -2  -8 -13  100.60    2.39
  -2  -8 -13  105.53    1.73
  -2  -8 -13  100.60    2.39
  -3  -8 -13   63.30    1.25
  -3  -8 -13   63.80    1.77
  -3  -8 -13   63.80    1.77
  -3  -8 -13   63.30    1.25
  -3  -8 -13   61.99    1.86
  -4  -8 -13   42.36    1.54
  -4  -8 -13   41.57    1.40
  -4  -8 -13   44.37    1.02
  -4  -8 -13   41.57    1.40
  -4  -8 -13   44.37    1.02
  -5  -8 -13    6.00    0.61
  -5  -8 -13    7.82    0.43
  -5  -8 -13    6.00    0.61
  -5  -8 -13    7.82    0.43
  -2  -9 -13    0.54    0.26
  -2  -9 -13    0.05    0.23
  -2  -9 -13    0.05    0.23
  -3  -9 -13    0.51    0.28
  -3  -9 -13    0.51    0.28
  -3  -9 -13    0.17    0.24
  -3  -9 -13    0.16    0.09
  -3  -9 -13    0.16    0.09
   3   3 -14    2.12    0.47
  -3  -3  14    1.70    0.30
   2   3 -14    8.55    0.81
  -2  -3  14    9.50    0.54
   1   3 -14    0.62    0.36
  -1  -3  14    1.28    0.24
   0   3 -14   18.06    1.14
   0  -3  14   19.93    0.70
  -1   3 -14    7.99    0.87
   1  -3  14    6.36    0.49
   1  -3  14    7.57    0.40
   1  -3  14    6.36    0.49
   4   2 -14    3.39    0.48
  -4  -2  14    2.53    0.38
   3   2 -14   89.75    2.32
  -3  -2  14   86.00    1.98
   2   2 -14    1.65    0.38
  -2  -2  14    1.32    0.27
   1   2 -14   24.40    1.20
  -1  -2  14   24.25    0.87
   0   2 -14   33.97    1.43
   0  -2  14   32.74    1.00
  -1   2 -14    6.23    0.75
   1  -2  14    6.24    0.43
  -2   2 -14   87.00    2.51
   2  -2  14   91.35    1.91
   2  -2  14   91.35    1.91
   2  -2  14   86.53    1.74
  -3   2 -14   18.93    1.13
   3  -2  14   18.61    0.75
   3  -2  14   18.61    0.75
   4   1 -14    9.77    0.62
   4   1 -14    9.77    0.62
   4   1 -14   11.24    0.61
  -4  -1  14   10.11    0.64
   3   1 -14    0.49    0.24
  -3  -1  14    0.62    0.24
   2   1 -14    3.04    0.45
  -2  -1  14    2.15    0.34
   1   1 -14    0.09    0.23
  -1  -1  14    0.09    0.16
   0   1 -14   18.58    0.99
   0  -1  14   18.60    0.76
  -1   1 -14    3.42    0.53
   1  -1  14    4.11    0.39
  -2   1 -14   98.23    2.53
   2  -1  14   95.26    1.96
  -3   1 -14   27.33    1.26
   3  -1  14   26.43    0.84
  -4   1 -14   22.64    1.17
   4  -1  14   23.24    0.85
   4  -1  14   23.29    0.71
   4  -1  14   23.24    0.85
   4   0 -14    5.64    0.49
   4   0 -14    5.64    0.49
  -4   0  14    6.38    0.55
   3   0 -14   42.98    1.09
   3   0 -14   41.65    1.21
   3   0 -14   41.65    1.21
  -3   0  14   41.21    1.27
   2   0 -14    0.01    0.16
   2   0 -14    0.00    0.17
   2   0 -14    0.00    0.17
  -2   0  14    0.25    0.21
   1   0 -14   42.93    1.32
  -1   0  14   41.07    1.23
   0   0 -14   22.01    0.97
   0   0  14   21.85    0.84
  -1   0 -14   -0.27    0.18
   1   0  14    0.12    0.15
  -2   0 -14   14.99    0.86
   2   0  14   14.21    0.66
  -3   0 -14    0.24    0.26
   3   0  14   -0.08    0.13
  -4   0 -14   49.69    1.62
   4   0  14   49.60    1.25
   4  -1 -14   15.94    0.71
   4  -1 -14   15.94    0.71
   3  -1 -14   30.49    0.98
   3  -1 -14   30.49    0.98
   2  -1 -14    5.21    0.45
   2  -1 -14    5.21    0.45
  -2   1  14    5.17    0.47
   1  -1 -14   23.23    0.85
   1  -1 -14   22.51    0.76
   1  -1 -14   23.23    0.85
  -1   1  14   24.27    0.92
   0  -1 -14    0.00    0.18
   0  -1 -14    0.29    0.18
   0  -1 -14    0.00    0.18
   0   1  14    0.48    0.21
  -1  -1 -14    7.16    0.54
  -1  -1 -14    7.16    0.54
  -1  -1 -14    9.29    0.57
   1   1  14    8.13    0.53
  -2  -1 -14    1.01    0.27
  -2  -1 -14    1.40    0.31
  -2  -1 -14    1.40    0.31
   2   1  14    1.54    0.28
  -3  -1 -14    0.91    0.28
  -3  -1 -14    0.91    0.28
  -3  -1 -14    0.43    0.25
   3   1  14    0.51    0.20
  -4  -1 -14    2.81    0.42
  -4  -1 -14    3.01    0.41
  -4  -1 -14    3.01    0.41
   4   1  14    3.39    0.38
  -5  -1 -14   11.06    0.67
  -5  -1 -14   11.15    0.73
  -5  -1 -14   11.06    0.67
   5   1  14   11.47    0.58
   4  -2 -14   36.45    1.04
   4  -2 -14   35.02    1.23
   4  -2 -14   36.45    1.04
   4  -2 -14   35.02    1.23
   3  -2 -14   73.02    1.86
   3  -2 -14   76.82    1.67
   3  -2 -14   76.82    1.67
   3  -2 -14   73.02    1.86
   2  -2 -14   13.74    0.63
   2  -2 -14   13.74    0.63
   2  -2 -14   12.32    0.71
   2  -2 -14   12.32    0.71
   1  -2 -14   17.29    0.71
   1  -2 -14   16.64    0.79
   1  -2 -14   17.29    0.71
   1  -2 -14   16.64    0.79
   0  -2 -14    2.07    0.23
   0  -2 -14    2.46    0.32
   0  -2 -14    1.66    0.34
   0  -2 -14    1.66    0.34
   0  -2 -14    2.46    0.32
   0   2  14    1.91    0.31
  -1  -2 -14   14.64    0.72
  -1  -2 -14   13.66    0.66
  -1  -2 -14   14.64    0.72
  -1  -2 -14   14.61    0.59
  -1  -2 -14   13.66    0.66
   1   2  14   15.03    0.71
  -2  -2 -14   34.09    1.05
  -2  -2 -14   35.01    1.15
  -2  -2 -14   34.09    1.05
  -2  -2 -14   35.01    1.15
  -2  -2 -14   33.51    1.01
   2   2  14   35.32    1.11
  -3  -2 -14   13.16    0.65
  -3  -2 -14   13.04    0.70
  -3  -2 -14   13.04    0.70
   3   2  14   12.94    0.66
  -4  -2 -14   70.37    1.76
  -4  -2 -14   72.04    1.72
  -4  -2 -14   70.37    1.76
   4   2  14   71.11    1.70
  -5  -2 -14   32.89    1.17
  -5  -2 -14   33.64    1.14
  -5  -2 -14   32.89    1.17
   5   2  14   34.43    1.09
   4  -3 -14   12.72    0.56
   4  -3 -14   14.28    0.81
   4  -3 -14   13.27    0.74
   4  -3 -14   14.28    0.81
   4  -3 -14   13.27    0.89
   4  -3 -14   12.72    0.56
   3  -3 -14   55.04    1.30
   3  -3 -14   56.71    1.61
   3  -3 -14   56.71    1.61
   3  -3 -14   55.04    1.30
   3  -3 -14   55.97    1.81
   3  -3 -14   55.95    1.55
   3  -3 -14   56.39    1.83
   2  -3 -14   60.46    1.65
   2  -3 -14   61.48    1.41
   2  -3 -14   61.48    1.41
   2  -3 -14   60.46    1.65
   1  -3 -14   18.01    0.85
   1  -3 -14   17.22    0.69
   1  -3 -14   18.01    0.85
   1  -3 -14   17.22    0.69
   0  -3 -14    6.41    0.45
   0  -3 -14    5.47    0.54
   0  -3 -14    5.47    0.54
   0  -3 -14    6.41    0.45
  -1  -3 -14    0.55    0.20
  -1  -3 -14    0.53    0.25
  -1  -3 -14    0.53    0.25
  -1  -3 -14    0.55    0.20
  -2  -3 -14   20.44    0.89
  -2  -3 -14   20.44    0.89
  -2  -3 -14   21.41    0.64
  -2  -3 -14   20.91    0.78
  -2  -3 -14   20.91    0.78
   2   3  14   22.97    0.88
  -3  -3 -14    8.59    0.45
  -3  -3 -14   10.14    0.64
  -3  -3 -14   10.76    0.57
  -3  -3 -14   10.14    0.64
  -3  -3 -14   10.76    0.57
   3   3  14    9.35    0.58
  -4  -3 -14    1.39    0.32
  -4  -3 -14    1.39    0.32
  -4  -3 -14    0.91    0.21
   4   3  14    0.75    0.23
  -5  -3 -14   43.54    1.21
  -5  -3 -14   44.03    1.37
  -5  -3 -14   44.03    1.37
   5   3  14   42.53    1.27
   3  -4 -14    3.73    0.45
   3  -4 -14    4.10    0.51
   3  -4 -14    4.62    0.60
   3  -4 -14    4.09    0.34
   3  -4 -14    4.10    0.51
   3  -4 -14    4.09    0.34
   3  -4 -14    3.63    0.53
   2  -4 -14    1.52    0.40
   2  -4 -14    0.40    0.27
   2  -4 -14    0.92    0.19
   2  -4 -14    0.40    0.27
   2  -4 -14    0.92    0.19
   1  -4 -14   97.34    1.88
   1  -4 -14   97.34    1.88
   1  -4 -14   99.48    2.48
   1  -4 -14   95.41    2.22
   1  -4 -14   95.41    2.22
   0  -4 -14    7.81    0.60
   0  -4 -14    7.19    0.44
   0  -4 -14    7.19    0.44
   0  -4 -14    7.81    0.60
  -1  -4 -14   17.17    0.67
  -1  -4 -14   16.68    0.83
  -1  -4 -14   16.68    0.83
  -1  -4 -14   17.17    0.67
  -2  -4 -14   55.28    1.55
  -2  -4 -14   55.28    1.55
  -2  -4 -14   54.25    1.31
  -2  -4 -14   54.25    1.31
  -3  -4 -14    2.79    0.33
  -3  -4 -14    2.21    0.40
  -3  -4 -14    2.21    0.40
  -3  -4 -14    2.79    0.33
   3   4  14    2.62    0.38
  -4  -4 -14   14.66    0.53
  -4  -4 -14   14.35    0.66
  -4  -4 -14   13.53    0.75
  -4  -4 -14   14.35    0.66
  -4  -4 -14   13.53    0.75
   4   4  14   14.59    0.73
  -5  -4 -14   12.81    0.55
  -5  -4 -14   13.23    0.75
  -5  -4 -14   12.31    0.64
  -5  -4 -14   13.23    0.75
  -5  -4 -14   12.31    0.64
   5   4  14   13.40    0.70
   3  -5 -14    2.64    0.49
   3  -5 -14    1.87    0.40
   3  -5 -14    2.20    0.43
   3  -5 -14    1.87    0.40
   3  -5 -14    2.27    0.37
   3  -5 -14    2.41    0.22
   3  -5 -14    2.41    0.22
   2  -5 -14   19.56    0.59
   2  -5 -14   18.17    0.90
   2  -5 -14   18.17    0.90
   2  -5 -14   18.16    0.98
   2  -5 -14   19.56    0.59
   1  -5 -14    2.77    0.27
   1  -5 -14    2.77    0.27
   1  -5 -14    2.23    0.41
   1  -5 -14    2.07    0.40
   1  -5 -14    2.07    0.40
   0  -5 -14    4.14    0.34
   0  -5 -14    4.14    0.34
   0  -5 -14    4.37    0.52
   0  -5 -14    4.84    0.60
   0  -5 -14    4.37    0.52
  -1  -5 -14   10.42    0.69
  -1  -5 -14   10.69    0.50
  -1  -5 -14   12.07    0.83
  -1  -5 -14   10.69    0.50
  -1  -5 -14   10.42    0.69
  -2  -5 -14  115.38    2.16
  -2  -5 -14  115.38    2.16
  -2  -5 -14  114.87    2.51
  -2  -5 -14  114.87    2.51
  -3  -5 -14    3.04    0.33
  -3  -5 -14    3.34    0.45
  -3  -5 -14    3.34    0.45
  -3  -5 -14    3.04    0.33
  -4  -5 -14   19.41    0.75
  -4  -5 -14   21.92    0.96
  -4  -5 -14   19.41    0.75
  -4  -5 -14   21.92    0.96
   4   5  14   21.89    1.19
  -5  -5 -14    8.07    0.51
  -5  -5 -14    9.09    0.65
  -5  -5 -14    9.09    0.65
  -5  -5 -14    8.07    0.51
   5   5  14    8.70    0.60
   2  -6 -14   10.47    0.77
   2  -6 -14   11.08    0.35
   2  -6 -14   11.08    0.35
   2  -6 -14   10.00    0.72
   2  -6 -14   10.00    0.72
   1  -6 -14   45.99    1.47
   1  -6 -14   45.99    1.47
   1  -6 -14   46.43    1.56
   1  -6 -14   43.69    0.94
   1  -6 -14   43.69    0.94
   0  -6 -14    1.22    0.19
   0  -6 -14    1.31    0.34
   0  -6 -14    1.20    0.36
   0  -6 -14    1.31    0.34
   0  -6 -14    1.22    0.19
  -1  -6 -14   11.45    0.80
  -1  -6 -14   11.05    0.47
  -1  -6 -14   11.05    0.47
  -1  -6 -14   11.73    0.73
  -1  -6 -14   11.73    0.73
  -2  -6 -14    1.43    0.22
  -2  -6 -14    1.43    0.22
  -2  -6 -14    2.33    0.44
  -2  -6 -14    1.02    0.31
  -2  -6 -14    1.02    0.31
  -3  -6 -14    0.51    0.18
  -3  -6 -14    0.84    0.30
  -3  -6 -14    0.84    0.30
  -3  -6 -14    0.51    0.18
  -4  -6 -14   52.16    1.56
  -4  -6 -14   50.07    1.25
  -4  -6 -14   52.16    1.56
  -4  -6 -14   50.07    1.25
  -5  -6 -14   25.34    1.08
  -5  -6 -14   26.36    0.86
  -5  -6 -14   25.34    1.08
  -5  -6 -14   26.36    0.86
   0  -7 -14    0.81    0.31
   0  -7 -14    1.36    0.16
   0  -7 -14    1.88    0.41
   0  -7 -14    1.36    0.16
   0  -7 -14    0.81    0.31
  -1  -7 -14   20.61    0.60
  -1  -7 -14   21.36    1.00
  -1  -7 -14   20.61    0.60
  -1  -7 -14   21.35    1.07
  -1  -7 -14   21.36    1.00
  -2  -7 -14    8.66    0.67
  -2  -7 -14    8.66    0.67
  -2  -7 -14    8.94    0.42
  -2  -7 -14   11.06    0.81
  -2  -7 -14    8.94    0.42
  -3  -7 -14    9.41    0.45
  -3  -7 -14    8.65    0.67
  -3  -7 -14    9.41    0.45
  -3  -7 -14    9.26    0.77
  -3  -7 -14    8.65    0.67
  -4  -7 -14    2.17    0.27
  -4  -7 -14    1.56    0.36
  -4  -7 -14    2.17    0.27
  -4  -7 -14    1.56    0.36
   1   1 -15   27.01    1.15
  -1  -1  15   26.00    0.97
   0   1 -15   12.30    0.83
   0  -1  15   13.49    0.67
  -1   1 -15    0.84    0.32
   1  -1  15    0.66    0.21
   2   0 -15   25.66    0.96
   2   0 -15   25.66    0.96
   2   0 -15   26.36    0.89
  -2   0  15   25.29    0.99
   1   0 -15   14.66    0.74
  -1   0  15   15.61    0.77
   0   0 -15    2.72    0.41
   0   0  15    2.89    0.38
  -1   0 -15    4.60    0.54
   1   0  15    4.96    0.45
  -2   0 -15    6.27    0.60
   2   0  15    7.52    0.52
  -2   1  15    1.16    0.30
   1  -1 -15    0.35    0.15
   1  -1 -15    0.30    0.22
   1  -1 -15    0.30    0.22
  -1   1  15    0.17    0.20
   0  -1 -15    0.86    0.26
   0  -1 -15    0.65    0.20
   0  -1 -15    0.86    0.26
   0   1  15    0.45    0.22
  -1  -1 -15   37.95    1.17
   1   1  15   38.16    1.19
  -2  -1 -15   26.91    1.02
   2   1  15   25.21    0.95
  -3  -1 -15    7.64    0.60
   3   1  15    7.60    0.53
   2  -2 -15   36.00    1.09
   2  -2 -15   36.00    1.09
   1  -2 -15    4.04    0.50
   1  -2 -15    4.04    0.50
   1  -2 -15    5.23    0.47
   1  -2 -15    5.23    0.47
   0  -2 -15    3.65    0.42
   0  -2 -15    3.07    0.44
   0  -2 -15    3.65    0.42
   0  -2 -15    3.07    0.44
   0   2  15    3.42    0.42
  -1  -2 -15    0.08    0.20
  -1  -2 -15    0.29    0.24
  -1  -2 -15    0.29    0.24
  -1  -2 -15    0.08    0.20
  -1  -2 -15    0.21    0.15
   1   2  15    0.00    0.17
  -2  -2 -15    0.29    0.23
  -2  -2 -15    0.29    0.23
  -2  -2 -15    0.17    0.17
   2   2  15    0.67    0.23
  -3  -2 -15   14.53    0.77
  -3  -2 -15   14.25    0.67
  -3  -2 -15   14.53    0.77
   3   2  15   12.94    0.70
   2  -3 -15    2.50    0.32
   2  -3 -15    2.56    0.40
   2  -3 -15    2.50    0.32
   2  -3 -15    2.56    0.40
   1  -3 -15   57.42    1.64
   1  -3 -15   58.07    1.42
   1  -3 -15   57.42    1.64
   1  -3 -15   58.07    1.42
   0  -3 -15   13.05    0.77
   0  -3 -15   14.79    0.67
   0  -3 -15   14.79    0.67
   0  -3 -15   13.05    0.77
  -1  -3 -15    8.41    0.53
  -1  -3 -15    9.05    0.65
  -1  -3 -15    8.41    0.53
  -1  -3 -15    9.05    0.65
   1   3  15    8.68    0.60
  -2  -3 -15    0.57    0.23
  -2  -3 -15    0.25    0.25
  -2  -3 -15    0.25    0.25
  -2  -3 -15    0.57    0.23
   2   3  15    0.74    0.26
  -3  -3 -15    1.10    0.26
  -3  -3 -15    1.10    0.26
  -3  -3 -15    0.09    0.23
  -3  -3 -15    0.09    0.23
  -3  -3 -15    0.17    0.15
   3   3  15    0.18    0.20
  -4  -3 -15   17.37    0.86
  -4  -3 -15   18.71    0.71
  -4  -3 -15   17.37    0.86
   4   3  15   17.34    0.81
   1  -4 -15    7.87    0.64
   1  -4 -15    7.45    0.45
   1  -4 -15    7.87    0.64
   1  -4 -15    7.45    0.45
   0  -4 -15   -0.14    0.22
   0  -4 -15   -0.14    0.22
   0  -4 -15    0.04    0.16
   0  -4 -15    0.04    0.16
  -1  -4 -15   46.34    1.19
  -1  -4 -15   42.36    1.40
  -1  -4 -15   46.34    1.19
  -1  -4 -15   42.36    1.40
  -2  -4 -15   19.51    0.92
  -2  -4 -15   20.14    0.76
  -2  -4 -15   19.51    0.92
  -2  -4 -15   20.14    0.76
  -3  -4 -15    5.71    0.47
  -3  -4 -15    5.03    0.56
  -3  -4 -15    5.71    0.47
  -3  -4 -15    5.03    0.56
   3   4  15    5.56    0.51
  -4  -4 -15   77.41    1.99
  -4  -4 -15   77.41    1.99
   0  -5 -15    0.39    0.26
   0  -5 -15    0.64    0.18
   0  -5 -15    0.64    0.18
   0  -5 -15    0.39    0.26
  -1  -5 -15    6.93    0.65
  -1  -5 -15    6.93    0.65
  -1  -5 -15    7.85    0.45
  -1  -5 -15    7.85    0.45
  -2  -5 -15    0.82    0.22
  -2  -5 -15    0.62    0.29
  -2  -5 -15    0.82    0.22
  -2  -5 -15    0.62    0.29
  -3  -5 -15    2.59    0.32
  -3  -5 -15    2.59    0.32
  -3  -5 -15    2.94    0.46
  -3  -5 -15    2.94    0.46
   0   0   0    0.00    0.00
;
_shelx_hkl_checksum              14573
_olex2_submission_special_instructions 'No special instructions were received'
loop_
_space_group_symop_operation_xyz
'x, y, z'
'-x, -y, -z'
loop_
_atom_site_label
_atom_site_type_symbol
_atom_site_fract_x
_atom_site_fract_y
_atom_site_fract_z
_atom_site_U_iso_or_equiv
_atom_site_adp_type
_atom_site_occupancy
_atom_site_site_symmetry_order
_atom_site_calc_flag
_atom_site_refinement_flags_posn
_atom_site_refinement_flags_adp
_atom_site_refinement_flags_occupancy
_atom_site_disorder_assembly
_atom_site_disorder_group
Cl1 Cl -0.13402(3) 0.81084(3) 0.75411(2) 0.02425(7) Uani 1 1 d . . . . .
P1 P 0.25840(3) 0.83625(3) 0.98539(2) 0.01161(6) Uani 1 1 d . . . . .
O1 O 0.39553(9) 0.80311(8) 0.88209(6) 0.01533(14) Uani 1 1 d . . . . .
O2 O 0.36968(8) 0.71440(8) 1.08951(6) 0.01514(14) Uani 1 1 d . . . . .
O3 O 0.20153(9) 0.99531(8) 1.00835(7) 0.01633(14) Uani 1 1 d . . . . .
N1 N 0.10466(10) 0.77685(9) 0.95396(8) 0.01349(15) Uani 1 1 d . . . . .
C1 C 0.37132(12) 0.90840(11) 0.77114(9) 0.01446(17) Uani 1 1 d . . . . .
C2 C 0.27896(13) 0.88860(12) 0.67928(9) 0.01883(19) Uani 1 1 d . . . . .
H2 H 0.232651 0.807333 0.690355 0.023 Uiso 1 1 calc R U . . .
C3 C 0.25710(14) 0.99331(13) 0.56993(10) 0.0213(2) Uani 1 1 d . . . . .
H3 H 0.195238 0.982261 0.507150 0.026 Uiso 1 1 calc R U . . .
C4 C 0.32698(14) 1.11402(13) 0.55397(10) 0.0210(2) Uani 1 1 d . . . . .
H4 H 0.310589 1.184374 0.481126 0.025 Uiso 1 1 calc R U . . .
C5 C 0.42136(14) 1.12972(12) 0.64679(10) 0.01980(19) Uani 1 1 d . . . . .
H5 H 0.469255 1.209939 0.635418 0.024 Uiso 1 1 calc R U . . .
C6 C 0.44475(12) 1.02626(12) 0.75668(9) 0.01695(18) Uani 1 1 d . . . . .
H6 H 0.508246 1.036018 0.819006 0.020 Uiso 1 1 calc R U . . .
C7 C 0.11568(11) 0.63898(11) 0.90985(8) 0.01297(16) Uani 1 1 d . . . . .
C8 C 0.01138(12) 0.63992(11) 0.81587(9) 0.01549(17) Uani 1 1 d . . . . .
C9 C 0.01728(13) 0.50665(12) 0.77191(10) 0.01856(19) Uani 1 1 d . . . . .
H9 H -0.053711 0.510114 0.709567 0.022 Uiso 1 1 calc R U . . .
C10 C 0.12988(13) 0.36806(12) 0.82159(10) 0.01948(19) Uani 1 1 d . . . . .
H10 H 0.134728 0.278124 0.792650 0.023 Uiso 1 1 calc R U . . .
C11 C 0.23514(12) 0.36426(12) 0.91457(10) 0.01896(19) Uani 1 1 d . . . . .
H11 H 0.310798 0.271511 0.947791 0.023 Uiso 1 1 calc R U . . .
C12 C 0.22822(12) 0.49813(11) 0.95836(9) 0.01614(17) Uani 1 1 d . . . . .
H12 H 0.299401 0.494024 1.020775 0.019 Uiso 1 1 calc R U . . .
C13 C 0.32105(12) 0.67266(11) 1.20950(9) 0.01443(17) Uani 1 1 d . . . . .
C14 C 0.41536(13) 0.52993(12) 1.26893(9) 0.01825(18) Uani 1 1 d . . . . .
H14 H 0.500978 0.468201 1.228184 0.022 Uiso 1 1 calc R U . . .
C15 C 0.37968(14) 0.48095(13) 1.39018(10) 0.0227(2) Uani 1 1 d . . . . .
H15 H 0.442602 0.386078 1.431412 0.027 Uiso 1 1 calc R U . . .
C16 C 0.25052(15) 0.57275(15) 1.45039(10) 0.0247(2) Uani 1 1 d . . . . .
H16 H 0.226645 0.539200 1.531513 0.030 Uiso 1 1 calc R U . . .
C17 C 0.15751(14) 0.71439(14) 1.38914(10) 0.0228(2) Uani 1 1 d . . . . .
H17 H 0.070890 0.775410 1.429579 0.027 Uiso 1 1 calc R U . . .
C18 C 0.19202(13) 0.76684(12) 1.26748(9) 0.01802(18) Uani 1 1 d . . . . .
H18 H 0.130135 0.862304 1.226500 0.022 Uiso 1 1 calc R U . . .
H1 H 0.008(2) 0.842(2) 0.9583(15) 0.030(4) Uiso 1 1 d . . . . .
loop_
_atom_site_aniso_label
_atom_site_aniso_U_11
_atom_site_aniso_U_22
_atom_site_aniso_U_33
_atom_site_aniso_U_23
_atom_site_aniso_U_13
_atom_site_aniso_U_12
Cl1 0.02580(13) 0.01862(13) 0.02613(13) -0.00422(9) -0.01356(10) -0.00057(9)
P1 0.01102(11) 0.01042(11) 0.01319(11) -0.00174(8) -0.00134(8) -0.00275(8)
O1 0.0144(3) 0.0139(3) 0.0154(3) 0.0003(2) 0.0009(2) -0.0023(2)
O2 0.0132(3) 0.0166(3) 0.0136(3) 0.0003(2) -0.0020(2) -0.0025(2)
O3 0.0158(3) 0.0126(3) 0.0212(3) -0.0049(3) -0.0007(3) -0.0039(2)
N1 0.0111(3) 0.0114(4) 0.0181(4) -0.0046(3) -0.0021(3) -0.0021(3)
C1 0.0138(4) 0.0137(4) 0.0146(4) -0.0015(3) 0.0019(3) -0.0029(3)
C2 0.0202(4) 0.0198(5) 0.0187(4) -0.0023(4) -0.0003(3) -0.0098(4)
C3 0.0234(5) 0.0255(5) 0.0169(4) -0.0018(4) -0.0033(4) -0.0105(4)
C4 0.0250(5) 0.0212(5) 0.0164(4) 0.0005(4) -0.0005(4) -0.0082(4)
C5 0.0242(5) 0.0180(5) 0.0192(4) -0.0016(4) 0.0013(4) -0.0102(4)
C6 0.0179(4) 0.0177(4) 0.0165(4) -0.0035(3) 0.0003(3) -0.0069(3)
C7 0.0123(4) 0.0124(4) 0.0152(4) -0.0035(3) 0.0009(3) -0.0045(3)
C8 0.0144(4) 0.0154(4) 0.0167(4) -0.0032(3) -0.0013(3) -0.0038(3)
C9 0.0175(4) 0.0208(5) 0.0208(4) -0.0085(4) 0.0003(3) -0.0079(4)
C10 0.0170(4) 0.0169(5) 0.0280(5) -0.0103(4) 0.0043(4) -0.0072(4)
C11 0.0148(4) 0.0131(4) 0.0291(5) -0.0056(4) 0.0013(4) -0.0033(3)
C12 0.0137(4) 0.0134(4) 0.0212(4) -0.0031(3) -0.0018(3) -0.0035(3)
C13 0.0151(4) 0.0160(4) 0.0136(4) -0.0014(3) -0.0029(3) -0.0069(3)
C14 0.0175(4) 0.0180(5) 0.0184(4) 0.0002(3) -0.0034(3) -0.0052(4)
C15 0.0245(5) 0.0241(5) 0.0191(5) 0.0045(4) -0.0064(4) -0.0101(4)
C16 0.0291(5) 0.0334(6) 0.0155(4) -0.0014(4) -0.0010(4) -0.0165(5)
C17 0.0245(5) 0.0280(5) 0.0202(5) -0.0095(4) 0.0034(4) -0.0115(4)
C18 0.0189(4) 0.0170(4) 0.0195(4) -0.0049(3) -0.0010(3) -0.0060(4)
loop_
_atom_type_symbol
_atom_type_description
_atom_type_scat_dispersion_real
_atom_type_scat_dispersion_imag
_atom_type_scat_source
C C 0.0033 0.0016 'International Tables Vol C Tables 4.2.6.8 and 6.1.1.4'
H H 0.0000 0.0000 'International Tables Vol C Tables 4.2.6.8 and 6.1.1.4'
N N 0.0061 0.0033 'International Tables Vol C Tables 4.2.6.8 and 6.1.1.4'
O O 0.0106 0.0060 'International Tables Vol C Tables 4.2.6.8 and 6.1.1.4'
P P 0.1023 0.0942 'International Tables Vol C Tables 4.2.6.8 and 6.1.1.4'
Cl Cl 0.1484 0.1585 'International Tables Vol C Tables 4.2.6.8 and 6.1.1.4'
loop_
_geom_angle_atom_site_label_1
_geom_angle_atom_site_label_2
_geom_angle_atom_site_label_3
_geom_angle
_geom_angle_site_symmetry_1
_geom_angle_site_symmetry_3
_geom_angle_publ_flag
O1 P1 N1 108.53(4) . . ?
O2 P1 O1 94.11(4) . . ?
O2 P1 N1 109.78(4) . . ?
O3 P1 O1 115.94(4) . . ?
O3 P1 O2 115.58(4) . . ?
O3 P1 N1 111.58(4) . . ?
C1 O1 P1 117.53(6) . . ?
C13 O2 P1 126.36(6) . . ?
P1 N1 H1 114.8(12) . . ?
C7 N1 P1 126.67(7) . . ?
C7 N1 H1 118.2(12) . . ?
C2 C1 O1 119.18(9) . . ?
C6 C1 O1 118.56(9) . . ?
C6 C1 C2 122.25(9) . . ?
C1 C2 H2 120.8 . . ?
C1 C2 C3 118.39(9) . . ?
C3 C2 H2 120.8 . . ?
C2 C3 H3 119.8 . . ?
C4 C3 C2 120.47(10) . . ?
C4 C3 H3 119.8 . . ?
C3 C4 H4 120.0 . . ?
C3 C4 C5 119.97(10) . . ?
C5 C4 H4 120.0 . . ?
C4 C5 H5 119.8 . . ?
C4 C5 C6 120.43(10) . . ?
C6 C5 H5 119.8 . . ?
C1 C6 C5 118.47(9) . . ?
C1 C6 H6 120.8 . . ?
C5 C6 H6 120.8 . . ?
C8 C7 N1 120.37(8) . . ?
C12 C7 N1 121.99(8) . . ?
C12 C7 C8 117.63(9) . . ?
C7 C8 Cl1 119.72(7) . . ?
C9 C8 Cl1 118.45(8) . . ?
C9 C8 C7 121.81(9) . . ?
C8 C9 H9 120.2 . . ?
C8 C9 C10 119.55(9) . . ?
C10 C9 H9 120.2 . . ?
C9 C10 H10 120.1 . . ?
C11 C10 C9 119.73(9) . . ?
C11 C10 H10 120.1 . . ?
C10 C11 H11 119.8 . . ?
C10 C11 C12 120.40(10) . . ?
C12 C11 H11 119.8 . . ?
C7 C12 H12 119.6 . . ?
C11 C12 C7 120.88(9) . . ?
C11 C12 H12 119.6 . . ?
C14 C13 O2 114.77(9) . . ?
C18 C13 O2 123.28(9) . . ?
C18 C13 C14 121.93(9) . . ?
C13 C14 H14 120.6 . . ?
C15 C14 C13 118.86(10) . . ?
C15 C14 H14 120.6 . . ?
C14 C15 H15 119.8 . . ?
C14 C15 C16 120.42(10) . . ?
C16 C15 H15 119.8 . . ?
C15 C16 H16 120.1 . . ?
C17 C16 C15 119.74(10) . . ?
C17 C16 H16 120.1 . . ?
C16 C17 H17 119.6 . . ?
C16 C17 C18 120.90(10) . . ?
C18 C17 H17 119.6 . . ?
C13 C18 C17 118.14(10) . . ?
C13 C18 H18 120.9 . . ?
C17 C18 H18 120.9 . . ?
loop_
_geom_bond_atom_site_label_1
_geom_bond_atom_site_label_2
_geom_bond_distance
_geom_bond_site_symmetry_2
_geom_bond_publ_flag
Cl1 C8 1.7381(10) . ?
P1 O1 1.5888(7) . ?
P1 O2 1.5841(7) . ?
P1 O3 1.4654(7) . ?
P1 N1 1.6274(8) . ?
O1 C1 1.4081(11) . ?
O2 C13 1.3937(11) . ?
N1 C7 1.4174(12) . ?
N1 H1 0.859(18) . ?
C1 C2 1.3848(14) . ?
C1 C6 1.3846(13) . ?
C2 H2 0.9300 . ?
C2 C3 1.3923(14) . ?
C3 H3 0.9300 . ?
C3 C4 1.3877(15) . ?
C4 H4 0.9300 . ?
C4 C5 1.3883(15) . ?
C5 H5 0.9300 . ?
C5 C6 1.3911(14) . ?
C6 H6 0.9300 . ?
C7 C8 1.3984(13) . ?
C7 C12 1.3981(13) . ?
C8 C9 1.3867(14) . ?
C9 H9 0.9300 . ?
C9 C10 1.3881(15) . ?
C10 H10 0.9300 . ?
C10 C11 1.3872(15) . ?
C11 H11 0.9300 . ?
C11 C12 1.3890(13) . ?
C12 H12 0.9300 . ?
C13 C14 1.3882(14) . ?
C13 C18 1.3858(14) . ?
C14 H14 0.9300 . ?
C14 C15 1.3877(14) . ?
C15 H15 0.9300 . ?
C15 C16 1.3896(17) . ?
C16 H16 0.9300 . ?
C16 C17 1.3847(17) . ?
C17 H17 0.9300 . ?
C17 C18 1.3964(15) . ?
C18 H18 0.9300 . ?
loop_
_geom_torsion_atom_site_label_1
_geom_torsion_atom_site_label_2
_geom_torsion_atom_site_label_3
_geom_torsion_atom_site_label_4
_geom_torsion
_geom_torsion_site_symmetry_1
_geom_torsion_site_symmetry_2
_geom_torsion_site_symmetry_3
_geom_torsion_site_symmetry_4
_geom_torsion_publ_flag
Cl1 C8 C9 C10 -178.62(8) . . . . ?
P1 O1 C1 C2 -86.91(10) . . . . ?
P1 O1 C1 C6 94.74(9) . . . . ?
P1 O2 C13 C14 158.04(7) . . . . ?
P1 O2 C13 C18 -23.76(13) . . . . ?
P1 N1 C7 C8 -136.77(8) . . . . ?
P1 N1 C7 C12 43.88(13) . . . . ?
O1 P1 O2 C13 -175.15(8) . . . . ?
O1 P1 N1 C7 41.12(9) . . . . ?
O1 C1 C2 C3 -179.64(9) . . . . ?
O1 C1 C6 C5 179.69(9) . . . . ?
O2 P1 O1 C1 -166.80(7) . . . . ?
O2 P1 N1 C7 -60.46(9) . . . . ?
O2 C13 C14 C15 177.81(9) . . . . ?
O2 C13 C18 C17 -178.25(9) . . . . ?
O3 P1 O1 C1 -45.72(8) . . . . ?
O3 P1 O2 C13 63.48(9) . . . . ?
O3 P1 N1 C7 170.08(8) . . . . ?
N1 P1 O1 C1 80.75(7) . . . . ?
N1 P1 O2 C13 -63.77(8) . . . . ?
N1 C7 C8 Cl1 -0.70(13) . . . . ?
N1 C7 C8 C9 -179.01(9) . . . . ?
N1 C7 C12 C11 179.17(9) . . . . ?
C1 C2 C3 C4 0.18(16) . . . . ?
C2 C1 C6 C5 1.40(15) . . . . ?
C2 C3 C4 C5 0.90(17) . . . . ?
C3 C4 C5 C6 -0.85(17) . . . . ?
C4 C5 C6 C1 -0.27(16) . . . . ?
C6 C1 C2 C3 -1.35(15) . . . . ?
C7 C8 C9 C10 -0.29(15) . . . . ?
C8 C7 C12 C11 -0.20(14) . . . . ?
C8 C9 C10 C11 0.02(15) . . . . ?
C9 C10 C11 C12 0.15(16) . . . . ?
C10 C11 C12 C7 -0.06(15) . . . . ?
C12 C7 C8 Cl1 178.68(7) . . . . ?
C12 C7 C8 C9 0.37(14) . . . . ?
C13 C14 C15 C16 0.69(16) . . . . ?
C14 C13 C18 C17 -0.17(15) . . . . ?
C14 C15 C16 C17 -0.37(17) . . . . ?
C15 C16 C17 C18 -0.24(17) . . . . ?
C16 C17 C18 C13 0.50(16) . . . . ?
C18 C13 C14 C15 -0.42(15) . . . . ?

_cod_database_fobs_code 2108932
