#------------------------------------------------------------------------------
#$Date: 2019-11-22 08:23:55 +0200 (Fri, 22 Nov 2019) $
#$Revision: 231195 $
#$URL: file:///home/coder/svn-repositories/cod/cif/2/10/85/2108541.cif $
#------------------------------------------------------------------------------
#
# This file is available in the Crystallography Open Database (COD),
# http://www.crystallography.net/. The original data for this entry
# were provided by IUCr Journals, http://journals.iucr.org/.
#
# The file may be used within the scientific community so long as
# proper attribution is given to the journal article from which the
# data were obtained.
#
data_2108541
loop_
_publ_author_name
'Mikhailov, Artem'
'Vukovi\'c, Vedran'
'Kijatkin, Christian'
'Wenger, Emmanuel'
'Imlau, Mirco'
'Woike, Theo'
'Kostin, Gennadiy'
'Schaniel, Dominik'
_publ_section_title
;
 Combining photoinduced linkage isomerism and nonlinear optical properties
 in ruthenium nitrosyl complexes
;
_journal_coeditor_code           DK5089SUP1
_journal_issue                   6
_journal_name_full               'Acta Crystallographica Section B'
_journal_page_first
;
;
_journal_paper_doi               10.1107/S205252061901357X
_journal_volume                  75
_journal_year                    2019
_chemical_absolute_configuration ad
_chemical_formula_moiety         'F6 Si, F H12 N5 O Ru'
_chemical_formula_sum            'F7 H12 N5 O Ru Si'
_chemical_formula_weight         360.27
_space_group_crystal_system      monoclinic
_space_group_IT_number           7
_space_group_name_Hall           'P -2yac'
_space_group_name_H-M_alt        'P 1 n 1'
_symmetry_Int_Tables_number      7
_atom_sites_solution_primary     iterative
_audit_creation_date             2019-04-16
_audit_creation_method
;
Olex2 1.2
(compiled 2018.05.29 svn.r3508 for OlexSys, GUI svn.r5506)
;
_cell_angle_alpha                90
_cell_angle_beta                 107.469(6)
_cell_angle_gamma                90
_cell_formula_units_Z            2
_cell_length_a                   6.7036(4)
_cell_length_b                   7.4260(4)
_cell_length_c                   10.1296(7)
_cell_measurement_reflns_used    4735
_cell_measurement_temperature    100(1)
_cell_measurement_theta_max      32.7580
_cell_measurement_theta_min      2.6590
_cell_volume                     481.00(5)
_computing_cell_refinement       'CrysAlisPro 1.171.39.46 (Rigaku OD, 2018)'
_computing_data_collection       'CrysAlisPro 1.171.39.46 (Rigaku OD, 2018)'
_computing_data_reduction        'CrysAlisPro 1.171.39.46 (Rigaku OD, 2018)'
_computing_molecular_graphics    'Olex2 (Dolomanov et al., 2009)'
_computing_publication_material  'Olex2 (Dolomanov et al., 2009)'
_computing_structure_refinement  'olex2.refine (Bourhis et al., 2015)'
_computing_structure_solution    'olex2.solve (Bourhis et al., 2015)'
_diffrn_ambient_environment      N~2~
_diffrn_ambient_temperature      100(1)
_diffrn_detector                 'CCD plate'
_diffrn_detector_area_resol_mean 10.4508
_diffrn_detector_type            Atlas
_diffrn_measured_fraction_theta_full 0.9890
_diffrn_measured_fraction_theta_max 0.8765
_diffrn_measurement_details
;
List of Runs (angles in degrees, time in seconds):

  # Type    Start    End  Width  t~exp~   \w     \q     \k     \f   Frames
--------------------------------------------------------------------------
  1  \w     -9.00  95.00   1.00   15.00    --   20.91  57.00 -60.00  104
  2  \w     -9.00  95.00   1.00   15.00    --   20.91  57.00  60.00  104
  3  \w     -9.00  95.00   1.00   15.00    --   20.91  57.00  90.00  104
  4  \w    -53.00  50.00   1.00   15.00    --   20.91 -57.00 150.00  103
  5  \w     -9.00  26.00   1.00   15.00    --   20.91  57.00-180.00   35
  6  \w    -53.00  50.00   1.00   15.00    --   20.91 -57.00 -30.00  103
;
_diffrn_measurement_device       'four-circle diffractometer'
_diffrn_measurement_device_type  'SuperNova, Dual, Cu at home/near, Atlas'
_diffrn_measurement_method       '\w scans'
_diffrn_orient_matrix_type
'CrysAlisPro convention (1999,Acta A55,543-557)'
_diffrn_orient_matrix_UB_11      -0.0933321000
_diffrn_orient_matrix_UB_12      -0.0434867000
_diffrn_orient_matrix_UB_13      0.0019363000
_diffrn_orient_matrix_UB_21      -0.0244839000
_diffrn_orient_matrix_UB_22      0.0748098000
_diffrn_orient_matrix_UB_23      0.0358573000
_diffrn_orient_matrix_UB_31      -0.0547572000
_diffrn_orient_matrix_UB_32      0.0405380000
_diffrn_orient_matrix_UB_33      -0.0639788000
_diffrn_radiation_monochromator  mirror
_diffrn_radiation_probe          x-ray
_diffrn_radiation_type           'Mo K\a'
_diffrn_radiation_wavelength     0.71073
_diffrn_reflns_av_R_equivalents  0.0326
_diffrn_reflns_av_unetI/netI     0.0390
_diffrn_reflns_limit_h_max       10
_diffrn_reflns_limit_h_min       -10
_diffrn_reflns_limit_k_max       11
_diffrn_reflns_limit_k_min       -11
_diffrn_reflns_limit_l_max       14
_diffrn_reflns_limit_l_min       -13
_diffrn_reflns_number            8064
_diffrn_reflns_theta_full        26.0000
_diffrn_reflns_theta_max         32.92
_diffrn_reflns_theta_min         2.74
_diffrn_source                   'micro-focus sealed X-ray tube'
_diffrn_source_type              'SuperNova (Mo) X-ray Source'
_exptl_absorpt_coefficient_mu    1.850
_exptl_absorpt_correction_T_max  1.00000
_exptl_absorpt_correction_T_min  0.62423
_exptl_absorpt_correction_type   multi-scan
_exptl_absorpt_process_details
;
CrysAlisPro 1.171.39.46 (Rigaku Oxford Diffraction, 2018)
Empirical absorption correction using spherical harmonics,
 implemented in SCALE3 ABSPACK scaling algorithm.
;
_exptl_crystal_colour            yellow
_exptl_crystal_colour_primary    yellow
_exptl_crystal_density_diffrn    2.4873
_exptl_crystal_description       block
_exptl_crystal_F_000             349.9500
_exptl_crystal_size_max          0.157
_exptl_crystal_size_mid          0.104
_exptl_crystal_size_min          0.085
_refine_diff_density_max         0.6384
_refine_diff_density_min         -0.6370
_refine_diff_density_rms         0.1043
_refine_ls_abs_structure_details
'Flack, H. D. (1983). Acta Cryst. A39, 876-881.'
_refine_ls_abs_structure_Flack   -0.02(2)
_refine_ls_d_res_high            0.6539
_refine_ls_d_res_low             7.4260
_refine_ls_extinction_expression Fc^*^=kFc[1+0.001xFc^2^\l^3^/sin(2\q)]^-1/4^
_refine_ls_goodness_of_fit_ref   1.0232
_refine_ls_hydrogen_treatment    constr
_refine_ls_matrix_type           full
_refine_ls_number_constraints    16
_refine_ls_number_parameters     141
_refine_ls_number_reflns         3165
_refine_ls_number_restraints     2
_refine_ls_restrained_S_all      1.0232
_refine_ls_R_factor_all          0.0237
_refine_ls_R_factor_gt           0.0220
_refine_ls_shift/su_max          0.0007
_refine_ls_shift/su_mean         0.0000
_refine_ls_structure_factor_coef Fsqd
_refine_ls_weighting_details
'w=1/[\s^2^(Fo^2^)+(0.0166P)^2^+0.2679P] where P=(Fo^2^+2Fc^2^)/3'
_refine_ls_weighting_scheme      calc
_refine_ls_wR_factor_gt          0.0472
_refine_ls_wR_factor_ref         0.0488
_reflns_Friedel_coverage         0.811
_reflns_limit_h_max              10
_reflns_limit_h_min              -10
_reflns_limit_k_max              11
_reflns_limit_k_min              -11
_reflns_limit_l_max              14
_reflns_limit_l_min              -13
_reflns_number_gt                3066
_reflns_number_total             3165
_reflns_threshold_expression     I>=2u(I)
_iucr_refine_instructions_details
;
TITL 
CELL 0.71073 6.703631 7.426001 10.129569 90 107.4685 90
ZERR 2 0.00036 0.000376 0.000653 0 0.0062 0
LATT -1
SYMM 0.5+X,-Y,0.5+Z
SFAC F H N O Ru Si
UNIT 14 24 10 2 2 2
EQIV $1 0.5+X,-1-Y,0.5+Z

L.S. 4
PLAN  20
HTAB N1 F2_$1
FMAP 2
BOND $H
ACTA 52
CONF 
more -3
EXTI 0.002605
OMIT -4 0 -4
OMIT 2 0 4
WGHT 0.0166 0.267933
FVAR 3.464481
REM <olex2.extras>
REM <HklSrc "%.\\GS.hkl">
REM </olex2.extras>

Si1   6    -0.85252 -0.16577 -0.50274  11.00000  0.00569  0.00541  0.00712 =
 0.00003  0.00095 -0.00029 

Ru1   5    -0.36614 -0.67200 -0.49186  11.00000  0.00486  0.00460  0.00479 =
 -0.00048  0.00102  0.00002 
N1    3    -0.31640 -0.93377 -0.41280  11.00000  0.00951  0.00670  0.00989 =
 -0.00040  0.00377 -0.00013 
AFIX 137
H1a   2    -0.23146 -0.99184 -0.45099  11.00000 -1.20000 
H1b   2    -0.25846 -0.92932 -0.32147  11.00000 -1.20000 
H1c   2    -0.43809 -0.99158 -0.43228  11.00000 -1.20000 
AFIX 0
F1    1    -0.12501 -0.60945 -0.33755  11.00000  0.01219  0.00886  0.00593 =
 -0.00102 -0.00037 -0.00152 
N4    3    -0.15341 -0.71050 -0.60278  11.00000  0.00924  0.00954  0.00902 =
 -0.00056  0.00413  0.00192 
AFIX 137
H4a   2    -0.22250 -0.73025 -0.69139  11.00000 -1.20000 
H4b   2    -0.07412 -0.61271 -0.59568  11.00000 -1.20000 
H4c   2    -0.07274 -0.80499 -0.56866  11.00000 -1.20000 
AFIX 0
N5    3    -0.58652 -0.71858 -0.62665  11.00000  0.00571  0.00797  0.00805 =
 -0.00051  0.00218  0.00081 
N2    3    -0.54820 -0.62868 -0.35871  11.00000  0.00979  0.01026  0.00752 =
 0.00119  0.00285 -0.00025 
AFIX 137
H2a   2    -0.62496 -0.52977 -0.38462  11.00000 -1.20000 
H2b   2    -0.63203 -0.72275 -0.36252  11.00000 -1.20000 
H2c   2    -0.46487 -0.61516 -0.27248  11.00000 -1.20000 
AFIX 0

F6    1    -0.62191 -0.22356 -0.38840  11.00000  0.00670  0.01126  0.00784 =
 0.00104  0.00069  0.00100 
F4    1    -0.96953 -0.20982 -0.38167  11.00000  0.01062  0.01648  0.01398 =
 0.00282  0.00762  0.00108 
F5    1    -0.81494  0.05000 -0.45111  11.00000  0.01378  0.00621  0.01467 =
 -0.00204  0.00177 -0.00063 
F2    1    -0.72771 -0.12655 -0.62083  11.00000  0.01715  0.01451  0.00996 =
 0.00310  0.00700  0.00188 
F7    1    -1.08186 -0.11421 -0.61521  11.00000  0.00991  0.01249  0.01360 =
 0.00293 -0.00370  0.00173 

N3    3    -0.37472 -0.39948 -0.54563  11.00000  0.00812  0.01033  0.00925 =
 -0.00139  0.00292 -0.00101 
AFIX 137
H3a   2    -0.42353 -0.38843 -0.63721  11.00000 -1.20000 
H3b   2    -0.45800 -0.34040 -0.50668  11.00000 -1.20000 
H3c   2    -0.24627 -0.35368 -0.51588  11.00000 -1.20000 
AFIX 0

F3    1    -0.88346 -0.38606 -0.55483  11.00000  0.01525  0.00611  0.01225 =
 -0.00142  0.00033  0.00009 

O1    4    -0.73916 -0.74197 -0.71316  11.00000  0.00992  0.01555  0.01206 =
 -0.00166  0.00025 -0.00167 
HKLF 4

END
Q1 1 -0.36 -0.966667 -0.5 11 0.05 0.64
Q2 1 -0.16 -0.6 -0.425 11 0.05 0.45
Q3 1 -0.02 -0.6 -0.35 11 0.05 0.44
Q4 1 -0.32 -0.766667 -0.525 11 0.05 0.41
Q5 1 -0.56 -0.6 -0.55 11 0.05 0.39
Q6 1 -0.26 -0.7 -0.375 11 0.05 0.37
Q7 1 -0.4 -0.6 -0.45 11 0.05 0.35
Q8 1 -0.86 -0.466667 -0.35 11 0.05 0.35
Q9 1 -0.32 -0.566667 -0.525 11 0.05 0.34
Q10 1 -0.16 -0.766667 -0.65 11 0.05 0.34
Q11 1 -0.22 -0.666667 -0.525 11 0.05 0.32
Q12 1 -1.16 -0.066667 -0.65 11 0.05 0.32
Q13 1 -0.78 -0.133333 -0.675 11 0.05 0.32
Q14 1 -0.72 -0.766667 -0.825 11 0.05 0.31
Q15 1 -0.06 -1.066667 -0.425 11 0.05 0.31
Q16 1 -0.1 -0.9 -0.425 11 0.05 0.31
Q17 1 -0.7 0 -0.4 11 0.05 0.3
Q18 1 -0.38 -1 -0.4 11 0.05 0.3
Q19 1 -0.62 -0.1 -0.625 11 0.05 0.29
Q20 1 -0.9 0.066667 -0.35 11 0.05 0.29

  REM The information below was added by Olex2.
  REM
  REM R1 = 0.0220 for 3066 Fo > 4sig(Fo) and 0.0237 for all 3165 data
  REM 141 parameters refined using 2 restraints
  REM Highest difference peak 0.6384, deepest hole -0.6370
  REM Mean Shift 0.0000, Max Shift 0.0007.

  REM +++ Tabular Listing of Refinement Information +++
  REM R1_all = 0.0237
  REM R1_gt = 0.0220
  REM wR_ref = 0.0488
  REM GOOF = 1.0232
  REM Shift_max = 0.0007
  REM Shift_mean = 0.0000
  REM Reflections_all = 3165
  REM Reflections_gt = 3066
  REM Parameters = 141
  REM Hole = -0.6370
  REM Peak = 0.6384
  REM Flack = -0.02(2)

  
;
_cod_data_source_file            dk5089sup1.cif
_cod_data_source_block           I
_cod_original_cell_volume        481.01(5)
_cod_original_sg_symbol_Hall     ' P -2yac '
_cod_database_code               2108541
_reflns_odcompleteness_completeness 100.00
_reflns_odcompleteness_iscentric 1
_reflns_odcompleteness_theta     26.32
_olex2_refinement_description
;
1. Fixed Uiso
 At 1.2 times of:
  All N(H,H,H) groups
2.a Idealised Me refined as rotating group:
 N1(H1a,H1b,H1c), N4(H4a,H4b,H4c), N2(H2a,H2b,H2c), N3(H3a,H3b,H3c)
;
_iucr_refine_fcf_details
;
;
_olex2_submission_special_instructions 'No special instructions were received'
_oxdiff_exptl_absorpt_empirical_details
;
Empirical correction (ABSPACK) includes:
- Absorption correction using spherical harmonics
- Frame scaling
;
_oxdiff_exptl_absorpt_empirical_full_max 1.504
_oxdiff_exptl_absorpt_empirical_full_min 0.729
loop_
_space_group_symop_id
_space_group_symop_operation_xyz
1 x,y,z
2 x+1/2,-y,z+1/2
loop_
_atom_site_label
_atom_site_type_symbol
_atom_site_fract_x
_atom_site_fract_y
_atom_site_fract_z
_atom_site_U_iso_or_equiv
_atom_site_adp_type
_atom_site_occupancy
_atom_site_refinement_flags_posn
Si1 Si -0.85252(13) -0.16577(9) -0.50274(11) 0.00629(19) Uani 1.000000 .
Ru1 Ru -0.366141(14) -0.67200(2) -0.491860(12) 0.00485(5) Uani 1.000000 .
N1 N -0.3164(3) -0.9338(3) -0.4128(2) 0.0085(4) Uani 1.000000 .
H1a H -0.231(3) -0.9918(9) -0.4510(16) 0.0102(5) Uiso 1.000000 GR
H1b H -0.258(3) -0.9293(3) -0.3215(3) 0.0102(5) Uiso 1.000000 GR
H1c H -0.4381(5) -0.9916(9) -0.4323(18) 0.0102(5) Uiso 1.000000 GR
F1 F -0.1250(2) -0.6094(2) -0.33755(14) 0.0097(3) Uani 1.000000 .
N4 N -0.1534(3) -0.7105(4) -0.6028(2) 0.0090(4) Uani 1.000000 .
H4a H -0.2225(3) -0.730(3) -0.6914(5) 0.0108(5) Uiso 1.000000 GR
H4b H -0.074(2) -0.6127(11) -0.5957(18) 0.0108(5) Uiso 1.000000 GR
H4c H -0.073(2) -0.8050(18) -0.5687(14) 0.0108(5) Uiso 1.000000 GR
N5 N -0.5865(3) -0.7186(3) -0.6266(2) 0.0072(4) Uani 1.000000 .
N2 N -0.5482(3) -0.6287(4) -0.3587(2) 0.0091(4) Uani 1.000000 .
H2a H -0.625(2) -0.5298(16) -0.3846(13) 0.0110(5) Uiso 1.000000 GR
H2b H -0.632(2) -0.7227(13) -0.3625(17) 0.0110(5) Uiso 1.000000 GR
H2c H -0.4649(3) -0.615(3) -0.2725(4) 0.0110(5) Uiso 1.000000 GR
F6 F -0.6219(2) -0.2236(2) -0.38840(15) 0.0089(3) Uani 1.000000 .
F4 F -0.9695(2) -0.2098(3) -0.38167(16) 0.0128(3) Uani 1.000000 .
F5 F -0.8149(2) 0.0500(2) -0.45111(15) 0.0121(3) Uani 1.000000 .
F2 F -0.7277(2) -0.1265(3) -0.62083(16) 0.0132(3) Uani 1.000000 .
F7 F -1.0819(2) -0.1142(2) -0.61521(16) 0.0136(3) Uani 1.000000 .
N3 N -0.3747(3) -0.3995(3) -0.5456(2) 0.0092(4) Uani 1.000000 .
H3a H -0.424(3) -0.3884(3) -0.6372(2) 0.0110(5) Uiso 1.000000 GR
H3b H -0.458(2) -0.3404(6) -0.5067(17) 0.0110(5) Uiso 1.000000 GR
H3c H -0.2463(6) -0.3537(7) -0.5159(18) 0.0110(5) Uiso 1.000000 GR
F3 F -0.8835(2) -0.3861(2) -0.55483(15) 0.0120(3) Uani 1.000000 .
O1 O -0.7392(2) -0.7420(3) -0.71316(18) 0.0132(4) Uani 1.000000 .
loop_
_atom_site_aniso_label
_atom_site_aniso_U_11
_atom_site_aniso_U_22
_atom_site_aniso_U_33
_atom_site_aniso_U_12
_atom_site_aniso_U_13
_atom_site_aniso_U_23
Si1 0.0057(3) 0.0054(2) 0.0071(4) -0.0003(3) 0.0010(3) 0.0000(3)
Ru1 0.00486(7) 0.00460(7) 0.00479(8) 0.00002(8) 0.00102(5) -0.00048(9)
N1 0.0095(9) 0.0067(9) 0.0099(10) -0.0001(7) 0.0038(8) -0.0004(8)
F1 0.0122(7) 0.0089(8) 0.0059(7) -0.0015(6) -0.0004(6) -0.0010(6)
N4 0.0092(10) 0.0095(10) 0.0090(11) 0.0019(9) 0.0041(8) -0.0006(9)
N5 0.0057(9) 0.0080(10) 0.0080(10) 0.0008(8) 0.0022(7) -0.0005(8)
N2 0.0098(10) 0.0103(10) 0.0075(11) -0.0002(9) 0.0029(8) 0.0012(9)
F6 0.0067(6) 0.0113(8) 0.0078(7) 0.0010(6) 0.0007(5) 0.0010(6)
F4 0.0106(7) 0.0165(8) 0.0140(9) 0.0011(7) 0.0076(6) 0.0028(7)
F5 0.0138(7) 0.0062(7) 0.0147(8) -0.0006(5) 0.0018(5) -0.0020(6)
F2 0.0172(8) 0.0145(8) 0.0100(8) 0.0019(7) 0.0070(6) 0.0031(7)
F7 0.0099(7) 0.0125(8) 0.0136(8) 0.0017(6) -0.0037(6) 0.0029(7)
N3 0.0081(9) 0.0103(10) 0.0093(10) -0.0010(8) 0.0029(8) -0.0014(8)
F3 0.0153(7) 0.0061(7) 0.0123(8) 0.0001(6) 0.0003(6) -0.0014(6)
O1 0.0099(8) 0.0156(10) 0.0121(9) -0.0017(7) 0.0002(7) -0.0017(8)
loop_
_atom_type_symbol
_atom_type_scat_dispersion_real
_atom_type_scat_dispersion_imag
_atom_type_scat_Cromer_Mann_a1
_atom_type_scat_Cromer_Mann_a2
_atom_type_scat_Cromer_Mann_a3
_atom_type_scat_Cromer_Mann_a4
_atom_type_scat_Cromer_Mann_b1
_atom_type_scat_Cromer_Mann_b2
_atom_type_scat_Cromer_Mann_b3
_atom_type_scat_Cromer_Mann_b4
_atom_type_scat_Cromer_Mann_c
_atom_type_scat_source
_atom_type_scat_dispersion_source
Ru -1.23940 0.83517 19.26740 12.91820 4.86337 1.56756 0.80852 8.43467 24.79970
94.29280 5.37873983383
'International Tables Volume C Table 6.1.1.4 (pp. 500-502)'
'Henke, Gullikson and Davis, At. Data and Nucl. Data Tables, 1993, 54, 2'
F 0.01794 0.01033 3.53920 2.64120 1.51700 1.02430 10.28250 4.29440 0.26150
26.14760 0.277599990368
'International Tables Volume C Table 6.1.1.4 (pp. 500-502)'
'Henke, Gullikson and Davis, At. Data and Nucl. Data Tables, 1993, 54, 2'
H 0.00000 0.00000 0.49300 0.32291 0.14019 0.04081 10.51090 26.12570 3.14236
57.79970 0.0030380000826
'International Tables Volume C Table 6.1.1.4 (pp. 500-502)'
'Henke, Gullikson and Davis, At. Data and Nucl. Data Tables, 1993, 54, 2'
O 0.01158 0.00611 3.04850 2.28680 1.54630 0.86700 13.27710 5.70110 0.32390
32.90890 0.250800013542
'International Tables Volume C Table 6.1.1.4 (pp. 500-502)'
'Henke, Gullikson and Davis, At. Data and Nucl. Data Tables, 1993, 54, 2'
N 0.00653 0.00323 12.21260 3.13220 2.01250 1.16630 0.00570 9.89330 28.99750
0.58260 -11.5290002823
'International Tables Volume C Table 6.1.1.4 (pp. 500-502)'
'Henke, Gullikson and Davis, At. Data and Nucl. Data Tables, 1993, 54, 2'
Si 0.08192 0.07060 6.29150 3.03530 1.98910 1.54100 2.43860 32.33370 0.67850
81.69370 1.14069998264
'International Tables Volume C Table 6.1.1.4 (pp. 500-502)'
'Henke, Gullikson and Davis, At. Data and Nucl. Data Tables, 1993, 54, 2'
loop_
_geom_angle_atom_site_label_1
_geom_angle_atom_site_label_2
_geom_angle_atom_site_label_3
_geom_angle
F4 Si1 F6 88.95(9)
F5 Si1 F6 90.46(9)
F5 Si1 F4 91.02(10)
F2 Si1 F6 89.05(8)
F2 Si1 F4 177.85(10)
F2 Si1 F5 89.78(9)
F7 Si1 F6 178.52(10)
F7 Si1 F4 90.39(9)
F7 Si1 F5 90.87(8)
F7 Si1 F2 91.60(9)
F3 Si1 F6 88.27(8)
F3 Si1 F4 89.94(9)
F3 Si1 F5 178.39(9)
F3 Si1 F2 89.22(10)
F3 Si1 F7 90.42(9)
F1 Ru1 N1 85.14(7)
N4 Ru1 N1 91.30(9)
N4 Ru1 F1 85.85(7)
N5 Ru1 N1 96.74(10)
N5 Ru1 F1 177.16(10)
N5 Ru1 N4 96.21(9)
N2 Ru1 N1 87.30(9)
N2 Ru1 F1 87.14(7)
N2 Ru1 N4 172.94(8)
N2 Ru1 N5 90.82(9)
N3 Ru1 N1 171.08(7)
N3 Ru1 F1 85.94(7)
N3 Ru1 N4 87.83(9)
N3 Ru1 N5 92.18(10)
N3 Ru1 N2 92.48(9)
H1a N1 Ru1 109.5
H1b N1 Ru1 109.5
H1b N1 H1a 109.5
H1c N1 Ru1 109.5
H1c N1 H1a 109.5
H1c N1 H1b 109.5
H4a N4 Ru1 109.5
H4b N4 Ru1 109.5
H4b N4 H4a 109.5
H4c N4 Ru1 109.5
H4c N4 H4a 109.5
H4c N4 H4b 109.5
O1 N5 Ru1 175.9(2)
H2a N2 Ru1 109.5
H2b N2 Ru1 109.5
H2b N2 H2a 109.5
H2c N2 Ru1 109.5
H2c N2 H2a 109.5
H2c N2 H2b 109.5
H3a N3 Ru1 109.5
H3b N3 Ru1 109.5
H3b N3 H3a 109.5
H3c N3 Ru1 109.5
H3c N3 H3a 109.5
H3c N3 H3b 109.5
loop_
_geom_bond_atom_site_label_1
_geom_bond_atom_site_label_2
_geom_bond_distance
Si1 F6 1.6854(17)
Si1 F4 1.6745(19)
Si1 F5 1.6808(17)
Si1 F2 1.678(2)
Si1 F7 1.6603(16)
Si1 F3 1.7123(17)
Ru1 N1 2.091(2)
Ru1 F1 1.9378(13)
Ru1 N4 2.083(2)
Ru1 N5 1.7191(19)
Ru1 N2 2.098(2)
Ru1 N3 2.092(2)
N1 H1a 0.8900
N1 H1b 0.8900
N1 H1c 0.8900
N4 H4a 0.8900
N4 H4b 0.8900
N4 H4c 0.8900
N5 O1 1.143(2)
N2 H2a 0.8900
N2 H2b 0.8900
N2 H2c 0.8900
N3 H3a 0.8900
N3 H3b 0.8900
N3 H3c 0.8900
loop_
_geom_hbond_atom_site_label_D
_geom_hbond_atom_site_label_H
_geom_hbond_atom_site_label_A
_geom_hbond_distance_DH
_geom_hbond_distance_HA
_geom_hbond_distance_DA
_geom_hbond_angle_DHA
_geom_hbond_site_symmetry_A
N1 H1b F2 0.8900 2.023(7) 2.872(3) 158.9(16) 2_545
loop_
_refln_index_h
_refln_index_k
_refln_index_l
_refln_F_squared_meas
_refln_F_squared_sigma
_refln_scale_group_code
-10 0 4 11387.1 777.325 6
-10 0 5 52.9592 103.16 6
-10 1 4 1682.57 297.896 6
-10 -1 4 2347.71 341.232 6
-10 -1 5 2593.27 383.115 6
-10 1 5 2877.34 356.867 6
-10 1 6 885.101 179.505 6
-10 -2 4 2090.89 320.844 6
-10 -2 5 3375.57 390.68 6
-10 2 5 3097.34 376.535 6
-9 0 -1 5337.78 562.317 6
-9 0 0 -6.98023 88.3082 6
-9 0 1 10411 748.512 6
-9 0 2 254.971 166.099 6
-9 0 3 8721.56 641.094 6
-9 0 4 120.4 90.5404 6
-9 0 5 8808.42 621.703 6
-9 0 6 -163.711 114.802 6
-9 0 10 65.7934 98.1739 1
-9 0 11 4970.15 453.586 1
-9 -1 0 17209.2 1018 6
-9 1 0 16698.3 999.952 6
-9 1 1 5714.72 549.045 6
-9 -1 1 5021.68 503.91 6
-9 1 2 19456.5 1051.7 6
-9 -1 2 19448.4 1045.97 6
-9 1 3 918.607 209.999 6
-9 -1 3 2300.72 311.377 6
-9 1 4 5123.13 482.276 6
-9 -1 4 5409.61 483.897 6
-9 -1 5 1130.52 209.256 6
-9 1 5 1351.12 225.213 6
-9 1 6 7962.12 575.165 6
-9 -1 6 8057.26 568.646 6
-9 -1 9 3706.76 367.45 1
-9 -1 10 8899.44 602.832 1
-9 -2 0 4094.62 467.824 6
-9 2 0 3826.45 472.374 6
-9 2 1 1817.31 302.352 6
-9 -2 1 1828.43 317.439 6
-9 -2 2 8299.21 650.677 6
-9 2 2 7674.6 631.607 6
-9 2 3 1495.67 279.798 6
-9 -2 3 1114.1 224.304 6
-9 -2 4 5027.71 474.645 6
-9 2 4 4246.1 438.724 6
-9 2 5 2081.64 293.221 6
-9 -2 5 2195.2 303.525 6
-9 -2 6 3881.98 390.132 6
-9 -3 1 19645.9 1116.88 6
-9 3 1 19488.9 1088.74 6
-9 -3 2 792.36 200.736 6
-9 3 2 820.905 188.098 6
-9 3 3 11831.2 794.773 6
-9 -3 3 12211.1 801.686 6
-9 -3 4 -8.50726 116.031 6
-9 -3 5 8716.52 619.004 6
-9 -4 2 5985.71 571.83 6
-9 -4 3 3893.84 461.626 6
-9 -4 4 6024.5 542.009 6
-9 -4 5 323.522 128.525 6
-9 -5 3 5170.68 526.322 6
-9 -5 4 6861.74 604.249 6
-8 0 -4 9407.32 740.317 6
-8 0 -3 -64.9049 115.079 6
-8 0 -2 17646.8 1007.49 6
-8 0 -1 -285.82 120.944 6
-8 0 0 28917.8 1308.68 6
-8 0 1 -26.3013 93.1556 6
-8 0 2 15490.7 844.743 6
-8 0 3 200.106 106.201 6
-8 0 4 22980.5 1032.86 6
-8 0 5 155.207 117.59 6
-8 0 6 23508.3 1011.96 6
-8 0 7 21.4945 96.2234 6
-8 0 8 13549.7 695.661 1
-8 0 9 -117.714 74.3186 1
-8 0 10 7778.77 553.678 1
-8 0 11 298.015 118.533 1
-8 0 12 9983.17 679.766 1
-8 -1 -4 1254.8 298.234 6
-8 1 -4 1294.07 307.572 6
-8 -1 -3 4950.74 526.982 6
-8 1 -3 5265.86 546.953 6
-8 1 -2 2681.5 377.129 6
-8 -1 -2 3142.49 405.137 6
-8 -1 -1 4304.08 466.759 6
-8 1 -1 4079.46 460.428 6
-8 1 0 6273 542.696 6
-8 -1 0 6902.65 573.269 6
-8 1 1 2542.02 342.481 6
-8 -1 1 2517.62 332.577 6
-8 1 2 5166.05 467.42 6
-8 -1 2 4692.83 432.367 6
-8 -1 3 6620.49 517.164 6
-8 1 3 7062.29 545.046 6
-8 -1 4 3111.09 341.088 6
-8 1 4 3421.92 365.673 6
-8 -1 5 15128.9 786.116 6
-8 1 5 16450.8 823.631 6
-8 1 6 1099.84 160.431 1
-8 1 6 780.709 156.865 6
-8 -1 6 999.23 201.787 6
-8 1 7 10251.8 544.787 1
-8 -1 7 10031.8 569.183 6
-8 1 8 882.355 181.142 1
-8 1 9 8094.45 527.815 1
-8 -1 10 916.362 207.509 1
-8 1 10 1135.66 220.917 1
-8 -1 11 6993.41 555.611 1
-8 1 11 7631.41 552.693 1
-8 -1 12 2303.42 321.707 1
-8 1 12 2765.59 339.996 1
-8 -2 -3 14020 926.695 6
-8 2 -3 13983.6 904.809 6
-8 -2 -2 5657 551.456 6
-8 2 -2 4659.38 521.102 6
-8 -2 -1 20883.2 1100.12 6
-8 2 -1 19290.7 1052.05 6
-8 2 0 11319.1 752.778 6
-8 -2 0 11046.7 747.758 6
-8 -2 1 9545.92 662.248 6
-8 2 1 9155.78 661.003 6
-8 -2 2 6026.42 511.069 6
-8 2 2 5455.75 483.732 6
-8 -2 3 5085.51 458.333 6
-8 2 3 5870.65 491.742 6
-8 -2 4 4653.08 428.195 6
-8 2 4 5063.22 441.895 6
-8 -2 5 12043.8 684.895 6
-8 2 5 12209.8 695.293 6
-8 -2 6 2177.51 264.218 6
-8 -2 7 10555.3 590.996 6
-8 2 8 3787.53 334.668 1
-8 2 9 9370.21 568.302 1
-8 2 10 5521.3 441.993 1
-8 2 11 9198.15 624.075 1
-8 -2 11 9519.62 661.986 1
-8 2 12 3776.87 401.345 1
-8 -3 -3 1439.08 299.91 6
-8 3 -3 1635.81 306.398 6
-8 3 -2 5638.98 552.127 6
-8 -3 -2 5929.71 598.038 6
-8 -3 -1 1659.91 292.608 6
-8 3 -1 1912.13 332.065 6
-8 3 0 7145.96 605.082 6
-8 -3 0 6321.4 567.815 6
-8 -3 1 446.87 186.438 6
-8 3 1 464.282 151.269 6
-8 3 2 8759.28 631.916 6
-8 -3 2 8341.54 620.374 6
-8 3 3 556.545 184.34 6
-8 -3 3 683.791 180.985 6
-8 -3 4 14732.6 811.056 6
-8 -3 5 896.726 172.405 6
-8 -3 6 10723.2 630.904 6
-8 -4 -2 5857.21 592.102 6
-8 4 -2 5873.92 572.379 6
-8 4 -1 10588.1 758.974 6
-8 -4 -1 10362.8 809.634 6
-8 -4 0 2163.55 355.055 6
-8 4 0 2497.62 344.21 6
-8 -4 1 16420.6 973.832 6
-8 -4 2 3694.99 414.342 6
-8 -4 3 17825.9 966.585 6
-8 -4 4 3926.02 407.914 6
-8 -4 5 12973.4 750.979 6
-8 -4 6 5983.7 465.718 6
-8 -5 -1 3183.16 445.392 6
-8 -5 0 922.423 241.376 6
-8 -5 1 7217.58 635.237 6
-8 -5 2 568.394 166.367 6
-8 -5 3 4923.77 504.273 6
-8 -5 4 3946.99 423.148 6
-8 -5 5 1781.76 264.042 6
-8 -6 1 3294.16 434.002 6
-8 -6 2 13833 911.382 6
-8 -6 3 2507.51 360.797 6
-8 -6 4 10224.4 728.019 6
-8 -6 5 -59.8858 62.787 6
-8 -7 4 261.132 154.918 6
-7 0 -6 -168.55 170.834 6
-7 0 -5 5576.1 541.935 6
-7 0 -4 52.0149 141.672 6
-7 0 -3 13497.2 827.114 6
-7 0 -2 -189.648 141.944 6
-7 0 -1 13426.8 776.636 6
-7 0 0 -27.3315 104.61 6
-7 0 1 6327.76 490.804 6
-7 0 2 -1.86325 81.1314 6
-7 0 3 17109.2 817.97 6
-7 0 4 27.8321 91.3672 6
-7 0 5 17829.3 800.8 6
-7 0 6 16.4626 63.6447 6
-7 0 7 10839.9 550.287 6
-7 0 8 57.4938 107.887 1
-7 0 9 3846.91 350.651 1
-7 0 10 200.449 127.554 1
-7 0 11 11300.1 682.127 1
-7 0 12 -84.293 118.336 1
-7 0 13 8297.31 631.621 1
-7 1 -6 12498.3 854.981 6
-7 -1 -6 11986.5 849.253 6
-7 -1 -5 3135.73 411.332 6
-7 1 -5 2641.69 386.322 6
-7 1 -4 16376.6 953.739 6
-7 -1 -4 18283.3 1007.84 6
-7 -1 -3 8736.71 658.487 6
-7 1 -3 7973.24 628.137 6
-7 -1 -2 25025.9 1174 6
-7 1 -2 24857 1169.91 6
-7 -1 -1 5265.48 484.473 6
-7 1 -1 5477.51 484.931 6
-7 1 0 10226.7 652.24 6
-7 -1 0 9830.57 644.011 6
-7 -1 1 2664.06 336.686 6
-7 1 1 2986.6 330.857 6
-7 1 2 15918.5 808.143 6
-7 -1 2 15629.7 797.193 6
-7 -1 3 5662.49 426.527 6
-7 1 3 5666.87 432.29 6
-7 -1 4 31096.4 1181.71 6
-7 1 4 29733.1 1175.44 6
-7 -1 5 7963.05 486.273 6
-7 1 5 7351.94 477.888 6
-7 1 5 8488.79 422.566 1
-7 1 6 17832.6 796.151 6
-7 1 6 18970.2 750.412 1
-7 -1 6 18194.2 792.099 6
-7 1 7 4354.38 327.311 1
-7 -1 7 4116.1 320.276 6
-7 1 8 7989.13 484.928 1
-7 1 9 3870.75 335.364 1
-7 1 10 6996.29 490.027 1
-7 -1 10 6055.42 478.17 1
-7 1 11 4918.47 429.262 1
-7 -1 11 4113.71 405.926 1
-7 -1 12 11200.2 726.026 1
-7 1 12 10047.3 678.461 1
-7 1 13 2834.15 384.479 1
-7 -2 -6 1080.38 274.938 6
-7 2 -6 1565.3 299.502 6
-7 -2 -5 1949.51 350.277 6
-7 2 -5 1446.53 298.845 6
-7 -2 -4 3505.98 427.901 6
-7 2 -4 2946.21 370.801 6
-7 -2 -3 2591.66 383.961 6
-7 2 -3 2548.99 347.873 6
-7 2 -2 9008.98 649.273 6
-7 -2 -2 8922.43 664.489 6
-7 2 -1 2031.04 306.733 6
-7 -2 -1 2796.65 362.172 6
-7 2 0 6038.27 495.183 6
-7 -2 0 6109.45 517.135 6
-7 -2 1 1888.34 280.916 6
-7 2 1 1746.87 250.899 6
-7 2 2 3989.64 382.337 6
-7 -2 2 3866.64 377.568 6
-7 -2 3 6106.42 467.138 6
-7 2 3 6245.49 475.759 6
-7 2 4 10868.9 627.401 6
-7 -2 4 10854.4 617.195 6
-7 2 4 11978.9 477.905 1
-7 -2 5 3498.95 315.856 6
-7 2 5 3034.07 313.203 6
-7 2 5 3554.18 251.654 1
-7 -2 6 10281.5 552.935 6
-7 2 6 10899.4 516.63 1
-7 2 7 4744.71 343.829 1
-7 -2 7 4732.68 342.391 6
-7 2 8 5268.76 382.931 1
-7 2 9 2488.29 296.464 1
-7 2 10 8558.79 558.485 1
-7 2 11 5712.63 483.626 1
-7 -2 11 6088.38 495.556 1
-7 -2 12 11323.1 730.006 1
-7 2 12 11043.7 717.938 1
-7 2 13 3599.96 425.119 1
-7 3 -6 213.948 128.405 6
-7 -3 -5 18068.1 1111.45 6
-7 3 -5 19667.2 1079.27 6
-7 3 -4 450.566 213.367 6
-7 -3 -4 557.857 194.416 6
-7 -3 -3 24932.8 1268.63 6
-7 3 -3 26455.1 1246.29 6
-7 -3 -2 492.583 201.591 6
-7 3 -2 93.9129 130.803 6
-7 3 -1 22069 1063.34 6
-7 -3 -1 20605.1 1076.66 6
-7 -3 0 581.891 170.29 6
-7 3 0 540.095 156.255 6
-7 -3 1 15768.6 861.216 6
-7 3 1 16597.9 868.313 6
-7 3 2 880.705 185.803 6
-7 -3 2 916.05 207.082 6
-7 -3 3 22292 1020.52 6
-7 3 3 22706 1010.9 6
-7 -3 4 157.577 96.1106 6
-7 -3 5 24892.5 1027.68 6
-7 -3 6 796.111 154.199 6
-7 3 6 958.31 166.24 1
-7 3 7 15838.7 700.99 1
-7 -3 7 16083.1 705.409 6
-7 3 8 957.439 165.696 1
-7 3 9 9829.94 584.888 1
-7 3 10 872.63 209.415 1
-7 3 11 10386.5 674.837 1
-7 3 12 434.58 175.498 1
-7 4 -5 54.2875 91.7907 6
-7 4 -4 7932.62 656.858 6
-7 -4 -4 9282.56 750.226 6
-7 -4 -3 1297.98 302.273 6
-7 4 -3 1258.72 292.651 6
-7 -4 -2 8039.35 641.774 6
-7 4 -2 6488.53 555.112 6
-7 -4 -1 4270.52 457.332 6
-7 4 -1 3537.6 400.469 6
-7 -4 0 6422.28 542.395 6
-7 4 0 5732.08 498.134 6
-7 -4 1 384.648 186.857 6
-7 -4 2 10581.9 678.758 6
-7 -4 3 659.556 165.766 6
-7 -4 4 12772 715.87 6
-7 -4 5 3490.81 342.512 6
-7 -4 6 10359.5 591.432 6
-7 4 8 6223.43 431.149 1
-7 4 9 1632.82 241.773 1
-7 4 10 4675.73 430.396 1
-7 4 11 1537.47 276.132 1
-7 4 12 5426.5 505.852 1
-7 -5 -3 5066.1 541.954 6
-7 -5 -2 9859.92 759.402 6
-7 -5 -1 3902.9 457.44 6
-7 -5 0 15310.1 917.344 6
-7 -5 1 7096.71 583.526 6
-7 -5 2 11534.5 736.252 6
-7 -5 3 9963.52 666.276 6
-7 -5 4 9848.95 639.78 6
-7 -5 5 6907.38 504.474 6
-7 -5 6 11188 638.563 6
-7 -6 -2 1041.15 254.158 6
-7 -6 -1 5482.81 555.874 6
-7 -6 0 608.274 211.853 6
-7 -6 1 7466.99 624.206 6
-7 -6 2 1187.15 254.906 6
-7 -6 3 4804.62 478.887 6
-7 -6 4 231.637 145.939 6
-7 -6 5 7753.76 560.256 6
-7 -7 0 19070.2 1116.76 6
-7 -7 1 2627.57 410.009 6
-7 -7 2 15214.3 948.95 6
-7 -7 3 1353.35 261.657 6
-7 -7 4 8757.15 674.864 6
-7 -7 5 930.792 206.055 6
-7 -8 3 4530.04 513.055 6
-7 -8 4 1255.48 263.756 6
-6 0 -9 -275.613 131.344 6
-6 0 -8 11457.7 800.371 6
-6 0 -7 -350.951 165.202 6
-6 0 -6 18331.5 992.322 6
-6 0 -5 151.281 140.382 6
-6 0 -4 28193.5 1244.16 6
-6 0 -3 138.198 144.784 6
-6 0 -2 12463.7 712.882 6
-6 0 -1 -177.928 122.194 6
-6 0 0 22113.4 960.78 6
-6 0 1 281.159 117.307 6
-6 0 2 86820.4 2595.35 6
-6 0 3 -121.232 93.0349 6
-6 0 4 61098.8 1900 6
-6 0 5 -18.8786 79.7638 6
-6 0 6 26184.9 948.095 6
-6 0 7 8.1617 37.9073 6
-6 0 8 11883.5 600.958 1
-6 0 9 -20.1788 112.255 1
-6 0 10 15595.4 775.807 1
-6 0 11 -14.5957 97.1457 1
-6 0 12 8967.37 616.852 1
-6 0 13 4.95407 112.491 1
-6 1 -9 7301.72 628.31 6
-6 1 -8 665.282 196.306 6
-6 -1 -8 715.601 220.141 6
-6 1 -7 3003.41 381.294 6
-6 -1 -7 3628.85 426.967 6
-6 -1 -6 127.812 117.872 6
-6 1 -6 118.781 161.088 6
-6 -1 -5 2305.74 331.664 6
-6 1 -5 2540 345.666 6
-6 -1 -4 3284.44 396.031 6
-6 1 -4 3699.14 393.069 6
-6 1 -3 13709.8 772.043 6
-6 -1 -3 13798.6 787.837 6
-6 1 -2 10801.5 657.722 6
-6 -1 -2 10908.6 666.252 6
-6 1 -1 10620.1 634.633 6
-6 -1 -1 10896.8 637.58 6
-6 1 0 6082.01 450.253 6
-6 -1 0 5941.64 450.614 6
-6 1 1 8238.59 343.023 1
-6 1 1 8550.44 520.713 6
-6 -1 1 8441.59 522.928 6
-6 -1 2 3402.72 320.182 6
-6 1 2 3480.73 212.21 4
-6 1 2 3960.37 336.64 6
-6 1 2 3649.81 226.981 1
-6 -1 3 6272.36 414.832 6
-6 1 3 6392.27 331.154 4
-6 1 3 5849.55 412.668 6
-6 1 4 2506.86 259.678 6
-6 -1 4 3085.36 272.771 6
-6 1 5 11794.9 575.222 6
-6 -1 5 12113 574.153 6
-6 1 5 12506.1 530.502 1
-6 1 6 2453.08 223.496 1
-6 1 6 2342.35 217.897 6
-6 -1 6 2476 220.967 6
-6 1 7 16704 722.371 1
-6 -1 7 18002.8 683.002 6
-6 -1 8 1610.4 160.378 6
-6 1 8 1768.27 229.178 1
-6 1 9 16111.1 759.23 1
-6 1 10 802.385 180.726 1
-6 -1 10 1118.84 208.486 1
-6 -1 11 8189.04 566.955 1
-6 1 11 7774.59 553.404 1
-6 -1 12 2039.68 285.21 1
-6 1 12 1889.31 289.329 1
-6 -1 13 4408.84 450.514 1
-6 1 13 4590.57 469.087 1
-6 2 -8 4569.61 495.293 6
-6 -2 -8 5392.65 565.062 6
-6 -2 -7 18843.3 1073.52 6
-6 2 -7 17981.2 1006.21 6
-6 2 -6 8622.8 659.125 6
-6 -2 -6 9539.53 718.629 6
-6 -2 -5 31955.9 1401.8 6
-6 2 -5 27723.8 1288.68 6
-6 -2 -4 16591.8 940.584 6
-6 2 -4 18056.1 925.393 6
-6 -2 -3 22881.5 1101.78 6
-6 2 -3 21166.9 1030.68 6
-6 2 -2 6791.78 515.858 6
-6 -2 -2 6911.98 545.12 6
-6 2 -1 9905.54 613.374 6
-6 -2 -1 10658.2 653.963 6
-6 2 0 4043.42 380.006 6
-6 -2 0 4157.72 388.701 6
-6 -2 1 18390.8 860.169 6
-6 2 1 17314 823.476 6
-6 2 2 9948.04 342.557 1
-6 -2 2 8631.66 547.899 6
-6 2 2 9032.77 549.863 6
-6 2 3 23338.1 720.001 1
-6 -2 3 21675.8 920.22 6
-6 2 3 20600.6 899.875 6
-6 2 4 9065.65 526.51 6
-6 2 4 10042.8 421.924 1
-6 -2 4 9126.5 515.318 6
-6 2 5 9729.57 526.097 6
-6 2 5 10718.5 470.692 1
-6 -2 5 9533.2 506.241 6
-6 2 6 9891.21 477.658 1
-6 -2 6 8767.58 460.309 6
-6 2 7 12960.9 613.836 1
-6 -2 7 13783.1 570.236 6
-6 2 8 1961.21 233.98 1
-6 2 9 20292.8 887.647 1
-6 2 10 5921.61 455.852 1
-6 2 11 14307.5 788.772 1
-6 -2 11 15210.2 812.791 1
-6 2 12 4414.49 430.266 1
-6 -2 12 4131.05 420.74 1
-6 2 13 8462.14 639.75 1
-6 -2 13 7899.7 616.713 1
-6 3 -8 3233.26 394.744 6
-6 -3 -7 130.702 165.169 6
-6 3 -7 -177.065 168.841 6
-6 3 -6 2097.37 326.371 6
-6 -3 -6 2233.79 353.04 6
-6 -3 -5 168.23 125.913 6
-6 3 -5 251.428 111.274 6
-6 3 -4 6165.15 523.569 6
-6 -3 -4 5340.24 516.75 6
-6 -3 -3 1193.53 265.998 6
-6 3 -3 1114.73 217.912 6
-6 3 -2 13178 752.699 6
-6 -3 -2 13455.6 790.557 6
-6 -3 -1 2537.82 323.635 6
-6 3 -1 2696.66 325.433 6
-6 3 0 11693.5 674.346 6
-6 -3 0 12563.8 706.905 6
-6 3 1 11092.2 635.223 6
-6 -3 1 11381.1 653.469 6
-6 3 2 11230.9 621.567 6
-6 -3 2 10438.4 610.791 6
-6 3 3 -19.0986 47.8446 1
-6 -3 3 -19.7897 73.6066 6
-6 3 3 28.414 112.345 6
-6 -3 4 11234 611.031 6
-6 3 4 13255.3 501.213 1
-6 -3 5 2348.05 247.084 6
-6 3 5 2743.17 220.368 1
-6 3 6 18992.3 732.211 1
-6 -3 6 16927.5 735.008 6
-6 -3 7 901.09 124.481 6
-6 3 7 1211.31 180.957 1
-6 3 8 15182.6 715.875 1
-6 3 9 678.147 160.252 1
-6 3 10 10991.9 650.034 1
-6 3 11 229.877 135.522 1
-6 -3 12 8348.37 617.708 1
-6 3 12 7086.28 576.102 1
-6 3 13 1098.99 254.337 1
-6 4 -7 10522.6 756.161 6
-6 -4 -7 11409.1 862.632 6
-6 4 -6 2375.77 334.867 6
-6 -4 -6 2226.08 365.212 6
-6 4 -5 16171.8 909.039 6
-6 -4 -5 15578.1 970.6 6
-6 -4 -4 2292.4 358.382 6
-6 4 -4 2053.54 310.004 6
-6 -4 -3 15739 917.829 6
-6 4 -3 15852.2 873.76 6
-6 -4 -2 5454.6 500.866 6
-6 4 -2 5407.25 466.103 6
-6 -4 -1 13209.6 789.285 6
-6 4 -1 14728.9 792.637 6
-6 -4 0 11372.3 702.163 6
-6 4 0 11288.1 673.71 6
-6 -4 1 24021.7 1068.64 6
-6 -4 2 12279.1 697.953 6
-6 -4 3 32189.9 1249.37 6
-6 -4 4 5662.52 420.273 6
-6 4 4 6460.53 311.715 1
-6 -4 5 33228.1 1250.47 6
-6 4 5 36235.1 1140.15 1
-6 4 6 2253.85 225.062 1
-6 -4 6 2205.21 229.896 6
-6 -4 7 18431 752.327 6
-6 4 7 18796.7 797.047 1
-6 4 8 4895.38 389.012 1
-6 4 9 9560.82 592.343 1
-6 4 10 1733.44 251.158 1
-6 4 11 7940.55 610.459 1
-6 4 12 563.021 219.843 1
-6 4 13 7354.26 635.281 1
-6 -5 -6 5249.06 550.342 6
-6 -5 -5 4986.99 535.93 6
-6 -5 -4 3876.26 462.775 6
-6 -5 -3 7766.06 647.299 6
-6 -5 -2 3305.99 394.979 6
-6 -5 -1 7959.18 614.768 6
-6 -5 0 4854 456.751 6
-6 -5 1 1768.96 277.702 6
-6 -5 2 4433.03 411.352 6
-6 -5 3 5659.66 456.905 6
-6 -5 4 1206.73 218.817 6
-6 -5 5 6222.55 449.386 6
-6 -5 6 3959.8 341.736 6
-6 5 6 4547.58 331.1 1
-6 5 7 7221.05 451.483 1
-6 5 8 11049.4 624.098 1
-6 5 9 2995.09 335.319 1
-6 5 10 8857.22 615.293 1
-6 5 11 4155.65 436.855 1
-6 5 12 2824.29 398.581 1
-6 -6 -4 14198.9 948.303 6
-6 -6 -3 4353.74 482.013 6
-6 -6 -2 23623.8 1216.22 6
-6 -6 -1 709.733 236.825 6
-6 -6 0 21826.1 1111.78 6
-6 -6 1 -50.5226 134.603 6
-6 -6 2 11238.4 710.788 6
-6 -6 3 606.935 153.842 6
-6 -6 4 12329.9 718.899 6
-6 -6 5 2468.61 292.105 6
-6 -6 6 15242.2 759.616 6
-6 6 9 1320.67 218.188 1
-6 6 10 11600.4 734.752 1
-6 6 11 257.555 141.903 1
-6 -7 -3 3410.13 456.393 6
-6 -7 -2 452.339 221.384 6
-6 -7 -1 8711.04 706.496 6
-6 -7 0 329.359 138.343 6
-6 -7 1 10249.3 731.863 6
-6 -7 2 462.579 186.784 6
-6 -7 3 12810.9 782.363 6
-6 -7 4 2704.74 344.653 6
-6 -7 5 8431.14 586.936 6
-6 -8 -1 16095 1034.81 6
-6 -8 0 6153.5 594.916 6
-6 -8 1 10669 799.527 6
-6 -8 2 3192.19 419.704 6
-6 -8 3 4972.8 481.99 6
-6 -8 4 8106.88 641.126 6
-6 -8 5 6607.14 543.406 6
-6 -9 3 1117.25 297.35 6
-6 -9 4 4712.96 500.225 6
-5 0 -10 187.078 123.25 6
-5 0 -9 7786.48 616.233 6
-5 0 -8 -234.559 156.783 6
-5 0 -7 5406.98 476.891 6
-5 0 -6 -226.479 159.539 6
-5 0 -5 11636.4 688.094 6
-5 0 -4 -181.571 136.715 6
-5 0 -3 11015.7 621.516 6
-5 0 -2 -78.1908 134.315 6
-5 0 -2 64.9373 45.4427 1
-5 0 -1 29942.9 1122.47 6
-5 0 -1 29488.4 918.553 1
-5 0 0 14.1514 37.0571 1
-5 0 0 -74.7323 128.389 6
-5 0 1 16775 614.605 1
-5 0 1 15934.5 705.989 6
-5 0 2 22.2103 54.3983 1
-5 0 2 71.8991 43.6377 4
-5 0 2 77.6809 101.328 6
-5 0 3 5089.5 319.33 4
-5 0 3 18720.2 605.514 6
-5 0 4 -26.9027 72.4373 6
-5 0 5 5776.76 328.482 6
-5 0 6 13.7719 61.1912 6
-5 0 8 59.9104 94.8928 1
-5 0 9 17052.2 773.437 1
-5 0 10 119.822 113.144 1
-5 0 11 3731.45 366.855 1
-5 0 12 -163.725 136.135 1
-5 0 13 6823.81 561.568 1
-5 0 14 26.7768 90.2496 1
-5 -1 -10 8692.1 668.887 6
-5 1 -10 8885.52 662.616 6
-5 1 -9 1447.54 261.617 6
-5 -1 -9 1361.68 291.972 6
-5 -1 -8 17517.8 958.992 6
-5 1 -8 17315.1 930.987 6
-5 -1 -7 6524.94 545.616 6
-5 1 -7 5704.07 491.161 6
-5 -1 -6 30398.6 1298.82 6
-5 1 -6 29471.5 1253.26 6
-5 -1 -5 8765.07 608.283 6
-5 1 -5 8844.85 585.55 6
-5 1 -4 17228.8 840.938 6
-5 -1 -4 17296.9 870.274 6
-5 -1 -3 3017.64 331.607 6
-5 1 -3 2898.37 314.974 6
-5 -1 -2 11862.3 660.986 6
-5 1 -2 12202.6 395.151 1
-5 1 -2 12202 648.098 6
-5 -1 -1 5977.94 438.208 6
-5 1 -1 6824.01 446.32 6
-5 1 -1 6376.38 242.483 1
-5 -1 0 53043.2 1708.17 6
-5 1 0 53095.6 1695.38 6
-5 1 0 51400 1405.72 1
-5 1 1 23641.8 902.138 6
-5 -1 1 22827.7 902.503 6
-5 1 1 21814.1 698.904 1
-5 1 2 58873 1673.35 4
-5 1 2 62171.5 1859.62 6
-5 -1 2 61036.7 1855.46 6
-5 -1 3 10808 517.912 6
-5 1 3 10941.5 441.764 4
-5 1 3 10877.2 529.125 6
-5 1 4 28358.4 988.369 6
-5 -1 4 28234.7 974.703 6
-5 1 5 4953.31 305.239 6
-5 1 5 4694.76 289.972 1
-5 -1 5 4702.94 290.843 6
-5 -1 6 10681 449.528 6
-5 1 6 10274.8 490.422 1
-5 1 7 10556.1 531.98 1
-5 -1 7 12043.5 455.74 6
-5 1 8 23096.4 908.918 1
-5 1 9 13259.1 665.679 1
-5 -1 10 16411.7 796.077 1
-5 1 10 16947.6 802.935 1
-5 -1 11 3409.05 344.868 1
-5 1 11 3274.57 344.547 1
-5 -1 12 10316.7 664.61 1
-5 1 12 11268.9 697.424 1
-5 -1 13 1421.9 259.994 1
-5 1 13 1500.87 260.239 1
-5 1 14 9209.98 680.513 1
-5 -1 14 9967.76 703.04 1
-5 -2 -10 3530.69 433.133 6
-5 2 -9 1882.08 310.272 6
-5 -2 -9 2382.79 342.215 6
-5 -2 -8 2630.32 373.913 6
-5 2 -8 2531.23 330.189 6
-5 -2 -7 828.816 231.979 6
-5 2 -7 745.563 187.44 6
-5 2 -6 2677.36 335.208 6
-5 -2 -6 2685.83 364.843 6
-5 -2 -5 2714.69 346.754 6
-5 2 -5 2410.55 306.436 6
-5 -2 -4 6999.98 520.954 6
-5 2 -4 5487.61 453.046 6
-5 2 -3 1809.13 252.589 6
-5 -2 -3 1390.18 253.609 6
-5 2 -2 8293.46 532.048 6
-5 -2 -2 9253.52 575.956 6
-5 -2 -1 15021.2 738.383 6
-5 2 -1 14624.5 718.989 6
-5 -2 0 17200.9 783.417 6
-5 2 0 17689.2 787.349 6
-5 2 1 5444.95 191.314 1
-5 -2 1 4844.47 374.848 6
-5 2 1 5025.66 378.696 6
-5 2 1 5736.99 186.638 1
-5 -2 2 10490.6 550.606 6
-5 2 2 10890.8 563.54 6
-5 2 2 12230.6 395.51 1
-5 2 2 11150.5 396.146 4
-5 2 3 903.845 107.403 1
-5 2 3 563.81 147.809 6
-5 2 3 939.249 104.894 4
-5 -2 3 1108.77 169.114 6
-5 -2 4 6430.66 348.223 6
-5 2 4 6448.6 281.47 1
-5 2 4 6803.82 359.925 6
-5 -2 5 2637.98 217.97 6
-5 2 5 2776.27 212.166 1
-5 -2 6 16254.4 612.678 6
-5 2 6 16351 663.857 1
-5 2 7 12878.5 609.772 1
-5 -2 7 14158.3 513.994 6
-5 2 8 18629.9 816.21 1
-5 -2 8 20305.9 616.078 6
-5 2 9 13673.2 687.366 1
-5 2 10 9244.57 572.007 1
-5 2 11 3027.84 339.244 1
-5 -2 11 2747.3 321.436 1
-5 2 12 5726.18 494.986 1
-5 -2 12 6373.91 513.804 1
-5 -2 13 2064.64 327.5 1
-5 2 13 1550.38 280.949 1
-5 -3 -9 14106.7 922.947 6
-5 3 -9 13382.6 823.919 6
-5 -3 -8 109.478 165.485 6
-5 3 -8 77.422 148.922 6
-5 3 -7 26343.3 1194.65 6
-5 -3 -7 28770.9 1327.62 6
-5 3 -6 -0.73341 85.2952 6
-5 -3 -6 493.761 198.817 6
-5 3 -5 32453.4 1327.31 6
-5 -3 -5 33425.6 1411.13 6
-5 3 -4 372.669 149.945 6
-5 -3 -4 109.302 127.851 6
-5 3 -3 20052.5 923.896 6
-5 -3 -3 20057.3 964.314 6
-5 -3 -2 1233.73 233.189 6
-5 3 -2 1204.81 218.587 6
-5 -3 -1 26966.7 1114.8 6
-5 3 -1 27693.3 1100.6 6
-5 -3 0 1174.35 218.685 6
-5 3 0 978.652 210.174 6
-5 3 1 52083.6 1703.76 6
-5 -3 1 52218.9 1720.15 6
-5 -3 2 2631.91 272.882 6
-5 3 2 2923.55 287.187 6
-5 3 2 2960.71 148.592 4
-5 3 2 2910.93 140.762 1
-5 3 3 35855.4 1085.55 4
-5 -3 3 35989.6 1274.6 6
-5 3 4 3990.9 242.353 1
-5 -3 4 3926.38 302.092 6
-5 -3 5 16587.3 689.694 6
-5 3 5 18310.4 674.696 1
-5 3 6 2673.06 239.629 1
-5 -3 6 2571.67 215.101 6
-5 -3 7 23682.5 788.702 6
-5 3 7 22858.4 896.493 1
-5 3 8 175.065 128.398 1
-5 3 9 24105.9 1006.83 1
-5 3 10 1798.31 258.192 1
-5 3 11 16917.4 880.36 1
-5 -3 12 1462.69 249.202 1
-5 3 12 1433.69 254.391 1
-5 3 13 10488 746.02 1
-5 -3 13 11919.9 767.321 1
-5 -4 -9 480.337 244.359 6
-5 -4 -8 9648.43 742.383 6
-5 4 -7 766.131 212.766 6
-5 -4 -7 1164.1 298.744 6
-5 -4 -6 4736.62 500.812 6
-5 4 -6 5329.62 460.791 6
-5 -4 -5 3077.34 392.616 6
-5 4 -5 3304.53 364.325 6
-5 4 -4 5307.67 449.457 6
-5 -4 -4 4049.86 421.196 6
-5 -4 -3 2307.47 326.465 6
-5 4 -3 1957.12 273.64 6
-5 -4 -2 12690.2 734.581 6
-5 4 -2 13137.2 708.759 6
-5 4 -1 5688.33 432.042 6
-5 -4 -1 5666.19 451.403 6
-5 -4 0 19788.6 910.271 6
-5 -4 1 1580.79 234.291 6
-5 4 2 9639.51 305.113 1
-5 4 2 9656.27 338.476 4
-5 -4 2 9376.41 551.902 6
-5 4 3 7352.17 309.7 1
-5 4 3 6362.32 296.034 4
-5 -4 3 6376.29 426.471 6
-5 4 4 5897.52 310.338 1
-5 -4 4 5140.81 371.427 6
-5 4 5 5603.88 338.638 1
-5 -4 5 5519.34 361.216 6
-5 -4 6 8944.36 459.819 6
-5 4 6 9562.61 494.581 1
-5 -4 7 3619.67 257.451 6
-5 4 7 3793.86 322.062 1
-5 4 8 13854.6 700.383 1
-5 4 9 1224.9 233.304 1
-5 4 10 7761.21 563.19 1
-5 4 11 1752.68 293.471 1
-5 4 12 3364.32 415.313 1
-5 4 13 2185.13 345.827 1
-5 -5 -8 6492.99 624.969 6
-5 -5 -7 5706.81 574.818 6
-5 -5 -6 9894.94 740.42 6
-5 -5 -5 4606.36 503.12 6
-5 -5 -4 13290.5 834.897 6
-5 -5 -3 8713.14 648.076 6
-5 -5 -2 15940.8 877.365 6
-5 -5 -1 10027.9 654.153 6
-5 -5 0 17053 867.308 6
-5 -5 1 8179.57 561.835 6
-5 5 2 24227.5 769.985 4
-5 -5 2 25548.9 1057.83 6
-5 5 3 14603.2 522.142 1
-5 -5 3 13632.8 710.685 6
-5 -5 4 15249.5 737.123 6
-5 5 4 16143.5 622.193 1
-5 -5 5 18066.2 805.29 6
-5 5 5 19915.1 759.558 1
-5 -5 6 21848.3 872.905 6
-5 5 6 23071.1 895.177 1
-5 5 7 6341.05 434.677 1
-5 -5 7 5976.48 363.464 6
-5 5 8 17136.7 815.259 1
-5 5 9 4843.14 420.326 1
-5 5 10 12457.5 743.193 1
-5 5 11 5278.58 491.298 1
-5 5 12 4970.66 505.188 1
-5 -6 -6 321.594 191.172 6
-5 -6 -5 3398.52 435.785 6
-5 -6 -4 2582.91 364.269 6
-5 -6 -3 8101.72 647.055 6
-5 -6 -2 1021.74 246.462 6
-5 -6 -1 6905.88 558.721 6
-5 -6 0 2936.59 355.603 6
-5 -6 1 9013.37 604.724 6
-5 -6 2 988.751 209.729 6
-5 -6 3 8574.15 562.983 6
-5 -6 4 1263.38 215.285 6
-5 6 4 1923.18 184.635 1
-5 -6 5 12065.5 650.738 6
-5 6 5 12217.1 577.883 1
-5 6 6 1020.14 182.284 1
-5 -6 6 1572.46 208.258 6
-5 6 7 9767.51 580.033 1
-5 6 8 5125.79 427.079 1
-5 6 9 9411.39 633.189 1
-5 6 10 3092.79 381.027 1
-5 6 11 12665.5 813.552 1
-5 6 12 192.137 152.164 1
-5 -7 -5 2437.3 394.587 6
-5 -7 -4 20536.1 1163 6
-5 -7 -3 3170.39 422.751 6
-5 -7 -2 28149.7 1345.3 6
-5 -7 -1 1414.4 274.562 6
-5 -7 0 12582.6 803.995 6
-5 -7 1 2635.85 349.825 6
-5 -7 2 11747.9 737.235 6
-5 -7 3 2289.5 289.075 6
-5 -7 4 18719.5 929.14 6
-5 -7 5 2141.15 275.726 6
-5 -7 6 19852.8 911.81 6
-5 7 7 1852.48 260.957 1
-5 7 8 7669.66 555.648 1
-5 7 9 1798.77 283.176 1
-5 7 10 9999.56 698.042 1
-5 7 11 736.954 181.961 1
-5 -8 -3 3687.8 469.515 6
-5 -8 -2 1738.23 318.583 6
-5 -8 -1 4937.63 540.548 6
-5 -8 0 940.13 222.358 6
-5 -8 1 6597.77 590.602 6
-5 -8 2 4714.6 489.403 6
-5 -8 3 6344.08 543.855 6
-5 -8 4 8285.15 621.482 6
-5 -8 5 3465.93 377.208 6
-5 -9 0 379.158 157.666 6
-5 -9 1 7157.83 639.688 6
-5 -9 2 997.334 225.13 6
-5 -9 3 12557 842.826 6
-5 -9 4 1063.97 246.25 6
-5 -9 5 21078.5 1081.53 6
-4 0 -10 14133 809.071 6
-4 0 -9 -56.5944 112.302 6
-4 0 -8 17681.3 886.672 6
-4 0 -7 99.2625 130.031 6
-4 0 -6 16967.4 823.433 6
-4 0 -5 10.009 125.253 6
-4 0 -4 17441.5 664.727 6
-4 0 -4 21.4255 32.1912 1
-4 0 -3 107.796 134.038 6
-4 0 -3 81.172 45.7607 1
-4 0 -2 67771.9 2033.1 6
-4 0 -2 65885.4 1827.49 1
-4 0 -1 85.1961 115.202 6
-4 0 -1 27.4857 41.451 1
-4 0 0 107197 2855.91 1
-4 0 0 109838 3017.31 6
-4 0 1 13.7632 40.0938 4
-4 0 1 0.65588 101.015 6
-4 0 1 -22.9513 60.7403 1
-4 0 2 116319 3039.33 4
-4 0 2 112187 3113.29 6
-4 0 3 116.271 57.1796 4
-4 0 3 26.6784 74.0871 6
-4 0 4 55816.9 1600.21 6
-4 0 5 -25.9913 44.7674 6
-4 0 7 112.942 106.828 1
-4 0 8 25132.2 935.831 1
-4 0 8 24177.3 775.788 3
-4 0 9 6.18206 82.8211 1
-4 0 10 12747.1 664.869 1
-4 0 11 64.8441 112.449 1
-4 0 12 16282.4 848.247 1
-4 0 13 115.168 146.556 1
-4 0 14 11415.2 764.017 1
-4 1 -10 367.798 146.518 6
-4 -1 -10 67.2511 55.6737 6
-4 1 -9 4148.15 406.262 6
-4 -1 -9 4630.44 436.218 6
-4 1 -8 2395.44 297.09 6
-4 -1 -8 1663.46 274.827 6
-4 1 -7 20067.7 928.064 6
-4 -1 -7 20476.4 973.61 6
-4 -1 -6 5658.8 459.515 6
-4 1 -6 5211.73 415.715 6
-4 -1 -5 7398.73 508.267 6
-4 1 -5 6758.69 463.369 6
-4 -1 -4 3984.8 365.78 6
-4 1 -4 4786.97 373.358 6
-4 1 -4 5126.98 237.713 1
-4 1 -3 2636.63 143.928 1
-4 -1 -3 2733.07 292.87 6
-4 1 -3 2393.17 267.928 6
-4 1 -2 6351.14 376.797 6
-4 -1 -2 6151.9 388.265 6
-4 1 -2 6675.47 185.607 1
-4 -1 -1 10259.3 527.692 6
-4 1 -1 9847.71 327.53 1
-4 1 -1 11178.8 533.878 6
-4 -1 -1 11223.5 464.069 1
-4 -1 0 20075.9 761.259 6
-4 1 0 19316.8 748.047 6
-4 1 0 17404.6 542.187 1
-4 -1 0 19020.6 676.888 1
-4 1 1 23348.7 715.018 1
-4 1 1 22996.2 694.537 4
-4 1 1 24428.1 866.177 6
-4 -1 1 25642.6 810.173 4
-4 -1 1 24051.5 864.439 6
-4 -1 1 24151.1 829.391 1
-4 -1 2 7504.6 394.339 6
-4 -1 2 8027.8 388.329 4
-4 1 2 8010.54 313.493 4
-4 1 2 7862.22 402.181 6
-4 -1 3 15330.4 607.91 6
-4 1 3 15962.6 546.57 4
-4 1 3 15556.3 614.751 6
-4 -1 3 17296.9 640.63 2
-4 1 4 972.793 114.199 4
-4 1 4 656.018 124.424 6
-4 -1 4 986.18 126.441 6
-4 -1 4 974.924 126.999 2
-4 -1 5 16917.7 588.571 6
-4 -1 5 18374 663.858 2
-4 1 5 16679.6 633.689 1
-4 1 6 1490.21 184.118 1
-4 -1 6 2115.69 189.158 2
-4 -1 6 1558.11 120.581 6
-4 1 7 24954.5 910.316 1
-4 1 8 1610.59 211.919 1
-4 1 9 10942.2 581.23 1
-4 -1 9 10854.1 576.854 1
-4 -1 10 1283.29 210.294 1
-4 1 10 1623.54 252.346 1
-4 -1 11 12871.7 700.154 1
-4 1 11 12875.4 713.677 1
-4 -1 12 2405.84 309.617 1
-4 1 12 2303.88 309.852 1
-4 1 13 7407.78 577.989 1
-4 -1 13 8090.42 595.479 1
-4 1 14 2521.15 359.772 1
-4 -1 14 2558.99 363.653 1
-4 2 -10 6036.61 491.603 6
-4 -2 -10 6149.64 552.776 6
-4 -2 -9 15957.5 898.296 6
-4 2 -9 15076.4 816.21 6
-4 2 -8 9183.23 595.609 6
-4 -2 -8 10229.1 679.364 6
-4 -2 -7 27544.4 1222.11 6
-4 2 -7 29853 1188.04 6
-4 2 -6 11352 639.011 6
-4 -2 -6 11523.4 688.467 6
-4 -2 -5 30232 1229.12 6
-4 2 -5 31493.2 1196.44 6
-4 -2 -4 9970.89 587.018 6
-4 2 -4 8931.33 528.18 6
-4 -2 -3 28741.7 1122.1 6
-4 2 -3 29473.4 1097.61 6
-4 2 -2 24863 958.579 6
-4 -2 -2 24258.6 970.622 6
-4 2 -1 34903.6 1200.89 6
-4 -2 -1 33880.8 1205.99 6
-4 2 0 12217.7 575.861 6
-4 -2 0 12502.5 582.672 6
-4 -2 1 19552 761.876 6
-4 2 1 20117.2 536.635 1
-4 2 1 18184.4 540.822 4
-4 2 1 19919.1 761.921 6
-4 2 2 10953.2 502.14 6
-4 -2 2 10537.2 496.152 6
-4 2 2 10796.4 365.483 1
-4 2 2 10407.7 365.863 4
-4 -2 3 11794.6 501.968 6
-4 2 3 11502.7 422.434 1
-4 2 3 11177.9 423.313 4
-4 2 3 11500.2 507.192 6
-4 2 4 3453.02 214.077 1
-4 -2 4 3116.5 210.942 2
-4 2 4 2953.47 198.921 4
-4 -2 4 2833.84 216.209 6
-4 -2 5 23876 791.665 6
-4 -2 5 24743.7 803.041 2
-4 2 5 24018.4 827.463 1
-4 2 6 9804.63 474.435 1
-4 -2 6 10282 388.158 6
-4 -2 6 10062.9 420.003 2
-4 -2 7 34204.6 938.244 6
-4 -2 7 33574.4 1041.42 2
-4 2 7 32241.9 1143.95 1
-4 -2 8 11520.1 468.064 2
-4 2 8 10677.4 560.158 1
-4 2 9 22169.3 926.174 1
-4 2 10 7884.47 516.722 1
-4 -2 11 20517.3 934.195 1
-4 2 11 19083.3 922.103 1
-4 -2 12 6139.61 491.984 1
-4 2 12 6292.21 512.09 1
-4 -2 13 12161.8 762.426 1
-4 2 13 11695.7 766.286 1
-4 -2 14 2632.88 356.157 1
-4 2 14 2509.52 369.817 1
-4 -3 -10 2709.91 389.087 6
-4 -3 -9 230.574 163.585 6
-4 3 -9 153.174 111.656 6
-4 -3 -8 6837.95 559.279 6
-4 3 -8 7610.61 528.259 6
-4 3 -7 141.459 132.632 6
-4 -3 -7 285.436 156.566 6
-4 -3 -6 8681.2 608.131 6
-4 3 -6 9329.99 576.37 6
-4 3 -5 -39.5226 87.416 6
-4 -3 -5 16.3008 150.987 6
-4 -3 -4 3788.04 369.747 6
-4 3 -4 4102.93 359.384 6
-4 3 -3 10563.9 577.906 6
-4 -3 -3 11100.5 627.2 6
-4 -3 -2 8254.58 515.093 6
-4 3 -2 7914.27 480.936 6
-4 3 -1 4250.68 342.433 6
-4 -3 -1 4442.48 360.864 6
-4 -3 0 28655.4 1060.9 6
-4 3 0 28314.2 1032.94 6
-4 3 1 388.61 129.929 6
-4 3 1 574.634 50.1389 4
-4 -3 1 379.942 146.702 6
-4 3 2 33414.9 969.004 4
-4 -3 2 33992.8 1159.95 6
-4 3 2 35046.5 970.042 1
-4 3 3 3437.7 207.08 1
-4 3 3 3386.38 197.751 4
-4 -3 3 3662.74 275.945 6
-4 3 4 15926.6 586.881 1
-4 -3 4 15330.3 617.454 6
-4 -3 5 151.031 81.7885 6
-4 3 5 259.967 116.623 1
-4 -3 6 15136.4 553.522 6
-4 3 6 15595.3 648.387 1
-4 3 7 1740.43 211.124 1
-4 -3 7 1749.48 131.848 6
-4 3 8 12962.1 644.094 1
-4 3 9 482.797 164.35 1
-4 3 10 10861 649.876 1
-4 3 11 353.417 164.184 1
-4 -3 12 10856.7 692.703 1
-4 3 12 10851.8 723.811 1
-4 -3 13 763.957 221.97 1
-4 3 13 67.7946 132.866 1
-4 -4 -10 1022.98 238.031 6
-4 -4 -9 13230.6 856.568 6
-4 -4 -8 2664.91 380.548 6
-4 -4 -7 13700.5 830.242 6
-4 4 -7 13250.7 730.698 6
-4 4 -6 5196.11 424.352 6
-4 -4 -6 5480.92 494.432 6
-4 -4 -5 14302.8 800.244 6
-4 4 -5 12892.2 701.247 6
-4 -4 -4 9890.11 628.087 6
-4 4 -4 8603.75 544.756 6
-4 -4 -3 24213.3 1047.68 6
-4 4 -3 22276.2 955.258 6
-4 -4 -2 3616.02 363.288 6
-4 -4 -1 36532.6 1341.45 6
-4 -4 0 14705.2 714.976 6
-4 -4 1 49566 1639.57 6
-4 4 1 49442.3 1367.31 4
-4 4 1 50533 1348.35 4
-4 4 2 9654.19 356.643 1
-4 -4 2 9421.33 514.777 6
-4 4 2 8651.42 356.811 4
-4 -4 3 54961.4 1706.51 6
-4 4 3 52488.5 1546.6 4
-4 4 3 55992.4 1556.2 1
-4 4 4 13216.6 538.37 1
-4 -4 4 12986.4 585.512 6
-4 -4 5 35177.4 1150.21 6
-4 4 5 34732.1 1153.71 1
-4 -4 6 6431.28 339.556 6
-4 4 6 6549.25 401.111 1
-4 4 7 21336.2 894.334 1
-4 -4 7 22620.7 748.324 6
-4 4 8 1080.27 198.428 1
-4 4 9 14122.9 743.761 1
-4 4 10 1807.17 282.052 1
-4 4 11 12291.5 750.232 1
-4 4 12 1372.93 273.792 1
-4 -4 12 1639.27 293.542 1
-4 -4 13 10415.7 714.177 1
-4 4 13 9465.4 720.861 1
-4 -5 -9 3600.48 446.336 6
-4 -5 -8 7823.94 656.913 6
-4 -5 -7 4423.82 462.936 6
-4 -5 -6 4155.79 444.308 6
-4 -5 -5 9637.26 680.208 6
-4 -5 -4 3040.3 373.269 6
-4 -5 -3 5156.85 459.017 6
-4 -5 -2 3635.25 373.516 6
-4 -5 -1 7009.15 521.855 6
-4 5 -1 7874.67 237.942 4
-4 -5 0 2430.49 286.208 6
-4 5 0 2650.45 150.163 4
-4 -5 1 5695.46 425.283 6
-4 5 1 5934.64 266.906 4
-4 5 1 5610.3 277.524 4
-4 5 2 4641.05 243.082 1
-4 5 2 4473.88 246.826 4
-4 -5 2 3978.08 358.195 6
-4 -5 3 4592.19 364.242 6
-4 5 3 5076.69 291.99 1
-4 5 4 9272.15 452.512 1
-4 -5 4 9107.23 509.021 6
-4 5 5 3377.06 278.512 1
-4 -5 5 3627.19 293.766 6
-4 -5 6 8920.99 463.961 6
-4 5 6 9217.73 509.829 1
-4 5 7 5054.21 386.43 1
-4 -5 7 5097.96 311.182 6
-4 5 8 6391.29 462.629 1
-4 5 9 10643.7 652.31 1
-4 5 10 6935.83 540.863 1
-4 5 11 5496.04 510.446 1
-4 5 12 4462.92 494.061 1
-4 -6 -8 15020.6 969.383 6
-4 -6 -7 319.423 135.943 6
-4 -6 -6 24332.4 1233.66 6
-4 -6 -5 665.339 213.776 6
-4 -6 -4 34899.1 1486.4 6
-4 -6 -3 2667.21 375.953 6
-4 -6 -2 18824.7 963.053 6
-4 -6 -1 6988.35 548.891 6
-4 6 0 18561.4 632.84 4
-4 -6 0 17320.1 888.311 6
-4 -6 1 1419.27 248.167 6
-4 6 1 1763.59 171.713 4
-4 6 2 20776.6 716.507 1
-4 -6 2 19926.1 929.401 6
-4 6 2 20098.7 755.527 4
-4 -6 3 1282.81 225.461 6
-4 6 3 1422.6 168.639 1
-4 6 4 30616.3 1066.09 1
-4 -6 4 29849.3 1168.77 6
-4 6 5 338.915 125.719 1
-4 -6 5 253.202 88.1647 6
-4 -6 6 18347.4 804.131 6
-4 6 6 20494.2 859.301 1
-4 -6 7 398.493 113.372 6
-4 6 7 198.084 131.302 1
-4 6 8 20359 946.874 1
-4 6 9 -31.3087 126.602 1
-4 6 10 19480 1005.43 1
-4 6 11 354.776 133.869 1
-4 6 12 13226.1 878.422 1
-4 -7 -7 1232.14 292.518 6
-4 -7 -6 691.937 252.26 6
-4 -7 -5 3165.54 424.505 6
-4 -7 -4 -15.3226 127.997 6
-4 -7 -3 8598.9 677.129 6
-4 -7 -2 378.391 216.687 6
-4 -7 -1 11993.9 765.716 6
-4 -7 0 586.041 197.318 6
-4 -7 1 14243.3 797.343 6
-4 7 1 13731.9 597.871 4
-4 7 2 1033.98 150.07 4
-4 -7 2 1204.5 232.593 6
-4 7 3 15949.2 675.239 1
-4 -7 3 15999 830.25 6
-4 7 4 1603.08 209.052 1
-4 -7 4 1420.68 232.744 6
-4 7 5 12111.2 626.603 1
-4 -7 5 12128.9 673.151 6
-4 -7 6 868.666 171.404 6
-4 7 6 803.455 185.1 1
-4 7 7 5597.34 451.531 1
-4 7 8 908.48 203.958 1
-4 7 9 9259.02 663.124 1
-4 7 10 287.627 124.353 1
-4 7 11 5644.16 545.387 1
-4 -8 -5 14253 955.618 6
-4 -8 -4 7863.84 688.886 6
-4 -8 -3 13117.8 875.859 6
-4 -8 -2 5055.48 530.991 6
-4 -8 -1 7503.73 635.734 6
-4 -8 0 7071.63 596.869 6
-4 -8 1 12975 810.443 6
-4 -8 2 9056.02 647.84 6
-4 8 3 16900.9 781.783 4
-4 -8 3 16961.6 922.201 6
-4 -8 4 12765.3 757.892 6
-4 -8 5 11008.4 686.093 6
-4 8 5 11597.7 641.917 1
-4 -8 6 9694.89 612.912 6
-4 8 6 9543.07 606.057 1
-4 8 7 4097.47 407.306 1
-4 8 8 7555.2 589.094 1
-4 8 9 5361.87 524.472 1
-4 8 10 4785.94 507.96 1
-4 -9 -3 246.148 160.827 6
-4 -9 -2 7564.16 676.718 6
-4 -9 -1 1203.22 274.198 6
-4 -9 0 2432.45 363.594 6
-4 -9 1 1108.61 287.488 6
-4 -9 2 2627.89 378.543 6
-4 -9 3 1024.46 212.967 6
-4 -9 4 4836.98 484.405 6
-4 9 5 1054.49 225.005 4
-4 -9 5 995.402 220.318 6
-4 -10 1 11435.5 845.033 6
-4 -10 2 2163.29 364.41 6
-4 -10 3 12567.6 880.35 6
-4 -10 4 1903.2 322.179 6
-3 0 -10 -115.744 112.009 6
-3 0 -9 19553.4 894.788 6
-3 0 -8 88.5328 116.881 6
-3 0 -7 30638.1 1165.23 6
-3 0 -6 -145.986 95.9731 6
-3 0 -5 14150.9 656.576 6
-3 0 -4 -2.88065 122.911 6
-3 0 -4 66.8592 43.0421 1
-3 0 -3 2271.32 236.719 6
-3 0 -3 2023.94 147.199 1
-3 0 -2 18.9036 95.4953 6
-3 0 -2 15.0589 37.7804 1
-3 0 -1 9766.64 356.087 1
-3 0 -1 9613.73 462.077 6
-3 0 0 103.677 51.4535 2
-3 0 0 -34.7446 75.7552 6
-3 0 0 44.0616 45.8509 1
-3 0 1 60426.7 1676.9 4
-3 0 1 61468.4 1756.29 6
-3 0 2 107.95 66.2032 2
-3 0 2 44.6117 71.5824 6
-3 0 2 -14.1497 39.8118 4
-3 0 3 49738 1441.49 2
-3 0 3 47548.9 1365.12 6
-3 0 3 49092.7 1376.27 4
-3 0 4 5.47196 39.1081 6
-3 0 4 -17.969 33.3363 3
-3 0 4 9.84268 49.4249 2
-3 0 4 25.9265 56.1257 4
-3 0 5 30934.5 1004.23 2
-3 0 5 30726.3 911.727 3
-3 0 6 -72.9279 38.4343 3
-3 0 6 21.4813 40.1847 2
-3 0 7 2818.88 243.035 1
-3 0 7 2829.03 171.303 3
-3 0 8 -67.9964 110.688 1
-3 0 8 21.3716 18.4364 3
-3 0 9 14985.4 520.256 3
-3 0 9 14244.9 674.645 1
-3 0 10 -153.648 110.418 1
-3 0 11 25973.5 1082.5 1
-3 0 12 18.9133 138.283 1
-3 0 13 15676.7 856.731 1
-3 0 14 -233.425 156.167 1
-3 -1 -10 21319.2 976.282 6
-3 1 -10 20009.9 923.31 6
-3 -1 -9 3542.84 362.056 6
-3 1 -9 3843.57 351.48 6
-3 -1 -8 13554.4 722.259 6
-3 1 -8 14311.6 706.097 6
-3 -1 -7 1943.06 259.579 6
-3 1 -7 2408.15 266.406 6
-3 1 -6 9617.04 532.954 6
-3 -1 -6 10139.4 568.573 6
-3 1 -5 9483.73 512.643 6
-3 -1 -5 10268 548.758 6
-3 -1 -4 75203.8 2242.54 6
-3 1 -4 75070.5 2213.23 6
-3 1 -3 38671.7 1107.23 1
-3 -1 -3 43869.7 1246.96 1
-3 -1 -3 40771.6 1324.77 6
-3 1 -3 39878 1302.73 6
-3 -1 -2 90247.8 2563.35 6
-3 -1 -2 97758.5 2489.66 1
-3 1 -2 87922.6 2323.14 1
-3 1 -2 92815.7 2552.69 6
-3 1 -1 18381.5 527.982 1
-3 1 -1 20379 733.012 6
-3 -1 -1 21082 743.683 6
-3 -1 -1 20987.3 675.922 1
-3 -1 0 33847.1 972.894 1
-3 -1 0 31598.8 1014.41 6
-3 1 0 32670.3 1016.69 6
-3 1 0 29949 833.73 1
-3 -1 1 476.317 77.5699 4
-3 1 1 420.662 112.744 6
-3 -1 1 365.118 85.7298 1
-3 1 1 356.87 47.6818 4
-3 -1 1 486.718 113.082 6
-3 1 2 11404 452.269 6
-3 -1 2 12038.4 457.438 2
-3 -1 2 12728.1 464.372 4
-3 -1 2 11170.4 445.154 6
-3 1 2 11162.7 384.951 4
-3 1 2 12920.3 495.262 3
-3 -1 3 24757.4 770.743 2
-3 -1 3 22083.7 738.234 6
-3 -1 3 24029 783.558 4
-3 1 3 22625.1 749.392 6
-3 1 3 23463.6 726.183 1
-3 1 3 24335.6 843.16 2
-3 1 3 24444.1 735.423 4
-3 1 3 25084.9 807.625 3
-3 -1 4 92112.2 2593.85 6
-3 1 4 102344 2659.51 4
-3 -1 4 101897 2660.77 2
-3 1 4 103338 2765.75 2
-3 1 4 95550.3 2642.11 1
-3 1 4 105544 2701.21 3
-3 1 5 49961.3 1459.28 3
-3 -1 5 51746.3 1440.2 2
-3 -1 5 49071.3 1329.17 6
-3 1 5 48058.5 1448.36 1
-3 -1 6 75775.5 2112.78 2
-3 1 6 75867.9 2160.96 1
-3 1 6 76709.8 2126.72 3
-3 1 7 11384.3 482.268 3
-3 -1 7 11140.2 484.534 2
-3 1 7 12035.5 542.551 1
-3 -1 8 8289.75 423.563 2
-3 1 8 8619.12 482.297 1
-3 1 8 9191.2 423.35 3
-3 -1 8 9049.81 480.186 1
-3 1 9 3632.48 318.737 1
-3 -1 9 3796.63 326.423 1
-3 -1 10 14284.2 707.113 1
-3 1 10 15257.3 738.037 1
-3 -1 11 6930.2 495.096 1
-3 1 11 7080.96 510.29 1
-3 1 12 18246.4 901.472 1
-3 -1 12 16986.4 867.474 1
-3 -1 13 2737.77 340.563 1
-3 1 13 2541.93 337.359 1
-3 1 14 15961 928.182 1
-3 -1 14 14952.3 884.404 1
-3 -2 -11 405.115 159.217 6
-3 2 -10 1870.08 243.475 6
-3 -2 -10 2069.03 300.125 6
-3 2 -9 3577.96 341.581 6
-3 -2 -9 3298.4 365.868 6
-3 2 -8 10414 577.008 6
-3 -2 -8 8991.43 585.708 6
-3 2 -7 4284.96 349.782 6
-3 -2 -7 4208.45 381.588 6
-3 2 -6 9488.02 526.147 6
-3 -2 -6 9032.8 550.171 6
-3 -2 -5 7305.85 472.959 6
-3 2 -5 7225.72 439.801 6
-3 -2 -4 3523.47 321.88 6
-3 2 -4 3837.94 309.573 6
-3 2 -3 2297.85 229.57 6
-3 -2 -3 2639.76 266.524 6
-3 2 -2 9289.82 464.492 6
-3 -2 -2 8925.3 476.741 6
-3 -2 -1 4719.77 330.994 6
-3 2 -1 5376.25 330.05 6
-3 2 0 29070.5 936.88 6
-3 -2 0 28702.9 946.631 6
-3 2 1 24278.2 806.978 6
-3 2 1 22668 639.675 4
-3 -2 1 23290.7 803.985 6
-3 2 1 23838.8 637.042 1
-3 -2 1 24637.9 811.655 4
-3 2 2 39809.5 1087.63 4
-3 2 2 40051.3 1080.99 1
-3 2 2 40772.8 1196.06 6
-3 -2 2 41686.5 1199.15 6
-3 -2 3 27938.2 890.518 6
-3 2 3 28739.9 857.279 4
-3 2 3 28047.5 857.092 1
-3 2 3 30546.9 982.197 3
-3 2 4 23235.8 746.735 4
-3 -2 4 21854.8 713.045 6
-3 2 4 22949.3 750.368 1
-3 -2 4 22877.6 695.056 2
-3 -2 5 17122 551.952 6
-3 2 5 17573.5 648.445 1
-3 -2 5 17848.1 563.73 2
-3 2 6 12745 549.082 1
-3 -2 6 12690.5 386.167 6
-3 -2 6 12339.1 441.848 2
-3 2 7 870.6 166.88 1
-3 -2 7 778.501 95.2728 2
-3 2 8 9312.82 519.443 1
-3 -2 8 9492.36 395.111 2
-3 2 9 4850.16 376.786 1
-3 2 10 16726.8 798.699 1
-3 -2 10 15995.5 765.996 1
-3 2 11 7941.15 553.735 1
-3 -2 11 7936.9 534.657 1
-3 2 12 11520.2 711.191 1
-3 -2 12 10963.3 672.112 1
-3 -2 13 6064.92 518.82 1
-3 2 13 5715.65 529.271 1
-3 -2 14 4162.57 449.759 1
-3 2 14 4033.11 465.601 1
-3 -3 -11 19436.3 1019.15 6
-3 -3 -10 2366.11 314.991 6
-3 3 -9 22510.9 964.039 6
-3 -3 -9 22811.8 1070.12 6
-3 3 -8 54.3114 77.78 6
-3 -3 -8 153.791 115.568 6
-3 -3 -7 18149.4 900.997 6
-3 3 -7 19883.3 845.779 6
-3 -3 -6 2347.05 293.07 6
-3 3 -6 2693.4 268.642 6
-3 -3 -5 40572.7 1439.87 6
-3 3 -5 38441.1 1345.87 6
-3 -3 -4 5122.09 401.283 6
-3 3 -4 5659.81 378.116 6
-3 -3 -3 86339.2 2541.73 6
-3 3 -3 84024.8 2468.56 6
-3 3 -2 83.5262 94.2625 6
-3 -3 -2 -4.88562 102.335 6
-3 -3 -1 48724.7 1543.5 6
-3 3 -1 47269.6 1493.66 6
-3 3 0 6443.86 228.611 4
-3 -3 0 6527.02 391.548 6
-3 3 0 6861.7 377.945 6
-3 3 1 14041.3 450.258 4
-3 3 1 14296.4 441.554 1
-3 -3 1 14950.6 611.688 6
-3 3 2 265.611 56.7645 4
-3 3 2 295.117 68.965 1
-3 -3 2 213.112 95.0641 6
-3 -3 3 42599.2 1320.49 6
-3 3 3 42466.9 1260.54 4
-3 3 3 45073.6 1264.58 1
-3 -3 4 2380.42 189.084 6
-3 3 4 2324.76 191.33 1
-3 3 5 73844.7 2131.2 1
-3 -3 5 75328.2 2047.98 6
-3 -3 6 7174.49 297.489 6
-3 3 6 7346.79 416.09 1
-3 -3 7 33092 897.159 6
-3 3 7 31610.4 1149.06 1
-3 3 8 8163.47 500.911 1
-3 3 9 15541.3 768.371 1
-3 3 10 1792.1 279.612 1
-3 -3 11 22866.3 1005.78 1
-3 3 11 21497.4 1030.68 1
-3 -3 12 1133.39 223.583 1
-3 3 12 994.689 260.566 1
-3 3 13 17954.4 1003.46 1
-3 -3 13 18981.6 984.256 1
-3 -3 14 265.612 121.057 1
-3 -4 -11 715.594 187.778 6
-3 -4 -10 6788.59 563.725 6
-3 -4 -9 839.97 224.538 6
-3 -4 -8 9358.49 647.32 6
-3 -4 -7 2071.32 302.013 6
-3 -4 -6 12558.8 730.931 6
-3 -4 -5 8289.08 559.636 6
-3 4 -4 13835.4 447.599 4
-3 -4 -4 12362.5 692.026 6
-3 4 -3 832.232 68.0229 4
-3 -4 -3 643.163 198.028 6
-3 4 -2 4899.62 188.578 4
-3 -4 -2 4009.21 351.017 6
-3 -4 -1 13075.2 663.64 6
-3 4 -1 14296.6 446.179 4
-3 -4 0 12932.9 626.898 6
-3 4 0 12945.6 452.418 4
-3 4 1 1101.24 106.032 1
-3 -4 1 1257.33 195.005 6
-3 4 2 28775.8 906.645 1
-3 -4 2 30332.9 1041.12 6
-3 -4 3 11015.4 517.56 6
-3 4 3 11010.6 460.014 1
-3 4 4 23515.8 835.367 1
-3 -4 4 24684.2 859.33 6
-3 -4 5 1200.35 157.23 6
-3 4 5 1380.76 179.028 1
-3 4 6 4316.37 331.207 1
-3 -4 6 4670.42 264.516 6
-3 4 7 14227 680.054 1
-3 -4 7 14832.6 525.224 6
-3 -4 8 3576.96 163.369 6
-3 4 8 3209.62 331.885 1
-3 4 9 3425.38 361.377 1
-3 4 10 9519.4 624.933 1
-3 4 11 1005.35 226.687 1
-3 -4 12 13327.6 788.412 1
-3 4 12 13349.2 840.807 1
-3 -4 13 655.592 177.752 1
-3 4 13 351.499 171.389 1
-3 -5 -11 4951.69 536.581 6
-3 -5 -10 7958.49 637.751 6
-3 -5 -9 5881.36 546.942 6
-3 -5 -8 6778.43 578.229 6
-3 -5 -7 5896.83 513.076 6
-3 -5 -6 14598 831.843 6
-3 -5 -5 11540.8 706.852 6
-3 5 -5 12021.6 446.888 4
-3 -5 -4 15787 865.852 6
-3 5 -4 19069.8 597.544 4
-3 -5 -3 9274.3 614.761 6
-3 5 -3 11500.1 401.665 4
-3 -5 -2 33672.8 1292.77 6
-3 5 -2 33793.9 983.805 4
-3 -5 -1 14123.8 734.863 6
-3 5 -1 15996.2 544.373 4
-3 -5 0 23787.8 986.602 6
-3 5 0 24545.5 805.228 4
-3 -5 1 23036.8 959.516 6
-3 5 1 24839.9 827.85 4
-3 5 1 24559.6 793.093 1
-3 5 2 36893.3 1157.62 1
-3 -5 2 38425.5 1315.01 6
-3 -5 3 11466.9 570.416 6
-3 5 3 10860.6 494.52 1
-3 -5 4 41010.3 1360.53 6
-3 5 4 41136.7 1324.86 1
-3 -5 5 12683.4 578.438 6
-3 5 5 12339.9 588.452 1
-3 -5 6 19661.6 747.275 6
-3 5 6 18466.1 810.767 1
-3 -5 7 13990.8 563.577 6
-3 5 7 13892.4 696.837 1
-3 5 8 12826.1 693.285 1
-3 5 9 10198.8 640.956 1
-3 5 10 11379.6 706.708 1
-3 5 11 3015.85 379.477 1
-3 -5 12 10914.6 722.016 1
-3 5 12 12150.9 811.86 1
-3 -5 13 7040.01 584.628 1
-3 -6 -10 239.852 167.064 6
-3 -6 -9 2573.47 377.481 6
-3 -6 -8 899.729 286.233 6
-3 -6 -7 6116.02 543.298 6
-3 -6 -6 1173.48 249.969 6
-3 -6 -5 9624.34 682.554 6
-3 -6 -4 2898.17 370.723 6
-3 6 -3 11729.5 454.029 4
-3 -6 -3 10677.5 684.405 6
-3 -6 -2 5093.31 447.539 6
-3 6 -2 6239.66 308.57 4
-3 -6 -1 9958.41 618.052 6
-3 6 -1 10354.5 449.124 4
-3 -6 0 5447.05 439.67 6
-3 6 0 6306.52 349.059 4
-3 6 1 7606.73 403.183 4
-3 -6 1 7032.9 495.992 6
-3 -6 2 5055.56 408.843 6
-3 6 2 5243.97 322.864 1
-3 -6 3 10514.1 601.824 6
-3 6 3 10916.9 523.962 1
-3 -6 4 8970.7 524.252 6
-3 6 4 8317.92 474.86 1
-3 -6 5 8249.08 489.556 6
-3 6 5 7966.27 488.27 1
-3 -6 6 4010.33 317.408 6
-3 6 6 3344.25 329.039 1
-3 -6 7 18111.3 741.896 6
-3 6 7 17767.8 843.816 1
-3 6 8 237.033 146.372 1
-3 6 9 10983.5 688.06 1
-3 6 10 2009.07 312.222 1
-3 6 11 8030.76 643.31 1
-3 6 12 1958.55 343.179 1
-3 -7 -8 16774.8 1027.88 6
-3 -7 -7 3255.57 411.076 6
-3 -7 -6 28116.7 1355.47 6
-3 -7 -5 3194.27 420.339 6
-3 -7 -4 13938 852.518 6
-3 -7 -3 1067.6 266.886 6
-3 -7 -2 15729 875.759 6
-3 7 -2 16542.7 645.961 4
-3 -7 -1 2276.83 305.82 6
-3 7 -1 2935.24 236.812 4
-3 7 0 27154.8 982.611 4
-3 -7 0 26735.5 1176.52 6
-3 -7 1 4513.42 428.412 6
-3 7 1 5215.11 349.134 4
-3 7 2 31747.8 1159.87 4
-3 -7 2 32146.4 1305.8 6
-3 7 2 32432.6 1128.82 1
-3 7 3 6710.19 427.799 1
-3 -7 3 7022.57 511.45 6
-3 -7 4 11869.3 687.745 6
-3 7 4 12483.4 634.395 1
-3 -7 5 2903.33 304.687 6
-3 7 5 2908.23 301.684 1
-3 -7 6 13986.1 695.947 6
-3 7 6 12320.1 694.551 1
-3 -7 7 342.485 103.698 6
-3 7 7 292.269 152.735 1
-3 7 8 20698.4 1015.51 1
-3 7 9 3855.24 424.395 1
-3 7 10 11616.9 785.257 1
-3 7 11 3969.95 493.768 1
-3 -8 -7 3298.96 452.856 6
-3 -8 -6 1925.43 365.815 6
-3 -8 -5 4084.12 490.582 6
-3 -8 -4 3458.69 434.279 6
-3 -8 -3 4589.83 488.472 6
-3 -8 -2 5389.74 518.029 6
-3 8 -1 6131.64 384.614 4
-3 -8 -1 5399.53 518.818 6
-3 -8 0 3276.88 392.932 6
-3 8 0 4187.6 327.49 4
-3 -8 1 4782.64 464.802 6
-3 8 1 5703.54 404.413 4
-3 8 2 3294.61 312.77 4
-3 -8 2 2671.86 342.415 6
-3 8 3 9200.33 539.903 1
-3 -8 3 9163.6 629.162 6
-3 8 3 7892.17 525.522 4
-3 8 4 2035.1 259.991 1
-3 -8 4 1506.38 278.5 6
-3 8 5 3428.14 356.313 1
-3 -8 5 3418.86 368.157 6
-3 8 6 6460.41 514.23 1
-3 -8 6 7434.41 535.642 6
-3 8 7 3893.86 396.648 1
-3 8 8 7430.11 599.189 1
-3 8 9 1668.07 319.444 1
-3 8 10 1481.34 276.109 1
-3 -9 -4 428.124 172.481 6
-3 -9 -3 8165.11 688.596 6
-3 -9 -2 542.65 248.503 6
-3 -9 -1 17696.6 1029.28 6
-3 -9 0 954.762 211.688 6
-3 -9 1 33130.2 1487.67 6
-3 9 1 32488.8 1255.37 4
-3 -9 2 1156.11 255.645 6
-3 9 2 1399.66 241.559 4
-3 -9 3 20251 1060.09 6
-3 9 3 17902 907.195 4
-3 9 4 412.026 166.124 1
-3 -9 4 716.558 221.382 6
-3 9 4 686.876 186.362 4
-3 9 5 7483.75 567.119 1
-3 -9 5 7460 584.788 6
-3 -9 6 1007.81 231.989 6
-3 9 6 1429.89 273.202 1
-3 9 7 14326.9 862.075 1
-3 9 8 1242.28 276.239 1
-3 -10 -1 88.2571 112.543 6
-3 -10 0 4651.89 538.781 6
-3 -10 1 -87.6618 136.469 6
-3 -10 2 3119.2 437.892 6
-3 -10 3 -34.0452 103.042 6
-3 -10 4 3029.19 404.786 6
-3 10 4 3424.82 377.913 4
-3 -10 5 -183.092 107.409 6
-3 10 5 -74.619 117.517 4
-3 10 6 9818.74 720.983 4
-2 0 -10 28527.3 1086.94 6
-2 0 -9 -117.271 105.121 6
-2 0 -8 5599.18 383.454 6
-2 0 -7 -132.066 99.7607 6
-2 0 -6 19070.6 764.427 6
-2 0 -5 -9.36208 92.0998 6
-2 0 -4 122946 3445.09 6
-2 0 -4 130556 3354.31 1
-2 0 -3 201.758 101.91 6
-2 0 -3 50.1035 46.909 1
-2 0 -2 199020 5075.16 1
-2 0 -2 200515 5180.73 6
-2 0 -1 -4.4981 40.8205 1
-2 0 -1 159.166 100.032 6
-2 0 0 55367.1 816.233 6
-2 0 0 55050.9 663.408 1
-2 0 1 -5.95818 70.8971 6
-2 0 1 11.2645 62.333 2
-2 0 1 86.5812 39.9629 4
-2 0 2 131307 3459.62 6
-2 0 2 132969 3464.1 4
-2 0 3 9.40987 31.9727 6
-2 0 3 24.6535 35.8152 3
-2 0 3 -3.38867 45.3121 2
-2 0 3 8.98105 37.8812 4
-2 0 4 266820 6026.72 3
-2 0 4 283773 6128.71 2
-2 0 5 32.5781 53.641 2
-2 0 5 6.54203 35.8252 3
-2 0 6 59449.4 1637.02 3
-2 0 6 61572.7 1785.77 2
-2 0 6 60523.6 1747.87 1
-2 0 7 59.3539 31.0563 3
-2 0 7 -75.2673 111.285 1
-2 0 8 14726.6 641.831 1
-2 0 8 14452.4 535.139 3
-2 0 9 -48.2769 124.737 1
-2 0 9 37.6029 36.8722 3
-2 0 10 8071.3 507.214 1
-2 0 11 125.494 116.592 1
-2 0 12 18633.1 903.345 1
-2 0 13 163.477 151.284 1
-2 0 14 16741.2 940.233 1
-2 -1 -10 3005.14 300.517 6
-2 1 -10 2811.37 272.511 6
-2 -1 -9 12073.5 634.376 6
-2 1 -9 11625.3 579.746 6
-2 1 -8 2591.67 251.691 6
-2 -1 -8 1959.73 241.937 6
-2 1 -7 10160.2 506.635 6
-2 -1 -7 9696.42 522.832 6
-2 -1 -6 2228.22 237.979 6
-2 1 -6 2077.83 211.602 6
-2 -1 -5 21860 825.139 6
-2 1 -5 21608.4 792.315 6
-2 1 -4 9404.66 371.818 6
-2 -1 -4 9302.71 395.653 6
-2 1 -3 14064.7 568.715 6
-2 -1 -3 16437.4 562.748 1
-2 -1 -3 14049.2 585.426 6
-2 -1 -2 39212.9 1153.77 6
-2 1 -2 37385.2 983.764 1
-2 1 -2 39860.4 1137.75 6
-2 1 -1 15937 575.583 2
-2 1 -1 15415.5 568.885 6
-2 -1 -1 15140.1 572.326 6
-2 -1 -1 17462.3 552.322 1
-2 -1 0 12119.9 423.623 1
-2 1 0 11404.2 436.404 6
-2 -1 0 11266.8 437.117 6
-2 -1 1 7572.98 322.583 6
-2 1 1 7610.49 252.42 4
-2 1 1 8374.51 328.536 6
-2 -1 1 7574.15 324.603 4
-2 1 1 9165.68 350.265 3
-2 1 1 8117.25 251.473 1
-2 1 2 21438.5 670.375 3
-2 1 2 20020 601.503 1
-2 -1 2 22273.3 662.29 4
-2 1 2 22206.7 701.631 2
-2 1 2 20105 602.392 4
-2 -1 2 21502.1 625.511 2
-2 -1 2 19162.3 617.98 6
-2 1 2 19442.7 627.193 6
-2 1 3 87644.2 2213.55 3
-2 -1 3 80982.1 2125.07 6
-2 1 3 84574.6 2262.92 2
-2 1 3 82732.3 2174.98 1
-2 1 3 87693.5 2180.36 4
-2 -1 3 84418.3 2161.58 2
-2 -1 4 8615.72 222.036 6
-2 -1 4 8975.32 293.287 2
-2 1 4 9056.29 388.037 2
-2 1 4 8953.62 327.65 4
-2 1 4 8836.14 337.739 1
-2 1 4 9373.45 338.548 3
-2 1 5 20616 691.608 3
-2 1 5 21485.5 717.181 1
-2 1 5 20705 771.276 2
-2 -1 5 19306.6 647.612 2
-2 1 6 41.2155 46.1384 3
-2 1 6 -51.2714 119.88 1
-2 -1 6 -8.46966 54.236 2
-2 -1 7 11434.1 488.146 2
-2 -1 7 11014.7 321.152 3
-2 -1 7 11021.5 507.873 1
-2 1 7 11477.9 528.538 1
-2 1 7 11684.4 491.61 3
-2 -1 8 2568.76 223.989 2
-2 1 8 2404.77 215.056 3
-2 -1 8 2500.07 117.545 3
-2 -1 8 2411.15 240.911 1
-2 1 8 2707.6 270.86 1
-2 1 9 19688 819.204 1
-2 -1 9 18381.3 552.995 3
-2 -1 9 19190.2 790.214 1
-2 1 10 3244.22 320.006 1
-2 -1 10 3433.3 320.292 1
-2 -1 11 15362.9 769.211 1
-2 1 11 16045.1 798.021 1
-2 1 12 2228.41 306.888 1
-2 -1 12 1650.47 265.561 1
-2 1 13 7445.74 573.751 1
-2 -1 13 7051.11 550.937 1
-2 -1 14 2034.19 329.821 1
-2 1 14 2465.9 360.681 1
-2 -2 -11 20793.3 958.8 6
-2 2 -10 7928.77 461.311 6
-2 -2 -10 8609.67 552.637 6
-2 -2 -9 28030.7 1124.21 6
-2 2 -9 27744.1 1030.79 6
-2 2 -8 4985.68 341.216 6
-2 -2 -8 4949.65 394.072 6
-2 -2 -7 18538.9 827.702 6
-2 2 -7 20507.7 787.012 6
-2 2 -6 23839.4 867.824 6
-2 -2 -6 22937.4 920.481 6
-2 -2 -5 55478.5 1726.27 6
-2 2 -5 54775.7 1658.3 6
-2 -2 -4 31452.6 1074.51 6
-2 2 -4 29904.6 1012.54 6
-2 -2 -3 103410 2846.77 6
-2 2 -3 100762 2624.7 4
-2 2 -3 104019 2793.66 6
-2 -2 -2 27246.2 921.585 1
-2 2 -2 27166.7 756.878 4
-2 2 -2 29092.6 928.029 6
-2 -2 -2 30732 980.381 6
-2 2 -2 32531.3 954.032 2
-2 -2 -1 11796.7 463.152 1
-2 2 -1 11474.6 461.08 6
-2 2 -1 13134.4 494.472 2
-2 2 -1 10976.6 306.272 4
-2 -2 -1 11607.7 485.913 6
-2 2 0 991.522 133.826 6
-2 -2 0 784.018 137.516 6
-2 -2 0 1106.85 124.953 1
-2 2 0 1296.91 138.599 2
-2 2 1 2154.35 108.027 1
-2 -2 1 2471.8 183.118 6
-2 -2 1 1416.74 139.292 1
-2 -2 1 2166.53 164.877 4
-2 2 1 1116.73 133.137 2
-2 2 2 4264.6 244.726 3
-2 2 2 3927.79 184.684 1
-2 -2 2 3943.1 217.655 6
-2 -2 3 47578.1 592.759 6
-2 2 3 47071 621.435 1
-2 2 3 49019.5 790.156 3
-2 2 3 50751.9 650.898 4
-2 -2 4 34789.7 924.956 2
-2 2 4 37691.7 1127.85 3
-2 2 4 32417.8 1045.62 4
-2 2 4 35682.8 1058.06 1
-2 -2 4 34258.9 970.945 6
-2 2 5 79793.3 2172.04 3
-2 -2 5 73820.5 1959.19 2
-2 2 5 76610.8 2121.21 1
-2 -2 5 75504.2 1947.69 6
-2 2 6 22573.5 789.818 1
-2 -2 6 20015.4 629.902 2
-2 -2 7 32273.5 978.954 2
-2 2 7 34330 1142.16 1
-2 -2 8 14550.9 561.006 2
-2 2 8 15712.3 696.076 1
-2 -2 9 25278.5 948.67 1
-2 2 9 22582.6 964.059 1
-2 -2 10 3418.46 326.316 1
-2 2 10 3710.99 360.559 1
-2 2 11 20507.1 965.681 1
-2 -2 11 20280.2 911.301 1
-2 2 12 7111.96 555.031 1
-2 -2 12 7305.09 526.963 1
-2 -2 13 13786 792.551 1
-2 2 13 13817.9 840.464 1
-2 -2 14 5128.11 488.6 1
-2 2 14 4072.22 448.271 1
-2 -3 -11 371.961 141.718 6
-2 -3 -10 8426.15 573.088 6
-2 -3 -9 3535.74 357.807 6
-2 -3 -8 5595.46 435.919 6
-2 3 -8 5489.95 364.923 6
-2 -3 -7 1893.74 248.622 6
-2 3 -7 2437.93 234.887 6
-2 -3 -6 7487.01 481.129 6
-2 3 -6 6943.53 406.359 6
-2 3 -6 7565.82 355.737 4
-2 3 -5 13295.7 589.441 6
-2 3 -5 13639 500.224 4
-2 -3 -5 13622.5 661.933 6
-2 -3 -4 15593.5 699.677 6
-2 3 -4 15073.5 508.398 4
-2 3 -4 15282.3 624.324 6
-2 3 -3 1826.01 112.484 4
-2 -3 -3 2275.89 251.2 6
-2 3 -3 1721.37 183.509 6
-2 -3 -2 22514.6 854.486 6
-2 3 -2 21867.3 655.017 4
-2 3 -1 6331.78 254.188 4
-2 -3 -1 7456 401.879 6
-2 3 -1 7892.35 386.133 2
-2 3 0 30408.9 877.651 1
-2 3 0 35473.8 1076.84 2
-2 -3 0 34975.5 1065.21 6
-2 3 0 30068.2 898.326 4
-2 -3 1 4192.62 261.612 6
-2 3 1 3684.64 181.822 1
-2 -3 2 59128 1650.84 6
-2 3 2 54976.1 1564.06 1
-2 3 3 5232.06 277.408 1
-2 -3 3 5968.46 301.56 6
-2 3 4 35324.1 1103.81 1
-2 3 5 15072.4 620.407 1
-2 -3 5 15573.5 534.3 6
-2 -3 6 10515.2 370.622 6
-2 3 6 10306.2 515.952 1
-2 -3 6 11070.1 382.092 6
-2 3 7 4201.84 351.194 1
-2 -3 7 5113.18 185.08 6
-2 -3 7 4750.08 184.425 6
-2 3 8 9059.14 536.84 1
-2 -3 8 9439.97 314.36 2
-2 -3 8 9537.05 303.827 2
-2 3 9 478.402 193.607 1
-2 -3 10 11988.3 637.877 1
-2 3 10 12223.2 701.504 1
-2 -3 11 1657.99 240.999 1
-2 3 11 1532.58 268.601 1
-2 3 12 11548.5 740.813 1
-2 -3 12 10135.7 640.28 1
-2 -3 13 945.517 229.796 1
-2 3 13 813.656 244.267 1
-2 -3 14 6941.52 586.316 1
-2 -4 -11 13079.8 774.567 6
-2 -4 -10 3890.72 417.033 6
-2 -4 -9 10525 663.12 6
-2 -4 -8 4612.23 424.063 6
-2 4 -7 12782.4 545.847 4
-2 -4 -7 12795.8 706.993 6
-2 -4 -6 638.153 173.805 6
-2 4 -6 678.934 117.859 4
-2 4 -5 28932.3 877.761 4
-2 -4 -5 24210.1 1063.32 6
-2 -4 -4 12674.3 662.681 6
-2 4 -4 13145 478.919 4
-2 -4 -3 51552.9 1714.59 6
-2 4 -3 54021.3 1488.12 4
-2 -4 -2 19269.9 812.204 6
-2 4 -2 19377.4 632.587 4
-2 4 -1 70182.7 1974.2 4
-2 -4 -1 77269.1 2191.48 6
-2 4 0 11819.7 463.514 4
-2 -4 0 13683 608.457 6
-2 4 1 57716.9 1620.28 1
-2 4 2 22322.9 756.362 1
-2 4 3 58025.6 1686.8 1
-2 4 4 11873.3 525.984 1
-2 4 5 53934.1 1655.71 1
-2 4 6 6685.05 414.823 1
-2 4 7 30256.3 1126.38 1
-2 -4 7 29866.6 912.857 6
-2 4 8 4109.3 359.003 1
-2 -4 8 4126.85 199.086 6
-2 4 9 11192.1 652.221 1
-2 4 10 3326.32 371.757 1
-2 -4 11 9781.24 601.885 1
-2 4 11 9208.42 653.248 1
-2 -4 12 3633.51 379.019 1
-2 4 12 3736.82 438.37 1
-2 4 13 14673.8 886.028 1
-2 -4 13 10579.1 729.004 1
-2 -4 14 1831.57 318.657 1
-2 -5 -11 2676.95 370.41 6
-2 -5 -10 4294.87 445.979 6
-2 -5 -9 6043.96 522.88 6
-2 -5 -8 4245.63 434.233 6
-2 5 -8 4963.49 328.715 4
-2 5 -7 10059.1 474.061 4
-2 -5 -7 8397.34 599.623 6
-2 -5 -6 11099.9 698.762 6
-2 5 -6 13800.3 547.945 4
-2 -5 -5 7254.29 531.043 6
-2 5 -5 8356.93 387.812 4
-2 -5 -4 5589.57 443.433 6
-2 5 -4 6573.79 325.645 4
-2 -5 -3 10124.6 606.512 6
-2 5 -3 11439.2 458.742 4
-2 -5 -2 14734 730.662 6
-2 5 -2 15915.8 585.516 4
-2 -5 -1 10168.6 578.203 6
-2 5 -1 10237.9 451.848 4
-2 5 0 3922.08 262.028 4
-2 5 1 2766.91 218.733 1
-2 5 2 20189.4 750.489 1
-2 5 3 3431.35 273.15 1
-2 5 4 13647.7 617.789 1
-2 5 5 7069.62 431.805 1
-2 5 6 7192.59 453.601 1
-2 5 7 8977.53 548.842 1
-2 5 8 4427.27 404.21 1
-2 5 9 8340.05 579.544 1
-2 5 10 6353.11 536.082 1
-2 5 11 5609.98 524.994 1
-2 -5 12 8819.86 616.974 1
-2 5 12 7972.76 666.938 1
-2 -5 13 2777.54 362.169 1
-2 -6 -11 84.6624 155.075 6
-2 -6 -10 12898.3 838.868 6
-2 -6 -9 242.09 178.743 6
-2 -6 -8 27357.6 1274.57 6
-2 6 -7 722.658 126.014 4
-2 -6 -7 686.748 225.374 6
-2 -6 -6 23020.1 1141.92 6
-2 6 -6 27845.7 940.66 4
-2 6 -5 4849.58 303.508 4
-2 -6 -5 3518.53 390.046 6
-2 -6 -4 25592.9 1146.68 6
-2 6 -4 27398.2 937.142 4
-2 6 -3 2414.86 209.84 4
-2 -6 -3 1899.58 307.148 6
-2 6 -2 33193.2 1064.89 4
-2 -6 -2 28782.7 1234.75 6
-2 6 -1 2719.11 239.781 4
-2 6 0 39920.1 1299.84 4
-2 6 1 1656.66 198.769 1
-2 6 1 1841.48 213.324 4
-2 6 2 24120.5 903.264 1
-2 6 3 1339.99 196.793 1
-2 6 4 18707.1 802.882 1
-2 6 5 5735.52 413.916 1
-2 6 6 33809.6 1279.72 1
-2 6 7 1436.97 237.811 1
-2 6 8 24183.6 1087.96 1
-2 6 9 387.19 176.086 1
-2 6 10 20370.8 1051.22 1
-2 6 11 -17.9782 143.344 1
-2 -6 12 12538.5 793.153 1
-2 6 12 13647 905.67 1
-2 -7 -10 428.536 197.312 6
-2 -7 -9 1211.73 276.034 6
-2 -7 -8 474.839 209.033 6
-2 -7 -7 4479.61 462.37 6
-2 -7 -6 1728.52 297.719 6
-2 -7 -5 8805.64 655.961 6
-2 7 -5 9302.69 479.742 4
-2 7 -4 1074.67 164.821 4
-2 -7 -4 781.211 172.558 6
-2 -7 -3 9023.5 654.815 6
-2 7 -3 11295.3 530.927 4
-2 -7 -2 1313.17 232.886 6
-2 7 -2 1299.46 173.975 4
-2 7 -1 14344.4 651.84 4
-2 7 0 2682.42 268.865 4
-2 7 1 21330.4 878.568 4
-2 7 2 2375.31 262.872 1
-2 7 2 2477.21 273.092 4
-2 7 3 12831.6 652.73 1
-2 7 4 128.582 114.021 1
-2 7 5 14606.4 748.656 1
-2 7 6 2728.49 314.502 1
-2 7 7 6357.38 505.251 1
-2 7 8 2148.8 310.223 1
-2 7 9 4456.74 460.429 1
-2 7 10 248.743 154.643 1
-2 7 11 5973.06 597.118 1
-2 -7 12 177.191 129.203 1
-2 -8 -8 8929.76 739.847 6
-2 -8 -7 11455.2 829.496 6
-2 -8 -6 7978.82 659.342 6
-2 -8 -5 5962 561.108 6
-2 8 -4 5845.96 396.125 4
-2 -8 -4 5786.35 547.5 6
-2 8 -3 8391.5 488.021 4
-2 -8 -3 9027.36 667.184 6
-2 -8 -2 9025.45 657.873 6
-2 8 -2 8523.46 499.417 4
-2 8 -1 22618.6 932.898 4
-2 8 0 18542.4 835.556 4
-2 8 1 28226.5 1128.91 4
-2 8 2 14231.9 726.746 1
-2 8 2 14196.3 731.513 4
-2 8 3 8674.12 561.126 1
-2 8 3 8767.33 567.172 4
-2 8 4 6257.68 479.015 1
-2 8 5 6410.8 510.051 1
-2 8 6 10860.2 682.369 1
-2 8 7 8003.2 611.503 1
-2 8 8 10647.7 731.845 1
-2 8 9 7236.31 629.082 1
-2 8 10 7756.59 665.801 1
-2 -9 -6 10736.9 812.182 6
-2 -9 -5 1158.66 296.36 6
-2 -9 -4 6822.85 642.889 6
-2 -9 -3 1219.42 245.761 6
-2 -9 -2 2722.01 377.544 6
-2 9 -2 3136.52 307.043 4
-2 -9 -1 751.868 199.89 6
-2 9 -1 766.379 162.627 4
-2 9 0 3187.41 327.546 4
-2 9 1 1562.25 247.928 4
-2 9 2 1596.43 266.109 4
-2 9 3 1364.73 235.702 4
-2 9 3 1751.86 273.397 1
-2 9 4 2820.78 348.386 1
-2 9 4 2470.11 340.091 4
-2 9 5 1937.87 305.097 1
-2 9 6 11047.9 745.837 1
-2 9 7 500.101 173.533 1
-2 9 8 9025.35 710.431 1
-2 -10 -3 8163.52 715.76 6
-2 -10 -2 1173.86 311.206 6
-2 -10 -1 18328.3 1135.71 6
-2 -10 0 3180.38 429.916 6
-2 10 0 2950.23 342.789 4
-2 10 1 25942 1170.78 4
-2 10 2 915.193 207.564 4
-2 10 3 10045.4 694.061 4
-2 10 4 861.375 228.001 1
-2 10 4 817.443 198.848 4
-2 10 5 7505.57 616.548 1
-2 10 5 7909.63 652.03 4
-2 10 6 1600.75 286.715 4
-2 10 6 1380.09 305.367 1
-2 10 7 12485.8 863.57 1
-1 0 -10 -28.5075 65.3852 6
-1 0 -9 6461.3 375.571 6
-1 0 -8 -14.6611 72.7057 6
-1 0 -7 8584.02 422.631 6
-1 0 -6 -64.7507 80.4148 6
-1 0 -5 19934.1 749.123 1
-1 0 -5 29943.5 837.842 6
-1 0 -4 11.3721 66.6518 6
-1 0 -4 -9.55175 42.8388 1
-1 0 -3 65142 1810.11 6
-1 0 -3 67620.3 1780.26 1
-1 0 -2 -10.7114 62.7787 6
-1 0 -2 -22.2294 40.2516 1
-1 0 -1 11908.8 356.416 1
-1 0 -1 12349.2 400.825 6
-1 0 0 7.58112 45.1864 6
-1 0 0 6.21353 23.1367 1
-1 0 1 28463.8 772.537 6
-1 0 1 29140.7 778.57 3
-1 0 1 28445 773.368 4
-1 0 1 29789.7 800.015 2
-1 0 2 -3.80342 26.7501 3
-1 0 2 5.02252 42.0226 2
-1 0 2 -1.5299 29.9175 4
-1 0 3 10202.8 380.02 2
-1 0 3 10384.2 330.549 3
-1 0 4 -9.41163 33.9117 3
-1 0 4 0.21746 52.5021 2
-1 0 4 -31.3967 81.4405 1
-1 0 5 18891.7 707.138 2
-1 0 5 19376.8 631.67 3
-1 0 5 19969.6 671.216 1
-1 0 6 -61.558 54.9735 2
-1 0 6 -12.275 98.6119 1
-1 0 6 -69.2238 45.111 3
-1 0 7 32049.8 1066.97 1
-1 0 7 31845.6 1025.94 3
-1 0 8 37.4622 25.0483 3
-1 0 8 -78.3475 115.93 1
-1 0 9 14015.5 668.987 1
-1 0 9 15697.2 642.216 3
-1 0 10 -21.8686 94.1233 1
-1 0 11 7919.2 519.454 1
-1 0 12 73.2125 116.317 1
-1 0 13 7407.91 567.425 1
-1 0 14 -102.873 71.3549 1
-1 -1 -10 23433.7 898.651 6
-1 1 -10 21739.1 811.271 6
-1 -1 -9 6687.68 412.401 6
-1 1 -9 6854.7 370.831 6
-1 -1 -8 38781.1 1290.41 6
-1 1 -8 39894.2 1237.76 6
-1 1 -7 13131 531.985 6
-1 -1 -7 13269.5 574.828 6
-1 -1 -6 30331.6 1011.27 6
-1 1 -6 30174.8 963.509 6
-1 -1 -5 20127.6 723.296 6
-1 1 -5 20557.4 692.375 6
-1 -1 -4 28262.7 904.861 6
-1 1 -4 26633.3 834.973 4
-1 -1 -4 29224.7 893.709 1
-1 1 -4 28796.2 871.642 6
-1 -1 -3 17971.8 614.519 6
-1 -1 -3 19652.4 603.996 1
-1 1 -3 16738.6 538.02 4
-1 1 -3 17350.1 583.153 6
-1 -1 -2 72854.5 1909.38 6
-1 -1 -2 75768.6 1887.49 1
-1 1 -2 72151.2 1877.2 6
-1 -1 -1 38379.4 1099.08 6
-1 -1 -1 42052.7 1086.02 1
-1 1 -1 42360.6 1087.84 2
-1 1 -1 37574.3 993.248 4
-1 1 -1 37360.4 1075.81 6
-1 1 0 141572 3088.53 6
-1 -1 0 144874 3107.62 6
-1 -1 1 54410.4 503.925 6
-1 1 1 52663.3 405.106 1
-1 1 2 122177 784.211 4
-1 1 2 121147 781.576 1
-1 -1 2 121089 624.854 6
-1 1 2 118061 900.341 3
-1 1 3 15737.8 540.14 4
-1 1 3 18459.3 616.854 2
-1 -1 3 16375.8 495.571 2
-1 1 3 18441 562.475 1
-1 1 3 18040.6 575.233 3
-1 -1 4 10231.9 378.405 2
-1 -1 4 10547.8 414.256 4
-1 1 4 11079.1 426.218 1
-1 1 4 11224.2 483.382 2
-1 1 4 11038.8 429.085 3
-1 -1 5 14471.4 552.719 4
-1 -1 5 14307 535.308 2
-1 1 5 16610.6 659.66 2
-1 1 5 16068.5 581.959 1
-1 -1 5 14719.4 454.96 3
-1 1 5 15590.2 580.997 3
-1 -1 6 38898.1 1210.81 1
-1 1 6 40911.9 1252 1
-1 -1 6 39233.7 1115.82 3
-1 1 6 41254.9 1262.67 3
-1 -1 6 39517.8 1231.93 2
-1 -1 7 25504.3 919.651 1
-1 1 7 28141.5 972.214 3
-1 -1 7 27655.5 963.713 2
-1 1 7 28276.2 972.053 1
-1 -1 7 27062.9 840.451 3
-1 1 8 39733.9 1309.79 1
-1 -1 8 38782.3 1164.94 3
-1 -1 8 37522.3 1261.14 1
-1 1 9 10822.9 578.135 1
-1 -1 9 11483.9 474.968 3
-1 -1 9 10402.8 546.125 1
-1 -1 10 20877.5 886.876 1
-1 1 10 22192.9 942.188 1
-1 -1 11 1169.04 213.138 1
-1 1 11 935.795 210.463 1
-1 1 12 11199.2 693.024 1
-1 -1 12 11915.5 682.491 1
-1 -1 13 1865.85 295.272 1
-1 1 13 1939.83 313.456 1
-1 -1 14 11963.2 782.142 1
-1 1 14 12527.4 817.008 1
-1 -2 -11 2805.85 290.923 6
-1 -2 -10 7612.23 470.857 6
-1 2 -10 7663.71 388.911 6
-1 -2 -9 430.8 137.815 6
-1 2 -9 437.72 89.8099 6
-1 2 -8 2798.76 218.122 6
-1 -2 -8 2938.51 272.771 6
-1 -2 -7 6201.08 395.102 6
-1 2 -7 6997.13 352.48 6
-1 2 -6 8097.74 377.546 6
-1 -2 -6 7798.46 431.505 6
-1 2 -6 7886.43 381.17 4
-1 2 -5 9197.56 396.97 6
-1 2 -5 8991.46 385.142 4
-1 -2 -5 9357.93 455.684 6
-1 2 -4 32008.7 992.978 6
-1 2 -4 32658.4 957.47 4
-1 -2 -4 33582.1 1076.21 6
-1 -2 -3 29068.8 836.409 6
-1 2 -3 27235.6 696.559 4
-1 2 -3 27290.9 753.203 6
-1 2 -2 21284.5 650.592 6
-1 2 -2 22698 684.006 3
-1 -2 -2 23356.7 725.818 6
-1 2 -2 21665.3 592.878 4
-1 2 -2 23846.2 661.714 2
-1 2 -1 6586.06 253.194 4
-1 -2 -1 7718.24 352.284 6
-1 2 -1 7720.68 321.947 3
-1 2 -1 7808.65 312.362 2
-1 2 0 12552.6 457.763 3
-1 2 0 11919.1 379.625 1
-1 2 0 12811.3 449.129 2
-1 2 1 10836.1 366.384 1
-1 2 1 11037.8 422.893 2
-1 2 2 22395.8 638.969 1
-1 -2 2 22439.2 608.397 3
-1 2 2 24213.1 712.695 3
-1 -2 3 18810.9 605.782 4
-1 -2 3 16728.1 492.347 3
-1 2 3 17745.8 642.805 3
-1 2 3 16503.8 577.785 1
-1 -2 4 19819.2 350.118 6
-1 2 4 19881.6 516.57 1
-1 -2 4 17992.6 287.574 2
-1 2 4 20442.9 577.811 3
-1 -2 4 21516.3 521.809 4
-1 -2 5 15360 500.507 2
-1 2 5 17869.9 674.601 3
-1 2 5 16243.6 620.257 1
-1 -2 5 15541.1 467.942 6
-1 -2 6 17172.3 499.633 6
-1 -2 6 16805.5 588.289 2
-1 2 6 18445.5 703.868 1
-1 -2 6 17241.6 487.899 3
-1 -2 7 14764 454.701 3
-1 -2 7 15475.8 439.984 6
-1 -2 7 14850.4 584.218 2
-1 2 7 17018.3 695.913 1
-1 -2 7 15315.6 477.253 3
-1 -2 8 15382.6 660.337 1
-1 -2 8 14580.5 625.779 2
-1 -2 8 15565.1 485.881 3
-1 2 8 16849.5 734.087 1
-1 -2 8 16368.5 519.085 3
-1 2 9 5282.2 408.995 1
-1 -2 9 5602.16 234.363 3
-1 -2 9 5709.57 374.936 1
-1 -2 10 7781.48 484.415 1
-1 2 10 8397.95 547.322 1
-1 2 11 2240.33 316.485 1
-1 -2 11 2031.03 261.869 1
-1 2 12 4108.46 427.317 1
-1 -2 12 4015.53 382.323 1
-1 -2 13 732.892 188.003 1
-1 2 13 771.235 267.855 1
-1 2 14 7370.61 628.266 1
-1 -2 14 6894.96 576.248 1
-1 -3 -11 21045.1 934.23 6
-1 -3 -10 2209.33 268.299 6
-1 -3 -9 36418.3 1326.15 6
-1 -3 -8 963.515 180.792 6
-1 3 -8 1069.6 157.086 4
-1 -3 -7 43308 1473.95 6
-1 3 -7 43692 1369.55 4
-1 -3 -6 749.466 159.475 6
-1 3 -6 699.569 120.24 4
-1 -3 -5 37541.5 1255.92 6
-1 3 -5 36447.6 1117.01 4
-1 -3 -4 719.045 158.666 6
-1 3 -4 708.156 101.729 4
-1 -3 -3 48389.1 1481.4 6
-1 3 -3 49616 1409.92 3
-1 3 -3 47689.1 1346.24 2
-1 3 -3 43896.8 1315.33 4
-1 3 -2 12177.1 497.496 3
-1 3 -2 11913.1 432.054 4
-1 3 -2 13171.1 472.832 2
-1 -3 -1 87907.6 2446.24 5
-1 3 -1 95763.9 2508.64 3
-1 3 -1 95582.8 2477.38 2
-1 3 -1 87937.8 2413.87 4
-1 -3 0 186.446 84.3456 5
-1 -3 0 236.65 104.382 3
-1 3 0 186.231 76.6754 2
-1 3 0 119.783 67.3332 1
-1 3 0 187.051 62.6411 3
-1 -3 0 211.886 64.0135 1
-1 3 0 163.475 72.1011 4
-1 -3 1 95369.7 2137.12 5
-1 3 1 98739.5 2170.23 2
-1 -3 1 99694.8 2138.82 3
-1 -3 1 97803.1 2149.93 1
-1 3 1 96197 2062.24 1
-1 3 2 2243.85 207.129 2
-1 -3 2 3652.82 248.58 5
-1 -3 2 3262.69 218.206 4
-1 3 2 3188.64 210.217 1
-1 -3 2 3039.29 199.824 3
-1 -3 3 41445.9 593.936 3
-1 -3 3 39221.4 742.716 5
-1 3 3 38701.7 680.82 1
-1 3 4 1796.42 187.012 1
-1 -3 4 1977.32 129.343 3
-1 3 5 34848.4 1163.74 1
-1 -3 5 36856.9 1042.4 6
-1 -3 5 35447.2 992.417 3
-1 3 6 4641.79 344.063 1
-1 -3 6 4709.31 186.978 3
-1 -3 6 4482.63 182.611 2
-1 -3 6 4682.08 173.716 2
-1 -3 6 4573.96 220.485 6
-1 3 7 56230.9 1785.1 1
-1 -3 7 54662.2 1555.37 2
-1 -3 7 55653.8 1542.01 6
-1 -3 7 57145.6 1521.19 2
-1 -3 7 58075.7 1485.44 3
-1 -3 8 104.457 56.5025 2
-1 -3 8 45.3484 18.8742 3
-1 -3 8 90.6202 30.4696 6
-1 -3 8 93.6488 27.8494 3
-1 3 8 38.5479 126.61 1
-1 -3 8 98.885 50.2945 2
-1 -3 9 34954.6 1263.12 1
-1 3 9 35022.9 1355.32 1
-1 -3 9 38741.6 1115.53 2
-1 -3 10 617.888 133.359 1
-1 3 10 1152.65 225.098 1
-1 3 11 17279.2 910.454 1
-1 -3 11 17905.1 837.697 1
-1 -3 12 353.153 125.693 1
-1 3 12 135.282 129.696 1
-1 3 13 14073.2 874.395 1
-1 -3 13 12631.7 758.113 1
-1 -3 14 1037.42 237.79 1
-1 -4 -11 1065.62 215.586 6
-1 -4 -10 7450.6 519.484 6
-1 4 -9 2857.9 273.705 4
-1 -4 -9 2498.74 303.48 6
-1 4 -8 8744.98 473.958 4
-1 -4 -8 8559.48 552.242 6
-1 -4 -7 407.262 148.49 6
-1 4 -7 248.6 81.098 4
-1 -4 -6 9570.16 561.008 6
-1 4 -6 9959.53 460.49 4
-1 -4 -5 5336.76 395.135 6
-1 4 -5 5016.94 296.784 4
-1 -4 -4 11423 601.243 6
-1 4 -4 12494 493.984 4
-1 4 -3 1798.17 159.727 4
-1 4 -3 1999.85 161.54 2
-1 4 -2 15456.5 566.236 4
-1 4 -2 16126.4 589.949 2
-1 -4 -2 14630.3 576.454 5
-1 4 -1 7007.37 349.107 2
-1 4 -1 6469.21 326.984 4
-1 -4 -1 6145.14 339.447 5
-1 4 0 13065.6 509.5 1
-1 4 0 13645.2 558.139 2
-1 -4 0 13548 557.869 5
-1 4 0 13030.8 518.96 4
-1 -4 0 12890.1 586.634 3
-1 -4 1 1233.59 175.134 3
-1 4 1 1339.83 163.714 2
-1 4 1 1566.57 163.564 1
-1 -4 1 1485 185.949 5
-1 4 2 13372.1 538.087 1
-1 -4 2 12757.3 543.482 3
-1 -4 2 13399.5 577.087 5
-1 4 3 18775.6 707.465 1
-1 -4 3 19048.9 679.12 3
-1 -4 3 17617.4 723.056 5
-1 -4 4 11157.2 531.196 5
-1 -4 4 11423.6 453.667 3
-1 4 4 10343.6 506.151 1
-1 -4 5 3113.26 212.21 6
-1 -4 5 3115.32 198.755 3
-1 4 5 2664.21 259.265 1
-1 -4 6 12662.8 451.056 3
-1 -4 6 12332.3 490.647 6
-1 4 6 11838.2 603.404 1
-1 -4 7 1565.84 111.891 3
-1 -4 7 1598.91 146.083 6
-1 4 7 1466.88 217.706 1
-1 4 8 8176.69 530.692 1
-1 -4 8 8680.26 277.197 3
-1 4 9 1502.41 255.85 1
-1 4 10 9531.75 633.811 1
-1 -4 10 9433.69 554.231 1
-1 4 11 733.861 210.818 1
-1 -4 11 686.029 159.902 1
-1 4 12 8170.4 644.808 1
-1 -4 12 7449.13 549.119 1
-1 4 13 1968.3 355.592 1
-1 -4 13 2238.59 329.199 1
-1 -4 14 8181.91 629.851 1
-1 -5 -11 7965.87 586.654 6
-1 5 -10 11534.8 619.866 4
-1 -5 -10 9997.01 674.894 6
-1 -5 -9 8220.96 587.051 6
-1 5 -9 9045.8 517.188 4
-1 5 -8 12566.5 598.309 4
-1 -5 -8 11748.5 704.785 6
-1 -5 -7 8825.96 588.903 6
-1 5 -7 10450.8 511.271 4
-1 -5 -6 16137.2 830.587 6
-1 5 -6 19621.7 740.087 4
-1 -5 -5 7577.41 521.245 6
-1 5 -5 7968.15 413.255 4
-1 -5 -4 26377.7 1109.29 6
-1 5 -4 28112.2 923.42 2
-1 5 -4 29769.1 971.259 4
-1 5 -3 19690.8 731.794 4
-1 5 -3 19833.3 721.771 2
-1 -5 -2 41873.8 1376.22 5
-1 5 -2 43529.7 1366.27 4
-1 -5 -1 27168.9 930.604 3
-1 -5 -1 26080.5 811.253 5
-1 5 -1 26566.3 789.565 4
-1 5 0 49481.9 1509.64 1
-1 -5 0 50136.8 1565.39 5
-1 5 0 49257 1521.77 4
-1 -5 0 51343.3 1641.51 3
-1 5 1 20011.3 761.949 1
-1 -5 1 20241 805.911 5
-1 -5 1 20462.4 829.37 3
-1 -5 2 23167.7 911.716 5
-1 5 2 24380.6 880.775 1
-1 -5 2 23834.2 905.385 3
-1 -5 3 17300.8 753.039 5
-1 5 3 16279.5 710.097 1
-1 -5 3 19034.1 732.426 3
-1 -5 4 37849.3 1214.33 3
-1 -5 4 37591 1297.14 5
-1 5 4 35534.4 1256.53 1
-1 -5 5 14672.1 690.91 5
-1 -5 5 15130 589.716 3
-1 5 5 12675.6 650.886 1
-1 -5 6 30504.6 961.505 3
-1 5 6 27060.6 1093.74 1
-1 -5 7 8006.86 349.005 3
-1 5 7 7216.25 501.933 1
-1 5 8 20528.5 950.745 1
-1 5 9 9403.05 630.056 1
-1 5 10 5744.46 521.78 1
-1 5 11 8413.22 662.369 1
-1 -5 11 9190.37 596.113 1
-1 5 12 5740.39 555.477 1
-1 -5 12 5997.98 503.512 1
-1 -5 13 3383.56 377.643 1
-1 -6 -11 3145.7 410.934 6
-1 -6 -10 10.3399 52.1476 6
-1 6 -9 10415.1 582.149 4
-1 -6 -9 9809.38 691.485 6
-1 -6 -8 509.88 200.572 6
-1 6 -8 923.504 164.071 4
-1 6 -7 10912.9 547.148 4
-1 -6 -7 8373.07 618.165 6
-1 -6 -6 3275.02 360.267 6
-1 6 -6 4088.7 308.016 4
-1 -6 -5 9653.22 640.069 6
-1 6 -5 11651.1 551.363 4
-1 6 -4 2187.92 220.263 4
-1 6 -3 8068.89 434.208 4
-1 6 -2 2347.89 236.276 4
-1 -6 -2 2434.95 248.473 5
-1 6 -1 15309.7 666.09 4
-1 -6 -1 14655 680.182 5
-1 -6 0 980.754 220.19 3
-1 -6 0 1172.14 201.559 5
-1 6 0 992.335 185.446 4
-1 -6 1 8403.87 505.794 5
-1 6 1 8185.14 472.439 1
-1 6 1 8584.34 484.01 4
-1 -6 1 8773.82 535.011 3
-1 -6 2 2784.73 295.813 5
-1 6 2 3616.8 306.326 1
-1 -6 2 3479.72 328.491 3
-1 6 3 15181.2 706.247 1
-1 -6 3 15290.6 743.185 5
-1 -6 3 15518.7 719.019 3
-1 -6 4 1841.42 226.095 3
-1 6 4 1687.86 231.808 1
-1 -6 4 1348 233.793 5
-1 -6 5 12611.9 693.555 5
-1 6 5 14061.3 708.567 1
-1 -6 6 6402.6 373.873 3
-1 6 6 5874.78 454.872 1
-1 6 7 9637.15 616.034 1
-1 6 8 1420.31 246.15 1
-1 6 9 10488.4 697.98 1
-1 6 10 735.748 250.21 1
-1 -6 11 9536.9 627.569 1
-1 6 11 9756.63 727.654 1
-1 -6 12 633.727 178.338 1
-1 -7 -10 13929.2 898.439 6
-1 -7 -9 4973.82 510.279 6
-1 -7 -8 15277.7 925.981 6
-1 7 -8 16987.9 781.423 4
-1 7 -7 2562.58 268.534 4
-1 -7 -7 2371.21 349.373 6
-1 -7 -6 19048.2 1028.66 6
-1 7 -6 22564.3 903.502 4
-1 7 -5 2087.76 244.465 4
-1 -7 -5 2141.42 328.712 6
-1 7 -4 29074 1074.88 4
-1 7 -3 2996.37 274.621 4
-1 7 -2 33463.7 1189.28 4
-1 -7 -2 31262.8 1199.92 5
-1 7 -1 4028.77 346.102 4
-1 -7 -1 4508.5 374.594 5
-1 -7 0 21036.9 993.204 3
-1 -7 0 19987.5 913.748 5
-1 7 0 21831.7 903.386 4
-1 -7 1 876.375 199.521 5
-1 -7 1 923.492 211.444 3
-1 7 1 1342.66 215.618 4
-1 7 1 1114.43 191.555 1
-1 7 2 12646.9 669.615 4
-1 -7 2 13790.4 724.19 3
-1 7 2 13026.4 668.762 1
-1 -7 2 11717.7 689.5 5
-1 -7 3 1340.87 218.598 3
-1 7 3 1357.46 236.657 1
-1 -7 3 1736.39 269.788 5
-1 7 4 28098.5 1165.9 1
-1 -7 4 29334.9 1223.39 5
-1 -7 4 31152.9 1172.15 3
-1 7 5 4125.64 390.382 1
-1 -7 5 4923.87 374.705 3
-1 7 6 20531.4 995.377 1
-1 -7 6 23233.5 906.875 3
-1 7 7 2212.35 326.821 1
-1 7 8 15653.4 891.405 1
-1 7 9 954.802 251.449 1
-1 7 10 15756.2 963.181 1
-1 -7 11 1764.17 252.645 1
-1 -8 -9 4717.03 539.18 6
-1 -8 -8 4056.75 481.39 6
-1 -8 -7 3517.61 463.265 6
-1 -8 -6 1875.48 328.944 6
-1 8 -6 2312.07 268.825 4
-1 -8 -5 3516.19 438.431 6
-1 8 -5 3910.27 356.015 4
-1 8 -4 2099.6 258.875 4
-1 8 -3 2496.19 278.704 4
-1 8 -2 4176.43 363.499 4
-1 -8 -1 7610.64 536.753 5
-1 8 -1 6614.65 472.814 4
-1 -8 0 6047.29 487.254 5
-1 8 0 5607.47 443.799 4
-1 -8 1 6329.06 502.746 5
-1 8 1 6471.15 476.808 4
-1 -8 1 6028.93 516.096 3
-1 -8 2 4631 441.094 5
-1 8 2 5151.94 429.482 1
-1 8 2 4587.88 415.858 4
-1 -8 2 5122.72 459.698 3
-1 -8 3 5660.26 491.1 5
-1 8 3 5590.21 467.567 4
-1 8 3 5703 466.106 1
-1 -8 3 6034.61 493.015 3
-1 -8 4 6279.7 488.843 3
-1 8 4 5812.28 484.514 1
-1 8 5 3338.59 378.069 1
-1 -8 5 3719.92 362.847 3
-1 8 6 2155.19 331.517 1
-1 8 7 1349.46 274.452 1
-1 8 8 1513.9 275.104 1
-1 8 9 4879.93 510.551 1
-1 -9 -7 10047.4 796.139 6
-1 -9 -6 490.526 234.083 6
-1 -9 -5 16619.6 1029.8 6
-1 9 -5 16295.4 813.695 4
-1 -9 -4 1629.25 337.355 6
-1 9 -4 1851.03 255.355 4
-1 9 -3 26220.8 1101.06 4
-1 9 -2 765.239 176.544 4
-1 9 -1 24119.4 1066.57 4
-1 9 0 841.772 198.717 4
-1 9 1 14110 791.775 4
-1 9 2 1530.71 247.229 4
-1 9 3 22138.7 1071.87 1
-1 9 3 22177 1077.87 4
-1 9 4 1649.92 297.503 1
-1 9 4 1732.08 300.888 4
-1 9 5 25987.9 1225.79 1
-1 9 6 226.645 144.052 1
-1 9 7 10816.7 778.935 1
-1 9 8 1497.72 327.01 1
-1 -10 -4 4535.73 558.918 6
-1 10 -3 185.946 94.0485 4
-1 10 -2 4419.33 422.565 4
-1 10 -1 178.371 155.512 4
-1 10 0 4861.62 454.204 4
-1 10 1 621.426 208.624 4
-1 10 2 4729.33 470.708 4
-1 10 3 261.378 137.944 4
-1 10 4 7342.87 629.935 4
-1 10 4 8821.93 680.496 1
-1 10 5 285.747 187.169 1
-1 10 5 92.3448 153.116 4
-1 10 6 5845.56 583.176 1
-1 10 6 6508.02 602.904 4
-1 11 -1 5219.44 499.183 4
-1 11 0 3828.55 428.443 4
-1 11 1 5742.04 544.948 4
-1 11 2 6467.42 582.467 4
0 0 -10 23939.3 795.942 6
0 0 -9 -60.7821 49.5723 6
0 0 -8 67813.4 1880.73 6
0 0 -7 49.2297 60.9557 6
0 0 -6 30809.4 919.836 6
0 0 -5 27.4253 50.1906 6
0 0 -4 1415.67 105.048 6
0 0 -3 0.17519 39.6233 6
0 0 -3 -12.4314 57.2461 4
0 0 -3 27.0394 43.7428 1
0 0 -3 31.5855 25.1101 5
0 0 -2 193288 4843.66 6
0 0 -2 200617 4874.3 1
0 0 -2 185160 4867.05 4
0 0 -1 22.8403 13.4117 4
0 0 1 -2.20226 10.6064 1
0 0 2 188727 4863.44 4
0 0 2 190891 4840.81 6
0 0 2 199703 4869.41 1
0 0 3 62.1465 71.1307 1
0 0 3 1.48993 33.7916 6
0 0 3 -0.24796 33.7138 4
0 0 4 1327.44 114.723 4
0 0 4 1395.43 134.474 1
0 0 4 1397.9 99.5237 6
0 0 5 -3.92293 34.0462 6
0 0 5 -2.69439 34.2918 4
0 0 5 104.467 76.1194 1
0 0 6 30291.1 986.636 1
0 0 7 103.976 72.6732 3
0 0 7 124.112 111.702 1
0 0 8 62711.4 1897.07 1
0 0 9 36.3095 96.0566 1
0 0 10 20610.4 889.116 1
0 0 11 33.2162 116.994 1
0 0 12 7727.04 552.732 1
0 0 13 46.9943 116.813 1
0 0 14 12959.4 827.256 1
0 -1 -10 2177.32 197.964 6
0 1 -10 2150.05 154.335 6
0 -1 -9 10123.4 456.865 6
0 1 -9 9691.81 388.293 6
0 -1 -8 1632.66 158.594 6
0 1 -8 1506.6 131.285 6
0 1 -7 23643.2 728.655 6
0 -1 -7 23671.9 794.251 6
0 1 -7 22480.2 835.534 4
0 -1 -6 18806.8 663.798 6
0 1 -6 18649.3 694.926 4
0 1 -6 20013.9 609.7 6
0 1 -5 47828.8 1399.96 4
0 -1 -5 48686.9 1381.31 6
0 1 -5 48227.5 1313.79 6
0 -1 -4 30145.7 798.813 6
0 1 -4 27764.2 788.102 4
0 1 -4 28209.4 728.947 6
0 -1 -3 12819.8 401.547 6
0 1 -3 13266.7 385.13 5
0 1 -3 12241.2 380.206 4
0 1 -3 11410.8 335.531 6
0 1 -2 1886.14 116.173 5
0 1 -2 1862.74 110.872 4
0 1 -1 12276.9 349.635 3
0 1 -1 12861.5 358.681 4
0 -1 -1 12833.4 407.104 3
0 1 0 4491.59 156.074 1
0 -1 0 4335.24 157.082 5
0 1 0 4429.55 157.891 2
0 1 0 2728.3 147.613 3
0 -1 0 4082.48 152.969 1
0 -1 0 4419.06 167.276 3
0 -1 0 3813.27 150.565 2
0 -1 1 11599.7 368.717 4
0 -1 1 12626.9 379.841 5
0 1 1 12475.3 380.865 1
0 -1 1 12368.1 360.057 3
0 -1 2 2020.15 122.054 5
0 -1 2 2203.37 103.982 3
0 1 2 1824.53 132.39 1
0 -1 2 1825.19 110.083 4
0 1 2 2024 145.528 3
0 -1 2 1831.76 97.3309 6
0 -1 3 14638.3 459.992 5
0 1 3 14485.1 490.76 1
0 1 3 14827.9 532.561 3
0 -1 3 14578 464.3 4
0 -1 3 13219.8 426.863 6
0 -1 4 28567.5 826.618 6
0 -1 4 28836.1 870.813 1
0 -1 4 29534.6 854.577 5
0 -1 4 31248.6 887.694 4
0 1 4 30478 915.139 1
0 1 4 28854.1 901.439 4
0 1 4 28373.4 953.5 3
0 -1 5 48623.8 1424.43 1
0 -1 5 50263.6 1440.41 4
0 -1 5 48631.2 1362.44 6
0 1 5 51836.7 1479.73 1
0 1 5 53843.9 1543.87 3
0 -1 6 18014 586.364 6
0 1 6 18744.9 704.949 1
0 1 6 18832 747.587 3
0 -1 6 18549 662.545 1
0 -1 7 24487.1 772.889 6
0 1 7 26299.1 928.85 1
0 -1 7 24809.6 870.173 1
0 -1 8 1632.78 140.275 6
0 -1 8 1720.67 207.259 1
0 1 8 1783.4 241.259 1
0 1 9 10036.5 559.002 1
0 -1 9 9823.47 522.298 1
0 -1 10 2454.68 262.89 1
0 1 10 2365.87 273.184 1
0 1 11 5007.09 433.6 1
0 -1 11 4757.13 393.224 1
0 1 12 2794.72 326.618 1
0 -1 12 2883.06 327.342 1
0 1 13 10506.3 709.719 1
0 -1 13 10242.7 673.842 1
0 -1 14 2860.3 371.681 1
0 1 14 2422.03 354.784 1
0 -2 -10 16801.7 706.88 6
0 -2 -9 47967.2 1464.33 6
0 2 -9 42670.1 1486.91 4
0 2 -8 28077.7 1034.4 4
0 -2 -8 30147.4 1015.85 6
0 -2 -7 85654.4 2382.84 6
0 2 -7 81943.7 2380.29 4
0 2 -6 11538.2 497.483 4
0 -2 -6 12393.3 522.07 6
0 -2 -5 17427.6 646.664 6
0 2 -5 16885.6 611.119 4
0 2 -4 3522.69 205.861 4
0 -2 -4 3225.56 133.292 5
0 -2 -3 313.842 104.049 3
0 2 -3 401.607 61.8013 3
0 -2 -3 267.328 51.5262 5
0 2 -3 308.084 74.224 4
0 2 -2 9101.7 327.087 3
0 -2 -2 9015.68 311.031 5
0 2 -2 8825.85 334.631 4
0 -2 -2 8898.23 408.564 3
0 2 -2 8955.8 285.747 2
0 -2 -2 8967.4 352.011 1
0 -2 -1 92760.8 2473.65 5
0 2 -1 93331 2490.45 4
0 2 -1 94737.4 2451.93 2
0 -2 -1 100396 2570.54 3
0 -2 -1 99364.7 2502.01 1
0 2 -1 93184.5 2491.84 3
0 -2 0 75078.6 2100.4 2
0 2 0 80512.2 2103.67 2
0 2 0 76622.3 2096.48 1
0 -2 0 81888.5 2097.48 1
0 -2 0 82866.5 2108.31 5
0 -2 0 78296.9 2130.57 3
0 2 0 82256.2 2137.93 3
0 -2 1 94742.8 2531.49 3
0 -2 1 95734.1 2543.98 5
0 2 1 99326.2 2594.83 2
0 -2 1 100646 2530.33 1
0 -2 1 93030.4 2486.63 2
0 -2 1 101581 2531.49 4
0 2 1 94425.7 2539.35 1
0 -2 2 8877.04 360.824 5
0 -2 2 9449.94 341.965 4
0 -2 2 8723.08 286.64 2
0 2 2 9079.14 362.273 1
0 -2 2 8981.94 324.84 3
0 -2 3 281.9 88.1308 5
0 2 3 360.28 95.8077 1
0 2 3 264.172 82.1768 3
0 -2 3 248.409 51.1208 6
0 -2 3 188.79 57.1761 3
0 -2 3 237.311 55.7448 4
0 -2 3 239.363 46.8878 2
0 -2 4 3498.96 184.045 3
0 2 4 3954.93 255.636 1
0 -2 4 3857.47 227.074 5
0 -2 4 3732.28 213.842 4
0 2 4 4415.35 297.547 3
0 -2 4 3698.51 178.174 2
0 -2 4 3934.86 190.392 6
0 -2 5 19335 608.005 6
0 -2 5 18199.8 599.391 2
0 2 5 18252.2 704.22 1
0 -2 5 19933.5 663.691 4
0 -2 5 18404.1 598.683 3
0 -2 5 19201.7 655.952 5
0 -2 6 11865.8 432.33 3
0 -2 6 11697.7 426.971 6
0 2 6 12135.9 550.52 1
0 -2 6 11216.3 471.266 1
0 -2 6 10907.7 463.63 5
0 -2 7 80439.2 2337.14 1
0 -2 7 82018.8 2244.75 6
0 -2 7 85704 2269.84 3
0 2 7 85836.4 2447.75 1
0 -2 8 27505.1 858.444 6
0 -2 8 28550 891.44 3
0 2 8 27223.9 1054.99 1
0 -2 8 26737.8 967.544 1
0 -2 9 46792.1 1364.66 3
0 2 9 44555.9 1565.63 1
0 -2 9 43973.8 1472.7 1
0 -2 10 16585 632.781 3
0 2 10 15707.6 804.326 1
0 -2 10 16232.2 743.289 1
0 2 11 12586.7 735.578 1
0 -2 11 12553.6 663.947 1
0 2 12 4095.24 423.65 1
0 -2 12 3506.7 344.836 1
0 2 13 7865.39 621.803 1
0 -2 13 8368.42 599.27 1
0 -2 14 2653.6 342.963 1
0 -3 -11 568.523 145.964 6
0 -3 -10 4754.48 356.074 6
0 3 -10 4956.12 384.449 4
0 -3 -9 1463.89 210.697 6
0 3 -9 1634.9 214.197 4
0 -3 -8 8112.72 472.681 6
0 3 -8 8495.93 468.065 4
0 -3 -7 1508 197.9 6
0 3 -7 1687.47 185.605 4
0 -3 -6 18039.8 744.992 6
0 3 -6 18743.7 700.641 4
0 -3 -5 991.428 84.7997 5
0 3 -5 1035.23 133.684 4
0 3 -4 33954.6 970.135 3
0 3 -4 30218.5 993.63 4
0 -3 -4 31933.8 922.762 5
0 3 -3 46070.5 658.613 3
0 -3 -3 44879.4 917.822 3
0 -3 -3 44597.8 590.571 5
0 3 -3 45890.6 684.922 4
0 3 -3 41397.1 453.197 2
0 3 -2 35316.4 1069.14 4
0 3 -2 36009.4 1064.25 3
0 -3 -2 37302 1097.48 1
0 3 -2 34865.2 1001.08 2
0 -3 -2 35891.2 1047.69 5
0 -3 -2 36317.8 1185.65 3
0 -3 -1 71901.6 1950.94 5
0 3 -1 70210.1 1910.08 2
0 3 -1 67532.8 1953.09 4
0 -3 -1 72530.1 2048.08 3
0 -3 -1 71218.4 1959.68 1
0 3 -1 75932.1 1984.15 3
0 -3 0 51074.9 1511.29 5
0 -3 0 55204.8 1505.19 1
0 3 0 52799.9 1514.57 1
0 3 0 56155.1 1522.04 2
0 3 0 52616.8 1513.36 4
0 -3 0 50882.9 1551.72 3
0 3 0 55300.2 1564.48 3
0 -3 1 70264.3 1856.91 5
0 -3 1 66321.7 1784.43 2
0 3 1 69200.7 1891.01 2
0 3 1 68595.1 1840.17 1
0 -3 1 69619.5 1851.04 3
0 3 2 38124.1 1202.66 2
0 -3 2 35241.3 1015.8 2
0 -3 2 38976.2 1099.48 4
0 3 2 36107.5 1118.83 1
0 -3 2 37378.6 1126.02 5
0 -3 2 34741.4 1080.23 3
0 -3 3 42118.8 1270.85 6
0 -3 3 41788.9 1188.87 2
0 -3 3 45940.7 1327.93 5
0 -3 3 48197.2 1310.93 4
0 3 3 44319.8 1330.2 1
0 -3 3 43965.7 1264.96 3
0 -3 4 32011.8 1046.16 5
0 -3 4 33609.3 1003.03 6
0 -3 4 34780.5 1040.63 4
0 -3 4 32075.8 923.36 2
0 3 4 31705.5 1069.9 1
0 -3 4 32912.6 984.04 3
0 -3 5 934.573 139.209 5
0 3 5 1101.67 176.379 1
0 -3 5 929.359 107.959 3
0 -3 5 961.13 95.3564 2
0 -3 5 958.965 106.096 6
0 3 6 18319 760.264 1
0 -3 6 19329.5 648.677 6
0 -3 6 18340 707.416 5
0 -3 6 18077.5 626 3
0 -3 6 18706.3 615.652 2
0 -3 7 1599.1 143.736 3
0 -3 7 1607.99 148.251 6
0 3 7 1398.46 214.009 1
0 -3 7 1590.49 144.483 2
0 -3 7 1498.23 170.617 5
0 -3 8 10012.6 417.788 3
0 -3 8 10184.3 425.353 6
0 3 8 9847.66 571.528 1
0 -3 8 10161.9 495.441 1
0 -3 8 10074.6 435.181 2
0 -3 9 1318.14 141.172 3
0 -3 9 1569.14 167.187 2
0 -3 9 1387.03 193.845 1
0 3 9 1165.48 232.525 1
0 3 10 5424.05 457.389 1
0 -3 10 5570.14 335.184 2
0 -3 10 4706.2 372.285 1
0 -3 11 588.443 140.967 1
0 3 11 683.553 204.008 1
0 3 12 8929.53 660.878 1
0 -3 12 8723.58 574.339 1
0 -3 13 803.923 206.298 1
0 3 13 871.578 279.253 1
0 -3 14 8995.34 657.898 1
0 -4 -11 12701.3 683.617 6
0 4 -11 13061.4 709.893 4
0 -4 -10 183.861 127.066 6
0 4 -10 177.994 102.962 4
0 4 -9 26200.7 1026.96 4
0 -4 -9 25934.3 1062.38 6
0 -4 -8 4550.55 375.979 6
0 4 -8 4370.7 327.068 4
0 4 -7 21326.5 836.595 4
0 -4 -7 22066.7 913.083 6
0 -4 -6 13209.3 660.17 6
0 -4 -6 13597.7 462.695 5
0 4 -6 12957.7 581.324 4
0 -4 -5 19425.7 645.062 5
0 4 -5 19448.4 733.908 4
0 4 -4 17055 612.758 3
0 -4 -4 15744.6 749.121 3
0 4 -4 15834.6 620.167 4
0 -4 -4 15547.5 568.54 5
0 4 -3 49786.6 1441.14 3
0 4 -3 48565.8 1443.61 4
0 -4 -3 48499.3 1600.38 3
0 4 -3 47458.7 1325.89 2
0 -4 -3 47647.8 1408.69 5
0 -4 -2 21759.7 753.364 5
0 4 -2 20833.6 759.136 4
0 4 -2 21496.5 691.789 2
0 -4 -2 22377.7 884.147 3
0 4 -2 22791.5 780.882 3
0 -4 -1 131649 3526.15 5
0 4 -1 133215 3533.97 4
0 -4 -1 131296 3637.02 3
0 4 -1 129493 3470.28 2
0 -4 -1 132230 3526.41 1
0 4 -1 133167 3565.27 3
0 4 0 31789.5 861.503 2
0 4 0 29282 854.772 1
0 4 0 30430.5 864.875 4
0 -4 0 31653.8 847.247 1
0 -4 0 29885.9 920.027 3
0 -4 0 32358.1 885.511 5
0 -4 1 130377 3575.53 3
0 -4 1 135350 3572.26 5
0 4 1 127716 3547.71 1
0 -4 1 130014 3502.52 2
0 4 1 137374 3607.78 2
0 -4 1 133067 3524.84 1
0 -4 2 20653.1 702.742 2
0 4 2 20450.6 785.529 1
0 -4 2 23879.6 782.088 4
0 -4 2 22484 808.888 5
0 -4 2 21606.2 780.875 3
0 -4 2 23110.5 775.176 1
0 -4 3 51136.9 1550.75 5
0 4 3 48892.3 1545.31 1
0 -4 3 49688.9 1496.67 3
0 -4 3 50971.1 1394.59 2
0 -4 4 14749.6 626.722 5
0 -4 4 14342.1 478.929 2
0 4 4 14134.6 633.26 1
0 -4 4 14820.4 570.077 3
0 -4 5 20715 793.034 5
0 -4 5 19505.5 615.318 2
0 4 5 18754.6 794.749 1
0 -4 5 20026.8 706.208 3
0 -4 6 11630.2 575.374 5
0 -4 6 12704.3 444.662 2
0 4 6 12011.7 617.405 1
0 -4 6 13574.2 519.165 3
0 -4 7 21059.3 852.555 5
0 -4 7 21713.4 698.754 2
0 4 7 20254.4 902.459 1
0 -4 7 22330.7 752.283 3
0 -4 8 4672.26 253.834 2
0 4 8 4448.17 400.986 1
0 -4 8 4270.44 263.396 3
0 -4 9 24263.8 954.175 1
0 4 9 25306.5 1096.32 1
0 4 10 101.077 143.273 1
0 -4 10 189.242 86.4567 1
0 -4 11 12918 702.033 1
0 4 11 14250 840.221 1
0 4 12 2018.09 319.79 1
0 -4 12 2122.22 298.839 1
0 -4 13 7427.73 556.058 1
0 5 -12 1665.07 255.351 4
0 -5 -11 8787.31 591.472 6
0 5 -11 8758.37 581.327 4
0 -5 -10 8633.77 587.268 6
0 5 -10 8555.77 549.874 4
0 -5 -9 6986.77 507.114 6
0 5 -9 6110.56 435.972 4
0 -5 -8 9960.2 618.719 6
0 5 -8 11081.1 578.597 4
0 -5 -7 9559.52 591.568 6
0 5 -7 9662.53 522.142 4
0 5 -6 20033.4 807.765 4
0 -5 -6 20341.1 698.365 5
0 -5 -5 7770.23 378.841 5
0 5 -5 7515.05 428.943 4
0 5 -4 8624.19 448.142 4
0 -5 -4 8120.29 548.962 3
0 -5 -4 8093.7 405.054 5
0 -5 -3 6345.56 363.798 5
0 5 -3 6661.75 380.31 4
0 -5 -3 6247.52 483.27 3
0 5 -3 7121.85 308.863 2
0 -5 -2 15692.8 645.51 5
0 5 -2 16104.5 580.737 2
0 -5 -2 15424.4 757.375 3
0 5 -2 16194.8 663.92 4
0 5 -1 6732.5 358.304 2
0 5 -1 8402.86 435.772 4
0 -5 -1 6788.55 463.515 3
0 -5 -1 6827.8 398.221 5
0 -5 0 1783.72 247.539 3
0 5 0 2002.55 199.205 2
0 -5 0 2109.24 234.72 5
0 5 0 2050.6 227.132 1
0 5 0 1849.57 213.763 4
0 -5 1 8253.17 458.744 5
0 5 1 8327.93 457.547 1
0 -5 1 7928.42 470.678 3
0 -5 2 15155.8 661.12 5
0 5 2 14614.7 652.075 1
0 -5 2 14116.7 649.267 3
0 5 3 7448.21 446.846 1
0 -5 3 7334.05 339.166 2
0 -5 3 7295.77 420.975 3
0 -5 3 7472.59 449.489 5
0 -5 4 9488.17 515.805 5
0 -5 4 9525.63 367.807 2
0 5 4 8386.97 504.396 1
0 -5 4 8249.24 451.402 3
0 -5 5 7083.59 285.376 2
0 5 5 6563.18 453.302 1
0 -5 5 6364.97 426.353 5
0 -5 5 6576.25 383.77 3
0 -5 6 19592 858.618 5
0 -5 6 21498.7 645.16 2
0 5 6 20114.2 902.43 1
0 -5 6 21170.3 790.574 3
0 -5 7 8961.54 541.401 5
0 -5 7 9713.53 351.497 2
0 5 7 9623.12 596.495 1
0 -5 7 10484.3 473.339 3
0 5 8 10963.2 678.059 1
0 -5 8 11431.6 499.964 3
0 -5 9 7879.26 479.282 1
0 5 9 7027.45 551.628 1
0 -5 10 7667.52 498.341 1
0 5 10 8380.29 636.229 1
0 5 11 9842.46 720.042 1
0 -5 11 9224.69 590.612 1
0 5 12 1944.36 344.619 1
0 -5 12 1761.67 275.256 1
0 -6 -11 2865.88 362.699 6
0 6 -11 2747.74 324.452 4
0 -6 -10 15684.9 892.669 6
0 6 -10 16646.6 838.911 4
0 -6 -9 1512.46 275.835 6
0 6 -9 1966.05 256.321 4
0 -6 -8 23122.4 1097.78 6
0 6 -8 25832.5 1032.1 4
0 -6 -7 2630.97 345.264 6
0 6 -7 2488.04 278.5 4
0 -6 -6 36036.3 1163.35 5
0 6 -6 35168.6 1269.62 4
0 -6 -5 1418.44 179.828 5
0 6 -5 1235.68 202.283 4
0 -6 -4 42927 1357.58 5
0 6 -4 41757.1 1386.74 4
0 -6 -4 39538.6 1561.01 3
0 6 -4 40126.3 1177.47 2
0 -6 -3 1830.09 318.789 3
0 -6 -3 1877.14 223.751 5
0 6 -3 2130.09 244.262 4
0 6 -3 2417.67 180.358 2
0 -6 -2 34088.2 1211.48 5
0 6 -2 35553.4 1228.9 4
0 -6 -2 34461.5 1360.42 3
0 6 -2 35405.4 1118.4 2
0 -6 -1 1468.62 257.061 3
0 -6 -1 1363.25 212.36 5
0 6 -1 1284.67 207.722 4
0 6 0 11793 596.612 4
0 -6 0 12761.8 678.951 3
0 -6 0 10997.5 587.377 5
0 -6 1 959.914 207.481 3
0 6 1 1395.26 224.975 1
0 -6 1 1153.98 195.466 5
0 6 1 1449.97 231.225 4
0 -6 2 35402.2 1281.12 5
0 6 2 35581.3 1275.01 1
0 -6 2 35442.9 1301.64 3
0 -6 3 2071.19 263.189 5
0 -6 3 2276.86 263.671 3
0 6 3 2089.98 279.71 1
0 6 4 41874.4 1474.82 1
0 -6 4 42270.7 1483.72 5
0 -6 4 41479.4 1435.52 3
0 -6 5 1052.84 176.411 3
0 -6 5 1081.96 201.113 5
0 6 5 1118.74 209.022 1
0 -6 6 33835 1311.63 5
0 6 6 35059.6 1347.86 1
0 -6 6 35144.8 1218.36 3
0 -6 7 2190.61 283.545 5
0 -6 7 2225.43 232.207 3
0 6 7 2502.56 326.373 1
0 6 8 22556.6 1079.76 1
0 6 9 1457.13 284.964 1
0 -6 10 20163.4 905.427 1
0 6 10 16920.5 1003.44 1
0 -6 11 2887.9 334.328 1
0 6 11 2583.89 403.55 1
0 -7 -11 5884.71 557.92 6
0 -7 -10 1748.35 325.302 6
0 7 -10 2198.35 284.747 4
0 -7 -9 5558.7 530.992 6
0 7 -9 6632.35 495.856 4
0 -7 -8 72.5316 58.3201 6
0 7 -8 -147.69 107.934 4
0 7 -7 4970.15 401.038 4
0 -7 -7 4383.93 453.652 6
0 7 -6 1450.87 220.321 4
0 -7 -6 1780.91 206.507 5
0 7 -5 5213.44 396.256 4
0 -7 -5 5895.75 393.682 5
0 -7 -4 714.889 155.972 5
0 7 -4 963.668 190.504 4
0 -7 -3 19370.9 828.961 5
0 7 -3 18357.2 815.06 4
0 -7 -3 16610.9 936.739 3
0 -7 -2 10921.3 598.727 5
0 7 -2 10707.7 589.898 4
0 -7 -2 10116.9 690.172 3
0 -7 -1 22684.5 956.197 5
0 7 -1 21485.9 943.305 4
0 -7 -1 22599.8 1068.62 3
0 -7 0 1856.95 302.417 3
0 -7 0 1477.42 236.013 5
0 7 0 1909.78 261.137 4
0 7 1 21336.9 955.045 1
0 -7 1 25104.5 1078.13 3
0 7 1 22229.1 964.446 4
0 -7 1 22016.3 970.095 5
0 -7 2 12095.9 674.869 5
0 7 2 11428 657.38 1
0 -7 2 11942.5 691.681 3
0 7 2 10824.8 636.553 4
0 -7 3 17383.2 871.813 5
0 7 3 19172.2 890.851 1
0 -7 3 19510.4 910.345 3
0 -7 4 1101.03 213.374 3
0 -7 4 993.88 217.258 5
0 7 4 652.327 204.816 1
0 7 5 5583.39 466.446 1
0 -7 5 6233.57 445.734 3
0 -7 5 5312.52 447.911 5
0 -7 6 1337.19 228.314 3
0 -7 6 1181.05 217.068 5
0 7 6 1370.22 251.594 1
0 -7 7 4400.61 427.495 5
0 7 7 4868.6 466.697 1
0 7 8 67.7174 141.504 1
0 7 9 6058.58 555.351 1
0 7 10 1937.33 361.497 1
0 -8 -10 7455.82 655.732 6
0 -8 -9 2784.82 404.725 6
0 8 -9 3293.87 349.88 4
0 -8 -8 4302.6 504.253 6
0 8 -8 5426.77 450.535 4
0 -8 -7 6082.51 580.052 6
0 8 -7 7013.39 507.193 4
0 8 -6 7808.76 534.76 4
0 8 -5 19152 901.671 4
0 -8 -5 20694.7 893.546 5
0 -8 -4 17880.6 833.26 5
0 8 -4 16833.1 826.615 4
0 8 -3 23846.8 1034.99 4
0 -8 -3 24482.8 1231.87 3
0 -8 -3 25647.5 1061.75 5
0 -8 -2 15638.3 798.171 5
0 8 -2 15137.6 783.92 4
0 -8 -2 15742.9 932.076 3
0 -8 -1 7766.88 534.675 5
0 8 -1 7163.37 514.513 4
0 -8 -1 7463.55 626.937 3
0 -8 0 3886.47 455.111 3
0 8 0 3893.25 390.577 4
0 -8 0 3440.37 371.75 5
0 -8 1 6926.25 529.212 5
0 8 1 6998.14 522.462 4
0 -8 1 7689.06 593.126 3
0 8 2 15793.5 841.509 1
0 -8 2 16200.4 861.807 5
0 8 2 15667.6 841.656 4
0 -8 2 17131.3 910.199 3
0 -8 3 24253.7 1117.59 5
0 8 3 22313.9 1079.07 1
0 8 3 23538.2 1093.24 4
0 -8 4 18492.5 964.476 5
0 8 4 17812.4 940.212 1
0 -8 4 20604 979.532 3
0 -8 5 18651.9 975.434 5
0 8 5 17793.2 957.402 1
0 -8 6 8088.06 605.817 5
0 8 6 6817.11 576.472 1
0 -8 7 6071.42 551.698 5
0 8 7 6890.65 587.148 1
0 8 8 5074.79 520.248 1
0 8 9 3360.14 436.226 1
0 -9 -8 10137.5 801.131 6
0 -9 -7 1666.28 332.661 6
0 9 -7 1235.32 243.786 4
0 9 -6 5160.09 450.78 4
0 -9 -5 1066.7 197.897 5
0 9 -5 900.247 198.005 4
0 -9 -4 4592.77 425.385 5
0 9 -4 4166.29 404.483 4
0 9 -3 1860.76 275.869 4
0 -9 -3 1160.1 234.711 5
0 -9 -2 2962.68 426.393 3
0 -9 -2 3838.58 400.692 5
0 9 -2 3472.97 370.799 4
0 -9 -1 1067.62 221.663 5
0 -9 -1 1292.68 341.319 3
0 9 -1 1485.1 271.92 4
0 -9 0 1251.47 311.664 3
0 -9 0 1279.88 252.369 5
0 9 0 1157.6 241.086 4
0 -9 1 1242.04 281.581 3
0 -9 1 1806.15 278.113 5
0 9 1 1515.45 270.231 4
0 -9 2 3988.87 485.721 3
0 9 2 3839.69 410.043 4
0 -9 2 4087 442.085 5
0 -9 3 1177.46 293.512 3
0 -9 3 1297.08 289.259 5
0 9 3 1612.42 315.93 1
0 9 3 1316.54 256.365 4
0 -9 4 5246.23 509.157 5
0 9 4 4541.3 483.806 1
0 9 4 5751.51 532.813 4
0 -9 4 5158.65 503.916 3
0 -9 5 1329.43 257.68 5
0 9 5 825.707 237.881 1
0 9 5 1089.1 233.676 4
0 -9 6 5252.16 517.065 5
0 9 6 5469.71 550.685 1
0 9 7 1468.27 317.955 1
0 10 -5 20691.3 1024.11 4
0 10 -4 4364.4 438.728 4
0 -10 -3 25799.9 1202.48 5
0 10 -3 24763.9 1156.6 4
0 -10 -2 1081.56 248.512 5
0 10 -2 534.321 184.044 4
0 -10 -1 7376.19 599.957 5
0 10 -1 6854.95 568.985 4
0 -10 -1 6905.97 659.785 3
0 -10 0 228.357 208.253 3
0 -10 0 241.373 187.845 5
0 -10 1 7919.91 649.588 5
0 10 1 8128.47 640.021 4
0 -10 1 6888.5 648.026 3
0 -10 2 1271.92 309.999 3
0 -10 2 989.945 282.208 5
0 10 2 1198.67 287.324 4
0 -10 3 27048.1 1327.61 5
0 10 3 26300.3 1293.95 4
0 -10 3 25321.8 1293.03 3
0 10 4 4977.39 534.283 1
0 10 4 4571.37 506.757 4
0 -10 4 4166.14 470.228 5
0 10 5 19702 1155.18 1
0 10 5 22137.5 1182.03 4
0 11 -3 1909.86 300.715 4
0 11 -2 6223.96 544.313 4
0 -11 -1 3511.91 442.914 5
0 11 -1 3932.29 439.454 4
0 11 0 6411.28 588.376 4
0 11 1 4033.37 480.286 4
1 0 -9 15220.2 462.553 6
1 0 -8 -12.2066 28.9448 6
1 0 -8 66.2198 41.3648 5
1 0 -7 31681.8 955.329 5
1 0 -7 33315.1 897.038 6
1 0 -6 64.2717 29.6536 6
1 0 -6 2.16474 38.9548 5
1 0 -6 25.6568 84.2821 4
1 0 -5 18896.7 645.374 4
1 0 -5 17588.5 494.552 6
1 0 -4 -37.4554 71.5582 4
1 0 -3 10001.2 372.684 4
1 0 -3 10876.3 348.591 3
1 0 -2 20.1989 35.429 3
1 0 -2 11.4036 56.2443 2
1 0 -2 26.0379 38.1774 4
1 0 -1 27905.9 751.865 3
1 0 -1 27900.1 750.734 6
1 0 -1 26505.2 743.543 4
1 0 -1 29807.8 774.65 2
1 0 0 -3.17842 45.458 2
1 0 1 11265.8 393.123 6
1 0 1 12654.7 359.913 1
1 0 2 -1.73448 42.6183 6
1 0 2 57.4674 53.6723 1
1 0 3 68065.7 1812.93 6
1 0 3 64066.4 1775.16 1
1 0 3 67128.4 1766.39 4
1 0 4 -22.5591 50.5111 6
1 0 4 32.9875 37.3212 4
1 0 4 57.0467 63.7161 1
1 0 5 30684.2 980.102 6
1 0 5 30942.9 842.32 5
1 0 5 31443.9 959.496 4
1 0 5 31323.6 975.58 1
1 0 6 -9.44702 46.1942 6
1 0 6 74.2801 92.6113 1
1 0 7 8739.3 449.155 1
1 0 8 48.5439 123.057 1
1 0 9 5738.35 406.175 1
1 0 10 -151.065 117.094 1
1 0 11 19957.6 929.892 1
1 0 12 1.41722 124.287 1
1 0 13 11408 731.842 1
1 0 14 -93.094 186.921 1
1 -1 -10 25067.9 800.654 6
1 -1 -9 11912.5 446.523 6
1 1 -9 10850.6 574.377 4
1 -1 -8 40082.3 1166.74 6
1 -1 -8 39891.5 1076.68 5
1 1 -8 41900.8 1206.36 5
1 1 -8 37226.3 1309.32 4
1 -1 -7 25968.9 762.575 5
1 1 -7 27877.2 862.184 5
1 1 -7 26724.8 941.731 4
1 -1 -7 26366.5 814.409 6
1 -1 -6 37466.9 1098.82 6
1 1 -6 38484 1204.21 4
1 1 -6 39557.6 1144.75 5
1 1 -5 15445.8 540.968 5
1 1 -5 15022.1 562.798 4
1 1 -4 11344.7 315.879 5
1 1 -4 11056 325.553 4
1 -1 -4 10335.8 346.004 3
1 -1 -3 19325.3 579.638 1
1 -1 -3 17644.5 643.481 2
1 1 -3 17642.2 586.364 4
1 -1 -3 18014.5 609.472 3
1 -1 -2 119804 3211.04 2
1 1 -2 125258 3164.91 4
1 -1 -2 118240 3180.99 3
1 -1 -2 125435 3143.06 1
1 -1 -1 54826.6 1437.69 2
1 1 -1 53623.2 1403.01 4
1 -1 -1 52796.8 1357.64 1
1 1 -1 49964.7 1350.86 2
1 -1 -1 53004.6 1390.51 6
1 -1 -1 53336 1422.13 3
1 -1 0 140064 3579.94 3
1 1 0 140823 3565.79 1
1 1 0 136378 3555.9 4
1 -1 0 147723 3582.79 2
1 1 0 132789 3578.94 6
1 -1 1 38383.4 1064.37 3
1 -1 1 37293.2 974.135 4
1 1 1 37666 1053.76 1
1 -1 1 39014.2 1059.63 2
1 -1 1 38573.6 1056.43 6
1 -1 2 77522.8 1979.26 6
1 1 2 77477.8 2006.14 6
1 -1 2 71707.4 1895.85 4
1 -1 2 74429.9 1972.34 3
1 -1 2 72914.3 1894.07 1
1 -1 2 71375.7 1961.04 2
1 1 2 74210.4 1967.3 1
1 -1 3 18581.9 601.992 6
1 1 3 19657.4 612.837 1
1 1 3 18989.9 632.173 6
1 -1 3 18106.6 547.867 4
1 -1 3 16945.3 542.988 1
1 -1 3 16973.6 589.127 2
1 -1 4 29061.7 888.113 6
1 1 4 28683.5 906.486 1
1 1 4 29826.1 930.32 6
1 -1 4 28197.8 848.178 4
1 -1 4 28559 835.71 5
1 -1 4 27402.2 846.717 1
1 -1 5 20778.4 711.538 6
1 1 5 23622.5 776.693 6
1 1 5 20156.9 739.451 1
1 -1 5 20300.2 650.621 5
1 -1 5 20681.6 693.203 4
1 -1 5 21328.7 698.981 1
1 -1 6 31645.1 976.744 6
1 1 6 29508.9 1022.36 1
1 -1 6 28907.4 891.768 5
1 -1 6 31461.5 976.897 1
1 -1 7 13534.4 551.088 6
1 1 7 13642.6 619.165 1
1 -1 7 14034.7 574.775 1
1 -1 7 13172.5 473.864 5
1 -1 8 37816.4 1244.42 1
1 1 8 36888.7 1292.72 1
1 1 9 6382.67 436.259 1
1 -1 9 6083.15 404.162 1
1 1 10 20047.6 910.308 1
1 -1 10 20103.9 871.228 1
1 1 11 1851.43 275.799 1
1 -1 11 1877.16 248.906 1
1 1 12 15217.9 834.496 1
1 -1 12 14242.6 793.473 1
1 1 13 736.377 220.246 1
1 -1 13 537.993 189.677 1
1 -1 14 6485.91 547.329 1
1 -2 -10 7763.03 387.324 6
1 2 -10 6402.82 455.833 4
1 -2 -9 5761.42 320.681 6
1 2 -9 4758.07 366.701 4
1 2 -8 13268.6 631.681 4
1 -2 -8 15150.4 584.234 6
1 -2 -7 14993.5 577.961 6
1 2 -7 13935.9 607.99 4
1 2 -6 18036.6 694.037 4
1 2 -6 19144.5 689.044 5
1 2 -5 16008.4 593.319 5
1 2 -5 15580.5 596.458 4
1 -2 -5 14980.4 647.324 3
1 2 -4 21266.3 686.783 5
1 2 -4 20851.7 677.612 4
1 -2 -4 20643.1 746.116 3
1 2 -3 17187.1 507.724 3
1 -2 -3 18618 702.157 2
1 2 -3 18542 614.662 4
1 -2 -3 19575.3 605.969 1
1 2 -3 19392.8 637.721 5
1 -2 -3 18029.4 673.947 3
1 -2 -2 22227.6 720.975 2
1 2 -2 23924.8 668.741 4
1 -2 -2 22344.8 623.673 1
1 -2 -2 21476.8 703.246 3
1 2 -2 20957.3 597.714 3
1 -2 -1 10101.4 346.456 1
1 -2 -1 10143.3 421.274 2
1 2 -1 10294.7 401.027 4
1 2 -1 11666.4 406.381 3
1 -2 -1 10717.3 426.134 3
1 2 0 13574.3 448.939 5
1 -2 0 12493.7 454.142 2
1 2 0 11469 451.07 1
1 2 0 12335.7 451.219 4
1 2 0 13483.1 487.354 3
1 -2 0 12240.3 379.758 1
1 -2 0 12614.1 469.943 3
1 -2 1 6803.11 308.735 3
1 2 1 7188.07 276.975 5
1 -2 1 6601.91 233.723 1
1 2 1 7409.47 318.792 1
1 -2 1 6377.46 239.211 4
1 -2 1 6864.72 292.289 2
1 -2 1 6997.24 292.747 6
1 2 1 5788.13 315.53 3
1 -2 2 22637 747.066 3
1 2 2 23699.2 688.759 5
1 -2 2 23980.4 683.072 4
1 -2 2 23652.8 733.284 2
1 2 2 22576.6 761.641 1
1 -2 2 23952.1 741.695 6
1 -2 3 27563.5 853.131 3
1 -2 3 29607.2 857.236 6
1 2 3 27618.6 757.323 5
1 -2 3 30008.3 800.56 4
1 -2 3 29209.8 842.941 2
1 2 3 28485.3 888.807 1
1 -2 4 34895.7 1050.72 3
1 -2 4 33948.4 983.618 1
1 -2 4 35828.3 1055.04 6
1 -2 4 35712.8 1002.9 4
1 2 4 33663.4 1087.76 1
1 -2 4 33337.1 1027.95 2
1 -2 4 31812.8 1029.92 5
1 2 5 10311.7 479.914 1
1 -2 5 9974.72 427.189 3
1 -2 5 9304.7 407.531 5
1 -2 5 10090.1 401.408 4
1 -2 5 10418.6 432.664 6
1 -2 5 9507.76 415.919 2
1 -2 5 9066.43 382.152 1
1 2 6 8243.05 457.027 1
1 -2 6 8485.8 403.326 3
1 -2 6 9045.34 406.763 6
1 -2 6 8509.4 386.186 1
1 -2 6 7961.73 378.168 5
1 -2 6 8344.66 404.295 2
1 2 7 6296.46 415.112 1
1 -2 7 7180.48 381.221 3
1 -2 7 6842.85 341.36 5
1 -2 7 5917.15 345.382 1
1 -2 7 7216.93 385.266 2
1 2 8 3259.16 321.789 1
1 -2 8 3780.82 280.411 3
1 -2 8 3580.75 234.757 5
1 -2 8 3583.67 277.204 1
1 -2 8 3067.67 269.698 2
1 -2 9 888.014 146.68 1
1 2 9 407.944 156.137 1
1 -2 9 758.301 142.155 3
1 -2 9 727.036 154.279 2
1 2 10 7857.14 551.91 1
1 -2 10 8758.42 477.627 3
1 -2 10 7975.31 485.096 1
1 -2 10 8767.63 521.625 2
1 -2 11 2588.02 285.618 2
1 -2 11 2831.4 297.076 1
1 2 11 2364.5 323.85 1
1 2 12 8246.74 632.633 1
1 -2 12 8498.62 579.501 1
1 2 13 3130.89 403.678 1
1 -2 13 3831.12 402.579 1
1 3 -11 17529.3 862.697 4
1 -3 -10 805.826 151.946 6
1 3 -10 1012.4 202.686 4
1 -3 -9 37016.2 1242.46 6
1 3 -9 35905.8 1299.48 4
1 -3 -8 154.683 32.8695 5
1 3 -8 84.4799 93.5152 4
1 -3 -8 83.3556 106.389 6
1 3 -7 54207.6 1679.96 4
1 3 -6 4571.55 306.439 4
1 -3 -6 3868.17 350.594 3
1 3 -5 35802.3 1144.18 4
1 -3 -5 34580.1 1242.13 3
1 3 -4 1974.5 122.078 3
1 3 -4 1980.35 182.97 4
1 -3 -4 2049.73 237.884 3
1 -3 -3 40156.3 842.901 1
1 3 -3 40906.7 883.637 4
1 -3 -3 39792.7 1006.2 3
1 -3 -2 3712.16 272.544 2
1 -3 -2 3336.89 197.392 1
1 3 -2 3288.54 145.326 2
1 3 -2 3210.15 228.485 4
1 -3 -2 3204.32 275.61 3
1 3 -2 3573.81 205.851 3
1 -3 -1 97085.4 2522.44 1
1 3 -1 94585.5 2530.31 2
1 -3 -1 99854 2638.56 2
1 3 -1 98462.6 2600.39 4
1 3 -1 100119 2613.77 3
1 -3 -1 101147 2659.23 3
1 -3 0 370.007 103.706 2
1 3 0 155.853 77.5063 3
1 -3 0 216.901 99.4526 3
1 3 0 107.418 58.4095 5
1 3 0 198.123 119.625 1
1 3 0 213.169 103.586 4
1 -3 0 166.513 52.9388 1
1 3 1 94113.5 2413.96 5
1 -3 1 88787.1 2414.07 2
1 3 1 89350.2 2460 1
1 -3 1 89198 2345.86 1
1 -3 1 92368.1 2463.11 3
1 -3 2 11785.6 427.159 1
1 3 2 11864.5 441.85 5
1 -3 2 12267.8 467.16 2
1 -3 2 11834 434.285 4
1 3 2 11822.9 511.282 1
1 -3 2 12545.8 494.19 6
1 -3 2 14570.4 531.489 3
1 -3 3 49331.1 1415.71 6
1 -3 3 47132.7 1414.85 3
1 -3 3 48791.4 1366.37 4
1 -3 3 45711 1367.62 2
1 3 3 47342.4 1455.92 1
1 -3 3 48465.7 1430.64 5
1 3 4 730.489 166.09 1
1 -3 4 595.699 97.7907 6
1 -3 4 680.458 101.944 2
1 -3 4 619.177 114.427 3
1 -3 4 566.675 114.109 5
1 -3 4 673.995 90.5903 4
1 -3 5 37019.4 1189.2 3
1 -3 5 39540.4 1222.25 5
1 -3 5 38730.2 1161.19 4
1 -3 5 38416.1 1168.31 2
1 3 5 37678.7 1267.54 1
1 -3 6 658.131 131.738 3
1 3 6 481.52 172.604 1
1 -3 6 791.167 128.01 2
1 -3 6 698.831 127.59 5
1 -3 6 437.746 91.8009 1
1 -3 7 44982.4 1382.79 3
1 -3 7 43107.5 1385.6 5
1 -3 7 43135.8 1364.38 2
1 3 7 44161.6 1505.74 1
1 -3 7 44927 1356.81 1
1 3 8 604.971 164.21 1
1 -3 8 675.07 130.471 2
1 -3 8 795.73 128.373 5
1 -3 8 684.955 109.879 3
1 -3 8 873.736 140.197 1
1 -3 9 33783.2 1166.8 3
1 -3 9 35033.5 1202.74 1
1 -3 9 35462.9 1201.22 2
1 3 9 33727.6 1335.68 1
1 3 10 2327.45 318.527 1
1 -3 10 2385.28 252.131 2
1 -3 10 2542.1 262.031 1
1 -3 11 20558 911.683 1
1 3 11 20751.9 1036.7 1
1 -3 12 100.358 85.5372 1
1 3 12 -130.474 172.679 1
1 3 13 11684.6 802.961 1
1 4 -12 7812.01 584.032 4
1 -4 -11 463.528 142.139 6
1 4 -11 452.126 166.116 4
1 -4 -10 10806.2 589.593 6
1 4 -10 10245.3 613.137 4
1 4 -9 1302.46 205.465 4
1 -4 -9 1775.36 222.824 6
1 -4 -8 8508.71 510.147 6
1 -4 -8 8894.13 326.43 5
1 4 -8 8334.56 498.447 4
1 -4 -7 1525.9 127.191 5
1 4 -7 1595.33 214.001 4
1 4 -6 11066.6 537.801 4
1 -4 -6 10259 621.695 3
1 4 -5 3229.18 185.656 3
1 4 -5 2824.69 248.674 4
1 -4 -5 2696.12 304.235 3
1 4 -4 10804.5 430.308 3
1 4 -4 11605.2 518.389 4
1 -4 -4 11251.9 610.612 3
1 4 -3 17923.1 682.094 4
1 4 -3 17409.5 489.431 2
1 -4 -3 17263.1 775.502 3
1 4 -3 17157.4 622.357 3
1 -4 -2 13354.2 517.618 1
1 4 -2 12409.8 439.702 2
1 -4 -2 12572 607.271 2
1 4 -2 13394.1 568.571 4
1 -4 -2 13621.1 634.902 3
1 4 -2 13866.8 545.255 3
1 -4 -1 1712.88 205.937 2
1 -4 -1 1555.83 214.008 3
1 4 -1 1681.65 193.256 4
1 4 -1 1599.64 179.486 3
1 4 -1 1683.79 150.972 2
1 -4 -1 1404.3 139.942 1
1 -4 0 12341.7 543.947 2
1 4 0 13566.6 559.729 2
1 4 0 12689.2 564.392 1
1 4 0 12986.5 564.266 4
1 -4 0 13179.1 489.488 1
1 -4 0 13146.7 587.794 3
1 -4 1 7350.59 372.002 2
1 4 1 7260.51 413.807 1
1 -4 1 7669.96 333.861 1
1 4 1 8214.77 381.106 5
1 -4 1 7440.55 412.723 3
1 -4 2 14694 620.89 5
1 -4 2 15386.9 548.46 1
1 -4 2 15297.1 578.83 2
1 4 2 15492.7 649.709 1
1 -4 2 14774 624.699 3
1 -4 3 1949.42 215.129 5
1 -4 3 2132.85 172.59 1
1 -4 3 2166.88 182.885 2
1 -4 3 2335.03 182.389 4
1 4 3 2678.48 263.607 1
1 -4 3 1975.04 209.63 3
1 -4 4 12497.1 505.104 2
1 -4 4 13793.6 531.348 4
1 4 4 12574 609.232 1
1 -4 4 11723.3 562.79 5
1 -4 4 12938.4 565.825 3
1 -4 5 5203.99 349.166 5
1 -4 5 4964.18 284.968 2
1 4 5 4967.76 371.818 1
1 -4 5 4694.45 315.586 3
1 -4 6 10350.5 453.087 2
1 -4 6 9284.47 501.408 5
1 4 6 10459.3 577.403 1
1 -4 6 9647.71 477.803 3
1 -4 7 199.27 85.4438 5
1 4 7 335.851 152.033 1
1 -4 7 247.698 86.9139 1
1 -4 7 346.382 108.88 3
1 -4 7 294.583 107.938 2
1 -4 8 8346.53 439.49 1
1 -4 8 8436.46 435.515 2
1 4 8 8298.51 563.995 1
1 -4 8 8144.57 469.38 5
1 -4 8 7869.03 435.158 3
1 4 9 2084.42 284.54 1
1 -4 9 2217.73 228.171 5
1 -4 9 2695.82 238.901 2
1 -4 9 2450.63 247.899 1
1 -4 9 2661.1 238.816 3
1 -4 10 7517.9 477.084 1
1 4 10 7612.67 578.612 1
1 4 11 1144.72 256.542 1
1 -4 11 1542.45 228.428 1
1 4 12 10399.2 754.801 1
1 5 -13 3706.1 424.242 4
1 5 -12 5432.97 499.327 4
1 -5 -11 9356.25 593.538 6
1 5 -11 8767.86 606.946 4
1 -5 -10 5258.22 427.95 6
1 5 -10 5381.35 429.427 4
1 -5 -9 8717.98 562.858 6
1 5 -9 8692.43 542.313 4
1 -5 -8 22960.7 734.869 5
1 5 -8 20596.1 921.283 4
1 -5 -7 8125.37 374.921 5
1 5 -7 6423.85 439.046 4
1 -5 -6 29451.6 944.751 5
1 5 -6 26636.8 1037.35 4
1 -5 -6 25685 1167.58 3
1 5 -5 14666 553.683 3
1 5 -5 14098.3 641.113 4
1 -5 -5 13905.3 576.166 5
1 5 -4 37012.8 1165.41 3
1 -5 -4 36472.6 1182.88 5
1 5 -4 36043.9 1238.03 4
1 -5 -4 36423.4 1393.11 3
1 -5 -3 17262.1 664.595 5
1 5 -3 15683.2 677.263 4
1 5 -3 16777.7 506.412 2
1 -5 -3 16449.7 805.534 3
1 -5 -2 25171.5 893.339 5
1 5 -2 23809.2 774.135 2
1 5 -2 24122 917.339 4
1 -5 -2 24995.6 1021.23 3
1 -5 -1 21380.1 796.479 5
1 -5 -1 19560.6 829.847 2
1 5 -1 19236.3 726.012 2
1 5 -1 20076.2 806.16 4
1 -5 -1 20411.5 869.396 3
1 5 0 53341.7 1609.67 2
1 5 0 48174.6 1609.73 1
1 -5 0 52175.4 1606.02 5
1 5 0 50719.3 1613.86 4
1 -5 0 51675.2 1612.81 2
1 -5 0 49139.4 1648.48 3
1 -5 1 27782.5 977.2 2
1 5 1 27991.5 1035.89 1
1 -5 1 27498.2 1006.82 5
1 5 1 27890.5 1026.05 4
1 -5 1 28314.8 927.338 1
1 -5 1 27131 1042.86 3
1 -5 2 44885.1 1388.21 2
1 -5 2 43282.8 1441.56 5
1 5 2 43507.1 1466.34 1
1 -5 2 44754.1 1343.75 1
1 -5 2 43936.5 1464.57 3
1 -5 3 19964.1 827.089 5
1 -5 3 20705.2 745.666 2
1 5 3 19838.9 847.72 1
1 -5 3 19788.3 813.956 3
1 -5 4 28045.7 940.434 2
1 -5 4 27701.2 1057.3 5
1 5 4 29155 1089.32 1
1 -5 4 27627.9 1026.75 3
1 -5 5 6587.02 437.662 5
1 -5 5 6829.09 353.403 2
1 5 5 6138.19 452.281 1
1 -5 5 6868.83 417.907 3
1 -5 6 18741.6 821.13 5
1 -5 6 18511.4 689.252 2
1 5 6 17574.3 850.72 1
1 -5 6 18399.8 763.788 3
1 -5 7 8728.03 528.646 5
1 -5 7 8541.81 423.076 2
1 5 7 8416.85 574.459 1
1 -5 7 9275.24 484.339 3
1 -5 8 13322.8 597.829 1
1 -5 8 11910.4 649.505 5
1 5 8 11589.2 727.715 1
1 -5 8 12901.7 607.454 3
1 -5 9 8602.52 537.323 5
1 5 9 8186.61 618.337 1
1 -5 9 9462.27 516.12 1
1 -5 10 11075.8 599.295 1
1 5 10 10902.2 747.105 1
1 5 11 9259.89 725.302 1
1 6 -12 -52.0619 124.335 4
1 6 -11 8014.96 596.649 4
1 -6 -11 7564.07 579.823 6
1 -6 -10 964.083 230.038 6
1 6 -10 1521.49 247.118 4
1 6 -9 9452.63 598.998 4
1 -6 -9 10109 661.896 6
1 6 -8 1794.85 235.878 4
1 -6 -7 9743.14 466.784 5
1 6 -7 9304.72 568.636 4
1 -6 -6 7483.14 409.293 5
1 6 -6 6102.99 438.774 4
1 -6 -6 5830.8 535.358 3
1 -6 -5 14293.5 628.892 5
1 6 -5 13496.4 673.27 4
1 -6 -5 13640.3 805.604 3
1 -6 -4 1349.64 287.538 3
1 -6 -4 1553.97 198.719 5
1 6 -4 1594.95 219.848 4
1 -6 -3 14414.6 665.062 5
1 6 -3 15095.9 524.283 2
1 6 -3 15224.7 706.482 4
1 -6 -3 15718.1 835.296 3
1 -6 -2 3233.98 302.678 5
1 6 -2 3382.77 318.638 4
1 6 -2 3433.09 226.944 2
1 -6 -2 3286.39 368.388 3
1 -6 -1 8412.75 477.579 5
1 6 -1 8568.72 500.317 4
1 -6 -1 8475.42 557.267 3
1 -6 0 848.113 205.528 3
1 6 0 1107.36 205.473 4
1 -6 0 1194.62 207.135 5
1 -6 0 710.611 182.771 2
1 -6 1 13878.1 686.253 5
1 -6 1 14381.9 669.854 2
1 6 1 14519.2 716.83 1
1 6 1 15090.9 717.568 4
1 -6 1 13594.9 716.194 3
1 -6 2 1987.53 263.327 3
1 -6 2 2466.57 237.584 2
1 -6 2 2185.59 258.886 5
1 6 2 2005.79 274.683 1
1 -6 3 7304.58 492.424 5
1 -6 3 8060.94 427.218 2
1 6 3 7651.45 516.836 1
1 -6 3 7693.25 497.511 3
1 -6 4 2234.29 270.581 3
1 -6 4 2043.02 201.945 2
1 -6 4 2283.96 278.627 5
1 6 4 2222.68 295.038 1
1 -6 5 11164.5 631.744 5
1 -6 5 10499.6 488.321 2
1 6 5 10389.9 630.696 1
1 -6 5 11029.6 591.088 3
1 -6 6 3298.42 346.207 5
1 -6 6 3986.56 260.435 2
1 6 6 3498.63 376.849 1
1 -6 6 4377.14 355.747 3
1 -6 7 10044.7 624.51 5
1 6 7 10880.7 682.603 1
1 -6 7 10145.4 563.57 3
1 -6 8 888.848 155.089 1
1 6 8 642.193 220.41 1
1 -6 8 845.575 185.122 5
1 -6 9 11171.1 677.803 5
1 6 9 12810.7 803.684 1
1 6 10 128.671 233.724 1
1 6 11 3435.28 460.611 1
1 -7 -11 1839.69 314.664 6
1 7 -11 1402.65 247.514 4
1 -7 -10 14664.4 899.101 6
1 7 -10 15306.7 860.473 4
1 -7 -9 410.965 206.951 6
1 7 -9 873.803 207.033 4
1 7 -8 17385 870.308 4
1 -7 -7 3184.47 278.549 5
1 7 -7 2613.81 315.393 4
1 7 -6 21747.1 967.808 4
1 -7 -6 23376.2 905.806 5
1 -7 -5 3694.58 443.849 3
1 -7 -5 4193.25 340.396 5
1 7 -5 4472.24 376.813 4
1 -7 -4 30577.6 1145.58 5
1 7 -4 29845.6 1175.07 4
1 -7 -4 28961.2 1348.9 3
1 -7 -3 1533.84 310.025 3
1 -7 -3 1676 236.465 5
1 7 -3 1376.58 228.168 4
1 -7 -2 11785.5 635.862 5
1 7 -2 11660.6 650.015 4
1 -7 -2 11495.1 750.042 3
1 -7 -1 996.628 241.65 3
1 -7 -1 1048.16 199.237 5
1 7 -1 888.98 199.48 4
1 -7 0 22700 973.218 5
1 7 0 22417.2 987.596 4
1 -7 0 21725.7 1048.76 3
1 -7 1 3550.95 367.197 5
1 7 1 4193.02 400.262 1
1 7 1 4027.46 379.295 4
1 -7 1 4508.37 413.491 3
1 -7 2 30357.2 1245.45 5
1 7 2 31444.5 1282.68 1
1 7 2 31782.2 1280.52 4
1 -7 2 33066.8 1319.34 3
1 -7 2 34826.8 1217.95 2
1 -7 3 3009.59 334.402 3
1 -7 3 2980.75 280.249 2
1 7 3 2324.59 321.362 1
1 -7 3 3103.61 340.333 5
1 -7 4 23188.2 1075.81 5
1 7 4 23306 1101.12 1
1 -7 4 24371.1 1078.55 3
1 -7 5 1652.26 230.382 3
1 -7 5 1923.31 278.444 5
1 7 5 1614.02 274.318 1
1 -7 6 20565.4 995.115 5
1 7 6 19189.7 1004.37 1
1 -7 6 20983.3 935.645 3
1 -7 7 1703.9 269.583 5
1 7 7 2275.25 329.632 1
1 -7 8 15237.5 855.74 5
1 7 8 15232.2 912.764 1
1 -7 9 4006.32 415.973 5
1 7 9 4447.61 478.245 1
1 -8 -10 3589.57 443.668 6
1 8 -10 2584.9 367.099 4
1 -8 -9 4702.77 505.407 6
1 8 -9 4674.11 462.023 4
1 8 -8 1027.08 197.261 4
1 8 -7 1568.87 270.764 4
1 -8 -6 2286.79 273.532 5
1 8 -6 2532.37 300.72 4
1 -8 -5 3529.03 347.912 5
1 -8 -5 3511.75 458.355 3
1 8 -5 3132.75 348.768 4
1 -8 -4 6417.05 471.733 5
1 8 -4 5910.14 472.736 4
1 -8 -4 6578.97 612.809 3
1 -8 -3 5356.61 435.653 5
1 8 -3 5535.74 467.087 4
1 -8 -3 5822.65 556.459 3
1 -8 -2 5008 430.566 5
1 8 -2 4806.29 432.398 4
1 -8 -2 4894.54 526.188 3
1 -8 -1 5857.1 474.51 5
1 8 -1 6433.83 512.73 4
1 -8 -1 6449.4 581.846 3
1 -8 0 5726.19 471.527 5
1 8 0 5451.64 465.167 4
1 -8 0 6003.03 556.112 3
1 -8 1 6881.7 536.373 5
1 8 1 7578.07 560.635 4
1 -8 1 6867.36 583.065 3
1 -8 2 4418.72 441.217 5
1 8 2 4777.31 460.178 1
1 8 2 4082.39 420.826 4
1 -8 2 4147.32 454.643 3
1 -8 3 2893.51 367.258 3
1 -8 3 2401.12 323.174 5
1 8 3 2208.28 327.088 1
1 8 3 2685.18 353.786 4
1 -8 4 2314.22 318.269 3
1 8 4 1854.75 330.112 1
1 -8 4 2370.72 313.867 5
1 8 4 2492.45 333.338 4
1 -8 5 3187.31 368.077 3
1 -8 5 3168.85 374.044 5
1 8 5 3249.68 411.312 1
1 -8 6 1740.89 274.402 5
1 8 6 2113.42 338.371 1
1 -8 7 3595.07 421.777 5
1 8 7 3510.85 428.555 1
1 -8 8 4602.44 488.007 5
1 8 8 4825.9 520.826 1
1 9 -9 7070.24 577.254 4
1 -9 -8 1447.62 326.96 6
1 9 -8 1453.59 267.165 4
1 9 -7 11521 739.14 4
1 9 -6 269.537 108.162 4
1 -9 -5 27585.7 1176.76 5
1 9 -5 25197.2 1169.58 4
1 -9 -5 26693.4 1423.92 3
1 -9 -4 1398.53 353.454 3
1 -9 -4 1286.32 251.901 5
1 9 -4 1500.21 250.81 4
1 -9 -3 21868.5 1036.36 5
1 9 -3 21557.2 1038.1 4
1 -9 -3 21224.8 1209.6 3
1 -9 -2 1358.35 349.193 3
1 -9 -2 1118.44 224.784 5
1 9 -2 1470.01 265.417 4
1 -9 -1 14069.9 811.226 5
1 9 -1 13690.4 815.596 4
1 -9 -1 13570.2 910.754 3
1 -9 0 1500.72 316.102 3
1 -9 0 1557.76 286.301 5
1 9 0 1233.06 241.593 4
1 -9 1 23863.8 1155.71 5
1 9 1 24725.4 1188.66 4
1 -9 1 25520.9 1283.04 3
1 -9 2 831.225 246.59 3
1 -9 2 803.477 217.347 5
1 9 2 840.345 218.243 4
1 -9 3 25840.9 1233.7 5
1 9 3 25447.2 1232.7 4
1 9 3 25163.7 1230.49 1
1 -9 3 25347.8 1260.66 3
1 -9 4 1289.25 272.482 5
1 -9 4 1223.76 292.275 3
1 9 4 2029.78 330.384 1
1 9 4 2070.9 352.444 4
1 -9 5 18164.8 1019.96 5
1 9 5 17260.8 1014.49 1
1 9 5 17600.5 1016.21 4
1 -9 6 537.355 200.866 5
1 9 6 750.956 269.746 1
1 -9 7 10785.8 789.789 5
1 9 7 11099.9 827.028 1
1 10 -7 17.0367 65.2673 4
1 10 -6 6409.39 543.676 4
1 -10 -5 -126.25 98.417 5
1 10 -5 275.583 154.435 4
1 10 -4 8042.11 630.361 4
1 -10 -4 8521.14 627.73 5
1 -10 -4 8706.12 813.684 3
1 -10 -3 279.191 243.375 3
1 -10 -3 219.052 152.387 5
1 10 -3 143.077 115.766 4
1 -10 -2 5433.46 639.641 3
1 -10 -2 4647.98 466.677 5
1 10 -2 4729.89 482.467 4
1 -10 -1 1163.69 313.017 3
1 -10 -1 842.315 210.471 5
1 10 -1 524.955 206.55 4
1 -10 0 4486.59 556.94 3
1 -10 0 4177.95 480.755 5
1 10 0 5881.7 544.565 4
1 -10 1 54.4197 155.281 3
1 -10 1 56.0664 93.9461 5
1 -10 2 3327.6 481.926 3
1 -10 2 4301.02 475.233 5
1 -10 3 232.492 176.083 3
1 -10 3 -26.5732 83.4274 5
1 10 3 363.438 200.549 4
1 -10 4 5166.43 527.395 5
1 10 4 4637.45 527.225 1
1 10 4 5939.95 577.205 4
1 -11 -3 7262.55 626.35 5
1 -11 0 4141.83 549.86 3
1 -11 1 5573.03 662.675 3
1 -11 2 5925.38 649.117 3
2 0 -9 18.6331 40.7932 5
2 0 -8 16556 607.938 5
2 0 -8 15227.1 684.788 4
2 0 -7 23.4635 80.0653 4
2 0 -6 64143.3 1863.81 4
2 0 -5 75.2533 63.1427 3
2 0 -5 21.8093 22.6897 6
2 0 -5 -101.118 92.3302 4
2 0 -5 -30.024 87.679 2
2 0 -4 268214 6849.72 6
2 0 -4 286990 6969.44 4
2 0 -4 270587 6904.83 3
2 0 -4 274999 7004.6 2
2 0 -3 -25.8806 77.3701 2
2 0 -3 25.4565 44.6626 6
2 0 -3 -7.53212 61.6588 3
2 0 -3 11.8024 58.4781 4
2 0 -2 141642 3523.9 6
2 0 -2 134637 3524.34 3
2 0 -2 136737 3568.71 2
2 0 -2 134699 3506.38 4
2 0 -1 23.2063 48.3959 6
2 0 -1 -16.1128 93.4386 2
2 0 -1 -22.5685 76.527 3
2 0 -1 -2.04287 37.1341 4
2 0 0 55581.1 1308.03 4
2 0 0 56541.4 1421.24 2
2 0 1 6.95258 97.971 2
2 0 1 6.30593 45.9792 1
2 0 2 212644 5312.06 6
2 0 2 210188 5298.26 2
2 0 2 197340 5192.29 1
2 0 3 34.8425 54.1533 6
2 0 3 -8.70393 61.7235 1
2 0 4 71302.5 2436.07 1
2 0 4 121677 2503.17 4
2 0 5 11.5099 79.0209 1
2 0 5 41.1552 28.1583 4
2 0 6 18645.6 695.24 1
2 0 6 17882.6 551.927 5
2 0 7 4.84861 30.468 5
2 0 7 -14.3648 92.8871 1
2 0 8 4821.7 350.586 1
2 0 9 52.0389 96.8053 1
2 0 10 25531.2 1056.22 1
2 0 11 -109.981 128.772 1
2 0 12 17219.7 897.015 1
2 0 13 266.724 114.301 1
2 0 13 -90.2982 99.4815 2
2 1 -10 3650.84 347.847 4
2 -1 -9 21573.4 621.869 6
2 1 -9 21033 878.247 4
2 -1 -9 22485.5 709.275 5
2 -1 -9 19587.2 599.981 6
2 -1 -8 2916.73 157.738 6
2 1 -8 2581.74 263.725 4
2 1 -7 10966.2 445.366 4
2 -1 -7 10665.3 283.415 6
2 -1 -6 89.8577 39.4161 6
2 -1 -6 197.003 83.3336 3
2 1 -6 103.247 95.0244 4
2 -1 -5 17911.9 718.833 2
2 1 -5 18914.4 654.932 4
2 -1 -5 17809.9 648.205 3
2 -1 -5 16508.7 529.052 6
2 -1 -4 9513.08 453.579 2
2 1 -4 9402.39 365.236 2
2 1 -4 9770.35 407.524 4
2 -1 -4 9247.29 399.417 3
2 1 -4 9536.53 281.459 3
2 -1 -4 9359.96 333.622 6
2 1 -3 79042.8 2067.4 3
2 1 -3 80306.6 2099.42 6
2 -1 -3 81000.5 2135.76 4
2 1 -3 81037.2 2168.47 4
2 -1 -3 80983.3 2242.65 2
2 1 -3 78396 2124.11 2
2 -1 -3 80693.4 2180.6 3
2 -1 -3 82433.6 2121.28 6
2 1 -2 22604 665.294 6
2 -1 -2 20937.5 631.338 4
2 1 -2 21999.9 675.206 4
2 -1 -2 21848.9 736.552 2
2 1 -2 21116.2 660.395 2
2 -1 -2 22193.7 668.977 6
2 -1 -2 21610.3 703.685 3
2 -1 -1 8615.73 333.715 6
2 -1 -1 8293.78 355.284 3
2 1 -1 8552.5 337.858 6
2 1 -1 7980.56 315.416 4
2 -1 -1 8299.38 367.799 2
2 1 -1 7988.71 318.686 2
2 -1 0 10076.1 416.41 3
2 1 0 10193.9 406.649 6
2 1 0 10383.8 386.871 1
2 1 0 10184.8 371.89 4
2 -1 0 10904.5 435.508 2
2 1 0 10789.3 401.096 2
2 -1 1 15957.1 424.56 3
2 1 1 16035.2 365.837 1
2 -1 1 16578 431.185 2
2 -1 2 39828.8 1136.42 6
2 -1 2 35743.5 946.373 4
2 1 2 35070.8 1056.85 1
2 -1 2 38665.5 1112.44 2
2 1 2 31857.7 1100.66 6
2 -1 2 36034.4 963.735 1
2 -1 3 17087.3 623.383 6
2 1 3 16997.1 637.947 6
2 -1 3 15184.1 497.929 1
2 -1 3 15553 484.848 4
2 1 3 16132.1 574.913 1
2 -1 3 17071.6 617.479 2
2 -1 4 8828.27 354.316 1
2 -1 4 9182.41 339.739 4
2 1 4 9223.45 410.114 1
2 -1 4 8741.41 428.48 2
2 -1 5 21574.9 739.159 1
2 -1 5 22507.8 722.359 4
2 -1 5 22800 831.639 2
2 1 5 23060.5 807.343 1
2 -1 6 2162.02 190.451 1
2 -1 6 2064.14 159.294 5
2 -1 6 2019.86 222.226 2
2 1 6 1869.08 213.534 1
2 1 7 8893.61 482.684 1
2 -1 7 9000.66 365.525 5
2 -1 7 9253.02 451.906 1
2 -1 7 8488.99 491.833 2
2 -1 8 2137.04 217.147 1
2 -1 8 2089.5 154.708 5
2 1 8 2028.83 242.335 1
2 -1 8 1747.18 238.7 2
2 1 9 11061.4 612.97 1
2 -1 9 10918.8 573.937 1
2 -1 9 11661.1 654.314 2
2 -1 10 3408.16 329.198 1
2 -1 10 3004.14 347.641 2
2 1 10 3048.71 342.274 1
2 -1 11 8992.75 582.124 1
2 -1 11 9820.27 611.119 3
2 -1 11 11467.2 715.482 2
2 1 11 10067.8 647.019 1
2 1 12 2562.57 339.17 1
2 -1 12 2299.28 342.679 2
2 -1 12 2221.56 308.819 1
2 1 13 3411.92 398.953 1
2 2 -11 20951.2 967.405 4
2 2 -10 4165.14 372.132 4
2 -2 -10 4188.25 244.403 6
2 -2 -9 25545.7 821.756 6
2 2 -9 22414.4 957.327 4
2 -2 -8 16287 603.634 6
2 2 -8 15267.7 688.134 4
2 2 -7 33954.6 1156.23 4
2 -2 -7 33842.6 1193.53 3
2 2 -6 22366.3 813.044 4
2 -2 -6 21135.9 847.323 3
2 2 -5 78772.1 2193.12 4
2 -2 -5 77657.4 2321.44 2
2 -2 -5 75476.1 2237.3 3
2 -2 -4 40208 1034.12 1
2 2 -4 37628.3 916.138 2
2 -2 -4 37331.4 1179.06 2
2 -2 -4 35702.9 1103.9 3
2 2 -4 38346.3 1080.59 4
2 -2 -3 49339.9 1330.33 1
2 -2 -3 48923.7 1355.42 6
2 2 -3 48585.9 1390.38 4
2 -2 -3 49685.2 1490.76 2
2 2 -3 45428.8 1265.09 2
2 2 -3 47775.6 1296.04 3
2 -2 -3 45767.2 1428.35 3
2 -2 -2 3323.26 159.485 1
2 -2 -2 3063.42 259.724 2
2 2 -2 3158.24 218.662 4
2 2 -2 2975.32 156.32 2
2 -2 -2 3116.01 237.03 3
2 -2 -2 3714.49 206.161 6
2 -2 -1 1664.79 176.648 2
2 2 -1 1934.1 166.764 4
2 -2 -1 1814.79 90.8448 1
2 -2 -1 972.124 109.114 6
2 -2 -1 1745.37 180.886 3
2 -2 0 676.565 139.198 2
2 -2 0 630.375 133.388 3
2 2 0 689.556 121.15 1
2 2 0 751.043 120.523 4
2 -2 1 11828.5 479.638 3
2 2 1 12093.3 459.73 1
2 -2 1 12171 476.465 2
2 -2 2 30068.5 938.499 6
2 -2 2 29762.7 946.032 3
2 -2 2 27334.1 748.729 1
2 -2 2 27778.2 767.149 4
2 2 2 30301 928.121 1
2 -2 2 30031.9 936.824 2
2 -2 3 107856 2799.92 3
2 -2 3 99958.8 2606.6 4
2 -2 3 99344 2602.31 1
2 2 3 102660 2772.25 1
2 -2 3 101949 2768.04 2
2 -2 4 30357.1 1028.9 3
2 2 4 30326.9 876.577 5
2 -2 4 31292.1 894.613 4
2 -2 4 31661.1 899.629 1
2 2 4 31487.1 1039.97 1
2 -2 4 30785.2 1025.19 2
2 -2 5 56350.2 1714.26 3
2 2 5 57044 1475.04 5
2 -2 5 58662.4 1591.29 1
2 -2 5 52475.6 1572.28 4
2 2 5 60122.9 1738.88 1
2 -2 5 57550.3 1704.67 2
2 -2 6 22652 875.43 3
2 -2 6 24216.3 811.773 5
2 -2 6 22561.3 780.633 1
2 2 6 24591.1 912.014 1
2 -2 6 22813.9 872.131 2
2 -2 7 19464.8 800.479 3
2 -2 7 19495.2 709.382 5
2 -2 7 19410 721.698 1
2 -2 7 19438.6 801.066 2
2 2 7 19554.8 826.152 1
2 -2 8 4452.16 354.799 3
2 -2 8 4728.33 280.515 5
2 -2 8 4742.25 322.704 1
2 -2 8 4497.33 362.952 2
2 2 8 4395.37 376.423 1
2 -2 9 26721.8 1051.55 3
2 -2 9 26572.6 1003.47 1
2 -2 9 27760.1 1090.1 2
2 2 9 25805.7 1095.59 1
2 -2 10 8561.4 530.492 3
2 -2 10 8641.06 512.191 1
2 -2 10 8543.85 568.683 2
2 2 10 8213.47 566.309 1
2 -2 11 21003 948.67 1
2 -2 11 22537.9 1038.74 2
2 2 11 21008.5 1033.01 1
2 2 12 5199.21 502.9 1
2 2 13 6244.84 568.273 1
2 3 -12 10394.1 667.888 4
2 3 -11 1295.79 254.749 4
2 -3 -10 12338.8 554.394 6
2 3 -10 11232 647.701 4
2 -3 -9 410.231 119.414 6
2 3 -9 352.067 135.353 4
2 3 -8 8586.94 499.174 4
2 3 -7 4827.56 351.791 4
2 -3 -7 4447.96 384.463 3
2 3 -6 9002.66 469.604 4
2 -3 -6 8691.86 523.327 3
2 -3 -5 15822.5 769.462 2
2 3 -5 16118.5 663.979 4
2 -3 -5 16764.1 743.979 3
2 -3 -4 38874.6 1283.62 2
2 3 -4 37010.8 1139.32 4
2 -3 -4 35416.8 1210.89 3
2 3 -4 33299.8 966.479 3
2 3 -3 5606.69 322.481 4
2 -3 -3 5667.62 382.241 2
2 -3 -3 5538.77 265.119 1
2 3 -3 5146.2 187.466 2
2 3 -3 5400.49 262.167 3
2 -3 -3 5355.42 358.169 3
2 -3 -2 60142.4 1379.11 2
2 3 -2 55704.3 1261.91 4
2 -3 -2 59194.7 1116.57 1
2 -3 -2 58993.5 1351.89 3
2 3 -1 3940.97 257.271 5
2 -3 -1 3795.92 174.967 1
2 -3 -1 3738.45 284.416 2
2 3 -1 3947.79 271.593 4
2 3 -1 4461.69 279.811 3
2 -3 -1 3545.17 279.476 3
2 -3 0 31129 904.109 1
2 3 0 37152 1073.63 5
2 3 0 34821.5 1093.61 1
2 -3 0 33261.5 1093.4 2
2 3 0 33208.6 1067.16 4
2 3 0 34852.9 1134.35 3
2 -3 0 35454.6 1122.01 3
2 3 1 7371.07 337.928 5
2 3 1 6636.61 372.246 1
2 -3 1 6609.29 364.217 2
2 -3 1 6423.12 225.309 1
2 -3 1 6509.9 375.312 3
2 -3 2 22289.9 806.645 3
2 3 2 23461.5 736.31 5
2 -3 2 20891.8 622.878 1
2 3 2 22220.4 802.548 1
2 -3 2 21445 778.4 2
2 -3 3 1892.97 208.879 3
2 -3 3 1756.01 104.268 1
2 3 3 1784.79 140.285 5
2 -3 3 1846.84 126.26 4
2 -3 3 1808.77 191.702 2
2 3 3 1659.26 205.3 1
2 -3 4 16126.4 672.496 3
2 3 4 16099.8 535.567 5
2 3 4 16116.2 687.352 1
2 -3 4 16409.1 658.621 2
2 -3 4 16644.4 548.428 4
2 -3 4 15964.4 520.567 1
2 -3 5 13472.9 614.935 3
2 -3 5 15018.1 611.18 5
2 -3 5 13455.7 505.254 4
2 -3 5 13876.3 494.275 1
2 3 5 13999.8 648.119 1
2 -3 5 13604.2 595.201 2
2 -3 6 7154.86 424.637 3
2 -3 6 7092.14 401.457 5
2 -3 6 7426.23 345.853 1
2 -3 6 6743.53 406.93 2
2 3 6 7676.73 473.288 1
2 3 7 2047.5 282.736 1
2 -3 7 2185.79 216.548 5
2 -3 7 1693.49 215.476 3
2 -3 7 2086.3 179.784 1
2 -3 7 2246.59 241.133 2
2 -3 8 5386.96 388.241 3
2 -3 8 4884.2 334.038 5
2 -3 8 5076.79 324.344 1
2 -3 8 5335.91 379.903 2
2 3 8 5498.04 434.936 1
2 3 9 3088.75 361.06 1
2 -3 9 4288.15 354.748 3
2 -3 9 3406.96 274.427 5
2 -3 9 4066.41 304.879 1
2 -3 9 3738.61 329.138 2
2 -3 10 8170.72 519.802 3
2 -3 10 9114.07 522.976 1
2 -3 10 9409.7 566.635 2
2 3 10 8400.72 610.327 1
2 3 11 382.991 153.133 1
2 3 12 7300.42 627.773 1
2 4 -13 13128.3 824.251 4
2 4 -12 3132.34 375.728 4
2 4 -11 10371.2 664.027 4
2 4 -10 3501.88 358.698 4
2 -4 -10 4552.31 349.669 6
2 4 -9 10984.7 616.982 4
2 4 -8 4756.57 372.034 4
2 -4 -8 3599.51 379.71 3
2 4 -7 30579.5 1118.14 4
2 -4 -7 29090.1 1222.91 3
2 4 -6 5920.39 396.153 4
2 -4 -6 5889.9 477.843 3
2 4 -5 57179.2 1534.09 3
2 4 -5 56355 1748.17 4
2 -4 -5 55644.1 1882.22 3
2 -4 -4 11927.4 660.253 2
2 4 -4 12052.7 560.974 4
2 -4 -4 12248.1 640.252 3
2 4 -4 12146.3 461.077 3
2 -4 -3 61246.1 1906.85 2
2 4 -3 59726 1557.86 2
2 4 -3 59200.4 1781.3 4
2 -4 -3 58448.4 1876.28 3
2 4 -3 61192.1 1714.51 3
2 4 -3 57776.6 1536.27 2
2 -4 -2 23589.7 762.458 1
2 -4 -2 24366.5 943.098 2
2 4 -2 24292.3 879.025 4
2 4 -2 24617.1 874.057 3
2 -4 -2 22731 932.007 3
2 -4 -1 55188.3 1426.29 1
2 -4 -1 58740.4 1660.57 2
2 4 -1 59828.7 1610.59 4
2 -4 -1 59473.4 1674.48 3
2 -4 0 12729.2 442.234 1
2 4 0 12280.2 591.274 1
2 -4 0 12992.6 591.037 2
2 4 0 13460.5 587.749 4
2 -4 0 13247 619.067 3
2 4 1 74350 2177.28 1
2 -4 1 74945 2152.91 2
2 4 1 73667.7 2158.55 4
2 -4 1 72794.4 1953.56 1
2 -4 1 73349.9 2187.32 3
2 -4 2 18263.4 778.98 3
2 4 2 20602.1 714.176 5
2 4 2 19952.9 794.182 1
2 -4 2 20212.8 764.174 2
2 -4 2 18318.7 599.241 1
2 4 3 54241.4 1539.05 5
2 -4 3 51829.3 1467.15 1
2 4 3 52116.7 1673.47 1
2 -4 3 53764.7 1623.11 2
2 -4 3 52426 1665.66 3
2 -4 4 12275.4 595.282 3
2 -4 4 12170.5 476.417 4
2 4 4 12582.2 617.161 1
2 -4 4 12137.7 553.537 2
2 -4 5 27047.4 1025.68 3
2 -4 5 28427.3 866.792 1
2 -4 5 28085.1 1041.39 5
2 -4 5 28535.3 911.73 4
2 4 5 26751.8 1068.22 1
2 -4 5 28571.3 1008.7 2
2 -4 6 589.307 149.001 2
2 -4 6 312.837 77.3237 1
2 -4 6 348.761 132.996 3
2 -4 6 184.267 103.307 5
2 4 6 534.213 182.604 1
2 -4 7 12285.1 612.458 5
2 -4 7 12296 622.116 3
2 -4 7 12599.7 521.347 1
2 -4 7 12622.1 609.287 2
2 4 7 12349.3 686.444 1
2 -4 8 4614.38 372.188 3
2 -4 8 4546.51 355.347 5
2 -4 8 5259.33 327.512 1
2 -4 8 4912.44 371.732 2
2 4 8 4642.57 427.306 1
2 -4 9 10614.5 584.847 3
2 -4 9 11368 540.185 1
2 -4 9 10245.5 576.587 2
2 4 9 9911.81 665.857 1
2 -4 9 10806.4 577.908 5
2 4 10 4780.03 468.636 1
2 4 11 13883.7 869.028 1
2 4 12 2644.02 374.396 1
2 5 -13 3114.46 413.744 4
2 5 -12 7973.86 620.023 4
2 5 -11 5290.34 466.554 4
2 -5 -10 5985.04 454.729 6
2 5 -10 5698.46 478.562 4
2 5 -9 8002.01 537.647 4
2 5 -8 4659.72 392.406 4
2 -5 -8 3844.2 427.328 3
2 5 -7 8560.22 519.499 4
2 -5 -7 7468.46 585.116 3
2 5 -6 7506.39 297.011 3
2 5 -6 6558.06 450.95 4
2 -5 -6 7165.05 559.652 3
2 5 -5 7740.49 348.92 3
2 5 -5 7583.09 464.367 4
2 -5 -5 6766.49 530.374 3
2 -5 -4 12286.8 726.261 2
2 5 -4 13282.2 633.254 4
2 -5 -4 13729.8 740.295 3
2 5 -4 13274.2 544.488 3
2 -5 -3 3640.16 379.52 2
2 5 -3 3909.09 180.865 2
2 5 -3 3466.59 307.708 4
2 -5 -3 3772.92 364.841 3
2 -5 -2 18731.4 857.018 2
2 5 -2 19772.9 689.209 2
2 5 -2 19349 804.344 4
2 -5 -2 19283.5 880.057 3
2 -5 -1 2927.92 199.076 1
2 5 -1 2472.71 228.438 2
2 -5 -1 2685.11 285.351 2
2 5 -1 2525.98 270.18 4
2 -5 -1 2862.62 310.984 3
2 -5 0 5043.98 263.203 1
2 -5 0 4974.34 386.257 2
2 5 0 5150.25 372.494 4
2 -5 0 4947.73 393.059 3
2 5 1 8505.57 513.138 1
2 -5 1 8642.34 487.886 2
2 5 1 9135.29 509.434 4
2 -5 1 8334.73 361.703 1
2 -5 1 8742.68 525.209 3
2 5 2 16227.7 743.16 1
2 -5 2 15826.7 685.439 2
2 -5 2 15329.3 550.731 1
2 -5 2 15034 720.345 3
2 -5 3 10304 554.97 5
2 5 3 9842.92 567.718 1
2 -5 3 10023.3 520.267 2
2 -5 3 10206.3 416.458 1
2 -5 3 9674.71 558.094 3
2 -5 4 6237.41 426.43 5
2 -5 4 6436.86 319.635 1
2 5 4 6766.92 470.177 1
2 -5 4 5679.33 379.224 2
2 -5 4 6235.2 430.845 3
2 -5 5 7536.11 486.71 5
2 -5 5 8174.17 453.586 2
2 5 5 7752.18 523.843 1
2 -5 5 8075.17 498.036 3
2 -5 6 12639.3 505.604 1
2 -5 6 12039.8 648.024 5
2 -5 6 12389.2 587.176 2
2 5 6 11225.9 671.086 1
2 -5 6 11767.1 633.694 3
2 -5 7 9539.7 579.329 5
2 -5 7 9220.07 513.098 2
2 5 7 9806.81 638.859 1
2 -5 7 10784 472.885 1
2 -5 7 10770.8 588.531 3
2 -5 8 4733.02 396.242 5
2 -5 8 5154.47 366.036 2
2 5 8 4949.47 475.397 1
2 -5 8 4544.74 378.989 3
2 -5 9 6233.65 455.583 5
2 5 9 6315.44 546.288 1
2 5 10 3772.12 459.729 1
2 5 11 2238.16 374.435 1
2 6 -12 13426.4 841.558 4
2 6 -11 111.326 113.858 4
2 -6 -10 22004.9 1053.51 6
2 6 -10 20941.5 1032.08 4
2 6 -9 576.617 169.054 4
2 6 -8 27232.3 1149.01 4
2 -6 -8 28414 984.968 5
2 -6 -7 1105.07 265.947 3
2 -6 -7 1506.01 190.558 5
2 6 -7 1381.9 226.463 4
2 6 -6 37023.8 1354.1 4
2 -6 -6 35401.1 1524.38 3
2 6 -5 5563.03 422.466 4
2 -6 -5 5854.79 527.997 3
2 6 -4 18353.1 820.413 4
2 -6 -4 17440.5 932.797 3
2 -6 -3 1403.24 283.014 3
2 6 -3 1611.47 124.004 2
2 6 -3 1737.91 247.513 4
2 -6 -3 1280.33 271.391 2
2 -6 -2 22499.5 1034.42 2
2 6 -2 23805.4 830.034 2
2 6 -2 24142.5 983.009 4
2 -6 -2 23995.8 1082.38 3
2 -6 -1 1632.94 255.552 2
2 -6 -1 1605.05 288.268 3
2 6 -1 1587.33 241.388 4
2 -6 0 37360.9 1366.23 2
2 6 0 39486 1385.8 4
2 -6 0 35885.5 1412.2 3
2 -6 1 2483.31 315.633 3
2 6 1 2326.29 290.272 1
2 -6 1 2671.56 284.996 2
2 -6 1 2565.69 291.073 5
2 6 1 2477.45 307.891 4
2 6 2 30510 1220.91 1
2 -6 2 32343.8 1175.85 2
2 6 2 30924.8 1213.15 4
2 -6 2 30566.9 1184.86 5
2 -6 2 31892.7 1238.45 3
2 -6 3 1928.48 236.894 2
2 -6 3 2283.27 285.279 3
2 -6 3 1806.43 246.714 5
2 6 3 1927.75 290.914 1
2 -6 4 26328.3 1098.63 5
2 -6 4 26477.7 1015.55 2
2 6 4 26696.7 1135.64 1
2 -6 4 27678.2 1115.04 3
2 -6 5 3974.45 375.473 5
2 -6 5 4229.58 323.257 2
2 6 5 3466.67 375.88 1
2 -6 5 3522.57 348.872 3
2 -6 6 26723.2 1123.85 5
2 -6 6 24982.7 980.986 2
2 6 6 25336.3 1154.16 1
2 -6 6 27872.3 1106.66 3
2 -6 7 891.914 195.223 3
2 -6 7 510.091 145.953 5
2 6 7 896.282 228.209 1
2 -6 8 29479.7 1262.91 5
2 6 8 31659.3 1372.75 1
2 -6 9 1018.63 202.079 5
2 6 9 831.108 263.174 1
2 6 10 15269.5 955.514 1
2 7 -11 3594.82 422.543 4
2 -7 -10 -283.196 128.361 6
2 7 -10 -46.2556 124.552 4
2 7 -9 3539.53 395.389 4
2 -7 -8 1254.46 302.704 3
2 7 -8 1615.75 268.629 4
2 -7 -7 7335.92 460.813 5
2 7 -7 6726.29 516.335 4
2 -7 -7 6651.9 635.456 3
2 -7 -6 2921.33 405.829 3
2 -7 -6 3026.07 289.454 5
2 7 -6 2797.91 328.664 4
2 -7 -5 16322.3 762.183 5
2 7 -5 15116.4 794.566 4
2 -7 -5 16300 971.116 3
2 -7 -4 434.328 223.178 3
2 -7 -4 379.371 142.45 5
2 7 -4 197.465 129.856 4
2 -7 -3 11471.3 636.805 5
2 7 -3 12389.4 684.922 4
2 -7 -3 12387.9 812.814 3
2 -7 -2 1982.46 334.13 3
2 -7 -2 2318.02 281.595 5
2 7 -2 2374.93 303.594 4
2 -7 -2 2271.04 331.847 2
2 -7 -1 22232.6 963.818 5
2 -7 -1 22002.9 1031.6 2
2 7 -1 21914.2 997.461 4
2 -7 -1 21191.6 1070.36 3
2 -7 0 2920.08 370.138 3
2 -7 0 3045.54 328.981 5
2 -7 0 3102.55 343.091 2
2 7 0 3726.03 379.137 4
2 -7 1 12990.6 718.08 5
2 -7 1 13727.5 725.294 2
2 7 1 14292.4 766.572 4
2 -7 1 12251.9 752.962 3
2 -7 2 936.345 198.357 2
2 -7 2 1229.58 252.736 3
2 -7 2 1373.94 244.468 5
2 7 2 987.359 243.572 1
2 7 2 1232.25 251.958 4
2 -7 3 9363.21 615.014 5
2 -7 3 10356.9 575.918 2
2 7 3 10529.9 677.361 1
2 7 3 10513.9 663.832 4
2 -7 3 9388.57 633.463 3
2 -7 4 1125.1 200.065 2
2 -7 4 893.322 227.746 3
2 -7 4 797.666 202.805 5
2 7 4 724.011 213.407 1
2 -7 5 8421.25 599.237 5
2 7 5 7588.45 580.91 1
2 -7 5 7583.84 553.021 3
2 -7 6 1635.86 268.059 3
2 7 6 1773.73 316.596 1
2 -7 6 1794.14 312.855 5
2 -7 7 5989.08 507.344 5
2 7 7 5698.91 548.541 1
2 -7 7 5303.06 456.455 3
2 -7 8 719.335 188.508 5
2 7 8 416.447 195.863 1
2 -7 9 2565.94 349.757 5
2 7 9 2420.27 374.629 1
2 -8 -10 7036.75 642.222 6
2 8 -10 7739.88 622.927 4
2 8 -9 7346.99 600.742 4
2 8 -8 10270.7 703.939 4
2 -8 -7 8931.55 559.377 5
2 8 -7 8872.04 627.318 4
2 -8 -7 9339.24 790.587 3
2 -8 -6 11018.5 631.879 5
2 8 -6 10386.8 666.317 4
2 -8 -6 9601.15 795.1 3
2 -8 -5 7260.53 512.973 5
2 8 -5 7529.29 553.874 4
2 -8 -5 7264.8 681.844 3
2 -8 -4 5007.16 427.09 5
2 8 -4 5207.27 470.841 4
2 -8 -4 5848.7 630.919 3
2 -8 -3 8429.62 575.917 5
2 8 -3 9307.17 622.992 4
2 -8 -3 10062.9 777.552 3
2 -8 -2 14208.9 763.502 5
2 8 -2 13482.7 792.314 4
2 -8 -2 13493.6 901.386 3
2 -8 -1 26232.3 1153.37 5
2 8 -1 28649.3 1228.88 4
2 -8 -1 26428.6 1303 3
2 -8 0 17494.5 899.216 5
2 -8 0 19196.6 955.779 2
2 8 0 16875.1 923.896 4
2 -8 0 18999.6 1026.4 3
2 -8 1 21783.7 1051.68 5
2 -8 1 22822.7 1060.68 2
2 8 1 24989.6 1130.27 4
2 -8 1 22500.8 1141.86 3
2 -8 2 10246.6 679.268 5
2 -8 2 10157.6 626.575 2
2 8 2 9746.39 674.348 4
2 -8 2 9480.54 685.989 3
2 8 2 9675.22 680.225 1
2 -8 3 8527.02 626.537 5
2 -8 3 9190.98 575.388 2
2 8 3 8920.59 650.949 1
2 8 3 7860.75 606.522 4
2 -8 3 8402.97 645.012 3
2 -8 4 6825.63 561.59 5
2 8 4 6709.34 577.553 1
2 8 4 6390.63 558.227 4
2 -8 4 6161.24 537.254 3
2 -8 5 5469.47 512.175 5
2 8 5 6439.34 566.437 1
2 8 5 6010.4 536.86 4
2 -8 5 5410.67 493.623 3
2 -8 6 8097.89 647.561 5
2 8 6 9790.01 718.747 1
2 -8 6 7704.55 595.727 3
2 -8 7 12030.6 816.713 5
2 8 7 12745.7 860.653 1
2 -8 8 8737.38 686.401 5
2 -8 9 8492.21 680.568 5
2 9 -8 9054.21 680.894 4
2 -9 -7 1196.97 335.796 3
2 9 -7 904.04 211.319 4
2 -9 -6 11555.6 698.562 5
2 9 -6 11576.9 751.06 4
2 -9 -6 10452.2 884.152 3
2 -9 -5 1994.94 397.697 3
2 -9 -5 1444.44 264.924 5
2 9 -5 1962.7 319.902 4
2 -9 -4 2765.27 458.173 3
2 -9 -4 3024.69 366.654 5
2 9 -4 2248.47 309.891 4
2 -9 -3 850.221 300.095 3
2 -9 -3 1344.93 253.98 5
2 9 -3 1445.56 290.551 4
2 -9 -2 1156.95 320.587 3
2 -9 -2 870.313 221.461 5
2 9 -2 1116.42 262.182 4
2 -9 -1 1097.44 303.139 3
2 -9 -1 1188.19 240.249 5
2 9 -1 1634.26 287.63 4
2 -9 0 2558.97 464.332 3
2 -9 0 2625.5 371.73 5
2 9 0 2797.97 392.963 4
2 -9 1 394.147 212.766 3
2 -9 1 624.78 238.591 5
2 -9 2 2718.54 430.462 3
2 -9 2 3729.3 430.832 5
2 9 2 3534.3 418.884 4
2 -9 3 1287.35 285.977 3
2 9 3 1340.55 317.635 1
2 -9 3 1118.57 249.105 5
2 9 3 1001.81 274.253 4
2 -9 4 6306.77 577.737 5
2 9 4 6294.95 586.38 1
2 9 4 5930.77 576.559 4
2 -9 4 5971.18 553.942 3
2 -9 5 1059.31 264.15 3
2 -9 5 1651.42 300.685 5
2 9 5 1802.74 333.501 1
2 9 5 1531.9 301.588 4
2 -9 6 10761.2 797.577 5
2 9 6 11342.1 834.762 1
2 9 6 11407.2 827.552 4
2 10 -6 1595.15 291.14 4
2 -10 -5 9047.63 665.307 5
2 10 -5 9019.35 690.39 4
2 -10 -4 544.158 262.742 3
2 -10 -4 840.798 216.487 5
2 10 -4 1047.86 219.114 4
2 -10 -3 10415.7 736.275 5
2 10 -3 11105.1 768.111 4
2 -10 -3 10990.4 937.636 3
2 -10 -2 1691.08 442.074 3
2 -10 -2 1067.39 243.596 5
2 10 -2 1604.59 293.427 4
2 -10 -1 27140.4 1299.7 5
2 10 -1 28127.3 1354.74 4
2 -10 -1 27315.6 1477.69 3
2 -10 0 3048.33 410.262 5
2 10 0 3110.14 402.016 4
2 -10 1 20135.4 1104.92 5
2 10 1 22211.1 1187.11 4
2 -10 1 18697.9 1186.57 3
2 -10 2 808.176 251.459 3
2 -10 2 990.939 248.841 5
2 10 2 942.48 241.006 4
2 -10 3 8330.98 687.311 5
2 10 3 10558.8 783.126 4
2 -10 3 9120.69 788.876 3
3 0 -9 16963.1 770.75 4
3 0 -8 -69.3816 89.9935 4
3 0 -7 1902 209.936 4
3 0 -7 2028.46 165.817 3
3 0 -6 4.57997 27.8062 6
3 0 -6 76.9581 60.4706 3
3 0 -6 -51.6636 85.8421 4
3 0 -6 -3.51274 106.778 2
3 0 -5 26521.9 777.164 6
3 0 -5 27297.4 878.164 4
3 0 -5 25891.3 927.64 2
3 0 -5 25813.9 829.539 3
3 0 -4 39.3908 91.6809 2
3 0 -4 72.874 42.4206 6
3 0 -4 121.274 72.749 3
3 0 -4 -84.5756 65.6951 4
3 0 -3 47568 1340.1 6
3 0 -3 45209.8 1340.53 3
3 0 -3 46985.1 1319.33 4
3 0 -3 47001 1411.45 2
3 0 -2 28.4967 87.2259 2
3 0 -2 -23.5794 43.5903 6
3 0 -2 62.0196 78.2492 3
3 0 -2 21.5239 46.8752 4
3 0 -1 66295.7 1779.15 6
3 0 -1 61164.7 1748.06 3
3 0 -1 59432.6 1636.1 4
3 0 -1 63940.4 1786.32 2
3 0 0 -24.8059 44.2431 6
3 0 0 25.8268 36.583 4
3 0 1 8511.53 323.542 1
3 0 1 8566.7 302.408 4
3 0 1 8150.02 423.52 2
3 0 2 -87.1648 113.869 2
3 0 2 80.048 58.5735 1
3 0 3 2612.95 179.087 1
3 0 3 2320.45 241.858 2
3 0 4 22.8879 30.6015 4
3 0 4 -39.2346 153.549 2
3 0 4 -25.3705 71.4057 1
3 0 5 13385.5 514.999 4
3 0 5 14402 568.676 1
3 0 5 14721.9 674.782 2
3 0 6 -77.1615 82.5669 1
3 0 6 247.78 144.759 2
3 0 7 32059.7 937.31 5
3 0 7 31416.7 1110.21 1
3 0 7 31478.3 1236.4 2
3 0 8 -62.2484 69.1078 1
3 0 8 -128.261 157.112 2
3 0 9 19247 840.824 1
3 0 9 18140.8 955.396 2
3 0 10 -137.046 82.8607 1
3 0 10 -21.0045 133.833 2
3 0 11 3278.23 341.784 1
3 0 11 2699.53 402.28 2
3 0 12 -198.646 155.975 2
3 1 -11 8004.13 549.916 4
3 1 -10 14017.5 724.708 4
3 -1 -9 3988.23 151.336 6
3 -1 -9 3972.16 153.355 6
3 1 -9 3927.22 342.85 4
3 -1 -8 9399.29 328.049 6
3 1 -8 10168.2 526.97 4
3 -1 -8 8841.98 462.99 3
3 1 -7 12618.5 559.305 4
3 -1 -7 10916.6 395.276 6
3 -1 -7 11850.6 534.039 3
3 -1 -6 80025.2 2188.69 4
3 1 -6 75467.7 2170.61 2
3 -1 -6 74925.9 2301.14 2
3 1 -6 81432.7 2207.27 4
3 1 -6 75126.8 1987.17 3
3 -1 -6 76761 2180.84 3
3 -1 -6 74750.4 2039.17 6
3 -1 -5 50589.3 1416.66 6
3 1 -5 49994.7 1373.2 6
3 -1 -5 52754.8 1496.71 4
3 1 -5 52656.5 1517.91 4
3 -1 -5 49367.1 1603.27 2
3 1 -5 49860 1491.8 2
3 -1 -5 48565.8 1505.64 3
3 1 -5 50902.5 1373.67 3
3 -1 -4 101652 2621.29 6
3 1 -4 96532.6 2570.56 3
3 1 -4 97406.8 2589.66 6
3 -1 -4 96798.1 2629.5 4
3 1 -4 100961 2668.26 4
3 -1 -4 96121.3 2766.71 2
3 1 -4 97044.7 2655.77 2
3 -1 -4 97477.5 2684.6 3
3 -1 -3 23999.8 755.392 6
3 1 -3 23511.3 740.697 6
3 1 -3 22278 711.983 3
3 -1 -3 21752.5 705.29 4
3 1 -3 23592 754.421 4
3 -1 -3 23496.6 841.69 2
3 1 -3 22846.9 759.492 2
3 -1 -3 21830.2 781.21 3
3 -1 -2 12773.2 482.628 6
3 -1 -2 11854.5 494.205 3
3 1 -2 12714.9 480.006 6
3 -1 -2 11207.6 391.06 4
3 1 -2 12297.1 445.281 4
3 -1 -2 11366.6 519.448 2
3 1 -2 11339.1 468.95 2
3 -1 -1 503.04 140.033 2
3 -1 -1 266.232 69.4998 6
3 1 -1 517.045 96.3406 6
3 1 -1 483.512 112.623 2
3 -1 -1 461.376 113.934 3
3 -1 -1 496.249 50.7402 4
3 1 -1 591.804 90.1281 4
3 -1 0 30450.5 861.922 3
3 1 0 28440.9 748.318 4
3 -1 0 29587.1 880.706 2
3 1 0 30465.4 844.332 2
3 -1 1 20817.4 757.973 3
3 1 1 20030.4 677.364 1
3 1 1 20272.1 657.518 4
3 -1 1 20854.4 766.823 2
3 1 1 19593.2 744.927 2
3 -1 2 91388.4 2526.76 3
3 -1 2 88081 2262.59 4
3 -1 2 89938.9 2308.23 1
3 1 2 89243.4 2427.02 1
3 -1 2 94025.5 2540.89 2
3 -1 3 40235.8 1086.17 4
3 1 3 40036.2 1222.26 1
3 -1 3 39798.3 1126.55 1
3 -1 3 42434.3 1322.04 2
3 -1 4 76373.1 2041.85 4
3 1 4 76005.4 2177.18 1
3 -1 4 79511.2 2085.03 1
3 -1 4 75100.1 2260.31 2
3 -1 5 9534.46 377.036 4
3 1 5 9860.23 478.068 1
3 -1 5 9110.84 512.155 2
3 -1 5 9422.52 408.985 1
3 1 6 9495.58 498.216 1
3 -1 6 10514.8 570.202 2
3 -1 6 10314 461.924 1
3 -1 7 2429.45 219.13 1
3 -1 7 2261.15 281.682 2
3 -1 7 2335.65 187.018 5
3 1 7 2181.75 243.897 1
3 1 8 13620.3 683.12 1
3 -1 8 14375.3 751.795 2
3 -1 8 14389.1 642.324 1
3 -1 9 3168.92 367.675 2
3 1 9 3094.1 315.368 1
3 -1 9 3468.64 314.215 1
3 -1 10 21350.6 1014.7 3
3 1 10 19129.4 931.683 1
3 -1 10 21405.1 1060.3 2
3 -1 10 19603.3 888.306 1
3 1 11 2937.35 366.809 1
3 -1 11 3692.49 434.32 2
3 -1 11 2930.39 370.096 3
3 1 12 17107.3 956.712 1
3 -1 12 19134.6 1095.07 2
3 1 12 20986.2 1213.36 2
3 2 -12 11195.3 702.13 4
3 2 -11 7640.13 548.575 4
3 2 -10 15785.2 782.65 4
3 2 -9 4849.25 378.665 4
3 2 -8 8125.91 476.697 4
3 -2 -8 7660.36 477.537 3
3 -2 -8 7621.47 339.506 6
3 -2 -7 873.405 163.788 3
3 2 -7 1113.21 162.215 4
3 -2 -7 1086.59 116.022 6
3 -2 -6 11443.5 635.045 2
3 2 -6 11300.3 538.907 4
3 -2 -6 11918.6 578.977 3
3 -2 -6 11786.5 460.306 6
3 -2 -5 17097.1 777.691 2
3 2 -5 16861.1 586.349 2
3 2 -5 16842.3 677.446 4
3 -2 -5 17795.1 722.344 3
3 -2 -5 17320.4 616.815 6
3 2 -5 17672.4 497.276 3
3 -2 -4 25148.2 946.544 2
3 2 -4 23880.2 822.467 4
3 2 -4 22260 740.673 2
3 -2 -4 23859.2 868.601 3
3 -2 -4 23598.8 782.892 6
3 -2 -3 28624.5 920.026 6
3 2 -3 29141.8 933.561 4
3 -2 -3 28665.5 1037.87 2
3 2 -3 27806.4 878.343 2
3 -2 -3 28443.4 992.085 3
3 2 -2 49382.8 1245.4 6
3 2 -2 46622.1 1197.54 4
3 -2 -2 43186 1303.42 2
3 2 -2 40333.8 1135.29 2
3 -2 -2 40976.1 1246.13 3
3 -2 -1 25117 863.024 3
3 2 -1 24921.4 793.961 4
3 -2 -1 24426.7 878.498 2
3 2 -1 23904.3 782.5 2
3 -2 0 28296.3 993.958 3
3 2 0 29939.2 929.813 4
3 -2 0 28107 993.884 2
3 2 0 28051 938.734 2
3 -2 1 4882.67 334.719 3
3 2 1 5362.45 312.19 1
3 2 1 5400.41 297.878 4
3 -2 1 6208.96 378.125 2
3 -2 2 8330.76 452.649 3
3 2 2 7974.05 405.815 1
3 -2 2 9361.72 469.146 2
3 -2 3 3041.47 275.9 3
3 -2 3 2934.42 119.169 4
3 2 3 2864.48 240.784 1
3 -2 3 3126.07 271.102 2
3 -2 3 2979.23 134.736 1
3 -2 4 4570.28 347.77 3
3 -2 4 4324.14 192.759 4
3 2 4 4604.16 322.375 1
3 -2 4 4768.83 347.431 2
3 -2 4 4704.79 213.542 1
3 -2 5 6618.06 300.553 1
3 -2 5 6962.22 447.24 3
3 -2 5 6625.25 279.686 4
3 2 5 6377.15 402.724 1
3 -2 5 6315.2 417.626 2
3 -2 6 10314.8 440.822 1
3 -2 6 10426.1 573.716 3
3 2 6 10676.2 349.255 5
3 2 6 10255 553.126 1
3 -2 6 10097.1 563.225 2
3 -2 7 4673.79 292.777 1
3 -2 7 4449.23 385.674 3
3 -2 7 5195.36 314.387 5
3 2 7 4874.6 385.206 1
3 -2 7 4461.96 382.876 2
3 -2 8 9516.9 482.88 1
3 -2 8 9184.6 579.646 3
3 -2 8 9756.5 458.763 5
3 2 8 9515.11 576.243 1
3 -2 8 9824.13 590.232 2
3 -2 9 3749.39 297.131 1
3 -2 9 3240.08 351.406 3
3 2 9 3382.18 354.572 1
3 -2 9 3608.69 382.08 2
3 -2 10 1363.92 262.016 2
3 -2 10 1884.7 294.891 3
3 2 10 1593.88 282.945 1
3 -2 11 441.978 209.854 2
3 2 11 384.229 156.686 1
3 2 12 1494.47 290.202 1
3 3 -13 19064.6 1023.43 4
3 3 -12 888.361 242.817 4
3 3 -11 23871 1082.99 4
3 -3 -10 1804.29 193.483 6
3 3 -10 1526.35 228.854 4
3 3 -9 17020.9 799.629 4
3 -3 -9 16894.9 835.888 3
3 3 -8 8735.47 513.281 4
3 -3 -8 8107.99 551.952 3
3 3 -7 32054.3 1167.88 4
3 -3 -7 33572 1273.88 3
3 -3 -6 6247.47 499.929 2
3 3 -6 7576.8 436.469 4
3 -3 -6 7627.33 487.98 3
3 3 -5 76719.4 1997.05 2
3 -3 -5 78440.3 2414.05 2
3 3 -5 80385.8 2252.04 4
3 3 -5 75402.8 1996.1 3
3 -3 -5 76120.3 2326.31 3
3 -3 -4 2341.53 302.019 2
3 -3 -4 2881.36 192.009 1
3 3 -4 2606.85 233.982 4
3 3 -4 2583.62 156.775 2
3 3 -4 2754.9 189.869 3
3 -3 -4 2722.83 281.412 3
3 -3 -3 46933.8 1271.23 1
3 -3 -3 45482.1 1517.97 2
3 3 -3 45380.2 1390.79 4
3 3 -3 43620.2 1345.07 3
3 3 -3 42678.3 1258.82 2
3 -3 -3 44572.4 1470.36 3
3 -3 -2 252.268 153.822 2
3 -3 -2 107.429 141.169 3
3 3 -2 201.19 80.263 2
3 3 -2 206.862 103.547 4
3 -3 -1 14820.2 666.491 2
3 3 -1 14086.8 592.396 4
3 3 -1 13974.3 543.898 2
3 -3 -1 14846.7 659.741 3
3 -3 0 6139.64 410.818 3
3 3 0 7032.53 379.366 4
3 -3 0 6037.53 398.26 2
3 -3 1 47936.5 1511.04 3
3 3 1 47596 1471.22 1
3 3 1 46049.5 1436.08 4
3 -3 1 44872.5 1482.95 2
3 -3 2 67.2566 131.212 3
3 -3 2 49.0883 120.5 2
3 3 2 97.3651 132.655 1
3 -3 3 87218.1 2475.01 3
3 3 3 86342.2 2309.36 5
3 -3 3 83047.2 2113.68 1
3 3 3 82867.1 2418.08 1
3 -3 3 87593.1 2468.03 2
3 -3 3 82044.2 2107.17 1
3 -3 4 5077.92 376.418 3
3 -3 4 5279.1 212.389 1
3 3 4 5164.05 274.01 5
3 -3 4 5184.47 221.6 4
3 3 4 5084.05 367.018 1
3 -3 4 5179.48 375.156 2
3 -3 5 39989.6 1419.63 3
3 -3 5 42712.4 1183.7 1
3 3 5 42092.7 1191.06 5
3 -3 5 40661.7 1173.14 4
3 3 5 40497.1 1406.46 1
3 -3 5 40530.6 1406.51 2
3 -3 6 2938.31 301.36 3
3 -3 6 2961.34 196.549 1
3 3 6 2862.58 304.631 1
3 -3 6 2894.88 286.549 2
3 -3 7 19752.2 898.006 3
3 -3 7 21038 734.07 1
3 -3 7 21632.8 835.485 5
3 3 7 18676.5 883.832 1
3 -3 7 19072.9 876.021 2
3 -3 8 12.436 126.053 2
3 -3 8 141.328 132.535 3
3 -3 8 -53.7937 82.6252 5
3 -3 8 -31.7725 73.9183 1
3 3 8 -67.5166 135.316 1
3 -3 9 21621.4 988.274 3
3 3 9 21173.4 1018.31 1
3 -3 9 21855.7 995.254 2
3 -3 10 2363.06 314.156 2
3 -3 10 1748.04 284.471 3
3 3 10 1958.82 317.07 1
3 3 11 18117.3 1001.57 1
3 3 12 -191.476 195.311 1
3 4 -13 22.4228 55.2298 4
3 4 -12 12996.3 800.144 4
3 4 -11 1141.66 223.527 4
3 4 -10 8649.9 574.547 4
3 4 -9 4432.61 386.31 4
3 -4 -9 4082.87 422.004 3
3 4 -8 3897.26 363.379 4
3 -4 -8 3774.91 411.667 3
3 4 -7 14080.8 690.188 4
3 -4 -7 13965.4 779.773 3
3 -4 -6 4415.46 456.961 2
3 4 -6 4437.66 347.559 4
3 -4 -6 4709.1 427.305 3
3 -4 -5 694.952 223.719 2
3 -4 -5 731.916 194.006 3
3 4 -5 1011.03 180.839 4
3 4 -5 925.948 96.2994 3
3 -4 -4 23010.8 1016.37 2
3 4 -4 21704.8 878.884 4
3 4 -4 25016.3 676.194 2
3 4 -4 21543.4 786.712 3
3 -4 -4 21087.6 959.746 3
3 -4 -3 11365.3 652.889 2
3 4 -3 11707.6 565.725 4
3 4 -3 12900.1 566.061 3
3 4 -3 12190 440.836 2
3 -4 -3 12201.4 653.612 3
3 -4 -3 12829.5 469.477 1
3 -4 -2 29381.4 1106.83 2
3 4 -2 26269 989.336 4
3 -4 -2 27683.3 828.274 1
3 -4 -2 28104.4 1085.6 3
3 4 -2 27351.8 871.341 2
3 -4 -1 993.905 211.236 2
3 -4 -1 1074.93 218.637 3
3 4 -1 1088.93 186.577 4
3 -4 -1 987.273 84.4069 1
3 -4 0 14375 670.417 2
3 4 0 14453 632.076 4
3 -4 0 13089 396.957 1
3 -4 0 13469.5 663.218 3
3 4 1 11803 594.597 1
3 -4 1 12521.7 617.338 2
3 4 1 11330.6 572.294 4
3 -4 1 12597 637.871 3
3 -4 2 4629.72 373.072 3
3 4 2 4947.91 374.845 1
3 -4 2 4712.07 358.481 2
3 4 2 4637.67 355.967 4
3 -4 3 892.019 188.536 2
3 -4 3 952.979 199.472 3
3 -4 3 1016.95 55.9835 1
3 4 3 759.487 190.745 1
3 -4 3 888.567 58.7608 1
3 -4 4 12303.9 643.328 3
3 4 4 13159.8 514.852 5
3 -4 4 12377.7 384.566 1
3 -4 4 11828.3 397.862 1
3 4 4 10957.7 608.149 1
3 -4 4 11607.9 606.557 2
3 -4 5 9175.83 553.757 3
3 -4 5 10059.9 360.021 1
3 4 5 9045.79 561.331 1
3 -4 5 9252.41 537.703 2
3 -4 6 12749.9 650.937 5
3 -4 6 13530.3 486.968 1
3 4 6 12407.9 686.966 1
3 -4 6 13154.1 682.031 2
3 -4 6 12398.1 676.432 3
3 -4 7 2141.9 277.996 2
3 -4 7 1997.48 273.494 3
3 -4 7 2020.96 239.445 5
3 4 7 2191.56 296.521 1
3 -4 8 9726.67 610.059 3
3 -4 8 10093.8 577.346 5
3 4 8 11155.9 683.126 1
3 -4 8 10583.6 624.97 2
3 -4 9 838.401 196.325 2
3 -4 9 501.342 179.791 3
3 4 9 765.598 228.758 1
3 4 10 7722.42 618.454 1
3 4 11 -45.949 152.47 1
3 5 -13 7224.37 616.471 4
3 5 -12 11747.8 768.593 4
3 5 -11 3171.94 381.645 4
3 5 -10 12627.7 743.678 4
3 5 -9 9079.45 599.718 4
3 -5 -9 8998.26 681.492 3
3 5 -8 15271.3 778.049 4
3 -5 -8 14557.2 878.646 3
3 5 -7 13879.7 720.22 4
3 -5 -7 14073.8 840.914 3
3 5 -6 20049.4 872.742 4
3 -5 -6 19449.9 991.403 3
3 -5 -5 12062.7 771.76 2
3 5 -5 13931.9 674.259 4
3 -5 -5 12750.3 750.408 3
3 5 -5 13305.7 514.057 3
3 -5 -4 39001.1 1540.15 2
3 5 -4 40229.5 1075.18 2
3 5 -4 39274.8 1385.85 4
3 5 -4 40927.6 1070.28 2
3 -5 -4 39016.5 1513.63 3
3 5 -4 41330.9 1293.06 3
3 -5 -3 11599.8 684.628 2
3 5 -3 10940.8 578.638 4
3 -5 -3 10724.4 655.142 3
3 5 -3 11499 422.535 2
3 -5 -2 38970.4 1430.33 2
3 5 -2 38097.8 1320.83 4
3 -5 -2 36540.6 1111.39 1
3 -5 -2 38700.7 1421.55 3
3 -5 -1 24929.5 1035.53 2
3 -5 -1 24400.7 750.567 1
3 5 -1 23907.7 966.31 4
3 -5 -1 24156.3 1037.06 3
3 -5 0 24984.7 746.521 1
3 -5 0 24949.9 1029.05 2
3 5 0 26436.1 1014.39 4
3 -5 0 25156.9 1056.69 3
3 -5 1 14595 450.975 1
3 5 1 14166.4 712.196 1
3 -5 1 13961.4 703.419 2
3 5 1 13805.1 690.521 4
3 -5 1 13400.7 718.944 3
3 -5 2 32806.1 884.927 1
3 5 2 30216.5 1203.11 1
3 -5 2 31444.5 1193.49 2
3 5 2 30852.6 1188.88 4
3 -5 2 31755.9 1242.85 3
3 -5 3 11079.7 344.865 1
3 5 3 10940.7 621.468 1
3 -5 3 10452.4 587.399 2
3 -5 3 10837.9 355.616 1
3 -5 3 10286.7 623.495 3
3 5 4 18088.4 855.652 1
3 -5 4 16083.6 781.404 2
3 -5 4 18216.1 539.765 1
3 -5 4 17127 839.261 3
3 -5 5 12416.6 668.885 5
3 5 5 11431.4 679.727 1
3 -5 5 12760.7 654.422 2
3 -5 5 12071.6 681.52 3
3 -5 6 15397.8 772.268 5
3 5 6 14771.7 808.198 1
3 -5 6 15275.1 738.24 2
3 -5 6 14450.7 771.61 3
3 -5 7 7300.66 510.736 5
3 5 7 6652.07 539.131 1
3 -5 7 7203.55 486.169 2
3 -5 7 7825.06 544.094 3
3 -5 8 8137.51 542.179 5
3 5 8 7209.25 579.889 1
3 -5 8 7227.36 497.844 2
3 -5 8 7865.24 545.508 3
3 5 9 6019.58 543.967 1
3 5 10 8578.57 687.062 1
3 6 -12 1720.65 320.132 4
3 6 -11 8118.48 628.026 4
3 6 -10 1700.48 266.559 4
3 6 -9 11784 717.118 4
3 -6 -9 10656.6 813.555 3
3 -6 -8 764.134 263.164 3
3 6 -8 240.473 155.662 4
3 6 -7 16790.6 852.009 4
3 -6 -7 17879.2 1019.73 3
3 -6 -6 3537.73 449.173 3
3 6 -6 4110.36 388.373 4
3 -6 -5 7947.58 638.954 2
3 6 -5 8007.68 522.549 4
3 -6 -5 7591.46 620.539 3
3 -6 -4 8317.36 634.421 2
3 6 -4 7040.8 494.422 4
3 -6 -4 7382.63 570.099 3
3 -6 -3 10208.9 688.362 2
3 6 -3 9713.91 579.77 4
3 -6 -3 9621.25 661.489 3
3 6 -3 9999.95 391.126 2
3 -6 -2 5131.6 471.469 2
3 6 -2 4666.42 394.015 4
3 -6 -2 5106.65 475.386 3
3 -6 -1 8213.09 562.001 2
3 6 -1 6801.72 494.639 4
3 -6 -1 7259.27 555.247 3
3 -6 0 6376.09 497.688 2
3 6 0 6700.27 478.862 4
3 -6 0 6695.18 520.197 3
3 6 1 9515.58 604.201 1
3 -6 1 10395.9 612.994 2
3 6 1 10245.3 605.934 4
3 -6 1 8988.49 621.332 3
3 6 2 6217.15 487.415 1
3 -6 2 5777.87 447.495 2
3 6 2 5885.86 448.153 4
3 -6 2 5868.62 475.56 3
3 6 3 10717 659.199 1
3 -6 3 10583.3 614.309 2
3 6 3 10379.1 634.227 4
3 -6 3 10937.8 667.593 3
3 -6 4 2391.52 276.555 2
3 -6 4 2856.82 335.726 3
3 -6 4 2493.16 304.006 5
3 6 4 2253.05 326.247 1
3 -6 5 12129.7 697.637 5
3 6 5 11703.5 711.257 1
3 -6 5 10955.3 632.135 2
3 -6 5 10245.1 661.951 3
3 -6 6 1124.3 192.688 2
3 -6 6 1320.42 263.609 3
3 -6 6 1520.92 228.731 5
3 6 6 1248.72 279.876 1
3 -6 7 5680.47 484.74 5
3 6 7 5536.21 522.499 1
3 -6 7 5838.77 491.583 3
3 -6 8 696.966 175.263 3
3 -6 8 980.753 202.063 5
3 6 8 928.813 217.753 1
3 -6 9 2843.36 344.886 5
3 6 9 2587.66 401.305 1
3 7 -11 4472.38 480.971 4
3 7 -10 12890 822.024 4
3 -7 -9 3728.79 486.024 3
3 7 -9 4481.83 456.233 4
3 -7 -8 25060.9 1002.64 5
3 7 -8 22645.4 1101.39 4
3 -7 -8 21644 1260.51 3
3 -7 -7 685.876 285.467 3
3 7 -7 68.8978 101.86 4
3 7 -6 13330.4 750.547 4
3 -7 -6 12864.2 902.185 3
3 -7 -5 2301.56 359.03 3
3 7 -5 2487 310.829 4
3 -7 -4 11925.5 810.43 2
3 7 -4 12311.4 696.52 4
3 -7 -4 10638.6 777.647 3
3 -7 -3 5930.51 554.009 2
3 7 -3 5745.74 473.266 4
3 -7 -3 5454.29 563.236 3
3 -7 -2 30834 1366.69 2
3 7 -2 30374.3 1261.43 4
3 -7 -2 32221.6 1398.06 3
3 -7 -1 3449.85 458.696 3
3 -7 -1 4613.29 458.579 2
3 7 -1 4878.18 442.216 4
3 -7 0 27200.6 1188.89 2
3 7 0 26436.6 1164.56 4
3 -7 0 27106.5 1258.07 3
3 -7 1 2770.03 333.226 2
3 -7 1 2554.48 376.379 3
3 7 1 3418.47 373.586 4
3 -7 2 16145.1 830.762 5
3 7 2 15884.2 880.817 1
3 -7 2 15402.8 819.742 2
3 7 2 15819.4 843.987 4
3 -7 2 15145.8 875.9 3
3 -7 3 1117.17 220.131 2
3 -7 3 995.547 240.537 3
3 -7 3 1151.13 220.362 5
3 7 3 852.577 236.036 1
3 7 3 1524.15 275.868 4
3 -7 4 13816.4 807.251 5
3 7 4 15988.7 899.796 1
3 -7 4 15673.3 792.604 2
3 7 4 15675.5 868.746 4
3 -7 4 15247 856.445 3
3 -7 5 2995.51 316.807 2
3 -7 5 2263.67 343.308 3
3 7 5 2261.28 347.813 1
3 -7 5 3081.21 358.309 5
3 7 5 2941.45 361.527 4
3 -7 6 28939.5 1321.64 5
3 -7 6 28374.2 1283.91 3
3 -7 7 2728.96 345.606 3
3 -7 7 3354.83 388.714 5
3 7 7 3397.86 414.67 1
3 -7 8 14828 904.112 5
3 7 8 17428.1 1029.29 1
3 -7 9 3113.85 385.776 5
3 8 -10 1422.34 277.477 4
3 -8 -9 1357.54 352.666 3
3 8 -9 1416.02 272.135 4
3 8 -8 8856.78 664.465 4
3 -8 -8 9271.84 816.344 3
3 -8 -7 4095.81 553.876 3
3 -8 -7 4590.74 407.226 5
3 8 -7 4067.97 436.935 4
3 -8 -6 6397.7 501.471 5
3 8 -6 6441 525.253 4
3 -8 -6 5998.24 655.245 3
3 -8 -5 3046.58 503.154 3
3 -8 -5 3437.21 366.248 5
3 8 -5 3805.61 402.588 4
3 -8 -4 2278.25 395.543 3
3 -8 -4 1921.35 271.067 5
3 8 -4 1497.18 283.523 4
3 -8 -3 7899.65 559.236 5
3 8 -3 8100.56 594.865 4
3 -8 -3 8838.19 726.495 3
3 -8 -2 3035.46 450.705 3
3 -8 -2 2659.32 333.696 5
3 8 -2 2748.9 359.073 4
3 -8 -2 3204.11 414.46 2
3 -8 -1 4601.54 441.237 5
3 -8 -1 4513.33 479.867 2
3 8 -1 5416.7 495.833 4
3 -8 -1 5198.54 540.664 3
3 -8 0 3619.13 427.454 2
3 -8 0 4211.18 503.282 3
3 -8 0 4317 428.988 5
3 8 0 4537.53 455.457 4
3 -8 1 6553.46 532.015 5
3 -8 1 6099.51 526.817 2
3 8 1 6560.76 554.93 4
3 -8 1 5802.87 566.722 3
3 -8 2 4912.52 474.303 5
3 -8 2 5670.07 496.997 2
3 8 2 5630.21 519.458 4
3 -8 2 4995.15 524.435 3
3 -8 3 4890.45 482.929 5
3 8 3 5123.75 521.856 1
3 -8 3 4919.73 437.784 2
3 8 3 4733.85 482.732 4
3 -8 3 4704.06 498.246 3
3 -8 4 3399.2 424.245 3
3 -8 4 3550.58 421.629 5
3 8 4 4025.6 457.492 1
3 8 4 4463.78 458.758 4
3 -8 5 4049.61 455.048 3
3 -8 5 3696.75 426.576 5
3 8 5 3675.02 453.328 1
3 8 5 4236.06 468.621 4
3 -8 6 1895.84 310.727 3
3 -8 6 2004.95 349.849 5
3 8 6 2053.87 364.603 1
3 8 6 3039.82 405.533 4
3 -8 7 2195.95 350.9 5
3 8 7 3187.32 460.595 4
3 -8 8 39.2372 128.731 5
3 9 -8 1534.27 281.247 4
3 9 -7 16403.6 960.486 4
3 -9 -7 16296.8 1150.17 3
3 -9 -6 1812.35 445.928 3
3 -9 -6 926.298 224.555 5
3 9 -6 1516.23 269.091 4
3 -9 -5 7871.38 589.053 5
3 9 -5 7286.48 602.974 4
3 -9 -5 8885.96 827.012 3
3 -9 -4 831.66 255.974 3
3 -9 -4 352.251 177.203 5
3 9 -4 1006.69 237.749 4
3 -9 -3 19017.4 1013.21 5
3 9 -3 21931.8 1105.38 4
3 -9 -3 21138.9 1265.99 3
3 -9 -2 1029.3 214.411 5
3 -9 -2 1749.18 456.553 3
3 9 -2 1585.88 294.247 4
3 -9 -1 32721 1444.22 5
3 -9 -1 33822.1 1651.12 3
3 -9 0 732.874 252.323 3
3 -9 0 490.586 192.49 5
3 9 0 636.302 235.075 4
3 -9 0 745.757 257.608 2
3 -9 1 16184.8 953.079 5
3 -9 1 17419.8 993.175 2
3 -9 1 17485.4 1089 3
3 -9 2 826.847 240.084 3
3 -9 2 821.182 237.202 5
3 9 2 766.633 258.954 4
3 -9 3 6316.96 578.031 5
3 9 3 7627.09 653.574 4
3 -9 3 7421.48 664.364 3
3 -9 4 922.427 271.226 3
3 9 4 684.103 219.282 1
3 -9 4 1222.22 270.441 5
3 9 4 540.089 185.701 4
3 -9 5 13939.2 893.31 5
3 -9 5 11555.9 829.645 3
3 -10 -6 9350.38 670.689 5
3 -10 -5 159.79 161.987 5
3 -10 -4 3065.7 372.623 5
3 10 -4 3906.04 463.862 4
3 -10 -3 270.164 264.703 3
3 -10 -3 229.431 142.758 5
3 10 -3 -138.206 189.505 4
3 -10 -2 3074.91 488.543 3
3 -10 -2 2788.55 405.874 5
3 10 -2 3018.81 409.17 4
3 -10 -1 -100.839 227.135 3
3 -10 -1 165.932 163.322 5
3 10 -1 -79.4691 118.53 4
3 -10 0 3622.62 532.305 3
3 -10 0 4254.29 492.285 5
3 -10 1 111.008 218.264 3
3 10 1 -9.97156 156.54 4
3 -10 2 9591.82 822.033 3
3 -10 3 524.422 228.735 3
4 0 -10 12351 673.4 4
4 0 -9 60.2874 93.5478 4
4 0 -8 25370.5 1016.71 2
4 0 -8 26611.8 964.237 4
4 0 -8 27325.8 838.887 3
4 0 -7 -36.8441 124.75 2
4 0 -7 -3.71063 38.2556 6
4 0 -7 100.137 85.3054 3
4 0 -7 -26.9041 99.1996 4
4 0 -6 57941.3 1654.96 6
4 0 -6 60465.6 1773.73 4
4 0 -6 59224.1 1875.85 2
4 0 -6 61224.2 1737.65 3
4 0 -5 -73.0121 122.257 2
4 0 -5 7.49069 29.4675 6
4 0 -5 11.7349 85.8125 3
4 0 -5 68.4943 71.6738 4
4 0 -4 56408 1679.36 3
4 0 -4 58383.3 1681.16 6
4 0 -4 59507.2 1654.5 4
4 0 -4 55676.5 1765.02 2
4 0 -3 -4.07377 108.396 2
4 0 -3 10.9258 52.0338 6
4 0 -3 -5.65087 90.6734 3
4 0 -3 39.5265 64.334 4
4 0 -2 105907 2976.34 3
4 0 -2 109573 2855.6 4
4 0 -2 109786 3036.24 2
4 0 -1 14.3527 105.686 2
4 0 -1 -10.3419 113.474 3
4 0 -1 -21.0593 39.366 4
4 0 0 104698 2737.69 4
4 0 0 106940 2971.94 2
4 0 1 234.349 165.709 2
4 0 1 -69.8704 48.3088 4
4 0 2 68921.6 1921.75 1
4 0 2 71100.2 1883.07 4
4 0 2 68787.2 2113.45 2
4 0 3 -256.75 145.756 2
4 0 3 38.9482 60.0542 1
4 0 4 14623 524.221 4
4 0 4 16345.7 598.691 1
4 0 4 15678 743.146 2
4 0 5 239.307 154.772 2
4 0 5 -17.6579 48.3381 1
4 0 6 19576 753.756 1
4 0 6 17614.8 882.949 2
4 0 7 103.277 157.201 2
4 0 7 -1.26729 69.7358 1
4 0 8 17450.8 788.675 1
4 0 8 18629.2 966.598 2
4 0 9 129.528 178.842 2
4 0 9 -12.1895 123.998 1
4 0 10 15321.8 970.021 2
4 0 11 -32.1648 111.967 2
4 1 -12 2500.43 335.555 4
4 1 -11 13382.4 751.954 4
4 1 -10 1162.86 202.329 4
4 1 -9 10737.3 607.662 4
4 -1 -9 12009.5 566.75 3
4 -1 -8 1421.52 121.429 6
4 -1 -8 1863.66 213.033 3
4 1 -8 1516.57 210.091 4
4 -1 -8 1494.52 247.882 2
4 -1 -7 26261.1 836.868 6
4 -1 -7 27024.6 963.231 4
4 1 -7 25624.6 973.018 2
4 -1 -7 24348.7 1065.87 2
4 1 -7 26994.1 969.491 4
4 1 -7 26487.8 795.743 3
4 -1 -7 25320.5 953.988 3
4 -1 -6 1880.01 160.715 6
4 -1 -6 1988.05 262.244 2
4 1 -6 1776.63 204.102 2
4 1 -6 2020.39 151.507 6
4 -1 -6 1887.45 199.268 4
4 1 -6 1945.38 205.961 4
4 -1 -6 1749.04 203.067 3
4 1 -6 2196.07 162.727 3
4 1 -5 14932.4 553.119 3
4 -1 -5 15449.6 587.094 6
4 1 -5 15012.6 565.659 6
4 -1 -5 14919.5 589.06 4
4 1 -5 15686.5 621.321 4
4 -1 -5 15294 718.597 2
4 1 -5 15455.2 647.455 2
4 -1 -5 15268.3 648.423 3
4 1 -4 1138.43 135.277 3
4 1 -4 1166.99 134.58 6
4 -1 -4 1656.23 215.893 2
4 1 -4 1168.7 172.8 2
4 -1 -4 1004.25 127.365 6
4 -1 -4 1142.46 172.484 3
4 -1 -4 1138.56 129.724 4
4 1 -4 1190.64 148.89 4
4 -1 -3 14455.1 618.788 3
4 1 -3 16184.2 609.312 6
4 1 -3 14669.7 572.227 3
4 -1 -3 14368.7 513.852 4
4 1 -3 14968 564.945 4
4 -1 -3 15818.7 689.398 2
4 1 -3 14217.1 605.776 2
4 -1 -2 7120.93 406.279 3
4 -1 -2 7352.41 285.382 4
4 1 -2 7703.93 343.522 4
4 -1 -2 7233.88 435.979 2
4 1 -2 7288.25 404.131 2
4 -1 -1 23983.7 883.191 3
4 -1 -1 23713.7 671.533 4
4 1 -1 24556.9 773.24 4
4 -1 -1 24201.7 919.941 2
4 1 -1 22510 857.192 2
4 -1 0 17948.7 726.304 3
4 -1 0 17220.9 473.74 4
4 1 0 18085.8 611.618 4
4 -1 0 16970 745.733 2
4 1 0 17532.3 716.285 2
4 -1 1 11265.4 560.933 3
4 1 1 11269.4 451.68 4
4 -1 1 12325.2 599.285 2
4 1 1 11485.3 564.543 2
4 -1 2 5917.35 406.691 3
4 1 2 5695.1 319.843 1
4 1 2 5736.14 302.901 4
4 -1 2 5854.89 405.469 2
4 1 2 6086.87 404.432 2
4 -1 3 2460.58 294.057 3
4 -1 3 2464.11 116.087 4
4 -1 3 2501.45 153.119 1
4 1 3 2540.66 219.045 1
4 -1 3 2433.34 125.183 4
4 -1 3 2547.98 292.09 2
4 1 3 2515.87 293.092 2
4 -1 4 4325.37 372.678 3
4 -1 4 4344.34 192.154 4
4 1 4 4203.92 296.327 1
4 -1 4 3749.93 218.915 1
4 -1 4 3871.97 349.785 2
4 1 4 4122.69 379.113 2
4 1 5 7483.16 417.229 1
4 -1 5 7692.92 357.03 1
4 -1 5 7140.94 487.697 2
4 1 5 6878.27 506.966 2
4 1 6 5287.02 366.772 1
4 -1 6 5831.85 329.8 1
4 -1 6 5514.06 441.271 2
4 1 6 5690.45 471.515 2
4 -1 7 21835.8 1024.47 3
4 1 7 21891.8 903.224 1
4 -1 7 22278.7 829.149 1
4 -1 7 20414.6 983.148 2
4 1 7 23384 1077.62 2
4 -1 8 2306.65 324.625 2
4 1 8 2034.95 346.493 2
4 -1 8 2178.59 339.667 3
4 -1 8 2355.37 234.235 1
4 1 8 2302.05 262.912 1
4 -1 9 5544.74 509.708 3
4 1 9 4670.83 402.123 1
4 -1 9 4414.57 458.919 2
4 1 9 4835.63 518.305 2
4 -1 10 233.096 165.791 2
4 1 10 340.824 211.528 2
4 -1 10 629.982 210.262 3
4 1 10 363.227 146.006 1
4 -1 11 2470.78 383.333 2
4 1 11 3360.79 511.39 2
4 -1 11 2863.55 392.819 3
4 2 -13 11276.5 751.135 4
4 2 -12 6135.8 518.546 4
4 2 -11 20465.5 991.248 4
4 2 -10 8125.94 540.402 4
4 -2 -10 7589.84 502.547 3
4 2 -9 23866.8 1027.42 4
4 -2 -9 29355.9 1107.2 3
4 -2 -8 11096.3 712.639 2
4 2 -8 11826.4 616.999 4
4 -2 -8 13257.1 670.06 3
4 2 -7 34981.6 741.24 2
4 -2 -7 34052.9 1068.27 2
4 2 -7 35051.8 872.42 4
4 -2 -7 36425.3 941.251 3
4 -2 -6 10446.2 628.932 2
4 2 -6 10471.6 519.079 4
4 2 -6 10881.3 476.481 2
4 -2 -6 9643.94 548.312 3
4 2 -6 9912.99 361.131 3
4 2 -5 24882.4 774.719 3
4 2 -5 24789.8 896.955 4
4 -2 -5 23802.7 1023.48 2
4 2 -5 24544.3 854.106 2
4 -2 -5 24163.5 951.099 3
4 2 -4 3385.01 219.473 3
4 2 -4 3686.08 254.957 6
4 2 -4 3805.31 270.923 4
4 -2 -4 3677.02 345.39 2
4 2 -4 3318.87 249.111 2
4 -2 -4 3462.95 300.477 3
4 2 -3 11487 497.263 4
4 -2 -3 11662.9 607.997 2
4 2 -3 11029.4 498.594 2
4 -2 -3 10758.8 552.102 3
4 -2 -2 10819.6 546.262 3
4 2 -2 11053.1 475.498 4
4 -2 -2 10763.3 578.256 2
4 2 -2 10472.9 487.402 2
4 -2 -1 18239.7 770.8 3
4 2 -1 18516.4 679.339 4
4 -2 -1 18874.1 804.421 2
4 2 -1 18162.5 719.488 2
4 -2 0 10842.3 574.156 3
4 2 0 12058.7 502.237 4
4 -2 0 11232.1 584.287 2
4 2 0 11292 544.474 2
4 -2 1 34285.9 1220.76 3
4 2 1 34517.1 1110.5 4
4 -2 1 35705.7 1257.54 2
4 2 1 34136.6 1196.93 2
4 -2 2 23720 955.018 3
4 2 2 24214.5 877.748 1
4 2 2 23317.8 847.335 4
4 -2 2 25268.1 980.912 2
4 2 2 24391.9 950.346 2
4 -2 3 29209.8 1125.05 3
4 2 3 30873.7 1057.32 1
4 -2 3 29729.7 1130.45 2
4 -2 4 8573.46 528.755 3
4 -2 4 10309.4 343.491 1
4 2 4 9221.59 499.084 1
4 -2 4 9111.71 547.512 2
4 -2 5 32267.6 1247.47 3
4 2 5 31875.6 1160.24 1
4 -2 5 33240.1 974.998 1
4 -2 5 31964.3 1239.31 2
4 -2 6 12008.4 684.734 3
4 2 6 12931.6 638.755 1
4 -2 6 12360.7 487.88 1
4 -2 6 11349.6 661.8 2
4 -2 7 30756 1244.6 3
4 2 7 29837.2 1158.5 1
4 -2 7 27924.9 1198.36 2
4 -2 8 9370.33 649.97 3
4 2 8 10442.6 614.462 1
4 -2 8 10146 654.233 2
4 -2 9 15311.3 867.175 3
4 2 9 14287.6 783.381 1
4 -2 9 14258.6 841.617 2
4 -2 10 6937.42 574.038 3
4 2 10 5844.62 523.185 1
4 -2 10 6669.72 587.446 2
4 2 10 7601.45 707.959 2
4 -2 11 11079.2 786.975 2
4 3 -13 34.2009 103.904 4
4 3 -12 9837.41 697.471 4
4 3 -11 143.213 136.415 4
4 3 -10 10659.8 640.263 4
4 -3 -10 10673.9 660.518 3
4 -3 -9 850.533 225.628 3
4 3 -9 521.414 142.265 4
4 -3 -8 12327.3 799.181 2
4 3 -8 13183.3 680.199 4
4 -3 -8 14888.7 783.376 3
4 -3 -7 1519.03 242.021 3
4 3 -7 1695.23 222.673 4
4 -3 -7 1441.1 282.321 2
4 3 -6 15774.9 468.387 3
4 -3 -6 14545 819.076 2
4 3 -6 15526.8 547.757 2
4 3 -6 14748.7 688.318 4
4 3 -6 14742.9 477.635 3
4 -3 -6 14402.8 744.452 3
4 -3 -5 253.931 155.82 2
4 3 -5 146.261 71.1519 2
4 3 -5 186.812 60.0546 3
4 -3 -5 372.378 162.98 3
4 3 -5 341.935 124.907 4
4 -3 -4 15630.3 789.924 2
4 3 -4 15238.1 648.1 4
4 3 -4 15091.2 574.534 2
4 -3 -4 14712.5 714.852 3
4 3 -3 3598.53 282.92 4
4 -3 -3 3600.04 379.275 2
4 3 -3 3695.12 252.195 2
4 -3 -3 3790.59 335.215 3
4 3 -2 32915.9 1112.81 4
4 -3 -2 35424.3 1262.41 2
4 3 -2 31888.3 1076.7 2
4 -3 -2 34047.4 1225.23 3
4 -3 -1 540.703 185.181 2
4 -3 -1 582.65 184.397 3
4 3 -1 546.824 147.723 2
4 3 -1 475.077 135.34 4
4 -3 0 28846.3 1084.84 3
4 3 0 28199.2 991.413 4
4 -3 0 27791.5 1083.79 2
4 3 0 27420.5 1003.12 2
4 -3 1 4176.82 366.689 3
4 3 1 4181.08 328.275 1
4 3 1 3940.5 295.615 4
4 -3 1 4033.89 354.599 2
4 -3 2 7977.57 505.128 3
4 3 2 6941.15 436.983 1
4 3 2 7233.35 425.591 4
4 -3 2 7861.94 505.358 2
4 -3 3 10180.4 590.078 3
4 3 3 10706.7 559.255 1
4 3 3 10525 532.771 4
4 -3 3 11086.1 622.813 2
4 -3 4 3257.51 336.532 3
4 3 4 3132.72 301.908 1
4 -3 4 3351.4 352.248 2
4 -3 5 142.869 125.586 2
4 -3 5 -153.823 134.563 3
4 3 5 149.16 140.502 1
4 -3 6 8965.48 599.165 3
4 3 6 9894.48 584.89 1
4 -3 6 9347.15 591.759 2
4 -3 7 55.2471 142.94 2
4 -3 7 717.543 240.573 3
4 -3 7 603.46 127.724 5
4 3 7 558.993 165.63 1
4 -3 8 6526.58 528.163 3
4 3 8 7652.28 549.858 1
4 -3 8 6403.11 512.453 2
4 -3 9 181.523 127.437 2
4 -3 9 -19.3096 134.661 3
4 3 9 185.266 132.319 1
4 -3 10 3079.44 362.786 2
4 -3 10 2920.6 382.623 3
4 3 10 2986 366.038 1
4 3 11 406.322 146.527 1
4 4 -13 8849.95 688.416 4
4 4 -12 1966.81 323.681 4
4 4 -11 12297.2 755.907 4
4 -4 -10 1990.54 324.097 3
4 4 -10 1385.68 244.668 4
4 4 -9 15996.2 817.49 4
4 -4 -9 16197.9 923.611 3
4 -4 -8 1177.94 256.309 3
4 4 -8 901.211 185.671 4
4 -4 -7 20441.7 1094.91 2
4 4 -7 22764.9 957.037 4
4 -4 -7 22406.8 1061.79 3
4 4 -6 6913.63 258.494 3
4 -4 -6 5987.53 542.234 2
4 4 -6 7035.66 454.105 4
4 -4 -6 6225.28 491.928 3
4 4 -6 6421.49 265.121 3
4 -4 -5 36031.8 1450.13 2
4 4 -5 35147.1 1261.66 4
4 4 -5 37121 1052.12 2
4 4 -5 36120.5 1137.95 3
4 -4 -5 33099.9 1365.64 3
4 -4 -4 13260.6 759.877 2
4 4 -4 12658.5 617.144 4
4 4 -4 12418.6 486.601 2
4 4 -4 12533.2 574.776 3
4 -4 -4 11615.6 675.017 3
4 -4 -3 56380.5 1915.45 2
4 4 -3 55106.6 1741.94 4
4 4 -3 55791.3 1618.35 2
4 -4 -3 54866 1865.64 3
4 -4 -2 9041.05 597.709 2
4 4 -2 8505.38 490.384 4
4 4 -2 9380.79 446.534 2
4 -4 -2 10477.6 600.545 3
4 -4 -1 52718.5 1756.24 2
4 4 -1 49187.5 1628.84 4
4 4 -1 49936.9 1573.45 2
4 -4 -1 53744.3 1763.59 3
4 -4 0 13823.4 730.597 2
4 4 0 14343.6 669.267 4
4 -4 0 15089.4 746.715 3
4 -4 1 34854 1331.2 3
4 4 1 36680.7 1258.68 4
4 -4 1 35079 1322.93 2
4 -4 2 3729.11 372.796 3
4 4 2 3519.39 324.807 1
4 4 2 3659.02 317.327 4
4 -4 2 3860.49 354.386 2
4 -4 3 22548.8 1012.64 3
4 4 3 23501.5 989.195 1
4 4 3 23652.5 960.291 4
4 -4 4 9991.05 611.399 3
4 4 4 10005 582.987 1
4 -4 4 9053.7 577.966 2
4 -4 5 14418.9 774.473 3
4 4 5 13327.5 720.606 1
4 -4 5 14277.4 750.014 2
4 -4 6 5138.77 465.641 3
4 4 6 5607.31 449.228 1
4 -4 6 5623.51 458.151 2
4 -4 7 11521.7 727.491 3
4 -4 7 13292 694.658 5
4 4 7 12576.3 736.987 1
4 -4 7 13854 773.226 2
4 -4 8 2795.61 356.661 2
4 -4 8 3002.35 372.512 3
4 -4 8 2246.82 292.323 5
4 4 8 2782.55 350.057 1
4 -4 9 11932.4 765.838 3
4 4 9 12618 799.039 1
4 -4 9 13207.2 802.047 2
4 4 10 407.514 158.066 1
4 5 -12 4750.25 489.858 4
4 5 -11 5521.68 504.191 4
4 5 -10 7598.96 581.766 4
4 -5 -10 7669.86 641.531 3
4 5 -9 11670 709.417 4
4 -5 -9 11485.6 817.916 3
4 5 -8 6917.05 522.221 4
4 -5 -8 6680.16 598.479 3
4 -5 -7 4946.57 509.3 2
4 5 -7 4205.79 387.613 4
4 -5 -7 4979.14 495.816 3
4 -5 -6 7696.69 634.683 2
4 5 -6 7895.41 518.654 4
4 -5 -6 7637.72 594.427 3
4 -5 -5 2692.15 374.596 2
4 -5 -5 2899.28 354.785 3
4 5 -5 2998.53 298.611 4
4 5 -5 3020.8 126.972 2
4 -5 -4 7980.03 606.152 2
4 5 -4 7827.71 497.307 4
4 5 -4 8442.61 361.177 2
4 -5 -4 7512.7 570.264 3
4 -5 -3 3684.38 394.347 2
4 5 -3 3900 336.799 4
4 5 -3 3886.93 249.988 2
4 -5 -3 3970.04 402.924 3
4 -5 -2 4319.94 426.16 2
4 5 -2 4082.57 355.792 4
4 5 -2 4450.24 297.862 2
4 -5 -2 4349.16 433.067 3
4 -5 -1 4450.8 414.539 2
4 5 -1 5375.35 394.219 4
4 -5 -1 4647.28 441.595 3
4 5 -1 5696.86 358.174 2
4 -5 0 2741.41 337.223 2
4 -5 0 2415.3 314.008 3
4 5 0 2473.24 277.403 4
4 -5 1 6975.63 513.232 2
4 5 1 7488.38 488.037 4
4 -5 1 5631.4 490.308 3
4 5 2 3948.59 372.303 1
4 -5 2 3777.27 379.531 2
4 5 2 3499.8 348.251 4
4 -5 2 3795.52 390.56 3
4 5 3 5419.66 442.018 1
4 -5 3 5478.27 452.004 2
4 5 3 5057.28 423.06 4
4 -5 3 4626.42 440.548 3
4 -5 4 2822.75 358.327 3
4 5 4 3360.36 373.097 1
4 -5 4 3056.08 336.746 2
4 5 4 3460.42 347.626 4
4 -5 5 10764.1 683.252 3
4 5 5 10583.9 666.69 1
4 -5 5 10180.2 637.25 2
4 -5 6 4146.57 427.788 3
4 -5 6 4343.65 405.97 5
4 5 6 4513.12 428.245 1
4 -5 6 4166.17 399.461 2
4 -5 7 3808.44 420.342 3
4 -5 7 4587.69 416.607 5
4 5 7 4488.07 454.47 1
4 -5 7 5020.67 444.757 2
4 -5 8 7933.09 602.381 3
4 -5 8 7529.11 550.978 5
4 5 8 7202.42 612.686 1
4 -5 8 7276.6 560.462 2
4 5 9 3975.58 467.515 1
4 6 -11 504.38 203.274 4
4 6 -10 21740.9 1096.51 4
4 -6 -10 21951.3 1250.16 3
4 -6 -9 119.356 199.345 3
4 6 -9 204.397 148.539 4
4 6 -8 21387.9 1025.47 4
4 -6 -8 20247.9 1173.48 3
4 -6 -7 444.528 233.645 3
4 6 -7 403.029 186.033 4
4 -6 -6 19301.3 1107.03 2
4 6 -6 18945 902.509 4
4 -6 -6 17525.5 1027.93 3
4 -6 -5 666.386 233.24 3
4 6 -5 380.977 161.578 4
4 -6 -5 293.447 275.128 2
4 -6 -4 29358.2 1360.07 2
4 6 -4 29486.8 1189.86 4
4 -6 -4 29977.8 1341.86 3
4 -6 -3 1185.89 294.597 2
4 -6 -3 1506.37 296.094 3
4 6 -3 1410.01 224.98 4
4 6 -3 1681.26 160.077 2
4 -6 -2 20424.7 1030.53 2
4 6 -2 18601.7 904.696 4
4 -6 -2 20689.2 1038.04 3
4 6 -2 19793.3 754.21 2
4 -6 -1 1795.7 286.516 2
4 -6 -1 1444.3 288.818 3
4 6 -1 1636.11 233.815 4
4 -6 0 18162.7 933.328 2
4 6 0 17638.6 871.641 4
4 -6 0 18899.3 970.415 3
4 -6 1 7986.64 579.342 2
4 6 1 8186.46 552.726 4
4 -6 1 7199.59 573.442 3
4 6 2 18588.4 948.292 1
4 -6 2 18829.7 935.047 2
4 6 2 19539.6 926.841 4
4 -6 2 18733.7 984.792 3
4 -6 3 3032.5 364.121 2
4 -6 3 2547.05 375.611 3
4 6 3 2668.75 343.642 1
4 6 3 2379.12 310.952 4
4 6 4 35231.6 1437.02 1
4 -6 4 32749.1 1369.27 2
4 6 4 35986.2 1402.68 4
4 -6 4 33185.1 1422.83 3
4 -6 5 799.041 201.01 2
4 -6 5 470.579 180.598 3
4 -6 5 639.77 180.584 5
4 6 5 540.859 196.458 1
4 6 5 1079.36 234.978 4
4 -6 6 24024.4 1114.33 5
4 6 6 23524.4 1157.83 1
4 -6 6 23568.6 1095.51 2
4 -6 6 22461.6 1128.44 3
4 -6 7 -127.614 124.4 3
4 -6 7 191.461 131.222 5
4 6 7 112.167 126.569 1
4 -6 8 14790 846.596 5
4 6 8 14076.2 903.284 1
4 -6 8 13687.2 852.579 3
4 -7 -10 620.026 258.727 3
4 7 -10 259.018 166.89 4
4 7 -9 9681.39 690.516 4
4 -7 -9 8500.81 789.417 3
4 -7 -8 758.523 294.533 3
4 7 -8 1034.58 253.089 4
4 7 -7 5622.45 506.461 4
4 -7 -7 5611.3 587.452 3
4 -7 -6 501.886 217.496 3
4 7 -6 757.208 199.17 4
4 -7 -5 11488.3 870.188 2
4 7 -5 12011.1 719.078 4
4 -7 -5 11778.2 852.024 3
4 -7 -4 1104.28 272.981 3
4 7 -4 1329.98 256.918 4
4 -7 -4 1622.33 338.46 2
4 -7 -3 15680.6 944.369 2
4 7 -3 14952 812.223 4
4 -7 -3 14663.5 933.685 3
4 -7 -2 1236.4 286.787 2
4 -7 -2 668.012 275.459 3
4 7 -2 912.746 152.483 2
4 7 -2 961.386 209.901 4
4 -7 -1 14422.1 870.409 2
4 7 -1 15304.7 827.403 4
4 -7 -1 15614.5 924.455 3
4 -7 0 471.757 229.284 2
4 -7 0 347.632 212.115 3
4 7 0 711.492 220.313 4
4 -7 1 12608.4 780.663 2
4 7 1 12870.9 765.139 4
4 -7 1 13072.2 831.969 3
4 -7 2 622.596 198.222 2
4 -7 2 438.234 214.428 3
4 7 2 269.533 132.496 4
4 -7 3 7802.74 584.823 5
4 7 3 7140.96 596.737 1
4 -7 3 8216.12 603.505 2
4 7 3 6616.03 548.326 4
4 -7 3 8148.97 637.26 3
4 -7 4 58.8931 110.902 2
4 -7 4 299.132 216.503 3
4 -7 4 408.405 162.383 5
4 7 4 276.721 144.98 1
4 7 4 305.217 139.482 4
4 -7 5 2524.81 347.105 2
4 -7 5 2774.84 394.422 3
4 -7 5 2878.16 380.039 5
4 7 5 3410.04 444.834 1
4 7 5 3246.66 406.687 4
4 -7 6 173.645 153.097 3
4 -7 6 219.965 133.71 5
4 7 6 519.421 170.609 4
4 -7 7 685.519 211.633 3
4 -7 7 985.484 232.253 5
4 7 7 910.159 243.735 1
4 7 7 1141.24 244.14 4
4 -7 8 -169.786 126.377 5
4 -8 -9 5648.24 663.865 3
4 8 -9 6125.51 575.548 4
4 -8 -8 8156.58 570.518 5
4 8 -8 8026.35 653.087 4
4 -8 -8 7556.83 769.102 3
4 -8 -7 5752.83 689.301 3
4 8 -7 4536.5 465.865 4
4 8 -6 10194.5 705.116 4
4 -8 -6 10581.7 875.191 3
4 8 -5 11658.5 762.878 4
4 -8 -5 11422.1 887.455 3
4 -8 -4 13405.2 980.063 2
4 8 -4 14615.8 847.549 4
4 -8 -4 14308.3 985.939 3
4 -8 -3 17292.3 1069 2
4 8 -3 18016.2 966.244 4
4 -8 -3 18683.4 1129.71 3
4 -8 -2 8945.21 720.586 2
4 8 -2 9370.59 664.04 4
4 -8 -2 8912.63 759.626 3
4 -8 -1 11850 830.473 2
4 8 -1 13356.5 823.551 4
4 -8 -1 12931.5 898.68 3
4 -8 0 7319.6 620.506 2
4 8 0 8042.51 624.087 4
4 -8 0 9089.99 754.52 3
4 -8 1 8406.05 610.312 5
4 -8 1 7005.23 607.871 2
4 8 1 8106.92 624.234 4
4 -8 1 7455.77 666.289 3
4 -8 2 6016.15 526.836 5
4 -8 2 6611.24 554.808 2
4 8 2 6117.23 560.383 4
4 -8 2 4888.1 551.152 3
4 -8 3 13205.6 822.995 5
4 -8 3 12806.6 812.141 2
4 8 3 13146.5 839.641 4
4 -8 3 12261.5 849.737 3
4 -8 4 9386.82 696.15 5
4 8 4 8752.65 698.147 1
4 8 4 8283.63 660.458 4
4 -8 4 8483.12 703.935 3
4 -8 5 13346.9 858.152 5
4 8 5 13043.4 894.514 1
4 8 5 12619.9 845.618 4
4 -8 5 11507.7 821.719 3
4 -8 6 3961.74 486.89 3
4 -8 6 5403.87 554.917 5
4 -9 -7 212.498 139.3 5
4 -9 -6 5399.18 664.332 3
4 -9 -6 3632.97 405.9 5
4 9 -6 5457.37 518.222 4
4 -9 -5 630.782 259.359 3
4 -9 -5 1204.75 232.779 5
4 9 -5 986.449 266.518 4
4 -9 -4 5608.26 661.241 3
4 -9 -4 4539.64 470.415 5
4 9 -4 5831.2 527.797 4
4 -9 -3 765.946 288.508 3
4 -9 -3 386.341 196.752 5
4 9 -3 467.017 205.271 4
4 -9 -3 895.793 290.983 2
4 -9 -2 2219.24 414.874 3
4 -9 -2 1509.89 290.389 5
4 9 -2 2679.45 386.422 4
4 -9 -2 1633.56 354.971 2
4 -9 -1 1468.58 366.805 3
4 -9 -1 1003.52 254.72 5
4 9 -1 707.163 267.503 4
4 -9 -1 1526.06 344 2
4 -9 0 1980.21 352.82 2
4 -9 0 2196.7 391.577 3
4 -9 0 2302.9 355.764 5
4 9 0 2286.86 336.144 4
4 -9 1 1192.36 286.865 2
4 -9 1 948.845 286.473 3
4 -9 1 1831.35 306.298 5
4 9 1 1338.54 301.795 4
4 -9 2 6655.85 602.297 5
4 9 2 7275.74 661.108 4
4 -9 2 7308.82 702.72 3
4 -9 3 1028.75 301.747 3
4 -9 3 579.38 176.542 5
4 9 3 438.018 179.506 4
4 -9 4 9186.93 780.809 3
4 -9 5 523.318 226.615 3
5 0 -10 43.083 106.363 4
5 0 -9 19871.6 939.64 2
5 0 -9 18004.7 833.783 4
5 0 -9 17857.6 705.364 3
5 0 -8 -36.459 133.76 2
5 0 -8 10.7047 71.0255 3
5 0 -8 -101.91 73.1664 4
5 0 -7 28562.4 947.251 6
5 0 -7 26968.3 1037.6 4
5 0 -7 29730.5 1180.76 2
5 0 -6 -34.2961 120.014 2
5 0 -6 21.9336 94.8062 3
5 0 -6 -23.3861 71.4894 4
5 0 -5 5207.93 347.935 3
5 0 -5 5598.96 320.457 4
5 0 -5 5092.41 395.396 2
5 0 -4 25.5336 126.111 2
5 0 -4 -15.964 112.847 3
5 0 -4 19.0236 63.1576 4
5 0 -3 14374.4 656.767 3
5 0 -3 16061.3 567.343 4
5 0 -3 14683.9 700.636 2
5 0 -2 25.1635 138.22 2
5 0 -2 46.2298 129.308 3
5 0 -2 11.7001 45.6912 4
5 0 -1 14901.9 688.668 3
5 0 -1 15547.4 526.139 4
5 0 -1 16471.8 748.922 2
5 0 0 67.1767 170.201 2
5 0 0 34.1359 40.417 4
5 0 1 30741 884.145 4
5 0 1 29061 1151.76 2
5 0 2 442.837 189.039 2
5 0 2 55.9399 45.6233 4
5 0 3 11053.6 422.274 4
5 0 3 10549.8 629.024 2
5 0 4 4.50642 138.883 2
5 0 4 50.1892 59.0821 1
5 0 4 4.8335 53.8392 4
5 0 5 12777.5 552.061 1
5 0 5 12350.3 500.786 4
5 0 5 11601.5 719.883 2
5 0 6 7.58153 158.279 2
5 0 6 -117.259 67.7541 1
5 0 7 6255.63 551.363 2
5 0 8 -344.296 230.643 2
5 0 9 8506.71 707.985 2
5 0 10 -825.072 244.026 2
5 0 10 128.173 137.667 3
5 1 -12 12270.8 761.214 4
5 1 -11 3872.62 394.323 4
5 1 -10 19349 925.541 4
5 -1 -10 19857.6 819.124 3
5 1 -9 13754.9 708.976 2
5 -1 -9 13181.1 805.709 2
5 1 -9 13756.7 708.637 4
5 -1 -9 15399.7 696.959 3
5 -1 -8 25556.4 999.267 4
5 1 -8 24807.6 1005.16 4
5 1 -8 26314.7 1055.65 2
5 -1 -8 25330 1160.15 2
5 1 -8 26747.6 847.658 3
5 -1 -8 27259.1 1027.09 3
5 1 -7 11401.9 483.405 6
5 -1 -7 11680.5 570.372 4
5 1 -7 12226 589.771 4
5 -1 -7 11576.3 692.92 2
5 1 -7 13643.7 664.201 2
5 -1 -7 12682.6 627.132 3
5 1 -7 12566 518.136 3
5 1 -6 9632.46 454.716 6
5 -1 -6 10734.2 504.814 4
5 1 -6 11104.5 531.306 4
5 -1 -6 9912.87 625.683 2
5 1 -6 10131.5 569.07 2
5 -1 -6 10721.6 558.926 3
5 1 -6 11146.8 487.097 3
5 1 -5 5392.35 328.127 3
5 -1 -5 4531.77 287.501 4
5 1 -5 5055.51 321.673 4
5 -1 -5 4550.89 408.596 2
5 1 -5 4631.96 356.229 2
5 -1 -5 4129.68 341.249 3
5 -1 -4 25971 1036.8 3
5 1 -4 29665.3 1008.48 3
5 -1 -4 30851.5 940.397 4
5 1 -4 29825.1 980.204 4
5 -1 -4 28201 1129.14 2
5 1 -4 27210.2 1052.18 2
5 -1 -3 10809 568.696 3
5 1 -3 11693 541.032 3
5 -1 -3 11288.8 431.648 4
5 1 -3 11490.6 488.102 4
5 -1 -3 10897.5 611.714 2
5 1 -3 10481.5 560.098 2
5 -1 -2 60154.9 1893.74 3
5 1 -2 58727.5 1842.88 3
5 -1 -2 61067.3 1647.2 4
5 1 -2 62553.9 1742.89 4
5 -1 -2 58913.5 1930 2
5 1 -2 60206.2 1896.91 2
5 -1 -1 21915.9 909.512 3
5 -1 -1 22941.7 656.667 4
5 1 -1 23193.2 771.845 4
5 -1 -1 22169.8 952.256 2
5 1 -1 21922.8 910.426 2
5 -1 0 49889 1711.38 3
5 -1 0 53556 1371.44 4
5 1 0 55110.3 1541.96 4
5 -1 0 54441.2 1791.59 2
5 1 0 49817.5 1716.94 2
5 -1 1 5974.12 428.095 3
5 1 1 6251.27 322.864 4
5 -1 1 6621.97 480.442 2
5 1 1 6062.95 441.511 2
5 -1 2 10011.9 593.134 3
5 1 2 11635.3 480.602 4
5 -1 2 11670.5 647.581 2
5 1 2 10843.8 620.106 2
5 -1 3 2379.39 314.53 3
5 1 3 3104.16 253.933 1
5 1 3 3325.52 234.785 4
5 -1 3 2789.15 318.334 2
5 1 3 2956 333.699 2
5 -1 4 16341.5 842.742 3
5 -1 4 19240.5 623.223 1
5 1 4 17279.3 721.113 1
5 1 4 17941.4 687.855 4
5 -1 4 16864 857.508 2
5 1 4 16451.9 866.245 2
5 -1 5 8313.31 596.461 3
5 1 5 10413.1 522.9 1
5 -1 5 8677.4 599.725 2
5 1 5 9223.11 627.486 2
5 -1 6 32263.6 1363.17 3
5 1 6 33787.4 1191.54 1
5 -1 6 31283.7 1342.57 2
5 1 6 32001.5 1378.8 2
5 -1 7 6111.3 538.811 3
5 1 7 6047.48 426.266 1
5 -1 7 5216.65 498.965 2
5 1 7 6790.46 597.731 2
5 -1 8 16731.7 985.428 3
5 -1 8 17122.5 996.377 2
5 -1 9 1824.85 332.779 2
5 1 9 1632.15 346.356 2
5 -1 9 1544.69 319.944 3
5 -1 10 9938.83 772.141 3
5 -1 10 9187.75 772.932 2
5 2 -13 1422.01 272.742 4
5 2 -12 6126.68 538.431 4
5 2 -11 2493.77 314.308 4
5 2 -10 8867.6 584.285 4
5 -2 -10 9662.13 594.393 3
5 -2 -9 13745.9 876.692 2
5 2 -9 14922 748.047 4
5 -2 -9 15711.9 789.57 3
5 2 -8 20387.5 830.334 2
5 -2 -8 19074.3 1033.78 2
5 2 -8 19916.1 881.814 4
5 -2 -8 22778.4 965.045 3
5 2 -7 14398 677.401 4
5 -2 -7 13501.4 792.676 2
5 2 -7 13574.9 637.81 2
5 -2 -7 14339.3 739.236 3
5 2 -7 14213.3 511.219 3
5 2 -6 18628.7 654.587 3
5 2 -6 16897.5 744.405 4
5 -2 -6 17829.6 912.899 2
5 2 -6 17728.7 750.339 2
5 -2 -6 17863.3 828.132 3
5 2 -5 2959.49 228.26 3
5 2 -5 3275.61 277.901 4
5 -2 -5 3084.72 345.13 2
5 2 -5 2777.86 275.9 2
5 -2 -5 3023.63 306.271 3
5 2 -4 5799.24 349.675 3
5 2 -4 6121.94 370.6 4
5 -2 -4 5692.11 459.093 2
5 2 -4 6053.86 383.77 2
5 -2 -4 5524.83 414.048 3
5 -2 -3 565.337 193.765 2
5 2 -3 971.157 195.255 2
5 -2 -3 792.456 191.991 3
5 2 -3 853.133 144.008 4
5 -2 -2 10166.4 571.12 3
5 2 -2 10031.8 476.859 4
5 -2 -2 10716.1 609.345 2
5 2 -2 9982.18 531.26 2
5 -2 -1 4994.82 404.449 3
5 2 -1 5689.85 333.225 4
5 -2 -1 4927.94 415.991 2
5 2 -1 5680.31 397.522 2
5 -2 0 17511.5 799.748 3
5 2 0 17446.1 672.438 4
5 -2 0 16156 800.511 2
5 2 0 16001.9 757.62 2
5 -2 1 13948.8 724.764 3
5 2 1 15127.7 623.449 4
5 -2 1 14791.2 765.639 2
5 2 1 14458.8 722.466 2
5 -2 2 8653.98 556.847 3
5 2 2 9379.1 457.896 4
5 -2 2 8820.69 570.036 2
5 2 2 8097.29 542.78 2
5 -2 3 1553.53 272.399 2
5 2 3 2026.13 286.702 2
5 -2 3 1944.56 270.786 3
5 2 3 1766.76 223.717 1
5 2 3 1965.89 204.007 4
5 -2 4 5465.37 469.519 3
5 2 4 6302.64 411.957 1
5 2 4 6089.04 376.886 4
5 -2 4 5568.28 476.181 2
5 2 4 5217 460.611 2
5 -2 5 2172.35 311.153 2
5 -2 5 2412.02 325.396 3
5 2 5 2183.82 317.776 2
5 2 5 3147.86 298.481 1
5 2 5 2777.88 252.878 4
5 -2 6 3098.53 361.011 2
5 -2 6 2623.71 338.227 3
5 2 6 3117.42 393.656 2
5 2 6 3168.83 319.909 1
5 -2 7 1059.66 229.874 2
5 -2 7 560.346 206.747 3
5 2 7 700.004 264.328 2
5 2 7 863.655 190.591 1
5 -2 8 2812.77 382.078 2
5 -2 8 3059.74 409.406 3
5 2 8 2996.65 453.495 2
5 2 8 3772.6 369.209 1
5 -2 9 2104.07 350.125 2
5 -2 9 2437.79 390.959 3
5 2 9 1747.46 371.214 2
5 -2 10 4628.77 517.986 2
5 -2 10 2989.95 457.431 3
5 3 -13 11050.2 780.333 4
5 3 -12 1487.01 266.604 4
5 3 -11 17190.8 920.044 4
5 -3 -11 17470 913.425 3
5 -3 -10 1854.26 270.745 3
5 3 -10 1905.37 285.767 4
5 -3 -9 26477 1346.9 2
5 3 -9 26853.9 1140.03 4
5 -3 -9 30041.7 1263.84 3
5 -3 -8 181.735 154.785 3
5 3 -8 314.745 134.554 4
5 -3 -8 361.53 197.223 2
5 -3 -7 22711.5 1159.7 2
5 3 -7 24106.7 863.539 2
5 3 -7 23320.4 988.911 4
5 -3 -7 22667.2 1061.36 3
5 3 -7 26072.5 734.036 3
5 -3 -6 2448.42 363.277 2
5 3 -6 2803.4 192.09 3
5 -3 -6 2884.61 335.102 3
5 3 -6 2857.49 238.927 2
5 3 -6 2281.6 254.542 4
5 3 -5 18139.6 668.007 3
5 3 -5 17194.7 760.151 4
5 -3 -5 17985.6 929.295 2
5 3 -5 18125.6 723.22 2
5 -3 -5 16816.8 841.595 3
5 3 -4 3898.96 306.031 4
5 -3 -4 3224.2 372.203 2
5 3 -4 3846.48 295.277 2
5 -3 -4 3450.25 344.981 3
5 3 -3 38251.5 1267.04 4
5 -3 -3 38108.7 1437.75 2
5 3 -3 36671.7 1248.96 2
5 -3 -3 35844 1371.58 3
5 -3 -2 2588.55 312.982 3
5 -3 -2 2457.83 351.055 2
5 3 -2 2628.95 242.44 4
5 3 -2 2468.97 253.206 2
5 -3 -1 50037.7 1731.01 3
5 3 -1 50608.3 1599.47 4
5 -3 -1 52897.7 1791.07 2
5 3 -1 49632.7 1637.22 2
5 -3 0 1017.84 221.792 2
5 -3 0 1315.57 249.134 3
5 3 0 990.516 199.354 2
5 3 0 1374.85 185.424 4
5 -3 1 26479.4 1117.39 3
5 3 1 27290.8 997.875 4
5 -3 1 27238.2 1122.17 2
5 3 1 25940.1 1067.1 2
5 -3 2 1279.87 254.68 2
5 -3 2 1011.24 232.788 3
5 3 2 794.352 207.398 2
5 3 2 1162.56 188.865 4
5 -3 3 19115.3 935 3
5 3 3 21443.9 885.713 1
5 3 3 20659.7 832.864 4
5 -3 3 18814.9 931.97 2
5 3 3 18485.4 921.583 2
5 -3 4 383.3 187.873 2
5 -3 4 285.975 197.538 3
5 3 4 434.199 194.335 2
5 3 4 349.722 146.149 1
5 3 4 436.96 128.422 4
5 -3 5 32849.3 1375.66 3
5 3 5 33062.5 1288.56 1
5 3 5 34419.3 1248.81 4
5 -3 5 32571 1368.77 2
5 3 5 36743.7 1462.23 2
5 -3 6 82.041 146.948 2
5 -3 6 131.06 160.784 3
5 3 6 136.593 171.078 2
5 3 6 217.566 112.91 1
5 -3 7 28776.7 1315.03 3
5 3 7 29088.1 1230.36 1
5 -3 7 25962.2 1260.26 2
5 -3 8 1.79301 112.018 2
5 -3 8 -170.451 164.776 3
5 3 8 141.864 186.519 2
5 3 8 -104.933 70.249 1
5 -3 9 13034.4 887.115 3
5 3 9 13587.2 833.307 1
5 -3 9 13883 896.072 2
5 -3 10 -595.683 233.63 2
5 4 -12 3763.68 434.933 4
5 -4 -11 1600.61 300.704 3
5 4 -11 1565.7 278.349 4
5 4 -10 7416.29 564.005 4
5 -4 -10 7587.53 648.565 3
5 -4 -9 845.111 221.877 3
5 4 -9 701.066 180.929 4
5 -4 -8 13170.3 907.031 2
5 4 -8 12030.8 682.403 4
5 -4 -8 12469.2 788.637 3
5 -4 -7 4196.65 484.688 2
5 4 -7 3581.87 356.042 4
5 -4 -7 4134.53 437.862 3
5 4 -6 9075.51 384.72 3
5 -4 -6 8276.28 654.046 2
5 4 -6 8379.55 528.207 4
5 4 -6 9195.32 406.048 2
5 -4 -6 7394.42 574.126 3
5 -4 -5 4737.38 487.077 2
5 4 -5 4874.88 375.737 4
5 4 -5 5399.91 313.883 2
5 -4 -5 3761.56 418.775 3
5 -4 -4 5036.73 480.098 2
5 4 -4 5254.81 389.811 4
5 4 -4 5525.4 340.18 2
5 -4 -4 5307.05 457.567 3
5 4 -3 6264.77 414.968 4
5 -4 -3 5379.86 497.174 2
5 4 -3 5682.36 363.703 2
5 -4 -3 5710.84 470.929 3
5 4 -2 9522.91 524.083 4
5 -4 -2 9243.29 631.533 2
5 4 -2 10029.7 519.812 2
5 -4 -2 10035.2 649.646 3
5 -4 -1 1361.91 241.736 2
5 -4 -1 1392.28 270.107 3
5 4 -1 1290.6 201.479 2
5 4 -1 1148.06 192.712 4
5 -4 0 19879.2 956.133 3
5 4 0 19594.7 852.599 4
5 -4 0 20702.8 986.64 2
5 4 0 20532 882.527 2
5 -4 1 5733.66 480.24 3
5 4 1 6111.48 417.212 4
5 -4 1 6060.3 486.156 2
5 4 1 5320.8 431.97 2
5 -4 2 12820.1 743.69 3
5 4 2 12994.4 660.942 4
5 -4 2 12818.4 734.584 2
5 4 2 12971.8 716.629 2
5 -4 3 2283.39 330.544 2
5 -4 3 2041.73 315.197 3
5 4 3 1633.5 233.405 1
5 4 3 1980.3 310.194 2
5 4 3 1874.88 239.619 4
5 -4 4 4485.4 439.408 3
5 4 4 4083.71 396.747 1
5 4 4 4830.44 390.902 4
5 -4 4 3890.61 408.292 2
5 -4 5 2542.6 338.72 2
5 -4 5 2262.61 332.337 3
5 4 5 3415.62 370.618 1
5 4 5 3096.11 323.725 4
5 -4 6 5783.92 519.738 3
5 4 6 4366.12 433.27 1
5 4 6 5353.79 443.891 4
5 -4 6 4871.36 475.402 2
5 -4 7 940.671 240.144 2
5 -4 7 1390.83 289.835 3
5 -4 7 1748 241.974 5
5 4 7 1061.61 232.479 1
5 -4 8 6462.82 605.037 3
5 4 8 7395.06 600.76 1
5 -4 8 8530.39 643.033 2
5 -4 9 433.092 188.711 2
5 -4 9 104.972 105.742 3
5 4 9 384.458 168.927 1
5 5 -12 6295.14 574.878 4
5 5 -11 6878.46 577.176 4
5 -5 -11 6363.7 645.622 3
5 5 -10 13668.9 813.353 4
5 -5 -10 13378.3 919.676 3
5 -5 -9 4490.63 527.241 3
5 5 -9 5315.36 459.398 4
5 -5 -8 17537.5 1105.67 2
5 5 -8 17426.1 884.402 4
5 -5 -8 15603.8 980.897 3
5 -5 -7 6052.82 607.138 2
5 5 -7 6320.22 480.879 4
5 -5 -7 6187.41 558.685 3
5 -5 -6 22111.5 1190.59 2
5 5 -6 21985.1 978.519 4
5 -5 -6 21589.9 1120.14 3
5 -5 -5 17343.2 1004.69 2
5 5 -5 18223.8 849.043 4
5 5 -5 18145.3 656.531 2
5 -5 -5 18321 990.275 3
5 -5 -4 15898.4 935.258 2
5 5 -4 15314.6 764.103 4
5 5 -4 16493.4 658.251 2
5 -5 -4 15289.4 883.809 3
5 -5 -3 14856.8 871.82 2
5 5 -3 14734.1 729.763 4
5 5 -3 14187 625.976 2
5 -5 -3 14583.7 847.388 3
5 -5 -2 25102.2 1170.25 2
5 5 -2 24151.3 1010.41 4
5 5 -2 24643 937.88 2
5 -5 -2 23041.4 1112.51 3
5 -5 -1 8584.57 629.263 2
5 5 -1 8565.59 536.625 4
5 5 -1 9435.39 530.111 2
5 -5 -1 8207.21 633.618 3
5 -5 0 17447.8 925.216 2
5 5 0 17717.2 830.724 4
5 5 0 17422 807.189 2
5 -5 0 16943.3 935.109 3
5 -5 1 10238.3 689.01 2
5 5 1 10244.8 616.97 4
5 5 1 10948.4 634.363 2
5 -5 1 10756.5 707.26 3
5 -5 2 17982.7 937.246 2
5 5 2 17341.1 838.336 4
5 -5 2 16303.6 919.287 3
5 5 3 9028.06 607.812 1
5 5 3 7940.36 541.508 4
5 -5 3 7719.29 585.766 2
5 -5 3 8226.82 620.529 3
5 -5 4 12834 810.067 3
5 5 4 13779.3 785.606 1
5 5 4 12161.4 707.698 4
5 -5 4 13459.9 791.56 2
5 -5 5 4273.79 459.548 3
5 5 5 4703.03 444.775 1
5 5 5 4869.93 430.553 4
5 -5 5 4120.76 431.538 2
5 -5 6 8356.81 658.061 3
5 5 6 9920.08 683.479 1
5 5 6 9195.75 631.56 4
5 -5 6 9106.06 669.667 2
5 -5 7 5230.24 526.723 3
5 -5 7 4011.77 458.98 2
5 -5 7 4995.88 452.438 5
5 5 7 5401.49 523.824 1
5 5 7 5113.82 472.823 4
5 -5 8 5246.97 545.462 3
5 5 8 6137.96 564.513 1
5 5 8 6005.52 526.987 4
5 6 -11 13583.3 869.44 4
5 -6 -11 12524.8 961.54 3
5 -6 -10 3497.96 505.496 3
5 6 -10 3833.22 434.018 4
5 6 -9 9286.95 660.378 4
5 -6 -9 9287.49 804.774 3
5 -6 -8 4671.34 543.617 3
5 6 -8 3902.67 402.265 4
5 -6 -7 9049.56 810.306 2
5 6 -7 9606.56 642.813 4
5 -6 -7 8973.3 740.969 3
5 -6 -6 1274.52 352.604 2
5 6 -6 834.992 204.34 4
5 -6 -5 12530.9 876.714 2
5 6 -5 10634.4 654.889 4
5 -6 -5 11238 795.292 3
5 -6 -4 2138.38 337.061 2
5 -6 -4 2387.82 355.758 3
5 6 -4 2145.81 285.339 4
5 -6 -3 8446.66 677.226 2
5 6 -3 7602.12 537.479 4
5 6 -3 8589.31 444.557 2
5 -6 -3 8411.96 663.642 3
5 -6 -2 1689.83 326.224 2
5 -6 -2 938.707 294.586 3
5 6 -2 1724.34 212.205 2
5 6 -2 1229.5 241.924 4
5 -6 -1 9142.71 680.962 2
5 6 -1 7966.14 558.935 4
5 6 -1 8862.97 519.599 2
5 -6 -1 8540.27 652.39 3
5 -6 0 3510.3 432.851 2
5 6 0 3225.01 355.933 4
5 -6 0 3844.3 445.176 3
5 6 0 3157.58 324.449 2
5 -6 1 6097.42 543.983 2
5 6 1 6922.69 533.159 4
5 -6 1 6485.95 573.498 3
5 6 1 7075.95 504.97 2
5 -6 2 1212.99 265.211 2
5 -6 2 957.571 288.691 3
5 6 2 1532.16 263.188 4
5 -6 3 7557.75 598.587 2
5 6 3 7161.18 549.126 4
5 -6 3 8160.67 633.443 3
5 -6 4 2557.36 370.677 2
5 -6 4 3069.57 418.481 3
5 6 4 2522.02 330.819 1
5 6 4 2300 322.476 4
5 -6 5 3479.94 421.557 2
5 -6 5 3493.05 430.793 3
5 6 5 3720.16 448.643 1
5 6 5 3476.74 389.356 4
5 -6 6 235.072 123.184 2
5 -6 6 588.949 243.209 3
5 -6 6 356.07 127.426 5
5 6 6 205.543 162.917 1
5 6 6 696.576 179.173 4
5 -6 7 6935.1 572.386 5
5 6 7 6259.06 584.655 1
5 6 7 6695.79 586.98 4
5 -6 7 8390.94 707.514 3
5 6 8 1322.72 247.488 4
5 -7 -11 518.528 221.851 3
5 -7 -10 10195 901.743 3
5 -7 -9 1967.42 413.467 3
5 7 -9 1627.55 298.872 4
5 7 -8 9165.81 672.927 4
5 -7 -8 8112.45 784.507 3
5 -7 -7 2049.54 385.685 3
5 7 -7 2065.7 319.689 4
5 -7 -7 2455.55 453.035 2
5 -7 -6 22695.2 1321.02 2
5 7 -6 22100.4 1067.44 4
5 -7 -6 20018.8 1215.55 3
5 -7 -5 1910.93 399.459 2
5 -7 -5 2505.71 420.574 3
5 7 -5 1759.78 292.085 4
5 -7 -4 19102.6 1152.65 2
5 7 -4 20054.6 989.735 4
5 -7 -4 18815.9 1130.4 3
5 -7 -3 2360.9 376.049 2
5 -7 -3 2440.93 407.941 3
5 7 -3 2142.39 299.855 4
5 -7 -2 11785.2 842.528 2
5 7 -2 12017.1 730.101 4
5 -7 -2 11890.3 848.345 3
5 -7 -1 2327.16 376.799 2
5 -7 -1 2582.04 399.527 3
5 7 -1 2387.94 340.375 4
5 7 -1 2885.43 291.596 2
5 -7 0 11584.4 817.278 2
5 7 0 13225.6 785.489 4
5 -7 0 13242.5 888.431 3
5 7 0 12778.4 692.33 2
5 -7 1 1876.74 348.253 2
5 -7 1 2174.05 391.595 3
5 7 1 1802.66 293.167 4
5 -7 2 26024.6 1295.65 2
5 7 2 29451.4 1295.56 4
5 -7 2 28106.2 1377.02 3
5 -7 3 2402.22 358.553 2
5 -7 3 2781.18 409.125 3
5 7 3 2267.77 333.147 4
5 -7 4 20463.6 1069.76 5
5 -7 4 20145.9 1067.51 2
5 7 4 21070.8 1079.87 4
5 -7 4 20270 1143.3 3
5 -7 5 1680.88 323.281 3
5 7 5 2840.06 383.76 1
5 -7 5 2323.48 346.787 5
5 7 5 2311.86 341.592 4
5 -7 6 8883.2 679.397 5
5 7 6 9365.91 708.137 4
5 -7 6 9101.44 739.495 3
5 -8 -8 1121.36 293.124 3
5 8 -8 1113.63 275.896 4
5 -8 -7 2711.54 442.551 3
5 8 -7 2262.27 329.907 4
5 -8 -6 5181.28 614.473 3
5 8 -6 5067.82 490.744 4
5 -8 -6 4648.99 668.945 2
5 -8 -5 4523.69 579.355 3
5 8 -5 4236.21 460.577 4
5 -8 -5 4166.74 580.767 2
5 -8 -4 8446.38 774.865 2
5 8 -4 8458.67 648.885 4
5 -8 -4 7285.48 721.29 3
5 -8 -3 6338.46 674.698 2
5 8 -3 4758.61 470.602 4
5 -8 -3 5812.92 642.262 3
5 -8 -2 4756.61 575.387 2
5 -8 -2 4596.5 590.151 3
5 8 -2 4501.44 470.969 4
5 -8 -1 7127.23 672.298 2
5 8 -1 7392.23 603.875 4
5 -8 -1 7188.28 688.811 3
5 -8 0 985.453 249.352 2
5 -8 0 1378.32 366.709 3
5 8 0 1510.43 266.019 4
5 -8 1 4116.58 502.502 2
5 -8 1 4581.8 545.754 3
5 8 1 4337.91 479.859 4
5 -8 2 1976.77 370.181 2
5 -8 2 2161.6 377.341 3
5 8 2 2028.25 349.933 4
5 -8 3 3161.45 420.505 2
5 -8 3 2634.9 443.51 3
5 -8 3 4086.77 436.981 5
5 8 3 3451.73 430.82 4
5 -8 4 1311.68 285.212 3
5 -8 4 2187.85 356.973 5
5 8 4 1570.3 328.358 4
5 -8 5 2133.45 394.87 3
5 -9 -4 1500.74 390.285 3
5 9 -4 1243.99 270.75 4
5 -9 -4 1096.2 334.1 2
5 -9 -3 12107.3 973.427 2
5 9 -3 12071.6 836.995 4
5 -9 -3 12580.3 1000.59 3
5 -9 -2 658.569 274.425 3
5 9 -2 1212.55 252.696 4
5 -9 -2 746.906 320.983 2
5 -9 -1 5973.76 726.795 3
5 -9 -1 8024.55 645.507 5
5 -9 -1 6188.69 679.704 2
5 9 -1 6836.46 611.417 4
5 -9 0 657.444 258.767 2
5 -9 0 275.455 231.544 3
5 9 0 333.663 181.023 4
5 -9 1 15141.6 1015.71 2
5 -9 1 16310.9 1118.49 3
6 0 -11 55.7841 115.947 4
6 0 -10 16700.8 923.045 2
6 0 -10 17114 850.436 4
6 0 -9 -68.3721 104.109 2
6 0 -9 62.7812 77.3504 3
6 0 -9 -48.9541 109.81 4
6 0 -8 14444.2 693.899 4
6 0 -8 14260.2 807.42 2
6 0 -8 14247.4 676.525 3
6 0 -7 -34.2795 122.538 2
6 0 -7 -8.93831 92.6166 3
6 0 -7 62.6 65.8368 4
6 0 -6 26842.6 972.393 4
6 0 -6 25464.2 1129.07 2
6 0 -6 28530.5 1056.09 3
6 0 -5 218.351 167.557 2
6 0 -5 133.348 123.307 3
6 0 -5 44.7788 75.5229 4
6 0 -4 60945.7 1965.77 3
6 0 -4 57997.2 2027.3 2
6 0 -3 7.10751 148.09 2
6 0 -3 39.0819 43.1308 3
6 0 -3 40.6765 49.2113 4
6 0 -2 84330 2646.97 3
6 0 -2 82696.1 2693.23 2
6 0 -1 104.254 163.091 2
6 0 -1 158.115 128.826 3
6 0 -1 73.4094 46.3804 4
6 0 0 21129.3 962.288 3
6 0 0 23211.7 704.593 4
6 0 0 23103 1029.51 2
6 0 1 110.255 140.726 2
6 0 1 12.3864 123.518 3
6 0 1 28.2626 39.7276 4
6 0 2 11182 670.476 3
6 0 2 11453.6 397.522 4
6 0 2 13017.3 731.205 2
6 0 3 6.73462 135.849 2
6 0 3 33.5013 135.951 3
6 0 4 28514.6 1261.53 3
6 0 4 28766.9 1279.31 2
6 0 5 37.4891 151.166 2
6 0 5 -81.6752 211.285 3
6 0 6 18381.1 1036.73 3
6 0 6 19815 1060.27 2
6 0 7 77.8718 173.615 2
6 0 7 -253.786 217.712 3
6 0 8 11308 869.545 3
6 0 8 13023.8 908.327 2
6 1 -12 1878.36 314.109 4
6 1 -11 9325.53 644.741 4
6 1 -10 1079.99 216.454 4
6 -1 -10 1059.5 292.045 2
6 1 -9 18387.2 868.968 4
6 1 -9 18440.4 916.503 2
6 -1 -9 19199.5 1040.85 2
6 -1 -9 20384.4 889.991 3
6 -1 -8 2157.92 343.518 2
6 1 -8 2204.78 292.937 2
6 -1 -8 2420.97 283.09 3
6 -1 -8 1972.14 231.424 4
6 1 -8 2217.22 257.632 4
6 1 -8 2341.3 214.801 3
6 -1 -7 17492.1 758.612 4
6 1 -7 17483.1 778.722 4
6 -1 -7 16851 932.29 2
6 1 -7 17980.7 878.051 2
6 -1 -7 19636.6 868.734 3
6 1 -7 20408.5 776.068 3
6 1 -6 2890.23 260.174 3
6 -1 -6 2902.17 352.66 2
6 -1 -6 2453.47 232.082 4
6 1 -6 2837.36 263.241 4
6 1 -6 3136.78 335.376 2
6 -1 -6 2820.29 307.548 3
6 1 -5 11961 589.526 3
6 -1 -5 11858.5 521.938 4
6 1 -5 12189.4 561.028 4
6 -1 -5 11241.2 684.104 2
6 1 -5 11626.6 652.575 2
6 -1 -5 11502.2 631.84 3
6 -1 -4 2592.6 295.8 3
6 1 -4 2672.55 270.445 3
6 -1 -4 2172.61 316.498 2
6 1 -4 2429.97 292.875 2
6 -1 -4 2515.82 203.227 4
6 1 -4 2666.33 230.997 4
6 -1 -3 4755.73 395.29 3
6 1 -3 5314.64 393.241 3
6 -1 -3 5358.61 276.032 4
6 1 -3 4977.11 309.418 4
6 -1 -3 4941.64 433.809 2
6 1 -3 4659.36 398.628 2
6 -1 -2 3039.52 317.4 3
6 1 -2 2570.38 289.786 3
6 -1 -2 2712.07 328.503 2
6 -1 -2 3402.17 183.185 4
6 1 -2 3386.46 237.698 4
6 1 -2 2999.45 330.715 2
6 -1 -1 7225.69 510.118 3
6 1 -1 7481.15 501.672 3
6 -1 -1 8857.14 299.073 4
6 1 -1 9144.45 403.432 4
6 -1 -1 7466.55 536.306 2
6 1 -1 8112.67 543.047 2
6 -1 0 5316.96 431.583 3
6 1 0 6472.37 327.17 4
6 -1 0 5687.08 482.183 2
6 1 0 5890.55 464.816 2
6 -1 1 10407.8 635.799 3
6 1 1 10307.2 442.775 4
6 -1 1 10007.6 659.524 2
6 1 1 11149.2 665.005 2
6 -1 2 10427.5 648.745 3
6 1 2 11173.8 470.133 4
6 -1 2 10894.3 692.053 2
6 1 2 10664.9 677.415 2
6 -1 3 13771.3 787.078 3
6 1 3 15236.6 592.741 4
6 -1 3 13955.9 814.885 2
6 1 3 13616.2 799.506 2
6 -1 4 3698.64 412.041 2
6 1 4 2612.92 370.662 2
6 -1 4 2996.68 381.822 3
6 -1 5 2372.24 343.951 2
6 1 5 2411.72 382.637 2
6 -1 5 2055.02 334.835 3
6 -1 6 -61.8437 180.507 2
6 1 6 62.7587 136.256 2
6 -1 6 108.317 145.538 3
6 -1 7 2939.45 419.356 2
6 1 7 2601.18 432.547 2
6 -1 7 3128.52 440.228 3
6 -1 8 898.424 278.633 2
6 1 8 664.146 248.065 2
6 -1 8 524.173 210.831 3
6 2 -13 7210.05 617.465 4
6 2 -12 5328.75 505.75 4
6 2 -11 15829.9 875.168 4
6 -2 -10 6551.38 629.903 2
6 2 -10 7030.71 521.054 4
6 -2 -10 6746.61 522.304 3
6 2 -9 23462.8 968.209 2
6 -2 -9 20690.7 1165.61 2
6 2 -9 22190.4 992.104 4
6 -2 -9 23618.9 1060.29 3
6 -2 -8 1947.73 322.676 2
6 -2 -8 2334.83 305.179 3
6 2 -8 2668.95 294.665 2
6 2 -8 2275.08 286.229 4
6 2 -7 12818.8 659.21 4
6 -2 -7 11547 785.116 2
6 2 -7 13595.9 689.822 2
6 -2 -7 13865.2 744.767 3
6 2 -7 13077.5 565.261 3
6 2 -6 8775.28 456.817 3
6 2 -6 9030.46 509.062 4
6 -2 -6 8288.74 626.66 2
6 2 -6 8386.73 519.369 2
6 -2 -6 8337.63 560.854 3
6 2 -5 10619.2 523.69 3
6 2 -5 10247 529.417 4
6 -2 -5 9750.85 651.473 2
6 2 -5 8580.11 542.305 2
6 -2 -5 9704.56 608.363 3
6 2 -4 9304.48 506.401 3
6 2 -4 8937.9 478.283 4
6 -2 -4 8288.22 597.771 2
6 2 -4 8767.37 523.837 2
6 -2 -4 8315.7 554.071 3
6 -2 -3 19047.1 911.1 3
6 2 -3 20727.2 863.91 3
6 2 -3 21521.5 810.561 4
6 -2 -3 20433.5 990.144 2
6 2 -3 20212.9 897.196 2
6 -2 -2 8084.65 550.091 3
6 2 -2 10105.2 480.409 4
6 -2 -2 8473.41 598.069 2
6 2 -2 8840.08 553.121 2
6 -2 -1 17098.9 867.087 3
6 -2 -1 16974.2 891.065 2
6 2 -1 16331.7 822.56 2
6 -2 0 3541.23 383.014 3
6 2 0 4791.46 308.721 4
6 -2 0 3728.1 405.215 2
6 2 0 4192.86 388.043 2
6 -2 1 10423.7 651.978 3
6 2 1 11356.5 524.22 4
6 -2 1 9917.63 669.858 2
6 2 1 9824.16 639.286 2
6 -2 2 6618.98 532.327 3
6 2 2 7614.09 412.766 4
6 -2 2 6784.75 559.467 2
6 2 2 5992.71 511.111 2
6 -2 3 23365.9 1093.33 3
6 2 3 24804.8 908.814 4
6 -2 3 21049.9 1071.57 2
6 2 3 22229.8 1081.02 2
6 -2 4 16351.8 912.673 3
6 2 4 18523.8 751.694 4
6 -2 4 16331.7 915.069 2
6 2 4 15746.5 918.774 2
6 -2 5 27613.6 1317.26 3
6 2 5 29839.4 1171.79 1
6 -2 5 30027.8 1355.25 2
6 2 5 32382.1 1409.52 2
6 -2 6 8888.98 695.937 3
6 -2 6 8311.89 656.928 2
6 2 6 9750.93 728.556 2
6 -2 7 17861.8 1049.33 3
6 -2 7 16801.9 1009.09 2
6 2 7 18278.8 1087.47 2
6 -2 8 5366.64 594.237 3
6 -2 8 4297.27 537.66 2
6 3 -12 7655.61 620.356 4
6 3 -11 293.875 179.134 4
6 -3 -10 9923.42 830.016 2
6 3 -10 11113.5 684.444 4
6 -3 -10 10612.9 738.754 3
6 -3 -9 377.625 157.739 3
6 3 -9 554.152 191.41 4
6 -3 -9 487.069 214.129 2
6 -3 -8 15385.8 983.466 2
6 3 -8 15169.7 784.549 4
6 -3 -8 16877.6 906.865 3
6 -3 -7 1265.01 292.285 2
6 3 -7 1222.89 177.536 2
6 -3 -7 1321.65 265.658 3
6 3 -7 1151.34 202.777 4
6 3 -6 18124.6 704.456 3
6 3 -6 16970.4 798.511 4
6 -3 -6 16900.3 979.016 2
6 3 -6 18177.9 785.464 2
6 -3 -6 17280.7 907.96 3
6 -3 -5 2887.35 389.651 2
6 3 -5 2567.9 250.185 3
6 -3 -5 1943.79 291.868 3
6 3 -5 2531 271.888 4
6 3 -5 2559.83 266.955 2
6 3 -4 12239.6 602.495 4
6 -3 -4 11065 728.001 2
6 3 -4 11588 610.102 2
6 -3 -4 10634.8 678.137 3
6 -3 -3 295.354 198.708 2
6 3 -3 129.505 115.677 2
6 -3 -3 91.1298 132.71 3
6 3 -3 -16.485 77.6916 4
6 -3 -2 9865.6 646.542 3
6 3 -2 10004.6 529.572 4
6 -3 -2 9783.03 671.221 2
6 3 -2 9425.02 561.935 2
6 -3 -1 10941.7 681.116 3
6 3 -1 11901.8 572.185 4
6 -3 -1 10124.7 688.385 2
6 3 -1 10444.8 623.553 2
6 -3 0 12452.5 734.548 3
6 3 0 13949.7 634.655 4
6 -3 0 13513.7 784.093 2
6 3 0 11957.3 694.53 2
6 -3 1 2378.06 348.092 2
6 -3 1 2274.71 324.011 3
6 3 1 3008.57 279.923 4
6 3 1 2764.77 340.973 2
6 -3 2 12164.9 771.497 3
6 3 2 13973.8 659.686 4
6 -3 2 12882.9 782.887 2
6 3 2 12986.8 760.222 2
6 -3 3 1073.65 268.609 2
6 3 3 1394.58 293.458 2
6 -3 3 937.667 250.812 3
6 3 3 1121.99 180.78 4
6 -3 4 5552.32 518.808 3
6 3 4 5772.18 406.658 4
6 -3 4 5220.13 481.971 2
6 3 4 4335.71 474.038 2
6 -3 5 233.976 212.138 2
6 -3 5 239.252 216.299 3
6 3 5 -122.615 188.69 2
6 3 5 93.262 69.0178 1
6 3 5 106.869 73.7534 4
6 -3 6 1259.94 292.436 2
6 -3 6 1813.75 354.43 3
6 3 6 1610.23 314.987 2
6 3 6 1713.39 274.84 1
6 -3 7 -49.0748 156.003 2
6 -3 7 70.3581 192.169 3
6 3 7 85.5025 94.1114 2
6 -3 8 2931.13 452.237 2
6 -3 8 4118.42 514.755 3
6 4 -12 482.671 198.969 4
6 4 -11 10698 728.657 4
6 -4 -11 9247.13 738.942 3
6 -4 -10 2167.52 378.096 3
6 4 -10 1894.91 318.094 4
6 -4 -9 9821.28 839.543 2
6 4 -9 10020.1 661.976 4
6 -4 -9 10529.4 765.203 3
6 -4 -8 4320.84 551.336 2
6 4 -8 4683.34 419.553 4
6 -4 -8 4980.26 499.705 3
6 -4 -7 18805.1 1110.71 2
6 4 -7 18230 885.966 4
6 -4 -7 18737.5 1013.51 3
6 -4 -6 2253.7 356.979 2
6 4 -6 2674.93 222.856 3
6 -4 -6 2524.79 363.394 3
6 4 -6 2411.85 233.072 2
6 4 -6 2084.56 269.703 4
6 4 -5 31588 1228.04 4
6 -4 -5 30116.6 1432.32 2
6 4 -5 34623.5 1169.26 2
6 -4 -5 29808.5 1355.53 3
6 4 -4 6461.22 441.807 4
6 -4 -4 6603.21 598.191 2
6 4 -4 6167.04 420.848 2
6 -4 -4 5566 507.797 3
6 4 -3 34558.2 1265.82 4
6 -4 -3 34276.5 1471.01 2
6 4 -3 34914.3 1255.2 2
6 -4 -3 32410.1 1407.97 3
6 4 -2 11571.4 610.141 4
6 -4 -2 10021.4 727.901 2
6 4 -2 11476.9 624.434 2
6 -4 -2 11129.5 725.136 3
6 4 -1 25349.2 1004.78 4
6 -4 -1 24137.6 1176.72 2
6 4 -1 23826.5 1027.55 2
6 -4 -1 24541.7 1147.22 3
6 -4 0 10581.7 707.403 3
6 4 0 10652.5 594.565 4
6 -4 0 10733.4 726.62 2
6 4 0 10644.7 642.779 2
6 -4 1 14149.1 844.319 3
6 4 1 15030.3 736.093 4
6 -4 1 15140.9 867.317 2
6 4 1 15540 816.999 2
6 -4 2 4576.75 484.203 3
6 4 2 5074.65 406.275 4
6 -4 2 4845.78 470.775 2
6 4 2 4071.48 427.066 2
6 -4 3 13755.3 847.916 3
6 4 3 15047.7 756.303 4
6 -4 3 13804.9 837.204 2
6 4 3 15214 868.007 2
6 -4 4 2237.82 347.841 2
6 -4 4 2292.86 372.271 3
6 4 4 2610.22 373.408 2
6 4 4 2599.26 297.52 4
6 -4 5 15086 920.766 3
6 4 5 14442.2 820.006 1
6 4 5 14257 763.375 4
6 -4 5 13622.5 871.019 2
6 4 5 14373.9 920.093 2
6 -4 6 2241.35 338.165 2
6 -4 6 1562.62 335.762 3
6 4 6 2416.13 384.07 2
6 4 6 1670.59 284.179 1
6 -4 7 11156.5 816.154 3
6 4 7 10329.4 710.385 1
6 -4 7 9346.04 746.112 2
6 -4 8 1855.25 337.453 2
6 5 -11 4410.28 478.925 4
6 -5 -11 5740.36 624.292 3
6 5 -10 8555.94 657.115 4
6 -5 -10 9134.06 786.765 3
6 -5 -9 2630.3 446.956 3
6 5 -9 2874.95 357.247 4
6 -5 -9 3371.36 534.914 2
6 -5 -8 11188.5 886.672 2
6 5 -8 9891.55 663.863 4
6 -5 -8 9715.7 760.993 3
6 -5 -7 6550.44 651.884 2
6 5 -7 6478.3 517.091 4
6 -5 -7 6453.94 603.269 3
6 -5 -6 4665.18 548.661 2
6 -5 -6 3897.1 453.642 3
6 5 -6 4223.62 392.332 4
6 -5 -5 6173.72 602.669 2
6 5 -5 5709.67 448.469 4
6 -5 -5 5844.14 554.425 3
6 -5 -4 1648.5 376.11 2
6 5 -4 1661.68 211.611 2
6 -5 -4 932.85 257.904 3
6 5 -4 1244.96 207.634 4
6 -5 -3 5898.25 574.563 2
6 5 -3 5322.36 428.282 4
6 5 -3 4587.5 365.818 2
6 -5 -3 4916.17 495.281 3
6 -5 -2 3403.04 413.895 2
6 5 -2 4213.52 375.976 4
6 5 -2 3934.77 348.348 2
6 -5 -2 3996.03 440.094 3
6 -5 -1 1740.91 331.905 2
6 -5 -1 2044.41 365.874 3
6 5 -1 1509.96 244.118 2
6 5 -1 1847.27 272.794 4
6 5 0 3751.51 363.418 4
6 -5 0 4375.02 484.075 2
6 5 0 4538.08 408.049 2
6 -5 0 4940.09 526.184 3
6 5 1 8739.2 563.264 4
6 -5 1 7634.67 630.588 2
6 5 1 7021.77 549.801 2
6 -5 1 7216.74 616.934 3
6 -5 2 3591.26 439.918 2
6 -5 2 4023.25 472.137 3
6 5 2 3887.1 388.759 4
6 5 2 3666.87 418.846 2
6 -5 3 5878.63 554.204 3
6 5 3 7121.35 524.533 4
6 -5 3 6096.85 564.654 2
6 5 3 6673.7 568.925 2
6 -5 4 4073.8 472.847 3
6 -5 4 3791.98 454.895 2
6 5 4 3651.46 445.604 2
6 5 4 3389.38 364.274 4
6 -5 5 5220.03 544.308 3
6 5 5 5023.01 502.498 1
6 5 5 4340.48 427.503 4
6 -5 5 4815.94 515.45 2
6 5 5 4833.55 528.797 2
6 -5 6 4666.53 524.972 3
6 5 6 5162.91 510.94 1
6 5 6 4192.26 418.876 4
6 -5 6 4531.92 507.952 2
6 5 6 5081.06 577.354 2
6 -5 7 3275.74 422.601 2
6 -5 7 3348.6 478.508 3
6 5 7 2893.55 392.613 1
6 -6 -11 271.958 198.727 3
6 6 -10 12489.4 819.2 4
6 -6 -10 13100.8 1021.02 3
6 -6 -9 1239.71 325.104 3
6 6 -9 1438.55 255.763 4
6 -6 -8 19532.1 1282.86 2
6 6 -8 19601.7 1030.24 4
6 -6 -8 21204.4 1249.67 3
6 -6 -7 -117.538 282.514 2
6 -6 -7 -210.288 217.539 3
6 6 -7 -137.807 100.845 4
6 -6 -6 17563.6 1144.65 2
6 6 -6 16427.1 886.23 4
6 -6 -6 17118.6 1065.64 3
6 -6 -5 2251.42 430.207 2
6 -6 -5 2303.91 380.924 3
6 6 -5 2422.71 294.998 4
6 -6 -4 13405.7 946.866 2
6 6 -4 12022.4 723.853 4
6 -6 -4 13542.7 909.238 3
6 -6 -3 510.192 271.93 2
6 -6 -3 825.16 283.305 3
6 6 -3 697.508 193.493 4
6 -6 -2 11854.1 837.704 2
6 6 -2 11311.9 688.978 4
6 6 -2 11341.7 624.631 2
6 -6 -2 11457.6 831.236 3
6 -6 -1 227.18 179.252 2
6 -6 -1 39.4168 244.993 3
6 6 -1 497.048 146.081 2
6 6 -1 528.249 132.891 4
6 -6 0 24068.1 1208.53 2
6 6 0 20688.6 1011.79 4
6 6 0 20829.5 997.326 2
6 -6 0 22190.3 1179.37 3
6 -6 1 370.895 220.637 2
6 -6 1 722.043 239.902 3
6 6 1 413.221 170.521 2
6 6 1 763.305 204.483 4
6 -6 2 23616.9 1207.4 2
6 6 2 23267.4 1101.14 4
6 6 2 21722.4 1101.19 2
6 -6 2 23815.6 1243.34 3
6 -6 3 3522.46 446.995 2
6 -6 3 3436.56 473.271 3
6 6 3 2781.91 413.087 2
6 6 3 3273.14 378.193 4
6 -6 4 12755.1 870.171 2
6 6 4 12524.5 793.459 4
6 6 4 13956.5 903.759 2
6 -6 4 14823.5 955.749 3
6 -6 5 1786.19 346.929 2
6 -6 5 1960.65 415.287 3
6 6 5 2142.72 360.137 2
6 6 5 1439.33 265.243 4
6 -6 6 13004.8 807.587 5
6 6 6 13740.4 903.122 1
6 -6 6 13688.1 908.833 2
6 6 6 14092.3 869.475 4
6 -7 -9 4869.44 656.001 3
6 -7 -8 44.6713 139.94 3
6 7 -8 328.353 156.55 4
6 7 -7 7671.73 620.284 4
6 -7 -7 6379.92 704.77 3
6 -7 -6 2936.02 519.735 2
6 -7 -6 2722.07 428.556 3
6 7 -6 2412.4 324.456 4
6 -7 -5 8966.75 817.931 2
6 7 -5 9099.84 645.588 4
6 -7 -5 10361.5 835.373 3
6 -7 -4 2758.02 474.019 2
6 -7 -4 1643.65 342.711 3
6 7 -4 2582.23 349.294 4
6 -7 -3 14466 1005.67 2
6 7 -3 12987.4 789.917 4
6 -7 -3 15058.8 997.461 3
6 -7 -2 766.75 296.709 2
6 -7 -2 346.996 195.269 3
6 7 -2 368.145 155.383 4
6 -7 -1 9931.74 819.052 2
6 7 -1 10999.9 716.323 4
6 -7 -1 10173.6 828.346 3
6 -7 0 426.917 258.957 2
6 -7 0 540.658 278.294 3
6 7 0 469.179 170.22 2
6 7 0 639.75 191.955 4
6 -7 1 7004.16 655.612 2
6 7 1 7374.16 583.27 4
6 7 1 7012.73 571.704 2
6 -7 1 8768.8 745.015 3
6 -7 2 545.035 224.568 2
6 -7 2 40.1149 236.002 3
6 7 2 546.211 229.469 2
6 7 2 396.863 197.52 4
6 -7 3 2345.23 364.536 2
6 -7 3 2925.03 426.858 3
6 7 3 1653.12 294.131 2
6 7 3 2049.51 309.007 4
6 -7 4 414.526 144.133 2
6 -7 4 854.821 269.645 3
6 7 4 247.295 190.745 2
6 7 4 580.445 195.244 4
6 -8 -6 10825.8 984.077 2
6 8 -6 9155.02 706.016 4
6 -8 -6 10841.9 932.435 3
6 -8 -5 9005.39 888.555 2
6 8 -5 7586.24 617.704 4
6 -8 -5 6916.65 736.662 3
6 -8 -4 8432.25 811.517 2
6 8 -4 9153.71 683.926 4
6 -8 -4 9685.55 855.3 3
6 -8 -3 5585.76 657.649 2
6 8 -3 6370.48 566.833 4
6 -8 -3 6060.33 707.757 3
6 -8 -2 3788.19 554.171 2
6 -8 -2 3655.89 521.242 3
6 8 -2 3592.12 433.736 4
6 -8 -1 10942.4 894.747 2
6 8 -1 11050.6 767.378 4
6 -8 -1 12080.7 943.11 3
6 -8 0 6328.53 664.649 2
6 8 0 6654.98 583.516 4
6 -8 0 6850.01 710.088 3
6 -8 1 15432 1037.69 2
6 8 1 16428.2 966.704 4
6 -8 1 16670.7 1120.04 3
6 -8 2 6388.36 644.023 2
6 8 2 5442.01 530.23 2
6 8 3 5538.92 555.355 2
7 0 -11 11241.9 804.252 2
7 0 -11 11536.1 719.722 4
7 0 -10 225.846 112.302 4
7 0 -10 -118.678 155.441 2
7 0 -9 3744.4 339.603 4
7 0 -9 3669.01 420.437 2
7 0 -8 73.4824 185.749 2
7 0 -8 126.683 99.8996 3
7 0 -8 -93.1593 99.3572 4
7 0 -7 9128.02 522.488 4
7 0 -7 9529.06 669.74 2
7 0 -7 9465.97 578.566 3
7 0 -6 165.837 163.161 2
7 0 -6 -40.6272 112.761 3
7 0 -6 14.8334 59.4741 4
7 0 -5 18287.5 851.629 3
7 0 -5 17836.4 701.165 4
7 0 -5 15663.6 885.316 2
7 0 -4 -18.7399 121.761 2
7 0 -4 -55.3791 134.407 3
7 0 -4 -73.5567 49.6397 4
7 0 -3 15381.2 805.656 3
7 0 -3 13986.5 819.542 2
7 0 -2 41.4716 150.258 2
7 0 -2 65.0456 135.331 3
7 0 -2 35.6386 40.0432 4
7 0 -1 5330.18 465.57 3
7 0 -1 4973.47 474.681 2
7 0 0 -81.9006 129.257 2
7 0 0 202.567 139.302 3
7 0 1 12288.1 746.856 3
7 0 1 11181.9 741.784 2
7 0 2 -99.7914 184.366 2
7 0 2 -126.038 131.961 3
7 0 3 13064.1 819.462 3
7 0 3 12604.3 837.353 2
7 0 4 89.2951 161.783 2
7 0 4 76.8031 171.807 3
7 0 5 5382 555.1 3
7 0 5 5001.73 531.797 2
7 0 6 -164.271 207.712 2
7 0 6 184.195 231.199 3
7 1 -13 2506.18 365.259 4
7 1 -12 11915.4 771.589 4
7 1 -11 4808.49 461.772 4
7 -1 -11 4750.5 542.838 2
7 1 -10 7743.1 561.303 4
7 1 -10 8043.97 614.005 2
7 -1 -10 7435.77 661.85 2
7 1 -9 3991.08 387.735 4
7 -1 -9 5328.36 563.736 2
7 1 -9 5891.4 512.195 2
7 -1 -9 5478.52 443.308 3
7 1 -8 8382.33 530.783 4
7 -1 -8 8994.02 700.59 2
7 1 -8 10617.8 687.436 2
7 -1 -8 9738 616.643 3
7 -1 -7 3834.94 453.868 2
7 -1 -7 4579.47 341.161 4
7 1 -7 4460.52 349.215 4
7 1 -7 4175.85 428.759 2
7 -1 -7 4600.09 421.653 3
7 1 -7 4807.03 378.312 3
7 1 -6 19682.2 854.906 3
7 -1 -6 19716 775.82 4
7 1 -6 18726.1 796.177 4
7 -1 -6 16323.1 953.029 2
7 1 -6 19590.5 949.856 2
7 -1 -6 19324.6 922.961 3
7 -1 -5 7286.24 541.144 3
7 1 -5 8454.28 527.554 3
7 -1 -5 8484.15 424.001 4
7 1 -5 8558.54 457.873 4
7 -1 -5 7068.36 584.446 2
7 1 -5 7625.63 568.679 2
7 -1 -4 29831.2 1250.93 3
7 1 -4 30505.5 1211.14 3
7 -1 -4 33369.4 1023.02 4
7 1 -4 31151.1 1071.33 4
7 -1 -4 28374.6 1304.2 2
7 1 -4 29202.2 1253.22 2
7 -1 -3 5338.28 458.542 3
7 1 -3 5706.72 454.362 3
7 -1 -3 6537.5 311.925 4
7 1 -3 6329.81 358.077 4
7 -1 -3 5895.19 522.51 2
7 1 -3 5190.11 461.179 2
7 -1 -2 14434.2 816.243 3
7 1 -2 15879.1 818.92 3
7 1 -2 17263.5 641.839 4
7 -1 -2 15166.9 864.986 2
7 1 -2 15680.7 854.628 2
7 -1 -1 2158.94 348.67 2
7 1 -1 2213.62 339.28 2
7 -1 -1 2081.5 292.283 3
7 1 -1 1706.9 279.588 3
7 1 -1 2630.49 205.784 4
7 -1 0 9257.91 637.181 3
7 1 0 8830.49 609.678 3
7 1 0 10856 444.718 4
7 -1 0 9385.04 671.604 2
7 1 0 8849.63 645.42 2
7 -1 1 5212.24 480.199 3
7 1 1 4785.86 453.934 3
7 -1 1 5694.52 538.25 2
7 1 1 5268.27 489.011 2
7 -1 2 22009.6 1103.48 3
7 1 2 24020.4 1137.26 3
7 -1 2 22644.8 1169.42 2
7 1 2 24990 1184.05 2
7 -1 3 7954.25 644.965 3
7 -1 3 7744.54 652.626 2
7 1 3 7839.38 639.988 2
7 -1 4 18121.4 1027.18 3
7 -1 4 18601.4 1058.75 2
7 1 4 16948.7 1014.99 2
7 -1 5 2821.74 411.795 2
7 1 5 3290.67 458.065 2
7 -1 5 3019.61 419.514 3
7 -1 6 11765.4 867.632 3
7 1 6 13013.5 923.182 3
7 -1 6 11547.1 868.945 2
7 1 6 12721 914.074 2
7 2 -12 12480.8 822.271 4
7 2 -11 5310.42 487.454 4
7 -2 -11 5210.18 619.764 2
7 -2 -10 8213.25 746.821 2
7 2 -10 8800.95 613.956 4
7 -2 -9 3280.58 454.747 2
7 -2 -9 2961.49 342.055 3
7 2 -9 2612.65 321.325 4
7 2 -8 5396.7 413.373 4
7 -2 -8 4912.4 535.334 2
7 2 -8 5780.72 475.623 2
7 -2 -8 5115.09 472.033 3
7 2 -7 4455.79 340.491 3
7 -2 -7 3914.92 465.848 2
7 2 -7 4011.69 350.462 4
7 2 -7 4881.26 434.552 2
7 -2 -7 4653.36 445.54 3
7 2 -6 10004.1 551.963 3
7 2 -6 10914.9 582.481 4
7 -2 -6 8966.38 714.582 2
7 2 -6 10515 646.441 2
7 -2 -6 9225.92 646.683 3
7 2 -5 3420.19 321.803 3
7 -2 -5 3197.54 372.943 3
7 2 -5 3418.78 305.01 4
7 -2 -5 3470.22 415.966 2
7 2 -5 3918.56 384.407 2
7 -2 -4 10981.2 694.117 3
7 2 -4 11303.6 628.254 3
7 2 -4 10942.9 557.979 4
7 -2 -4 10191.8 728.519 2
7 2 -4 10277.7 639.322 2
7 -2 -3 5581.9 492.675 3
7 2 -3 5657.61 443.559 3
7 2 -3 6150.31 387.882 4
7 -2 -3 5452.45 511.066 2
7 2 -3 5267.69 456.549 2
7 2 -2 3617.01 359.206 3
7 -2 -2 2933.91 389.153 2
7 -2 -2 3266.81 377.88 3
7 2 -2 3906.04 293.122 4
7 2 -2 3204.82 371.434 2
7 -2 -1 1942.67 342.441 2
7 2 -1 1239.89 251.889 2
7 -2 -1 1739.01 286.65 3
7 2 -1 1983.08 198.134 4
7 -2 0 5790.12 497.484 3
7 2 0 6122.92 367.092 4
7 -2 0 4821.48 492.664 2
7 2 0 5299.8 485.358 2
7 -2 1 2415.7 357.878 2
7 2 1 2838.88 367.364 2
7 -2 1 2638.54 351.787 3
7 2 1 3179.42 254.6 4
7 -2 2 7990.52 635.744 3
7 -2 2 8642.35 680.09 2
7 2 2 8953.08 672.138 2
7 -2 3 3185.42 445.089 2
7 2 3 2116.08 345.715 2
7 -2 3 2323.53 358.536 3
7 -2 4 3834.76 486.354 2
7 2 4 3925.96 474.099 2
7 -2 4 3389.36 461.298 3
7 -2 5 1238.27 309.698 2
7 2 5 2116.67 379.662 2
7 -2 5 1420.73 349.478 3
7 -2 6 1046.2 299.136 2
7 2 6 1417.27 351.298 2
7 -2 6 1345.53 349.155 3
7 3 -12 734.407 219.532 4
7 -3 -11 12325 989.595 2
7 3 -11 12645.5 790.571 4
7 -3 -10 670.584 193.74 3
7 3 -10 665.191 211.724 4
7 -3 -10 721.723 313.501 2
7 -3 -9 9598.97 814.276 2
7 3 -9 10420.8 672.831 4
7 -3 -9 10383.3 743.136 3
7 -3 -8 1024.46 291.326 2
7 -3 -8 961.23 237.239 3
7 3 -8 1007.6 188.38 4
7 3 -7 14956.9 773.32 4
7 -3 -7 14624.5 976.745 2
7 3 -7 15852.4 777.047 2
7 -3 -7 14578.4 869.773 3
7 -3 -6 1057.21 268.464 2
7 3 -6 745.643 181.057 2
7 -3 -6 1334.56 269.735 3
7 3 -6 1118.88 183.276 3
7 3 -6 1199.37 214.747 4
7 3 -5 25537.8 1016.4 3
7 3 -5 25202.8 1034.94 4
7 -3 -5 24617.1 1258.32 2
7 3 -5 26606.9 1088.58 2
7 -3 -5 23209.9 1158.65 3
7 -3 -4 109.151 179.075 2
7 3 -4 32.1363 119.127 2
7 -3 -4 153.142 100.036 3
7 3 -4 163.42 128.965 3
7 3 -4 29.0729 75.4738 4
7 3 -3 24044.9 1029.32 3
7 3 -3 26065.2 991.364 4
7 -3 -3 22703.6 1166.71 2
7 3 -3 23405.5 1050.22 2
7 -3 -3 20501.9 1085.87 3
7 -3 -2 1245.02 309.175 2
7 3 -2 1220.84 241.7 2
7 -3 -2 712.437 219.411 3
7 3 -2 1423.02 190.804 4
7 -3 -1 14248.4 852.952 3
7 3 -1 17165.8 742.658 4
7 -3 -1 14697.4 913.66 2
7 3 -1 14662.9 823.116 2
7 -3 0 711.494 257.319 2
7 3 0 693.853 195.334 2
7 -3 0 1044.54 250.321 3
7 3 0 914.381 160.201 4
7 -3 1 21317.2 1107.58 3
7 3 1 22413.1 905.098 4
7 -3 1 22327.5 1149.44 2
7 3 1 20683.7 1064.9 2
7 -3 2 241.323 101.712 2
7 3 2 317.017 170.33 2
7 3 2 263.924 93.4473 4
7 -3 3 24511 1256.34 3
7 -3 3 24209.3 1241.79 2
7 3 3 25880.7 1265.46 2
7 -3 4 277.695 186.569 2
7 3 4 735.495 251.339 2
7 -3 4 561.586 190.916 3
7 -3 5 17412 1067.25 3
7 -3 5 18256.5 1077.49 2
7 3 5 18795.1 1116.36 2
7 -3 6 14.5671 134.814 2
7 4 -11 1126.83 221.821 4
7 4 -10 5442.98 508.782 4
7 -4 -10 6618.19 623.073 3
7 -4 -10 5065.3 655.181 2
7 -4 -9 1059.51 279.544 3
7 4 -9 1125.4 255.166 4
7 -4 -8 5531.57 619.979 2
7 4 -8 6071.06 502.811 4
7 -4 -8 5475.73 560.756 3
7 -4 -7 2270.44 391.199 2
7 -4 -7 2094.08 342.679 3
7 4 -7 2031.78 289.048 4
7 4 -6 8954.08 582.947 4
7 -4 -6 9674.45 786.978 2
7 -4 -6 7795.58 646.923 3
7 -4 -5 2729.46 414.948 2
7 4 -5 3408.58 320.9 3
7 -4 -5 3483.56 405.951 3
7 4 -5 2901.26 303.803 4
7 4 -5 3641.98 344.707 2
7 4 -4 11525.8 647.394 4
7 -4 -4 12979.3 869.13 2
7 4 -4 11951.5 666.659 2
7 -4 -4 11630.3 791.325 3
7 -4 -3 612.448 275.461 2
7 4 -3 859.171 195.446 2
7 -4 -3 733.321 229.805 3
7 4 -3 580.09 157.107 4
7 4 -2 11028 617.325 4
7 -4 -2 10064.4 764.093 2
7 4 -2 10621.6 665.062 2
7 -4 -2 11024 762.028 3
7 -4 -1 281.709 167.979 2
7 4 -1 544.401 184.346 2
7 -4 -1 375.65 200.794 3
7 4 -1 397.795 136.973 4
7 -4 0 5637.12 552.312 3
7 4 0 5508.97 422.531 4
7 -4 0 6249.25 597.783 2
7 4 0 5792.69 501.611 2
7 -4 1 2849.23 387.445 2
7 4 1 3169.54 397.661 2
7 -4 1 3183.35 435.997 3
7 4 1 3109.9 317.294 4
7 -4 2 7304.77 633.224 3
7 4 2 7715.13 522.406 4
7 -4 2 7534.59 654.404 2
7 4 2 7177.53 612.713 2
7 -4 3 1169.64 314.795 2
7 -4 3 752.023 259.481 3
7 4 3 1293.3 282.108 2
7 4 3 1304.68 202.221 4
7 -4 4 6853.36 640.678 3
7 -4 4 6828.33 616.929 2
7 4 4 7586.58 677.986 2
7 -4 5 270.69 212.26 2
7 -4 5 -4.48448 126.823 3
7 4 5 -52.0594 180.549 2
7 -5 -10 10785 969.974 2
7 5 -10 11801.5 784.747 4
7 -5 -10 11886.5 927.726 3
7 -5 -9 2560.98 456.608 3
7 5 -9 3820.33 419.324 4
7 -5 -9 3920.92 616.037 2
7 -5 -8 9965.61 866.608 2
7 5 -8 9276.84 656.786 4
7 -5 -8 8654.63 754.129 3
7 -5 -7 6220.86 659.285 2
7 5 -7 5757.18 496 4
7 -5 -7 6392.05 636.406 3
7 -5 -6 13427.3 966.827 2
7 5 -6 11054.3 703.534 4
7 -5 -6 11700.8 843.172 3
7 -5 -5 7581.65 716.762 2
7 5 -5 7028.92 521.934 4
7 -5 -5 6478.38 629.782 3
7 5 -4 10674.9 644.683 4
7 -5 -4 10551.5 851.119 2
7 -5 -4 9988.91 756.503 3
7 5 -3 9572.7 609.643 4
7 -5 -3 10065.8 793.206 2
7 5 -3 10078.3 611.682 2
7 -5 -3 10771.6 776.47 3
7 5 -2 10580 659.113 4
7 -5 -2 12073.7 856.97 2
7 5 -2 12607.3 714.65 2
7 -5 -2 11770.7 828.574 3
7 5 -1 5876.81 469.414 4
7 -5 -1 6890.46 638.692 2
7 5 -1 6531.36 521.991 2
7 -5 -1 8111.92 674.728 3
7 5 0 14833.3 783.525 4
7 -5 0 14371.8 944.216 2
7 5 0 13199.8 810.109 2
7 -5 0 15482.9 966.788 3
7 -5 1 3442.07 472.793 2
7 5 1 4581.08 415.575 4
7 5 1 4046.54 458.08 2
7 -5 1 4820.17 540.831 3
7 5 2 8587.77 592.374 4
7 -5 2 9422.32 769.339 2
7 5 2 7890.22 658.219 2
7 -5 2 8629.43 718.254 3
7 -5 3 3779.74 496.902 2
7 -5 3 3938.98 523.259 3
7 5 3 4220.04 403.883 4
7 5 3 4947.02 536.243 2
7 -5 4 7317.8 706.809 3
7 -5 4 7448.5 685.254 2
7 5 4 8401.62 710.508 2
7 -5 5 7920.61 697.13 2
7 -6 -10 623.889 220.532 3
7 6 -9 10278.1 745.811 4
7 -6 -9 11225.7 946.843 3
7 -6 -8 1593.94 348.056 3
7 6 -8 1700.75 269.538 4
7 -6 -8 1263.29 361.473 2
7 -6 -7 10393.6 909.417 2
7 6 -7 9180.36 667.171 4
7 -6 -7 8397.12 771.454 3
7 -6 -6 1310.2 397.758 2
7 -6 -6 1431.95 294.214 3
7 6 -6 1590.8 261.742 4
7 -6 -5 9207.53 835.908 2
7 6 -5 7740.07 584.95 4
7 -6 -5 7983.8 720.043 3
7 -6 -4 101.689 225.369 2
7 -6 -4 358.031 200.977 3
7 6 -4 540.72 159.578 4
7 -6 -3 4899.06 609.348 2
7 -6 -3 4762.15 545.162 3
7 6 -3 5050.99 462.864 4
7 -6 -2 1649.85 342.184 2
7 -6 -2 1448.01 311.328 3
7 6 -2 1033.07 236.933 4
7 -6 -1 7236.07 695.688 2
7 6 -1 7556.79 559.772 4
7 6 -1 7899.27 579.397 2
7 -6 -1 7910.95 721.271 3
7 -6 0 362.26 257.847 2
7 -6 0 357.476 221.436 3
7 6 0 922.488 224.672 2
7 6 0 841.953 214.606 4
7 -6 1 5687.73 606.918 2
7 6 1 5732.94 495.546 4
7 6 1 5495.03 530.805 2
7 -6 1 5698.82 608.437 3
7 -6 2 1174.77 309.176 2
7 -6 2 203.181 263.079 3
7 6 2 456.736 183.042 2
7 6 2 866.848 189.307 4
7 -6 3 5278.61 568.952 2
7 6 3 5193.92 490.311 4
7 6 3 5381.77 561.175 2
7 -7 -7 2066.36 391.804 3
7 -7 -6 8448.57 882.94 2
7 7 -6 9852.72 688.807 4
7 -7 -6 8632.35 804.367 3
7 -7 -5 1286.13 356.867 2
7 -7 -5 1150.36 283.76 3
7 7 -5 1506.37 259.155 4
7 -7 -4 10064.4 876.877 2
7 7 -4 10218.8 696.482 4
7 -7 -4 9703.44 834.814 3
7 -7 -3 1202.42 378.891 2
7 -7 -3 1511.44 355.211 3
7 7 -3 947.603 223.817 4
7 -7 -2 15794.3 1095.17 2
7 7 -2 15521.2 898.25 4
7 -7 -2 17148.4 1110.76 3
7 -7 -1 3478.11 504.481 2
7 -7 -1 3198.99 487.454 3
7 7 -1 2396.6 361.166 4
7 -7 0 16436.8 1111.21 2
7 7 0 16436.5 938.742 4
7 -7 1 1753.13 367.818 2
7 7 1 1762.02 294.402 2
7 7 1 2312.71 342.595 4
7 -7 2 7306.31 695.243 2
7 7 2 7679.54 625.894 4
7 7 2 8751.09 691.562 2
8 0 -10 8348.01 586.126 4
8 0 -10 9499.1 753.454 2
8 0 -9 133.24 108.119 2
8 0 -9 -101.987 91.872 4
8 0 -8 14511.3 725.198 4
8 0 -8 13906.2 903.209 2
8 0 -7 88.4308 132.949 2
8 0 -7 174.028 134.062 3
8 0 -7 53.8055 62.3083 4
8 0 -6 24759.4 1124.74 3
8 0 -6 25356.6 957.486 4
8 0 -6 23957.2 1202.17 2
8 0 -5 51.0415 165.862 2
8 0 -5 175.917 151.681 3
8 0 -5 39.7204 31.2834 4
8 0 -4 23554.5 1103.14 3
8 0 -4 22982.5 1165.66 2
8 0 -3 0.89848 155.807 2
8 0 -3 -62.3211 122.274 3
8 0 -2 14794.7 864.355 3
8 0 -2 16821.8 955.026 2
8 0 -1 153.574 98.196 2
8 0 -1 46.8708 143.535 3
8 0 0 27185.1 1279.33 3
8 0 0 28929.6 1383.7 2
8 0 1 144.108 183.494 2
8 0 1 -111.811 146.771 3
8 0 2 17025.5 995.596 3
8 0 2 17094 1053.06 2
8 0 3 190.233 147.585 2
8 0 3 65.3589 179.552 3
8 0 4 7977.3 720.116 3
8 0 4 7773.87 713.283 2
8 1 -12 1994.23 319.579 4
8 1 -11 8051.51 609.461 4
8 -1 -11 8125.68 749.672 2
8 -1 -10 1411.27 320.008 2
8 1 -10 1003.93 238.18 4
8 1 -9 7020.33 524.102 4
8 -1 -9 7718.67 699.767 2
8 1 -9 6924.88 609.401 2
8 -1 -8 346.041 209.843 2
8 1 -8 651.347 213.208 2
8 1 -8 496.623 154.476 4
8 1 -7 8951.13 537.831 4
8 -1 -7 8613.54 712.196 2
8 1 -7 8293.91 661.218 2
8 -1 -7 9350.56 652.225 3
8 1 -7 10429.4 610.235 3
8 -1 -6 1087.94 277.751 2
8 1 -6 1059.03 236.982 2
8 -1 -6 1049.53 258.58 3
8 1 -6 1507.79 245.205 3
8 1 -6 1025.53 164.448 4
8 -1 -5 14560.5 846.476 3
8 1 -5 16271.4 843.608 3
8 1 -5 15769.6 684.221 4
8 -1 -5 15217.7 929.485 2
8 1 -5 14604.1 873.034 2
8 -1 -4 3931.26 422.631 3
8 1 -4 3139.86 377.396 3
8 -1 -4 3236.4 416.057 2
8 1 -4 3402.27 407.354 2
8 1 -4 3345.33 269.072 4
8 -1 -3 6324.02 553.057 3
8 1 -3 6525.59 528.919 3
8 -1 -3 6651.35 609.774 2
8 1 -3 6233.43 544.911 2
8 -1 -2 4703.37 469.651 3
8 1 -2 4670.46 454.65 3
8 -1 -2 5456.72 520.643 2
8 1 -2 4548.4 472.366 2
8 -1 -1 1431.82 263.907 2
8 1 -1 2283.27 353.512 2
8 -1 -1 2271.96 350.8 3
8 1 -1 2105.81 322.272 3
8 -1 0 6055.42 559.706 3
8 1 0 5491.04 528.571 3
8 -1 0 5988.59 581.679 2
8 1 0 5785.62 552.389 2
8 1 1 3916.27 433.806 3
8 -1 1 3146.14 440.61 2
8 1 1 3789.33 455.208 2
8 -1 1 2913.98 425.108 3
8 -1 2 2449.95 381.37 2
8 1 2 2335.78 367.964 2
8 -1 2 2745.52 419.475 3
8 1 2 3060.28 388.296 3
8 -1 3 4471.71 536.969 2
8 1 3 4697.37 544.949 2
8 -1 3 4299.38 502 3
8 1 3 4289.28 500.269 3
8 -1 4 1482.32 338.408 2
8 1 4 1026.92 303.497 2
8 -1 4 1798.34 357.643 3
8 1 4 1704.17 339.162 3
8 -2 -11 9553.19 876.643 2
8 2 -11 10462.6 735.094 4
8 -2 -10 4144.82 571.42 2
8 2 -10 5066.44 478.702 4
8 2 -9 8027.16 571.769 4
8 -2 -9 9467.01 799.662 2
8 -2 -8 3500.46 504.894 2
8 2 -8 3506.35 353.849 4
8 -2 -8 3845.72 427.336 3
8 2 -7 10999.1 635.644 4
8 -2 -7 10563.9 812.929 2
8 2 -7 10903.4 720.917 2
8 -2 -7 10687.2 732.801 3
8 -2 -6 2171.49 373.217 2
8 2 -6 1951.55 306.869 2
8 -2 -6 2018.72 317.123 3
8 2 -6 2298.68 275.135 3
8 2 -6 2364.39 272.474 4
8 2 -5 11865.5 686.273 3
8 2 -5 10712 587.612 4
8 -2 -5 12075 838.329 2
8 2 -5 10914.7 719.745 2
8 -2 -5 10636.4 739.01 3
8 -2 -4 4311.57 470.25 3
8 2 -4 4171.79 402.71 3
8 2 -4 4845.09 361.295 4
8 -2 -4 5735.2 557.716 2
8 2 -4 4523.89 455.429 2
8 -2 -3 4845.56 489.937 3
8 2 -3 4851.91 447.239 3
8 2 -3 5451.27 365.753 4
8 -2 -3 4889.32 536.301 2
8 2 -3 5184.01 501.538 2
8 -2 -2 5004.52 495.389 3
8 2 -2 5213.66 483.131 3
8 -2 -2 4947.77 532.948 2
8 2 -2 5100.78 501.15 2
8 -2 -1 9245.5 692.314 3
8 2 -1 8721.55 660.79 3
8 -2 -1 9480.98 726.281 2
8 2 -1 9280.49 699.319 2
8 -2 0 10824.9 768.091 3
8 2 0 10730 731.488 3
8 -2 0 10655.2 817.064 2
8 2 0 10650.6 765.034 2
8 -2 1 19195.5 1092.57 3
8 2 1 19260 1055.38 3
8 -2 1 20831.7 1155.15 2
8 2 1 19563.1 1102.41 2
8 -2 2 5045.86 549.867 3
8 2 2 4755.53 521.843 3
8 -2 2 5286.99 580.078 2
8 2 2 5118.64 551.644 2
8 -2 3 13449.8 935.505 3
8 2 3 15739 981.435 3
8 -2 3 13772.9 957.235 2
8 2 3 14245.6 967.629 2
8 3 -11 1032.69 213.976 4
8 -3 -11 1017.6 306.871 2
8 -3 -10 8861.01 843.014 2
8 3 -10 8066.23 627.54 4
8 -3 -9 44.1521 165.241 2
8 -3 -9 10.4336 57.5129 3
8 3 -9 116.137 122.378 4
8 3 -8 6932.62 537.055 4
8 -3 -8 7583.32 737.871 2
8 -3 -8 7101.18 646.653 3
8 -3 -7 750.279 186.222 3
8 3 -7 558.708 172.283 4
8 3 -6 11134.6 646.096 4
8 -3 -6 10024.7 821.96 2
8 3 -6 10516.3 679.174 2
8 -3 -6 11027 774.68 3
8 -3 -5 1300.29 294.084 2
8 3 -5 933.414 204.445 2
8 -3 -5 890.844 245.005 3
8 3 -5 885.95 177.92 3
8 3 -5 871.142 171.806 4
8 3 -4 16433.7 846.286 3
8 3 -4 15937.4 769.468 4
8 -3 -4 16069 1011.25 2
8 3 -4 14436.9 827.315 2
8 -3 -4 13546.9 886.421 3
8 -3 -3 856.201 295.767 2
8 3 -3 611.14 191.22 2
8 -3 -3 628.7 213.917 3
8 3 -3 465.471 172.704 3
8 3 -3 503.304 119.55 4
8 -3 -2 8301.1 681.295 3
8 3 -2 7426.95 588.691 3
8 3 -2 9267.07 529.036 4
8 -3 -2 8953.49 743.547 2
8 3 -2 7567.09 614.528 2
8 -3 -1 159.871 223.203 2
8 3 -1 442.292 215.335 2
8 -3 -1 175.214 208.537 3
8 -3 0 6510.2 587.507 3
8 -3 0 5554.39 603.832 2
8 3 0 5400.69 545.554 2
8 -3 1 2190.97 390.865 2
8 3 1 1457.34 290.144 2
8 -3 1 1508.59 303.099 3
8 -3 2 5146.55 565.044 3
8 -3 2 5578.29 614.35 2
8 3 2 4746.37 551.448 2
8 -3 3 1827.25 393.452 2
8 3 3 861.797 270.795 2
8 -3 3 1229.11 297.343 3
8 4 -10 578.466 160.576 4
8 -4 -10 1183.59 360.503 2
8 -4 -9 10803.8 952.422 2
8 4 -9 10872.7 728.181 4
8 -4 -9 11560.7 878.425 3
8 -4 -8 1104.42 292.079 2
8 -4 -8 1543.56 301.349 3
8 4 -8 1467.62 247.456 4
8 4 -7 11746.9 728.377 4
8 -4 -7 13071.6 987.08 2
8 -4 -7 11440.5 850.939 3
8 4 -6 6023.1 493.739 4
8 -4 -6 6005.7 624.641 2
8 -4 -6 6486.06 608.022 3
8 4 -5 14214.4 778.389 4
8 -4 -5 15198.6 1023.46 2
8 -4 -5 12591.1 880.703 3
8 4 -4 4551.33 417.8 3
8 -4 -4 3561.41 469.778 3
8 4 -4 3634.57 359.94 4
8 -4 -4 4728.06 554.072 2
8 4 -4 4576.43 434.266 2
8 4 -3 17672.4 947.479 3
8 4 -3 17880.4 868.579 4
8 -4 -3 19651 1164.35 2
8 4 -3 17879.9 954.211 2
8 -4 -3 19891.3 1117.68 3
8 -4 -2 3227.88 471.482 2
8 4 -2 2858.71 375.245 2
8 -4 -2 3438.25 442.389 3
8 4 -2 3423.21 337.477 4
8 4 -1 18741 851.704 4
8 -4 -1 16681.8 1072.61 2
8 4 -1 16241.1 945.364 2
8 -4 -1 15953.7 1022.19 3
8 -4 0 1990.82 414.46 2
8 4 0 1944.41 323.392 2
8 -4 0 2697.48 438.598 3
8 -4 1 9172.31 783.805 3
8 -4 1 10478.5 831.532 2
8 4 1 10669.9 781.302 2
8 -4 2 4720.42 573.792 3
8 -4 2 5708.69 631.798 2
8 4 2 5619.85 589.295 2
8 -5 -9 5482.37 617.326 3
8 -5 -8 5125.77 641.026 2
8 -5 -8 4705.14 597.303 3
8 5 -8 4240.87 450.879 4
8 -5 -7 3288.16 510.542 2
8 -5 -7 3185.41 482.309 3
8 5 -7 3731.9 421.928 4
8 5 -6 5633.47 497.913 4
8 -5 -6 7214.19 745.196 2
8 -5 -6 5730.26 620.301 3
8 -5 -5 2936.75 469.676 2
8 -5 -5 2449.49 387.192 3
8 5 -5 1990.78 325.712 4
8 -5 -4 4052.02 550.377 2
8 -5 -4 4366.64 518.936 3
8 5 -4 4119.66 410.733 4
8 5 -3 4945.44 437.844 4
8 -5 -3 6108.86 661.013 2
8 -5 -3 6051.96 627.737 3
8 -5 -2 684.586 293.587 2
8 5 -2 1180.22 217.617 2
8 -5 -2 905.3 270.222 3
8 5 -2 688.174 186.779 4
8 5 -1 6894.22 530.036 4
8 -5 -1 7372.24 727.308 2
8 5 -1 7332.96 597.813 2
8 -5 -1 8482.92 745.487 3
8 -5 0 1282.72 386.055 2
8 5 0 1010.41 253.779 2
8 -5 0 1438.33 298.166 3
8 5 0 1055.54 197.603 4
8 -5 1 4079.26 543.093 2
8 5 1 4686.48 515.946 2
8 5 2 2289.74 368.735 2
8 6 -6 8545.77 648.813 4
8 -6 -6 9346.7 826.554 3
8 -6 -5 144.064 121.666 3
8 6 -5 373.169 140.781 4
8 -6 -4 9230.23 878.845 2
8 6 -4 9660.05 667.931 4
8 -6 -4 10076.8 841.148 3
8 -6 -3 2645.85 490.85 2
8 -6 -3 3524.22 485.729 3
8 6 -3 2662.3 334.297 4
8 6 -2 15256.3 869.778 4
8 6 -1 3386.94 388.786 4
8 6 0 9494.53 648.302 4
8 6 0 8573.99 680.287 2
8 6 1 798.722 262.345 2
9 0 -9 9838.93 816.203 2
9 0 -8 186.049 131.489 2
9 0 -7 11319 845.727 2
9 0 -6 90.9433 179.874 2
9 0 -6 62.3713 85.5788 3
9 0 -5 7625.77 627.449 3
9 0 -5 7440.33 669.487 2
9 0 -4 44.6252 147.166 2
9 0 -4 -156.298 191.581 3
9 0 -3 8364.89 682.277 3
9 0 -3 8678.53 714.931 2
9 0 -2 -122.542 184.619 2
9 0 -2 -37.0017 113.284 3
9 0 -1 10141.6 778.738 3
9 0 -1 10969 830.681 2
9 0 0 97.9151 189.215 2
9 0 0 -167.862 147.562 3
9 0 1 4447.94 540.529 2
9 0 1 4646.13 508.032 3
9 1 -11 2052.32 300.917 4
9 1 -10 8179.25 608.874 4
9 -1 -10 9540.76 854.409 2
9 -1 -9 4773.65 580.13 2
9 1 -9 3609.27 365.752 4
9 -1 -8 11099.3 864.059 2
9 1 -8 11097.8 818.404 2
9 -1 -7 3866.96 505.782 2
9 1 -7 3948.98 473.609 2
9 -1 -7 3361.07 406.128 3
9 1 -6 7682.44 581.521 3
9 -1 -6 7697.6 690.947 2
9 1 -6 7615.33 655.149 2
9 -1 -6 7142.56 611.338 3
9 -1 -5 729.271 233.337 2
9 1 -5 1632.53 331.314 2
9 -1 -5 1236.44 267.156 3
9 1 -5 1655.72 265.741 3
9 -1 -4 4539.86 488.13 3
9 1 -4 4976.44 490.682 3
9 -1 -4 4875.96 560.23 2
9 1 -4 4722.04 531.246 2
9 -1 -3 1397.79 312.546 2
9 1 -3 1874.83 330.559 2
9 -1 -3 2019.67 332.58 3
9 1 -3 1688.73 296.006 3
9 -1 -2 16731.1 1035.26 3
9 1 -2 18636.9 1041.23 3
9 -1 -2 19399.6 1146.63 2
9 1 -2 16951.3 1051.1 2
9 -1 -1 5837.31 587.992 3
9 1 -1 5229.2 529.807 3
9 1 -1 4479.63 532.324 2
9 -1 -1 6223.86 634.852 2
9 -1 0 18197.1 1083.48 3
9 1 0 16665.9 1034.84 3
9 -1 0 16524.1 1080.55 2
9 1 0 18760.8 1131.27 2
9 1 1 4841.63 556.346 3
9 1 1 4198.87 540.963 2
9 2 -10 7454.34 583.746 4
9 -2 -10 6817.82 741.355 2
9 -2 -9 3007.36 453.445 2
9 2 -9 2792.22 358.563 4
9 2 -8 6436.81 497.422 4
9 -2 -8 6847.48 699.877 2
9 -2 -8 6976.45 611.067 3
9 -2 -7 4648.38 582.989 2
9 -2 -7 4051.07 477.117 3
9 2 -7 4351.11 385.739 4
9 -2 -6 2615.61 445.318 2
9 2 -6 2851.44 390.855 2
9 -2 -6 3440.73 456.198 3
9 -2 -5 2467.04 445.032 2
9 2 -5 2745.16 360.246 2
9 -2 -5 2551.62 386.728 3
9 2 -5 2216.96 311.369 3
9 2 -4 4831.33 470.701 3
9 -2 -4 4286.52 550.294 2
9 -2 -4 3884.58 465.36 3
9 2 -4 4261.39 484.168 2
9 -2 -3 512.384 229.271 2
9 2 -3 1253.64 299.236 2
9 -2 -3 1160.2 298.678 3
9 2 -3 1327.8 296.425 3
9 -2 -2 7377.9 669.716 3
9 2 -2 6888.85 621.208 3
9 -2 -2 9050.99 763.073 2
9 2 -2 7361.9 661.11 2
9 -2 -1 2074.21 393.005 2
9 2 -1 1534.57 350.002 2
9 -2 -1 1388.95 272.599 3
9 2 -1 1811.05 344.047 3
9 -2 0 3815.45 498.592 2
9 2 0 3898.49 497.693 2
9 -2 0 3095.39 421.296 3
9 2 0 3740.21 466.667 3
9 3 -9 11807.7 749.209 4
9 -3 -8 198.713 168.96 2
9 -3 -8 303.188 140.219 3
9 3 -8 112.221 74.6112 4
9 3 -7 10558.7 666.722 4
9 -3 -7 11218.1 928.108 2
9 -3 -7 10101.1 800.45 3
9 -3 -6 -156.921 187.093 2
9 -3 -6 61.1711 60.8572 3
9 3 -6 -47.7522 73.1971 4
9 3 -5 7416.78 624.226 2
9 -3 -5 7741.42 699.242 3
9 -3 -4 305.208 201.993 2
9 3 -4 -108.152 82.0307 2
9 -3 -4 188.108 112.975 3
9 3 -4 -104.426 113.432 3
9 3 -3 11883.4 794.91 3
9 -3 -3 12329.8 927.898 2
9 3 -3 10664.4 785.475 2
9 -3 -3 13547.8 934.872 3
9 -3 -2 737.267 271.653 2
9 3 -2 700.679 254.622 2
9 -3 -2 1129.28 306.994 3
9 3 -2 678.272 232.374 3
9 -3 -1 19169.8 1159.44 3
9 3 -1 21265.7 1149.37 3
9 -3 -1 21020.2 1261.84 2
9 3 -1 18475 1120.89 2
9 3 0 994.945 265.014 2
9 3 0 458.313 178.31 3
9 4 -8 8557.57 626.483 4
9 -4 -8 7552.68 746.842 3
9 -4 -7 -237.466 146.088 3
9 4 -7 -133.116 93.8512 4
9 4 -6 10552.5 682.891 4
9 -4 -6 10845.6 847.144 3
9 -4 -5 162.497 166.013 3
9 4 -5 824.017 183.572 4
9 -4 -4 6342.4 644.831 3
9 4 -3 4123.33 447.351 3
9 4 -3 3461.73 436.631 2
9 -4 -3 4296.05 535.307 3
9 4 -2 6454.28 571.789 3
9 4 -2 5377.78 549.175 2
9 4 -1 1119.99 246.486 2
9 4 -1 1026.79 230.089 3
9 5 -6 7382.46 582.918 4
9 5 -5 2717.92 349.588 4
9 5 -2 4848.84 520.437 3
10 0 -7 71.171 101.232 2
10 0 -6 8800.68 771.414 2
10 0 -5 37.6551 185.418 2
10 0 -5 265.276 156.308 3
10 0 -4 12273.8 876.442 3
10 1 -6 435.382 205.308 2
10 -1 -6 688.764 192.59 3
10 1 -5 3246.58 458.638 2
10 -1 -5 2223.96 359.335 3
10 1 -4 1999.66 364.056 2
10 -1 -4 2155.25 361.856 3
10 1 -4 2440.29 376.613 3
10 1 -3 5052.85 540.517 3
10 -2 -6 1638.01 350.747 3
10 2 -5 2237.19 392.717 2
10 2 -4 2214.66 378.876 2
10 2 -3 6486.43 623.814 3

_cod_database_fobs_code 2108541
