#------------------------------------------------------------------------------
#$Date: 2021-01-26 07:40:26 +0200 (Tue, 26 Jan 2021) $
#$Revision: 261216 $
#$URL: file:///home/coder/svn-repositories/cod/cif/2/10/87/2108751.cif $
#------------------------------------------------------------------------------
#
# This file is available in the Crystallography Open Database (COD),
# http://www.crystallography.net/. The original data for this entry
# were provided by IUCr Journals, http://journals.iucr.org/.
#
# The file may be used within the scientific community so long as
# proper attribution is given to the journal article from which the
# data were obtained.
#
data_2108751
loop_
_publ_author_name
'Beske, Maurice'
'Cronje, Stephanie'
'Schmidt, Martin U.'
'Tapmeyer, Lukas'
_publ_section_title
;
 Disordered sodium alkoxides from powder data: crystal structures of
 sodium ethoxide, propoxide, butoxide and pentoxide, and some of their
 solvates
;
_journal_coeditor_code           NE5003SUP1
_journal_issue                   1
_journal_name_full               'Acta Crystallographica Section B'
_journal_page_first
;
;
_journal_paper_doi               10.1107/S205252062001584X
_journal_volume                  77
_journal_year                    2021
_chemical_compound_source        Synthesis
_chemical_formula_moiety         'C3 H7 O1 1-, Na1 1+'
_chemical_formula_sum            'C3 H7 Na O'
_chemical_formula_weight         82.08
_chemical_name_common            'Sodium propoxide, Sodium propanolate'
_chemical_name_systematic        'sodium 1-propoxide'
_chemical_properties_physical    'moisture-sensitive, hygroscopic'
_space_group_crystal_system      tetragonal
_space_group_IT_number           129
_space_group_name_Hall           '-P 4a 2a'
_space_group_name_H-M_alt        'P 4/n m m :2'
_cell_angle_alpha                90
_cell_angle_beta                 90
_cell_angle_gamma                90
_cell_formula_units_Z            2
_cell_length_a                   4.38439(5)
_cell_length_b                   4.38439(5)
_cell_length_c                   12.1431(3)
_cell_measurement_reflns_used    101
_cell_measurement_temperature    298
_cell_measurement_theta_max      99.99
_cell_measurement_theta_min      2
_cell_volume                     233.425(7)
_computing_cell_refinement       '<i>TOPAS-Academic</i> (Coelho, 2012)'
_computing_data_collection       '<i>WINX^POW^</i> (Stoe & Cie, 2004)'
_computing_data_reduction        '<i>DASH</i> 3.1 (David <i>et al.</i>, 2006)'
_computing_molecular_graphics    '<i>Mercury</i> (Macrae <i>et al.</i>, 2008)'
_computing_structure_refinement  '<i>TOPAS-Academic</i> (Coelho, 2012)'
_computing_structure_solution    '<i>DASH</i> 3.1 (David <i>et al.</i>, 2006)'
_diffrn_ambient_temperature      298
_diffrn_detector                 'linear position-sensitive detector'
_diffrn_measurement_device_type  STOE-Stadi-P
_diffrn_radiation_monochromator  Ge(111)
_diffrn_radiation_probe          x-ray
_diffrn_radiation_type           'Cu K\a~1~'
_diffrn_radiation_wavelength     1.54056
_diffrn_reflns_number            101
_diffrn_source                   'sealed X-ray tube'
_exptl_absorpt_coefficient_mu    1.473
_exptl_crystal_colour            white
_exptl_crystal_density_diffrn    1.168
_exptl_crystal_description       powder
_exptl_crystal_F_000             88.0
_exptl_crystal_recrystallization_method
'Crystallised from n-propanol solution with subsequent evaporation'
_pd_calc_method                  'Rietveld Refinement'
_pd_char_colour                  White
_pd_char_particle_morphology     powder
_pd_meas_2theta_range_inc        0.0100002
_pd_meas_2theta_range_max        99.9919
_pd_meas_2theta_range_min        2.00000
_pd_meas_number_of_points        9800
_pd_meas_scan_method             step
_pd_proc_2theta_range_inc        0.0100002
_pd_proc_2theta_range_max        99.9919
_pd_proc_2theta_range_min        2.00000
_pd_proc_info_excluded_regions   /
_pd_proc_ls_background_function  'Chebyshev function with 20 terms'
_pd_proc_ls_pref_orient_corr     none
_pd_proc_ls_profile_function     'fundamental parameters'
_pd_proc_ls_prof_R_factor        3.727
_pd_proc_ls_prof_wR_expected     2.954
_pd_proc_ls_prof_wR_factor       4.793
_pd_proc_wavelength              1.54056
_pd_spec_mounting                '1.0 mm glass capillary'
_pd_spec_mount_mode              transmission
_refine_ls_extinction_method     none
_refine_ls_goodness_of_fit_all   1.622
_refine_ls_hydrogen_treatment    refxyz
_refine_ls_matrix_type           fullcycle
_refine_ls_number_constraints    7
_refine_ls_number_parameters     56
_refine_ls_number_restraints     11
_refine_ls_R_I_factor            1.647
_refine_ls_shift/su_max          0.0001
_refine_ls_weighting_details     w=1/\s[Y~obs~]^2^
_refine_ls_weighting_scheme      sigma
_cod_data_source_file            ne5003sup1.cif
_cod_data_source_block           NaOnPr
_cod_original_cell_volume        233.426(8)
_cod_original_sg_symbol_H-M      P4/nmm:2
_cod_original_formula_sum        'C3 H7 Na1 O1'
_cod_database_code               2108751
_publcif_datablock.id            {9176d84f-6f2d-45ac-a782-11ece4fa20f6}
loop_
_symmetry_equiv_pos_as_xyz
'x, y, z '
'-x, y+1/2, -z '
'-x+1/2, -y+1/2, z '
'-x+1/2, y, z '
'-y, -x, -z '
'-y, x+1/2, -z '
'-y+1/2, -x+1/2, z '
'-y+1/2, x, z '
'y, -x+1/2, z '
'y, x, z '
'y+1/2, -x, -z '
'y+1/2, x+1/2, -z '
'x, -y+1/2, z '
'-x, -y, -z '
'x+1/2, -y, -z '
'x+1/2, y+1/2, -z '
loop_
_atom_site_label
_atom_site_type_symbol
_atom_site_symmetry_multiplicity
_atom_site_fract_x
_atom_site_fract_y
_atom_site_fract_z
_atom_site_occupancy
_atom_site_B_iso_or_equiv
_atom_site_U_iso_or_equiv
Na1 Na 2 0.75 0.25 0 1 2.34(7) 0.02969
O1 O 2 0.25 0.25 0.0728(4) 1 2.34(7) 0.02969
C1 C 8 0.206(9) 0.206(9) 0.1786(18) 0.25 11.0(9) 0.13921
H1 H 16 0.247(1056) 0.002(58) 0.197(10) 0.25 13.2(11) 0.16705
C2 C 8 0.416(9) 0.416(9) 0.247(3) 0.25 11.0(9) 0.13921
H2 H 16 0.63(4) 0.37(3) 0.229(14) 0.25 13.2(11) 0.16705
C3 C 8 0.357(7) 0.357(7) 0.374(5) 0.25 11.0(9) 0.13921
H3A H 8 0.49(3) 0.49(3) 0.419(19) 0.25 13.2(11) 0.16705
H3B H 16 0.40(5) 0.14(6) 0.39(2) 0.25 13.2(11) 0.16705
loop_
_geom_angle_atom_site_label_1
_geom_angle_atom_site_label_2
_geom_angle_atom_site_label_3
_geom_angle
Na1 O1 C1 120
loop_
_geom_bond_atom_site_label_1
_geom_bond_atom_site_label_2
_geom_bond_distance
Na1 O1 2.3637(18)
loop_
_pd_meas_2theta_scan
_pd_proc_intensity_total
_pd_calc_intensity_total
_pd_proc_ls_weight
2.00000 4288.00000 4139.93478 0.00023
2.01000 4158.00000 4136.47582 0.00024
2.02000 4200.00000 4132.92245 0.00024
2.03000 4283.00000 4129.27608 0.00023
2.04000 4142.00000 4125.53816 0.00024
2.05000 4106.00000 4121.71007 0.00024
2.06000 4213.00000 4117.79322 0.00024
2.07000 4138.00000 4113.78898 0.00024
2.08000 4183.00000 4109.69873 0.00024
2.09000 4133.00000 4105.52381 0.00024
2.10000 4149.00000 4101.26559 0.00024
2.11000 4053.00000 4096.92538 0.00025
2.12000 4091.00000 4092.50450 0.00024
2.13000 3936.00000 4088.00427 0.00025
2.14000 4056.00000 4083.42597 0.00025
2.15000 4144.00000 4078.77090 0.00024
2.16000 4095.00000 4074.04032 0.00024
2.17000 4192.00000 4069.23548 0.00024
2.18000 4082.00000 4064.35765 0.00024
2.19000 4095.00000 4059.40805 0.00024
2.20000 3997.00000 4054.38791 0.00025
2.21000 4018.00000 4049.29844 0.00025
2.22000 4070.00000 4044.14085 0.00025
2.23000 4008.00000 4038.91631 0.00025
2.24000 4031.00000 4033.62602 0.00025
2.25000 3989.00000 4028.27114 0.00025
2.26000 3902.00000 4022.85282 0.00026
2.27000 3978.00000 4017.37222 0.00025
2.28000 4140.00000 4011.83046 0.00024
2.29000 4009.00000 4006.22867 0.00025
2.30000 3985.00000 4000.56796 0.00025
2.31000 3931.00000 3994.84943 0.00025
2.32000 4069.00000 3989.07418 0.00025
2.33000 3995.00000 3983.24328 0.00025
2.34000 3988.00000 3977.35781 0.00025
2.35000 3964.00000 3971.41882 0.00025
2.36000 3901.00000 3965.42737 0.00026
2.37000 3897.00000 3959.38450 0.00026
2.38000 3931.00000 3953.29122 0.00025
2.39000 3896.00000 3947.14857 0.00026
2.40000 3812.00000 3940.95755 0.00026
2.41000 3881.00000 3934.71916 0.00026
2.42000 4013.00000 3928.43438 0.00025
2.43000 3824.00000 3922.10420 0.00026
2.44000 3849.00000 3915.72959 0.00026
2.45000 3822.00000 3909.31150 0.00026
2.46000 3888.00000 3902.85088 0.00026
2.47000 3803.00000 3896.34868 0.00026
2.48000 3811.00000 3889.80583 0.00026
2.49000 3876.00000 3883.22324 0.00026
2.50000 3826.00000 3876.60183 0.00026
2.51000 3840.00000 3869.94250 0.00026
2.52000 3869.00000 3863.24615 0.00026
2.53000 3786.00000 3856.51365 0.00026
2.54000 3736.00000 3849.74588 0.00027
2.55000 3744.00000 3842.94371 0.00027
2.56000 3728.00000 3836.10800 0.00027
2.57000 3863.00000 3829.23959 0.00026
2.58000 3777.00000 3822.33933 0.00026
2.59000 3838.00000 3815.40803 0.00026
2.60000 3768.00000 3808.44653 0.00027
2.61000 3752.00000 3801.45564 0.00027
2.62000 3761.00000 3794.43616 0.00027
2.63000 3777.00000 3787.38888 0.00026
2.64000 3645.00000 3780.31460 0.00027
2.65000 3591.00000 3773.21409 0.00028
2.66000 3606.00000 3766.08813 0.00028
2.67000 3769.00000 3758.93747 0.00027
2.68000 3806.00000 3751.76287 0.00026
2.69000 3781.00000 3744.56508 0.00026
2.70000 3763.00000 3737.34483 0.00027
2.71000 3748.00000 3730.10286 0.00027
2.72000 3674.00000 3722.83988 0.00027
2.73000 3744.00000 3715.55661 0.00027
2.74000 3701.00000 3708.25376 0.00027
2.75000 3690.00000 3700.93201 0.00027
2.76000 3710.00000 3693.59207 0.00027
2.77000 3687.00000 3686.23462 0.00027
2.78000 3742.00000 3678.86033 0.00027
2.79000 3763.00000 3671.46987 0.00027
2.80000 3680.00000 3664.06390 0.00027
2.81000 3760.00000 3656.64307 0.00027
2.82000 3736.00000 3649.20802 0.00027
2.83000 3716.00000 3641.75940 0.00027
2.84000 3631.00000 3634.29783 0.00028
2.85000 3615.00000 3626.82395 0.00028
2.86000 3709.00000 3619.33835 0.00027
2.87000 3616.00000 3611.84166 0.00028
2.88000 3623.00000 3604.33448 0.00028
2.89000 3628.00000 3596.81739 0.00028
2.90000 3584.00000 3589.29099 0.00028
2.91000 3593.00000 3581.75587 0.00028
2.92000 3611.00000 3574.21258 0.00028
2.93000 3629.00000 3566.66170 0.00028
2.94000 3617.00000 3559.10380 0.00028
2.95000 3589.00000 3551.53942 0.00028
2.96000 3624.00000 3543.96911 0.00028
2.97000 3631.00000 3536.39342 0.00028
2.98000 3685.00000 3528.81287 0.00027
2.99000 3523.00000 3521.22800 0.00028
3.00000 3546.00000 3513.63932 0.00028
3.01000 3580.00000 3506.04736 0.00028
3.02000 3584.00000 3498.45261 0.00028
3.03000 3618.00000 3490.85558 0.00028
3.04000 3537.00000 3483.25677 0.00028
3.05000 3549.00000 3475.65667 0.00028
3.06000 3529.00000 3468.05576 0.00028
3.07000 3516.00000 3460.45452 0.00028
3.08000 3594.00000 3452.85341 0.00028
3.09000 3485.00000 3445.25292 0.00029
3.10000 3507.00000 3437.65348 0.00029
3.11000 3578.00000 3430.05557 0.00028
3.12000 3488.00000 3422.45962 0.00029
3.13000 3442.00000 3414.86608 0.00029
3.14000 3496.00000 3407.27538 0.00029
3.15000 3442.00000 3399.68796 0.00029
3.16000 3421.00000 3392.10424 0.00029
3.17000 3423.00000 3384.52463 0.00029
3.18000 3498.00000 3376.94956 0.00029
3.19000 3500.00000 3369.37943 0.00029
3.20000 3375.00000 3361.81465 0.00030
3.21000 3353.00000 3354.25560 0.00030
3.22000 3391.00000 3346.70269 0.00029
3.23000 3350.00000 3339.15629 0.00030
3.24000 3416.00000 3331.61680 0.00029
3.25000 3468.00000 3324.08458 0.00029
3.26000 3410.00000 3316.56001 0.00029
3.27000 3426.00000 3309.04345 0.00029
3.28000 3442.00000 3301.53526 0.00029
3.29000 3369.00000 3294.03581 0.00030
3.30000 3261.00000 3286.54543 0.00031
3.31000 3304.00000 3279.06447 0.00030
3.32000 3296.00000 3271.59328 0.00030
3.33000 3357.00000 3264.13218 0.00030
3.34000 3301.00000 3256.68152 0.00030
3.35000 3332.00000 3249.24161 0.00030
3.36000 3263.00000 3241.81278 0.00031
3.37000 3241.00000 3234.39534 0.00031
3.38000 3249.00000 3226.98960 0.00031
3.39000 3165.00000 3219.59588 0.00032
3.40000 3136.00000 3212.21447 0.00032
3.41000 3255.00000 3204.84566 0.00031
3.42000 3241.00000 3197.48976 0.00031
3.43000 3240.00000 3190.14706 0.00031
3.44000 3235.00000 3182.81782 0.00031
3.45000 3187.00000 3175.50234 0.00031
3.46000 3249.00000 3168.20090 0.00031
3.47000 3222.00000 3160.91375 0.00031
3.48000 3249.00000 3153.64117 0.00031
3.49000 3125.00000 3146.38342 0.00032
3.50000 3316.00000 3139.14076 0.00030
3.51000 3264.00000 3131.91343 0.00031
3.52000 3204.00000 3124.70170 0.00031
3.53000 3176.00000 3117.50580 0.00031
3.54000 3174.00000 3110.32599 0.00032
3.55000 3204.00000 3103.16248 0.00031
3.56000 3141.00000 3096.01552 0.00032
3.57000 3049.00000 3088.88534 0.00033
3.58000 3166.00000 3081.77216 0.00032
3.59000 3076.00000 3074.67621 0.00033
3.60000 3084.00000 3067.59769 0.00032
3.61000 3094.00000 3060.53683 0.00032
3.62000 3057.00000 3053.49383 0.00033
3.63000 3124.00000 3046.46890 0.00032
3.64000 3118.00000 3039.46225 0.00032
3.65000 3046.00000 3032.47406 0.00033
3.66000 3160.00000 3025.50454 0.00032
3.67000 3080.00000 3018.55388 0.00032
3.68000 3040.00000 3011.62226 0.00033
3.69000 2994.00000 3004.70987 0.00033
3.70000 3029.00000 2997.81688 0.00033
3.71000 3087.00000 2990.94349 0.00032
3.72000 2914.00000 2984.08985 0.00034
3.73000 2993.00000 2977.25614 0.00033
3.74000 3089.00000 2970.44252 0.00032
3.75000 3021.00000 2963.64917 0.00033
3.76000 3032.00000 2956.87623 0.00033
3.77000 3052.00000 2950.12387 0.00033
3.78000 2975.00000 2943.39223 0.00034
3.79000 3008.00000 2936.68148 0.00033
3.80000 2980.00000 2929.99175 0.00034
3.81000 3017.00000 2923.32319 0.00033
3.82000 2863.00000 2916.67593 0.00035
3.83000 2974.00000 2910.05013 0.00034
3.84000 2996.00000 2903.44590 0.00033
3.85000 2980.00000 2896.86339 0.00034
3.86000 2981.00000 2890.30271 0.00034
3.87000 2937.00000 2883.76400 0.00034
3.88000 2889.00000 2877.24737 0.00035
3.89000 2821.00000 2870.75296 0.00035
3.90000 2881.00000 2864.28086 0.00035
3.91000 2959.00000 2857.83119 0.00034
3.92000 2889.00000 2851.40408 0.00035
3.93000 2890.00000 2844.99961 0.00035
3.94000 2896.00000 2838.61791 0.00035
3.95000 2863.00000 2832.25906 0.00035
3.96000 2846.00000 2825.92317 0.00035
3.97000 2831.00000 2819.61033 0.00035
3.98000 2817.00000 2813.32065 0.00035
3.99000 2731.00000 2807.05420 0.00037
4.00000 2858.00000 2800.81108 0.00035
4.01000 2862.00000 2794.59138 0.00035
4.02000 2768.00000 2788.39517 0.00036
4.03000 2743.00000 2782.22254 0.00036
4.04000 2747.00000 2776.07357 0.00036
4.05000 2735.00000 2769.94833 0.00037
4.06000 2791.00000 2763.84689 0.00036
4.07000 2664.00000 2757.76932 0.00038
4.08000 2710.00000 2751.71570 0.00037
4.09000 2732.00000 2745.68609 0.00037
4.10000 2690.00000 2739.68055 0.00037
4.11000 2730.00000 2733.69914 0.00037
4.12000 2722.00000 2727.74193 0.00037
4.13000 2649.00000 2721.80896 0.00038
4.14000 2669.00000 2715.90029 0.00037
4.15000 2635.00000 2710.01598 0.00038
4.16000 2660.00000 2704.15607 0.00038
4.17000 2625.00000 2698.32061 0.00038
4.18000 2562.00000 2692.50965 0.00039
4.19000 2508.00000 2686.72322 0.00040
4.20000 2496.00000 2680.96138 0.00040
4.21000 2462.00000 2675.22415 0.00041
4.22000 2528.00000 2669.51158 0.00040
4.23000 2611.00000 2663.82369 0.00038
4.24000 2538.00000 2658.16053 0.00039
4.25000 2429.00000 2652.52212 0.00041
4.26000 2614.00000 2646.90849 0.00038
4.27000 2467.00000 2641.31966 0.00041
4.28000 2532.00000 2635.75567 0.00039
4.29000 2485.00000 2630.21653 0.00040
4.30000 2405.00000 2624.70226 0.00042
4.31000 2442.00000 2619.21289 0.00041
4.32000 2446.00000 2613.74843 0.00041
4.33000 2370.00000 2608.30889 0.00042
4.34000 2393.00000 2602.89429 0.00042
4.35000 2373.00000 2597.50463 0.00042
4.36000 2441.00000 2592.13994 0.00041
4.37000 2404.00000 2586.80021 0.00042
4.38000 2368.00000 2581.48546 0.00042
4.39000 2426.00000 2576.19568 0.00041
4.40000 2390.00000 2570.93088 0.00042
4.41000 2303.00000 2565.69106 0.00043
4.42000 2342.00000 2560.47621 0.00043
4.43000 2360.00000 2555.28635 0.00042
4.44000 2278.00000 2550.12146 0.00044
4.45000 2339.00000 2544.98153 0.00043
4.46000 2304.00000 2539.86656 0.00043
4.47000 2322.00000 2534.77655 0.00043
4.48000 2207.00000 2529.71147 0.00045
4.49000 2329.00000 2524.67133 0.00043
4.50000 2255.00000 2519.65609 0.00044
4.51000 2300.00000 2514.66576 0.00043
4.52000 2210.00000 2509.70031 0.00045
4.53000 2235.00000 2504.75973 0.00045
4.54000 2197.00000 2499.84399 0.00046
4.55000 2188.00000 2494.95308 0.00046
4.56000 2210.00000 2490.08697 0.00045
4.57000 2257.00000 2485.24564 0.00044
4.58000 2204.00000 2480.42907 0.00045
4.59000 2206.00000 2475.63722 0.00045
4.60000 2163.00000 2470.87008 0.00046
4.61000 2227.00000 2466.12761 0.00045
4.62000 2196.00000 2461.40978 0.00046
4.63000 2251.00000 2456.71656 0.00044
4.64000 2229.00000 2452.04792 0.00045
4.65000 2164.00000 2447.40382 0.00046
4.66000 2200.00000 2442.78424 0.00045
4.67000 2235.00000 2438.18912 0.00045
4.68000 2218.00000 2433.61844 0.00045
4.69000 2238.00000 2429.07216 0.00045
4.70000 2309.00000 2424.55023 0.00043
4.71000 2272.00000 2420.05261 0.00044
4.72000 2249.00000 2415.57927 0.00044
4.73000 2320.00000 2411.13016 0.00043
4.74000 2308.00000 2406.70524 0.00043
4.75000 2241.00000 2402.30445 0.00045
4.76000 2166.00000 2397.92776 0.00046
4.77000 2269.00000 2393.57511 0.00044
4.78000 2268.00000 2389.24646 0.00044
4.79000 2358.00000 2384.94175 0.00042
4.80000 2318.00000 2380.66094 0.00043
4.81000 2302.00000 2376.40398 0.00043
4.82000 2309.00000 2372.17081 0.00043
4.83000 2321.00000 2367.96137 0.00043
4.84000 2313.00000 2363.77562 0.00043
4.85000 2351.00000 2359.61350 0.00043
4.86000 2364.00000 2355.47495 0.00042
4.87000 2401.00000 2351.35992 0.00042
4.88000 2309.00000 2347.26834 0.00043
4.89000 2259.00000 2343.20016 0.00044
4.90000 2301.00000 2339.15531 0.00043
4.91000 2304.00000 2335.13374 0.00043
4.92000 2282.00000 2331.13539 0.00044
4.93000 2349.00000 2327.16019 0.00043
4.94000 2338.00000 2323.20808 0.00043
4.95000 2284.00000 2319.27899 0.00044
4.96000 2311.00000 2315.37286 0.00043
4.97000 2342.00000 2311.48963 0.00043
4.98000 2351.00000 2307.62923 0.00043
4.99000 2287.00000 2303.79159 0.00044
5.00000 2393.00000 2299.97664 0.00042
5.01000 2286.00000 2296.18431 0.00044
5.02000 2366.00000 2292.41455 0.00042
5.03000 2315.00000 2288.66726 0.00043
5.04000 2362.00000 2284.94240 0.00042
5.05000 2230.00000 2281.23987 0.00045
5.06000 2314.00000 2277.55962 0.00043
5.07000 2304.00000 2273.90157 0.00043
5.08000 2299.00000 2270.26564 0.00043
5.09000 2323.00000 2266.65176 0.00043
5.10000 2338.00000 2263.05987 0.00043
5.11000 2247.00000 2259.48987 0.00045
5.12000 2308.00000 2255.94171 0.00043
5.13000 2316.00000 2252.41529 0.00043
5.14000 2317.00000 2248.91055 0.00043
5.15000 2346.00000 2245.42740 0.00043
5.16000 2260.00000 2241.96578 0.00044
5.17000 2221.00000 2238.52559 0.00045
5.18000 2300.00000 2235.10677 0.00043
5.19000 2269.00000 2231.70923 0.00044
5.20000 2269.00000 2228.33289 0.00044
5.21000 2291.00000 2224.97767 0.00044
5.22000 2287.00000 2221.64349 0.00044
5.23000 2299.00000 2218.33028 0.00043
5.24000 2302.00000 2215.03794 0.00043
5.25000 2228.00000 2211.76640 0.00045
5.26000 2244.00000 2208.51558 0.00045
5.27000 2277.00000 2205.28538 0.00044
5.28000 2399.00000 2202.07573 0.00042
5.29000 2316.00000 2198.88654 0.00043
5.30000 2269.00000 2195.71774 0.00044
5.31000 2256.00000 2192.56922 0.00044
5.32000 2319.00000 2189.44092 0.00043
5.33000 2340.00000 2186.33274 0.00043
5.34000 2310.00000 2183.24460 0.00043
5.35000 2246.00000 2180.17641 0.00045
5.36000 2219.00000 2177.12808 0.00045
5.37000 2313.00000 2174.09954 0.00043
5.38000 2276.00000 2171.09069 0.00044
5.39000 2280.00000 2168.10144 0.00044
5.40000 2240.00000 2165.13171 0.00045
5.41000 2228.00000 2162.18149 0.00045
5.42000 2315.00000 2159.25112 0.00043
5.43000 2263.00000 2156.34111 0.00044
5.44000 2218.00000 2153.45156 0.00045
5.45000 2248.00000 2150.58242 0.00044
5.46000 2286.00000 2147.73364 0.00044
5.47000 2217.00000 2144.90521 0.00045
5.48000 2249.00000 2142.09708 0.00044
5.49000 2253.00000 2139.30923 0.00044
5.50000 2178.00000 2136.54190 0.00046
5.51000 2231.00000 2133.79574 0.00045
5.52000 2220.00000 2131.07117 0.00045
5.53000 2195.00000 2128.36824 0.00046
5.54000 2212.00000 2125.68698 0.00045
5.55000 2235.00000 2123.02745 0.00045
5.56000 2224.00000 2120.38970 0.00045
5.57000 2316.00000 2117.77380 0.00043
5.58000 2239.00000 2115.18011 0.00045
5.59000 2235.00000 2112.60947 0.00045
5.60000 2207.00000 2110.06246 0.00045
5.61000 2199.00000 2107.53926 0.00045
5.62000 2302.00000 2105.04002 0.00043
5.63000 2217.00000 2102.56493 0.00045
5.64000 2257.00000 2100.11419 0.00044
5.65000 2178.00000 2097.68811 0.00046
5.66000 2177.00000 2095.28751 0.00046
5.67000 2202.00000 2092.91353 0.00045
5.68000 2209.00000 2090.56667 0.00045
5.69000 2149.00000 2088.24728 0.00047
5.70000 2125.00000 2085.95573 0.00047
5.71000 2188.00000 2083.69243 0.00046
5.72000 2232.00000 2081.45793 0.00045
5.73000 2249.00000 2079.25334 0.00044
5.74000 2203.00000 2077.08022 0.00045
5.75000 2242.00000 2074.93939 0.00045
5.76000 2153.00000 2072.83150 0.00046
5.77000 2216.00000 2070.75723 0.00045
5.78000 2125.00000 2068.71738 0.00047
5.79000 2157.00000 2066.71308 0.00046
5.80000 2179.00000 2064.74631 0.00046
5.81000 2201.00000 2062.81889 0.00045
5.82000 2129.00000 2060.93194 0.00047
5.83000 2151.00000 2059.08663 0.00046
5.84000 2169.00000 2057.28424 0.00046
5.85000 2222.00000 2055.52649 0.00045
5.86000 2172.00000 2053.81607 0.00046
5.87000 2148.00000 2052.15568 0.00047
5.88000 2179.00000 2050.54723 0.00046
5.89000 2185.00000 2048.99267 0.00046
5.90000 2207.00000 2047.49429 0.00045
5.91000 2205.00000 2046.05519 0.00045
5.92000 2191.00000 2044.67959 0.00046
5.93000 2232.00000 2043.37105 0.00045
5.94000 2157.00000 2042.13270 0.00046
5.95000 2179.00000 2040.96813 0.00046
5.96000 2153.00000 2039.88198 0.00046
5.97000 2120.00000 2038.88041 0.00047
5.98000 2145.00000 2037.96927 0.00047
5.99000 2142.00000 2037.15385 0.00047
6.00000 2118.00000 2036.44069 0.00047
6.01000 2160.00000 2035.83957 0.00046
6.02000 2189.00000 2035.36342 0.00046
6.03000 2138.00000 2035.02251 0.00047
6.04000 2175.00000 2034.82756 0.00046
6.05000 2153.00000 2034.79246 0.00046
6.06000 2147.00000 2034.93445 0.00047
6.07000 2069.00000 2035.27130 0.00048
6.08000 2144.00000 2035.82353 0.00047
6.09000 2142.00000 2036.61771 0.00047
6.10000 2123.00000 2037.68562 0.00047
6.11000 2257.00000 2039.06299 0.00044
6.12000 2111.00000 2040.79504 0.00047
6.13000 2084.00000 2042.93723 0.00048
6.14000 2147.00000 2045.55884 0.00047
6.15000 2217.00000 2048.75624 0.00045
6.16000 2200.00000 2052.66922 0.00045
6.17000 2197.00000 2057.52661 0.00046
6.18000 2124.00000 2063.76677 0.00047
6.19000 2116.00000 2072.65618 0.00047
6.20000 2198.00000 2085.63132 0.00045
6.21000 2253.00000 2096.94165 0.00044
6.22000 2248.00000 2098.55932 0.00044
6.23000 2178.00000 2099.56935 0.00046
6.24000 2131.00000 2100.68878 0.00047
6.25000 2148.00000 2101.92281 0.00047
6.26000 2231.00000 2103.27707 0.00045
6.27000 2240.00000 2104.75765 0.00045
6.28000 2165.00000 2106.37120 0.00046
6.29000 2251.00000 2108.12492 0.00044
6.30000 2260.00000 2110.02673 0.00044
6.31000 2308.00000 2112.08537 0.00043
6.32000 2215.00000 2114.31059 0.00045
6.33000 2177.00000 2116.71340 0.00046
6.34000 2288.00000 2119.30650 0.00044
6.35000 2298.00000 2122.10487 0.00044
6.36000 2269.00000 2125.12667 0.00044
6.37000 2281.00000 2128.39453 0.00044
6.38000 2284.00000 2131.93726 0.00044
6.39000 2275.00000 2135.79219 0.00044
6.40000 2268.00000 2140.00789 0.00044
6.41000 2380.00000 2144.64739 0.00042
6.42000 2380.00000 2149.79144 0.00042
6.43000 2384.00000 2155.54156 0.00042
6.44000 2442.00000 2162.02221 0.00041
6.45000 2439.00000 2169.38177 0.00041
6.46000 2478.00000 2177.79160 0.00040
6.47000 2474.00000 2187.44287 0.00040
6.48000 2510.00000 2198.54072 0.00040
6.49000 2490.00000 2211.29587 0.00040
6.50000 2559.00000 2225.91403 0.00039
6.51000 2480.00000 2242.58548 0.00040
6.52000 2605.00000 2261.47830 0.00038
6.53000 2594.00000 2282.73836 0.00039
6.54000 2579.00000 2306.49633 0.00039
6.55000 2681.00000 2332.87811 0.00037
6.56000 2705.00000 2362.01419 0.00037
6.57000 2643.00000 2394.04450 0.00038
6.58000 2730.00000 2429.11765 0.00037
6.59000 2748.00000 2467.38565 0.00036
6.60000 2911.00000 2508.99780 0.00034
6.61000 2957.00000 2554.09805 0.00034
6.62000 2952.00000 2602.82854 0.00034
6.63000 3012.00000 2655.33776 0.00033
6.64000 2999.00000 2711.78901 0.00033
6.65000 3031.00000 2772.36498 0.00033
6.66000 3127.00000 2837.26648 0.00032
6.67000 3204.00000 2906.70651 0.00031
6.68000 3230.00000 2980.90322 0.00031
6.69000 3297.00000 3060.07691 0.00030
6.70000 3268.00000 3144.45374 0.00031
6.71000 3315.00000 3234.27438 0.00030
6.72000 3442.00000 3329.80265 0.00029
6.73000 3405.00000 3431.32945 0.00029
6.74000 3524.00000 3539.17047 0.00028
6.75000 3668.00000 3653.66000 0.00027
6.76000 3682.00000 3775.14589 0.00027
6.77000 3873.00000 3903.99071 0.00026
6.78000 4014.00000 4040.57972 0.00025
6.79000 4144.00000 4185.33148 0.00024
6.80000 4219.00000 4338.70496 0.00024
6.81000 4302.00000 4501.20034 0.00023
6.82000 4502.00000 4673.35491 0.00022
6.83000 4704.00000 4855.73969 0.00021
6.84000 4849.00000 5048.96265 0.00021
6.85000 4994.00000 5253.67932 0.00020
6.86000 5222.00000 5470.60611 0.00019
6.87000 5388.00000 5700.52986 0.00019
6.88000 5711.00000 5944.31094 0.00018
6.89000 5739.00000 6202.88338 0.00017
6.90000 5988.00000 6477.25920 0.00017
6.91000 6394.00000 6768.54157 0.00016
6.92000 6592.00000 7077.94510 0.00015
6.93000 7027.00000 7406.81661 0.00014
6.94000 7214.00000 7756.65188 0.00014
6.95000 7701.00000 8129.11098 0.00013
6.96000 8129.00000 8526.04021 0.00012
6.97000 8312.00000 8949.50733 0.00012
6.98000 8840.00000 9401.84935 0.00011
6.99000 9244.00000 9885.72714 0.00011
7.00000 9872.00000 10404.18354 0.00010
7.01000 10411.00000 10960.70928 0.00009
7.02000 10955.00000 11559.32555 0.00008
7.03000 11644.00000 12204.68772 0.00007
7.04000 12636.00000 12902.20821 0.00006
7.05000 13217.00000 13658.19690 0.00006
7.06000 14008.00000 14480.02704 0.00005
7.07000 14916.00000 15376.34380 0.00004
7.08000 16174.00000 16357.33257 0.00004
7.09000 17000.00000 17435.05639 0.00003
7.10000 18260.00000 18623.86552 0.00003
7.11000 19842.00000 19940.86947 0.00003
7.12000 21426.00000 21406.41506 0.00002
7.13000 23183.00000 23044.41440 0.00002
7.14000 25395.00000 24882.22988 0.00002
7.15000 27816.00000 26949.68944 0.00001
7.16000 30268.00000 29276.71068 0.00001
7.17000 33580.00000 31889.00511 0.00001
7.18000 36579.00000 34801.49199 0.00001
7.19000 40111.00000 38009.44771 0.00001
7.20000 43942.00000 41478.05020 0.00001
7.21000 47719.00000 45131.73304 0.00000
7.22000 51361.00000 48845.42341 0.00000
7.23000 54417.00000 52440.03663 0.00000
7.24000 57365.00000 55684.39576 0.00000
7.25000 58712.00000 58305.29264 0.00000
7.25999 60406.00000 60006.62703 0.00000
7.27000 59699.00000 60507.04145 0.00000
7.27999 57778.00000 59583.59162 0.00000
7.29000 54592.00000 57136.15189 0.00000
7.29999 50059.00000 53267.21865 0.00000
7.31000 45163.00000 48250.75074 0.00000
7.31999 39706.00000 42535.91624 0.00001
7.33000 33865.00000 36561.96367 0.00001
7.33999 28888.00000 30755.11293 0.00001
7.35000 23733.00000 25390.32180 0.00002
7.35999 19638.00000 20674.27407 0.00003
7.37000 16041.00000 16676.04646 0.00004
7.37999 13174.00000 13419.10166 0.00006
7.39000 10910.00000 10841.39693 0.00008
7.39999 9218.00000 8866.76422 0.00011
7.41000 7735.00000 7384.50372 0.00013
7.41999 6784.00000 6295.55082 0.00015
7.43000 5787.00000 5500.26403 0.00017
7.43999 5299.00000 4921.45706 0.00019
7.45000 4751.00000 4493.82029 0.00021
7.45999 4377.00000 4172.14158 0.00023
7.47000 4057.00000 3921.99883 0.00025
7.47999 3765.00000 3721.80270 0.00027
7.49000 3541.00000 3555.88560 0.00028
7.49999 3386.00000 3415.25218 0.00030
7.50999 3218.00000 3293.23283 0.00031
7.51999 3010.00000 3185.88754 0.00033
7.52999 2963.00000 3090.44561 0.00034
7.53999 2961.00000 3004.93898 0.00034
7.54999 2909.00000 2927.89704 0.00034
7.55999 2726.00000 2858.16943 0.00037
7.56999 2642.00000 2794.82357 0.00038
7.57999 2543.00000 2737.08429 0.00039
7.58999 2549.00000 2684.29644 0.00039
7.59999 2524.00000 2635.90014 0.00040
7.60999 2453.00000 2591.41303 0.00041
7.61999 2430.00000 2550.41724 0.00041
7.62999 2453.00000 2512.54972 0.00041
7.63999 2393.00000 2477.49355 0.00042
7.64999 2275.00000 2444.97098 0.00044
7.65999 2252.00000 2414.73777 0.00044
7.66999 2245.00000 2386.57843 0.00045
7.67999 2269.00000 2360.30230 0.00044
7.68999 2196.00000 2335.73989 0.00046
7.69999 2217.00000 2312.73997 0.00045
7.70999 2190.00000 2291.16774 0.00046
7.71999 2152.00000 2270.90298 0.00046
7.72999 2162.00000 2251.83788 0.00046
7.73999 2153.00000 2233.87553 0.00046
7.74999 2151.00000 2216.92862 0.00046
7.75999 2084.00000 2200.91829 0.00048
7.76999 2184.00000 2185.77295 0.00046
7.77999 2149.00000 2171.42718 0.00047
7.78999 2055.00000 2157.82181 0.00049
7.79999 2102.00000 2144.90334 0.00048
7.80999 2096.00000 2132.62306 0.00048
7.81999 2011.00000 2120.93645 0.00050
7.82999 2115.00000 2109.80279 0.00047
7.83999 2053.00000 2099.18465 0.00049
7.84999 2043.00000 2089.04720 0.00049
7.85999 2095.00000 2079.35810 0.00048
7.86999 2073.00000 2070.08818 0.00048
7.87999 2068.00000 2061.21072 0.00048
7.88999 2042.00000 2052.70104 0.00049
7.89999 1982.00000 2044.53629 0.00050
7.90999 1988.00000 2036.69523 0.00050
7.91999 1963.00000 2029.15761 0.00051
7.92999 1951.00000 2021.90420 0.00051
7.93999 1945.00000 2014.91786 0.00051
7.94999 1905.00000 2008.18280 0.00052
7.95999 1954.00000 2001.68430 0.00051
7.96999 1876.00000 1995.40858 0.00053
7.97999 1835.00000 1989.34245 0.00054
7.98999 1854.00000 1983.47275 0.00054
7.99999 1936.00000 1977.78733 0.00052
8.00999 1897.00000 1972.27551 0.00053
8.01999 1867.00000 1966.92724 0.00054
8.02999 1959.00000 1961.73302 0.00051
8.03999 1762.00000 1956.68352 0.00057
8.04999 1783.00000 1951.76902 0.00056
8.05999 1889.00000 1946.98038 0.00053
8.06999 1794.00000 1942.30977 0.00056
8.07999 1779.00000 1937.74979 0.00056
8.08999 1810.00000 1933.29317 0.00055
8.09999 1858.00000 1928.93226 0.00054
8.10999 1799.00000 1924.65878 0.00056
8.11999 1814.00000 1920.46552 0.00055
8.12999 1751.00000 1916.34612 0.00057
8.13999 1794.00000 1912.29413 0.00056
8.14999 1770.00000 1908.30248 0.00056
8.15999 1786.00000 1904.36294 0.00056
8.16999 1763.00000 1900.46806 0.00057
8.17999 1770.00000 1896.61133 0.00056
8.18999 1825.00000 1892.78541 0.00055
8.19999 1774.00000 1888.98014 0.00056
8.20999 1719.00000 1885.18280 0.00058
8.21999 1736.00000 1881.38389 0.00058
8.22999 1792.00000 1877.57395 0.00056
8.23999 1693.00000 1873.74092 0.00059
8.24999 1759.00000 1869.87006 0.00057
8.25999 1757.00000 1865.94682 0.00057
8.26999 1821.00000 1861.95468 0.00055
8.27999 1882.00000 1857.87197 0.00053
8.28999 1792.00000 1853.67296 0.00056
8.29999 1729.00000 1849.32916 0.00058
8.30999 1698.00000 1844.80414 0.00059
8.31999 1742.00000 1840.05303 0.00057
8.32999 1730.00000 1835.01936 0.00058
8.33999 1737.00000 1829.62255 0.00058
8.34999 1679.00000 1823.74279 0.00060
8.35999 1719.00000 1817.17780 0.00058
8.36999 1722.00000 1809.52781 0.00058
8.37999 1756.00000 1799.59681 0.00057
8.38999 1757.00000 1786.06021 0.00057
8.39999 1750.00000 1774.97233 0.00057
8.40999 1711.00000 1773.33501 0.00058
8.41999 1774.00000 1772.70506 0.00056
8.42999 1713.00000 1772.07547 0.00058
8.43999 1758.00000 1771.44622 0.00057
8.44999 1737.00000 1770.81728 0.00058
8.45999 1728.00000 1770.18866 0.00058
8.46999 1801.00000 1769.56033 0.00056
8.47999 1703.00000 1768.93228 0.00059
8.48999 1726.00000 1768.30450 0.00058
8.49999 1771.00000 1767.67696 0.00056
8.50999 1746.00000 1767.04967 0.00057
8.51999 1709.00000 1766.42260 0.00059
8.52999 1745.00000 1765.79574 0.00057
8.53999 1728.00000 1765.16908 0.00058
8.54999 1734.00000 1764.54261 0.00058
8.55999 1731.00000 1763.91631 0.00058
8.56999 1799.00000 1763.29018 0.00056
8.57999 1870.00000 1762.66419 0.00053
8.58999 1726.00000 1762.03835 0.00058
8.59999 1786.00000 1761.41264 0.00056
8.60999 1756.00000 1760.78704 0.00057
8.61999 1727.00000 1760.16155 0.00058
8.62999 1757.00000 1759.53616 0.00057
8.63999 1757.00000 1758.91086 0.00057
8.64999 1862.00000 1758.28563 0.00054
8.65999 1777.00000 1757.66047 0.00056
8.66999 1800.00000 1757.03537 0.00056
8.67999 1757.00000 1756.41032 0.00057
8.68999 1740.00000 1755.78531 0.00057
8.69999 1779.00000 1755.16034 0.00056
8.70999 1752.00000 1754.53538 0.00057
8.71999 1749.00000 1753.91045 0.00057
8.72999 1729.00000 1753.28552 0.00058
8.73999 1820.00000 1752.66059 0.00055
8.74999 1763.00000 1752.03566 0.00057
8.75999 1712.00000 1751.41071 0.00058
8.76999 1728.00000 1750.78574 0.00058
8.77999 1621.00000 1750.16075 0.00062
8.78999 1684.00000 1749.53572 0.00059
8.79999 1682.00000 1748.91065 0.00059
8.80999 1710.00000 1748.28554 0.00058
8.81999 1723.00000 1747.66038 0.00058
8.82999 1683.00000 1747.03516 0.00059
8.83999 1751.00000 1746.40988 0.00057
8.84999 1745.00000 1745.78453 0.00057
8.85999 1710.00000 1745.15912 0.00058
8.86999 1646.00000 1744.53363 0.00061
8.87999 1668.00000 1743.90805 0.00060
8.88999 1718.00000 1743.28240 0.00058
8.89999 1730.00000 1742.65666 0.00058
8.90999 1633.00000 1742.03082 0.00061
8.91999 1714.00000 1741.40489 0.00058
8.92999 1614.00000 1740.77887 0.00062
8.93999 1704.00000 1740.15274 0.00059
8.94999 1700.00000 1739.52651 0.00059
8.95999 1663.00000 1738.90018 0.00060
8.96999 1661.00000 1738.27374 0.00060
8.97999 1784.00000 1737.64719 0.00056
8.98999 1786.00000 1737.02052 0.00056
8.99999 1686.00000 1736.39375 0.00059
9.00999 1687.00000 1735.76685 0.00059
9.01999 1688.00000 1735.13985 0.00059
9.02999 1640.00000 1734.51272 0.00061
9.03999 1668.00000 1733.88548 0.00060
9.04999 1650.00000 1733.25812 0.00061
9.05999 1689.00000 1732.63064 0.00059
9.06999 1658.00000 1732.00304 0.00060
9.07999 1684.00000 1731.37532 0.00059
9.08999 1655.00000 1730.74749 0.00060
9.09999 1679.00000 1730.11953 0.00060
9.10999 1716.00000 1729.49146 0.00058
9.11999 1699.00000 1728.86327 0.00059
9.12999 1684.00000 1728.23496 0.00059
9.13999 1651.00000 1727.60654 0.00061
9.14999 1650.00000 1726.97800 0.00061
9.15999 1629.00000 1726.34936 0.00061
9.16999 1690.00000 1725.72060 0.00059
9.17999 1636.00000 1725.09173 0.00061
9.18999 1602.00000 1724.46276 0.00062
9.19999 1657.00000 1723.83368 0.00060
9.20999 1755.00000 1723.20450 0.00057
9.21999 1691.00000 1722.57522 0.00059
9.22999 1689.00000 1721.94584 0.00059
9.23999 1673.00000 1721.31637 0.00060
9.24999 1625.00000 1720.68681 0.00062
9.25999 1634.00000 1720.05717 0.00061
9.26999 1729.00000 1719.42744 0.00058
9.27999 1665.00000 1718.79762 0.00060
9.28999 1602.00000 1718.16774 0.00062
9.29999 1686.00000 1717.53778 0.00059
9.30999 1704.00000 1716.90775 0.00059
9.31999 1751.00000 1716.27766 0.00057
9.32999 1596.00000 1715.64751 0.00063
9.33999 1637.00000 1715.01730 0.00061
9.34999 1616.00000 1714.38705 0.00062
9.35999 1706.00000 1713.75675 0.00059
9.36999 1678.00000 1713.12641 0.00060
9.37999 1668.00000 1712.49604 0.00060
9.38999 1691.00000 1711.86563 0.00059
9.39999 1721.00000 1711.23521 0.00058
9.40999 1607.00000 1710.60476 0.00062
9.41999 1659.00000 1709.97431 0.00060
9.42999 1743.00000 1709.34385 0.00057
9.43999 1685.00000 1708.71338 0.00059
9.44999 1660.00000 1708.08293 0.00060
9.45999 1678.00000 1707.45249 0.00060
9.46999 1618.00000 1706.82207 0.00062
9.47999 1650.00000 1706.19167 0.00061
9.48999 1742.00000 1705.56131 0.00057
9.49999 1759.00000 1704.93099 0.00057
9.50999 1700.00000 1704.30072 0.00059
9.51999 1683.00000 1703.67050 0.00059
9.52999 1655.00000 1703.04035 0.00060
9.53999 1661.00000 1702.41026 0.00060
9.54999 1670.00000 1701.78026 0.00060
9.55999 1665.00000 1701.15033 0.00060
9.56999 1663.00000 1700.52051 0.00060
9.57999 1701.00000 1699.89078 0.00059
9.58999 1626.00000 1699.26117 0.00062
9.59999 1707.00000 1698.63167 0.00059
9.60999 1667.00000 1698.00230 0.00060
9.61999 1651.00000 1697.37307 0.00061
9.62999 1629.00000 1696.74398 0.00061
9.63999 1650.00000 1696.11504 0.00061
9.64999 1562.00000 1695.48627 0.00064
9.65999 1635.00000 1694.85767 0.00061
9.66999 1665.00000 1694.22924 0.00060
9.67999 1578.00000 1693.60101 0.00063
9.68999 1594.00000 1692.97298 0.00063
9.69999 1578.00000 1692.34516 0.00063
9.70999 1644.00000 1691.71756 0.00061
9.71999 1739.00000 1691.09018 0.00058
9.72999 1690.00000 1690.46304 0.00059
9.73999 1720.00000 1689.83616 0.00058
9.74999 1664.00000 1689.20953 0.00060
9.75999 1632.00000 1688.58317 0.00061
9.76999 1679.00000 1687.95709 0.00060
9.77999 1692.00000 1687.33130 0.00059
9.78999 1630.00000 1686.70580 0.00061
9.79999 1662.00000 1686.08063 0.00060
9.80999 1655.00000 1685.45577 0.00060
9.81999 1666.00000 1684.83124 0.00060
9.82999 1642.00000 1684.20706 0.00061
9.83999 1600.00000 1683.58323 0.00063
9.84999 1657.00000 1682.95977 0.00060
9.85999 1615.00000 1682.33669 0.00062
9.86999 1680.00000 1681.71399 0.00060
9.87999 1686.00000 1681.09170 0.00059
9.88999 1663.00000 1680.46981 0.00060
9.89999 1593.00000 1679.84835 0.00063
9.90999 1673.00000 1679.22732 0.00060
9.91999 1639.00000 1678.60674 0.00061
9.92999 1656.00000 1677.98662 0.00060
9.93999 1652.00000 1677.36697 0.00061
9.94999 1621.00000 1676.74780 0.00062
9.95999 1679.00000 1676.12913 0.00060
9.96999 1748.00000 1675.51096 0.00057
9.97999 1629.00000 1674.89331 0.00061
9.98999 1715.00000 1674.27619 0.00058
9.99999 1642.00000 1673.65961 0.00061
10.00999 1681.00000 1673.04360 0.00059
10.01999 1674.00000 1672.42815 0.00060
10.02999 1658.00000 1671.81328 0.00060
10.03999 1645.00000 1671.19900 0.00061
10.04999 1584.00000 1670.58534 0.00063
10.05999 1656.00000 1669.97229 0.00060
10.06999 1579.00000 1669.35988 0.00063
10.07999 1663.00000 1668.74811 0.00060
10.08999 1564.00000 1668.13700 0.00064
10.09999 1633.00000 1667.52656 0.00061
10.10999 1578.00000 1666.91681 0.00063
10.11999 1599.00000 1666.30775 0.00063
10.12999 1703.00000 1665.69941 0.00059
10.13999 1667.00000 1665.09180 0.00060
10.14999 1619.00000 1664.48492 0.00062
10.15999 1639.00000 1663.87879 0.00061
10.16999 1689.00000 1663.27343 0.00059
10.17999 1628.00000 1662.66885 0.00061
10.18999 1600.00000 1662.06507 0.00063
10.19999 1638.00000 1661.46208 0.00061
10.20999 1639.00000 1660.85992 0.00061
10.21999 1641.00000 1660.25860 0.00061
10.22999 1580.00000 1659.65812 0.00063
10.23999 1592.00000 1659.05851 0.00063
10.24999 1582.00000 1658.45977 0.00063
10.25999 1573.00000 1657.86192 0.00064
10.26999 1620.00000 1657.26498 0.00062
10.27999 1628.00000 1656.66896 0.00061
10.28999 1627.00000 1656.07386 0.00061
10.29999 1630.00000 1655.47972 0.00061
10.30999 1667.00000 1654.88654 0.00060
10.31999 1624.00000 1654.29433 0.00062
10.32999 1622.00000 1653.70311 0.00062
10.33999 1715.00000 1653.11290 0.00058
10.34999 1616.00000 1652.52370 0.00062
10.35999 1691.00000 1651.93554 0.00059
10.36999 1590.00000 1651.34843 0.00063
10.37999 1639.00000 1650.76237 0.00061
10.38999 1681.00000 1650.17740 0.00059
10.39999 1574.00000 1649.59352 0.00064
10.40999 1609.00000 1649.01074 0.00062
10.41999 1665.00000 1648.42908 0.00060
10.42999 1661.00000 1647.84856 0.00060
10.43999 1607.00000 1647.26919 0.00062
10.44999 1629.00000 1646.69098 0.00061
10.45999 1606.00000 1646.11396 0.00062
10.46999 1664.00000 1645.53812 0.00060
10.47999 1622.00000 1644.96350 0.00062
10.48999 1610.00000 1644.39010 0.00062
10.49999 1639.00000 1643.81794 0.00061
10.50999 1554.00000 1643.24704 0.00064
10.51999 1599.00000 1642.67740 0.00063
10.52999 1606.00000 1642.10905 0.00062
10.53999 1650.00000 1641.54199 0.00061
10.54999 1630.00000 1640.97625 0.00061
10.55999 1638.00000 1640.41184 0.00061
10.56999 1686.00000 1639.84877 0.00059
10.57999 1684.00000 1639.28706 0.00059
10.58999 1652.00000 1638.72672 0.00061
10.59999 1645.00000 1638.16778 0.00061
10.60999 1632.00000 1637.61023 0.00061
10.61999 1643.00000 1637.05411 0.00061
10.62999 1623.00000 1636.49942 0.00062
10.63999 1617.00000 1635.94618 0.00062
10.64999 1679.00000 1635.39440 0.00060
10.65999 1618.00000 1634.84410 0.00062
10.66999 1649.00000 1634.29530 0.00061
10.67999 1638.00000 1633.74801 0.00061
10.68999 1628.00000 1633.20224 0.00061
10.69999 1563.00000 1632.65801 0.00064
10.70999 1527.00000 1632.11534 0.00065
10.71999 1559.00000 1631.57423 0.00064
10.72999 1628.00000 1631.03471 0.00061
10.73999 1653.00000 1630.49680 0.00060
10.74999 1628.00000 1629.96049 0.00061
10.75999 1681.00000 1629.42582 0.00059
10.76999 1659.00000 1628.89280 0.00060
10.77999 1642.00000 1628.36143 0.00061
10.78999 1659.00000 1627.83174 0.00060
10.79999 1712.00000 1627.30375 0.00058
10.80999 1601.00000 1626.77746 0.00062
10.81999 1651.00000 1626.25289 0.00061
10.82999 1665.00000 1625.73005 0.00060
10.83999 1618.00000 1625.20897 0.00062
10.84999 1672.00000 1624.68966 0.00060
10.85999 1649.00000 1624.17213 0.00061
10.86999 1645.00000 1623.65639 0.00061
10.87999 1684.00000 1623.14247 0.00059
10.88999 1626.00000 1622.63037 0.00062
10.89999 1613.00000 1622.12012 0.00062
10.90999 1636.00000 1621.61172 0.00061
10.91999 1686.00000 1621.10520 0.00059
10.92999 1635.00000 1620.60056 0.00061
10.93999 1581.00000 1620.09783 0.00063
10.94999 1638.00000 1619.59701 0.00061
10.95999 1612.00000 1619.09812 0.00062
10.96999 1673.00000 1618.60118 0.00060
10.97999 1680.00000 1618.10621 0.00060
10.98999 1646.00000 1617.61321 0.00061
10.99999 1589.00000 1617.12220 0.00063
11.00999 1614.00000 1616.63320 0.00062
11.01999 1609.00000 1616.14622 0.00062
11.02999 1626.00000 1615.66127 0.00062
11.03999 1630.00000 1615.17838 0.00061
11.04999 1606.00000 1614.69755 0.00062
11.05999 1557.00000 1614.21880 0.00064
11.06999 1636.00000 1613.74215 0.00061
11.07999 1614.00000 1613.26761 0.00062
11.08999 1648.00000 1612.79519 0.00061
11.09999 1642.00000 1612.32491 0.00061
11.10999 1669.00000 1611.85679 0.00060
11.11999 1637.00000 1611.39083 0.00061
11.12999 1634.00000 1610.92706 0.00061
11.13999 1660.00000 1610.46548 0.00060
11.14999 1657.00000 1610.00611 0.00060
11.15999 1595.00000 1609.54898 0.00063
11.16999 1752.00000 1609.09408 0.00057
11.17999 1585.00000 1608.64143 0.00063
11.18999 1623.00000 1608.19106 0.00062
11.19999 1630.00000 1607.74297 0.00061
11.20999 1692.00000 1607.29718 0.00059
11.21999 1663.00000 1606.85370 0.00060
11.22999 1610.00000 1606.41254 0.00062
11.23999 1619.00000 1605.97373 0.00062
11.24999 1580.00000 1605.53727 0.00063
11.25999 1615.00000 1605.10318 0.00062
11.26999 1650.00000 1604.67148 0.00061
11.27999 1625.00000 1604.24217 0.00062
11.28999 1645.00000 1603.81527 0.00061
11.29999 1644.00000 1603.39079 0.00061
11.30999 1632.00000 1602.96875 0.00061
11.31999 1651.00000 1602.54917 0.00061
11.32999 1611.00000 1602.13205 0.00062
11.33999 1618.00000 1601.71741 0.00062
11.34999 1666.00000 1601.30527 0.00060
11.35999 1551.00000 1600.89563 0.00064
11.36999 1601.00000 1600.48852 0.00062
11.37999 1670.00000 1600.08393 0.00060
11.38999 1643.00000 1599.68190 0.00061
11.39999 1573.00000 1599.28243 0.00064
11.40999 1633.00000 1598.88553 0.00061
11.41999 1710.00000 1598.49122 0.00058
11.42999 1638.00000 1598.09952 0.00061
11.43999 1607.00000 1597.71042 0.00062
11.44999 1576.00000 1597.32396 0.00063
11.45999 1685.00000 1596.94014 0.00059
11.46999 1624.00000 1596.55897 0.00062
11.47999 1613.00000 1596.18047 0.00062
11.48999 1637.00000 1595.80465 0.00061
11.49999 1642.00000 1595.43152 0.00061
11.50999 1577.00000 1595.06110 0.00063
11.51999 1647.00000 1594.69340 0.00061
11.52999 1633.00000 1594.32843 0.00061
11.53999 1636.00000 1593.96621 0.00061
11.54999 1652.00000 1593.60674 0.00061
11.55999 1636.00000 1593.25004 0.00061
11.56999 1632.00000 1592.89613 0.00061
11.57999 1627.00000 1592.54501 0.00061
11.58999 1627.00000 1592.19670 0.00061
11.59999 1544.00000 1591.85122 0.00065
11.60999 1623.00000 1591.50856 0.00062
11.61999 1621.00000 1591.16875 0.00062
11.62999 1636.00000 1590.83179 0.00061
11.63999 1675.00000 1590.49771 0.00060
11.64999 1615.00000 1590.16650 0.00062
11.65999 1646.00000 1589.83819 0.00061
11.66999 1659.00000 1589.51279 0.00060
11.67999 1698.00000 1589.19030 0.00059
11.68999 1640.00000 1588.87075 0.00061
11.69999 1627.00000 1588.55413 0.00061
11.70999 1579.00000 1588.24047 0.00063
11.71999 1618.00000 1587.92977 0.00062
11.72999 1665.00000 1587.62205 0.00060
11.73999 1607.00000 1587.31731 0.00062
11.74999 1581.00000 1587.01558 0.00063
11.75999 1569.00000 1586.71685 0.00064
11.76999 1683.00000 1586.42115 0.00059
11.77999 1691.00000 1586.12848 0.00059
11.78999 1612.00000 1585.83886 0.00062
11.79999 1696.00000 1585.55229 0.00059
11.80999 1636.00000 1585.26879 0.00061
11.81999 1599.00000 1584.98837 0.00063
11.82999 1601.00000 1584.71103 0.00062
11.83999 1709.00000 1584.43680 0.00059
11.84999 1641.00000 1584.16568 0.00061
11.85999 1698.00000 1583.89767 0.00059
11.86999 1716.00000 1583.63280 0.00058
11.87999 1689.00000 1583.37108 0.00059
11.88999 1579.00000 1583.11250 0.00063
11.89999 1585.00000 1582.85709 0.00063
11.90999 1635.00000 1582.60486 0.00061
11.91999 1665.00000 1582.35581 0.00060
11.92999 1608.00000 1582.10995 0.00062
11.93999 1654.00000 1581.86730 0.00060
11.94999 1655.00000 1581.62786 0.00060
11.95999 1629.00000 1581.39165 0.00061
11.96999 1594.00000 1581.15867 0.00063
11.97999 1596.00000 1580.92894 0.00063
11.98999 1555.00000 1580.70247 0.00064
11.99999 1619.00000 1580.47926 0.00062
12.00999 1606.00000 1580.25932 0.00062
12.01999 1610.00000 1580.04266 0.00062
12.02999 1572.00000 1579.82930 0.00064
12.03999 1583.00000 1579.61925 0.00063
12.04999 1609.00000 1579.41250 0.00062
12.05999 1608.00000 1579.20908 0.00062
12.06999 1574.00000 1579.00899 0.00064
12.07999 1613.00000 1578.81223 0.00062
12.08999 1590.00000 1578.61883 0.00063
12.09999 1618.00000 1578.42878 0.00062
12.10999 1645.00000 1578.24211 0.00061
12.11999 1586.00000 1578.05880 0.00063
12.12999 1616.00000 1577.87888 0.00062
12.13999 1642.00000 1577.70236 0.00061
12.14999 1661.00000 1577.52924 0.00060
12.15999 1700.00000 1577.35952 0.00059
12.16999 1602.00000 1577.19323 0.00062
12.17999 1608.00000 1577.03036 0.00062
12.18999 1597.00000 1576.87093 0.00063
12.19999 1620.00000 1576.71494 0.00062
12.20999 1651.00000 1576.56241 0.00061
12.21999 1639.00000 1576.41333 0.00061
12.22999 1588.00000 1576.26772 0.00063
12.23999 1625.00000 1576.12559 0.00062
12.24999 1637.00000 1575.98694 0.00061
12.25999 1601.00000 1575.85178 0.00062
12.26999 1611.00000 1575.72012 0.00062
12.27999 1691.00000 1575.59197 0.00059
12.28999 1617.00000 1575.46733 0.00062
12.29999 1599.00000 1575.34622 0.00063
12.30999 1627.00000 1575.22863 0.00061
12.31999 1599.00000 1575.11458 0.00063
12.32999 1636.00000 1575.00407 0.00061
12.33999 1615.00000 1574.89711 0.00062
12.34999 1686.00000 1574.79370 0.00059
12.35999 1555.00000 1574.69387 0.00064
12.36999 1639.00000 1574.59760 0.00061
12.37999 1688.00000 1574.50491 0.00059
12.38999 1614.00000 1574.41580 0.00062
12.39999 1647.00000 1574.33029 0.00061
12.40999 1571.00000 1574.24837 0.00064
12.41999 1646.00000 1574.17006 0.00061
12.42999 1603.00000 1574.09536 0.00062
12.43999 1605.00000 1574.02427 0.00062
12.44999 1613.00000 1573.95680 0.00062
12.45999 1617.00000 1573.89297 0.00062
12.46999 1638.00000 1573.83277 0.00061
12.47999 1664.00000 1573.77620 0.00060
12.48999 1589.00000 1573.72329 0.00063
12.49999 1623.00000 1573.67402 0.00062
12.50999 1553.00000 1573.62842 0.00064
12.51999 1574.00000 1573.58648 0.00064
12.52999 1597.00000 1573.54820 0.00063
12.53999 1627.00000 1573.51360 0.00061
12.54999 1612.00000 1573.48268 0.00062
12.55999 1681.00000 1573.45544 0.00059
12.56999 1620.00000 1573.43190 0.00062
12.57999 1631.00000 1573.41204 0.00061
12.58999 1652.00000 1573.39589 0.00061
12.59999 1607.00000 1573.38344 0.00062
12.60999 1628.00000 1573.37470 0.00061
12.61999 1588.00000 1573.36968 0.00063
12.62999 1613.00000 1573.36837 0.00062
12.63999 1688.00000 1573.37078 0.00059
12.64999 1614.00000 1573.37693 0.00062
12.65999 1630.00000 1573.38680 0.00061
12.66999 1665.00000 1573.40041 0.00060
12.67999 1662.00000 1573.41776 0.00060
12.68999 1613.00000 1573.43886 0.00062
12.69999 1602.00000 1573.46370 0.00062
12.70999 1594.00000 1573.49230 0.00063
12.71999 1578.00000 1573.52465 0.00063
12.72999 1586.00000 1573.56076 0.00063
12.73999 1598.00000 1573.60064 0.00063
12.74999 1629.00000 1573.64428 0.00061
12.75999 1620.00000 1573.69169 0.00062
12.76999 1618.00000 1573.74288 0.00062
12.77999 1617.00000 1573.79784 0.00062
12.78999 1657.00000 1573.85658 0.00060
12.79999 1610.00000 1573.91911 0.00062
12.80999 1608.00000 1573.98542 0.00062
12.81999 1584.00000 1574.05552 0.00063
12.82999 1628.00000 1574.12942 0.00061
12.83999 1637.00000 1574.20710 0.00061
12.84999 1553.00000 1574.28859 0.00064
12.85999 1657.00000 1574.37388 0.00060
12.86999 1625.00000 1574.46297 0.00062
12.87999 1623.00000 1574.55589 0.00062
12.88999 1595.00000 1574.65270 0.00063
12.89999 1588.00000 1574.75342 0.00063
12.90999 1622.00000 1574.85804 0.00062
12.91999 1577.00000 1574.96660 0.00063
12.92999 1659.00000 1575.07916 0.00060
12.93999 1598.00000 1575.19576 0.00063
12.94999 1588.00000 1575.31642 0.00063
12.95999 1675.00000 1575.44116 0.00060
12.96999 1646.00000 1575.57008 0.00061
12.97999 1670.00000 1575.70322 0.00060
12.98999 1623.00000 1575.84061 0.00062
12.99999 1599.00000 1575.98232 0.00063
13.00999 1629.00000 1576.12846 0.00061
13.01999 1609.00000 1576.27908 0.00062
13.02999 1638.00000 1576.43424 0.00061
13.03999 1567.00000 1576.59409 0.00064
13.04999 1632.00000 1576.75872 0.00061
13.05999 1630.00000 1576.92824 0.00061
13.06999 1648.00000 1577.10280 0.00061
13.07999 1673.00000 1577.28257 0.00060
13.08999 1644.00000 1577.46771 0.00061
13.09999 1559.00000 1577.65845 0.00064
13.10999 1641.00000 1577.85504 0.00061
13.11999 1629.00000 1578.05774 0.00061
13.12999 1665.00000 1578.26691 0.00060
13.13999 1704.00000 1578.48293 0.00059
13.14999 1685.00000 1578.70629 0.00059
13.15999 1605.00000 1578.93760 0.00062
13.16999 1643.00000 1579.17760 0.00061
13.17999 1625.00000 1579.42749 0.00062
13.18999 1607.00000 1579.68860 0.00062
13.19999 1612.00000 1579.96273 0.00062
13.20999 1634.00000 1580.25224 0.00061
13.21999 1711.00000 1580.56060 0.00058
13.22999 1608.00000 1580.89295 0.00062
13.23999 1659.00000 1581.25770 0.00060
13.24999 1604.00000 1581.67235 0.00062
13.25999 1639.00000 1582.19962 0.00061
13.26999 1612.00000 1582.81930 0.00062
13.27999 1643.00000 1583.14236 0.00061
13.28999 1622.00000 1583.42178 0.00062
13.29999 1579.00000 1583.70382 0.00063
13.30999 1610.00000 1583.99037 0.00062
13.31999 1606.00000 1584.28146 0.00062
13.32999 1593.00000 1584.57711 0.00063
13.33999 1642.00000 1584.87734 0.00061
13.34999 1644.00000 1585.18217 0.00061
13.35999 1632.00000 1585.49163 0.00061
13.36999 1680.00000 1585.80575 0.00060
13.37999 1667.00000 1586.12455 0.00060
13.38999 1586.00000 1586.44806 0.00063
13.39999 1694.00000 1586.77632 0.00059
13.40999 1628.00000 1587.10934 0.00061
13.41999 1652.00000 1587.44717 0.00061
13.42999 1616.00000 1587.78983 0.00062
13.43999 1585.00000 1588.13737 0.00063
13.44999 1592.00000 1588.48981 0.00063
13.45999 1618.00000 1588.84721 0.00062
13.46999 1646.00000 1589.20959 0.00061
13.47999 1645.00000 1589.57700 0.00061
13.48999 1691.00000 1589.94949 0.00059
13.49999 1668.00000 1590.32711 0.00060
13.50999 1652.00000 1590.70989 0.00061
13.51999 1628.00000 1591.09790 0.00061
13.52999 1570.00000 1591.49118 0.00064
13.53999 1631.00000 1591.88980 0.00061
13.54999 1623.00000 1592.29382 0.00062
13.55999 1641.00000 1592.70329 0.00061
13.56999 1663.00000 1593.11829 0.00060
13.57999 1707.00000 1593.53888 0.00059
13.58999 1618.00000 1593.96515 0.00062
13.59999 1652.00000 1594.39716 0.00061
13.60999 1653.00000 1594.83501 0.00060
13.61999 1613.00000 1595.27877 0.00062
13.62999 1619.00000 1595.72854 0.00062
13.63999 1580.00000 1596.18443 0.00063
13.64999 1651.00000 1596.64652 0.00061
13.65999 1655.00000 1597.11494 0.00060
13.66999 1624.00000 1597.58980 0.00062
13.67999 1675.00000 1598.07122 0.00060
13.68999 1573.00000 1598.55933 0.00064
13.69999 1654.00000 1599.05428 0.00060
13.70999 1637.00000 1599.55620 0.00061
13.71999 1610.00000 1600.06527 0.00062
13.72999 1717.00000 1600.58164 0.00058
13.73999 1676.00000 1601.10550 0.00060
13.74999 1654.00000 1601.63703 0.00060
13.75999 1721.00000 1602.17645 0.00058
13.76999 1673.00000 1602.72395 0.00060
13.77999 1650.00000 1603.27979 0.00061
13.78999 1639.00000 1603.84421 0.00061
13.79999 1575.00000 1604.41746 0.00063
13.80999 1604.00000 1604.99985 0.00062
13.81999 1598.00000 1605.59168 0.00063
13.82999 1688.00000 1606.19327 0.00059
13.83999 1637.00000 1606.80497 0.00061
13.84999 1660.00000 1607.42719 0.00060
13.85999 1660.00000 1608.06031 0.00060
13.86999 1640.00000 1608.70479 0.00061
13.87999 1599.00000 1609.36110 0.00063
13.88999 1725.00000 1610.02978 0.00058
13.89999 1671.00000 1610.71137 0.00060
13.90999 1617.00000 1611.40649 0.00062
13.91999 1654.00000 1612.11581 0.00060
13.92999 1754.00000 1612.84005 0.00057
13.93999 1701.00000 1613.58000 0.00059
13.94999 1706.00000 1614.33652 0.00059
13.95999 1659.00000 1615.11056 0.00060
13.96999 1640.00000 1615.90315 0.00061
13.97999 1694.00000 1616.71544 0.00059
13.98999 1653.00000 1617.54870 0.00060
13.99999 1658.00000 1618.40432 0.00060
14.00999 1650.00000 1619.28389 0.00061
14.01999 1662.00000 1620.18916 0.00060
14.02999 1633.00000 1621.12217 0.00061
14.03999 1636.00000 1622.08523 0.00061
14.04999 1693.00000 1623.08106 0.00059
14.05999 1662.00000 1624.11289 0.00060
14.06999 1611.00000 1625.18459 0.00062
14.07999 1668.00000 1626.30089 0.00060
14.08999 1622.00000 1627.46760 0.00062
14.09999 1666.00000 1628.69189 0.00060
14.10999 1712.00000 1629.98265 0.00058
14.11999 1672.00000 1631.35082 0.00060
14.12999 1681.00000 1632.80982 0.00059
14.13999 1653.00000 1634.37590 0.00060
14.14999 1617.00000 1636.06854 0.00062
14.15999 1625.00000 1637.91072 0.00062
14.16999 1672.00000 1639.92916 0.00060
14.17999 1698.00000 1642.15434 0.00059
14.18999 1675.00000 1644.62041 0.00060
14.19999 1631.00000 1647.36488 0.00061
14.20999 1632.00000 1650.42819 0.00061
14.21999 1663.00000 1653.85337 0.00060
14.22999 1745.00000 1657.68590 0.00057
14.23999 1663.00000 1661.97383 0.00060
14.24999 1687.00000 1666.76810 0.00059
14.25999 1728.00000 1672.12306 0.00058
14.26999 1691.00000 1678.09718 0.00059
14.27999 1708.00000 1684.75407 0.00059
14.28999 1673.00000 1692.16362 0.00060
14.29999 1755.00000 1700.40353 0.00057
14.30999 1681.00000 1709.56107 0.00059
14.31999 1760.00000 1719.73541 0.00057
14.32999 1770.00000 1731.04046 0.00056
14.33999 1714.00000 1743.60857 0.00058
14.34999 1761.00000 1757.59528 0.00057
14.35999 1802.00000 1773.18544 0.00055
14.36999 1810.00000 1790.60086 0.00055
14.37999 1847.00000 1810.10978 0.00054
14.38999 1875.00000 1832.03776 0.00053
14.39999 1948.00000 1856.77939 0.00051
14.40999 1925.00000 1884.80887 0.00052
14.41999 1985.00000 1916.68673 0.00050
14.42999 1989.00000 1953.05789 0.00050
14.43999 2010.00000 1994.63526 0.00050
14.44999 2128.00000 2042.16161 0.00047
14.45999 2142.00000 2096.34288 0.00047
14.46999 2161.00000 2157.74798 0.00046
14.47999 2339.00000 2226.67434 0.00043
14.48999 2372.00000 2302.98531 0.00042
14.49999 2475.00000 2385.93322 0.00040
14.50999 2453.00000 2473.99000 0.00041
14.51999 2708.00000 2564.71147 0.00037
14.52999 2844.00000 2654.66193 0.00035
14.53999 2890.00000 2739.42196 0.00035
14.54999 3009.00000 2813.70369 0.00033
14.55999 3118.00000 2871.61479 0.00032
14.56999 3057.00000 2907.15170 0.00033
14.57999 3029.00000 2915.03144 0.00033
14.58999 3051.00000 2891.88525 0.00033
14.59999 2953.00000 2837.52536 0.00034
14.60999 2870.00000 2755.60752 0.00035
14.61999 2829.00000 2653.06664 0.00035
14.62999 2646.00000 2538.46046 0.00038
14.63999 2493.00000 2420.11569 0.00040
14.64999 2385.00000 2304.89993 0.00042
14.65999 2359.00000 2197.78698 0.00042
14.66999 2166.00000 2101.93037 0.00046
14.67999 2008.00000 2018.93620 0.00050
14.68999 2008.00000 1949.17704 0.00050
14.69999 1981.00000 1892.10020 0.00050
14.70999 1892.00000 1846.52051 0.00053
14.71999 1830.00000 1810.88821 0.00055
14.72999 1764.00000 1783.51772 0.00057
14.73999 1824.00000 1762.76471 0.00055
14.74999 1786.00000 1747.14557 0.00056
14.75999 1751.00000 1735.40233 0.00057
14.76999 1754.00000 1726.52237 0.00057
14.77999 1719.00000 1719.72615 0.00058
14.78999 1782.00000 1714.43598 0.00056
14.79999 1767.00000 1710.23712 0.00057
14.80999 1771.00000 1706.83901 0.00056
14.81999 1783.00000 1704.04125 0.00056
14.82999 1722.00000 1701.70631 0.00058
14.83999 1683.00000 1699.73919 0.00059
14.84999 1706.00000 1698.07293 0.00059
14.85999 1650.00000 1696.65892 0.00061
14.86999 1703.00000 1695.46056 0.00059
14.87999 1733.00000 1694.44924 0.00058
14.88999 1730.00000 1693.60188 0.00058
14.89999 1663.00000 1692.89936 0.00060
14.90999 1713.00000 1692.32554 0.00058
14.91999 1769.00000 1691.86660 0.00057
14.92999 1606.00000 1691.51060 0.00062
14.93999 1696.00000 1691.24718 0.00059
14.94999 1749.00000 1691.06725 0.00057
14.95999 1650.00000 1690.96286 0.00061
14.96999 1670.00000 1690.92699 0.00060
14.97999 1654.00000 1690.95344 0.00060
14.98999 1706.00000 1691.03673 0.00059
14.99999 1635.00000 1691.17196 0.00061
15.00999 1645.00000 1691.35480 0.00061
15.01999 1672.00000 1691.58135 0.00060
15.02999 1653.00000 1691.84814 0.00060
15.03999 1683.00000 1692.15203 0.00059
15.04999 1622.00000 1692.49021 0.00062
15.05999 1701.00000 1692.86015 0.00059
15.06999 1732.00000 1693.25955 0.00058
15.07999 1666.00000 1693.68635 0.00060
15.08999 1674.00000 1694.13865 0.00060
15.09999 1694.00000 1694.61475 0.00059
15.10999 1705.00000 1695.11308 0.00059
15.11999 1669.00000 1695.63222 0.00060
15.12999 1682.00000 1696.17087 0.00059
15.13999 1726.00000 1696.72785 0.00058
15.14999 1698.00000 1697.30205 0.00059
15.15999 1629.00000 1697.89249 0.00061
15.16999 1635.00000 1698.49823 0.00061
15.17999 1733.00000 1699.11842 0.00058
15.18999 1681.00000 1699.75228 0.00059
15.19999 1683.00000 1700.39910 0.00059
15.20999 1712.00000 1701.05819 0.00058
15.21999 1735.00000 1701.72894 0.00058
15.22999 1690.00000 1702.41077 0.00059
15.23999 1636.00000 1703.10314 0.00061
15.24999 1669.00000 1703.80557 0.00060
15.25999 1701.00000 1704.51758 0.00059
15.26999 1696.00000 1705.23875 0.00059
15.27999 1709.00000 1705.96867 0.00059
15.28999 1691.00000 1706.70696 0.00059
15.29999 1742.00000 1707.45328 0.00057
15.30999 1668.00000 1708.20729 0.00060
15.31999 1728.00000 1708.96869 0.00058
15.32999 1757.00000 1709.73718 0.00057
15.33999 1675.00000 1710.51250 0.00060
15.34999 1695.00000 1711.29438 0.00059
15.35999 1706.00000 1712.08259 0.00059
15.36999 1715.00000 1712.87689 0.00058
15.37999 1689.00000 1713.67707 0.00059
15.38999 1687.00000 1714.48294 0.00059
15.39999 1689.00000 1715.29429 0.00059
15.40999 1651.00000 1716.11095 0.00061
15.41999 1691.00000 1716.93274 0.00059
15.42999 1642.00000 1717.75951 0.00061
15.43999 1649.00000 1718.59110 0.00061
15.44999 1700.00000 1719.42736 0.00059
15.45999 1767.00000 1720.26815 0.00057
15.46999 1717.00000 1721.11334 0.00058
15.47999 1657.00000 1721.96280 0.00060
15.48999 1680.00000 1722.81642 0.00060
15.49999 1666.00000 1723.67408 0.00060
15.50999 1705.00000 1724.53566 0.00059
15.51999 1684.00000 1725.40107 0.00059
15.52999 1715.00000 1726.27021 0.00058
15.53999 1789.00000 1727.14297 0.00056
15.54999 1718.00000 1728.01924 0.00058
15.55999 1729.00000 1728.89889 0.00058
15.56999 1737.00000 1729.78181 0.00058
15.57999 1666.00000 1730.66792 0.00060
15.58999 1717.00000 1731.55713 0.00058
15.59999 1723.00000 1732.44929 0.00058
15.60999 1701.00000 1733.34431 0.00059
15.61999 1717.00000 1734.24212 0.00058
15.62999 1678.00000 1735.14261 0.00060
15.63999 1641.00000 1736.04565 0.00061
15.64999 1700.00000 1736.95114 0.00059
15.65999 1742.00000 1737.85901 0.00057
15.66999 1693.00000 1738.76914 0.00059
15.67999 1713.00000 1739.68138 0.00058
15.68999 1682.00000 1740.59564 0.00059
15.69999 1672.00000 1741.51184 0.00060
15.70999 1762.00000 1742.42979 0.00057
15.71999 1695.00000 1743.34937 0.00059
15.72999 1690.00000 1744.27047 0.00059
15.73999 1733.00000 1745.19291 0.00058
15.74999 1696.00000 1746.11651 0.00059
15.75999 1704.00000 1747.04111 0.00059
15.76999 1657.00000 1747.96649 0.00060
15.77999 1692.00000 1748.89239 0.00059
15.78999 1761.00000 1749.81859 0.00057
15.79999 1715.00000 1750.74473 0.00058
15.80999 1767.00000 1751.67048 0.00057
15.81999 1739.00000 1752.59542 0.00058
15.82999 1715.00000 1753.51899 0.00058
15.83999 1771.00000 1754.44053 0.00056
15.84999 1748.00000 1755.35897 0.00057
15.85999 1739.00000 1756.27311 0.00058
15.86999 1676.00000 1757.18137 0.00060
15.87999 1801.00000 1758.08163 0.00056
15.88999 1748.00000 1758.97076 0.00057
15.89999 1687.00000 1759.84408 0.00059
15.90999 1730.00000 1760.69384 0.00058
15.91999 1743.00000 1761.50357 0.00057
15.92999 1700.00000 1762.21276 0.00059
15.93999 1748.00000 1762.84444 0.00057
15.94999 1767.00000 1763.80884 0.00057
15.95999 1817.00000 1764.77416 0.00055
15.96999 1725.00000 1765.76696 0.00058
15.97999 1655.00000 1766.76080 0.00060
15.98999 1685.00000 1767.75565 0.00059
15.99999 1749.00000 1768.75151 0.00057
16.00999 1747.00000 1769.74835 0.00057
16.01999 1684.00000 1770.74617 0.00059
16.02999 1660.00000 1771.74493 0.00060
16.03999 1709.00000 1772.74464 0.00059
16.04999 1691.00000 1773.74526 0.00059
16.05999 1736.00000 1774.74679 0.00058
16.06999 1758.00000 1775.74921 0.00057
16.07999 1761.00000 1776.75250 0.00057
16.08999 1750.00000 1777.75665 0.00057
16.09999 1772.00000 1778.76164 0.00056
16.10999 1751.00000 1779.76745 0.00057
16.11999 1704.00000 1780.77407 0.00059
16.12999 1655.00000 1781.78148 0.00060
16.13999 1812.00000 1782.78967 0.00055
16.14999 1689.00000 1783.79861 0.00059
16.15999 1723.00000 1784.80830 0.00058
16.16999 1760.00000 1785.81871 0.00057
16.17999 1677.00000 1786.82984 0.00060
16.18999 1722.00000 1787.84165 0.00058
16.19999 1782.00000 1788.85414 0.00056
16.20999 1709.00000 1789.86730 0.00059
16.21999 1786.00000 1790.88109 0.00056
16.22999 1639.00000 1791.89552 0.00061
16.23999 1748.00000 1792.91055 0.00057
16.24999 1762.00000 1793.92618 0.00057
16.25999 1840.00000 1794.94239 0.00054
16.26999 1747.00000 1795.95916 0.00057
16.27999 1776.00000 1796.97648 0.00056
16.28999 1694.00000 1797.99432 0.00059
16.29999 1774.00000 1799.01268 0.00056
16.30999 1698.00000 1800.03154 0.00059
16.31999 1692.00000 1801.05087 0.00059
16.32999 1787.00000 1802.07067 0.00056
16.33999 1749.00000 1803.09092 0.00057
16.34999 1738.00000 1804.11159 0.00058
16.35999 1745.00000 1805.13269 0.00057
16.37000 1741.00000 1806.15520 0.00057
16.38000 1754.00000 1807.17707 0.00057
16.39000 1794.00000 1808.19930 0.00056
16.40000 1733.00000 1809.22188 0.00058
16.41000 1805.00000 1810.24480 0.00055
16.42000 1776.00000 1811.26803 0.00056
16.43000 1738.00000 1812.29156 0.00058
16.44000 1758.00000 1813.31537 0.00057
16.45000 1815.00000 1814.33945 0.00055
16.46000 1809.00000 1815.36378 0.00055
16.47000 1745.00000 1816.38834 0.00057
16.48000 1729.00000 1817.41312 0.00058
16.49000 1792.00000 1818.43809 0.00056
16.50000 1767.00000 1819.46326 0.00057
16.51000 1756.00000 1820.48859 0.00057
16.52000 1689.00000 1821.51407 0.00059
16.53000 1779.00000 1822.53968 0.00056
16.54000 1837.00000 1823.56542 0.00054
16.55000 1738.00000 1824.59125 0.00058
16.56000 1755.00000 1825.61717 0.00057
16.57000 1809.00000 1826.64316 0.00055
16.58000 1727.00000 1827.66920 0.00058
16.59000 1767.00000 1828.69528 0.00057
16.60000 1801.00000 1829.72137 0.00056
16.61000 1823.00000 1830.74747 0.00055
16.62000 1801.00000 1831.77356 0.00056
16.63000 1744.00000 1832.79962 0.00057
16.64000 1770.00000 1833.82563 0.00056
16.65000 1713.00000 1834.85158 0.00058
16.66000 1780.00000 1835.87744 0.00056
16.67000 1763.00000 1836.90322 0.00057
16.68000 1729.00000 1837.92888 0.00058
16.69000 1763.00000 1838.95441 0.00057
16.70000 1832.00000 1839.97980 0.00055
16.71000 1819.00000 1841.00503 0.00055
16.72000 1723.00000 1842.03009 0.00058
16.73000 1707.00000 1843.05494 0.00059
16.74000 1780.00000 1844.07959 0.00056
16.75000 1714.00000 1845.10402 0.00058
16.76000 1785.00000 1846.12820 0.00056
16.77000 1810.00000 1847.15212 0.00055
16.78000 1791.00000 1848.17577 0.00056
16.79000 1898.00000 1849.19912 0.00053
16.80000 1736.00000 1850.22217 0.00058
16.81001 1822.00000 1851.24592 0.00055
16.82001 1725.00000 1852.26830 0.00058
16.83001 1794.00000 1853.29033 0.00056
16.84001 1787.00000 1854.31198 0.00056
16.85001 1779.00000 1855.33325 0.00056
16.86001 1822.00000 1856.35411 0.00055
16.87001 1771.00000 1857.37455 0.00056
16.88001 1771.00000 1858.39456 0.00056
16.89001 1849.00000 1859.41411 0.00054
16.90001 1759.00000 1860.43319 0.00057
16.91001 1750.00000 1861.45178 0.00057
16.92001 1835.00000 1862.46988 0.00054
16.93001 1725.00000 1863.48745 0.00058
16.94001 1728.00000 1864.50449 0.00058
16.95001 1776.00000 1865.52098 0.00056
16.96001 1843.00000 1866.53691 0.00054
16.97001 1817.00000 1867.55225 0.00055
16.98001 1852.00000 1868.56699 0.00054
16.99001 1823.00000 1869.58112 0.00055
17.00001 1805.00000 1870.59462 0.00055
17.01001 1859.00000 1871.60748 0.00054
17.02001 1869.00000 1872.61967 0.00054
17.03001 1879.00000 1873.63118 0.00053
17.04001 1793.00000 1874.64200 0.00056
17.05001 1821.00000 1875.65210 0.00055
17.06001 1821.00000 1876.66149 0.00055
17.07001 1877.00000 1877.67013 0.00053
17.08001 1847.00000 1878.67801 0.00054
17.09001 1763.00000 1879.68512 0.00057
17.10001 1764.00000 1880.69144 0.00057
17.11001 1805.00000 1881.69695 0.00055
17.12001 1804.00000 1882.70164 0.00055
17.13001 1846.00000 1883.70550 0.00054
17.14001 1802.00000 1884.70850 0.00055
17.15001 1866.00000 1885.71063 0.00054
17.16001 1833.00000 1886.71188 0.00055
17.17001 1822.00000 1887.71223 0.00055
17.18001 1844.00000 1888.71167 0.00054
17.19001 1817.00000 1889.71017 0.00055
17.20001 1877.00000 1890.70772 0.00053
17.21001 1815.00000 1891.70432 0.00055
17.22001 1749.00000 1892.69993 0.00057
17.23001 1832.00000 1893.69455 0.00055
17.24002 1793.00000 1894.68916 0.00056
17.25002 1862.00000 1895.68175 0.00054
17.26002 1835.00000 1896.67329 0.00054
17.27002 1799.00000 1897.66378 0.00056
17.28002 1822.00000 1898.65320 0.00055
17.29002 1791.00000 1899.64153 0.00056
17.30002 1813.00000 1900.62876 0.00055
17.31002 1841.00000 1901.61487 0.00054
17.32002 1782.00000 1902.59985 0.00056
17.33002 1802.00000 1903.58368 0.00055
17.34002 1842.00000 1904.56635 0.00054
17.35002 1858.00000 1905.54784 0.00054
17.36002 1828.00000 1906.52813 0.00055
17.37002 1805.00000 1907.50721 0.00055
17.38002 1860.00000 1908.48507 0.00054
17.39002 1845.00000 1909.46169 0.00054
17.40002 1798.00000 1910.43705 0.00056
17.41002 1858.00000 1911.41115 0.00054
17.42002 1832.00000 1912.38395 0.00055
17.43002 1822.00000 1913.35546 0.00055
17.44002 1832.00000 1914.32565 0.00055
17.45002 1895.00000 1915.29451 0.00053
17.46002 1899.00000 1916.26203 0.00053
17.47002 1805.00000 1917.22818 0.00055
17.48002 1843.00000 1918.19296 0.00054
17.49002 1826.00000 1919.15634 0.00055
17.50002 1821.00000 1920.11832 0.00055
17.51002 1897.00000 1921.07888 0.00053
17.52002 1836.00000 1922.03801 0.00054
17.53002 1886.00000 1922.99568 0.00053
17.54002 1852.00000 1923.95189 0.00054
17.55002 1834.00000 1924.90662 0.00055
17.56002 1862.00000 1925.85986 0.00054
17.57002 1903.00000 1926.81158 0.00053
17.58002 1826.00000 1927.76178 0.00055
17.59002 1817.00000 1928.71045 0.00055
17.60002 1782.00000 1929.65756 0.00056
17.61002 1799.00000 1930.60310 0.00056
17.62002 1909.00000 1931.54705 0.00052
17.63002 1840.00000 1932.48942 0.00054
17.64002 1885.00000 1933.43017 0.00053
17.65002 1862.00000 1934.36929 0.00054
17.66002 1915.00000 1935.30677 0.00052
17.67002 1843.00000 1936.24260 0.00054
17.68003 1860.00000 1937.17769 0.00054
17.69003 1823.00000 1938.11016 0.00055
17.70003 1886.00000 1939.04094 0.00053
17.71003 1816.00000 1939.97000 0.00055
17.72003 1851.00000 1940.89733 0.00054
17.73003 1849.00000 1941.82293 0.00054
17.74003 1906.00000 1942.74677 0.00052
17.75003 1915.00000 1943.66884 0.00052
17.76003 1824.00000 1944.58912 0.00055
17.77003 1852.00000 1945.50761 0.00054
17.78003 1833.00000 1946.42429 0.00055
17.79003 1887.00000 1947.33914 0.00053
17.80003 1840.00000 1948.25215 0.00054
17.81003 1925.00000 1949.16331 0.00052
17.82003 1841.00000 1950.07260 0.00054
17.83003 1896.00000 1950.98001 0.00053
17.84003 1776.00000 1951.88552 0.00056
17.85003 1883.00000 1952.78912 0.00053
17.86003 1897.00000 1953.69080 0.00053
17.87003 1858.00000 1954.59055 0.00054
17.88003 1862.00000 1955.48834 0.00054
17.89003 1872.00000 1956.38417 0.00053
17.90003 1891.00000 1957.27802 0.00053
17.91003 1870.00000 1958.16988 0.00053
17.92003 1871.00000 1959.05973 0.00053
17.93003 1886.00000 1959.94757 0.00053
17.94003 1893.00000 1960.83337 0.00053
17.95003 1942.00000 1961.71713 0.00051
17.96003 1890.00000 1962.59883 0.00053
17.97003 1945.00000 1963.47845 0.00051
17.98003 1862.00000 1964.35599 0.00054
17.99003 1903.00000 1965.23143 0.00053
18.00003 1871.00000 1966.10476 0.00053
18.01003 1912.00000 1966.97596 0.00052
18.02003 1849.00000 1967.84502 0.00054
18.03003 1855.00000 1968.71193 0.00054
18.04003 1825.00000 1969.57668 0.00055
18.05003 1797.00000 1970.43924 0.00056
18.06003 1824.00000 1971.29962 0.00055
18.07003 1907.00000 1972.15779 0.00052
18.08003 1971.00000 1973.01374 0.00051
18.09003 1948.00000 1973.86746 0.00051
18.10003 1944.00000 1974.71894 0.00051
18.11003 1915.00000 1975.56816 0.00052
18.12004 1841.00000 1976.41596 0.00054
18.13004 1894.00000 1977.26063 0.00053
18.14004 1897.00000 1978.10300 0.00053
18.15004 1904.00000 1978.94306 0.00053
18.16004 1888.00000 1979.78081 0.00053
18.17004 1938.00000 1980.61622 0.00052
18.18004 1940.00000 1981.44929 0.00052
18.19004 1985.00000 1982.28000 0.00050
18.20004 1906.00000 1983.10833 0.00052
18.21004 1978.00000 1983.93429 0.00051
18.22004 2000.00000 1984.75785 0.00050
18.23004 1951.00000 1985.57900 0.00051
18.24004 1935.00000 1986.39773 0.00052
18.25004 1952.00000 1987.21402 0.00051
18.26004 1924.00000 1988.02788 0.00052
18.27004 1989.00000 1988.83927 0.00050
18.28004 1950.00000 1989.64820 0.00051
18.29004 1895.00000 1990.45464 0.00053
18.30004 1938.00000 1991.25859 0.00052
18.31004 1911.00000 1992.06004 0.00052
18.32004 1862.00000 1992.85896 0.00054
18.33004 1859.00000 1993.65536 0.00054
18.34004 1894.00000 1994.44922 0.00053
18.35004 1969.00000 1995.24052 0.00051
18.36004 1919.00000 1996.02925 0.00052
18.37004 1899.00000 1996.81541 0.00053
18.38004 1905.00000 1997.59898 0.00052
18.39004 1988.00000 1998.37995 0.00050
18.40004 1936.00000 1999.15831 0.00052
18.41004 1973.00000 1999.93404 0.00051
18.42004 1967.00000 2000.70713 0.00051
18.43004 1879.00000 2001.47758 0.00053
18.44004 1959.00000 2002.24537 0.00051
18.45004 1947.00000 2003.01049 0.00051
18.46004 1896.00000 2003.77297 0.00053
18.47004 1931.00000 2004.53284 0.00052
18.48004 1924.00000 2005.29015 0.00052
18.49004 1988.00000 2006.04495 0.00050
18.50004 2026.00000 2006.79731 0.00049
18.51004 1997.00000 2007.54772 0.00050
18.52004 1939.00000 2008.29704 0.00052
18.53004 1952.00000 2009.04593 0.00051
18.54004 1964.00000 2009.79522 0.00051
18.55005 1979.00000 2010.54682 0.00051
18.56005 1960.00000 2011.30020 0.00051
18.57005 2014.00000 2012.05757 0.00050
18.58005 1954.00000 2012.82050 0.00051
18.59005 1997.00000 2013.59074 0.00050
18.60005 2016.00000 2014.37062 0.00050
18.61005 1860.00000 2015.16266 0.00054
18.62005 1930.00000 2015.97029 0.00052
18.63005 1991.00000 2016.79778 0.00050
18.64005 1946.00000 2017.65097 0.00051
18.65005 1899.00000 2018.53799 0.00053
18.66005 1929.00000 2019.47173 0.00052
18.67005 2001.00000 2020.48185 0.00050
18.68005 1992.00000 2021.59139 0.00050
18.69005 1956.00000 2022.68996 0.00051
18.70005 2027.00000 2023.75586 0.00049
18.71005 2040.00000 2024.89771 0.00049
18.72005 2011.00000 2026.15693 0.00050
18.73005 1972.00000 2027.58110 0.00051
18.74005 2002.00000 2029.24797 0.00050
18.75005 2047.00000 2031.30748 0.00049
18.76005 2002.00000 2034.21794 0.00050
18.77005 2025.00000 2038.19385 0.00049
18.78005 1987.00000 2040.76629 0.00050
18.79005 2029.00000 2041.67535 0.00049
18.80005 1984.00000 2042.44249 0.00050
18.81005 1999.00000 2043.20769 0.00050
18.82005 2019.00000 2043.97096 0.00050
18.83005 2027.00000 2044.73232 0.00049
18.84005 2017.00000 2045.49175 0.00050
18.85005 2006.00000 2046.24929 0.00050
18.86005 2005.00000 2047.00492 0.00050
18.87005 1993.00000 2047.75866 0.00050
18.88005 2036.00000 2048.51053 0.00049
18.89005 2009.00000 2049.26052 0.00050
18.90005 2001.00000 2050.00864 0.00050
18.91005 1989.00000 2050.75492 0.00050
18.92005 1984.00000 2051.49936 0.00050
18.93005 2002.00000 2052.24196 0.00050
18.94005 2045.00000 2052.98275 0.00049
18.95005 2066.00000 2053.72173 0.00048
18.96005 1992.00000 2054.45891 0.00050
18.97005 2005.00000 2055.19431 0.00050
18.98005 2018.00000 2055.92795 0.00050
18.99006 2064.00000 2056.66055 0.00048
19.00006 2039.00000 2057.39069 0.00049
19.01006 2031.00000 2058.11910 0.00049
19.02006 2022.00000 2058.84580 0.00049
19.03006 2072.00000 2059.57080 0.00048
19.04006 2009.00000 2060.29412 0.00050
19.05006 2011.00000 2061.01578 0.00050
19.06006 2048.00000 2061.73580 0.00049
19.07006 2037.00000 2062.45419 0.00049
19.08006 2025.00000 2063.17097 0.00049
19.09006 2036.00000 2063.88617 0.00049
19.10006 2075.00000 2064.59979 0.00048
19.11006 1998.00000 2065.31187 0.00050
19.12006 2004.00000 2066.02242 0.00050
19.13006 2061.00000 2066.73147 0.00049
19.14006 2060.00000 2067.43903 0.00049
19.15006 2110.00000 2068.14513 0.00047
19.16006 2057.00000 2068.84980 0.00049
19.17006 2074.00000 2069.55305 0.00048
19.18006 1999.00000 2070.25492 0.00050
19.19006 2000.00000 2070.95543 0.00050
19.20006 2028.00000 2071.65461 0.00049
19.21006 2052.00000 2072.35248 0.00049
19.22006 1971.00000 2073.04908 0.00051
19.23006 2054.00000 2073.74442 0.00049
19.24006 1985.00000 2074.43855 0.00050
19.25006 2099.00000 2075.13150 0.00048
19.26006 2052.00000 2075.82329 0.00049
19.27006 2043.00000 2076.51396 0.00049
19.28006 2061.00000 2077.20354 0.00049
19.29006 2046.00000 2077.89207 0.00049
19.30006 2121.00000 2078.57959 0.00047
19.31006 2069.00000 2079.26612 0.00048
19.32006 2087.00000 2079.95171 0.00048
19.33006 2026.00000 2080.63641 0.00049
19.34006 2092.00000 2081.32023 0.00048
19.35006 2074.00000 2082.00324 0.00048
19.36006 2081.00000 2082.68547 0.00048
19.37006 2053.00000 2083.36696 0.00049
19.38006 2132.00000 2084.04777 0.00047
19.39006 2078.00000 2084.72793 0.00048
19.40006 2082.00000 2085.40749 0.00048
19.41006 2090.00000 2086.08651 0.00048
19.42006 2084.00000 2086.76503 0.00048
19.43007 1990.00000 2087.44378 0.00050
19.44007 2055.00000 2088.12145 0.00049
19.45007 2059.00000 2088.79880 0.00049
19.46007 2107.00000 2089.47585 0.00047
19.47007 2096.00000 2090.15269 0.00048
19.48007 2113.00000 2090.82935 0.00047
19.49007 2141.00000 2091.50592 0.00047
19.50007 2082.00000 2092.18244 0.00048
19.51007 2106.00000 2092.85898 0.00047
19.52007 2100.00000 2093.53561 0.00048
19.53007 2071.00000 2094.21240 0.00048
19.54007 2090.00000 2094.88942 0.00048
19.55007 2111.00000 2095.56673 0.00047
19.56007 2097.00000 2096.24441 0.00048
19.57007 2119.00000 2096.92255 0.00047
19.58007 2124.00000 2097.60121 0.00047
19.59007 2110.00000 2098.28047 0.00047
19.60007 2099.00000 2098.96043 0.00048
19.61007 2039.00000 2099.64116 0.00049
19.62007 2138.00000 2100.32275 0.00047
19.63007 2079.00000 2101.00530 0.00048
19.64007 2087.00000 2101.68889 0.00048
19.65007 2082.00000 2102.37362 0.00048
19.66007 2051.00000 2103.05959 0.00049
19.67007 2140.00000 2103.74690 0.00047
19.68007 2128.00000 2104.43565 0.00047
19.69007 2151.00000 2105.12595 0.00046
19.70007 2140.00000 2105.81791 0.00047
19.71007 2077.00000 2106.51165 0.00048
19.72007 2102.00000 2107.20727 0.00048
19.73007 1997.00000 2107.90491 0.00050
19.74007 2097.00000 2108.60468 0.00048
19.75007 2092.00000 2109.30670 0.00048
19.76007 2084.00000 2110.01112 0.00048
19.77007 2116.00000 2110.71807 0.00047
19.78007 2252.00000 2111.42768 0.00044
19.79007 2141.00000 2112.14010 0.00047
19.80007 2136.00000 2112.85547 0.00047
19.81007 2139.00000 2113.57395 0.00047
19.82007 2178.00000 2114.29570 0.00046
19.83007 2141.00000 2115.02087 0.00047
19.84007 2112.00000 2115.74964 0.00047
19.85007 2169.00000 2116.48217 0.00046
19.86007 2090.00000 2117.21864 0.00048
19.87008 2093.00000 2117.95998 0.00048
19.88008 2116.00000 2118.70489 0.00047
19.89008 2087.00000 2119.45430 0.00048
19.90008 2133.00000 2120.20842 0.00047
19.91008 2178.00000 2120.96745 0.00046
19.92008 2089.00000 2121.73161 0.00048
19.93008 2132.00000 2122.50112 0.00047
19.94008 2187.00000 2123.27620 0.00046
19.95008 2195.00000 2124.05708 0.00046
19.96008 2064.00000 2124.84402 0.00048
19.97008 2136.00000 2125.63725 0.00047
19.98008 2141.00000 2126.43705 0.00047
19.99008 2069.00000 2127.24367 0.00048
20.00008 2143.00000 2128.05739 0.00047
20.01008 2129.00000 2128.87850 0.00047
20.02008 2158.00000 2129.70729 0.00046
20.03008 2157.00000 2130.54406 0.00046
20.04008 2098.00000 2131.38914 0.00048
20.05008 2165.00000 2132.24284 0.00046
20.06008 2181.00000 2133.10551 0.00046
20.07008 2095.00000 2133.97750 0.00048
20.08008 2135.00000 2134.85916 0.00047
20.09008 2138.00000 2135.75087 0.00047
20.10008 2129.00000 2136.65305 0.00047
20.11008 2092.00000 2137.56621 0.00048
20.12008 2111.00000 2138.49090 0.00047
20.13008 2165.00000 2139.42765 0.00046
20.14008 2206.00000 2140.37708 0.00045
20.15008 2200.00000 2141.33981 0.00045
20.16008 2081.00000 2142.31650 0.00048
20.17008 2230.00000 2143.30791 0.00045
20.18008 2187.00000 2144.31478 0.00046
20.19008 2164.00000 2145.33797 0.00046
20.20008 2238.00000 2146.37838 0.00045
20.21008 2201.00000 2147.43699 0.00045
20.22008 2163.00000 2148.51491 0.00046
20.23008 2158.00000 2149.61333 0.00046
20.24008 2195.00000 2150.73364 0.00046
20.25008 2123.00000 2151.87738 0.00047
20.26008 2247.00000 2153.04637 0.00045
20.27008 2191.00000 2154.24274 0.00046
20.28008 2175.00000 2155.46906 0.00046
20.29008 2268.00000 2156.72856 0.00044
20.30009 2157.00000 2158.02710 0.00046
20.31009 2255.00000 2159.36861 0.00044
20.32009 2173.00000 2160.76377 0.00046
20.33009 2177.00000 2162.22731 0.00046
20.34009 2245.00000 2163.78693 0.00045
20.35009 2195.00000 2165.52543 0.00046
20.36009 2228.00000 2167.47999 0.00045
20.37009 2167.00000 2169.20955 0.00046
20.38009 2223.00000 2170.69284 0.00045
20.39009 2351.00000 2172.18468 0.00043
20.40009 2257.00000 2173.70957 0.00044
20.41009 2158.00000 2175.26884 0.00046
20.42009 2324.00000 2176.86386 0.00043
20.43009 2182.00000 2178.49607 0.00046
20.44009 2300.00000 2180.16697 0.00043
20.45009 2229.00000 2181.87815 0.00045
20.46009 2262.00000 2183.63124 0.00044
20.47009 2262.00000 2185.42798 0.00044
20.48009 2249.00000 2187.27017 0.00044
20.49009 2195.00000 2189.15970 0.00046
20.50009 2188.00000 2191.09856 0.00046
20.51009 2290.00000 2193.08883 0.00044
20.52009 2263.00000 2195.13270 0.00044
20.53009 2170.00000 2197.23247 0.00046
20.54009 2244.00000 2199.39053 0.00045
20.55009 2291.00000 2201.60944 0.00044
20.56009 2285.00000 2203.89185 0.00044
20.57009 2289.00000 2206.24056 0.00044
20.58009 2298.00000 2208.65852 0.00044
20.59009 2219.00000 2211.14884 0.00045
20.60009 2238.00000 2213.71479 0.00045
20.61009 2277.00000 2216.35982 0.00044
20.62009 2236.00000 2219.08756 0.00045
20.63009 2244.00000 2221.90185 0.00045
20.64009 2193.00000 2224.80675 0.00046
20.65009 2333.00000 2227.80654 0.00043
20.66009 2277.00000 2230.90575 0.00044
20.67009 2279.00000 2234.10917 0.00044
20.68009 2302.00000 2237.42187 0.00043
20.69009 2326.00000 2240.84923 0.00043
20.70009 2304.00000 2244.39693 0.00043
20.71009 2239.00000 2248.07101 0.00045
20.72009 2303.00000 2251.87789 0.00043
20.73009 2229.00000 2255.82438 0.00045
20.74010 2359.00000 2259.92186 0.00042
20.75010 2419.00000 2264.16988 0.00041
20.76010 2277.00000 2268.58065 0.00044
20.77010 2375.00000 2273.16288 0.00042
20.78010 2341.00000 2277.92591 0.00043
20.79010 2345.00000 2282.87965 0.00043
20.80010 2333.00000 2288.03473 0.00043
20.81010 2353.00000 2293.40247 0.00042
20.82010 2419.00000 2298.99503 0.00041
20.83010 2244.00000 2304.82539 0.00045
20.84010 2394.00000 2310.90749 0.00042
20.85010 2378.00000 2317.25627 0.00042
20.86010 2374.00000 2323.88779 0.00042
20.87010 2400.00000 2330.81930 0.00042
20.88010 2384.00000 2338.06938 0.00042
20.89010 2438.00000 2345.65805 0.00041
20.90010 2437.00000 2353.60690 0.00041
20.91010 2383.00000 2361.93925 0.00042
20.92010 2350.00000 2370.68032 0.00043
20.93010 2441.00000 2379.85743 0.00041
20.94010 2473.00000 2389.50021 0.00040
20.95010 2456.00000 2399.64086 0.00041
20.96010 2366.00000 2410.31440 0.00042
20.97010 2396.00000 2421.55905 0.00042
20.98010 2423.00000 2433.41658 0.00041
20.99010 2492.00000 2445.93273 0.00040
21.00010 2541.00000 2459.15776 0.00039
21.01010 2495.00000 2473.14706 0.00040
21.02010 2535.00000 2487.96184 0.00039
21.03010 2549.00000 2503.67001 0.00039
21.04010 2639.00000 2520.34722 0.00038
21.05010 2589.00000 2538.07804 0.00039
21.06010 2504.00000 2556.95743 0.00040
21.07010 2533.00000 2577.09253 0.00039
21.08010 2558.00000 2598.60468 0.00039
21.09010 2658.00000 2621.63196 0.00038
21.10010 2685.00000 2646.33211 0.00037
21.11010 2682.00000 2672.88604 0.00037
21.12010 2714.00000 2701.50198 0.00037
21.13010 2763.00000 2732.42032 0.00036
21.14010 2736.00000 2765.91935 0.00037
21.15010 2804.00000 2802.32186 0.00036
21.16010 2809.00000 2842.00293 0.00036
21.17010 2887.00000 2885.39873 0.00035
21.18011 2897.00000 2933.06633 0.00035
21.19011 3020.00000 2985.50189 0.00033
21.20011 3055.00000 3043.43642 0.00033
21.21011 3035.00000 3107.66537 0.00033
21.22011 3135.00000 3179.10861 0.00032
21.23011 3235.00000 3258.82586 0.00031
21.24011 3289.00000 3348.03171 0.00030
21.25011 3291.00000 3448.10943 0.00030
21.26011 3476.00000 3560.62219 0.00029
21.27011 3622.00000 3687.32012 0.00028
21.28011 3763.00000 3830.14169 0.00027
21.29011 3828.00000 3991.20738 0.00026
21.30011 4009.00000 4172.80409 0.00025
21.31011 4187.00000 4377.35808 0.00024
21.32011 4335.00000 4607.39444 0.00023
21.33011 4599.00000 4865.48084 0.00022
21.34011 5030.00000 5154.15337 0.00020
21.35011 5248.00000 5475.82237 0.00019
21.36011 5571.00000 5832.65690 0.00018
21.37011 5926.00000 6226.44674 0.00017
21.38011 6316.00000 6658.44172 0.00016
21.39011 6816.00000 7129.16840 0.00015
21.40011 7181.00000 7638.22411 0.00014
21.41011 7633.00000 8184.04811 0.00013
21.42011 8522.00000 8763.66859 0.00012
21.43011 9023.00000 9372.42405 0.00011
21.44011 9628.00000 10003.65880 0.00010
21.45011 10426.00000 10648.39767 0.00009
21.46011 11193.00000 11295.01814 0.00008
21.47011 11969.00000 11928.96288 0.00007
21.48011 12805.00000 12532.57670 0.00006
21.49011 13305.00000 13085.20554 0.00006
21.50011 13738.00000 13563.74990 0.00005
21.51011 14354.00000 13943.88633 0.00005
21.52011 14530.00000 14202.10622 0.00005
21.53011 14702.00000 14318.51798 0.00005
21.54011 14977.00000 14280.01759 0.00004
21.55011 14495.00000 14083.06712 0.00005
21.56011 14109.00000 13735.16043 0.00005
21.57011 13754.00000 13254.31079 0.00005
21.58011 12971.00000 12666.55616 0.00006
21.59011 12335.00000 12002.16952 0.00007
21.60011 11322.00000 11291.62068 0.00008
21.61012 10721.00000 10561.88167 0.00009
21.62012 9932.00000 9837.57612 0.00010
21.63012 9034.00000 9135.77578 0.00011
21.64012 8372.00000 8469.24600 0.00012
21.65012 7781.00000 7846.45130 0.00013
21.66012 7258.00000 7272.41507 0.00014
21.67012 6887.00000 6749.52941 0.00015
21.68012 6401.00000 6278.23726 0.00016
21.69012 5866.00000 5857.57531 0.00017
21.70012 5521.00000 5485.59768 0.00018
21.71012 5121.00000 5159.70751 0.00020
21.72012 5009.00000 4876.92123 0.00020
21.73012 4583.00000 4634.08289 0.00022
21.74012 4506.00000 4428.03942 0.00022
21.75012 4348.00000 4255.78222 0.00023
21.76012 4229.00000 4114.55677 0.00024
21.77012 4166.00000 4001.93938 0.00024
21.78012 4072.00000 3915.87909 0.00025
21.79012 3974.00000 3854.70178 0.00025
21.80012 3970.00000 3817.07375 0.00025
21.81012 3988.00000 3801.92301 0.00025
21.82012 3982.00000 3808.31852 0.00025
21.83012 4032.00000 3835.31098 0.00025
21.84012 4060.00000 3881.74290 0.00025
21.85012 4146.00000 3946.04017 0.00024
21.86012 4321.00000 4026.00114 0.00023
21.87012 4415.00000 4118.60107 0.00023
21.88012 4628.00000 4219.82969 0.00022
21.89012 4797.00000 4324.57885 0.00021
21.90012 4883.00000 4426.60042 0.00020
21.91012 5010.00000 4518.56939 0.00020
21.92012 5221.00000 4592.32006 0.00019
21.93012 5221.00000 4639.36719 0.00019
21.94012 5236.00000 4651.83652 0.00019
21.95012 5257.00000 4623.82128 0.00019
21.96012 5303.00000 4552.89186 0.00019
21.97012 5105.00000 4441.14026 0.00020
21.98012 4965.00000 4295.10255 0.00020
21.99012 4752.00000 4124.41561 0.00021
22.00012 4541.00000 3939.79727 0.00022
22.01012 4335.00000 3751.23062 0.00023
22.02012 4007.00000 3566.89087 0.00025
22.03012 3810.00000 3392.81338 0.00026
22.04012 3523.00000 3233.01577 0.00028
22.05013 3415.00000 3089.66199 0.00029
22.06013 3252.00000 2963.95240 0.00031
22.07013 3120.00000 2855.56353 0.00032
22.08013 2984.00000 2763.52815 0.00034
22.09013 2806.00000 2686.34066 0.00036
22.10013 2810.00000 2622.18779 0.00036
22.11013 2780.00000 2569.14407 0.00036
22.12013 2684.00000 2525.32510 0.00037
22.13013 2598.00000 2488.99583 0.00038
22.14013 2572.00000 2458.63545 0.00039
22.15013 2584.00000 2432.96518 0.00039
22.16013 2561.00000 2410.94736 0.00039
22.17013 2495.00000 2391.76531 0.00040
22.18013 2454.00000 2374.79250 0.00041
22.19013 2507.00000 2359.55789 0.00040
22.20013 2432.00000 2345.71228 0.00041
22.21013 2428.00000 2332.99863 0.00041
22.22013 2365.00000 2321.22753 0.00042
22.23013 2445.00000 2310.25807 0.00041
22.24013 2418.00000 2299.98357 0.00041
22.25013 2404.00000 2290.32134 0.00042
22.26013 2356.00000 2281.20547 0.00042
22.27013 2421.00000 2272.58203 0.00041
22.28013 2399.00000 2264.40574 0.00042
22.29013 2323.00000 2256.63782 0.00043
22.30013 2265.00000 2249.24452 0.00044
22.31013 2404.00000 2242.19608 0.00042
22.32013 2298.00000 2235.46607 0.00044
22.33013 2399.00000 2229.03083 0.00042
22.34013 2262.00000 2222.86909 0.00044
22.35013 2355.00000 2216.96161 0.00042
22.36013 2366.00000 2211.29100 0.00042
22.37013 2341.00000 2205.84141 0.00043
22.38013 2291.00000 2200.59844 0.00044
22.39013 2334.00000 2195.54889 0.00043
22.40013 2275.00000 2190.68070 0.00044
22.41013 2245.00000 2185.98281 0.00045
22.42013 2225.00000 2181.44502 0.00045
22.43013 2372.00000 2177.05796 0.00042
22.44013 2328.00000 2172.81295 0.00043
22.45013 2267.00000 2168.70200 0.00044
22.46013 2268.00000 2164.71768 0.00044
22.47013 2246.00000 2160.85310 0.00045
22.48013 2270.00000 2157.10187 0.00044
22.49014 2272.00000 2153.45443 0.00044
22.50014 2256.00000 2149.91253 0.00044
22.51014 2181.00000 2146.46728 0.00046
22.52014 2211.00000 2143.11384 0.00045
22.53014 2226.00000 2139.84768 0.00045
22.54014 2281.00000 2136.66455 0.00044
22.55014 2316.00000 2133.56049 0.00043
22.56014 2249.00000 2130.53174 0.00044
22.57014 2222.00000 2127.57480 0.00045
22.58014 2198.00000 2124.68637 0.00045
22.59014 2229.00000 2121.86333 0.00045
22.60014 2242.00000 2119.10274 0.00045
22.61014 2236.00000 2116.40184 0.00045
22.62014 2216.00000 2113.75802 0.00045
22.63014 2215.00000 2111.16881 0.00045
22.64014 2142.00000 2108.63186 0.00047
22.65014 2198.00000 2106.14498 0.00045
22.66014 2186.00000 2103.70605 0.00046
22.67014 2236.00000 2101.31311 0.00045
22.68014 2233.00000 2098.96426 0.00045
22.69014 2228.00000 2096.65772 0.00045
22.70014 2178.00000 2094.39178 0.00046
22.71014 2229.00000 2092.16484 0.00045
22.72014 2201.00000 2089.97536 0.00045
22.73014 2285.00000 2087.82188 0.00044
22.74014 2262.00000 2085.70301 0.00044
22.75014 2231.00000 2083.61742 0.00045
22.76014 2256.00000 2081.56385 0.00044
22.77014 2091.00000 2079.54111 0.00048
22.78014 2228.00000 2077.54803 0.00045
22.79014 2222.00000 2075.58352 0.00045
22.80014 2202.00000 2073.64654 0.00045
22.81014 2223.00000 2071.73609 0.00045
22.82014 2166.00000 2069.85121 0.00046
22.83014 2166.00000 2067.99099 0.00046
22.84014 2194.00000 2066.15455 0.00046
22.85014 2133.00000 2064.34106 0.00047
22.86014 2151.00000 2062.54972 0.00046
22.87014 2134.00000 2060.77976 0.00047
22.88014 2218.00000 2059.03045 0.00045
22.89014 2158.00000 2057.30109 0.00046
22.90014 2148.00000 2055.59099 0.00047
22.91014 2147.00000 2053.89952 0.00047
22.92015 2194.00000 2052.22439 0.00046
22.93015 2203.00000 2050.56836 0.00045
22.94015 2174.00000 2048.92916 0.00046
22.95015 2175.00000 2047.30626 0.00046
22.96015 2121.00000 2045.69913 0.00047
22.97015 2101.00000 2044.10727 0.00048
22.98015 2100.00000 2042.53018 0.00048
22.99015 2169.00000 2040.96741 0.00046
23.00015 2135.00000 2039.41851 0.00047
23.01015 2198.00000 2037.88305 0.00045
23.02015 2063.00000 2036.36062 0.00048
23.03015 2093.00000 2034.85083 0.00048
23.04015 2074.00000 2033.35328 0.00048
23.05015 2079.00000 2031.86762 0.00048
23.06015 2200.00000 2030.39349 0.00045
23.07015 2155.00000 2028.93057 0.00046
23.08015 2070.00000 2027.47851 0.00048
23.09015 2111.00000 2026.03701 0.00047
23.10015 2135.00000 2024.60577 0.00047
23.11015 2171.00000 2023.18450 0.00046
23.12015 2085.00000 2021.77293 0.00048
23.13015 2132.00000 2020.37078 0.00047
23.14015 2123.00000 2018.97781 0.00047
23.15015 2105.00000 2017.59376 0.00048
23.16015 2103.00000 2016.21840 0.00048
23.17015 2109.00000 2014.85150 0.00047
23.18015 2097.00000 2013.49285 0.00048
23.19015 2116.00000 2012.14223 0.00047
23.20015 2107.00000 2010.79945 0.00047
23.21015 2110.00000 2009.46431 0.00047
23.22015 2092.00000 2008.13662 0.00048
23.23015 2160.00000 2006.81623 0.00046
23.24015 2059.00000 2005.50294 0.00049
23.25015 2146.00000 2004.19660 0.00047
23.26015 2111.00000 2002.89706 0.00047
23.27015 2103.00000 2001.60417 0.00048
23.28015 2124.00000 2000.31778 0.00047
23.29015 2071.00000 1999.03777 0.00048
23.30015 2126.00000 1997.76399 0.00047
23.31015 2104.00000 1996.49632 0.00048
23.32015 2050.00000 1995.23450 0.00049
23.33015 2084.00000 1993.97830 0.00048
23.34015 2103.00000 1992.72753 0.00048
23.35015 1992.00000 1991.48193 0.00050
23.36016 2024.00000 1990.24003 0.00049
23.37016 2040.00000 1989.00404 0.00049
23.38016 2118.00000 1987.77241 0.00047
23.39016 2026.00000 1986.54488 0.00049
23.40016 2062.00000 1985.32108 0.00048
23.41016 2084.00000 1984.10065 0.00048
23.42016 2052.00000 1982.88315 0.00049
23.43016 2075.00000 1981.66811 0.00048
23.44016 2092.00000 1980.45496 0.00048
23.45016 2095.00000 1979.24302 0.00048
23.46016 2008.00000 1978.03147 0.00050
23.47016 2075.00000 1976.81931 0.00048
23.48016 2047.00000 1975.60524 0.00049
23.49016 2032.00000 1974.38763 0.00049
23.50016 2085.00000 1973.16425 0.00048
23.51016 1995.00000 1971.93168 0.00050
23.52016 2004.00000 1970.68466 0.00050
23.53016 2048.00000 1969.41525 0.00049
23.54016 2041.00000 1968.11047 0.00049
23.55016 2050.00000 1966.74486 0.00049
23.56016 1992.00000 1965.23871 0.00050
23.57016 1970.00000 1963.56106 0.00051
23.58016 2043.00000 1962.19018 0.00049
23.59016 1956.00000 1961.03679 0.00051
23.60016 2028.00000 1959.94297 0.00049
23.61016 2014.00000 1958.85359 0.00050
23.62016 2049.00000 1957.76868 0.00049
23.63016 1998.00000 1956.68830 0.00050
23.64016 2057.00000 1955.61249 0.00049
23.65016 2109.00000 1954.54133 0.00047
23.66016 2019.00000 1953.47487 0.00050
23.67016 2042.00000 1952.41319 0.00049
23.68016 2066.00000 1951.35636 0.00048
23.69016 1963.00000 1950.30447 0.00051
23.70016 1955.00000 1949.25760 0.00051
23.71016 1955.00000 1948.21585 0.00051
23.72016 2019.00000 1947.17931 0.00050
23.73016 2039.00000 1946.14810 0.00049
23.74016 2004.00000 1945.12232 0.00050
23.75016 2052.00000 1944.10210 0.00049
23.76016 1956.00000 1943.08757 0.00051
23.77016 1988.00000 1942.07884 0.00050
23.78016 1989.00000 1941.07607 0.00050
23.79016 1950.00000 1940.07941 0.00051
23.80017 2001.00000 1939.08801 0.00050
23.81017 2004.00000 1938.10404 0.00050
23.82017 2011.00000 1937.12666 0.00050
23.83017 1936.00000 1936.15606 0.00052
23.84017 1932.00000 1935.19243 0.00052
23.85017 1910.00000 1934.23598 0.00052
23.86017 2061.00000 1933.28690 0.00049
23.87017 1956.00000 1932.34543 0.00051
23.88017 1930.00000 1931.41179 0.00052
23.89017 1982.00000 1930.48624 0.00050
23.90017 1964.00000 1929.56901 0.00051
23.91017 1940.00000 1928.66039 0.00052
23.92017 1947.00000 1927.76065 0.00051
23.93017 1937.00000 1926.87009 0.00052
23.94017 2017.00000 1925.98902 0.00050
23.95017 1925.00000 1925.11775 0.00052
23.96017 1880.00000 1924.25664 0.00053
23.97017 1905.00000 1923.40603 0.00052
23.98017 1967.00000 1922.56630 0.00051
23.99017 1933.00000 1921.73783 0.00052
24.00017 1917.00000 1920.92105 0.00052
24.01017 1942.00000 1920.11637 0.00051
24.02017 2018.00000 1919.32425 0.00050
24.03017 1917.00000 1918.54517 0.00052
24.04017 1974.00000 1917.77962 0.00051
24.05017 1972.00000 1917.02812 0.00051
24.06017 1927.00000 1916.29122 0.00052
24.07017 1930.00000 1915.56948 0.00052
24.08017 1943.00000 1914.86309 0.00051
24.09017 1958.00000 1914.17191 0.00051
24.10017 1897.00000 1913.49609 0.00053
24.11017 1929.00000 1912.83566 0.00052
24.12017 1968.00000 1912.19038 0.00051
24.13017 1977.00000 1911.56031 0.00051
24.14017 1860.00000 1910.94512 0.00054
24.15017 1912.00000 1910.34448 0.00052
24.16017 1937.00000 1909.75804 0.00052
24.17017 1899.00000 1909.18506 0.00053
24.18017 1957.00000 1908.62488 0.00051
24.19017 1913.00000 1908.07626 0.00052
24.20017 1905.00000 1907.53786 0.00052
24.21017 1955.00000 1907.00778 0.00051
24.22017 2000.00000 1906.48360 0.00050
24.23018 1958.00000 1905.96152 0.00051
24.24018 1876.00000 1905.43832 0.00053
24.25018 1886.00000 1904.90764 0.00053
24.26018 1908.00000 1904.36143 0.00052
24.27018 1951.00000 1903.78845 0.00051
24.28018 1970.00000 1903.17028 0.00051
24.29018 1911.00000 1902.47824 0.00052
24.30018 1924.00000 1901.66856 0.00052
24.31018 1924.00000 1900.66806 0.00052
24.32018 1835.00000 1899.33240 0.00054
24.33018 1960.00000 1897.20844 0.00051
24.34018 1966.00000 1894.10869 0.00051
24.35018 1940.00000 1892.73539 0.00052
24.36018 1990.00000 1892.69614 0.00050
24.37018 1954.00000 1893.03286 0.00051
24.38018 1884.00000 1893.43306 0.00053
24.39018 1937.00000 1893.90056 0.00052
24.40018 1871.00000 1894.43947 0.00053
24.41018 1920.00000 1895.05419 0.00052
24.42018 1982.00000 1895.74947 0.00050
24.43018 1879.00000 1896.53043 0.00053
24.44018 1877.00000 1897.40256 0.00053
24.45018 1853.00000 1898.37176 0.00054
24.46018 1885.00000 1899.44442 0.00053
24.47018 1811.00000 1900.62736 0.00055
24.48018 1899.00000 1901.92794 0.00053
24.49018 1879.00000 1903.35408 0.00053
24.50018 1853.00000 1904.91427 0.00054
24.51018 1951.00000 1906.61761 0.00051
24.52018 1865.00000 1908.47388 0.00054
24.53018 1939.00000 1910.49353 0.00052
24.54018 1880.00000 1912.68776 0.00053
24.55018 1928.00000 1915.06851 0.00052
24.56018 1890.00000 1917.64852 0.00053
24.57018 1976.00000 1920.44136 0.00051
24.58018 1927.00000 1923.46145 0.00052
24.59018 1904.00000 1926.72406 0.00053
24.60018 1956.00000 1930.24539 0.00051
24.61018 1845.00000 1934.04251 0.00054
24.62018 1926.00000 1938.13341 0.00052
24.63018 2010.00000 1942.53696 0.00050
24.64018 1944.00000 1947.27295 0.00051
24.65018 1923.00000 1952.36198 0.00052
24.66018 1950.00000 1957.82549 0.00051
24.67019 1958.00000 1963.69168 0.00051
24.68019 1998.00000 1969.97169 0.00050
24.69019 1813.00000 1976.69450 0.00055
24.70019 1942.00000 1983.88380 0.00051
24.71019 1992.00000 1991.56346 0.00050
24.72019 1954.00000 1999.75730 0.00051
24.73019 1978.00000 2008.48874 0.00051
24.74019 1976.00000 2017.78046 0.00051
24.75019 1982.00000 2027.65396 0.00050
24.76019 2020.00000 2038.12898 0.00050
24.77019 2034.00000 2049.22294 0.00049
24.78019 2063.00000 2060.95009 0.00048
24.79019 2104.00000 2073.32073 0.00048
24.80019 2020.00000 2086.34010 0.00050
24.81019 2072.00000 2100.00733 0.00048
24.82019 2086.00000 2114.31404 0.00048
24.83019 2050.00000 2129.24296 0.00049
24.84019 2067.00000 2144.76632 0.00048
24.85019 2160.00000 2160.84415 0.00046
24.86019 2106.00000 2177.42247 0.00047
24.87019 2166.00000 2194.43152 0.00046
24.88019 2325.00000 2211.78392 0.00043
24.89019 2303.00000 2229.37305 0.00043
24.90019 2380.00000 2247.07164 0.00042
24.91019 2376.00000 2264.73083 0.00042
24.92019 2308.00000 2282.17978 0.00043
24.93019 2466.00000 2299.22613 0.00041
24.94019 2458.00000 2315.65753 0.00041
24.95019 2587.00000 2331.24436 0.00039
24.96019 2629.00000 2345.74395 0.00038
24.97019 2648.00000 2358.90629 0.00038
24.98019 2794.00000 2370.48131 0.00036
24.99019 2654.00000 2380.22742 0.00038
25.00019 2704.00000 2387.92122 0.00037
25.01019 2749.00000 2393.36744 0.00036
25.02019 2808.00000 2396.40882 0.00036
25.03019 2830.00000 2396.93479 0.00035
25.04019 2761.00000 2394.88826 0.00036
25.05019 2813.00000 2390.26978 0.00036
25.06019 2771.00000 2383.13849 0.00036
25.07019 2807.00000 2373.60977 0.00036
25.08019 2715.00000 2361.84959 0.00037
25.09019 2607.00000 2348.06632 0.00038
25.10019 2690.00000 2332.50045 0.00037
25.11020 2597.00000 2315.39577 0.00039
25.12020 2463.00000 2297.05799 0.00041
25.13020 2387.00000 2277.74149 0.00042
25.14020 2293.00000 2257.70746 0.00044
25.15020 2384.00000 2237.20044 0.00042
25.16020 2326.00000 2216.44314 0.00043
25.17020 2304.00000 2195.63328 0.00043
25.18020 2270.00000 2174.94208 0.00044
25.19020 2188.00000 2154.51422 0.00046
25.20020 2129.00000 2134.46886 0.00047
25.21020 2097.00000 2114.90147 0.00048
25.22020 2109.00000 2095.88607 0.00047
25.23020 2027.00000 2077.47776 0.00049
25.24020 1979.00000 2059.71529 0.00051
25.25020 1984.00000 2042.62349 0.00050
25.26020 2064.00000 2026.21562 0.00048
25.27020 1938.00000 2010.49540 0.00052
25.28020 1894.00000 1995.45885 0.00053
25.29020 1907.00000 1981.09592 0.00052
25.30020 1864.00000 1967.39178 0.00054
25.31020 1851.00000 1954.32797 0.00054
25.32020 1843.00000 1941.88337 0.00054
25.33020 1840.00000 1930.03494 0.00054
25.34020 1891.00000 1918.75837 0.00053
25.35020 1867.00000 1908.02860 0.00054
25.36020 1827.00000 1897.82019 0.00055
25.37020 1796.00000 1888.10767 0.00056
25.38020 1871.00000 1878.86583 0.00053
25.39020 1811.00000 1870.06986 0.00055
25.40020 1795.00000 1861.69553 0.00056
25.41020 1797.00000 1853.71933 0.00056
25.42020 1798.00000 1846.11853 0.00056
25.43020 1784.00000 1838.87127 0.00056
25.44020 1752.00000 1831.95659 0.00057
25.45020 1791.00000 1825.35445 0.00056
25.46020 1762.00000 1819.04577 0.00057
25.47020 1723.00000 1813.01241 0.00058
25.48020 1775.00000 1807.23719 0.00056
25.49020 1826.00000 1801.70386 0.00055
25.50020 1774.00000 1796.39708 0.00056
25.51020 1736.00000 1791.30243 0.00058
25.52020 1671.00000 1786.40633 0.00060
25.53020 1707.00000 1781.69607 0.00059
25.54021 1663.00000 1777.15528 0.00060
25.55021 1754.00000 1772.78186 0.00057
25.56021 1667.00000 1768.56080 0.00060
25.57021 1660.00000 1764.48239 0.00060
25.58021 1694.00000 1760.53758 0.00059
25.59021 1708.00000 1756.71795 0.00059
25.60021 1620.00000 1753.01568 0.00062
25.61021 1674.00000 1749.42349 0.00060
25.62021 1677.00000 1745.93462 0.00060
25.63021 1669.00000 1742.54279 0.00060
25.64021 1663.00000 1739.24217 0.00060
25.65021 1647.00000 1736.02736 0.00061
25.66021 1717.00000 1732.89333 0.00058
25.67021 1665.00000 1729.83542 0.00060
25.68021 1666.00000 1726.84930 0.00060
25.69021 1686.00000 1723.93094 0.00059
25.70021 1673.00000 1721.07660 0.00060
25.71021 1692.00000 1718.28281 0.00059
25.72021 1704.00000 1715.54631 0.00059
25.73021 1661.00000 1712.86409 0.00060
25.74021 1661.00000 1710.23334 0.00060
25.75021 1657.00000 1707.65142 0.00060
25.76021 1615.00000 1705.11587 0.00062
25.77021 1614.00000 1702.62440 0.00062
25.78021 1609.00000 1700.17486 0.00062
25.79021 1645.00000 1697.76522 0.00061
25.80021 1621.00000 1695.39360 0.00062
25.81021 1615.00000 1693.05821 0.00062
25.82021 1670.00000 1690.75738 0.00060
25.83021 1569.00000 1688.48955 0.00064
25.84021 1638.00000 1686.25322 0.00061
25.85021 1577.00000 1684.04700 0.00063
25.86021 1623.00000 1681.86957 0.00062
25.87021 1613.00000 1679.71968 0.00062
25.88021 1621.00000 1677.59616 0.00062
25.89021 1627.00000 1675.49789 0.00061
25.90021 1646.00000 1673.42381 0.00061
25.91021 1584.00000 1671.37293 0.00063
25.92021 1644.00000 1669.34429 0.00061
25.93021 1560.00000 1667.33699 0.00064
25.94021 1599.00000 1665.35019 0.00063
25.95021 1555.00000 1663.38307 0.00064
25.96021 1583.00000 1661.43485 0.00063
25.97021 1620.00000 1659.50481 0.00062
25.98022 1640.00000 1657.59034 0.00061
25.99022 1618.00000 1655.69460 0.00062
26.00022 1602.00000 1653.81505 0.00062
26.01022 1608.00000 1651.95107 0.00062
26.02022 1595.00000 1650.10210 0.00063
26.03022 1570.00000 1648.26758 0.00064
26.04022 1599.00000 1646.44699 0.00063
26.05022 1569.00000 1644.63984 0.00064
26.06022 1545.00000 1642.84565 0.00065
26.07022 1583.00000 1641.06397 0.00063
26.08022 1562.00000 1639.29436 0.00064
26.09022 1628.00000 1637.53640 0.00061
26.10022 1583.00000 1635.78971 0.00063
26.11022 1541.00000 1634.05390 0.00065
26.12022 1644.00000 1632.32861 0.00061
26.13022 1553.00000 1630.61349 0.00064
26.14022 1620.00000 1628.90822 0.00062
26.15022 1606.00000 1627.21247 0.00062
26.16022 1560.00000 1625.52594 0.00064
26.17022 1600.00000 1623.84833 0.00063
26.18022 1595.00000 1622.17938 0.00063
26.19022 1578.00000 1620.51881 0.00063
26.20022 1505.00000 1618.86637 0.00066
26.21022 1559.00000 1617.22180 0.00064
26.22022 1588.00000 1615.58488 0.00063
26.23022 1562.00000 1613.95538 0.00064
26.24022 1526.00000 1612.33308 0.00066
26.25022 1581.00000 1610.71777 0.00063
26.26022 1643.00000 1609.10925 0.00061
26.27022 1595.00000 1607.50734 0.00063
26.28022 1589.00000 1605.91184 0.00063
26.29022 1598.00000 1604.32258 0.00063
26.30022 1553.00000 1602.73939 0.00064
26.31022 1541.00000 1601.16210 0.00065
26.32022 1534.00000 1599.59057 0.00065
26.33022 1481.00000 1598.02463 0.00068
26.34022 1524.00000 1596.46414 0.00066
26.35022 1535.00000 1594.90896 0.00065
26.36022 1541.00000 1593.35897 0.00065
26.37022 1487.00000 1591.81402 0.00067
26.38022 1529.00000 1590.27400 0.00065
26.39022 1610.00000 1588.73878 0.00062
26.40022 1563.00000 1587.20825 0.00064
26.41022 1537.00000 1585.68230 0.00065
26.42023 1515.00000 1584.15930 0.00066
26.43023 1538.00000 1582.64219 0.00065
26.44023 1490.00000 1581.12936 0.00067
26.45023 1530.00000 1579.62070 0.00065
26.46023 1525.00000 1578.11612 0.00066
26.47023 1530.00000 1576.61554 0.00065
26.48023 1575.00000 1575.11886 0.00063
26.49023 1521.00000 1573.62602 0.00066
26.50023 1554.00000 1572.13692 0.00064
26.51023 1481.00000 1570.65150 0.00068
26.52023 1541.00000 1569.16967 0.00065
26.53023 1499.00000 1567.69138 0.00067
26.54023 1546.00000 1566.21654 0.00065
26.55023 1529.00000 1564.74510 0.00065
26.56023 1485.00000 1563.27699 0.00067
26.57023 1506.00000 1561.81215 0.00066
26.58023 1533.00000 1560.35052 0.00065
26.59023 1478.00000 1558.89204 0.00068
26.60023 1505.00000 1557.43667 0.00066
26.61023 1514.00000 1555.98434 0.00066
26.62023 1501.00000 1554.53501 0.00067
26.63023 1475.00000 1553.08863 0.00068
26.64023 1449.00000 1551.64514 0.00069
26.65023 1517.00000 1550.20452 0.00066
26.66023 1547.00000 1548.76670 0.00065
26.67023 1542.00000 1547.33165 0.00065
26.68023 1440.00000 1545.89933 0.00069
26.69023 1451.00000 1544.46970 0.00069
26.70023 1509.00000 1543.04272 0.00066
26.71023 1551.00000 1541.61836 0.00064
26.72023 1505.00000 1540.19658 0.00066
26.73023 1515.00000 1538.77734 0.00066
26.74023 1572.00000 1537.36062 0.00064
26.75023 1502.00000 1535.94638 0.00067
26.76023 1431.00000 1534.53459 0.00070
26.77023 1550.00000 1533.12522 0.00065
26.78023 1518.00000 1531.71825 0.00066
26.79023 1422.00000 1530.31365 0.00070
26.80023 1440.00000 1528.91139 0.00069
26.81023 1489.00000 1527.51145 0.00067
26.82023 1494.00000 1526.11381 0.00067
26.83023 1471.00000 1524.71843 0.00068
26.84023 1487.00000 1523.32531 0.00067
26.85023 1429.00000 1521.93441 0.00070
26.86024 1469.00000 1520.54433 0.00068
26.87024 1480.00000 1519.15783 0.00068
26.88024 1504.00000 1517.77350 0.00066
26.89024 1464.00000 1516.39133 0.00068
26.90024 1462.00000 1515.01128 0.00068
26.91024 1510.00000 1513.63336 0.00066
26.92024 1455.00000 1512.25754 0.00069
26.93024 1420.00000 1510.88380 0.00070
26.94024 1485.00000 1509.51214 0.00067
26.95024 1497.00000 1508.14254 0.00067
26.96024 1422.00000 1506.77498 0.00070
26.97024 1453.00000 1505.40946 0.00069
26.98024 1469.00000 1504.04596 0.00068
26.99024 1427.00000 1502.68448 0.00070
27.00024 1476.00000 1501.32499 0.00068
27.01024 1474.00000 1499.96749 0.00068
27.02024 1457.00000 1498.61198 0.00069
27.03024 1417.00000 1497.25843 0.00071
27.04024 1449.00000 1495.90685 0.00069
27.05024 1407.00000 1494.55722 0.00071
27.06024 1434.00000 1493.20954 0.00070
27.07024 1434.00000 1491.86380 0.00070
27.08024 1454.00000 1490.52000 0.00069
27.09024 1463.00000 1489.17812 0.00068
27.10024 1450.00000 1487.83817 0.00069
27.11024 1469.00000 1486.50013 0.00068
27.12024 1505.00000 1485.16400 0.00066
27.13024 1403.00000 1483.82979 0.00071
27.14024 1406.00000 1482.49749 0.00071
27.15024 1450.00000 1481.16712 0.00069
27.16024 1387.00000 1479.83869 0.00072
27.17024 1410.00000 1478.51223 0.00071
27.18024 1385.00000 1477.18776 0.00072
27.19024 1440.00000 1475.86530 0.00069
27.20024 1460.00000 1474.54492 0.00068
27.21024 1432.00000 1473.22666 0.00070
27.22024 1430.00000 1471.91062 0.00070
27.23024 1370.00000 1470.59692 0.00073
27.24024 1409.00000 1469.28577 0.00071
27.25024 1420.00000 1467.97753 0.00070
27.26024 1475.00000 1466.67297 0.00068
27.27024 1464.00000 1465.37420 0.00068
27.28024 1477.00000 1464.08374 0.00068
27.29025 1449.00000 1462.79167 0.00069
27.30025 1431.00000 1461.49162 0.00070
27.31025 1440.00000 1460.19187 0.00069
27.32025 1450.00000 1458.89424 0.00069
27.33025 1443.00000 1457.59882 0.00069
27.34025 1431.00000 1456.30571 0.00070
27.35025 1330.00000 1455.01506 0.00075
27.36025 1419.00000 1453.72710 0.00070
27.37025 1419.00000 1452.44210 0.00070
27.38025 1440.00000 1451.16042 0.00069
27.39025 1381.00000 1449.88246 0.00072
27.40025 1413.00000 1448.60880 0.00071
27.41025 1415.00000 1447.34017 0.00071
27.42025 1437.00000 1446.07766 0.00070
27.43025 1401.00000 1444.82303 0.00071
27.44025 1444.00000 1443.57908 0.00069
27.45025 1344.00000 1442.35089 0.00074
27.46025 1444.00000 1441.15139 0.00069
27.47025 1432.00000 1439.99541 0.00070
27.48025 1355.00000 1438.83320 0.00074
27.49025 1367.00000 1437.61071 0.00073
27.50025 1392.00000 1436.39253 0.00072
27.51025 1391.00000 1435.19277 0.00072
27.52025 1374.00000 1434.02251 0.00073
27.53025 1385.00000 1432.91697 0.00072
27.54025 1348.00000 1431.88016 0.00074
27.55025 1392.00000 1430.69867 0.00072
27.56025 1390.00000 1429.49219 0.00072
27.57025 1410.00000 1428.29718 0.00071
27.58025 1426.00000 1427.12191 0.00070
27.59025 1366.00000 1425.97928 0.00073
27.60025 1366.00000 1424.91206 0.00073
27.61025 1430.00000 1423.92156 0.00070
27.62025 1392.00000 1422.73625 0.00072
27.63025 1357.00000 1421.52277 0.00074
27.64025 1419.00000 1420.31131 0.00070
27.65025 1357.00000 1419.10242 0.00074
27.66025 1386.00000 1417.89614 0.00072
27.67025 1438.00000 1416.69248 0.00070
27.68025 1366.00000 1415.49147 0.00073
27.69025 1355.00000 1414.29314 0.00074
27.70025 1457.00000 1413.09752 0.00069
27.71025 1320.00000 1411.90464 0.00076
27.72025 1384.00000 1410.71453 0.00072
27.73026 1445.00000 1409.52602 0.00069
27.74026 1383.00000 1408.34153 0.00072
27.75026 1359.00000 1407.15991 0.00074
27.76026 1346.00000 1405.98118 0.00074
27.77026 1344.00000 1404.80538 0.00074
27.78026 1403.00000 1403.63255 0.00071
27.79026 1363.00000 1402.46272 0.00073
27.80026 1328.00000 1401.29594 0.00075
27.81026 1332.00000 1400.13224 0.00075
27.82026 1376.00000 1398.97167 0.00073
27.83026 1357.00000 1397.81426 0.00074
27.84026 1297.00000 1396.66008 0.00077
27.85026 1356.00000 1395.50915 0.00074
27.86026 1309.00000 1394.36153 0.00076
27.87026 1394.00000 1393.21727 0.00072
27.88026 1403.00000 1392.07643 0.00071
27.89026 1402.00000 1390.93905 0.00071
27.90026 1463.00000 1389.80519 0.00068
27.91026 1354.00000 1388.67492 0.00074
27.92026 1344.00000 1387.54829 0.00074
27.93026 1328.00000 1386.42537 0.00075
27.94026 1372.00000 1385.30622 0.00073
27.95026 1317.00000 1384.19092 0.00076
27.96026 1304.00000 1383.07963 0.00077
27.97026 1387.00000 1381.97261 0.00072
27.98026 1331.00000 1380.87014 0.00075
27.99026 1356.00000 1379.77256 0.00074
28.00026 1309.00000 1378.68028 0.00076
28.01026 1403.00000 1377.59376 0.00071
28.02026 1315.00000 1376.51357 0.00076
28.03026 1332.00000 1375.44042 0.00075
28.04026 1347.00000 1374.37519 0.00074
28.05026 1388.00000 1373.31903 0.00072
28.06026 1314.00000 1372.27343 0.00076
28.07026 1328.00000 1371.24053 0.00075
28.08026 1356.00000 1370.22336 0.00074
28.09026 1377.00000 1369.22695 0.00073
28.10026 1331.00000 1368.26097 0.00075
28.11026 1333.00000 1367.34456 0.00075
28.12026 1316.00000 1366.53811 0.00076
28.13026 1408.00000 1365.85973 0.00071
28.14026 1338.00000 1364.94733 0.00075
28.15026 1322.00000 1363.94403 0.00076
28.16026 1351.00000 1362.93863 0.00074
28.17027 1323.00000 1361.93898 0.00076
28.18027 1318.00000 1360.94733 0.00076
28.19027 1326.00000 1359.96291 0.00075
28.20027 1320.00000 1358.98602 0.00076
28.21027 1361.00000 1358.01694 0.00073
28.22027 1309.00000 1357.05600 0.00076
28.23027 1300.00000 1356.10353 0.00077
28.24027 1331.00000 1355.15991 0.00075
28.25027 1292.00000 1354.22554 0.00077
28.26027 1310.00000 1353.30086 0.00076
28.27027 1340.00000 1352.38634 0.00075
28.28027 1313.00000 1351.48249 0.00076
28.29027 1349.00000 1350.58988 0.00074
28.30027 1329.00000 1349.70912 0.00075
28.31027 1334.00000 1348.84089 0.00075
28.32027 1358.00000 1347.98592 0.00074
28.33027 1352.00000 1347.14503 0.00074
28.34027 1386.00000 1346.31913 0.00072
28.35027 1348.00000 1345.50922 0.00074
28.36027 1283.00000 1344.71642 0.00078
28.37027 1321.00000 1343.94199 0.00076
28.38027 1329.00000 1343.18735 0.00075
28.39027 1318.00000 1342.45413 0.00076
28.40027 1266.00000 1341.74421 0.00079
28.41027 1333.00000 1341.05979 0.00075
28.42027 1284.00000 1340.40350 0.00078
28.43027 1411.00000 1339.77853 0.00071
28.44027 1312.00000 1339.18880 0.00076
28.45027 1284.00000 1338.63925 0.00078
28.46027 1289.00000 1338.13617 0.00078
28.47027 1324.00000 1337.68764 0.00076
28.48027 1290.00000 1337.30417 0.00078
28.49027 1254.00000 1336.99942 0.00080
28.50027 1302.00000 1336.79120 0.00077
28.51027 1253.00000 1336.70272 0.00080
28.52027 1338.00000 1336.76404 0.00075
28.53027 1326.00000 1337.01401 0.00075
28.54027 1301.00000 1337.50246 0.00077
28.55027 1324.00000 1338.29292 0.00076
28.56027 1319.00000 1339.46570 0.00076
28.57027 1306.00000 1341.12131 0.00077
28.58027 1247.00000 1343.38404 0.00080
28.59027 1323.00000 1346.40523 0.00076
28.60028 1339.00000 1350.37030 0.00075
28.61028 1343.00000 1355.48216 0.00074
28.62028 1337.00000 1361.98305 0.00075
28.63028 1353.00000 1370.13273 0.00074
28.64028 1405.00000 1380.19958 0.00071
28.65028 1449.00000 1392.44087 0.00069
28.66028 1376.00000 1407.07520 0.00073
28.67028 1420.00000 1424.24747 0.00070
28.68028 1450.00000 1443.98813 0.00069
28.69028 1399.00000 1466.17010 0.00071
28.70028 1491.00000 1490.46809 0.00067
28.71028 1501.00000 1516.32578 0.00067
28.72028 1539.00000 1542.93606 0.00065
28.73028 1522.00000 1569.23905 0.00066
28.74028 1507.00000 1593.94272 0.00066
28.75028 1581.00000 1615.57298 0.00063
28.76028 1608.00000 1632.56598 0.00062
28.77028 1665.00000 1643.41990 0.00060
28.78028 1549.00000 1646.91581 0.00065
28.79028 1611.00000 1642.38003 0.00062
28.80028 1540.00000 1629.90182 0.00065
28.81028 1584.00000 1610.38897 0.00063
28.82028 1579.00000 1585.40184 0.00063
28.83028 1501.00000 1556.83096 0.00067
28.84028 1494.00000 1526.56371 0.00067
28.85028 1417.00000 1496.25276 0.00071
28.86028 1435.00000 1467.20868 0.00070
28.87028 1430.00000 1440.37953 0.00070
28.88028 1326.00000 1416.37410 0.00075
28.89028 1379.00000 1395.50363 0.00073
28.90028 1378.00000 1377.83202 0.00073
28.91028 1324.00000 1363.23097 0.00076
28.92028 1341.00000 1351.43663 0.00075
28.93028 1345.00000 1342.10368 0.00074
28.94028 1256.00000 1334.85283 0.00080
28.95028 1307.00000 1329.30851 0.00077
28.96028 1336.00000 1325.12547 0.00075
28.97028 1260.00000 1322.00456 0.00079
28.98028 1293.00000 1319.69926 0.00077
28.99028 1309.00000 1318.01521 0.00076
29.00028 1354.00000 1316.80534 0.00074
29.01028 1282.00000 1315.96267 0.00078
29.02028 1327.00000 1315.41240 0.00075
29.03028 1249.00000 1315.10466 0.00080
29.04029 1329.00000 1315.00826 0.00075
29.05029 1306.00000 1315.10621 0.00077
29.06029 1298.00000 1315.39156 0.00077
29.07029 1297.00000 1315.86590 0.00077
29.08029 1293.00000 1316.53792 0.00077
29.09029 1314.00000 1317.42309 0.00076
29.10029 1365.00000 1318.54399 0.00073
29.11029 1323.00000 1319.93125 0.00076
29.12029 1324.00000 1321.62498 0.00076
29.13029 1270.00000 1323.67669 0.00079
29.14029 1344.00000 1326.15165 0.00074
29.15029 1270.00000 1329.13161 0.00079
29.16029 1300.00000 1332.71788 0.00077
29.17029 1327.00000 1337.03446 0.00075
29.18029 1291.00000 1342.23113 0.00077
29.19029 1356.00000 1348.48591 0.00074
29.20029 1298.00000 1356.00647 0.00077
29.21029 1331.00000 1365.02980 0.00075
29.22029 1322.00000 1375.81919 0.00076
29.23029 1292.00000 1388.65804 0.00077
29.24029 1330.00000 1403.83941 0.00075
29.25029 1377.00000 1421.65109 0.00073
29.26029 1387.00000 1442.35587 0.00072
29.27029 1346.00000 1466.16713 0.00074
29.28029 1455.00000 1493.22045 0.00069
29.29029 1452.00000 1523.54248 0.00069
29.30029 1497.00000 1557.01835 0.00067
29.31029 1499.00000 1593.35979 0.00067
29.32029 1574.00000 1632.07538 0.00064
29.33029 1557.00000 1672.44487 0.00064
29.34029 1628.00000 1713.49911 0.00061
29.35029 1676.00000 1754.00853 0.00060
29.36029 1635.00000 1792.48623 0.00061
29.37029 1767.00000 1827.21808 0.00057
29.38029 1752.00000 1856.34052 0.00057
29.39029 1816.00000 1877.99116 0.00055
29.40029 1790.00000 1890.54670 0.00056
29.41029 1838.00000 1892.92519 0.00054
29.42029 1827.00000 1884.87140 0.00055
29.43029 1725.00000 1867.10438 0.00058
29.44029 1717.00000 1841.23700 0.00058
29.45029 1755.00000 1809.48311 0.00057
29.46029 1696.00000 1774.27278 0.00059
29.47029 1724.00000 1737.91938 0.00058
29.48030 1638.00000 1702.38307 0.00061
29.49030 1582.00000 1669.34450 0.00063
29.50030 1556.00000 1639.99988 0.00064
29.51030 1500.00000 1615.25890 0.00067
29.52030 1524.00000 1595.76645 0.00066
29.53030 1480.00000 1581.95508 0.00068
29.54030 1481.00000 1574.08854 0.00068
29.55030 1508.00000 1572.29688 0.00066
29.56030 1440.00000 1576.60367 0.00069
29.57030 1430.00000 1586.94545 0.00070
29.58030 1474.00000 1603.18274 0.00068
29.59030 1473.00000 1625.10253 0.00068
29.60030 1496.00000 1652.41230 0.00067
29.61030 1520.00000 1684.72638 0.00066
29.62030 1529.00000 1721.54596 0.00065
29.63030 1511.00000 1762.23464 0.00066
29.64030 1572.00000 1805.99143 0.00064
29.65030 1587.00000 1851.82305 0.00063
29.66030 1601.00000 1898.51844 0.00062
29.67030 1613.00000 1944.63045 0.00062
29.68030 1727.00000 1988.47400 0.00058
29.69030 1700.00000 2028.15678 0.00059
29.70030 1741.00000 2061.66566 0.00057
29.71030 1740.00000 2087.03117 0.00057
29.72030 1787.00000 2102.57748 0.00056
29.73030 1735.00000 2107.22595 0.00058
29.74030 1837.00000 2100.78062 0.00054
29.75030 1777.00000 2083.96858 0.00056
29.76030 1732.00000 2058.09547 0.00058
29.77030 1720.00000 2025.52620 0.00058
29.78030 1756.00000 1988.69196 0.00057
29.79030 1745.00000 1949.86160 0.00057
29.80030 1688.00000 1910.96859 0.00059
29.81030 1721.00000 1873.52746 0.00058
29.82030 1703.00000 1838.63939 0.00059
29.83030 1663.00000 1807.04179 0.00060
29.84030 1635.00000 1779.16986 0.00061
29.85030 1634.00000 1755.21474 0.00061
29.86030 1658.00000 1735.17352 0.00060
29.87030 1602.00000 1718.89182 0.00062
29.88030 1723.00000 1706.10073 0.00058
29.89030 1650.00000 1696.44946 0.00061
29.90030 1681.00000 1689.53427 0.00059
29.91031 1648.00000 1684.91895 0.00061
29.92031 1648.00000 1682.17674 0.00061
29.93031 1788.00000 1680.87298 0.00056
29.94031 1725.00000 1680.60313 0.00058
29.95031 1833.00000 1680.99471 0.00055
29.96031 1795.00000 1681.71264 0.00056
29.97031 1757.00000 1682.46205 0.00057
29.98031 1803.00000 1682.98886 0.00055
29.99031 1766.00000 1683.07897 0.00057
30.00031 1785.00000 1682.55669 0.00056
30.01031 1853.00000 1681.28250 0.00054
30.02031 1825.00000 1679.15072 0.00055
30.03031 1806.00000 1676.08707 0.00055
30.04031 1837.00000 1672.04613 0.00054
30.05031 1833.00000 1667.00880 0.00055
30.06031 1825.00000 1660.97963 0.00055
30.07031 1799.00000 1653.98400 0.00056
30.08031 1790.00000 1646.06499 0.00056
30.09031 1754.00000 1637.27996 0.00057
30.10031 1710.00000 1627.69648 0.00058
30.11031 1699.00000 1617.38378 0.00059
30.12031 1655.00000 1606.41635 0.00060
30.13031 1684.00000 1594.94221 0.00059
30.14031 1583.00000 1583.09150 0.00063
30.15031 1638.00000 1570.90780 0.00061
30.16031 1625.00000 1558.46518 0.00062
30.17031 1573.00000 1545.84656 0.00064
30.18031 1551.00000 1533.12915 0.00064
30.19031 1510.00000 1520.38366 0.00066
30.20031 1448.00000 1507.67381 0.00069
30.21031 1413.00000 1495.05611 0.00071
30.22031 1410.00000 1482.57994 0.00071
30.23031 1412.00000 1470.28768 0.00071
30.24031 1400.00000 1458.21511 0.00071
30.25031 1411.00000 1446.39183 0.00071
30.26031 1384.00000 1434.84175 0.00072
30.27031 1407.00000 1423.58365 0.00071
30.28031 1392.00000 1412.63170 0.00072
30.29031 1386.00000 1401.99601 0.00072
30.30031 1318.00000 1391.68316 0.00076
30.31031 1300.00000 1381.69663 0.00077
30.32031 1300.00000 1372.03732 0.00077
30.33031 1298.00000 1362.70388 0.00077
30.34031 1271.00000 1353.69314 0.00079
30.35032 1236.00000 1344.99183 0.00081
30.36032 1228.00000 1336.61140 0.00081
30.37032 1299.00000 1328.53605 0.00077
30.38032 1313.00000 1320.75804 0.00076
30.39032 1246.00000 1313.26906 0.00080
30.40032 1242.00000 1306.06035 0.00081
30.41032 1216.00000 1299.12286 0.00082
30.42032 1204.00000 1292.44735 0.00083
30.43032 1201.00000 1286.02448 0.00083
30.44032 1257.00000 1279.84489 0.00080
30.45032 1184.00000 1273.89928 0.00084
30.46032 1222.00000 1268.17845 0.00082
30.47032 1213.00000 1262.67334 0.00082
30.48032 1174.00000 1257.37509 0.00085
30.49032 1146.00000 1252.27501 0.00087
30.50032 1227.00000 1247.36466 0.00081
30.51032 1237.00000 1242.63586 0.00081
30.52032 1143.00000 1238.08067 0.00087
30.53032 1260.00000 1233.69140 0.00079
30.54032 1222.00000 1229.46065 0.00082
30.55032 1190.00000 1225.38130 0.00084
30.56032 1225.00000 1221.44648 0.00082
30.57032 1185.00000 1217.64962 0.00084
30.58032 1220.00000 1213.98438 0.00082
30.59032 1219.00000 1210.44474 0.00082
30.60032 1212.00000 1207.02489 0.00083
30.61032 1146.00000 1203.71932 0.00087
30.62032 1142.00000 1200.52274 0.00088
30.63032 1187.00000 1197.43012 0.00084
30.64032 1155.00000 1194.43665 0.00087
30.65032 1192.00000 1191.53778 0.00084
30.66032 1194.00000 1188.72915 0.00084
30.67032 1169.00000 1186.00663 0.00086
30.68032 1206.00000 1183.36630 0.00083
30.69032 1177.00000 1180.80443 0.00085
30.70032 1207.00000 1178.31747 0.00083
30.71032 1180.00000 1175.90209 0.00085
30.72032 1160.00000 1173.55509 0.00086
30.73032 1168.00000 1171.27347 0.00086
30.74032 1220.00000 1169.05437 0.00082
30.75032 1132.00000 1166.89510 0.00088
30.76032 1163.00000 1164.79310 0.00086
30.77032 1232.00000 1162.74594 0.00081
30.78032 1200.00000 1160.75135 0.00083
30.79033 1157.00000 1158.80524 0.00086
30.80033 1134.00000 1156.90946 0.00088
30.81033 1183.00000 1155.06009 0.00085
30.82033 1167.00000 1153.25532 0.00086
30.83033 1147.00000 1151.49342 0.00087
30.84033 1155.00000 1149.77276 0.00087
30.85033 1150.00000 1148.09178 0.00087
30.86033 1249.00000 1146.44904 0.00080
30.87033 1213.00000 1144.84316 0.00082
30.88033 1169.00000 1143.27283 0.00086
30.89033 1067.00000 1141.73682 0.00094
30.90033 1132.00000 1140.23397 0.00088
30.91033 1159.00000 1138.76317 0.00086
30.92033 1196.00000 1137.32339 0.00084
30.93033 1160.00000 1135.91363 0.00086
30.94033 1158.00000 1134.53298 0.00086
30.95033 1146.00000 1133.18054 0.00087
30.96033 1177.00000 1131.85549 0.00085
30.97033 1134.00000 1130.55705 0.00088
30.98033 1170.00000 1129.28446 0.00085
30.99033 1158.00000 1128.03702 0.00086
31.00033 1116.00000 1126.81408 0.00090
31.01033 1170.00000 1125.61500 0.00085
31.02033 1161.00000 1124.43919 0.00086
31.03033 1154.00000 1123.28610 0.00087
31.04033 1119.00000 1122.15519 0.00089
31.05033 1110.00000 1121.04597 0.00090
31.06033 1113.00000 1119.95798 0.00090
31.07033 1116.00000 1118.89076 0.00090
31.08033 1155.00000 1117.84392 0.00087
31.09033 1144.00000 1116.81707 0.00087
31.10033 1167.00000 1115.80983 0.00086
31.11033 1159.00000 1114.82189 0.00086
31.12033 1128.00000 1113.85287 0.00089
31.13033 1210.00000 1112.90241 0.00083
31.14033 1180.00000 1111.97017 0.00085
31.15033 1139.00000 1111.05579 0.00088
31.16033 1126.00000 1110.15894 0.00089
31.17033 1105.00000 1109.27927 0.00090
31.18033 1166.00000 1108.41643 0.00086
31.19033 1133.00000 1107.57005 0.00088
31.20033 1126.00000 1106.73972 0.00089
31.21033 1118.00000 1105.92499 0.00089
31.22034 1128.00000 1105.12446 0.00089
31.23034 1134.00000 1104.33907 0.00088
31.24034 1130.00000 1103.56715 0.00088
31.25034 1130.00000 1102.80751 0.00088
31.26034 1164.00000 1102.05848 0.00086
31.27034 1078.00000 1101.31710 0.00093
31.28034 1156.00000 1100.57819 0.00087
31.29034 1128.00000 1099.83144 0.00089
31.30034 1141.00000 1099.04286 0.00088
31.31034 1136.00000 1098.21085 0.00088
31.32034 1123.00000 1097.57241 0.00089
31.33034 1132.00000 1096.94032 0.00088
31.34034 1131.00000 1096.34612 0.00088
31.35034 1175.00000 1095.76651 0.00085
31.36034 1138.00000 1095.20095 0.00088
31.37034 1079.00000 1094.64866 0.00093
31.38034 1082.00000 1094.10829 0.00092
31.39034 1150.00000 1093.57753 0.00087
31.40034 1136.00000 1093.05249 0.00088
31.41034 1099.00000 1092.52544 0.00091
31.42034 1147.00000 1091.97262 0.00087
31.43034 1122.00000 1091.38068 0.00089
31.44034 1165.00000 1090.88752 0.00086
31.45034 1130.00000 1090.48615 0.00088
31.46034 1132.00000 1090.12417 0.00088
31.47034 1092.00000 1089.78275 0.00092
31.48034 1139.00000 1089.46234 0.00088
31.49034 1131.00000 1089.16347 0.00088
31.50034 1092.00000 1088.88667 0.00092
31.51034 1095.00000 1088.63253 0.00091
31.52034 1141.00000 1088.40166 0.00088
31.53034 1140.00000 1088.19474 0.00088
31.54034 1126.00000 1088.01248 0.00089
31.55034 1157.00000 1087.85562 0.00086
31.56034 1136.00000 1087.72500 0.00088
31.57034 1091.00000 1087.62146 0.00092
31.58034 1026.00000 1087.54593 0.00097
31.59034 1140.00000 1087.49940 0.00088
31.60034 1072.00000 1087.48291 0.00093
31.61034 1122.00000 1087.49758 0.00089
31.62034 1111.00000 1087.54460 0.00090
31.63034 1132.00000 1087.62525 0.00088
31.64034 1065.00000 1087.74087 0.00094
31.65034 1133.00000 1087.89293 0.00088
31.66035 1113.00000 1088.08316 0.00090
31.67035 1081.00000 1088.31286 0.00093
31.68035 1086.00000 1088.58395 0.00092
31.69035 1131.00000 1088.89829 0.00088
31.70035 1110.00000 1089.25780 0.00090
31.71035 1151.00000 1089.66455 0.00087
31.72035 1120.00000 1090.12072 0.00089
31.73035 1139.00000 1090.62869 0.00088
31.74035 1108.00000 1091.19092 0.00090
31.75035 1121.00000 1091.81011 0.00089
31.76035 1157.00000 1092.48907 0.00086
31.77035 1119.00000 1093.23084 0.00089
31.78035 1121.00000 1094.03862 0.00089
31.79035 1164.00000 1094.91577 0.00086
31.80035 1154.00000 1095.86584 0.00087
31.81035 1167.00000 1096.89250 0.00086
31.82035 1110.00000 1097.99940 0.00090
31.83035 1070.00000 1099.19008 0.00093
31.84035 1130.00000 1100.46695 0.00088
31.85035 1101.00000 1101.83024 0.00091
31.86035 1128.00000 1103.27458 0.00089
31.87035 1135.00000 1104.76566 0.00088
31.88035 1211.00000 1106.31265 0.00083
31.89035 1096.00000 1108.22543 0.00091
31.90035 1084.00000 1110.25987 0.00092
31.91035 1165.00000 1112.48044 0.00086
31.92035 1156.00000 1114.87301 0.00087
31.93035 1130.00000 1117.45250 0.00088
31.94035 1067.00000 1120.23562 0.00094
31.95035 1109.00000 1123.24116 0.00090
31.96035 1207.00000 1126.49025 0.00083
31.97035 1196.00000 1130.00661 0.00084
31.98035 1220.00000 1133.81692 0.00082
31.99035 1168.00000 1137.95113 0.00086
32.00035 1187.00000 1142.44280 0.00084
32.01035 1213.00000 1147.32946 0.00082
32.02035 1188.00000 1152.65298 0.00084
32.03035 1193.00000 1158.45992 0.00084
32.04035 1191.00000 1164.80184 0.00084
32.05035 1221.00000 1171.73563 0.00082
32.06035 1219.00000 1179.32371 0.00082
32.07035 1238.00000 1187.63425 0.00081
32.08035 1248.00000 1196.74123 0.00080
32.09035 1237.00000 1206.72447 0.00081
32.10035 1217.00000 1217.66942 0.00082
32.11036 1275.00000 1229.67911 0.00078
32.12035 1284.00000 1242.81270 0.00078
32.13036 1225.00000 1257.22127 0.00082
32.14035 1306.00000 1272.95196 0.00077
32.15036 1288.00000 1290.17128 0.00078
32.16035 1323.00000 1308.91789 0.00076
32.17036 1336.00000 1329.36910 0.00075
32.18036 1359.00000 1351.56813 0.00074
32.19036 1358.00000 1375.62754 0.00074
32.20036 1407.00000 1401.63047 0.00071
32.21036 1434.00000 1429.64539 0.00070
32.22036 1412.00000 1459.72091 0.00071
32.23036 1524.00000 1491.87969 0.00066
32.24036 1553.00000 1526.11121 0.00064
32.25036 1553.00000 1562.36340 0.00064
32.26036 1622.00000 1600.53306 0.00062
32.27036 1741.00000 1640.45519 0.00057
32.28036 1777.00000 1681.89131 0.00056
32.29036 1765.00000 1724.51730 0.00057
32.30036 1840.00000 1767.91159 0.00054
32.31036 1898.00000 1811.54462 0.00053
32.32036 1948.00000 1854.77176 0.00051
32.33036 2070.00000 1896.83159 0.00048
32.34036 2009.00000 1936.85280 0.00050
32.35036 2197.00000 1973.87244 0.00046
32.36036 2205.00000 2006.86850 0.00045
32.37036 2310.00000 2034.80802 0.00043
32.38036 2178.00000 2056.70981 0.00046
32.39036 2229.00000 2071.71755 0.00045
32.40036 2332.00000 2079.17518 0.00043
32.41036 2281.00000 2078.69364 0.00044
32.42036 2260.00000 2070.19723 0.00044
32.43036 2308.00000 2053.93988 0.00043
32.44036 2236.00000 2030.48669 0.00045
32.45036 2106.00000 2000.66316 0.00047
32.46036 2066.00000 1965.48089 0.00048
32.47036 2124.00000 1926.05232 0.00047
32.48036 2104.00000 1883.50797 0.00048
32.49036 2044.00000 1838.92662 0.00049
32.50036 1942.00000 1793.28450 0.00051
32.51036 1937.00000 1747.42493 0.00052
32.52036 1874.00000 1702.04616 0.00053
32.53036 1795.00000 1657.70334 0.00056
32.54036 1730.00000 1614.81972 0.00058
32.55037 1628.00000 1573.66222 0.00061
32.56036 1619.00000 1534.56358 0.00062
32.57037 1603.00000 1497.49534 0.00062
32.58036 1491.00000 1462.67531 0.00067
32.59037 1460.00000 1429.97845 0.00068
32.60036 1451.00000 1399.51725 0.00069
32.61037 1440.00000 1371.11688 0.00069
32.62037 1383.00000 1344.79629 0.00072
32.63037 1383.00000 1320.43844 0.00072
32.64037 1370.00000 1297.94564 0.00073
32.65037 1354.00000 1277.21318 0.00074
32.66037 1285.00000 1258.13229 0.00078
32.67037 1310.00000 1240.59259 0.00076
32.68037 1271.00000 1224.48398 0.00079
32.69037 1326.00000 1209.69825 0.00075
32.70037 1230.00000 1196.13028 0.00081
32.71037 1279.00000 1183.67908 0.00078
32.72037 1208.00000 1172.24851 0.00083
32.73037 1223.00000 1161.74780 0.00082
32.74037 1214.00000 1152.09201 0.00082
32.75037 1166.00000 1143.20214 0.00086
32.76037 1218.00000 1135.00527 0.00082
32.77037 1162.00000 1127.43452 0.00086
32.78037 1225.00000 1120.42884 0.00082
32.79037 1167.00000 1113.93288 0.00086
32.80037 1091.00000 1107.89664 0.00092
32.81037 1186.00000 1102.27514 0.00084
32.82037 1143.00000 1097.02812 0.00087
32.83037 1091.00000 1092.11961 0.00092
32.84037 1154.00000 1087.51755 0.00087
32.85037 1123.00000 1083.19345 0.00089
32.86037 1114.00000 1079.12202 0.00090
32.87037 1090.00000 1075.28079 0.00092
32.88037 1142.00000 1071.64983 0.00088
32.89037 1112.00000 1068.21144 0.00090
32.90037 1143.00000 1064.94989 0.00087
32.91037 1094.00000 1061.85116 0.00091
32.92037 1085.00000 1058.90273 0.00092
32.93037 1017.00000 1056.09340 0.00098
32.94037 1091.00000 1053.41312 0.00092
32.95037 1135.00000 1050.85284 0.00088
32.96037 1112.00000 1048.40437 0.00090
32.97038 1042.00000 1046.05799 0.00096
32.98037 1050.00000 1043.81392 0.00095
32.99038 1099.00000 1041.65690 0.00091
33.00037 1026.00000 1039.59005 0.00097
33.01038 1057.00000 1037.59980 0.00095
33.02037 1059.00000 1035.68947 0.00094
33.03038 1089.00000 1033.84691 0.00092
33.04037 1068.00000 1032.07554 0.00094
33.05038 1135.00000 1030.36441 0.00088
33.06038 1034.00000 1028.71532 0.00097
33.07038 1076.00000 1027.12327 0.00093
33.08038 1067.00000 1025.58523 0.00094
33.09038 1096.00000 1024.09839 0.00091
33.10038 1048.00000 1022.66018 0.00095
33.11038 1048.00000 1021.26831 0.00095
33.12038 1045.00000 1019.92080 0.00096
33.13038 1045.00000 1018.61590 0.00096
33.14038 1016.00000 1017.35210 0.00098
33.15038 1069.00000 1016.12816 0.00094
33.16038 1070.00000 1014.94325 0.00093
33.17038 1062.00000 1013.79699 0.00094
33.18038 1038.00000 1012.68966 0.00096
33.19038 1064.00000 1011.62271 0.00094
33.20038 1054.00000 1010.59992 0.00095
33.21038 1016.00000 1009.63105 0.00098
33.22038 1033.00000 1008.74693 0.00097
33.23038 1023.00000 1007.98659 0.00098
33.24038 1031.00000 1007.21758 0.00097
33.25038 1065.00000 1006.31262 0.00094
33.26038 998.00000 1005.40307 0.00100
33.27038 1050.00000 1004.51557 0.00095
33.28038 1037.00000 1003.64924 0.00096
33.29038 1079.00000 1002.80324 0.00093
33.30038 1036.00000 1001.97678 0.00097
33.31038 1037.00000 1001.16911 0.00096
33.32038 1008.00000 1000.37951 0.00099
33.33038 1008.00000 999.60730 0.00099
33.34038 1004.00000 998.85185 0.00100
33.35038 1027.00000 998.11254 0.00097
33.36038 1013.00000 997.38879 0.00099
33.37038 1029.00000 996.68004 0.00097
33.38038 1081.00000 995.98579 0.00093
33.39038 1079.00000 995.30551 0.00093
33.40038 1046.00000 994.63875 0.00096
33.41039 1007.00000 993.98438 0.00099
33.42038 1058.00000 993.34394 0.00095
33.43039 997.00000 992.71443 0.00100
33.44038 1055.00000 992.09799 0.00095
33.45039 1063.00000 991.49176 0.00094
33.46038 1025.00000 990.89782 0.00098
33.47039 1034.00000 990.31343 0.00097
33.48038 1022.00000 989.74062 0.00098
33.49039 991.00000 989.17677 0.00101
33.50039 1014.00000 988.62329 0.00099
33.51039 1041.00000 988.07933 0.00096
33.52039 1017.00000 987.54461 0.00098
33.53039 1010.00000 987.01887 0.00099
33.54039 1043.00000 986.50186 0.00096
33.55039 1002.00000 985.99334 0.00100
33.56039 1019.00000 985.49308 0.00098
33.57039 1013.00000 985.00087 0.00099
33.58039 1030.00000 984.51648 0.00097
33.59039 993.00000 984.03972 0.00101
33.60039 1001.00000 983.57039 0.00100
33.61039 1008.00000 983.10831 0.00099
33.62039 1016.00000 982.65330 0.00098
33.63039 994.00000 982.20518 0.00101
33.64039 971.00000 981.76379 0.00103
33.65039 1035.00000 981.32898 0.00097
33.66039 997.00000 980.90059 0.00100
33.67039 1011.00000 980.47847 0.00099
33.68039 992.00000 980.06248 0.00101
33.69039 1056.00000 979.65250 0.00095
33.70039 1012.00000 979.24839 0.00099
33.71039 1031.00000 978.85002 0.00097
33.72039 1032.00000 978.45727 0.00097
33.73039 1014.00000 978.07004 0.00099
33.74039 1023.00000 977.68820 0.00098
33.75039 1043.00000 977.31166 0.00096
33.76039 1003.00000 976.94030 0.00100
33.77039 1019.00000 976.57404 0.00098
33.78039 1014.00000 976.21277 0.00099
33.79039 1034.00000 975.85640 0.00097
33.80039 1024.00000 975.50485 0.00098
33.81039 1061.00000 975.15803 0.00094
33.82039 1040.00000 974.81585 0.00096
33.83039 998.00000 974.47825 0.00100
33.84039 1068.00000 974.14514 0.00094
33.85040 1028.00000 973.81613 0.00097
33.86039 1011.00000 973.49212 0.00099
33.87040 1025.00000 973.17175 0.00098
33.88039 1073.00000 972.85623 0.00093
33.89040 968.00000 972.54424 0.00103
33.90039 1030.00000 972.23696 0.00097
33.91040 1031.00000 971.93312 0.00097
33.92039 1009.00000 971.63385 0.00099
33.93040 1003.00000 971.33792 0.00100
33.94040 1011.00000 971.04616 0.00099
33.95040 1008.00000 970.75824 0.00099
33.96040 994.00000 970.47408 0.00101
33.97040 1021.00000 970.19367 0.00098
33.98040 969.00000 969.91694 0.00103
33.99040 996.00000 969.64386 0.00100
34.00040 1034.00000 969.37439 0.00097
34.01040 1001.00000 969.10848 0.00100
34.02040 1037.00000 968.84611 0.00096
34.03040 1038.00000 968.58723 0.00096
34.04040 994.00000 968.33181 0.00101
34.05040 1000.00000 968.07983 0.00100
34.06040 1024.00000 967.83124 0.00098
34.07040 991.00000 967.58601 0.00101
34.08040 1044.00000 967.34413 0.00096
34.09040 983.00000 967.10556 0.00102
34.10040 987.00000 966.87028 0.00101
34.11040 996.00000 966.63826 0.00100
34.12040 962.00000 966.40948 0.00104
34.13040 933.00000 966.18392 0.00107
34.14040 1020.00000 965.96155 0.00098
34.15040 967.00000 965.74237 0.00103
34.16040 994.00000 965.52634 0.00101
34.17040 969.00000 965.31346 0.00103
34.18040 971.00000 965.10370 0.00103
34.19040 939.00000 964.89706 0.00106
34.20040 994.00000 964.69352 0.00101
34.21040 974.00000 964.49306 0.00103
34.22040 949.00000 964.29568 0.00105
34.23040 1041.00000 964.10136 0.00096
34.24040 1005.00000 963.91010 0.00100
34.25040 987.00000 963.72191 0.00101
34.26040 984.00000 963.53678 0.00102
34.27040 1064.00000 963.35474 0.00094
34.28040 1013.00000 963.17582 0.00099
34.29041 971.00000 962.99986 0.00103
34.30040 998.00000 962.82744 0.00100
34.31041 981.00000 962.65794 0.00102
34.32040 989.00000 962.49215 0.00101
34.33041 994.00000 962.32958 0.00101
34.34040 955.00000 962.17120 0.00105
34.35041 997.00000 962.01715 0.00100
34.36040 993.00000 961.87050 0.00101
34.37041 984.00000 961.73182 0.00102
34.38041 988.00000 961.58622 0.00101
34.39041 990.00000 961.44068 0.00101
34.40041 1016.00000 961.29802 0.00098
34.41041 990.00000 961.15842 0.00101
34.42041 982.00000 961.02189 0.00102
34.43041 946.00000 960.88844 0.00106
34.44041 969.00000 960.75808 0.00103
34.45041 979.00000 960.63084 0.00102
34.46041 1040.00000 960.50672 0.00096
34.47041 1010.00000 960.38573 0.00099
34.48041 965.00000 960.26790 0.00104
34.49041 1006.00000 960.15324 0.00099
34.50041 954.00000 960.04178 0.00105
34.51041 983.00000 959.93353 0.00102
34.52041 965.00000 959.82851 0.00104
34.53041 926.00000 959.72675 0.00108
34.54041 1002.00000 959.62827 0.00100
34.55041 1009.00000 959.53310 0.00099
34.56041 972.00000 959.44127 0.00103
34.57041 981.00000 959.35280 0.00102
34.58041 970.00000 959.26772 0.00103
34.59041 1003.00000 959.18607 0.00100
34.60041 949.00000 959.10788 0.00105
34.61041 1006.00000 959.03319 0.00099
34.62041 1006.00000 958.96202 0.00099
34.63041 975.00000 958.89442 0.00103
34.64041 958.00000 958.83043 0.00104
34.65041 972.00000 958.77008 0.00103
34.66041 982.00000 958.71345 0.00102
34.67041 971.00000 958.66067 0.00103
34.68041 986.00000 958.61201 0.00101
34.69041 1008.00000 958.56775 0.00099
34.70041 980.00000 958.52826 0.00102
34.71041 966.00000 958.49399 0.00104
34.72041 991.00000 958.46550 0.00101
34.73042 1004.00000 958.44350 0.00100
34.74041 986.00000 958.42900 0.00101
34.75042 977.00000 958.42323 0.00102
34.76041 969.00000 958.42809 0.00103
34.77042 980.00000 958.44649 0.00102
34.78041 1002.00000 958.48330 0.00100
34.79042 999.00000 958.54893 0.00100
34.80042 992.00000 958.67030 0.00101
34.81042 972.00000 958.88867 0.00103
34.82042 959.00000 959.11512 0.00104
34.83042 975.00000 959.16699 0.00103
34.84042 951.00000 959.19410 0.00105
34.85042 939.00000 959.22627 0.00106
34.86042 987.00000 959.26359 0.00101
34.87042 1015.00000 959.30617 0.00099
34.88042 966.00000 959.35410 0.00104
34.89042 950.00000 959.40750 0.00105
34.90042 1006.00000 959.46648 0.00099
34.91042 965.00000 959.53116 0.00104
34.92042 978.00000 959.60167 0.00102
34.93042 984.00000 959.67812 0.00102
34.94042 1025.00000 959.76066 0.00098
34.95042 960.00000 959.84942 0.00104
34.96042 1011.00000 959.94455 0.00099
34.97042 951.00000 960.04619 0.00105
34.98042 971.00000 960.15450 0.00103
34.99042 1036.00000 960.26965 0.00097
35.00042 967.00000 960.39180 0.00103
35.01042 963.00000 960.52113 0.00104
35.02042 1005.00000 960.65782 0.00100
35.03042 991.00000 960.80207 0.00101
35.04042 980.00000 960.95407 0.00102
35.05042 934.00000 961.11404 0.00107
35.06042 1022.00000 961.28219 0.00098
35.07042 966.00000 961.45875 0.00104
35.08042 944.00000 961.64395 0.00106
35.09042 948.00000 961.83805 0.00105
35.10042 1033.00000 962.04130 0.00097
35.11042 977.00000 962.25397 0.00102
35.12042 963.00000 962.47635 0.00104
35.13042 945.00000 962.70874 0.00106
35.14042 959.00000 962.95143 0.00104
35.15042 972.00000 963.20477 0.00103
35.16042 972.00000 963.46907 0.00103
35.17043 986.00000 963.74500 0.00101
35.18042 968.00000 964.03205 0.00103
35.19043 1007.00000 964.33179 0.00099
35.20042 958.00000 964.64342 0.00104
35.21043 972.00000 964.96861 0.00103
35.22042 989.00000 965.30650 0.00101
35.23043 947.00000 965.65894 0.00106
35.24043 964.00000 966.02535 0.00104
35.25043 958.00000 966.40662 0.00104
35.26043 961.00000 966.80327 0.00104
35.27043 942.00000 967.21586 0.00106
35.28043 947.00000 967.64500 0.00106
35.29043 1015.00000 968.09130 0.00099
35.30043 990.00000 968.55540 0.00101
35.31043 967.00000 969.03799 0.00103
35.32043 1026.00000 969.53977 0.00097
35.33043 964.00000 970.06149 0.00104
35.34043 951.00000 970.60392 0.00105
35.35043 1007.00000 971.16787 0.00099
35.36043 964.00000 971.75420 0.00104
35.37043 958.00000 972.36378 0.00104
35.38043 1007.00000 972.99756 0.00099
35.39043 972.00000 973.65648 0.00103
35.40043 988.00000 974.34157 0.00101
35.41043 969.00000 975.05387 0.00103
35.42043 1010.00000 975.79448 0.00099
35.43043 1012.00000 976.56455 0.00099
35.44043 932.00000 977.36525 0.00107
35.45043 953.00000 978.19783 0.00105
35.46043 998.00000 979.06356 0.00100
35.47043 975.00000 979.96380 0.00103
35.48043 1013.00000 980.89991 0.00099
35.49043 900.00000 981.87333 0.00111
35.50043 972.00000 982.88555 0.00103
35.51043 950.00000 983.93810 0.00105
35.52043 960.00000 985.03257 0.00104
35.53043 1001.00000 986.17058 0.00100
35.54043 938.00000 987.35382 0.00107
35.55043 973.00000 988.58401 0.00103
35.56043 977.00000 989.86291 0.00102
35.57043 967.00000 991.19234 0.00103
35.58043 1010.00000 992.57412 0.00099
35.59044 988.00000 994.01160 0.00101
35.60043 1042.00000 995.50224 0.00096
35.61044 1021.00000 997.05394 0.00098
35.62043 984.00000 998.66234 0.00102
35.63044 1012.00000 1000.33583 0.00099
35.64043 960.00000 1002.06950 0.00104
35.65044 1030.00000 1003.87217 0.00097
35.66043 989.00000 1005.73829 0.00101
35.67044 1004.00000 1007.67707 0.00100
35.68044 995.00000 1009.68426 0.00101
35.69044 955.00000 1011.76318 0.00105
35.70044 1037.00000 1013.91501 0.00096
35.71044 971.00000 1016.14077 0.00103
35.72044 1001.00000 1018.44117 0.00100
35.73044 1056.00000 1020.81667 0.00095
35.74044 994.00000 1023.26739 0.00101
35.75044 1021.00000 1025.79306 0.00098
35.76044 1002.00000 1028.39302 0.00100
35.77044 1056.00000 1031.06615 0.00095
35.78044 1059.00000 1033.81089 0.00094
35.79044 1051.00000 1036.62515 0.00095
35.80044 1052.00000 1039.50638 0.00095
35.81044 1030.00000 1042.45154 0.00097
35.82044 1056.00000 1045.45712 0.00095
35.83044 1023.00000 1048.51924 0.00098
35.84044 1037.00000 1051.63370 0.00096
35.85044 1048.00000 1054.79609 0.00095
35.86044 1110.00000 1058.00195 0.00090
35.87044 1098.00000 1061.24694 0.00091
35.88044 1072.00000 1064.52705 0.00093
35.89044 1087.00000 1067.83884 0.00092
35.90044 1088.00000 1071.17966 0.00092
35.91044 1099.00000 1074.54800 0.00091
35.92044 1106.00000 1077.94368 0.00090
35.93044 1079.00000 1081.36819 0.00093
35.94044 1127.00000 1084.82490 0.00089
35.95044 1114.00000 1088.31930 0.00090
35.96044 1129.00000 1091.85918 0.00089
35.97044 1143.00000 1095.45475 0.00087
35.98044 1102.00000 1099.11872 0.00091
35.99044 1115.00000 1102.86627 0.00090
36.00044 1174.00000 1106.71506 0.00085
36.01044 1212.00000 1110.68504 0.00083
36.02044 1147.00000 1114.79835 0.00087
36.03045 1154.00000 1119.08355 0.00087
36.04044 1166.00000 1123.55296 0.00086
36.05045 1102.00000 1128.25229 0.00091
36.06044 1161.00000 1133.19065 0.00086
36.07045 1165.00000 1138.41785 0.00086
36.08044 1119.00000 1143.94248 0.00089
36.09045 1152.00000 1149.81798 0.00087
36.10044 1110.00000 1156.05100 0.00090
36.11045 1129.00000 1162.69825 0.00089
36.12045 1206.00000 1169.77072 0.00083
36.13045 1149.00000 1177.30564 0.00087
36.14045 1139.00000 1185.33317 0.00088
36.15045 1161.00000 1193.88290 0.00086
36.16045 1189.00000 1202.98359 0.00084
36.17045 1142.00000 1212.66301 0.00088
36.18045 1191.00000 1222.94765 0.00084
36.19045 1169.00000 1233.86242 0.00086
36.20045 1250.00000 1245.43022 0.00080
36.21045 1199.00000 1257.67149 0.00083
36.22045 1209.00000 1270.60363 0.00083
36.23045 1263.00000 1284.24028 0.00079
36.24045 1287.00000 1298.59051 0.00078
36.25045 1303.00000 1313.65779 0.00077
36.26045 1269.00000 1329.43886 0.00079
36.27045 1303.00000 1345.92242 0.00077
36.28045 1291.00000 1363.08760 0.00077
36.29045 1258.00000 1380.90236 0.00079
36.30045 1394.00000 1399.32167 0.00072
36.31045 1325.00000 1418.28567 0.00075
36.32045 1412.00000 1437.71772 0.00071
36.33045 1439.00000 1457.52263 0.00069
36.34045 1436.00000 1477.58498 0.00070
36.35045 1499.00000 1497.76782 0.00067
36.36045 1591.00000 1517.91185 0.00063
36.37045 1495.00000 1537.83538 0.00067
36.38045 1582.00000 1557.33515 0.00063
36.39045 1516.00000 1576.18832 0.00066
36.40045 1675.00000 1594.15575 0.00060
36.41045 1738.00000 1610.98679 0.00058
36.42045 1767.00000 1626.42543 0.00057
36.43045 1748.00000 1640.21786 0.00057
36.44045 1706.00000 1652.12119 0.00059
36.45045 1750.00000 1661.91280 0.00057
36.46045 1849.00000 1669.39989 0.00054
36.47046 1846.00000 1674.43110 0.00054
36.48045 1850.00000 1676.89131 0.00054
36.49046 1815.00000 1676.73068 0.00055
36.50045 1775.00000 1673.95540 0.00056
36.51046 1847.00000 1668.60680 0.00054
36.52045 1804.00000 1660.82133 0.00055
36.53046 1816.00000 1650.72305 0.00055
36.54045 1750.00000 1638.55621 0.00057
36.55046 1747.00000 1624.50111 0.00057
36.56046 1720.00000 1608.85384 0.00058
36.57046 1714.00000 1591.86675 0.00058
36.58046 1634.00000 1573.80900 0.00061
36.59046 1667.00000 1554.94444 0.00060
36.60046 1607.00000 1535.52509 0.00062
36.61046 1581.00000 1515.78615 0.00063
36.62046 1541.00000 1495.94293 0.00065
36.63046 1441.00000 1476.18930 0.00069
36.64046 1493.00000 1456.69747 0.00067
36.65046 1482.00000 1437.61911 0.00067
36.66046 1365.00000 1419.08721 0.00073
36.67046 1404.00000 1401.21882 0.00071
36.68046 1310.00000 1384.11746 0.00076
36.69046 1320.00000 1367.87461 0.00076
36.70046 1294.00000 1352.56932 0.00077
36.71046 1252.00000 1338.24072 0.00080
36.72046 1248.00000 1324.97932 0.00080
36.73046 1245.00000 1313.31305 0.00080
36.74046 1237.00000 1303.09739 0.00081
36.75046 1244.00000 1294.52065 0.00080
36.76046 1275.00000 1287.71259 0.00078
36.77046 1232.00000 1282.87607 0.00081
36.78046 1181.00000 1280.24001 0.00085
36.79046 1194.00000 1280.05757 0.00084
36.80046 1181.00000 1282.60153 0.00085
36.81046 1212.00000 1288.15625 0.00083
36.82046 1203.00000 1297.00606 0.00083
36.83046 1214.00000 1309.41956 0.00082
36.84046 1215.00000 1325.63011 0.00082
36.85046 1209.00000 1345.81272 0.00083
36.86046 1256.00000 1370.05813 0.00080
36.87046 1357.00000 1398.34490 0.00074
36.88046 1300.00000 1430.51074 0.00077
36.89046 1328.00000 1466.22416 0.00075
36.90046 1364.00000 1504.95725 0.00073
36.91047 1423.00000 1546.00301 0.00070
36.92046 1476.00000 1588.24275 0.00068
36.93047 1403.00000 1630.59500 0.00071
36.94046 1496.00000 1671.38183 0.00067
36.95047 1617.00000 1709.01095 0.00062
36.96046 1612.00000 1741.40273 0.00062
36.97047 1647.00000 1766.67737 0.00061
36.98046 1656.00000 1782.85646 0.00060
36.99047 1662.00000 1788.46926 0.00060
37.00047 1701.00000 1782.58242 0.00059
37.01047 1674.00000 1765.11739 0.00060
37.02047 1662.00000 1736.86548 0.00060
37.03047 1635.00000 1699.38149 0.00061
37.04047 1565.00000 1654.72577 0.00064
37.05047 1559.00000 1605.15142 0.00064
37.06047 1556.00000 1552.82974 0.00064
37.07047 1585.00000 1499.66848 0.00063
37.08047 1437.00000 1447.22862 0.00070
37.09047 1361.00000 1396.71429 0.00073
37.10047 1289.00000 1349.00274 0.00078
37.11047 1276.00000 1304.68944 0.00078
37.12047 1237.00000 1264.13417 0.00081
37.13047 1231.00000 1227.50299 0.00081
37.14047 1150.00000 1194.80518 0.00087
37.15047 1133.00000 1165.92633 0.00088
37.16047 1152.00000 1140.65831 0.00087
37.17047 1121.00000 1118.72663 0.00089
37.18047 1100.00000 1099.81502 0.00091
37.19047 1140.00000 1083.58699 0.00088
37.20047 1121.00000 1069.70376 0.00089
37.21047 1090.00000 1057.83846 0.00092
37.22047 1078.00000 1047.68653 0.00093
37.23047 1029.00000 1038.97248 0.00097
37.24047 1081.00000 1031.45351 0.00093
37.25047 1011.00000 1024.92046 0.00099
37.26047 1053.00000 1019.19679 0.00095
37.27047 1046.00000 1014.13613 0.00096
37.28047 1025.00000 1009.61899 0.00098
37.29047 1043.00000 1005.54912 0.00096
37.30047 999.00000 1001.84973 0.00100
37.31047 1091.00000 998.46003 0.00092
37.32047 1077.00000 995.33207 0.00093
37.33047 1057.00000 992.42803 0.00095
37.34047 1024.00000 989.71798 0.00098
37.35048 1047.00000 987.17561 0.00096
37.36047 1044.00000 984.78895 0.00096
37.37048 1048.00000 982.53283 0.00095
37.38047 1003.00000 980.40310 0.00100
37.39048 1010.00000 978.38033 0.00099
37.40047 1070.00000 976.46308 0.00093
37.41048 986.00000 974.63560 0.00101
37.42048 1021.00000 972.89625 0.00098
37.43048 983.00000 971.23680 0.00102
37.44048 1003.00000 969.65157 0.00100
37.45048 995.00000 968.13542 0.00101
37.46048 989.00000 966.68370 0.00101
37.47048 969.00000 965.29219 0.00103
37.48048 1025.00000 963.95705 0.00098
37.49048 985.00000 962.67474 0.00102
37.50048 980.00000 961.44203 0.00102
37.51048 984.00000 960.25596 0.00102
37.52048 968.00000 959.11379 0.00103
37.53048 907.00000 958.01300 0.00110
37.54048 995.00000 956.95125 0.00101
37.55048 961.00000 955.92638 0.00104
37.56048 969.00000 954.93641 0.00103
37.57048 984.00000 953.97945 0.00102
37.58048 965.00000 953.05381 0.00104
37.59048 928.00000 952.15785 0.00108
37.60048 961.00000 951.29010 0.00104
37.61048 929.00000 950.44914 0.00108
37.62048 949.00000 949.63367 0.00105
37.63048 956.00000 948.84247 0.00105
37.64048 1014.00000 948.07439 0.00099
37.65048 967.00000 947.32836 0.00103
37.66048 986.00000 946.60337 0.00101
37.67048 949.00000 945.89848 0.00105
37.68048 920.00000 945.21279 0.00109
37.69048 949.00000 944.54546 0.00105
37.70048 973.00000 943.89570 0.00103
37.71048 918.00000 943.26278 0.00109
37.72048 916.00000 942.64597 0.00109
37.73048 958.00000 942.04462 0.00104
37.74048 1012.00000 941.45810 0.00099
37.75048 993.00000 940.88580 0.00101
37.76048 958.00000 940.32718 0.00104
37.77048 1010.00000 939.78168 0.00099
37.78048 946.00000 939.24881 0.00106
37.79049 941.00000 938.72756 0.00106
37.80048 969.00000 938.21903 0.00103
37.81049 933.00000 937.72074 0.00107
37.82048 961.00000 937.23426 0.00104
37.83049 940.00000 936.75726 0.00106
37.84048 926.00000 936.29126 0.00108
37.85049 947.00000 935.83404 0.00106
37.86049 975.00000 935.38665 0.00103
37.87049 995.00000 934.94830 0.00101
37.88049 989.00000 934.51867 0.00101
37.89049 915.00000 934.09746 0.00109
37.90049 952.00000 933.68441 0.00105
37.91049 898.00000 933.27922 0.00111
37.92049 932.00000 932.88164 0.00107
37.93049 947.00000 932.49143 0.00106
37.94049 945.00000 932.10835 0.00106
37.95049 977.00000 931.73215 0.00102
37.96049 926.00000 931.36264 0.00108
37.97049 987.00000 930.99959 0.00101
37.98049 957.00000 930.64281 0.00104
37.99049 951.00000 930.29210 0.00105
38.00049 913.00000 929.94728 0.00110
38.01049 901.00000 929.60816 0.00111
38.02049 936.00000 929.27459 0.00107
38.03049 926.00000 928.94638 0.00108
38.04049 922.00000 928.62339 0.00108
38.05049 952.00000 928.30546 0.00105
38.06049 961.00000 927.99244 0.00104
38.07049 974.00000 927.68420 0.00103
38.08049 948.00000 927.38060 0.00105
38.09049 967.00000 927.08150 0.00103
38.10049 946.00000 926.78678 0.00106
38.11049 946.00000 926.49632 0.00106
38.12049 892.00000 926.21001 0.00112
38.13049 931.00000 925.92772 0.00107
38.14049 921.00000 925.64935 0.00109
38.15049 911.00000 925.37479 0.00110
38.16049 927.00000 925.10395 0.00108
38.17049 882.00000 924.83672 0.00113
38.18049 910.00000 924.57302 0.00110
38.19049 914.00000 924.31274 0.00109
38.20049 915.00000 924.05580 0.00109
38.21049 946.00000 923.80212 0.00106
38.22049 952.00000 923.55160 0.00105
38.23050 894.00000 923.30394 0.00112
38.24049 901.00000 923.05978 0.00111
38.25050 864.00000 922.81808 0.00116
38.26049 884.00000 922.57973 0.00113
38.27050 915.00000 922.34370 0.00109
38.28049 876.00000 922.11088 0.00114
38.29050 842.00000 921.88026 0.00119
38.30050 836.00000 921.65247 0.00120
38.31050 906.00000 921.42721 0.00110
38.32050 932.00000 921.20440 0.00107
38.33050 914.00000 920.98390 0.00109
38.34050 938.00000 920.76558 0.00107
38.35050 915.00000 920.54932 0.00109
38.36050 894.00000 920.33494 0.00112
38.37050 890.00000 920.12234 0.00112
38.38050 870.00000 919.91149 0.00115
38.39050 888.00000 919.70237 0.00113
38.40050 887.00000 919.49502 0.00113
38.41050 866.00000 919.28953 0.00115
38.42050 948.00000 919.08606 0.00105
38.43050 910.00000 918.88494 0.00110
38.44050 903.00000 918.68681 0.00111
38.45050 877.00000 918.49315 0.00114
38.46050 880.00000 918.30795 0.00114
38.47050 906.00000 918.14679 0.00110
38.48050 881.00000 918.01872 0.00114
38.49050 840.00000 917.79967 0.00119
38.50050 846.00000 917.48687 0.00118
38.51050 931.00000 917.22933 0.00107
38.52050 868.00000 917.02921 0.00115
38.53050 811.00000 916.84958 0.00123
38.54050 889.00000 916.67150 0.00112
38.55050 907.00000 916.49495 0.00110
38.56050 910.00000 916.31991 0.00110
38.57050 945.00000 916.14634 0.00106
38.58050 914.00000 915.97423 0.00109
38.59050 852.00000 915.80354 0.00117
38.60050 873.00000 915.63425 0.00115
38.61050 840.00000 915.46635 0.00119
38.62050 878.00000 915.29980 0.00114
38.63050 858.00000 915.13458 0.00117
38.64050 889.00000 914.97067 0.00112
38.65051 887.00000 914.80790 0.00113
38.66050 890.00000 914.64672 0.00112
38.67051 902.00000 914.48648 0.00111
38.68050 899.00000 914.32779 0.00111
38.69051 890.00000 914.17000 0.00112
38.70050 827.00000 914.01373 0.00121
38.71051 885.00000 913.85832 0.00113
38.72050 900.00000 913.70440 0.00111
38.73051 888.00000 913.55132 0.00113
38.74051 839.00000 913.39953 0.00119
38.75051 877.00000 913.24887 0.00114
38.76051 892.00000 913.09932 0.00112
38.77051 911.00000 912.95086 0.00110
38.78051 900.00000 912.80349 0.00111
38.79051 844.00000 912.65720 0.00118
38.80051 887.00000 912.51196 0.00113
38.81051 856.00000 912.36778 0.00117
38.82051 910.00000 912.22464 0.00110
38.83051 891.00000 912.08252 0.00112
38.84051 838.00000 911.94143 0.00119
38.85051 850.00000 911.80135 0.00118
38.86051 886.00000 911.66228 0.00113
38.87051 905.00000 911.52420 0.00110
38.88051 860.00000 911.38711 0.00116
38.89051 854.00000 911.25100 0.00117
38.90051 845.00000 911.11587 0.00118
38.91051 871.00000 910.98171 0.00115
38.92051 858.00000 910.84851 0.00117
38.93051 877.00000 910.71626 0.00114
38.94051 827.00000 910.58498 0.00121
38.95051 907.00000 910.45464 0.00110
38.96051 841.00000 910.32524 0.00119
38.97051 902.00000 910.19679 0.00111
38.98051 863.00000 910.06928 0.00116
38.99051 899.00000 909.94270 0.00111
39.00051 872.00000 909.81705 0.00115
39.01051 868.00000 909.69234 0.00115
39.02051 892.00000 909.56856 0.00112
39.03051 902.00000 909.44571 0.00111
39.04051 911.00000 909.32379 0.00110
39.05051 904.00000 909.20278 0.00111
39.06051 911.00000 909.08258 0.00110
39.07051 879.00000 908.96299 0.00114
39.08051 903.00000 908.84376 0.00111
39.09052 902.00000 908.72449 0.00111
39.10051 858.00000 908.60515 0.00117
39.11052 877.00000 908.48479 0.00114
39.12051 881.00000 908.36326 0.00114
39.13052 871.00000 908.23923 0.00115
39.14051 894.00000 908.11204 0.00112
39.15052 832.00000 907.97945 0.00120
39.16051 889.00000 907.83932 0.00112
39.17052 890.00000 907.68635 0.00112
39.18052 790.00000 907.51110 0.00127
39.19052 884.00000 907.28672 0.00113
39.20052 860.00000 906.97379 0.00116
39.21052 914.00000 906.67858 0.00109
39.22052 891.00000 906.53921 0.00112
39.23052 848.00000 906.44484 0.00118
39.24052 901.00000 906.35439 0.00111
39.25052 934.00000 906.26948 0.00107
39.26052 889.00000 906.19217 0.00112
39.27052 884.00000 906.12536 0.00113
39.28052 904.00000 906.07309 0.00111
39.29052 870.00000 906.04118 0.00115
39.30052 848.00000 906.03860 0.00118
39.31052 866.00000 906.08100 0.00115
39.32052 882.00000 906.20151 0.00113
39.33052 843.00000 906.49343 0.00119
39.34052 900.00000 907.08794 0.00111
39.35052 896.00000 907.64732 0.00112
39.36052 896.00000 907.68234 0.00112
39.37052 866.00000 907.62628 0.00115
39.38052 855.00000 907.57177 0.00117
39.39052 932.00000 907.51886 0.00107
39.40052 859.00000 907.46756 0.00116
39.41052 881.00000 907.41824 0.00114
39.42052 884.00000 907.37201 0.00113
39.43052 884.00000 907.33039 0.00113
39.44052 881.00000 907.29537 0.00114
39.45052 829.00000 907.26949 0.00121
39.46052 910.00000 907.25619 0.00110
39.47052 887.00000 907.26018 0.00113
39.48052 862.00000 907.28802 0.00116
39.49052 902.00000 907.34950 0.00111
39.50052 893.00000 907.46018 0.00112
39.51052 858.00000 907.64856 0.00117
39.52052 881.00000 907.97931 0.00114
39.53053 824.00000 908.65477 0.00121
39.54052 880.00000 909.80510 0.00114
39.55053 949.00000 910.28598 0.00105
39.56052 901.00000 910.34700 0.00111
39.57053 920.00000 910.35867 0.00109
39.58052 852.00000 910.37301 0.00117
39.59053 884.00000 910.39012 0.00113
39.60052 843.00000 910.41000 0.00119
39.61053 835.00000 910.43278 0.00120
39.62053 939.00000 910.45846 0.00106
39.63053 896.00000 910.48714 0.00112
39.64053 910.00000 910.51886 0.00110
39.65053 861.00000 910.55370 0.00116
39.66053 916.00000 910.59172 0.00109
39.67053 866.00000 910.63301 0.00115
39.68053 908.00000 910.67762 0.00110
39.69053 910.00000 910.72563 0.00110
39.70053 877.00000 910.77713 0.00114
39.71053 856.00000 910.83219 0.00117
39.72053 852.00000 910.89088 0.00117
39.73053 897.00000 910.95331 0.00111
39.74053 890.00000 911.01954 0.00112
39.75053 868.00000 911.08968 0.00115
39.76053 858.00000 911.16381 0.00117
39.77053 897.00000 911.24203 0.00111
39.78053 868.00000 911.32444 0.00115
39.79053 934.00000 911.41113 0.00107
39.80053 916.00000 911.50221 0.00109
39.81053 828.00000 911.59779 0.00121
39.82053 888.00000 911.69797 0.00113
39.83053 879.00000 911.80288 0.00114
39.84053 882.00000 911.91263 0.00113
39.85053 898.00000 912.02733 0.00111
39.86053 913.00000 912.14712 0.00110
39.87053 899.00000 912.27213 0.00111
39.88053 932.00000 912.40248 0.00107
39.89053 874.00000 912.53832 0.00114
39.90053 868.00000 912.67979 0.00115
39.91053 879.00000 912.82703 0.00114
39.92053 829.00000 912.98019 0.00121
39.93053 881.00000 913.13944 0.00114
39.94053 842.00000 913.30494 0.00119
39.95053 892.00000 913.47684 0.00112
39.96053 889.00000 913.65534 0.00112
39.97054 833.00000 913.84078 0.00120
39.98053 899.00000 914.03280 0.00111
39.99054 922.00000 914.23236 0.00108
40.00053 846.00000 914.43885 0.00118
40.01054 901.00000 914.65331 0.00111
40.02053 913.00000 914.87510 0.00110
40.03054 861.00000 915.10532 0.00116
40.04053 888.00000 915.34328 0.00113
40.05054 881.00000 915.59018 0.00114
40.06054 876.00000 915.84553 0.00114
40.07054 868.00000 916.10983 0.00115
40.08054 847.00000 916.38335 0.00118
40.09054 828.00000 916.66651 0.00121
40.10054 897.00000 916.96003 0.00111
40.11054 879.00000 917.26492 0.00114
40.12054 894.00000 917.58237 0.00112
40.13054 876.00000 917.91389 0.00114
40.14054 938.00000 918.26140 0.00107
40.15054 886.00000 918.62756 0.00113
40.16054 910.00000 919.01601 0.00110
40.17054 871.00000 919.43223 0.00115
40.18054 894.00000 919.88546 0.00112
40.19054 916.00000 920.39491 0.00109
40.20054 853.00000 921.01503 0.00117
40.21054 858.00000 921.82401 0.00117
40.22054 855.00000 922.62694 0.00117
40.23054 869.00000 923.14384 0.00115
40.24054 894.00000 923.61817 0.00112
40.25054 902.00000 924.10833 0.00111
40.26054 902.00000 924.61486 0.00111
40.27054 916.00000 925.13833 0.00109
40.28054 912.00000 925.67935 0.00110
40.29054 869.00000 926.23856 0.00115
40.30054 916.00000 926.81660 0.00109
40.31054 912.00000 927.41417 0.00110
40.32054 900.00000 928.03200 0.00111
40.33054 898.00000 928.67085 0.00111
40.34054 962.00000 929.33151 0.00104
40.35054 938.00000 930.01483 0.00107
40.36054 891.00000 930.72169 0.00112
40.37054 891.00000 931.45302 0.00112
40.38054 899.00000 932.20978 0.00111
40.39054 858.00000 932.99303 0.00117
40.40054 946.00000 933.80382 0.00106
40.41055 937.00000 934.64418 0.00107
40.42054 836.00000 935.51273 0.00120
40.43055 850.00000 936.41424 0.00118
40.44054 914.00000 937.34645 0.00109
40.45055 873.00000 938.31453 0.00115
40.46054 930.00000 939.31611 0.00108
40.47055 971.00000 940.35683 0.00103
40.48055 936.00000 941.43531 0.00107
40.49055 911.00000 942.55438 0.00110
40.50055 888.00000 943.71598 0.00113
40.51055 930.00000 944.92214 0.00108
40.52055 910.00000 946.17506 0.00110
40.53055 945.00000 947.47706 0.00106
40.54055 962.00000 948.83063 0.00104
40.55055 977.00000 950.23843 0.00102
40.56055 881.00000 951.70330 0.00114
40.57055 924.00000 953.22831 0.00108
40.58055 867.00000 954.81672 0.00115
40.59055 948.00000 956.47207 0.00105
40.60055 930.00000 958.19815 0.00108
40.61055 942.00000 959.99904 0.00106
40.62055 902.00000 961.87916 0.00111
40.63055 943.00000 963.84328 0.00106
40.64055 936.00000 965.89658 0.00107
40.65055 954.00000 968.04465 0.00105
40.66055 924.00000 970.29361 0.00108
40.67055 922.00000 972.65008 0.00108
40.68055 913.00000 975.12132 0.00110
40.69055 985.00000 977.71527 0.00102
40.70055 941.00000 980.44061 0.00106
40.71055 946.00000 983.30695 0.00106
40.72055 1000.00000 986.32487 0.00100
40.73055 973.00000 989.50617 0.00103
40.74055 961.00000 992.86403 0.00104
40.75055 1002.00000 996.41332 0.00100
40.76055 911.00000 1000.17100 0.00110
40.77055 975.00000 1004.15664 0.00103
40.78055 995.00000 1008.39313 0.00101
40.79055 968.00000 1012.90770 0.00103
40.80055 982.00000 1017.73330 0.00102
40.81055 996.00000 1022.91051 0.00100
40.82055 993.00000 1028.49006 0.00101
40.83055 1035.00000 1034.53630 0.00097
40.84055 1006.00000 1041.13171 0.00099
40.85056 1012.00000 1048.39050 0.00099
40.86055 1069.00000 1056.42737 0.00094
40.87056 1091.00000 1065.45357 0.00092
40.88055 1095.00000 1075.66199 0.00091
40.89056 1097.00000 1087.38841 0.00091
40.90055 1069.00000 1100.95642 0.00094
40.91056 1142.00000 1116.88628 0.00088
40.92056 1122.00000 1135.70398 0.00089
40.93056 1152.00000 1158.11366 0.00087
40.94056 1191.00000 1184.93046 0.00084
40.95056 1242.00000 1217.09609 0.00081
40.96056 1296.00000 1255.66968 0.00077
40.97056 1277.00000 1301.80569 0.00078
40.98056 1403.00000 1356.71630 0.00071
40.99056 1475.00000 1421.61601 0.00068
41.00056 1574.00000 1497.64758 0.00064
41.01056 1753.00000 1585.78992 0.00057
41.02056 1850.00000 1686.75056 0.00054
41.03056 1880.00000 1800.84718 0.00053
41.04056 2100.00000 1927.88484 0.00048
41.05056 2262.00000 2067.03670 0.00044
41.06056 2476.00000 2216.73595 0.00040
41.07056 2689.00000 2374.58682 0.00037
41.08056 2838.00000 2537.30120 0.00035
41.09056 2986.00000 2700.66932 0.00033
41.10056 3175.00000 2859.57828 0.00031
41.11056 3435.00000 3008.10444 0.00029
41.12056 3568.00000 3139.72334 0.00028
41.13056 3631.00000 3247.69380 0.00028
41.14056 3683.00000 3325.66161 0.00027
41.15056 3791.00000 3368.46515 0.00026
41.16056 3723.00000 3373.00795 0.00027
41.17056 3685.00000 3338.94167 0.00027
41.18056 3517.00000 3268.88011 0.00028
41.19056 3441.00000 3168.00979 0.00029
41.20056 3311.00000 3043.21739 0.00030
41.21056 3178.00000 2902.04592 0.00031
41.22056 3102.00000 2751.79670 0.00032
41.23056 2866.00000 2598.94497 0.00035
41.24056 2727.00000 2448.86769 0.00037
41.25056 2649.00000 2305.78954 0.00038
41.26056 2503.00000 2172.84478 0.00040
41.27057 2315.00000 2052.07345 0.00043
41.28056 2198.00000 1945.10430 0.00045
41.29057 2040.00000 1852.07426 0.00049
41.30056 1916.00000 1773.29571 0.00052
41.31057 1790.00000 1707.92686 0.00056
41.32056 1747.00000 1655.33209 0.00057
41.33057 1681.00000 1614.17649 0.00059
41.34056 1633.00000 1583.35757 0.00061
41.35057 1625.00000 1561.45117 0.00062
41.36057 1535.00000 1547.25725 0.00065
41.37057 1499.00000 1539.55850 0.00067
41.38057 1497.00000 1537.27846 0.00067
41.39057 1581.00000 1539.47394 0.00063
41.40057 1441.00000 1545.33896 0.00069
41.41057 1505.00000 1554.19881 0.00066
41.42057 1428.00000 1565.49764 0.00070
41.43057 1525.00000 1578.78244 0.00066
41.44057 1464.00000 1593.68605 0.00068
41.45057 1521.00000 1609.91074 0.00066
41.46057 1490.00000 1627.21367 0.00067
41.47057 1570.00000 1645.39525 0.00064
41.48057 1633.00000 1664.29042 0.00061
41.49057 1619.00000 1683.76339 0.00062
41.50057 1630.00000 1703.70547 0.00061
41.51057 1571.00000 1724.03642 0.00064
41.52057 1639.00000 1744.70902 0.00061
41.53057 1754.00000 1765.71914 0.00057
41.54057 1793.00000 1787.12879 0.00056
41.55057 1791.00000 1809.04131 0.00056
41.56057 1868.00000 1831.44557 0.00054
41.57057 1892.00000 1854.67899 0.00053
41.58057 1860.00000 1879.11646 0.00054
41.59057 1907.00000 1905.21815 0.00052
41.60057 1959.00000 1933.56851 0.00051
41.61057 1954.00000 1964.88427 0.00051
41.62057 2076.00000 2000.01722 0.00048
41.63057 2087.00000 2039.94997 0.00048
41.64057 2206.00000 2085.78287 0.00045
41.65057 2138.00000 2138.71053 0.00047
41.66057 2240.00000 2199.98674 0.00045
41.67057 2304.00000 2270.87675 0.00043
41.68057 2406.00000 2352.59700 0.00042
41.69057 2512.00000 2446.24242 0.00040
41.70057 2590.00000 2552.70281 0.00039
41.71058 2738.00000 2672.69281 0.00037
41.72057 2903.00000 2806.03758 0.00034
41.73058 3046.00000 2952.94761 0.00033
41.74057 3190.00000 3111.93553 0.00031
41.75058 3308.00000 3281.99730 0.00030
41.76057 3558.00000 3460.03100 0.00028
41.77058 3697.00000 3643.40443 0.00027
41.78057 3834.00000 3827.09182 0.00026
41.79058 3999.00000 4006.52311 0.00025
41.80058 4110.00000 4174.88399 0.00024
41.81058 4315.00000 4325.29031 0.00023
41.82058 4328.00000 4450.20375 0.00023
41.83058 4360.00000 4542.17675 0.00023
41.84058 4216.00000 4594.63764 0.00024
41.85058 4247.00000 4602.80280 0.00024
41.86058 4227.00000 4564.50955 0.00024
41.87058 4242.00000 4480.70812 0.00024
41.88058 3983.00000 4355.41460 0.00025
41.89058 3860.00000 4195.10749 0.00026
41.90058 3710.00000 4007.75518 0.00027
41.91058 3567.00000 3801.77042 0.00028
41.92058 3364.00000 3585.15001 0.00030
41.93058 3182.00000 3364.92579 0.00031
41.94058 3005.00000 3146.91870 0.00033
41.95058 2935.00000 2935.71187 0.00034
41.96058 2688.00000 2734.74545 0.00037
41.97058 2604.00000 2546.45941 0.00038
41.98058 2358.00000 2372.44216 0.00042
41.99058 2227.00000 2213.56793 0.00045
42.00058 2105.00000 2070.11958 0.00048
42.01058 1991.00000 1941.89955 0.00050
42.02058 1928.00000 1828.33359 0.00052
42.03058 1844.00000 1728.55951 0.00054
42.04058 1713.00000 1641.48299 0.00058
42.05058 1686.00000 1565.92569 0.00059
42.06058 1630.00000 1500.65067 0.00061
42.07058 1541.00000 1444.41655 0.00065
42.08058 1451.00000 1396.02756 0.00069
42.09058 1356.00000 1354.36718 0.00074
42.10058 1391.00000 1318.41989 0.00072
42.11058 1347.00000 1287.28317 0.00074
42.12058 1252.00000 1260.17120 0.00080
42.13058 1178.00000 1236.41220 0.00085
42.14058 1259.00000 1215.44111 0.00079
42.15059 1274.00000 1196.77129 0.00078
42.16058 1220.00000 1180.07296 0.00082
42.17059 1097.00000 1164.96585 0.00091
42.18058 1168.00000 1151.26112 0.00086
42.19059 1138.00000 1138.70144 0.00088
42.20058 1121.00000 1127.17719 0.00089
42.21059 1110.00000 1116.51240 0.00090
42.22058 1112.00000 1106.64737 0.00090
42.23059 1107.00000 1097.45852 0.00090
42.24059 1067.00000 1088.90036 0.00094
42.25059 1114.00000 1080.90144 0.00090
42.26059 1056.00000 1073.41664 0.00095
42.27059 1047.00000 1066.40459 0.00096
42.28059 1068.00000 1059.82837 0.00094
42.29059 997.00000 1053.65526 0.00100
42.30059 987.00000 1047.85587 0.00101
42.31059 1024.00000 1042.40346 0.00098
42.32059 1003.00000 1037.27346 0.00100
42.33059 977.00000 1032.44301 0.00102
42.34059 1080.00000 1027.89063 0.00093
42.35059 1012.00000 1023.59601 0.00099
42.36059 997.00000 1019.53973 0.00100
42.37059 1020.00000 1015.70308 0.00098
42.38059 1015.00000 1012.06794 0.00099
42.39059 984.00000 1008.61668 0.00102
42.40059 983.00000 1005.33202 0.00102
42.41059 984.00000 1002.19701 0.00102
42.42059 999.00000 999.19505 0.00100
42.43059 969.00000 996.30985 0.00103
42.44059 1079.00000 993.52553 0.00093
42.45059 1054.00000 990.82668 0.00095
42.46059 955.00000 988.19850 0.00105
42.47059 995.00000 985.62694 0.00101
42.48059 1023.00000 983.09884 0.00098
42.49059 1016.00000 980.60214 0.00098
42.50059 1011.00000 978.12604 0.00099
42.51059 1033.00000 975.66110 0.00097
42.52059 1060.00000 973.19947 0.00094
42.53059 1031.00000 970.73489 0.00097
42.54059 1000.00000 968.26280 0.00100
42.55059 1041.00000 965.78032 0.00096
42.56059 985.00000 963.28617 0.00102
42.57059 995.00000 960.78064 0.00101
42.58059 988.00000 958.26535 0.00101
42.59060 986.00000 955.74064 0.00101
42.60059 964.00000 953.21782 0.00104
42.61060 995.00000 950.69148 0.00101
42.62059 946.00000 948.17674 0.00106
42.63060 983.00000 945.66904 0.00102
42.64059 967.00000 943.18390 0.00103
42.65060 965.00000 940.71692 0.00104
42.66059 994.00000 938.28323 0.00101
42.67060 979.00000 935.87811 0.00102
42.68060 913.00000 933.51338 0.00110
42.69060 945.00000 931.19075 0.00106
42.70060 974.00000 928.91385 0.00103
42.71060 905.00000 926.68580 0.00110
42.72060 915.00000 924.50922 0.00109
42.73060 911.00000 922.38623 0.00110
42.74060 897.00000 920.31851 0.00111
42.75060 904.00000 918.30732 0.00111
42.76060 974.00000 916.35355 0.00103
42.77060 929.00000 914.45773 0.00108
42.78060 898.00000 912.62012 0.00111
42.79060 941.00000 910.84071 0.00106
42.80060 887.00000 909.11928 0.00113
42.81060 870.00000 907.45545 0.00115
42.82060 911.00000 905.84866 0.00110
42.83060 952.00000 904.29825 0.00105
42.84060 941.00000 902.80349 0.00106
42.85060 884.00000 901.36354 0.00113
42.86060 896.00000 899.97737 0.00112
42.87060 886.00000 898.64349 0.00113
42.88060 909.00000 897.36005 0.00110
42.89060 905.00000 896.12494 0.00110
42.90060 907.00000 894.93576 0.00110
42.91060 860.00000 893.78969 0.00116
42.92060 886.00000 892.68318 0.00113
42.93060 893.00000 891.61161 0.00112
42.94060 874.00000 890.56875 0.00114
42.95060 882.00000 889.54541 0.00113
42.96060 916.00000 888.52596 0.00109
42.97060 923.00000 887.47774 0.00108
42.98060 871.00000 886.30868 0.00115
42.99060 888.00000 884.89302 0.00113
43.00060 893.00000 883.63191 0.00112
43.01060 888.00000 882.83854 0.00113
43.02060 827.00000 882.23231 0.00121
43.03061 917.00000 881.66796 0.00109
43.04060 863.00000 881.14703 0.00116
43.05061 889.00000 880.66737 0.00112
43.06060 938.00000 880.23095 0.00107
43.07061 924.00000 879.83615 0.00108
43.08060 895.00000 879.48476 0.00112
43.09061 855.00000 879.17570 0.00117
43.10061 905.00000 878.91034 0.00110
43.11061 866.00000 878.68878 0.00115
43.12061 866.00000 878.51143 0.00115
43.13061 882.00000 878.37880 0.00113
43.14061 882.00000 878.29145 0.00113
43.15061 882.00000 878.25001 0.00113
43.16061 911.00000 878.25510 0.00110
43.17061 922.00000 878.30741 0.00108
43.18061 898.00000 878.40752 0.00111
43.19061 903.00000 878.55592 0.00111
43.20061 795.00000 878.75282 0.00126
43.21061 905.00000 878.99781 0.00110
43.22061 944.00000 879.28916 0.00106
43.23061 898.00000 879.62159 0.00111
43.24061 863.00000 879.98009 0.00116
43.25061 853.00000 880.32136 0.00117
43.26061 928.00000 880.66270 0.00108
43.27061 924.00000 881.28076 0.00108
43.28061 898.00000 882.01241 0.00111
43.29061 912.00000 882.82236 0.00110
43.30061 876.00000 883.71476 0.00114
43.31061 900.00000 884.69415 0.00111
43.32061 862.00000 885.76553 0.00116
43.33061 889.00000 886.93440 0.00112
43.34061 889.00000 888.20684 0.00112
43.35061 926.00000 889.58960 0.00108
43.36061 882.00000 891.09017 0.00113
43.37061 941.00000 892.71693 0.00106
43.38061 877.00000 894.47929 0.00114
43.39061 899.00000 896.38785 0.00111
43.40061 872.00000 898.45464 0.00115
43.41061 933.00000 900.69332 0.00107
43.42061 913.00000 903.11951 0.00110
43.43061 918.00000 905.75115 0.00109
43.44061 952.00000 908.60883 0.00105
43.45061 948.00000 911.71633 0.00105
43.46061 913.00000 915.10111 0.00110
43.47062 971.00000 918.79880 0.00103
43.48061 975.00000 922.83433 0.00103
43.49062 947.00000 927.26641 0.00106
43.50061 945.00000 932.12575 0.00106
43.51062 952.00000 937.48802 0.00105
43.52061 901.00000 943.39536 0.00111
43.53062 913.00000 949.94454 0.00110
43.54062 969.00000 957.19896 0.00103
43.55062 1035.00000 965.25745 0.00097
43.56062 997.00000 974.22329 0.00100
43.57062 1039.00000 984.21086 0.00096
43.58062 987.00000 995.34578 0.00101
43.59062 1014.00000 1007.76466 0.00099
43.60062 1052.00000 1021.61459 0.00095
43.61062 1077.00000 1037.05213 0.00093
43.62062 1127.00000 1054.24189 0.00089
43.63062 1139.00000 1073.35454 0.00088
43.64062 1166.00000 1094.56429 0.00086
43.65062 1164.00000 1118.04574 0.00086
43.66062 1212.00000 1143.97007 0.00083
43.67062 1231.00000 1172.50058 0.00081
43.68062 1246.00000 1203.78731 0.00080
43.69062 1283.00000 1237.96101 0.00078
43.70062 1353.00000 1275.12586 0.00074
43.71062 1360.00000 1315.35120 0.00074
43.72062 1371.00000 1358.66170 0.00073
43.73062 1452.00000 1405.02594 0.00069
43.74062 1514.00000 1454.34298 0.00066
43.75062 1534.00000 1506.42692 0.00065
43.76062 1643.00000 1560.98918 0.00061
43.77062 1683.00000 1617.61920 0.00059
43.78062 1714.00000 1675.76409 0.00058
43.79062 1744.00000 1734.70918 0.00057
43.80062 1829.00000 1793.56219 0.00055
43.81062 1898.00000 1851.24489 0.00053
43.82062 1918.00000 1906.49782 0.00052
43.83062 2020.00000 1957.90376 0.00050
43.84062 2090.00000 2003.93596 0.00048
43.85062 2073.00000 2043.03458 0.00048
43.86062 2117.00000 2073.71040 0.00047
43.87062 2067.00000 2094.66809 0.00048
43.88062 2076.00000 2104.93373 0.00048
43.89062 2042.00000 2103.96526 0.00049
43.90062 2142.00000 2091.72335 0.00047
43.91063 2034.00000 2068.65677 0.00049
43.92062 2019.00000 2035.80625 0.00050
43.93063 1974.00000 1994.35655 0.00051
43.94062 1986.00000 1945.98813 0.00050
43.95063 1915.00000 1892.15892 0.00052
43.96062 1788.00000 1834.71435 0.00056
43.97063 1719.00000 1774.92128 0.00058
43.98063 1731.00000 1714.26994 0.00058
43.99063 1563.00000 1653.80428 0.00064
44.00063 1547.00000 1594.41604 0.00065
44.01063 1405.00000 1536.79979 0.00071
44.02063 1476.00000 1481.47595 0.00068
44.03063 1438.00000 1428.81674 0.00070
44.04063 1363.00000 1379.07154 0.00073
44.05063 1359.00000 1332.38955 0.00074
44.06063 1313.00000 1288.83899 0.00076
44.07063 1261.00000 1248.42282 0.00079
44.08063 1202.00000 1211.09246 0.00083
44.09063 1190.00000 1176.75876 0.00084
44.10063 1181.00000 1145.30101 0.00085
44.11063 1128.00000 1116.57434 0.00089
44.12063 1109.00000 1090.41591 0.00090
44.13063 1103.00000 1066.65005 0.00091
44.14063 1083.00000 1045.09175 0.00092
44.15063 1052.00000 1025.54838 0.00095
44.16063 991.00000 1007.81618 0.00101
44.17063 1042.00000 991.66017 0.00096
44.18063 1009.00000 976.71627 0.00099
44.19063 915.00000 962.70441 0.00109
44.20063 952.00000 950.80246 0.00105
44.21063 946.00000 940.10564 0.00106
44.22063 1006.00000 930.60585 0.00099
44.23063 947.00000 921.97950 0.00106
44.24063 939.00000 914.12547 0.00106
44.25063 909.00000 906.95348 0.00110
44.26063 951.00000 900.38353 0.00105
44.27063 905.00000 894.34518 0.00110
44.28063 911.00000 888.77673 0.00110
44.29063 844.00000 883.62441 0.00118
44.30063 883.00000 878.84151 0.00113
44.31063 877.00000 874.38761 0.00114
44.32063 849.00000 870.22778 0.00118
44.33064 837.00000 866.32816 0.00119
44.34063 867.00000 862.67397 0.00115
44.35064 852.00000 859.22824 0.00117
44.36063 810.00000 855.98527 0.00123
44.37064 879.00000 852.91543 0.00114
44.38063 856.00000 850.01641 0.00117
44.39064 823.00000 847.26417 0.00122
44.40063 843.00000 844.65891 0.00119
44.41064 862.00000 842.18105 0.00116
44.42064 824.00000 839.83033 0.00121
44.43064 832.00000 837.59771 0.00120
44.44064 830.00000 835.47792 0.00120
44.45064 834.00000 833.46699 0.00120
44.46064 846.00000 831.56237 0.00118
44.47064 849.00000 829.76336 0.00118
44.48064 823.00000 828.07274 0.00122
44.49064 791.00000 826.50396 0.00126
44.50064 792.00000 825.06778 0.00126
44.51064 800.00000 823.68583 0.00125
44.52064 792.00000 822.37795 0.00126
44.53064 791.00000 821.17169 0.00126
44.54064 829.00000 820.07439 0.00121
44.55064 812.00000 819.09009 0.00123
44.56064 801.00000 818.22308 0.00125
44.57064 791.00000 817.47754 0.00126
44.58064 741.00000 816.85722 0.00135
44.59064 814.00000 816.36501 0.00123
44.60064 801.00000 816.00253 0.00125
44.61064 786.00000 815.76955 0.00127
44.62064 798.00000 815.66350 0.00125
44.63064 798.00000 815.67886 0.00125
44.64064 778.00000 815.80643 0.00129
44.65064 797.00000 816.03256 0.00125
44.66064 784.00000 816.33747 0.00128
44.67064 775.00000 816.69597 0.00129
44.68064 832.00000 817.09037 0.00120
44.69064 850.00000 817.48994 0.00118
44.70064 799.00000 817.84888 0.00125
44.71064 797.00000 818.11898 0.00125
44.72064 796.00000 818.25182 0.00126
44.73064 744.00000 818.19898 0.00134
44.74064 778.00000 817.91641 0.00129
44.75064 790.00000 817.36966 0.00127
44.76064 785.00000 816.53875 0.00127
44.77065 775.00000 815.42041 0.00129
44.78064 773.00000 814.03514 0.00129
44.79065 769.00000 812.41051 0.00130
44.80064 808.00000 810.59771 0.00124
44.81065 780.00000 808.63995 0.00128
44.82064 792.00000 806.59567 0.00126
44.83065 757.00000 804.50346 0.00132
44.84064 769.00000 802.41206 0.00130
44.85065 766.00000 800.34635 0.00131
44.86065 803.00000 798.33868 0.00125
44.87065 829.00000 796.40671 0.00121
44.88065 765.00000 794.56471 0.00131
44.89065 760.00000 792.82226 0.00132
44.90065 840.00000 791.18511 0.00119
44.91065 773.00000 789.65594 0.00129
44.92065 781.00000 788.23525 0.00128
44.93065 725.00000 786.92245 0.00138
44.94065 755.00000 785.71840 0.00132
44.95065 728.00000 784.63681 0.00137
44.96065 754.00000 783.68819 0.00133
44.97065 761.00000 782.75435 0.00131
44.98065 752.00000 781.84774 0.00133
44.99065 785.00000 780.99603 0.00127
45.00065 771.00000 780.19822 0.00130
45.01065 771.00000 779.44774 0.00130
45.02065 764.00000 778.73856 0.00131
45.03065 741.00000 778.06525 0.00135
45.04065 747.00000 777.42305 0.00134
45.05065 736.00000 776.80785 0.00136
45.06065 792.00000 776.21609 0.00126
45.07065 742.00000 775.64481 0.00135
45.08065 774.00000 775.09151 0.00129
45.09065 770.00000 774.55410 0.00130
45.10065 780.00000 774.03088 0.00128
45.11065 760.00000 773.52043 0.00132
45.12065 718.00000 773.02159 0.00139
45.13065 771.00000 772.53341 0.00130
45.14065 764.00000 772.05509 0.00131
45.15065 784.00000 771.58596 0.00128
45.16065 779.00000 771.12548 0.00128
45.17065 744.00000 770.67316 0.00134
45.18065 793.00000 770.22860 0.00126
45.19065 763.00000 769.79144 0.00131
45.20065 753.00000 769.36138 0.00133
45.21066 744.00000 768.93771 0.00134
45.22065 759.00000 768.52145 0.00132
45.23066 757.00000 768.11079 0.00132
45.24065 741.00000 767.70736 0.00135
45.25066 727.00000 767.30965 0.00138
45.26065 778.00000 766.91943 0.00129
45.27066 761.00000 766.53553 0.00131
45.28065 714.00000 766.16010 0.00140
45.29066 707.00000 765.79268 0.00141
45.30066 763.00000 765.43617 0.00131
45.31066 756.00000 765.09383 0.00132
45.32066 766.00000 764.77541 0.00131
45.33066 767.00000 764.50473 0.00130
45.34066 767.00000 764.27312 0.00130
45.35066 733.00000 763.95157 0.00136
45.36066 776.00000 763.61198 0.00129
45.37066 758.00000 763.27689 0.00132
45.38066 749.00000 762.94633 0.00134
45.39066 735.00000 762.62024 0.00136
45.40066 741.00000 762.29857 0.00135
45.41066 752.00000 761.98126 0.00133
45.42066 771.00000 761.66828 0.00130
45.43066 775.00000 761.35959 0.00129
45.44066 806.00000 761.05514 0.00124
45.45066 728.00000 760.75491 0.00137
45.46066 760.00000 760.45886 0.00132
45.47066 710.00000 760.16699 0.00141
45.48066 754.00000 759.87925 0.00133
45.49066 745.00000 759.59565 0.00134
45.50066 732.00000 759.31616 0.00137
45.51066 742.00000 759.04078 0.00135
45.52066 761.00000 758.76950 0.00131
45.53066 781.00000 758.50232 0.00128
45.54066 717.00000 758.23924 0.00139
45.55066 764.00000 757.98026 0.00131
45.56066 771.00000 757.72539 0.00130
45.57066 831.00000 757.47464 0.00120
45.58066 764.00000 757.22802 0.00131
45.59066 747.00000 756.98554 0.00134
45.60066 736.00000 756.74724 0.00136
45.61066 710.00000 756.51313 0.00141
45.62066 731.00000 756.28323 0.00137
45.63066 774.00000 756.05758 0.00129
45.64066 715.00000 755.83620 0.00140
45.65067 728.00000 755.61892 0.00137
45.66066 768.00000 755.40641 0.00130
45.67067 773.00000 755.19788 0.00129
45.68066 738.00000 754.99419 0.00136
45.69067 767.00000 754.79457 0.00130
45.70066 711.00000 754.59989 0.00141
45.71067 741.00000 754.40941 0.00135
45.72066 764.00000 754.22394 0.00131
45.73067 744.00000 754.04282 0.00134
45.74067 759.00000 753.86665 0.00132
45.75067 752.00000 753.69532 0.00133
45.76067 743.00000 753.52890 0.00135
45.77067 761.00000 753.36747 0.00131
45.78067 727.00000 753.21111 0.00138
45.79067 773.00000 753.05990 0.00129
45.80067 756.00000 752.91393 0.00132
45.81067 683.00000 752.77330 0.00146
45.82067 748.00000 752.63811 0.00134
45.83067 765.00000 752.50844 0.00131
45.84067 769.00000 752.38443 0.00130
45.85067 734.00000 752.26616 0.00136
45.86067 734.00000 752.15377 0.00136
45.87067 735.00000 752.04737 0.00136
45.88067 737.00000 751.94710 0.00136
45.89067 711.00000 751.85309 0.00141
45.90067 746.00000 751.76547 0.00134
45.91067 757.00000 751.68440 0.00132
45.92067 726.00000 751.61003 0.00138
45.93067 745.00000 751.54252 0.00134
45.94067 748.00000 751.48203 0.00134
45.95067 733.00000 751.42874 0.00136
45.96067 733.00000 751.38284 0.00136
45.97067 771.00000 751.34452 0.00130
45.98067 774.00000 751.31396 0.00129
45.99067 789.00000 751.29140 0.00127
46.00067 701.00000 751.27703 0.00143
46.01067 741.00000 751.27109 0.00135
46.02067 724.00000 751.27381 0.00138
46.03067 754.00000 751.28545 0.00133
46.04067 724.00000 751.30627 0.00138
46.05067 774.00000 751.33653 0.00129
46.06067 757.00000 751.37653 0.00132
46.07067 702.00000 751.42655 0.00142
46.08067 774.00000 751.48692 0.00129
46.09068 765.00000 751.55804 0.00131
46.10067 750.00000 751.64001 0.00133
46.11068 741.00000 751.73353 0.00135
46.12067 754.00000 751.83860 0.00133
46.13068 744.00000 751.95604 0.00134
46.14067 715.00000 752.08578 0.00140
46.15068 763.00000 752.22879 0.00131
46.16068 752.00000 752.38511 0.00133
46.17068 700.00000 752.55535 0.00143
46.18068 730.00000 752.74003 0.00137
46.19068 753.00000 752.93967 0.00133
46.20068 760.00000 753.15484 0.00132
46.21068 777.00000 753.38611 0.00129
46.22068 768.00000 753.63410 0.00130
46.23068 747.00000 753.89948 0.00134
46.24068 751.00000 754.18293 0.00133
46.25068 740.00000 754.48517 0.00135
46.26068 747.00000 754.80698 0.00134
46.27068 785.00000 755.14917 0.00127
46.28068 740.00000 755.51259 0.00135
46.29068 788.00000 755.89816 0.00127
46.30068 736.00000 756.30684 0.00136
46.31068 741.00000 756.73966 0.00135
46.32068 745.00000 757.19770 0.00134
46.33068 766.00000 757.68212 0.00131
46.34068 762.00000 758.19415 0.00131
46.35068 791.00000 758.73510 0.00126
46.36068 737.00000 759.30639 0.00136
46.37068 734.00000 759.90950 0.00136
46.38068 800.00000 760.54603 0.00125
46.39068 758.00000 761.21772 0.00132
46.40068 785.00000 761.92641 0.00127
46.41068 730.00000 762.67409 0.00137
46.42068 776.00000 763.46292 0.00129
46.43068 760.00000 764.29522 0.00132
46.44068 776.00000 765.17353 0.00129
46.45068 749.00000 766.10061 0.00134
46.46068 734.00000 767.07948 0.00136
46.47068 769.00000 768.11346 0.00130
46.48068 815.00000 769.20625 0.00123
46.49068 782.00000 770.36196 0.00128
46.50068 812.00000 771.58518 0.00123
46.51068 770.00000 772.88115 0.00130
46.52068 780.00000 774.25581 0.00128
46.53069 744.00000 775.71754 0.00134
46.54068 750.00000 777.26975 0.00133
46.55069 766.00000 778.92801 0.00131
46.56068 805.00000 780.69662 0.00124
46.57069 824.00000 782.59567 0.00121
46.58068 791.00000 784.63295 0.00126
46.59069 786.00000 786.83498 0.00127
46.60069 783.00000 789.21719 0.00128
46.61069 796.00000 791.80754 0.00126
46.62069 764.00000 794.63654 0.00131
46.63069 792.00000 797.73996 0.00126
46.64069 809.00000 801.15936 0.00124
46.65069 804.00000 804.94261 0.00124
46.66069 836.00000 809.14410 0.00120
46.67069 814.00000 813.82485 0.00123
46.68069 830.00000 819.05223 0.00120
46.69069 857.00000 824.89935 0.00117
46.70069 832.00000 831.44385 0.00120
46.71069 877.00000 838.76620 0.00114
46.72069 866.00000 846.94759 0.00115
46.73069 861.00000 856.06716 0.00116
46.74069 859.00000 866.19892 0.00116
46.75069 880.00000 877.40879 0.00114
46.76069 902.00000 889.75460 0.00111
46.77069 909.00000 903.28278 0.00110
46.78069 937.00000 917.97403 0.00107
46.79069 984.00000 933.73916 0.00102
46.80069 998.00000 950.56512 0.00100
46.81069 1035.00000 968.36861 0.00097
46.82069 1063.00000 987.00709 0.00094
46.83069 1065.00000 1006.28779 0.00094
46.84069 1112.00000 1025.96417 0.00090
46.85069 1055.00000 1045.73451 0.00095
46.86069 1112.00000 1065.24485 0.00090
46.87069 1191.00000 1084.09863 0.00084
46.88069 1119.00000 1101.87608 0.00089
46.89069 1132.00000 1118.16511 0.00088
46.90069 1161.00000 1132.60270 0.00086
46.91069 1107.00000 1144.92135 0.00090
46.92069 1184.00000 1154.99022 0.00084
46.93069 1169.00000 1162.83892 0.00086
46.94069 1283.00000 1168.65470 0.00078
46.95070 1208.00000 1172.75645 0.00083
46.96069 1225.00000 1175.52556 0.00082
46.97070 1320.00000 1177.39307 0.00076
46.98069 1211.00000 1178.74242 0.00083
46.99070 1277.00000 1179.91559 0.00078
47.00069 1259.00000 1181.16587 0.00079
47.01070 1270.00000 1182.67430 0.00079
47.02069 1248.00000 1184.53069 0.00080
47.03070 1301.00000 1186.76214 0.00077
47.04070 1319.00000 1189.31917 0.00076
47.05070 1339.00000 1192.10384 0.00075
47.06070 1345.00000 1194.97288 0.00074
47.07070 1330.00000 1197.75177 0.00075
47.08070 1308.00000 1200.24823 0.00076
47.09070 1303.00000 1202.26628 0.00077
47.10070 1329.00000 1203.62033 0.00075
47.11070 1371.00000 1204.14829 0.00073
47.12070 1301.00000 1203.72278 0.00077
47.13070 1257.00000 1202.25937 0.00080
47.14070 1295.00000 1199.72127 0.00077
47.15070 1219.00000 1196.12007 0.00082
47.16070 1300.00000 1191.51271 0.00077
47.17070 1272.00000 1185.99537 0.00079
47.18070 1224.00000 1179.69501 0.00082
47.19070 1211.00000 1172.75985 0.00083
47.20070 1260.00000 1165.34972 0.00079
47.21070 1177.00000 1157.62710 0.00085
47.22070 1196.00000 1149.74967 0.00084
47.23070 1236.00000 1141.86440 0.00081
47.24070 1137.00000 1134.10353 0.00088
47.25070 1070.00000 1126.58207 0.00093
47.26070 1090.00000 1119.39669 0.00092
47.27070 1091.00000 1112.62560 0.00092
47.28070 1073.00000 1106.32916 0.00093
47.29070 1123.00000 1100.55042 0.00089
47.30070 1082.00000 1095.31707 0.00092
47.31070 1052.00000 1090.64927 0.00095
47.32070 1003.00000 1086.55350 0.00100
47.33070 1076.00000 1083.01775 0.00093
47.34070 1008.00000 1080.02341 0.00099
47.35070 1011.00000 1077.54406 0.00099
47.36070 983.00000 1075.54546 0.00102
47.37070 978.00000 1073.98640 0.00102
47.38070 1028.00000 1072.81941 0.00097
47.39071 1042.00000 1071.99106 0.00096
47.40070 985.00000 1071.44496 0.00102
47.41071 1005.00000 1071.11797 0.00100
47.42070 1006.00000 1070.94558 0.00099
47.43071 1061.00000 1070.86066 0.00094
47.44070 988.00000 1070.79412 0.00101
47.45071 1011.00000 1070.67773 0.00099
47.46070 1043.00000 1070.44308 0.00096
47.47071 1077.00000 1070.02394 0.00093
47.48071 1015.00000 1069.35752 0.00099
47.49071 1011.00000 1068.38520 0.00099
47.50071 1083.00000 1067.05399 0.00092
47.51071 1039.00000 1065.31741 0.00096
47.52071 1036.00000 1063.13615 0.00097
47.53071 1012.00000 1060.47846 0.00099
47.54071 1055.00000 1057.31988 0.00095
47.55071 997.00000 1053.64148 0.00100
47.56071 931.00000 1049.42364 0.00107
47.57071 1022.00000 1044.62025 0.00098
47.58071 996.00000 1039.17386 0.00100
47.59071 1008.00000 1033.35391 0.00099
47.60071 1024.00000 1027.34586 0.00098
47.61071 982.00000 1021.02484 0.00102
47.62071 992.00000 1014.35058 0.00101
47.63071 975.00000 1007.36990 0.00103
47.64071 984.00000 1000.12657 0.00102
47.65071 925.00000 992.66498 0.00108
47.66071 930.00000 985.02932 0.00108
47.67071 932.00000 977.26266 0.00107
47.68071 926.00000 969.40631 0.00108
47.69071 944.00000 961.49922 0.00106
47.70071 908.00000 953.57762 0.00110
47.71071 908.00000 945.67468 0.00110
47.72071 916.00000 937.82041 0.00109
47.73071 847.00000 930.04155 0.00118
47.74071 943.00000 922.36162 0.00106
47.75071 802.00000 914.80102 0.00125
47.76071 905.00000 907.37714 0.00110
47.77071 903.00000 900.10461 0.00111
47.78071 861.00000 892.99544 0.00116
47.79071 858.00000 886.05927 0.00117
47.80071 871.00000 879.30361 0.00115
47.81071 811.00000 872.73405 0.00123
47.82071 814.00000 866.35446 0.00123
47.83072 794.00000 860.16113 0.00126
47.84071 814.00000 854.17350 0.00123
47.85072 747.00000 848.36747 0.00134
47.86071 779.00000 842.76537 0.00128
47.87072 803.00000 837.34286 0.00125
47.88071 823.00000 832.11926 0.00122
47.89072 810.00000 827.07050 0.00123
47.90071 753.00000 822.21340 0.00133
47.91072 810.00000 817.52454 0.00123
47.92072 791.00000 813.01418 0.00126
47.93072 749.00000 808.67318 0.00134
47.94072 834.00000 804.49701 0.00120
47.95072 788.00000 800.48107 0.00127
47.96072 754.00000 796.62067 0.00133
47.97072 817.00000 792.91111 0.00122
47.98072 734.00000 789.34770 0.00136
47.99072 744.00000 785.92577 0.00134
48.00072 788.00000 782.64073 0.00127
48.01072 824.00000 779.48804 0.00121
48.02072 745.00000 776.46328 0.00134
48.03072 706.00000 773.56212 0.00142
48.04072 765.00000 770.78036 0.00131
48.05072 749.00000 768.11392 0.00134
48.06072 731.00000 765.55888 0.00137
48.07072 710.00000 763.11143 0.00141
48.08072 727.00000 760.76793 0.00138
48.09072 700.00000 758.52490 0.00143
48.10072 755.00000 756.37901 0.00132
48.11072 756.00000 754.32709 0.00132
48.12072 736.00000 752.36615 0.00136
48.13072 729.00000 750.49336 0.00137
48.14072 760.00000 748.70606 0.00132
48.15072 742.00000 747.00177 0.00135
48.16072 701.00000 745.37818 0.00143
48.17072 723.00000 743.83317 0.00138
48.18072 731.00000 742.36481 0.00137
48.19072 748.00000 740.97135 0.00134
48.20072 656.00000 739.65124 0.00152
48.21072 713.00000 738.40313 0.00140
48.22072 733.00000 737.22588 0.00136
48.23072 700.00000 736.11858 0.00143
48.24072 778.00000 735.08057 0.00129
48.25072 704.00000 734.11141 0.00142
48.26072 709.00000 733.21097 0.00141
48.27073 710.00000 732.37862 0.00141
48.28072 715.00000 731.61724 0.00140
48.29073 725.00000 730.92471 0.00138
48.30072 737.00000 730.30509 0.00136
48.31073 771.00000 729.75778 0.00130
48.32072 772.00000 729.28733 0.00130
48.33073 717.00000 728.89501 0.00139
48.34072 728.00000 728.58622 0.00137
48.35073 738.00000 728.36459 0.00136
48.36073 710.00000 728.23676 0.00141
48.37073 718.00000 728.20961 0.00139
48.38073 751.00000 728.29171 0.00133
48.39073 723.00000 728.49326 0.00138
48.40073 712.00000 728.82636 0.00140
48.41073 732.00000 729.30523 0.00137
48.42073 732.00000 729.94645 0.00137
48.43073 721.00000 730.76920 0.00139
48.44073 713.00000 731.79550 0.00140
48.45073 746.00000 733.05041 0.00134
48.46073 738.00000 734.56216 0.00136
48.47073 731.00000 736.36227 0.00137
48.48073 748.00000 738.48553 0.00134
48.49073 751.00000 740.96993 0.00133
48.50073 757.00000 743.85645 0.00132
48.51073 803.00000 747.18869 0.00125
48.52073 764.00000 751.01235 0.00131
48.53073 790.00000 755.37461 0.00127
48.54073 742.00000 760.32322 0.00135
48.55073 760.00000 765.90544 0.00132
48.56073 800.00000 772.16689 0.00125
48.57073 770.00000 779.15001 0.00130
48.58073 785.00000 786.89248 0.00127
48.59073 808.00000 795.42536 0.00124
48.60073 822.00000 804.77095 0.00122
48.61073 795.00000 814.94046 0.00126
48.62073 837.00000 825.93122 0.00119
48.63073 852.00000 837.72363 0.00117
48.64073 836.00000 850.27753 0.00120
48.65073 864.00000 863.52809 0.00116
48.66073 908.00000 877.38128 0.00110
48.67073 912.00000 891.70880 0.00110
48.68073 896.00000 906.34303 0.00112
48.69073 979.00000 921.07247 0.00102
48.70073 934.00000 935.63845 0.00107
48.71074 899.00000 949.74796 0.00111
48.72073 959.00000 963.01015 0.00104
48.73074 983.00000 975.09077 0.00102
48.74073 958.00000 985.54106 0.00104
48.75074 951.00000 994.00304 0.00105
48.76073 990.00000 1000.08746 0.00101
48.77074 996.00000 1003.52687 0.00100
48.78074 996.00000 1004.12527 0.00100
48.79074 1039.00000 1001.82819 0.00096
48.80074 966.00000 996.71282 0.00104
48.81074 981.00000 988.98434 0.00102
48.82074 1021.00000 978.95331 0.00098
48.83074 944.00000 967.00243 0.00106
48.84074 928.00000 953.54980 0.00108
48.85074 946.00000 939.01493 0.00106
48.86074 916.00000 923.79209 0.00109
48.87074 895.00000 908.23284 0.00112
48.88074 924.00000 892.63725 0.00108
48.89074 842.00000 877.25202 0.00119
48.90074 880.00000 862.27326 0.00114
48.91074 842.00000 847.85167 0.00119
48.92074 845.00000 834.09875 0.00118
48.93074 777.00000 821.09295 0.00129
48.94074 786.00000 808.88525 0.00127
48.95074 864.00000 797.50401 0.00116
48.96074 798.00000 786.95906 0.00125
48.97074 833.00000 777.24512 0.00120
48.98074 772.00000 768.34474 0.00130
48.99074 762.00000 760.23083 0.00131
49.00074 764.00000 752.86889 0.00131
49.01074 806.00000 746.21915 0.00124
49.02074 782.00000 740.23897 0.00128
49.03074 727.00000 734.88718 0.00138
49.04074 745.00000 730.11847 0.00134
49.05074 735.00000 725.85207 0.00136
49.06074 733.00000 722.05579 0.00136
49.07074 796.00000 718.69150 0.00126
49.08074 760.00000 715.71688 0.00132
49.09074 756.00000 713.09237 0.00132
49.10074 732.00000 710.78158 0.00137
49.11074 685.00000 708.75145 0.00146
49.12074 734.00000 706.97227 0.00136
49.13074 698.00000 705.41765 0.00143
49.14074 716.00000 704.06436 0.00140
49.15075 722.00000 702.89114 0.00139
49.16074 731.00000 701.88367 0.00137
49.17075 735.00000 701.02308 0.00136
49.18074 695.00000 700.30003 0.00144
49.19075 715.00000 699.70100 0.00140
49.20074 668.00000 699.21937 0.00150
49.21075 734.00000 698.84579 0.00136
49.22075 685.00000 698.57537 0.00146
49.23075 711.00000 698.40256 0.00141
49.24075 705.00000 698.32314 0.00142
49.25075 743.00000 698.33349 0.00135
49.26075 705.00000 698.43059 0.00142
49.27075 697.00000 698.61178 0.00143
49.28075 706.00000 698.87464 0.00142
49.29075 716.00000 699.21686 0.00140
49.30075 681.00000 699.63602 0.00147
49.31075 705.00000 700.12934 0.00142
49.32075 688.00000 700.69314 0.00145
49.33075 736.00000 701.32111 0.00136
49.34075 698.00000 701.99703 0.00143
49.35075 774.00000 702.70840 0.00129
49.36075 713.00000 703.53284 0.00140
49.37075 748.00000 704.44663 0.00134
49.38075 737.00000 705.42070 0.00136
49.39075 730.00000 706.44630 0.00137
49.40075 725.00000 707.51713 0.00138
49.41075 704.00000 708.62591 0.00142
49.42075 718.00000 709.76419 0.00139
49.43075 761.00000 710.92231 0.00131
49.44075 738.00000 712.08935 0.00136
49.45075 739.00000 713.25308 0.00135
49.46075 778.00000 714.40000 0.00129
49.47075 742.00000 715.51543 0.00135
49.48075 749.00000 716.58367 0.00134
49.49075 754.00000 717.58817 0.00133
49.50075 770.00000 718.51187 0.00130
49.51075 719.00000 719.33751 0.00139
49.52075 723.00000 720.04811 0.00138
49.53075 729.00000 720.62742 0.00137
49.54075 720.00000 721.06039 0.00139
49.55075 742.00000 721.33375 0.00135
49.56075 810.00000 721.43644 0.00123
49.57076 785.00000 721.35997 0.00127
49.58075 774.00000 721.09919 0.00129
49.59076 776.00000 720.65118 0.00129
49.60075 770.00000 720.01849 0.00130
49.61076 771.00000 719.20327 0.00130
49.62075 773.00000 718.21585 0.00129
49.63076 802.00000 717.06274 0.00125
49.64075 702.00000 715.76074 0.00142
49.65076 735.00000 714.31925 0.00136
49.66076 744.00000 712.75789 0.00134
49.67076 723.00000 711.09186 0.00138
49.68076 764.00000 709.33796 0.00131
49.69076 773.00000 707.51287 0.00129
49.70076 791.00000 705.63276 0.00126
49.71076 795.00000 703.71297 0.00126
49.72076 739.00000 701.76775 0.00135
49.73076 690.00000 699.81015 0.00145
49.74076 695.00000 697.85186 0.00144
49.75076 704.00000 695.90324 0.00142
49.76076 729.00000 693.97329 0.00137
49.77076 680.00000 692.06971 0.00147
49.78076 710.00000 690.19895 0.00141
49.79076 715.00000 688.36638 0.00140
49.80076 698.00000 686.57628 0.00143
49.81076 730.00000 684.83208 0.00137
49.82076 699.00000 683.13637 0.00143
49.83076 713.00000 681.49117 0.00140
49.84076 696.00000 679.89802 0.00144
49.85076 731.00000 678.35710 0.00137
49.86076 683.00000 676.86751 0.00146
49.87076 715.00000 675.42989 0.00140
49.88076 732.00000 674.04409 0.00137
49.89076 695.00000 672.70934 0.00144
49.90076 703.00000 671.42457 0.00142
49.91076 725.00000 670.18838 0.00138
49.92076 719.00000 668.99918 0.00139
49.93076 684.00000 667.85516 0.00146
49.94076 700.00000 666.75429 0.00143
49.95076 689.00000 665.69421 0.00145
49.96076 697.00000 664.67222 0.00143
49.97076 732.00000 663.68478 0.00137
49.98076 706.00000 662.72747 0.00142
49.99076 704.00000 661.79363 0.00142
50.00076 685.00000 660.87043 0.00146
50.01077 733.00000 659.92213 0.00136
50.02076 738.00000 658.91173 0.00136
50.03077 696.00000 658.00067 0.00144
50.04076 684.00000 657.23276 0.00146
50.05077 685.00000 656.53977 0.00146
50.06076 740.00000 655.87625 0.00135
50.07077 708.00000 655.23828 0.00141
50.08076 752.00000 654.62724 0.00133
50.09077 679.00000 654.03949 0.00147
50.10077 721.00000 653.47575 0.00139
50.11077 665.00000 652.93436 0.00150
50.12077 715.00000 652.41430 0.00140
50.13077 694.00000 651.91461 0.00144
50.14077 691.00000 651.43438 0.00145
50.15077 708.00000 650.97275 0.00141
50.16077 663.00000 650.52888 0.00151
50.17077 671.00000 650.10202 0.00149
50.18077 669.00000 649.69142 0.00149
50.19077 636.00000 649.29639 0.00157
50.20077 684.00000 648.91631 0.00146
50.21077 675.00000 648.55055 0.00148
50.22077 715.00000 648.19856 0.00140
50.23077 649.00000 647.85980 0.00154
50.24077 711.00000 647.53380 0.00141
50.25077 657.00000 647.22009 0.00152
50.26077 695.00000 646.91825 0.00144
50.27077 684.00000 646.62790 0.00146
50.28077 675.00000 646.34867 0.00148
50.29077 672.00000 646.08024 0.00149
50.30077 661.00000 645.82231 0.00151
50.31077 677.00000 645.57460 0.00148
50.32077 647.00000 645.33686 0.00155
50.33077 667.00000 645.10887 0.00150
50.34077 654.00000 644.89042 0.00153
50.35077 645.00000 644.68135 0.00155
50.36077 657.00000 644.48149 0.00152
50.37077 633.00000 644.29071 0.00158
50.38077 659.00000 644.10888 0.00152
50.39077 667.00000 643.93592 0.00150
50.40077 673.00000 643.77173 0.00149
50.41077 659.00000 643.61627 0.00152
50.42077 629.00000 643.46948 0.00159
50.43077 668.00000 643.33133 0.00150
50.44077 678.00000 643.20182 0.00147
50.45078 633.00000 643.08083 0.00158
50.46077 650.00000 642.96873 0.00154
50.47078 669.00000 642.86512 0.00149
50.48077 661.00000 642.77045 0.00151
50.49078 628.00000 642.68443 0.00159
50.50077 665.00000 642.60747 0.00150
50.51078 673.00000 642.53938 0.00149
50.52077 658.00000 642.48056 0.00152
50.53078 663.00000 642.43088 0.00151
50.54078 650.00000 642.39070 0.00154
50.55078 698.00000 642.36011 0.00143
50.56078 685.00000 642.33932 0.00146
50.57078 682.00000 642.32855 0.00147
50.58078 659.00000 642.32803 0.00152
50.59078 612.00000 642.33801 0.00163
50.60078 640.00000 642.35878 0.00156
50.61078 653.00000 642.39063 0.00153
50.62078 656.00000 642.43386 0.00152
50.63078 649.00000 642.48883 0.00154
50.64078 693.00000 642.55587 0.00144
50.65078 653.00000 642.63539 0.00153
50.66078 660.00000 642.72775 0.00152
50.67078 688.00000 642.83335 0.00145
50.68078 673.00000 642.95254 0.00149
50.69078 703.00000 643.08557 0.00142
50.70078 654.00000 643.23229 0.00153
50.71078 677.00000 643.39084 0.00148
50.72078 652.00000 643.56086 0.00153
50.73078 645.00000 643.76130 0.00155
50.74078 667.00000 643.97821 0.00150
50.75078 648.00000 644.21654 0.00154
50.76078 656.00000 644.47491 0.00152
50.77078 645.00000 644.75431 0.00155
50.78078 629.00000 645.05578 0.00159
50.79078 665.00000 645.38044 0.00150
50.80078 659.00000 645.72945 0.00152
50.81078 651.00000 646.10409 0.00154
50.82078 643.00000 646.50566 0.00156
50.83078 667.00000 646.93557 0.00150
50.84078 670.00000 647.39530 0.00149
50.85078 702.00000 647.88639 0.00142
50.86078 622.00000 648.41049 0.00161
50.87078 608.00000 648.96930 0.00164
50.88078 650.00000 649.56463 0.00154
50.89079 677.00000 650.19899 0.00148
50.90078 674.00000 650.87241 0.00148
50.91079 696.00000 651.58959 0.00144
50.92078 642.00000 652.34983 0.00156
50.93079 683.00000 653.15833 0.00146
50.94078 665.00000 654.01417 0.00150
50.95079 653.00000 654.92308 0.00153
50.96078 639.00000 655.88390 0.00156
50.97079 709.00000 656.90289 0.00141
50.98079 680.00000 657.97967 0.00147
50.99079 682.00000 659.11778 0.00147
51.00079 676.00000 660.31985 0.00148
51.01079 652.00000 661.58851 0.00153
51.02079 662.00000 662.92643 0.00151
51.03079 702.00000 664.33625 0.00142
51.04079 709.00000 665.82059 0.00141
51.05079 661.00000 667.38203 0.00151
51.06079 675.00000 669.02306 0.00148
51.07079 701.00000 670.74606 0.00143
51.08079 700.00000 672.55326 0.00143
51.09079 706.00000 674.44668 0.00142
51.10079 701.00000 676.42809 0.00143
51.11079 680.00000 678.49893 0.00147
51.12079 696.00000 680.66025 0.00144
51.13079 689.00000 682.91261 0.00145
51.14079 759.00000 685.25599 0.00132
51.15079 672.00000 687.68969 0.00149
51.16079 704.00000 690.21219 0.00142
51.17079 728.00000 692.82102 0.00137
51.18079 758.00000 695.51264 0.00132
51.19079 751.00000 698.28227 0.00133
51.20079 743.00000 701.12375 0.00135
51.21079 776.00000 704.02942 0.00129
51.22079 782.00000 706.98994 0.00128
51.23079 720.00000 709.99427 0.00139
51.24079 777.00000 713.02952 0.00129
51.25079 736.00000 716.08101 0.00136
51.26079 767.00000 719.13227 0.00130
51.27079 797.00000 722.16522 0.00125
51.28079 799.00000 725.16042 0.00125
51.29079 810.00000 728.09736 0.00123
51.30079 832.00000 730.95499 0.00120
51.31079 791.00000 733.71229 0.00126
51.32079 857.00000 736.34891 0.00117
51.33080 778.00000 738.84851 0.00129
51.34079 809.00000 741.18703 0.00124
51.35080 835.00000 743.36076 0.00120
51.36079 833.00000 745.35120 0.00120
51.37080 811.00000 747.16190 0.00123
51.38079 804.00000 748.78564 0.00124
51.39080 788.00000 750.23541 0.00127
51.40079 798.00000 751.51679 0.00125
51.41080 810.00000 752.65294 0.00123
51.42080 834.00000 753.66289 0.00120
51.43080 804.00000 754.57589 0.00124
51.44080 809.00000 755.42407 0.00124
51.45080 819.00000 756.24300 0.00122
51.46080 821.00000 757.07075 0.00122
51.47080 818.00000 757.94697 0.00122
51.48080 750.00000 758.91198 0.00133
51.49080 806.00000 760.00587 0.00124
51.50080 832.00000 761.26771 0.00120
51.51080 839.00000 762.73487 0.00119
51.52080 800.00000 764.44234 0.00125
51.53080 802.00000 766.42223 0.00125
51.54080 772.00000 768.70327 0.00130
51.55080 760.00000 771.31033 0.00132
51.56080 799.00000 774.26400 0.00125
51.57080 779.00000 777.58008 0.00128
51.58080 799.00000 781.26908 0.00125
51.59080 798.00000 785.33554 0.00125
51.60080 797.00000 789.77730 0.00125
51.61080 795.00000 794.58462 0.00126
51.62080 862.00000 799.73910 0.00116
51.63080 805.00000 805.21253 0.00124
51.64080 838.00000 810.96557 0.00119
51.65080 834.00000 816.94644 0.00120
51.66080 864.00000 823.08968 0.00116
51.67080 797.00000 829.31513 0.00125
51.68080 906.00000 835.52737 0.00110
51.69080 836.00000 841.61585 0.00120
51.70080 870.00000 847.45602 0.00115
51.71080 877.00000 852.91169 0.00114
51.72080 859.00000 857.83878 0.00116
51.73080 840.00000 862.09062 0.00119
51.74080 830.00000 865.52460 0.00120
51.75080 878.00000 868.00979 0.00114
51.76080 854.00000 869.43491 0.00117
51.77081 808.00000 869.71529 0.00124
51.78080 861.00000 868.80191 0.00116
51.79081 782.00000 866.67654 0.00128
51.80080 856.00000 863.37355 0.00117
51.81081 849.00000 858.94013 0.00118
51.82080 864.00000 853.48800 0.00116
51.83081 880.00000 847.11288 0.00114
51.84081 791.00000 839.96852 0.00126
51.85081 850.00000 832.19295 0.00118
51.86081 801.00000 823.93150 0.00125
51.87081 793.00000 815.32425 0.00126
51.88081 831.00000 806.50119 0.00120
51.89081 772.00000 797.57896 0.00130
51.90081 784.00000 788.65919 0.00128
51.91081 760.00000 779.82799 0.00132
51.92081 774.00000 771.15641 0.00129
51.93081 727.00000 762.70158 0.00138
51.94081 717.00000 754.50804 0.00139
51.95081 713.00000 746.60939 0.00140
51.96081 688.00000 739.02986 0.00145
51.97081 715.00000 731.78574 0.00140
51.98081 708.00000 724.88675 0.00141
51.99081 721.00000 718.33721 0.00139
52.00081 681.00000 712.13701 0.00147
52.01081 656.00000 706.28246 0.00152
52.02081 681.00000 700.76701 0.00147
52.03081 678.00000 695.58180 0.00147
52.04081 658.00000 690.71622 0.00152
52.05081 692.00000 686.15824 0.00145
52.06081 670.00000 681.89482 0.00149
52.07081 707.00000 677.91218 0.00141
52.08081 709.00000 674.19605 0.00141
52.09081 677.00000 670.73191 0.00148
52.10081 670.00000 667.50513 0.00149
52.11081 659.00000 664.50121 0.00152
52.12081 607.00000 661.70582 0.00165
52.13081 688.00000 659.10500 0.00145
52.14081 671.00000 656.68516 0.00149
52.15081 632.00000 654.43314 0.00158
52.16081 664.00000 652.33651 0.00151
52.17081 685.00000 650.38352 0.00146
52.18081 638.00000 648.56316 0.00157
52.19081 631.00000 646.86527 0.00158
52.20081 656.00000 645.28075 0.00152
52.21082 702.00000 643.80100 0.00142
52.22081 654.00000 642.43063 0.00153
52.23082 652.00000 641.16380 0.00153
52.24081 651.00000 639.92006 0.00154
52.25082 667.00000 638.67071 0.00150
52.26081 623.00000 637.57316 0.00161
52.27082 642.00000 636.55782 0.00156
52.28082 637.00000 635.60091 0.00157
52.29082 654.00000 634.69689 0.00153
52.30082 653.00000 633.84181 0.00153
52.31082 650.00000 633.03216 0.00154
52.32082 621.00000 632.26480 0.00161
52.33082 682.00000 631.53701 0.00147
52.34082 664.00000 630.84655 0.00151
52.35082 650.00000 630.19226 0.00154
52.36082 640.00000 629.57349 0.00156
52.37082 640.00000 628.98282 0.00156
52.38082 623.00000 628.41772 0.00161
52.39082 631.00000 627.87941 0.00158
52.40082 657.00000 627.36745 0.00152
52.41082 670.00000 626.88086 0.00149
52.42082 663.00000 626.41882 0.00151
52.43082 644.00000 625.98066 0.00155
52.44082 603.00000 625.56588 0.00166
52.45082 593.00000 625.17411 0.00169
52.46082 645.00000 624.80514 0.00155
52.47082 664.00000 624.45890 0.00151
52.48082 656.00000 624.13546 0.00152
52.49082 628.00000 623.83504 0.00159
52.50082 609.00000 623.55796 0.00164
52.51082 633.00000 623.30467 0.00158
52.52082 606.00000 623.07582 0.00165
52.53082 646.00000 622.87242 0.00155
52.54082 586.00000 622.69731 0.00171
52.55082 630.00000 622.55299 0.00159
52.56082 626.00000 622.42390 0.00160
52.57082 654.00000 622.31589 0.00153
52.58082 636.00000 622.23222 0.00157
52.59082 593.00000 622.17250 0.00169
52.60082 663.00000 622.13589 0.00151
52.61082 667.00000 622.12111 0.00150
52.62082 653.00000 622.12632 0.00153
52.63083 610.00000 622.14914 0.00164
52.64082 640.00000 622.18638 0.00156
52.65083 648.00000 622.23429 0.00154
52.66082 625.00000 622.28785 0.00160
52.67083 643.00000 622.34134 0.00156
52.68082 638.00000 622.38715 0.00157
52.69083 668.00000 622.41577 0.00150
52.70082 628.00000 622.41171 0.00159
52.71083 606.00000 622.34123 0.00165
52.72083 650.00000 622.19305 0.00154
52.73083 619.00000 622.12960 0.00162
52.74083 638.00000 622.05974 0.00157
52.75083 631.00000 621.95572 0.00158
52.76083 634.00000 621.81876 0.00158
52.77083 592.00000 621.65221 0.00169
52.78083 649.00000 621.46101 0.00154
52.79083 639.00000 621.25112 0.00156
52.80083 607.00000 621.02893 0.00165
52.81083 642.00000 620.80075 0.00156
52.82083 628.00000 620.57241 0.00159
52.83083 616.00000 620.34902 0.00162
52.84083 612.00000 620.13493 0.00163
52.85083 657.00000 619.93370 0.00152
52.86083 642.00000 619.74815 0.00156
52.87083 647.00000 619.58047 0.00155
52.88083 586.00000 619.43227 0.00171
52.89083 667.00000 619.30469 0.00150
52.90083 651.00000 619.19847 0.00154
52.91083 624.00000 619.11399 0.00160
52.92083 658.00000 619.05134 0.00152
52.93083 594.00000 619.01038 0.00168
52.94083 627.00000 618.99078 0.00159
52.95083 616.00000 618.99206 0.00162
52.96083 609.00000 619.01364 0.00164
52.97083 595.00000 619.05487 0.00168
52.98083 618.00000 619.11506 0.00162
52.99083 651.00000 619.19354 0.00154
53.00083 587.00000 619.28964 0.00170
53.01083 610.00000 619.40273 0.00164
53.02083 629.00000 619.53227 0.00159
53.03083 605.00000 619.67775 0.00165
53.04083 646.00000 619.83877 0.00155
53.05083 631.00000 620.01501 0.00158
53.06083 623.00000 620.20620 0.00161
53.07084 623.00000 620.41241 0.00161
53.08083 602.00000 620.63293 0.00166
53.09084 642.00000 620.86861 0.00156
53.10083 624.00000 621.11861 0.00160
53.11084 606.00000 621.38406 0.00165
53.12083 631.00000 621.66409 0.00158
53.13084 633.00000 621.96010 0.00158
53.14083 688.00000 622.27121 0.00145
53.15084 662.00000 622.59905 0.00151
53.16084 647.00000 622.94306 0.00155
53.17084 616.00000 623.30405 0.00162
53.18084 626.00000 623.68252 0.00160
53.19084 667.00000 624.07902 0.00150
53.20084 615.00000 624.49415 0.00163
53.21084 597.00000 624.92857 0.00168
53.22084 648.00000 625.38297 0.00154
53.23084 642.00000 625.85807 0.00156
53.24084 607.00000 626.35467 0.00165
53.25084 625.00000 626.87360 0.00160
53.26084 635.00000 627.41575 0.00157
53.27084 578.00000 627.98205 0.00173
53.28084 673.00000 628.57350 0.00149
53.29084 621.00000 629.19114 0.00161
53.30084 642.00000 629.83609 0.00156
53.31084 603.00000 630.50952 0.00166
53.32084 596.00000 631.21267 0.00168
53.33084 618.00000 631.94684 0.00162
53.34084 620.00000 632.71340 0.00161
53.35084 641.00000 633.51380 0.00156
53.36084 644.00000 634.34957 0.00155
53.37084 611.00000 635.22230 0.00164
53.38084 631.00000 636.13367 0.00158
53.39084 639.00000 637.08545 0.00156
53.40084 651.00000 638.07948 0.00154
53.41084 601.00000 639.11771 0.00166
53.42084 612.00000 640.20215 0.00163
53.43084 573.00000 641.33493 0.00175
53.44084 643.00000 642.51825 0.00156
53.45084 635.00000 643.75444 0.00157
53.46084 635.00000 645.04589 0.00157
53.47084 640.00000 646.39510 0.00156
53.48084 648.00000 647.80468 0.00154
53.49084 657.00000 649.27734 0.00152
53.50084 659.00000 650.81588 0.00152
53.51085 625.00000 652.42482 0.00160
53.52084 624.00000 654.10231 0.00160
53.53085 621.00000 655.85808 0.00161
53.54084 635.00000 657.68840 0.00157
53.55085 672.00000 659.60379 0.00149
53.56084 676.00000 661.60010 0.00148
53.57085 630.00000 663.68867 0.00159
53.58084 649.00000 665.86482 0.00154
53.59085 639.00000 668.14078 0.00156
53.60085 628.00000 670.51365 0.00159
53.61085 653.00000 672.98938 0.00153
53.62085 625.00000 675.57177 0.00160
53.63085 666.00000 678.26464 0.00150
53.64085 626.00000 681.07185 0.00160
53.65085 667.00000 683.99724 0.00150
53.66085 649.00000 687.04464 0.00154
53.67085 652.00000 690.21780 0.00153
53.68085 663.00000 693.52044 0.00151
53.69085 692.00000 696.95612 0.00145
53.70085 714.00000 700.52828 0.00140
53.71085 707.00000 704.24013 0.00141
53.72085 647.00000 708.09465 0.00155
53.73085 649.00000 712.09449 0.00154
53.74085 667.00000 716.24190 0.00150
53.75085 661.00000 720.53868 0.00151
53.76085 664.00000 724.98606 0.00151
53.77085 674.00000 729.58460 0.00148
53.78085 705.00000 734.33407 0.00142
53.79085 668.00000 739.23334 0.00150
53.80085 658.00000 744.28023 0.00152
53.81085 675.00000 749.47133 0.00148
53.82085 689.00000 754.80184 0.00145
53.83085 728.00000 760.26543 0.00137
53.84085 694.00000 765.85397 0.00144
53.85085 733.00000 771.55741 0.00136
53.86085 674.00000 777.36353 0.00148
53.87085 705.00000 783.25774 0.00142
53.88085 726.00000 789.22292 0.00138
53.89085 705.00000 795.23922 0.00142
53.90085 732.00000 801.28394 0.00137
53.91085 691.00000 807.33139 0.00145
53.92085 723.00000 813.35287 0.00138
53.93085 743.00000 819.31667 0.00135
53.94085 749.00000 825.18815 0.00134
53.95086 771.00000 830.93565 0.00130
53.96085 746.00000 836.50223 0.00134
53.97086 736.00000 841.86846 0.00136
53.98085 743.00000 846.96931 0.00135
53.99086 783.00000 851.78120 0.00128
54.00085 731.00000 856.24016 0.00137
54.01086 782.00000 860.32076 0.00128
54.02085 735.00000 863.96419 0.00136
54.03086 774.00000 867.14611 0.00129
54.04086 795.00000 869.81996 0.00126
54.05086 799.00000 871.95800 0.00125
54.06086 810.00000 873.53432 0.00123
54.07086 765.00000 874.52917 0.00131
54.08086 801.00000 874.92953 0.00125
54.09086 830.00000 874.72957 0.00120
54.10086 777.00000 873.93076 0.00129
54.11086 776.00000 872.54190 0.00129
54.12086 801.00000 870.57879 0.00125
54.13086 767.00000 868.06383 0.00130
54.14086 819.00000 865.02529 0.00122
54.15086 783.00000 861.49656 0.00128
54.16086 817.00000 857.51523 0.00122
54.17086 797.00000 853.12209 0.00125
54.18086 821.00000 848.36017 0.00122
54.19086 801.00000 843.27377 0.00125
54.20086 771.00000 837.90753 0.00130
54.21086 768.00000 832.30566 0.00130
54.22086 770.00000 826.51114 0.00130
54.23086 765.00000 820.56521 0.00131
54.24086 792.00000 814.50684 0.00126
54.25086 737.00000 808.37238 0.00136
54.26086 740.00000 802.19533 0.00135
54.27086 700.00000 796.00618 0.00143
54.28086 728.00000 789.83236 0.00137
54.29086 717.00000 783.69827 0.00139
54.30086 697.00000 777.62537 0.00143
54.31086 711.00000 771.63228 0.00141
54.32086 729.00000 765.73494 0.00137
54.33086 696.00000 759.94685 0.00144
54.34086 717.00000 754.27919 0.00139
54.35086 748.00000 748.74111 0.00134
54.36086 710.00000 743.33984 0.00141
54.37086 713.00000 738.08098 0.00140
54.38086 683.00000 732.96862 0.00146
54.39087 683.00000 728.00062 0.00146
54.40086 673.00000 723.19345 0.00149
54.41087 687.00000 718.52834 0.00146
54.42086 662.00000 714.02394 0.00151
54.43087 656.00000 709.66111 0.00152
54.44086 656.00000 705.45596 0.00152
54.45087 645.00000 701.38942 0.00155
54.46087 639.00000 697.47159 0.00156
54.47087 654.00000 693.69545 0.00153
54.48087 648.00000 690.05792 0.00154
54.49087 577.00000 686.55565 0.00173
54.50087 663.00000 683.18514 0.00151
54.51087 712.00000 679.94276 0.00140
54.52087 620.00000 676.82478 0.00161
54.53087 657.00000 673.82739 0.00152
54.54087 630.00000 670.94677 0.00159
54.55087 640.00000 668.17908 0.00156
54.56087 660.00000 665.52048 0.00152
54.57087 652.00000 662.96717 0.00153
54.58087 650.00000 660.51538 0.00154
54.59087 647.00000 658.16141 0.00155
54.60087 610.00000 655.90160 0.00164
54.61087 606.00000 653.73238 0.00165
54.62087 619.00000 651.65025 0.00162
54.63087 641.00000 649.65180 0.00156
54.64087 631.00000 647.73371 0.00158
54.65087 644.00000 645.89274 0.00155
54.66087 613.00000 644.12577 0.00163
54.67087 618.00000 642.42975 0.00162
54.68087 624.00000 640.80177 0.00160
54.69087 599.00000 639.23898 0.00167
54.70087 614.00000 637.73866 0.00163
54.71087 618.00000 636.29817 0.00162
54.72087 636.00000 634.91499 0.00157
54.73087 590.00000 633.58669 0.00169
54.74087 621.00000 632.31094 0.00161
54.75087 603.00000 631.08552 0.00166
54.76087 574.00000 629.90828 0.00174
54.77087 644.00000 628.77720 0.00155
54.78087 589.00000 627.69033 0.00170
54.79087 625.00000 626.64580 0.00160
54.80087 618.00000 625.64187 0.00162
54.81087 632.00000 624.67684 0.00158
54.82087 609.00000 623.74913 0.00164
54.83088 601.00000 622.85633 0.00166
54.84087 609.00000 621.99967 0.00164
54.85088 610.00000 621.17431 0.00164
54.86087 594.00000 620.38231 0.00168
54.87088 576.00000 619.61925 0.00174
54.88087 616.00000 618.88707 0.00162
54.89088 639.00000 618.18174 0.00156
54.90088 594.00000 617.50441 0.00168
54.91088 591.00000 616.85341 0.00169
54.92088 615.00000 616.22785 0.00163
54.93088 600.00000 615.62691 0.00167
54.94088 608.00000 615.04980 0.00164
54.95088 607.00000 614.49581 0.00165
54.96088 653.00000 613.96427 0.00153
54.97088 586.00000 613.45456 0.00171
54.98088 615.00000 612.96611 0.00163
54.99088 629.00000 612.49841 0.00159
55.00088 589.00000 612.05097 0.00170
55.01088 579.00000 611.62339 0.00173
55.02088 583.00000 611.21526 0.00172
55.03088 586.00000 610.82627 0.00171
55.04088 575.00000 610.45611 0.00174
55.05088 593.00000 610.10455 0.00169
55.06088 590.00000 609.77138 0.00169
55.07088 607.00000 609.45645 0.00165
55.08088 622.00000 609.15964 0.00161
55.09088 600.00000 608.88088 0.00167
55.10088 584.00000 608.62017 0.00171
55.11088 596.00000 608.37752 0.00168
55.12088 585.00000 608.15303 0.00171
55.13088 598.00000 607.94680 0.00167
55.14088 637.00000 607.75904 0.00157
55.15088 572.00000 607.58996 0.00175
55.16088 631.00000 607.43987 0.00158
55.17088 614.00000 607.30910 0.00163
55.18088 641.00000 607.19807 0.00156
55.19088 603.00000 607.10724 0.00166
55.20088 610.00000 607.03714 0.00164
55.21088 588.00000 606.98837 0.00170
55.22088 630.00000 606.96160 0.00159
55.23088 616.00000 606.95756 0.00162
55.24088 566.00000 606.97706 0.00177
55.25089 597.00000 607.02104 0.00168
55.26088 582.00000 607.09026 0.00172
55.27089 596.00000 607.18607 0.00168
55.28088 599.00000 607.30915 0.00167
55.29089 606.00000 607.46121 0.00165
55.30088 664.00000 607.64287 0.00151
55.31089 631.00000 607.85624 0.00158
55.32088 604.00000 608.10182 0.00166
55.33089 619.00000 608.38213 0.00162
55.34089 578.00000 608.69792 0.00173
55.35089 571.00000 609.05106 0.00175
55.36089 632.00000 609.44326 0.00158
55.37089 592.00000 609.87625 0.00169
55.38089 658.00000 610.35183 0.00152
55.39089 665.00000 610.87185 0.00150
55.40089 644.00000 611.43818 0.00155
55.41089 618.00000 612.05273 0.00162
55.42089 621.00000 612.71742 0.00161
55.43089 618.00000 613.43417 0.00162
55.44089 627.00000 614.20489 0.00159
55.45089 619.00000 615.03146 0.00162
55.46089 603.00000 615.91568 0.00166
55.47089 615.00000 616.85929 0.00163
55.48089 645.00000 617.86391 0.00155
55.49089 613.00000 618.93102 0.00163
55.50089 602.00000 620.06191 0.00166
55.51089 638.00000 621.25761 0.00157
55.52089 603.00000 622.51886 0.00166
55.53089 614.00000 623.84606 0.00163
55.54089 625.00000 625.23913 0.00160
55.55089 648.00000 626.69746 0.00154
55.56089 619.00000 628.21982 0.00162
55.57089 648.00000 629.80418 0.00154
55.58089 622.00000 631.44766 0.00161
55.59089 661.00000 633.14632 0.00151
55.60089 619.00000 634.89504 0.00162
55.61089 612.00000 636.68734 0.00163
55.62089 634.00000 638.51526 0.00158
55.63089 625.00000 640.36913 0.00160
55.64089 656.00000 642.23743 0.00152
55.65089 625.00000 644.10665 0.00160
55.66089 611.00000 645.96221 0.00164
55.67089 627.00000 647.78826 0.00159
55.68089 622.00000 649.56531 0.00161
55.69090 594.00000 651.27452 0.00168
55.70089 624.00000 652.88965 0.00160
55.71090 641.00000 654.39487 0.00156
55.72089 650.00000 655.76229 0.00154
55.73090 658.00000 656.97550 0.00152
55.74089 653.00000 658.00978 0.00153
55.75090 670.00000 658.85086 0.00149
55.76089 656.00000 659.48068 0.00152
55.77090 635.00000 659.88990 0.00157
55.78090 678.00000 660.07002 0.00147
55.79090 680.00000 660.01883 0.00147
55.80090 631.00000 659.73844 0.00158
55.81090 652.00000 659.23564 0.00153
55.82090 618.00000 658.52157 0.00162
55.83090 661.00000 657.61123 0.00151
55.84090 624.00000 656.52277 0.00160
55.85090 625.00000 655.27674 0.00160
55.86090 648.00000 653.89527 0.00154
55.87090 620.00000 652.40128 0.00161
55.88090 632.00000 650.81774 0.00158
55.89090 673.00000 649.16703 0.00149
55.90090 642.00000 647.47046 0.00156
55.91090 638.00000 645.74785 0.00157
55.92090 655.00000 644.01730 0.00153
55.93090 638.00000 642.29505 0.00157
55.94090 665.00000 640.59543 0.00150
55.95090 622.00000 638.93086 0.00161
55.96090 646.00000 637.31198 0.00155
55.97090 607.00000 635.74775 0.00165
55.98090 662.00000 634.24559 0.00151
55.99090 625.00000 632.81158 0.00160
56.00090 612.00000 631.45056 0.00163
56.01090 588.00000 630.16636 0.00170
56.02090 648.00000 628.96189 0.00154
56.03090 618.00000 627.83927 0.00162
56.04090 625.00000 626.80002 0.00160
56.05090 607.00000 625.84507 0.00165
56.06090 650.00000 624.97493 0.00154
56.07090 637.00000 624.18973 0.00157
56.08090 582.00000 623.48927 0.00172
56.09090 628.00000 622.87313 0.00159
56.10090 600.00000 622.34067 0.00167
56.11090 597.00000 621.89109 0.00168
56.12090 574.00000 621.52342 0.00174
56.13091 532.00000 621.23641 0.00188
56.14090 618.00000 621.02953 0.00162
56.15091 645.00000 620.90083 0.00155
56.16090 650.00000 620.84940 0.00154
56.17091 605.00000 620.87372 0.00165
56.18090 576.00000 620.97212 0.00174
56.19091 605.00000 621.14352 0.00165
56.20090 644.00000 621.38549 0.00155
56.21091 597.00000 621.69731 0.00168
56.22091 598.00000 622.07617 0.00167
56.23091 603.00000 622.52033 0.00166
56.24091 666.00000 623.02753 0.00150
56.25091 616.00000 623.59534 0.00162
56.26091 609.00000 624.22105 0.00164
56.27091 634.00000 624.90167 0.00158
56.28091 650.00000 625.63390 0.00154
56.29091 625.00000 626.41403 0.00160
56.30091 627.00000 627.23795 0.00159
56.31091 621.00000 628.10108 0.00161
56.32091 606.00000 628.99833 0.00165
56.33091 620.00000 629.92404 0.00161
56.34091 639.00000 630.87199 0.00156
56.35091 634.00000 631.83532 0.00158
56.36091 646.00000 632.80656 0.00155
56.37091 631.00000 633.77761 0.00158
56.38091 636.00000 634.73975 0.00157
56.39091 667.00000 635.68372 0.00150
56.40091 596.00000 636.59975 0.00168
56.41091 643.00000 637.47769 0.00156
56.42091 622.00000 638.30708 0.00161
56.43091 630.00000 639.07736 0.00159
56.44091 646.00000 639.77801 0.00155
56.45091 612.00000 640.39875 0.00163
56.46091 624.00000 640.92979 0.00160
56.47091 637.00000 641.36200 0.00157
56.48091 681.00000 641.68718 0.00147
56.49091 650.00000 641.89823 0.00154
56.50091 633.00000 641.98933 0.00158
56.51091 615.00000 641.95603 0.00163
56.52091 649.00000 641.79542 0.00154
56.53091 680.00000 641.50618 0.00147
56.54091 628.00000 641.08857 0.00159
56.55091 639.00000 640.54435 0.00156
56.56091 646.00000 639.87656 0.00155
56.57092 661.00000 639.08829 0.00151
56.58091 622.00000 638.18622 0.00161
56.59092 619.00000 637.16837 0.00162
56.60091 607.00000 636.02789 0.00165
56.61092 603.00000 634.75440 0.00166
56.62091 609.00000 633.47382 0.00164
56.63092 629.00000 632.17015 0.00159
56.64091 633.00000 630.82155 0.00158
56.65092 641.00000 629.42650 0.00156
56.66092 648.00000 627.99841 0.00154
56.67092 642.00000 626.54480 0.00156
56.68092 566.00000 625.07397 0.00177
56.69092 625.00000 623.59361 0.00160
56.70092 626.00000 622.11073 0.00160
56.71092 587.00000 620.63154 0.00170
56.72092 576.00000 619.16148 0.00174
56.73092 620.00000 617.70523 0.00161
56.74092 650.00000 616.26671 0.00154
56.75092 606.00000 614.84903 0.00165
56.76092 586.00000 613.45440 0.00171
56.77092 639.00000 612.08391 0.00156
56.78092 586.00000 610.73651 0.00171
56.79092 593.00000 609.40463 0.00169
56.80092 607.00000 608.07358 0.00165
56.81092 571.00000 606.77327 0.00175
56.82092 615.00000 605.56724 0.00163
56.83092 599.00000 604.41326 0.00167
56.84092 571.00000 603.30015 0.00175
56.85092 569.00000 602.22827 0.00176
56.86092 598.00000 601.20202 0.00167
56.87092 603.00000 600.23872 0.00166
56.88092 569.00000 599.36768 0.00176
56.89092 575.00000 598.53745 0.00174
56.90092 626.00000 597.65014 0.00160
56.91092 587.00000 596.76719 0.00170
56.92092 612.00000 595.91494 0.00163
56.93092 611.00000 595.09307 0.00164
56.94092 630.00000 594.30065 0.00159
56.95092 603.00000 593.53673 0.00166
56.96092 563.00000 592.80033 0.00178
56.97092 602.00000 592.09044 0.00166
56.98092 573.00000 591.40606 0.00175
56.99092 585.00000 590.74618 0.00171
57.00092 599.00000 590.10980 0.00167
57.01093 599.00000 589.49533 0.00167
57.02092 612.00000 588.90358 0.00163
57.03093 574.00000 588.33127 0.00174
57.04092 548.00000 587.77974 0.00182
57.05093 550.00000 587.24591 0.00182
57.06092 580.00000 586.73103 0.00172
57.07093 592.00000 586.23219 0.00169
57.08092 580.00000 585.75056 0.00172
57.09093 565.00000 585.28341 0.00177
57.10093 558.00000 584.83134 0.00179
57.11093 535.00000 584.39305 0.00187
57.12093 582.00000 583.96768 0.00172
57.13093 590.00000 583.55454 0.00169
57.14093 566.00000 583.15256 0.00177
57.15093 580.00000 582.75773 0.00172
57.16093 562.00000 582.36847 0.00178
57.17093 605.00000 582.01731 0.00165
57.18093 587.00000 581.69789 0.00170
57.19093 580.00000 581.41717 0.00172
57.20093 604.00000 581.22069 0.00166
57.21093 579.00000 581.13588 0.00173
57.22093 538.00000 580.89230 0.00186
57.23093 570.00000 580.59616 0.00175
57.24093 563.00000 580.30744 0.00178
57.25093 600.00000 580.02716 0.00167
57.26093 540.00000 579.75499 0.00185
57.27093 562.00000 579.49062 0.00178
57.28093 588.00000 579.23376 0.00170
57.29093 617.00000 578.98410 0.00162
57.30093 599.00000 578.74137 0.00167
57.31093 577.00000 578.50530 0.00173
57.32093 605.00000 578.27563 0.00165
57.33093 614.00000 578.05210 0.00163
57.34093 587.00000 577.83449 0.00170
57.35093 586.00000 577.62255 0.00171
57.36093 545.00000 577.41607 0.00183
57.37093 557.00000 577.21484 0.00180
57.38093 558.00000 577.01866 0.00179
57.39093 548.00000 576.82733 0.00182
57.40093 591.00000 576.64068 0.00169
57.41093 583.00000 576.45853 0.00172
57.42093 582.00000 576.28072 0.00172
57.43093 625.00000 576.10708 0.00160
57.44093 564.00000 575.93747 0.00177
57.45094 564.00000 575.77157 0.00177
57.46093 565.00000 575.60975 0.00177
57.47094 572.00000 575.45122 0.00175
57.48093 597.00000 575.29650 0.00168
57.49094 578.00000 575.14484 0.00173
57.50093 580.00000 574.99673 0.00172
57.51094 594.00000 574.85149 0.00168
57.52094 559.00000 574.70944 0.00179
57.53094 580.00000 574.57034 0.00172
57.54094 616.00000 574.43410 0.00162
57.55094 584.00000 574.30063 0.00171
57.56094 567.00000 574.16984 0.00176
57.57094 578.00000 574.04166 0.00173
57.58094 588.00000 573.91600 0.00170
57.59094 589.00000 573.79279 0.00170
57.60094 565.00000 573.67197 0.00177
57.61094 545.00000 573.55348 0.00183
57.62094 589.00000 573.43727 0.00170
57.63094 585.00000 573.32333 0.00171
57.64094 591.00000 573.21166 0.00169
57.65094 559.00000 573.10231 0.00179
57.66094 571.00000 572.99541 0.00175
57.67094 585.00000 572.89128 0.00171
57.68094 580.00000 572.79108 0.00172
57.69094 601.00000 572.69642 0.00166
57.70094 542.00000 572.60185 0.00185
57.71094 572.00000 572.50474 0.00175
57.72094 574.00000 572.40825 0.00174
57.73094 588.00000 572.31345 0.00170
57.74094 537.00000 572.22033 0.00186
57.75094 603.00000 572.12886 0.00166
57.76094 557.00000 572.03901 0.00180
57.77094 561.00000 571.95074 0.00178
57.78094 569.00000 571.86402 0.00176
57.79094 566.00000 571.77884 0.00177
57.80094 571.00000 571.69514 0.00175
57.81094 597.00000 571.61293 0.00168
57.82094 558.00000 571.53216 0.00179
57.83094 562.00000 571.45281 0.00178
57.84094 544.00000 571.37487 0.00184
57.85094 576.00000 571.29831 0.00174
57.86094 580.00000 571.22311 0.00172
57.87094 551.00000 571.14926 0.00181
57.88094 584.00000 571.07673 0.00171
57.89095 576.00000 571.00544 0.00174
57.90094 617.00000 570.93558 0.00162
57.91095 598.00000 570.86686 0.00167
57.92094 566.00000 570.79954 0.00177
57.93095 553.00000 570.73334 0.00181
57.94094 584.00000 570.66851 0.00171
57.95095 611.00000 570.60478 0.00164
57.96095 575.00000 570.54233 0.00174
57.97095 555.00000 570.48109 0.00180
57.98095 578.00000 570.42104 0.00173
57.99095 545.00000 570.36219 0.00183
58.00095 560.00000 570.30452 0.00179
58.01095 564.00000 570.24802 0.00177
58.02095 574.00000 570.19270 0.00174
58.03095 527.00000 570.13854 0.00190
58.04095 562.00000 570.08554 0.00178
58.05095 535.00000 570.03371 0.00187
58.06095 544.00000 569.98317 0.00184
58.07095 551.00000 569.93430 0.00181
58.08095 602.00000 569.88777 0.00166
58.09095 587.00000 569.84453 0.00170
58.10095 594.00000 569.80617 0.00168
58.11095 557.00000 569.77548 0.00180
58.12095 593.00000 569.75848 0.00169
58.13095 564.00000 569.77583 0.00177
58.14095 538.00000 569.84955 0.00186
58.15095 604.00000 569.87071 0.00166
58.16095 571.00000 569.84305 0.00175
58.17095 573.00000 569.80699 0.00175
58.18095 571.00000 569.77191 0.00175
58.19095 536.00000 569.73804 0.00187
58.20095 565.00000 569.70537 0.00177
58.21095 594.00000 569.67392 0.00168
58.22095 595.00000 569.64369 0.00168
58.23095 564.00000 569.61469 0.00177
58.24095 588.00000 569.58694 0.00170
58.25095 525.00000 569.56044 0.00190
58.26095 530.00000 569.53521 0.00189
58.27095 566.00000 569.51126 0.00177
58.28095 564.00000 569.48861 0.00177
58.29095 555.00000 569.46727 0.00180
58.30095 580.00000 569.44725 0.00172
58.31096 550.00000 569.42856 0.00182
58.32095 551.00000 569.41127 0.00181
58.33096 594.00000 569.39533 0.00168
58.34095 554.00000 569.38081 0.00181
58.35096 562.00000 569.36770 0.00178
58.36095 596.00000 569.35605 0.00168
58.37096 576.00000 569.34584 0.00174
58.38095 537.00000 569.33715 0.00186
58.39096 572.00000 569.32996 0.00175
58.40096 566.00000 569.32432 0.00177
58.41096 527.00000 569.32026 0.00190
58.42096 579.00000 569.31780 0.00173
58.43096 553.00000 569.31698 0.00181
58.44096 576.00000 569.31782 0.00174
58.45096 569.00000 569.32037 0.00176
58.46096 562.00000 569.32465 0.00178
58.47096 524.00000 569.33071 0.00191
58.48096 543.00000 569.33859 0.00184
58.49096 553.00000 569.34832 0.00181
58.50096 573.00000 569.35996 0.00175
58.51096 545.00000 569.37354 0.00183
58.52096 552.00000 569.38911 0.00181
58.53096 578.00000 569.40672 0.00173
58.54096 581.00000 569.42643 0.00172
58.55096 576.00000 569.44831 0.00174
58.56096 574.00000 569.47244 0.00174
58.57096 558.00000 569.49893 0.00179
58.58096 591.00000 569.52792 0.00169
58.59096 595.00000 569.55963 0.00168
58.60096 577.00000 569.59474 0.00173
58.61096 563.00000 569.63403 0.00178
58.62096 560.00000 569.67410 0.00179
58.63096 602.00000 569.71563 0.00166
58.64096 580.00000 569.75974 0.00172
58.65096 573.00000 569.80670 0.00175
58.66096 562.00000 569.85661 0.00178
58.67096 592.00000 569.90956 0.00169
58.68096 615.00000 569.96565 0.00163
58.69096 548.00000 570.02498 0.00182
58.70096 611.00000 570.08767 0.00164
58.71096 579.00000 570.15383 0.00173
58.72096 583.00000 570.22358 0.00172
58.73096 559.00000 570.29705 0.00179
58.74096 550.00000 570.37438 0.00182
58.75097 599.00000 570.45579 0.00167
58.76096 566.00000 570.54115 0.00177
58.77097 556.00000 570.63089 0.00180
58.78096 571.00000 570.72470 0.00175
58.79097 574.00000 570.82301 0.00174
58.80096 541.00000 570.92538 0.00185
58.81097 538.00000 571.03212 0.00186
58.82096 557.00000 571.14252 0.00180
58.83097 563.00000 571.25634 0.00178
58.84097 606.00000 571.37147 0.00165
58.85097 530.00000 571.48139 0.00189
58.86097 605.00000 571.58092 0.00165
58.87097 595.00000 571.70992 0.00168
58.88097 588.00000 571.85904 0.00170
58.89097 594.00000 572.01686 0.00168
58.90097 589.00000 572.18217 0.00170
58.91097 550.00000 572.35524 0.00182
58.92097 573.00000 572.53646 0.00175
58.93097 547.00000 572.72622 0.00183
58.94097 558.00000 572.92496 0.00179
58.95097 597.00000 573.13313 0.00168
58.96097 599.00000 573.35121 0.00167
58.97097 580.00000 573.57975 0.00172
58.98097 546.00000 573.81928 0.00183
58.99097 591.00000 574.07042 0.00169
59.00097 569.00000 574.33381 0.00176
59.01097 593.00000 574.61014 0.00169
59.02097 607.00000 574.90017 0.00165
59.03097 556.00000 575.20470 0.00180
59.04097 578.00000 575.52460 0.00173
59.05097 589.00000 575.86084 0.00170
59.06097 585.00000 576.21445 0.00171
59.07097 579.00000 576.58655 0.00173
59.08097 625.00000 576.97841 0.00160
59.09097 599.00000 577.39141 0.00167
59.10097 616.00000 577.82709 0.00162
59.11097 621.00000 578.28719 0.00161
59.12097 594.00000 578.77369 0.00168
59.13097 572.00000 579.28882 0.00175
59.14097 597.00000 579.83522 0.00168
59.15097 594.00000 580.41593 0.00168
59.16097 597.00000 581.03454 0.00168
59.17097 597.00000 581.69532 0.00168
59.18097 602.00000 582.40339 0.00166
59.19098 577.00000 583.16571 0.00173
59.20097 556.00000 583.98732 0.00180
59.21098 601.00000 584.88058 0.00166
59.22097 621.00000 585.85276 0.00161
59.23098 625.00000 586.92103 0.00160
59.24097 586.00000 588.09698 0.00171
59.25098 619.00000 589.40451 0.00162
59.26097 613.00000 590.86110 0.00163
59.27098 630.00000 592.49975 0.00159
59.28098 681.00000 594.34752 0.00147
59.29098 623.00000 596.44297 0.00161
59.30098 614.00000 598.82872 0.00163
59.31098 626.00000 601.55333 0.00160
59.32098 621.00000 604.67142 0.00161
59.33098 634.00000 608.24360 0.00158
59.34098 638.00000 612.33614 0.00157
59.35098 646.00000 617.02028 0.00155
59.36098 616.00000 622.37122 0.00162
59.37098 659.00000 628.46667 0.00152
59.38098 683.00000 635.38501 0.00146
59.39098 667.00000 643.20299 0.00150
59.40098 652.00000 651.99300 0.00153
59.41098 651.00000 661.82004 0.00154
59.42098 717.00000 672.73827 0.00139
59.43098 725.00000 684.78734 0.00138
59.44098 770.00000 697.98849 0.00130
59.45098 756.00000 712.34054 0.00132
59.46098 798.00000 727.81574 0.00125
59.47098 831.00000 744.35554 0.00120
59.48098 819.00000 761.86620 0.00122
59.49098 896.00000 780.21437 0.00112
59.50098 885.00000 799.22250 0.00113
59.51098 917.00000 818.66434 0.00109
59.52098 891.00000 838.26095 0.00112
59.53098 972.00000 857.67797 0.00103
59.54098 984.00000 876.52542 0.00102
59.55098 1022.00000 894.36199 0.00098
59.56098 1088.00000 910.70580 0.00092
59.57098 1035.00000 925.05382 0.00097
59.58098 1046.00000 936.91093 0.00096
59.59098 1067.00000 945.82762 0.00094
59.60098 1066.00000 951.44228 0.00094
59.61098 1042.00000 953.52148 0.00096
59.62098 1048.00000 951.98968 0.00095
59.63099 1014.00000 946.93365 0.00099
59.64098 1026.00000 938.62890 0.00097
59.65099 973.00000 927.42585 0.00103
59.66098 1013.00000 913.84494 0.00099
59.67099 924.00000 898.35195 0.00108
59.68098 892.00000 881.54197 0.00112
59.69099 911.00000 863.85343 0.00110
59.70098 945.00000 845.73934 0.00106
59.71099 877.00000 827.54357 0.00114
59.72099 870.00000 809.67321 0.00115
59.73099 845.00000 792.39153 0.00118
59.74099 795.00000 775.92813 0.00126
59.75099 826.00000 760.46700 0.00121
59.76099 773.00000 746.15223 0.00129
59.77099 734.00000 733.09331 0.00136
59.78099 771.00000 721.37035 0.00130
59.79099 759.00000 711.03896 0.00132
59.80099 739.00000 702.13509 0.00135
59.81099 735.00000 694.67959 0.00136
59.82099 746.00000 688.68268 0.00134
59.83099 705.00000 684.14809 0.00142
59.84099 732.00000 681.07692 0.00137
59.85099 701.00000 679.47087 0.00143
59.86099 755.00000 679.33495 0.00132
59.87099 733.00000 680.67945 0.00136
59.88099 706.00000 683.52106 0.00142
59.89099 728.00000 687.88315 0.00137
59.90099 800.00000 693.79519 0.00125
59.91099 789.00000 701.29123 0.00127
59.92099 828.00000 710.40763 0.00121
59.93099 793.00000 721.17997 0.00126
59.94099 817.00000 733.63935 0.00122
59.95099 829.00000 747.80810 0.00121
59.96099 913.00000 763.69508 0.00110
59.97099 861.00000 781.29061 0.00116
59.98099 878.00000 800.56117 0.00114
59.99099 935.00000 821.44384 0.00107
60.00099 888.00000 843.84062 0.00113
60.01099 1077.00000 867.61231 0.00093
60.02099 1074.00000 892.57222 0.00093
60.03099 1122.00000 918.47968 0.00089
60.04099 1109.00000 945.03396 0.00090
60.05099 1166.00000 971.87242 0.00086
60.06099 1082.00000 998.56238 0.00092
60.07100 1153.00000 1024.56950 0.00087
60.08099 1216.00000 1049.23269 0.00082
60.09100 1217.00000 1072.01663 0.00082
60.10099 1266.00000 1092.15898 0.00079
60.11100 1297.00000 1109.05321 0.00077
60.12099 1289.00000 1122.00614 0.00078
60.13100 1228.00000 1130.52939 0.00081
60.14100 1215.00000 1134.22152 0.00082
60.15100 1304.00000 1132.91569 0.00077
60.16100 1187.00000 1126.65909 0.00084
60.17100 1214.00000 1115.71797 0.00082
60.18100 1215.00000 1100.54767 0.00082
60.19100 1156.00000 1081.74301 0.00087
60.20100 1187.00000 1059.97999 0.00084
60.21100 1109.00000 1035.95959 0.00090
60.22100 1082.00000 1010.36179 0.00092
60.23100 1042.00000 983.81345 0.00096
60.24100 995.00000 956.86997 0.00101
60.25100 956.00000 930.00794 0.00105
60.26100 941.00000 903.62548 0.00106
60.27100 898.00000 878.04685 0.00111
60.28100 931.00000 853.52916 0.00107
60.29100 917.00000 830.26956 0.00109
60.30100 823.00000 808.41210 0.00122
60.31100 841.00000 788.05414 0.00119
60.32100 795.00000 769.25217 0.00126
60.33100 772.00000 752.02721 0.00130
60.34100 771.00000 736.36987 0.00130
60.35100 768.00000 722.24522 0.00130
60.36100 750.00000 709.59740 0.00133
60.37100 733.00000 698.35407 0.00136
60.38100 726.00000 688.43057 0.00138
60.39100 712.00000 679.73385 0.00140
60.40100 685.00000 672.16591 0.00146
60.41100 707.00000 665.62694 0.00141
60.42100 722.00000 660.01794 0.00139
60.43100 687.00000 655.24286 0.00146
60.44100 673.00000 651.21035 0.00149
60.45100 718.00000 647.83490 0.00139
60.46100 712.00000 645.03778 0.00140
60.47100 667.00000 642.74741 0.00150
60.48100 644.00000 640.89953 0.00155
60.49100 644.00000 639.43710 0.00155
60.50100 680.00000 638.31001 0.00147
60.51101 677.00000 637.47395 0.00148
60.52100 660.00000 636.89301 0.00152
60.53101 652.00000 636.53276 0.00153
60.54100 629.00000 636.36668 0.00159
60.55101 626.00000 636.37082 0.00160
60.56100 680.00000 636.52507 0.00147
60.57101 691.00000 636.81346 0.00145
60.58101 641.00000 637.22114 0.00156
60.59101 639.00000 637.73669 0.00156
60.60101 676.00000 638.35050 0.00148
60.61101 634.00000 639.05480 0.00158
60.62101 636.00000 639.84351 0.00157
60.63101 634.00000 640.71208 0.00158
60.64101 654.00000 641.65743 0.00153
60.65101 662.00000 642.67784 0.00151
60.66101 675.00000 643.77295 0.00148
60.67101 702.00000 644.94367 0.00142
60.68101 622.00000 646.19216 0.00161
60.69101 670.00000 647.52172 0.00149
60.70101 655.00000 648.93675 0.00153
60.71101 631.00000 650.44263 0.00158
60.72101 685.00000 652.04562 0.00146
60.73101 627.00000 653.75270 0.00159
60.74101 622.00000 655.57144 0.00161
60.75101 620.00000 657.50980 0.00161
60.76101 668.00000 659.57600 0.00150
60.77101 665.00000 661.77828 0.00150
60.78101 656.00000 664.12473 0.00152
60.79101 682.00000 666.62311 0.00147
60.80101 647.00000 669.28062 0.00155
60.81101 654.00000 672.10375 0.00153
60.82101 678.00000 675.09801 0.00147
60.83101 652.00000 678.26781 0.00153
60.84101 653.00000 681.61622 0.00153
60.85101 654.00000 685.14472 0.00153
60.86101 660.00000 688.85305 0.00152
60.87101 699.00000 692.73890 0.00143
60.88101 627.00000 696.79766 0.00159
60.89101 631.00000 701.02212 0.00158
60.90101 654.00000 705.40220 0.00153
60.91101 654.00000 709.92458 0.00153
60.92101 635.00000 714.57249 0.00157
60.93102 655.00000 719.33031 0.00153
60.94101 645.00000 724.15951 0.00155
60.95102 663.00000 729.05180 0.00151
60.96101 701.00000 733.95707 0.00143
60.97102 652.00000 738.86229 0.00153
60.98101 667.00000 743.71455 0.00150
60.99102 679.00000 748.50054 0.00147
61.00101 668.00000 753.16833 0.00150
61.01102 691.00000 757.70935 0.00145
61.02102 686.00000 762.08709 0.00146
61.03102 671.00000 766.28763 0.00149
61.04102 677.00000 770.29647 0.00148
61.05102 681.00000 774.10216 0.00147
61.06102 702.00000 777.69494 0.00142
61.07102 669.00000 781.06523 0.00149
61.08102 723.00000 784.20244 0.00138
61.09102 646.00000 787.09417 0.00155
61.10102 677.00000 789.72584 0.00148
61.11102 704.00000 792.08084 0.00142
61.12102 712.00000 794.14108 0.00140
61.13102 716.00000 795.88776 0.00140
61.14102 693.00000 797.30232 0.00144
61.15102 692.00000 798.36743 0.00145
61.16102 693.00000 799.06799 0.00144
61.17102 719.00000 799.39200 0.00139
61.18102 759.00000 799.33135 0.00132
61.19102 729.00000 798.88242 0.00137
61.20102 729.00000 798.04647 0.00137
61.21102 693.00000 796.82994 0.00144
61.22102 723.00000 795.24444 0.00138
61.23102 690.00000 793.30670 0.00145
61.24102 691.00000 791.03821 0.00145
61.25102 740.00000 788.46490 0.00135
61.26102 728.00000 785.61661 0.00137
61.27102 664.00000 782.52653 0.00151
61.28102 683.00000 779.23066 0.00146
61.29102 682.00000 775.76722 0.00147
61.30102 707.00000 772.17612 0.00141
61.31102 722.00000 768.49851 0.00139
61.32102 733.00000 764.77639 0.00136
61.33102 741.00000 761.05228 0.00135
61.34102 724.00000 757.36901 0.00138
61.35102 725.00000 753.76956 0.00138
61.36102 693.00000 750.29701 0.00144
61.37103 670.00000 746.99120 0.00149
61.38102 658.00000 743.90505 0.00152
61.39103 681.00000 741.06924 0.00147
61.40102 740.00000 738.53858 0.00135
61.41103 687.00000 736.34603 0.00146
61.42102 727.00000 734.54388 0.00138
61.43103 732.00000 733.16771 0.00137
61.44102 672.00000 732.26601 0.00149
61.45103 729.00000 731.87676 0.00137
61.46103 730.00000 732.04298 0.00137
61.47103 737.00000 732.80297 0.00136
61.48103 711.00000 734.19340 0.00141
61.49103 745.00000 736.24784 0.00134
61.50103 738.00000 738.99587 0.00136
61.51103 711.00000 742.46211 0.00141
61.52103 755.00000 746.66516 0.00132
61.53103 665.00000 751.61645 0.00150
61.54103 817.00000 757.31892 0.00122
61.55103 811.00000 763.76565 0.00123
61.56103 768.00000 770.93829 0.00130
61.57103 818.00000 778.80526 0.00122
61.58103 804.00000 787.31983 0.00124
61.59103 882.00000 796.41784 0.00113
61.60103 841.00000 806.01525 0.00119
61.61103 872.00000 816.00548 0.00115
61.62103 907.00000 826.25680 0.00110
61.63103 906.00000 836.60996 0.00110
61.64103 856.00000 846.87669 0.00117
61.65103 915.00000 856.83967 0.00109
61.66103 926.00000 866.25478 0.00108
61.67103 957.00000 874.85660 0.00104
61.68103 997.00000 882.36771 0.00100
61.69103 957.00000 888.51214 0.00104
61.70103 898.00000 893.03240 0.00111
61.71103 906.00000 895.70859 0.00110
61.72103 910.00000 896.37719 0.00110
61.73103 915.00000 894.94661 0.00109
61.74103 907.00000 891.40656 0.00110
61.75103 882.00000 885.82933 0.00113
61.76103 886.00000 878.36270 0.00113
61.77103 842.00000 869.21570 0.00119
61.78103 873.00000 858.63995 0.00115
61.79103 878.00000 846.90958 0.00114
61.80103 845.00000 834.30288 0.00118
61.81104 794.00000 821.07416 0.00126
61.82103 795.00000 807.51044 0.00126
61.83104 810.00000 793.78000 0.00123
61.84103 775.00000 780.12763 0.00129
61.85104 746.00000 766.63677 0.00134
61.86103 709.00000 753.49938 0.00141
61.87104 721.00000 740.77557 0.00139
61.88103 752.00000 728.60262 0.00133
61.89104 689.00000 716.97089 0.00145
61.90104 689.00000 705.96067 0.00145
61.91104 724.00000 695.59642 0.00138
61.92104 665.00000 685.89585 0.00150
61.93104 720.00000 676.86380 0.00139
61.94104 708.00000 668.49561 0.00141
61.95104 643.00000 660.77863 0.00156
61.96104 628.00000 653.69365 0.00159
61.97104 697.00000 647.21606 0.00143
61.98104 620.00000 641.31708 0.00161
61.99104 652.00000 635.96480 0.00153
62.00104 615.00000 631.12517 0.00163
62.01104 638.00000 626.76288 0.00157
62.02104 631.00000 622.84217 0.00158
62.03104 646.00000 619.32749 0.00155
62.04104 661.00000 616.18411 0.00151
62.05104 650.00000 613.37854 0.00154
62.06104 627.00000 610.87895 0.00159
62.07104 570.00000 608.65541 0.00175
62.08104 644.00000 606.68007 0.00155
62.09104 603.00000 604.92726 0.00166
62.10104 609.00000 603.37352 0.00164
62.11104 607.00000 601.99754 0.00165
62.12104 596.00000 600.78013 0.00168
62.13104 587.00000 599.70405 0.00170
62.14104 632.00000 598.75390 0.00158
62.15104 588.00000 597.91592 0.00170
62.16104 600.00000 597.17786 0.00167
62.17104 606.00000 596.52877 0.00165
62.18104 604.00000 595.95882 0.00166
62.19104 560.00000 595.45918 0.00179
62.20104 593.00000 595.02180 0.00169
62.21104 597.00000 594.63931 0.00168
62.22104 589.00000 594.30487 0.00170
62.23104 584.00000 594.01206 0.00171
62.24104 591.00000 593.75479 0.00169
62.25105 555.00000 593.52699 0.00180
62.26104 588.00000 593.32364 0.00170
62.27105 614.00000 593.13819 0.00163
62.28104 545.00000 592.96559 0.00183
62.29105 614.00000 592.79906 0.00163
62.30104 580.00000 592.63305 0.00172
62.31105 569.00000 592.46008 0.00176
62.32104 601.00000 592.27320 0.00166
62.33105 575.00000 592.06126 0.00174
62.34105 554.00000 591.80370 0.00181
62.35105 589.00000 591.46722 0.00170
62.36105 575.00000 591.10188 0.00174
62.37105 575.00000 590.79743 0.00174
62.38105 662.00000 590.48697 0.00151
62.39105 567.00000 590.14191 0.00176
62.40105 580.00000 589.75912 0.00172
62.41105 588.00000 589.33697 0.00170
62.42105 584.00000 588.87436 0.00171
62.43105 608.00000 588.37076 0.00164
62.44105 584.00000 587.82635 0.00171
62.45105 612.00000 587.24182 0.00163
62.46105 555.00000 586.61839 0.00180
62.47105 562.00000 585.95770 0.00178
62.48105 543.00000 585.26181 0.00184
62.49105 603.00000 584.53310 0.00166
62.50105 569.00000 583.77417 0.00176
62.51105 598.00000 582.98768 0.00167
62.52105 563.00000 582.17614 0.00178
62.53105 583.00000 581.34100 0.00172
62.54105 563.00000 580.48008 0.00178
62.55105 538.00000 579.59548 0.00186
62.56105 591.00000 578.72189 0.00169
62.57105 580.00000 577.84807 0.00172
62.58105 582.00000 576.97047 0.00172
62.59105 563.00000 576.09178 0.00178
62.60105 566.00000 575.21460 0.00177
62.61105 579.00000 574.34130 0.00173
62.62105 573.00000 573.47406 0.00175
62.63105 566.00000 572.61481 0.00177
62.64105 585.00000 571.76527 0.00171
62.65105 568.00000 570.92696 0.00176
62.66105 550.00000 570.10117 0.00182
62.67105 553.00000 569.28903 0.00181
62.68105 538.00000 568.49148 0.00186
62.69106 583.00000 567.70852 0.00172
62.70105 551.00000 566.94309 0.00181
62.71106 560.00000 566.19263 0.00179
62.72105 531.00000 565.46048 0.00188
62.73106 541.00000 564.74399 0.00185
62.74105 595.00000 564.04616 0.00168
62.75106 537.00000 563.36428 0.00186
62.76105 566.00000 562.70106 0.00177
62.77106 564.00000 562.05379 0.00177
62.78106 557.00000 561.42430 0.00180
62.79106 559.00000 560.81175 0.00179
62.80106 552.00000 560.21594 0.00181
62.81106 561.00000 559.63662 0.00178
62.82106 579.00000 559.07350 0.00173
62.83106 553.00000 558.52629 0.00181
62.84106 592.00000 557.99466 0.00169
62.85106 548.00000 557.47826 0.00182
62.86106 557.00000 556.97677 0.00180
62.87106 575.00000 556.48981 0.00174
62.88106 542.00000 556.01703 0.00185
62.89106 554.00000 555.55805 0.00181
62.90106 559.00000 555.11251 0.00179
62.91106 570.00000 554.68004 0.00175
62.92106 560.00000 554.26028 0.00179
62.93106 546.00000 553.85285 0.00183
62.94106 587.00000 553.45741 0.00170
62.95106 559.00000 553.07359 0.00179
62.96106 556.00000 552.70105 0.00180
62.97106 557.00000 552.33944 0.00180
62.98106 577.00000 551.98844 0.00173
62.99106 547.00000 551.64771 0.00183
63.00106 536.00000 551.31693 0.00187
63.01106 558.00000 550.99572 0.00179
63.02106 568.00000 550.68334 0.00176
63.03106 581.00000 550.37860 0.00172
63.04106 564.00000 550.07994 0.00177
63.05106 537.00000 549.78510 0.00186
63.06106 527.00000 549.49063 0.00190
63.07106 534.00000 549.19030 0.00187
63.08106 564.00000 548.86999 0.00177
63.09106 546.00000 548.48390 0.00183
63.10106 566.00000 548.00935 0.00177
63.11106 522.00000 547.71068 0.00192
63.12106 561.00000 547.47996 0.00178
63.13107 556.00000 547.25699 0.00180
63.14106 570.00000 547.04068 0.00175
63.15107 552.00000 546.82968 0.00181
63.16106 530.00000 546.62423 0.00189
63.17107 525.00000 546.42275 0.00190
63.18106 541.00000 546.22498 0.00185
63.19107 532.00000 546.02852 0.00188
63.20107 507.00000 545.83122 0.00197
63.21107 517.00000 545.62697 0.00193
63.22107 535.00000 545.39526 0.00187
63.23107 540.00000 545.11919 0.00185
63.24107 548.00000 544.91633 0.00182
63.25107 509.00000 544.75844 0.00196
63.26107 529.00000 544.61226 0.00189
63.27107 542.00000 544.47637 0.00185
63.28107 565.00000 544.34539 0.00177
63.29107 589.00000 544.21179 0.00170
63.30107 541.00000 544.08020 0.00185
63.31107 557.00000 543.95300 0.00180
63.32107 556.00000 543.83025 0.00180
63.33107 525.00000 543.71191 0.00190
63.34107 569.00000 543.59795 0.00176
63.35107 501.00000 543.48836 0.00200
63.36107 563.00000 543.38312 0.00178
63.37107 591.00000 543.28222 0.00169
63.38107 597.00000 543.18567 0.00168
63.39107 497.00000 543.09348 0.00201
63.40107 535.00000 543.00565 0.00187
63.41107 575.00000 542.92221 0.00174
63.42107 570.00000 542.84320 0.00175
63.43107 531.00000 542.76866 0.00188
63.44107 545.00000 542.69862 0.00183
63.45107 526.00000 542.63314 0.00190
63.46107 527.00000 542.57230 0.00190
63.47107 544.00000 542.51615 0.00184
63.48107 539.00000 542.46479 0.00186
63.49107 544.00000 542.41831 0.00184
63.50107 543.00000 542.37680 0.00184
63.51107 528.00000 542.34037 0.00189
63.52107 597.00000 542.30916 0.00168
63.53107 579.00000 542.28330 0.00173
63.54107 519.00000 542.26293 0.00193
63.55107 518.00000 542.24821 0.00193
63.56107 599.00000 542.23933 0.00167
63.57108 554.00000 542.23646 0.00181
63.58107 567.00000 542.23983 0.00176
63.59108 562.00000 542.24967 0.00178
63.60107 581.00000 542.26619 0.00172
63.61108 571.00000 542.28972 0.00175
63.62107 535.00000 542.32048 0.00187
63.63108 560.00000 542.35891 0.00179
63.64108 543.00000 542.40526 0.00184
63.65108 591.00000 542.45996 0.00169
63.66108 557.00000 542.52346 0.00180
63.67108 565.00000 542.59623 0.00177
63.68108 562.00000 542.67881 0.00178
63.69108 549.00000 542.77181 0.00182
63.70108 555.00000 542.87590 0.00180
63.71108 564.00000 542.99183 0.00177
63.72108 551.00000 543.12046 0.00181
63.73108 546.00000 543.26275 0.00183
63.74108 547.00000 543.41977 0.00183
63.75108 501.00000 543.59277 0.00200
63.76108 576.00000 543.78311 0.00174
63.77108 525.00000 543.99238 0.00190
63.78108 553.00000 544.22233 0.00181
63.79108 511.00000 544.47498 0.00196
63.80108 515.00000 544.75257 0.00194
63.81108 587.00000 545.05762 0.00170
63.82108 570.00000 545.39298 0.00175
63.83108 558.00000 545.76180 0.00179
63.84108 548.00000 546.16760 0.00182
63.85108 517.00000 546.61428 0.00193
63.86108 559.00000 547.10612 0.00179
63.87108 557.00000 547.64783 0.00180
63.88108 536.00000 548.24454 0.00187
63.89108 547.00000 548.90181 0.00183
63.90108 557.00000 549.62561 0.00180
63.91108 606.00000 550.42237 0.00165
63.92108 604.00000 551.29889 0.00166
63.93108 564.00000 552.26236 0.00177
63.94108 556.00000 553.32029 0.00180
63.95108 583.00000 554.48049 0.00172
63.96108 565.00000 555.75098 0.00177
63.97108 569.00000 557.13995 0.00176
63.98108 569.00000 558.65562 0.00176
63.99109 549.00000 560.30785 0.00182
64.00108 575.00000 562.09967 0.00174
64.01109 578.00000 564.04572 0.00173
64.02108 567.00000 566.14576 0.00176
64.03108 575.00000 568.41228 0.00174
64.04108 614.00000 570.84914 0.00163
64.05109 602.00000 573.46378 0.00166
64.06108 614.00000 576.25195 0.00163
64.07108 560.00000 579.22368 0.00179
64.08109 617.00000 582.38011 0.00162
64.09109 598.00000 585.71391 0.00167
64.10108 633.00000 589.22146 0.00158
64.11108 573.00000 592.90451 0.00175
64.12109 624.00000 596.75640 0.00160
64.13109 621.00000 600.76022 0.00161
64.14108 599.00000 604.90382 0.00167
64.15108 604.00000 609.18103 0.00166
64.16109 633.00000 613.57485 0.00158
64.17109 667.00000 618.05545 0.00150
64.18108 620.00000 622.59680 0.00161
64.19109 627.00000 627.18123 0.00159
64.20109 629.00000 631.75743 0.00159
64.21109 647.00000 636.28468 0.00155
64.22108 667.00000 640.70541 0.00150
64.23109 631.00000 644.97185 0.00158
64.24109 664.00000 649.00244 0.00151
64.25109 651.00000 652.72749 0.00154
64.26109 690.00000 656.06940 0.00145
64.27109 630.00000 658.95020 0.00159
64.28109 641.00000 661.29555 0.00156
64.29109 671.00000 663.03908 0.00149
64.30109 654.00000 664.12679 0.00153
64.31109 648.00000 664.52100 0.00154
64.32109 709.00000 664.20323 0.00141
64.33109 678.00000 663.17510 0.00147
64.34109 633.00000 661.45873 0.00158
64.35109 679.00000 659.10290 0.00147
64.36109 684.00000 656.17028 0.00146
64.37109 654.00000 652.73065 0.00153
64.38109 638.00000 648.85343 0.00157
64.39109 658.00000 644.61661 0.00152
64.40109 599.00000 640.10478 0.00167
64.41109 656.00000 635.39614 0.00152
64.42109 599.00000 630.56142 0.00167
64.43109 618.00000 625.66389 0.00162
64.44109 628.00000 620.75882 0.00159
64.45110 630.00000 615.88858 0.00159
64.46109 638.00000 611.10727 0.00157
64.47109 633.00000 606.43270 0.00158
64.48109 577.00000 601.89578 0.00173
64.49110 603.00000 597.51253 0.00166
64.50109 568.00000 593.31161 0.00176
64.51109 592.00000 589.29123 0.00169
64.52110 557.00000 585.45967 0.00180
64.53110 556.00000 581.82945 0.00180
64.54109 573.00000 578.40204 0.00175
64.55109 601.00000 575.17025 0.00166
64.56110 591.00000 572.13268 0.00169
64.57110 592.00000 569.29201 0.00169
64.58109 552.00000 566.64278 0.00181
64.59109 541.00000 564.17356 0.00185
64.60110 531.00000 561.87812 0.00188
64.61110 531.00000 559.75380 0.00188
64.62109 519.00000 557.79222 0.00193
64.63110 554.00000 555.97941 0.00181
64.64110 546.00000 554.31311 0.00183
64.65110 576.00000 552.78362 0.00174
64.66109 560.00000 551.38692 0.00179
64.67110 532.00000 550.11435 0.00188
64.68110 564.00000 548.94425 0.00177
64.69110 563.00000 547.86762 0.00178
64.70110 585.00000 546.88296 0.00171
64.71110 582.00000 545.98442 0.00172
64.72110 589.00000 545.16505 0.00170
64.73110 580.00000 544.41824 0.00172
64.74110 593.00000 543.73780 0.00169
64.75110 590.00000 543.11798 0.00169
64.76110 523.00000 542.55338 0.00191
64.77110 527.00000 542.03905 0.00190
64.78110 528.00000 541.57041 0.00189
64.79110 568.00000 541.14326 0.00176
64.80110 548.00000 540.75378 0.00182
64.81110 589.00000 540.39856 0.00170
64.82110 524.00000 540.07484 0.00191
64.83110 535.00000 539.78135 0.00187
64.84110 549.00000 539.51533 0.00182
64.85110 547.00000 539.26399 0.00183
64.86110 541.00000 539.02793 0.00185
64.87110 557.00000 538.80708 0.00180
64.88110 528.00000 538.59901 0.00189
64.89111 553.00000 538.40100 0.00181
64.90110 562.00000 538.21121 0.00178
64.91110 534.00000 538.02671 0.00187
64.92110 543.00000 537.84550 0.00184
64.93111 531.00000 537.66535 0.00188
64.94110 522.00000 537.48493 0.00192
64.95110 554.00000 537.30206 0.00181
64.96111 510.00000 537.11533 0.00196
64.97111 542.00000 536.92400 0.00185
64.98110 544.00000 536.72727 0.00184
64.99110 574.00000 536.52424 0.00174
65.00111 529.00000 536.31471 0.00189
65.01111 494.00000 536.09924 0.00202
65.02110 529.00000 535.87823 0.00189
65.03111 541.00000 535.65168 0.00185
65.04111 501.00000 535.42113 0.00200
65.05111 547.00000 535.18739 0.00183
65.06110 521.00000 534.95185 0.00192
65.07111 500.00000 534.71504 0.00200
65.08111 549.00000 534.47894 0.00182
65.09111 534.00000 534.24460 0.00187
65.10110 547.00000 534.01351 0.00183
65.11111 522.00000 533.78619 0.00192
65.12111 527.00000 533.56448 0.00190
65.13111 502.00000 533.34926 0.00199
65.14111 499.00000 533.14157 0.00200
65.15111 519.00000 532.94239 0.00193
65.16111 533.00000 532.75268 0.00188
65.17111 541.00000 532.57335 0.00185
65.18111 507.00000 532.40532 0.00197
65.19111 537.00000 532.24950 0.00186
65.20111 549.00000 532.10686 0.00182
65.21111 549.00000 531.97839 0.00182
65.22111 573.00000 531.86518 0.00175
65.23111 488.00000 531.76841 0.00205
65.24111 558.00000 531.68938 0.00179
65.25111 506.00000 531.62943 0.00198
65.26111 526.00000 531.58977 0.00190
65.27111 509.00000 531.57160 0.00196
65.28111 527.00000 531.57599 0.00190
65.29111 543.00000 531.60366 0.00184
65.30111 508.00000 531.65444 0.00197
65.31111 540.00000 531.72532 0.00185
65.32111 505.00000 531.79902 0.00198
65.33112 522.00000 531.85666 0.00192
65.34111 545.00000 532.01233 0.00183
65.35111 480.00000 532.26435 0.00208
65.36111 495.00000 532.57583 0.00202
65.37112 542.00000 532.94040 0.00185
65.38111 553.00000 533.35863 0.00181
65.39111 525.00000 533.83756 0.00190
65.40112 542.00000 534.38203 0.00185
65.41112 513.00000 534.99469 0.00195
65.42111 550.00000 535.67874 0.00182
65.43111 509.00000 536.43857 0.00196
65.44112 546.00000 537.27651 0.00183
65.45112 535.00000 538.19082 0.00187
65.46111 539.00000 539.17827 0.00186
65.47112 555.00000 540.24856 0.00180
65.48112 544.00000 541.41784 0.00184
65.49112 557.00000 542.67463 0.00180
65.50111 538.00000 544.01061 0.00186
65.51112 545.00000 545.42624 0.00183
65.52112 554.00000 546.91215 0.00181
65.53112 568.00000 548.46325 0.00176
65.54111 534.00000 550.07155 0.00187
65.55112 565.00000 551.73687 0.00177
65.56112 560.00000 553.42927 0.00179
65.57112 552.00000 555.10725 0.00181
65.58112 544.00000 556.76216 0.00184
65.59112 567.00000 558.37476 0.00176
65.60112 598.00000 559.91614 0.00167
65.61112 578.00000 561.35565 0.00173
65.62112 540.00000 562.66037 0.00185
65.63112 567.00000 563.79652 0.00176
65.64112 546.00000 564.73141 0.00183
65.65112 535.00000 565.43551 0.00187
65.66112 500.00000 565.88464 0.00200
65.67112 574.00000 566.06185 0.00174
65.68112 556.00000 565.95904 0.00180
65.69112 522.00000 565.57767 0.00192
65.70112 568.00000 564.92869 0.00176
65.71112 550.00000 564.03159 0.00182
65.72112 567.00000 562.91274 0.00176
65.73112 503.00000 561.60327 0.00199
65.74112 534.00000 560.13691 0.00187
65.75112 552.00000 558.54792 0.00181
65.76112 585.00000 556.86947 0.00171
65.77113 521.00000 555.13062 0.00192
65.78112 579.00000 553.36445 0.00173
65.79112 556.00000 551.59000 0.00180
65.80112 545.00000 549.82990 0.00183
65.81113 528.00000 548.09999 0.00189
65.82112 554.00000 546.41986 0.00181
65.83112 530.00000 544.79666 0.00189
65.84113 538.00000 543.24038 0.00186
65.85113 548.00000 541.75704 0.00182
65.86112 515.00000 540.35260 0.00194
65.87112 570.00000 539.02867 0.00175
65.88113 543.00000 537.78753 0.00184
65.89113 530.00000 536.63228 0.00189
65.90112 493.00000 535.56230 0.00203
65.91113 547.00000 534.57332 0.00183
65.92113 524.00000 533.66630 0.00191
65.93113 516.00000 532.83755 0.00194
65.94112 519.00000 532.08458 0.00193
65.95113 543.00000 531.40172 0.00184
65.96113 544.00000 530.78718 0.00184
65.97113 506.00000 530.23620 0.00198
65.98112 527.00000 529.74505 0.00190
65.99113 532.00000 529.30819 0.00188
66.00113 519.00000 528.92280 0.00193
66.01113 560.00000 528.58435 0.00179
66.02113 540.00000 528.28892 0.00185
66.03113 541.00000 528.03275 0.00185
66.04113 531.00000 527.81227 0.00188
66.05113 474.00000 527.62413 0.00211
66.06113 547.00000 527.46520 0.00183
66.07113 547.00000 527.33257 0.00183
66.08113 545.00000 527.22353 0.00183
66.09113 529.00000 527.13561 0.00189
66.10113 510.00000 527.06648 0.00196
66.11113 508.00000 527.01401 0.00197
66.12113 498.00000 526.97623 0.00201
66.13113 550.00000 526.95129 0.00182
66.14113 524.00000 526.93744 0.00191
66.15113 526.00000 526.93304 0.00190
66.16113 559.00000 526.93653 0.00179
66.17113 511.00000 526.94638 0.00196
66.18113 545.00000 526.96113 0.00183
66.19113 544.00000 526.97934 0.00184
66.20113 541.00000 526.99959 0.00185
66.21114 560.00000 527.02053 0.00179
66.22113 539.00000 527.04070 0.00186
66.23113 559.00000 527.05881 0.00179
66.24113 541.00000 527.07353 0.00185
66.25114 536.00000 527.08358 0.00187
66.26113 533.00000 527.08767 0.00188
66.27113 541.00000 527.08466 0.00185
66.28114 543.00000 527.07344 0.00184
66.29114 534.00000 527.05300 0.00187
66.30113 548.00000 527.02249 0.00182
66.31113 578.00000 526.98110 0.00173
66.32114 550.00000 526.92815 0.00182
66.33114 516.00000 526.86330 0.00194
66.34113 530.00000 526.78628 0.00189
66.35114 539.00000 526.69670 0.00186
66.36114 566.00000 526.59485 0.00177
66.37114 556.00000 526.48085 0.00180
66.38113 511.00000 526.35517 0.00196
66.39114 533.00000 526.21794 0.00188
66.40114 513.00000 526.07017 0.00195
66.41114 545.00000 525.91246 0.00183
66.42113 524.00000 525.74583 0.00191
66.43114 539.00000 525.57067 0.00186
66.44114 547.00000 525.38843 0.00183
66.45114 549.00000 525.19994 0.00182
66.46114 553.00000 525.00619 0.00181
66.47114 541.00000 524.80817 0.00185
66.48114 538.00000 524.60685 0.00186
66.49114 520.00000 524.40317 0.00192
66.50114 521.00000 524.19802 0.00192
66.51114 530.00000 523.99225 0.00189
66.52114 544.00000 523.78664 0.00184
66.53114 543.00000 523.58196 0.00184
66.54114 541.00000 523.37890 0.00185
66.55114 536.00000 523.17816 0.00187
66.56114 503.00000 522.98045 0.00199
66.57114 500.00000 522.78691 0.00200
66.58114 548.00000 522.59880 0.00182
66.59114 536.00000 522.41251 0.00187
66.60114 532.00000 522.22916 0.00188
66.61115 522.00000 522.04994 0.00192
66.62114 535.00000 521.87579 0.00187
66.63114 524.00000 521.70636 0.00191
66.64114 528.00000 521.54199 0.00189
66.65115 533.00000 521.38263 0.00188
66.66114 523.00000 521.22886 0.00191
66.67114 529.00000 521.08027 0.00189
66.68114 562.00000 520.93708 0.00178
66.69115 526.00000 520.79918 0.00190
66.70114 519.00000 520.66700 0.00193
66.71114 534.00000 520.54014 0.00187
66.72115 547.00000 520.41861 0.00183
66.73115 543.00000 520.30266 0.00184
66.74114 549.00000 520.19225 0.00182
66.75114 554.00000 520.08712 0.00181
66.76115 542.00000 519.98729 0.00185
66.77115 518.00000 519.89292 0.00193
66.78114 559.00000 519.80397 0.00179
66.79115 485.00000 519.72016 0.00206
66.80115 530.00000 519.64171 0.00189
66.81115 510.00000 519.56852 0.00196
66.82114 490.00000 519.50064 0.00204
66.83115 492.00000 519.43784 0.00203
66.84115 507.00000 519.38032 0.00197
66.85115 561.00000 519.32800 0.00178
66.86115 580.00000 519.28088 0.00172
66.87115 552.00000 519.23896 0.00181
66.88115 516.00000 519.20225 0.00194
66.89115 499.00000 519.17078 0.00200
66.90115 555.00000 519.14456 0.00180
66.91115 542.00000 519.12364 0.00185
66.92115 539.00000 519.10806 0.00186
66.93115 532.00000 519.09789 0.00188
66.94115 563.00000 519.09318 0.00178
66.95115 509.00000 519.09403 0.00196
66.96115 526.00000 519.10054 0.00190
66.97115 533.00000 519.11283 0.00188
66.98115 519.00000 519.13109 0.00193
66.99115 502.00000 519.15576 0.00199
67.00115 498.00000 519.18753 0.00201
67.01115 545.00000 519.22747 0.00183
67.02115 525.00000 519.27737 0.00190
67.03115 512.00000 519.34107 0.00195
67.04115 508.00000 519.43041 0.00197
67.05116 512.00000 519.55539 0.00195
67.06115 547.00000 519.65000 0.00183
67.07115 551.00000 519.73561 0.00181
67.08115 515.00000 519.82976 0.00194
67.09116 498.00000 519.93460 0.00201
67.10115 557.00000 520.05079 0.00180
67.11115 549.00000 520.17978 0.00182
67.12115 523.00000 520.32278 0.00191
67.13116 502.00000 520.48148 0.00199
67.14115 554.00000 520.65713 0.00181
67.15115 548.00000 520.85222 0.00182
67.16116 587.00000 521.06907 0.00170
67.17116 509.00000 521.30981 0.00196
67.18115 524.00000 521.57719 0.00191
67.19115 525.00000 521.87488 0.00190
67.20116 543.00000 522.20643 0.00184
67.21116 502.00000 522.57490 0.00199
67.22115 550.00000 522.98418 0.00182
67.23116 527.00000 523.43979 0.00190
67.24116 524.00000 523.94486 0.00191
67.25116 557.00000 524.50437 0.00180
67.26115 544.00000 525.12226 0.00184
67.27116 542.00000 525.80501 0.00185
67.28116 517.00000 526.55510 0.00193
67.29116 542.00000 527.37727 0.00185
67.30116 536.00000 528.27522 0.00187
67.31116 510.00000 529.25187 0.00196
67.32116 560.00000 530.30948 0.00179
67.33116 557.00000 531.45167 0.00180
67.34116 584.00000 532.67890 0.00171
67.35116 517.00000 533.99023 0.00193
67.36116 558.00000 535.38397 0.00179
67.37116 581.00000 536.85700 0.00172
67.38116 577.00000 538.40456 0.00173
67.39116 574.00000 540.02005 0.00174
67.40116 501.00000 541.69481 0.00200
67.41116 547.00000 543.41793 0.00183
67.42116 545.00000 545.17607 0.00183
67.43116 536.00000 546.95330 0.00187
67.44116 551.00000 548.73115 0.00181
67.45116 549.00000 550.48870 0.00182
67.46116 579.00000 552.20302 0.00173
67.47116 574.00000 553.84996 0.00174
67.48116 540.00000 555.40524 0.00185
67.49117 559.00000 556.84739 0.00179
67.50116 582.00000 558.15259 0.00172
67.51116 540.00000 559.31030 0.00185
67.52116 558.00000 560.31103 0.00179
67.53117 560.00000 561.15511 0.00179
67.54116 563.00000 561.84775 0.00178
67.55116 566.00000 562.40628 0.00177
67.56116 585.00000 562.85116 0.00171
67.57117 551.00000 563.20849 0.00181
67.58116 573.00000 563.50572 0.00175
67.59116 544.00000 563.77296 0.00184
67.60117 567.00000 564.03864 0.00176
67.61117 541.00000 564.32894 0.00185
67.62116 603.00000 564.66785 0.00166
67.63116 583.00000 565.07721 0.00172
67.64117 560.00000 565.57537 0.00179
67.65117 561.00000 566.17646 0.00178
67.66116 562.00000 566.89222 0.00178
67.67117 586.00000 567.73406 0.00171
67.68117 578.00000 568.70604 0.00173
67.69117 581.00000 569.81248 0.00172
67.70116 579.00000 571.05289 0.00173
67.71117 547.00000 572.42924 0.00183
67.72117 546.00000 573.93310 0.00183
67.73117 581.00000 575.55854 0.00172
67.74117 553.00000 577.29580 0.00181
67.75117 595.00000 579.13277 0.00168
67.76117 587.00000 581.05516 0.00170
67.77117 579.00000 583.04689 0.00173
67.78117 621.00000 585.09048 0.00161
67.79117 567.00000 587.16765 0.00176
67.80117 601.00000 589.25989 0.00166
67.81117 560.00000 591.34916 0.00179
67.82117 620.00000 593.41855 0.00161
67.83117 593.00000 595.45291 0.00169
67.84117 569.00000 597.43936 0.00176
67.85117 603.00000 599.36754 0.00166
67.86117 598.00000 601.22974 0.00167
67.87117 572.00000 603.02063 0.00175
67.88117 650.00000 604.73678 0.00154
67.89117 671.00000 606.37592 0.00149
67.90117 627.00000 607.93592 0.00159
67.91117 605.00000 609.41378 0.00165
67.92117 603.00000 610.80444 0.00166
67.93118 625.00000 612.10111 0.00160
67.94117 647.00000 613.28806 0.00155
67.95117 636.00000 614.35315 0.00157
67.96117 594.00000 615.27519 0.00168
67.97118 638.00000 616.03187 0.00157
67.98117 657.00000 616.59637 0.00152
67.99117 644.00000 616.94677 0.00155
68.00117 627.00000 617.06122 0.00159
68.01118 633.00000 616.92393 0.00158
68.02117 599.00000 616.52748 0.00167
68.03117 638.00000 615.87236 0.00157
68.04118 638.00000 614.96808 0.00157
68.05118 586.00000 613.83503 0.00171
68.06117 614.00000 612.49911 0.00163
68.07117 632.00000 610.98707 0.00158
68.08118 597.00000 609.32916 0.00168
68.09118 616.00000 607.55844 0.00162
68.10117 602.00000 605.70221 0.00166
68.11118 588.00000 603.77766 0.00170
68.12118 557.00000 601.80880 0.00180
68.13118 611.00000 599.80764 0.00164
68.14117 585.00000 597.78633 0.00171
68.15118 575.00000 595.74579 0.00174
68.16118 582.00000 593.69757 0.00172
68.17118 594.00000 591.64418 0.00168
68.18118 578.00000 589.59047 0.00173
68.19118 558.00000 587.54225 0.00179
68.20118 588.00000 585.50687 0.00170
68.21118 564.00000 583.49338 0.00177
68.22118 535.00000 581.51255 0.00187
68.23118 532.00000 579.57580 0.00188
68.24118 551.00000 577.69418 0.00181
68.25118 561.00000 575.88067 0.00178
68.26118 567.00000 574.14769 0.00176
68.27118 578.00000 572.50646 0.00173
68.28118 563.00000 570.96695 0.00178
68.29118 581.00000 569.53767 0.00172
68.30118 560.00000 568.22563 0.00179
68.31118 544.00000 567.03649 0.00184
68.32118 540.00000 565.97464 0.00185
68.33118 548.00000 565.04346 0.00182
68.34118 546.00000 564.24604 0.00183
68.35118 544.00000 563.58823 0.00184
68.36118 565.00000 563.07662 0.00177
68.37119 590.00000 562.67865 0.00169
68.38118 559.00000 562.40220 0.00179
68.39118 543.00000 562.25318 0.00184
68.40118 551.00000 562.23138 0.00181
68.41119 553.00000 562.33526 0.00181
68.42118 520.00000 562.56262 0.00192
68.43118 541.00000 562.91204 0.00185
68.44118 523.00000 563.38150 0.00191
68.45119 502.00000 563.96968 0.00199
68.46118 564.00000 564.67273 0.00177
68.47118 506.00000 565.49049 0.00198
68.48119 551.00000 566.42119 0.00181
68.49119 530.00000 567.46079 0.00189
68.50118 569.00000 568.60664 0.00176
68.51118 526.00000 569.85850 0.00190
68.52119 526.00000 571.21399 0.00190
68.53119 549.00000 572.66751 0.00182
68.54118 539.00000 574.21554 0.00186
68.55119 542.00000 575.85926 0.00185
68.56119 536.00000 577.58998 0.00187
68.57119 581.00000 579.40487 0.00172
68.58118 562.00000 581.29705 0.00178
68.59119 511.00000 583.26672 0.00196
68.60119 548.00000 585.30190 0.00182
68.61119 558.00000 587.39749 0.00179
68.62119 557.00000 589.54568 0.00180
68.63119 536.00000 591.73773 0.00187
68.64119 510.00000 593.96396 0.00196
68.65119 534.00000 596.21368 0.00187
68.66119 569.00000 598.47520 0.00176
68.67119 550.00000 600.73606 0.00182
68.68119 564.00000 602.98307 0.00177
68.69119 554.00000 605.19935 0.00181
68.70119 558.00000 607.36752 0.00179
68.71119 560.00000 609.47187 0.00179
68.72119 594.00000 611.49553 0.00168
68.73119 578.00000 613.42068 0.00173
68.74119 596.00000 615.22927 0.00168
68.75119 550.00000 616.90343 0.00182
68.76119 548.00000 618.42577 0.00182
68.77119 576.00000 619.77975 0.00174
68.78119 594.00000 620.95010 0.00168
68.79119 523.00000 621.92318 0.00191
68.80119 535.00000 622.68732 0.00187
68.81120 537.00000 623.23367 0.00186
68.82119 537.00000 623.55393 0.00186
68.83119 567.00000 623.64556 0.00176
68.84119 545.00000 623.50688 0.00183
68.85120 534.00000 623.13916 0.00187
68.86119 604.00000 622.54817 0.00166
68.87119 582.00000 621.73982 0.00172
68.88120 570.00000 620.72305 0.00175
68.89120 553.00000 619.51132 0.00181
68.90119 548.00000 618.11845 0.00182
68.91119 571.00000 616.55624 0.00175
68.92120 568.00000 614.83947 0.00176
68.93120 562.00000 612.98687 0.00178
68.94119 550.00000 611.01287 0.00182
68.95119 531.00000 608.91950 0.00188
68.96120 563.00000 606.71305 0.00178
68.97120 582.00000 604.48286 0.00172
68.98119 567.00000 602.22034 0.00176
68.99120 544.00000 599.91371 0.00184
69.00120 542.00000 597.59125 0.00185
69.01120 549.00000 595.26457 0.00182
69.02119 552.00000 592.94606 0.00181
69.03120 564.00000 590.64004 0.00177
69.04120 539.00000 588.36446 0.00186
69.05120 592.00000 586.12735 0.00169
69.06120 556.00000 583.93842 0.00180
69.07120 541.00000 581.80681 0.00185
69.08120 555.00000 579.74123 0.00180
69.09120 558.00000 577.74998 0.00179
69.10120 550.00000 575.84110 0.00182
69.11120 511.00000 574.02242 0.00196
69.12120 527.00000 572.30170 0.00190
69.13120 576.00000 570.68687 0.00174
69.14120 567.00000 569.18609 0.00176
69.15120 592.00000 567.80803 0.00169
69.16120 531.00000 566.56248 0.00188
69.17120 579.00000 565.46412 0.00173
69.18120 527.00000 564.53271 0.00190
69.19120 543.00000 563.74595 0.00184
69.20120 521.00000 563.09100 0.00192
69.21120 546.00000 562.59232 0.00183
69.22120 585.00000 562.26535 0.00171
69.23120 569.00000 562.11733 0.00176
69.24120 574.00000 562.15425 0.00174
69.25121 539.00000 562.38173 0.00186
69.26120 578.00000 562.80323 0.00173
69.27120 541.00000 563.42314 0.00185
69.28120 531.00000 564.24329 0.00188
69.29121 543.00000 565.26553 0.00184
69.30120 539.00000 566.48549 0.00186
69.31120 600.00000 567.90367 0.00167
69.32121 549.00000 569.51551 0.00182
69.33121 584.00000 571.31013 0.00171
69.34120 560.00000 573.27647 0.00179
69.35120 601.00000 575.40468 0.00166
69.36121 596.00000 577.67772 0.00168
69.37121 606.00000 580.06935 0.00165
69.38120 597.00000 582.55294 0.00168
69.39120 573.00000 585.10206 0.00175
69.40121 578.00000 587.67994 0.00173
69.41121 617.00000 590.23885 0.00162
69.42120 628.00000 592.73081 0.00159
69.43121 593.00000 595.10985 0.00169
69.44121 593.00000 597.31157 0.00169
69.45121 606.00000 599.27890 0.00165
69.46120 626.00000 600.95096 0.00160
69.47121 616.00000 602.27560 0.00162
69.48121 600.00000 603.19832 0.00167
69.49121 618.00000 603.68000 0.00162
69.50121 624.00000 603.69241 0.00160
69.51121 572.00000 603.22133 0.00175
69.52121 615.00000 602.26567 0.00163
69.53121 576.00000 600.84160 0.00174
69.54121 558.00000 598.99995 0.00179
69.55121 611.00000 596.77478 0.00164
69.56121 564.00000 594.20974 0.00177
69.57121 604.00000 591.35705 0.00166
69.58121 580.00000 588.26972 0.00172
69.59121 553.00000 584.99891 0.00181
69.60121 565.00000 581.59206 0.00177
69.61121 612.00000 578.09198 0.00163
69.62121 566.00000 574.53645 0.00177
69.63121 499.00000 570.95838 0.00200
69.64121 585.00000 567.38625 0.00171
69.65121 573.00000 563.84472 0.00175
69.66121 556.00000 560.35525 0.00180
69.67121 557.00000 556.93653 0.00180
69.68121 550.00000 553.60488 0.00182
69.69122 601.00000 550.37130 0.00166
69.70121 560.00000 547.25724 0.00179
69.71121 566.00000 544.26323 0.00177
69.72121 542.00000 541.40029 0.00185
69.73122 528.00000 538.67155 0.00189
69.74121 500.00000 536.08869 0.00200
69.75121 536.00000 533.64566 0.00187
69.76122 559.00000 531.34296 0.00179
69.77122 565.00000 529.18367 0.00177
69.78121 523.00000 527.16452 0.00191
69.79121 508.00000 525.27748 0.00197
69.80122 571.00000 523.51801 0.00175
69.81122 522.00000 521.88392 0.00192
69.82121 552.00000 520.36866 0.00181
69.83121 532.00000 518.96266 0.00188
69.84122 550.00000 517.65944 0.00182
69.85122 567.00000 516.45475 0.00176
69.86121 477.00000 515.34147 0.00210
69.87122 503.00000 514.30970 0.00199
69.88122 550.00000 513.35614 0.00182
69.89122 547.00000 512.47346 0.00183
69.90121 499.00000 511.65650 0.00200
69.91122 529.00000 510.89729 0.00189
69.92122 501.00000 510.19290 0.00200
69.93122 536.00000 509.53766 0.00187
69.94122 567.00000 508.92702 0.00176
69.95122 508.00000 508.35679 0.00197
69.96122 532.00000 507.82316 0.00188
69.97122 466.00000 507.32263 0.00215
69.98122 485.00000 506.85205 0.00206
69.99122 486.00000 506.40855 0.00206
70.00122 519.00000 505.98958 0.00193
70.01122 591.00000 505.59280 0.00169
70.02122 501.00000 505.21617 0.00200
70.03122 522.00000 504.85784 0.00192
70.04122 518.00000 504.51617 0.00193
70.05122 537.00000 504.18970 0.00186
70.06122 517.00000 503.87712 0.00193
70.07122 519.00000 503.57730 0.00193
70.08122 497.00000 503.28912 0.00201
70.09122 489.00000 503.01141 0.00204
70.10122 512.00000 502.74292 0.00195
70.11122 531.00000 502.48228 0.00188
70.12122 527.00000 502.22779 0.00190
70.13123 497.00000 501.97676 0.00201
70.14122 499.00000 501.72558 0.00200
70.15122 480.00000 501.46004 0.00208
70.16122 512.00000 501.16286 0.00195
70.17123 518.00000 500.89390 0.00193
70.18122 527.00000 500.67626 0.00190
70.19122 520.00000 500.47473 0.00192
70.20123 496.00000 500.27907 0.00202
70.21123 486.00000 500.08883 0.00206
70.22122 499.00000 499.90376 0.00200
70.23122 501.00000 499.72329 0.00200
70.24123 506.00000 499.54722 0.00198
70.25123 501.00000 499.37574 0.00200
70.26122 532.00000 499.20865 0.00188
70.27122 484.00000 499.04547 0.00207
70.28123 507.00000 498.88607 0.00197
70.29123 530.00000 498.73062 0.00189
70.30122 494.00000 498.57899 0.00202
70.31123 495.00000 498.43060 0.00202
70.32123 491.00000 498.28579 0.00204
70.33123 501.00000 498.14432 0.00200
70.34122 501.00000 498.00621 0.00200
70.35123 545.00000 497.87096 0.00183
70.36123 521.00000 497.73890 0.00192
70.37123 530.00000 497.60980 0.00189
70.38123 492.00000 497.48359 0.00203
70.39123 493.00000 497.36020 0.00203
70.40123 498.00000 497.23955 0.00201
70.41123 517.00000 497.12158 0.00193
70.42123 492.00000 497.00624 0.00203
70.43123 527.00000 496.89346 0.00190
70.44123 500.00000 496.78319 0.00200
70.45123 450.00000 496.67539 0.00222
70.46123 494.00000 496.57000 0.00202
70.47123 533.00000 496.46699 0.00188
70.48123 523.00000 496.36631 0.00191
70.49123 528.00000 496.26792 0.00189
70.50123 485.00000 496.17180 0.00206
70.51123 482.00000 496.07791 0.00207
70.52123 505.00000 495.98622 0.00198
70.53123 513.00000 495.89670 0.00195
70.54123 553.00000 495.80934 0.00181
70.55123 525.00000 495.72411 0.00190
70.56123 475.00000 495.64098 0.00211
70.57124 485.00000 495.55988 0.00206
70.58123 521.00000 495.48101 0.00192
70.59123 509.00000 495.40414 0.00196
70.60123 474.00000 495.32932 0.00211
70.61124 474.00000 495.25647 0.00211
70.62123 494.00000 495.18575 0.00202
70.63123 486.00000 495.11684 0.00206
70.64124 523.00000 495.04962 0.00191
70.65124 477.00000 494.98399 0.00210
70.66123 487.00000 494.91942 0.00205
70.67123 515.00000 494.85414 0.00194
70.68124 505.00000 494.78572 0.00198
70.69124 531.00000 494.72228 0.00188
70.70123 531.00000 494.66674 0.00188
70.71124 512.00000 494.61457 0.00195
70.72124 514.00000 494.56473 0.00195
70.73124 485.00000 494.51703 0.00206
70.74123 504.00000 494.47154 0.00198
70.75124 512.00000 494.42816 0.00195
70.76124 522.00000 494.38704 0.00192
70.77124 492.00000 494.34818 0.00203
70.78123 479.00000 494.31164 0.00209
70.79124 506.00000 494.27736 0.00198
70.80124 497.00000 494.24549 0.00201
70.81124 553.00000 494.21603 0.00181
70.82124 543.00000 494.18904 0.00184
70.83124 507.00000 494.16457 0.00197
70.84124 506.00000 494.14268 0.00198
70.85124 497.00000 494.12343 0.00201
70.86124 522.00000 494.10689 0.00192
70.87124 488.00000 494.09314 0.00205
70.88124 525.00000 494.08224 0.00190
70.89124 491.00000 494.07430 0.00204
70.90124 492.00000 494.06940 0.00203
70.91124 506.00000 494.06763 0.00198
70.92124 518.00000 494.06912 0.00193
70.93124 502.00000 494.07396 0.00199
70.94124 499.00000 494.08230 0.00200
70.95124 494.00000 494.09425 0.00202
70.96124 491.00000 494.10997 0.00204
70.97124 526.00000 494.12961 0.00190
70.98124 503.00000 494.15333 0.00199
70.99124 481.00000 494.18132 0.00208
71.00124 498.00000 494.21377 0.00201
71.01125 508.00000 494.25093 0.00197
71.02124 537.00000 494.29289 0.00186
71.03124 491.00000 494.34002 0.00204
71.04124 504.00000 494.39253 0.00198
71.05125 519.00000 494.45076 0.00193
71.06124 446.00000 494.51482 0.00224
71.07124 470.00000 494.58520 0.00213
71.08125 506.00000 494.66225 0.00198
71.09125 525.00000 494.74617 0.00190
71.10124 500.00000 494.83732 0.00200
71.11124 487.00000 494.93627 0.00205
71.12125 494.00000 495.04349 0.00202
71.13125 515.00000 495.15918 0.00194
71.14124 495.00000 495.28380 0.00202
71.15125 503.00000 495.41824 0.00199
71.16125 506.00000 495.56263 0.00198
71.17125 528.00000 495.71763 0.00189
71.18124 501.00000 495.88365 0.00200
71.19125 509.00000 496.06181 0.00196
71.20125 471.00000 496.25222 0.00212
71.21125 514.00000 496.45569 0.00195
71.22124 504.00000 496.67268 0.00198
71.23125 501.00000 496.90457 0.00200
71.24125 511.00000 497.15142 0.00196
71.25125 500.00000 497.41422 0.00200
71.26125 504.00000 497.69375 0.00198
71.27125 472.00000 497.99084 0.00212
71.28125 456.00000 498.30633 0.00219
71.29125 516.00000 498.64112 0.00194
71.30125 513.00000 498.99612 0.00195
71.31125 504.00000 499.37226 0.00198
71.32125 542.00000 499.77045 0.00185
71.33125 457.00000 500.19158 0.00219
71.34125 515.00000 500.63648 0.00194
71.35125 509.00000 501.10587 0.00196
71.36125 506.00000 501.60001 0.00198
71.37125 487.00000 502.11689 0.00205
71.38125 521.00000 502.65385 0.00192
71.39125 507.00000 503.23017 0.00197
71.40125 519.00000 503.84642 0.00193
71.41125 522.00000 504.49717 0.00192
71.42125 536.00000 505.18308 0.00187
71.43125 511.00000 505.90548 0.00196
71.44125 540.00000 506.66596 0.00185
71.45126 528.00000 507.46703 0.00189
71.46125 540.00000 508.30784 0.00185
71.47125 508.00000 509.19260 0.00197
71.48125 531.00000 510.12219 0.00188
71.49126 519.00000 511.09935 0.00193
71.50125 508.00000 512.12276 0.00197
71.51125 555.00000 513.19725 0.00180
71.52126 516.00000 514.32482 0.00194
71.53126 569.00000 515.50507 0.00176
71.54125 529.00000 516.73989 0.00189
71.55125 532.00000 518.03411 0.00188
71.56126 526.00000 519.39049 0.00190
71.57126 535.00000 520.80919 0.00187
71.58125 518.00000 522.29346 0.00193
71.59126 497.00000 523.85205 0.00201
71.60126 530.00000 525.48491 0.00189
71.61126 518.00000 527.19899 0.00193
71.62125 526.00000 528.99849 0.00190
71.63126 532.00000 530.89593 0.00188
71.64126 557.00000 532.89296 0.00180
71.65126 575.00000 534.99937 0.00174
71.66125 516.00000 537.22092 0.00194
71.67126 562.00000 539.57291 0.00178
71.68126 554.00000 542.05624 0.00181
71.69126 572.00000 544.68074 0.00175
71.70126 557.00000 547.45307 0.00180
71.71126 575.00000 550.37875 0.00174
71.72126 578.00000 553.46182 0.00173
71.73126 555.00000 556.70449 0.00180
71.74126 551.00000 560.10685 0.00181
71.75126 600.00000 563.66647 0.00167
71.76126 595.00000 567.37803 0.00168
71.77126 556.00000 571.23294 0.00180
71.78126 569.00000 575.21889 0.00176
71.79126 610.00000 579.31943 0.00164
71.80126 568.00000 583.51346 0.00176
71.81126 572.00000 587.77482 0.00175
71.82126 574.00000 592.07179 0.00174
71.83126 552.00000 596.36667 0.00181
71.84126 578.00000 600.61565 0.00173
71.85126 565.00000 604.77027 0.00177
71.86126 523.00000 608.77668 0.00191
71.87126 593.00000 612.57471 0.00169
71.88126 608.00000 616.10135 0.00164
71.89127 576.00000 619.29538 0.00174
71.90126 610.00000 622.08537 0.00164
71.91126 602.00000 624.42066 0.00166
71.92126 634.00000 626.24626 0.00158
71.93127 624.00000 627.52060 0.00160
71.94126 615.00000 628.21178 0.00163
71.95126 623.00000 628.30669 0.00161
71.96127 638.00000 627.80385 0.00157
71.97127 634.00000 626.72069 0.00158
71.98126 612.00000 625.08925 0.00163
71.99126 631.00000 622.94847 0.00158
72.00127 594.00000 620.34984 0.00168
72.01127 628.00000 617.35925 0.00159
72.02126 595.00000 614.04240 0.00168
72.03127 595.00000 610.45662 0.00168
72.04127 562.00000 606.68502 0.00178
72.05127 602.00000 602.77877 0.00166
72.06126 608.00000 598.75556 0.00164
72.07127 569.00000 594.66550 0.00176
72.08127 556.00000 590.57469 0.00180
72.09127 605.00000 586.51647 0.00165
72.10126 564.00000 582.52481 0.00177
72.11127 530.00000 578.61240 0.00189
72.12127 609.00000 574.81032 0.00164
72.13127 562.00000 571.12933 0.00178
72.14127 615.00000 567.57994 0.00163
72.15127 552.00000 564.16905 0.00181
72.16127 533.00000 560.90032 0.00188
72.17127 498.00000 557.77468 0.00201
72.18127 539.00000 554.79071 0.00186
72.19127 545.00000 551.94502 0.00183
72.20127 546.00000 549.23264 0.00183
72.21127 533.00000 546.64737 0.00188
72.22127 565.00000 544.18212 0.00177
72.23127 535.00000 541.82918 0.00187
72.24127 490.00000 539.58057 0.00204
72.25127 510.00000 537.42825 0.00196
72.26127 560.00000 535.36437 0.00179
72.27127 562.00000 533.38134 0.00178
72.28127 556.00000 531.47172 0.00180
72.29128 550.00000 529.62523 0.00182
72.30127 531.00000 527.84054 0.00188
72.31127 568.00000 526.12254 0.00176
72.32127 550.00000 524.46343 0.00182
72.33128 550.00000 522.85526 0.00182
72.34127 520.00000 521.30015 0.00192
72.35127 537.00000 519.79147 0.00186
72.36127 527.00000 518.32926 0.00190
72.37128 545.00000 516.91093 0.00183
72.38127 527.00000 515.53964 0.00190
72.39127 525.00000 514.21046 0.00190
72.40128 485.00000 512.92280 0.00206
72.41128 526.00000 511.67854 0.00190
72.42127 501.00000 510.47688 0.00200
72.43127 542.00000 509.31478 0.00185
72.44128 501.00000 508.19163 0.00200
72.45128 469.00000 507.10887 0.00213
72.46127 486.00000 506.06560 0.00206
72.47128 524.00000 505.05791 0.00191
72.48128 527.00000 504.08795 0.00190
72.49128 518.00000 503.15377 0.00193
72.50127 501.00000 502.25529 0.00200
72.51128 484.00000 501.38895 0.00207
72.52128 504.00000 500.55636 0.00198
72.53128 488.00000 499.75568 0.00205
72.54128 516.00000 498.98594 0.00194
72.55128 516.00000 498.24616 0.00194
72.56128 510.00000 497.53538 0.00196
72.57128 502.00000 496.85266 0.00199
72.58128 520.00000 496.19706 0.00192
72.59128 475.00000 495.56767 0.00211
72.60128 572.00000 494.96359 0.00175
72.61128 539.00000 494.38394 0.00186
72.62128 506.00000 493.82785 0.00198
72.63128 545.00000 493.29450 0.00183
72.64128 513.00000 492.78305 0.00195
72.65128 518.00000 492.29270 0.00193
72.66128 504.00000 491.82268 0.00198
72.67128 522.00000 491.37222 0.00192
72.68128 486.00000 490.94059 0.00206
72.69128 469.00000 490.52707 0.00213
72.70128 519.00000 490.13097 0.00193
72.71128 540.00000 489.75163 0.00185
72.72128 521.00000 489.38841 0.00192
72.73129 485.00000 489.04036 0.00206
72.74128 517.00000 488.70789 0.00193
72.75128 485.00000 488.38945 0.00206
72.76128 494.00000 488.08485 0.00202
72.77129 529.00000 487.79329 0.00189
72.78128 537.00000 487.51515 0.00186
72.79128 501.00000 487.24915 0.00200
72.80128 489.00000 486.99516 0.00204
72.81129 510.00000 486.75256 0.00196
72.82128 482.00000 486.52171 0.00207
72.83128 493.00000 486.30158 0.00203
72.84129 497.00000 486.09190 0.00201
72.85129 471.00000 485.89284 0.00212
72.86128 487.00000 485.70412 0.00205
72.87128 513.00000 485.52515 0.00195
72.88129 491.00000 485.35579 0.00204
72.89129 508.00000 485.19620 0.00197
72.90128 512.00000 485.04622 0.00195
72.91129 487.00000 484.90530 0.00205
72.92129 551.00000 484.77379 0.00181
72.93129 484.00000 484.65146 0.00207
72.94128 498.00000 484.53837 0.00201
72.95129 473.00000 484.43416 0.00211
72.96129 513.00000 484.33912 0.00195
72.97129 496.00000 484.25313 0.00202
72.98129 457.00000 484.17620 0.00219
72.99129 471.00000 484.10834 0.00212
73.00129 494.00000 484.04955 0.00202
73.01129 494.00000 483.99987 0.00202
73.02129 461.00000 483.95932 0.00217
73.03129 475.00000 483.92791 0.00211
73.04129 485.00000 483.90561 0.00206
73.05129 524.00000 483.89235 0.00191
73.06129 521.00000 483.88799 0.00192
73.07129 476.00000 483.89229 0.00210
73.08129 460.00000 483.90472 0.00217
73.09129 487.00000 483.92372 0.00205
73.10129 472.00000 483.94656 0.00212
73.11129 503.00000 483.97850 0.00199
73.12129 480.00000 484.02644 0.00208
73.13129 509.00000 484.08525 0.00196
73.14129 504.00000 484.15254 0.00198
73.15129 497.00000 484.22782 0.00201
73.16129 493.00000 484.31070 0.00203
73.17130 510.00000 484.40077 0.00196
73.18129 490.00000 484.49719 0.00204
73.19129 482.00000 484.59952 0.00207
73.20129 470.00000 484.70686 0.00213
73.21130 470.00000 484.81836 0.00213
73.22129 509.00000 484.93257 0.00196
73.23129 492.00000 485.04855 0.00203
73.24129 487.00000 485.16478 0.00205
73.25130 477.00000 485.27977 0.00210
73.26129 492.00000 485.39142 0.00203
73.27129 442.00000 485.49818 0.00226
73.28130 479.00000 485.59799 0.00209
73.29130 495.00000 485.68852 0.00202
73.30129 464.00000 485.76765 0.00216
73.31129 456.00000 485.83342 0.00219
73.32130 482.00000 485.88376 0.00207
73.33130 482.00000 485.91690 0.00207
73.34129 489.00000 485.93177 0.00204
73.35130 463.00000 485.92550 0.00216
73.36130 487.00000 485.89533 0.00205
73.37130 501.00000 485.84123 0.00200
73.38129 480.00000 485.76330 0.00208
73.39130 518.00000 485.66131 0.00193
73.40130 488.00000 485.53575 0.00205
73.41130 471.00000 485.38707 0.00212
73.42130 483.00000 485.21602 0.00207
73.43130 493.00000 485.02338 0.00203
73.44130 499.00000 484.80958 0.00200
73.45130 468.00000 484.57262 0.00214
73.46130 505.00000 484.30660 0.00198
73.47130 490.00000 484.02364 0.00204
73.48130 466.00000 483.75378 0.00215
73.49130 520.00000 483.48441 0.00192
73.50130 488.00000 483.21006 0.00205
73.51130 482.00000 482.93243 0.00207
73.52130 449.00000 482.65228 0.00223
73.53130 453.00000 482.37050 0.00221
73.54130 460.00000 482.08901 0.00217
73.55130 443.00000 481.80934 0.00226
73.56130 506.00000 481.53261 0.00198
73.57130 465.00000 481.25975 0.00215
73.58130 472.00000 480.99155 0.00212
73.59130 458.00000 480.72864 0.00218
73.60130 507.00000 480.47158 0.00197
73.61131 518.00000 480.22053 0.00193
73.62130 480.00000 479.97658 0.00208
73.63130 499.00000 479.73925 0.00200
73.64130 506.00000 479.50895 0.00198
73.65131 481.00000 479.28560 0.00208
73.66130 500.00000 479.06992 0.00200
73.67130 507.00000 478.86128 0.00197
73.68130 469.00000 478.65986 0.00213
73.69131 447.00000 478.46543 0.00224
73.70130 487.00000 478.27849 0.00205
73.71130 476.00000 478.09836 0.00210
73.72131 481.00000 477.92491 0.00208
73.73131 504.00000 477.75837 0.00198
73.74130 459.00000 477.59856 0.00218
73.75130 481.00000 477.44499 0.00208
73.76131 521.00000 477.29744 0.00192
73.77131 454.00000 477.15594 0.00220
73.78130 459.00000 477.02007 0.00218
73.79131 479.00000 476.88895 0.00209
73.80131 504.00000 476.76224 0.00198
73.81131 507.00000 476.63846 0.00197
73.82130 462.00000 476.51351 0.00216
73.83131 501.00000 476.38191 0.00200
73.84131 515.00000 476.26629 0.00194
73.85131 485.00000 476.16493 0.00206
73.86131 468.00000 476.06919 0.00214
73.87131 473.00000 475.97791 0.00211
73.88131 490.00000 475.89060 0.00204
73.89131 467.00000 475.80711 0.00214
73.90131 488.00000 475.72728 0.00205
73.91131 499.00000 475.65097 0.00200
73.92131 475.00000 475.57803 0.00211
73.93131 461.00000 475.50833 0.00217
73.94131 492.00000 475.44175 0.00203
73.95131 478.00000 475.37817 0.00209
73.96131 480.00000 475.31747 0.00208
73.97131 457.00000 475.25956 0.00219
73.98131 465.00000 475.20435 0.00215
73.99131 498.00000 475.15174 0.00201
74.00131 503.00000 475.10167 0.00199
74.01131 535.00000 475.05405 0.00187
74.02131 487.00000 475.00882 0.00205
74.03131 480.00000 474.96593 0.00208
74.04131 491.00000 474.92533 0.00204
74.05132 494.00000 474.88693 0.00202
74.06131 441.00000 474.85080 0.00227
74.07131 525.00000 474.81681 0.00190
74.08131 483.00000 474.78496 0.00207
74.09132 478.00000 474.75520 0.00209
74.10131 484.00000 474.72760 0.00207
74.11131 457.00000 474.70207 0.00219
74.12132 446.00000 474.67860 0.00224
74.13132 482.00000 474.65725 0.00207
74.14131 471.00000 474.63799 0.00212
74.15131 499.00000 474.62081 0.00200
74.16132 477.00000 474.60573 0.00210
74.17132 496.00000 474.59277 0.00202
74.18131 510.00000 474.58197 0.00196
74.19131 476.00000 474.57331 0.00210
74.20132 487.00000 474.56684 0.00205
74.21132 483.00000 474.56260 0.00207
74.22131 477.00000 474.56061 0.00210
74.23132 485.00000 474.56090 0.00206
74.24132 485.00000 474.56354 0.00206
74.25132 504.00000 474.56855 0.00198
74.26131 463.00000 474.57597 0.00216
74.27132 479.00000 474.58590 0.00209
74.28132 532.00000 474.59835 0.00188
74.29132 486.00000 474.61341 0.00206
74.30132 500.00000 474.63113 0.00200
74.31132 469.00000 474.65158 0.00213
74.32132 467.00000 474.67485 0.00214
74.33132 493.00000 474.70102 0.00203
74.34132 503.00000 474.73023 0.00199
74.35132 472.00000 474.76265 0.00212
74.36132 496.00000 474.79853 0.00202
74.37132 485.00000 474.83845 0.00206
74.38132 478.00000 474.88348 0.00209
74.39132 510.00000 474.93201 0.00196
74.40132 510.00000 474.98204 0.00196
74.41132 489.00000 475.03494 0.00204
74.42132 481.00000 475.09161 0.00208
74.43132 448.00000 475.15230 0.00223
74.44132 466.00000 475.21716 0.00215
74.45132 466.00000 475.28635 0.00215
74.46132 494.00000 475.36005 0.00202
74.47132 500.00000 475.43844 0.00200
74.48132 499.00000 475.52174 0.00200
74.49133 487.00000 475.61025 0.00205
74.50132 470.00000 475.70394 0.00213
74.51132 452.00000 475.80333 0.00221
74.52132 469.00000 475.90860 0.00213
74.53133 501.00000 476.02016 0.00200
74.54132 486.00000 476.13799 0.00206
74.55132 472.00000 476.26279 0.00212
74.56133 504.00000 476.39494 0.00198
74.57133 457.00000 476.53460 0.00219
74.58132 479.00000 476.68219 0.00209
74.59132 462.00000 476.83849 0.00216
74.60133 465.00000 477.00405 0.00215
74.61133 474.00000 477.17913 0.00211
74.62132 490.00000 477.36432 0.00204
74.63132 479.00000 477.56070 0.00209
74.64133 502.00000 477.76903 0.00199
74.65133 460.00000 477.98973 0.00217
74.66132 491.00000 478.22366 0.00204
74.67133 473.00000 478.47252 0.00211
74.68133 463.00000 478.73666 0.00216
74.69133 511.00000 479.01746 0.00196
74.70132 490.00000 479.31588 0.00204
74.71133 459.00000 479.63422 0.00218
74.72133 451.00000 479.97303 0.00222
74.73133 484.00000 480.33422 0.00207
74.74133 495.00000 480.71950 0.00202
74.75133 507.00000 481.13076 0.00197
74.76133 506.00000 481.56996 0.00198
74.77133 529.00000 482.03926 0.00189
74.78133 513.00000 482.54093 0.00195
74.79133 488.00000 483.07740 0.00205
74.80133 522.00000 483.65125 0.00192
74.81133 531.00000 484.26519 0.00188
74.82133 522.00000 484.92211 0.00192
74.83133 500.00000 485.62501 0.00200
74.84133 495.00000 486.37705 0.00202
74.85133 493.00000 487.18151 0.00203
74.86133 505.00000 488.04180 0.00198
74.87133 501.00000 488.96143 0.00200
74.88133 488.00000 489.94402 0.00205
74.89133 496.00000 490.99325 0.00202
74.90133 510.00000 492.11288 0.00196
74.91133 492.00000 493.30670 0.00203
74.92133 523.00000 494.57851 0.00191
74.93134 508.00000 495.93349 0.00197
74.94133 500.00000 497.37122 0.00200
74.95133 511.00000 498.89953 0.00196
74.96133 546.00000 500.52058 0.00183
74.97134 502.00000 502.23953 0.00199
74.98133 500.00000 504.05429 0.00200
74.99133 529.00000 505.97310 0.00189
75.00134 543.00000 507.99890 0.00184
75.01134 481.00000 510.12994 0.00208
75.02133 487.00000 512.36776 0.00205
75.03133 497.00000 514.71816 0.00201
75.04134 510.00000 517.18224 0.00196
75.05134 517.00000 519.75520 0.00193
75.06133 484.00000 522.43604 0.00207
75.07133 536.00000 525.22858 0.00187
75.08134 540.00000 528.13068 0.00185
75.09134 549.00000 531.13326 0.00182
75.10133 570.00000 534.23181 0.00175
75.11134 534.00000 537.42629 0.00187
75.12134 557.00000 540.69719 0.00180
75.13134 565.00000 544.03835 0.00177
75.14133 559.00000 547.43412 0.00179
75.15134 537.00000 550.87946 0.00186
75.16134 555.00000 554.34601 0.00180
75.17134 538.00000 557.81622 0.00186
75.18134 552.00000 561.26607 0.00181
75.19134 545.00000 564.66850 0.00183
75.20134 530.00000 567.99340 0.00189
75.21134 558.00000 571.20792 0.00179
75.22134 589.00000 574.27677 0.00170
75.23134 574.00000 577.16285 0.00174
75.24134 557.00000 579.82804 0.00180
75.25134 565.00000 582.23420 0.00177
75.26134 572.00000 584.34433 0.00175
75.27134 595.00000 586.12391 0.00168
75.28134 590.00000 587.54221 0.00169
75.29134 565.00000 588.57364 0.00177
75.30134 575.00000 589.19890 0.00174
75.31134 579.00000 589.40596 0.00173
75.32134 580.00000 589.19061 0.00172
75.33134 535.00000 588.55670 0.00187
75.34134 546.00000 587.51599 0.00183
75.35134 567.00000 586.08760 0.00176
75.36134 556.00000 584.29708 0.00180
75.37135 538.00000 582.17309 0.00186
75.38134 505.00000 579.75789 0.00198
75.39134 500.00000 577.08323 0.00200
75.40134 510.00000 574.18468 0.00196
75.41135 536.00000 571.09763 0.00187
75.42134 555.00000 567.87047 0.00180
75.43134 530.00000 564.52982 0.00189
75.44135 555.00000 561.10863 0.00180
75.45135 509.00000 557.64414 0.00196
75.46134 545.00000 554.16381 0.00183
75.47134 523.00000 550.68492 0.00191
75.48135 518.00000 547.22874 0.00193
75.49135 525.00000 543.82049 0.00190
75.50134 473.00000 540.47561 0.00211
75.51134 527.00000 537.20046 0.00190
75.52135 462.00000 534.00609 0.00216
75.53135 504.00000 530.90769 0.00198
75.54134 506.00000 527.91194 0.00198
75.55135 521.00000 525.01539 0.00192
75.56135 498.00000 522.23092 0.00201
75.57135 493.00000 519.55835 0.00203
75.58134 520.00000 517.00196 0.00192
75.59135 502.00000 514.55503 0.00199
75.60135 479.00000 512.22511 0.00209
75.61135 530.00000 510.00905 0.00189
75.62135 496.00000 507.90559 0.00202
75.63135 514.00000 505.91296 0.00195
75.64135 478.00000 504.02895 0.00209
75.65135 479.00000 502.25100 0.00209
75.66135 540.00000 500.57619 0.00185
75.67135 491.00000 499.00138 0.00204
75.68135 548.00000 497.52318 0.00182
75.69135 482.00000 496.13804 0.00207
75.70135 497.00000 494.84243 0.00201
75.71135 498.00000 493.63301 0.00201
75.72135 511.00000 492.50681 0.00196
75.73135 482.00000 491.46182 0.00207
75.74135 498.00000 490.50085 0.00201
75.75135 482.00000 489.63076 0.00207
75.76135 530.00000 488.80404 0.00189
75.77135 515.00000 488.02735 0.00194
75.78135 491.00000 487.30680 0.00204
75.79135 454.00000 486.64063 0.00220
75.80135 472.00000 486.02513 0.00212
75.81136 454.00000 485.45609 0.00220
75.82135 483.00000 484.93153 0.00207
75.83135 497.00000 484.44622 0.00201
75.84135 498.00000 483.99689 0.00201
75.85136 480.00000 483.57925 0.00208
75.86135 455.00000 483.19376 0.00220
75.87135 447.00000 482.83694 0.00224
75.88136 503.00000 482.50489 0.00199
75.89136 511.00000 482.19533 0.00196
75.90135 505.00000 481.90573 0.00198
75.91135 481.00000 481.63326 0.00208
75.92136 493.00000 481.37594 0.00203
75.93136 476.00000 481.13247 0.00210
75.94135 476.00000 480.90121 0.00210
75.95135 474.00000 480.68030 0.00211
75.96136 465.00000 480.46860 0.00215
75.97136 473.00000 480.26557 0.00211
75.98135 488.00000 480.07042 0.00205
75.99136 478.00000 479.88198 0.00209
76.00136 480.00000 479.70043 0.00208
76.01136 522.00000 479.52539 0.00192
76.02135 475.00000 479.35705 0.00211
76.03136 459.00000 479.19528 0.00218
76.04136 464.00000 479.04216 0.00216
76.05136 495.00000 478.89960 0.00202
76.06136 476.00000 478.75743 0.00210
76.07136 501.00000 478.61827 0.00200
76.08136 488.00000 478.48459 0.00205
76.09136 494.00000 478.35670 0.00202
76.10136 474.00000 478.23454 0.00211
76.11136 486.00000 478.11800 0.00206
76.12136 464.00000 478.00692 0.00216
76.13136 480.00000 477.90114 0.00208
76.14136 444.00000 477.80045 0.00225
76.15136 437.00000 477.70463 0.00229
76.16136 524.00000 477.61344 0.00191
76.17136 487.00000 477.52666 0.00205
76.18136 506.00000 477.44404 0.00198
76.19136 446.00000 477.36537 0.00224
76.20136 486.00000 477.29046 0.00206
76.21136 489.00000 477.21916 0.00204
76.22136 492.00000 477.15136 0.00203
76.23136 488.00000 477.08700 0.00205
76.24136 471.00000 477.02609 0.00212
76.25137 492.00000 476.96867 0.00203
76.26136 486.00000 476.91501 0.00206
76.27136 508.00000 476.86520 0.00197
76.28136 482.00000 476.81958 0.00207
76.29137 487.00000 476.77847 0.00205
76.30136 465.00000 476.74244 0.00215
76.31136 496.00000 476.71189 0.00202
76.32137 454.00000 476.68742 0.00220
76.33137 507.00000 476.66970 0.00197
76.34136 495.00000 476.65942 0.00202
76.35136 469.00000 476.65729 0.00213
76.36137 466.00000 476.66414 0.00215
76.37137 494.00000 476.68076 0.00202
76.38136 474.00000 476.70797 0.00211
76.39137 494.00000 476.74679 0.00202
76.40137 474.00000 476.79806 0.00211
76.41137 470.00000 476.86284 0.00213
76.42136 509.00000 476.94243 0.00196
76.43137 476.00000 477.03905 0.00210
76.44137 512.00000 477.15024 0.00195
76.45137 484.00000 477.27732 0.00207
76.46136 501.00000 477.42180 0.00200
76.47137 503.00000 477.58536 0.00199
76.48137 529.00000 477.76845 0.00189
76.49137 511.00000 477.97211 0.00196
76.50137 504.00000 478.19726 0.00198
76.51137 476.00000 478.44476 0.00210
76.52137 503.00000 478.71549 0.00199
76.53137 515.00000 479.01032 0.00194
76.54137 504.00000 479.33010 0.00198
76.55137 480.00000 479.67567 0.00208
76.56137 487.00000 480.04786 0.00205
76.57137 496.00000 480.44749 0.00202
76.58137 482.00000 480.87534 0.00207
76.59137 458.00000 481.33220 0.00218
76.60137 488.00000 481.81881 0.00205
76.61137 487.00000 482.33591 0.00205
76.62137 507.00000 482.88418 0.00197
76.63137 463.00000 483.46430 0.00216
76.64137 486.00000 484.07686 0.00206
76.65137 512.00000 484.72244 0.00195
76.66137 482.00000 485.40153 0.00207
76.67137 485.00000 486.11459 0.00206
76.68137 498.00000 486.86196 0.00201
76.69138 476.00000 487.64473 0.00210
76.70137 471.00000 488.46062 0.00212
76.71137 465.00000 489.31214 0.00215
76.72137 469.00000 490.19832 0.00213
76.73138 494.00000 491.11982 0.00202
76.74137 513.00000 492.07336 0.00195
76.75137 481.00000 493.06113 0.00208
76.76138 496.00000 494.08234 0.00202
76.77138 503.00000 495.13375 0.00199
76.78137 478.00000 496.21378 0.00209
76.79137 468.00000 497.32277 0.00214
76.80138 461.00000 498.45834 0.00217
76.81138 509.00000 499.61508 0.00196
76.82137 488.00000 500.78907 0.00205
76.83138 510.00000 501.97880 0.00196
76.84138 472.00000 503.17299 0.00212
76.85138 475.00000 504.35681 0.00211
76.86137 523.00000 505.51654 0.00191
76.87138 495.00000 506.71420 0.00202
76.88138 465.00000 507.91899 0.00215
76.89138 508.00000 509.10880 0.00197
76.90137 479.00000 510.27380 0.00209
76.91138 487.00000 511.40945 0.00205
76.92138 469.00000 512.50399 0.00213
76.93138 506.00000 513.54989 0.00198
76.94138 500.00000 514.53826 0.00200
76.95138 459.00000 515.46016 0.00218
76.96138 484.00000 516.30676 0.00207
76.97138 469.00000 517.06951 0.00213
76.98138 487.00000 517.74032 0.00205
76.99138 499.00000 518.31179 0.00200
77.00138 476.00000 518.77739 0.00210
77.01138 510.00000 519.13159 0.00196
77.02138 483.00000 519.37011 0.00207
77.03138 490.00000 519.48997 0.00204
77.04138 468.00000 519.48962 0.00214
77.05138 495.00000 519.36898 0.00202
77.06138 491.00000 519.12944 0.00204
77.07138 519.00000 518.77383 0.00193
77.08138 476.00000 518.30633 0.00210
77.09138 497.00000 517.73235 0.00201
77.10138 481.00000 517.05842 0.00208
77.11138 497.00000 516.29206 0.00201
77.12138 493.00000 515.44163 0.00203
77.13139 479.00000 514.51547 0.00209
77.14138 464.00000 513.52753 0.00216
77.15138 462.00000 512.48456 0.00216
77.16138 473.00000 511.38666 0.00211
77.17139 485.00000 510.24449 0.00206
77.18138 456.00000 509.07238 0.00219
77.19138 510.00000 507.87534 0.00196
77.20139 483.00000 506.66089 0.00207
77.21139 489.00000 505.43848 0.00204
77.22138 509.00000 504.21450 0.00196
77.23138 446.00000 502.99228 0.00224
77.24139 461.00000 501.77701 0.00217
77.25139 476.00000 500.57567 0.00210
77.26138 489.00000 499.39217 0.00204
77.27139 479.00000 498.22639 0.00209
77.28139 493.00000 497.08468 0.00203
77.29139 496.00000 495.96821 0.00202
77.30138 486.00000 494.87989 0.00206
77.31139 444.00000 493.81795 0.00225
77.32139 484.00000 492.78659 0.00207
77.33139 487.00000 491.78534 0.00205
77.34138 482.00000 490.81545 0.00207
77.35139 477.00000 489.87402 0.00210
77.36139 496.00000 488.96356 0.00202
77.37139 445.00000 488.08252 0.00225
77.38139 446.00000 487.23006 0.00224
77.39139 448.00000 486.40515 0.00223
77.40139 449.00000 485.60656 0.00223
77.41139 507.00000 484.83291 0.00197
77.42139 484.00000 484.08270 0.00207
77.43139 481.00000 483.35435 0.00208
77.44139 513.00000 482.64618 0.00195
77.45139 483.00000 481.95652 0.00207
77.46139 497.00000 481.28368 0.00201
77.47139 502.00000 480.62602 0.00199
77.48139 510.00000 479.98194 0.00196
77.49139 461.00000 479.34997 0.00217
77.50139 475.00000 478.72873 0.00211
77.51139 493.00000 478.11701 0.00203
77.52139 485.00000 477.51373 0.00206
77.53139 494.00000 476.91802 0.00202
77.54139 464.00000 476.32910 0.00216
77.55139 491.00000 475.74623 0.00204
77.56139 471.00000 475.16869 0.00212
77.57140 454.00000 474.59514 0.00220
77.58139 485.00000 474.02618 0.00206
77.59139 475.00000 473.45805 0.00211
77.60139 503.00000 472.88369 0.00199
77.61140 474.00000 472.29310 0.00211
77.62139 465.00000 471.73486 0.00215
77.63139 451.00000 471.20685 0.00222
77.64140 462.00000 470.68396 0.00216
77.65140 438.00000 470.16806 0.00228
77.66139 467.00000 469.66088 0.00214
77.67139 496.00000 469.16225 0.00202
77.68140 441.00000 468.67261 0.00227
77.69140 468.00000 468.19329 0.00214
77.70139 456.00000 467.72457 0.00219
77.71140 482.00000 467.26536 0.00207
77.72140 449.00000 466.81723 0.00223
77.73140 473.00000 466.37990 0.00211
77.74139 492.00000 465.95389 0.00203
77.75140 475.00000 465.53802 0.00211
77.76140 449.00000 465.13357 0.00223
77.77140 484.00000 464.74009 0.00207
77.78139 499.00000 464.35791 0.00200
77.79140 486.00000 463.98582 0.00206
77.80140 485.00000 463.62482 0.00206
77.81140 516.00000 463.27440 0.00194
77.82140 468.00000 462.93440 0.00214
77.83140 468.00000 462.60462 0.00214
77.84140 459.00000 462.28483 0.00218
77.85140 460.00000 461.97477 0.00217
77.86140 466.00000 461.67411 0.00215
77.87140 471.00000 461.38239 0.00212
77.88140 483.00000 461.09860 0.00207
77.89140 444.00000 460.82133 0.00225
77.90140 473.00000 460.55420 0.00211
77.91140 505.00000 460.29823 0.00198
77.92140 508.00000 460.05115 0.00197
77.93140 462.00000 459.81229 0.00216
77.94140 446.00000 459.58130 0.00224
77.95140 471.00000 459.35799 0.00212
77.96140 464.00000 459.14214 0.00216
77.97141 499.00000 458.93335 0.00200
77.98140 485.00000 458.73203 0.00206
77.99140 497.00000 458.53738 0.00201
78.00140 476.00000 458.34943 0.00210
78.01141 521.00000 458.16782 0.00192
78.02140 484.00000 457.99290 0.00207
78.03140 446.00000 457.82399 0.00224
78.04140 468.00000 457.66110 0.00214
78.05141 464.00000 457.50393 0.00216
78.06140 481.00000 457.35279 0.00208
78.07140 475.00000 457.20710 0.00211
78.08141 479.00000 457.06675 0.00209
78.09141 428.00000 456.93188 0.00234
78.10140 445.00000 456.80239 0.00225
78.11140 464.00000 456.67791 0.00216
78.12141 484.00000 456.55836 0.00207
78.13141 452.00000 456.44391 0.00221
78.14140 452.00000 456.33446 0.00221
78.15141 438.00000 456.22966 0.00228
78.16141 469.00000 456.12976 0.00213
78.17141 417.00000 456.03463 0.00240
78.18140 461.00000 455.94434 0.00217
78.19141 459.00000 455.85863 0.00218
78.20141 490.00000 455.77778 0.00204
78.21141 446.00000 455.70172 0.00224
78.22141 453.00000 455.63053 0.00221
78.23141 433.00000 455.56426 0.00231
78.24141 488.00000 455.50302 0.00205
78.25141 455.00000 455.44693 0.00220
78.26141 477.00000 455.39614 0.00210
78.27141 484.00000 455.35083 0.00207
78.28141 518.00000 455.31120 0.00193
78.29141 500.00000 455.27749 0.00200
78.30141 437.00000 455.24996 0.00229
78.31141 484.00000 455.22893 0.00207
78.32141 456.00000 455.21473 0.00219
78.33141 478.00000 455.20773 0.00209
78.34141 443.00000 455.20835 0.00226
78.35141 491.00000 455.21702 0.00204
78.36141 479.00000 455.23423 0.00209
78.37141 479.00000 455.26049 0.00209
78.38141 456.00000 455.29634 0.00219
78.39141 460.00000 455.34234 0.00217
78.40141 435.00000 455.39909 0.00230
78.41142 496.00000 455.46727 0.00202
78.42141 487.00000 455.54728 0.00205
78.43141 454.00000 455.63996 0.00220
78.44141 488.00000 455.74587 0.00205
78.45142 455.00000 455.86574 0.00220
78.46141 476.00000 455.99980 0.00210
78.47141 497.00000 456.14898 0.00201
78.48141 498.00000 456.31368 0.00201
78.49142 460.00000 456.49458 0.00217
78.50141 461.00000 456.69151 0.00217
78.51141 469.00000 456.90537 0.00213
78.52142 451.00000 457.13647 0.00222
78.53142 412.00000 457.38450 0.00243
78.54141 479.00000 457.64943 0.00209
78.55141 472.00000 457.93172 0.00212
78.56142 467.00000 458.23116 0.00214
78.57142 465.00000 458.54677 0.00215
78.58141 423.00000 458.87791 0.00236
78.59142 473.00000 459.22483 0.00211
78.60142 474.00000 459.58550 0.00211
78.61142 452.00000 459.95901 0.00221
78.62141 438.00000 460.34344 0.00228
78.63142 461.00000 460.73816 0.00217
78.64142 435.00000 461.13983 0.00230
78.65142 470.00000 461.54639 0.00213
78.66142 458.00000 461.95501 0.00218
78.67142 477.00000 462.36256 0.00210
78.68142 501.00000 462.76561 0.00200
78.69142 467.00000 463.16053 0.00214
78.70142 445.00000 463.54355 0.00225
78.71142 480.00000 463.91094 0.00208
78.72142 463.00000 464.25916 0.00216
78.73142 467.00000 464.58509 0.00214
78.74142 503.00000 464.88619 0.00199
78.75142 438.00000 465.16076 0.00228
78.76142 448.00000 465.40805 0.00223
78.77142 461.00000 465.62843 0.00217
78.78142 471.00000 465.82340 0.00212
78.79142 469.00000 465.99558 0.00213
78.80142 452.00000 466.14857 0.00221
78.81142 456.00000 466.28683 0.00219
78.82142 471.00000 466.41543 0.00212
78.83142 450.00000 466.53984 0.00222
78.84142 467.00000 466.66570 0.00214
78.85143 480.00000 466.79876 0.00208
78.86142 434.00000 466.94401 0.00230
78.87142 474.00000 467.10693 0.00211
78.88142 460.00000 467.29200 0.00217
78.89143 482.00000 467.50359 0.00207
78.90142 445.00000 467.74459 0.00225
78.91142 462.00000 468.01873 0.00216
78.92142 474.00000 468.32824 0.00211
78.93143 453.00000 468.67539 0.00221
78.94142 476.00000 469.06042 0.00210
78.95142 474.00000 469.48521 0.00211
78.96143 483.00000 469.95008 0.00207
78.97143 482.00000 470.45374 0.00207
78.98142 463.00000 470.99513 0.00216
78.99142 511.00000 471.57382 0.00196
79.00143 466.00000 472.18784 0.00215
79.01143 498.00000 472.83332 0.00201
79.02142 503.00000 473.50705 0.00199
79.03143 442.00000 474.20759 0.00226
79.04143 462.00000 474.92907 0.00216
79.05143 458.00000 475.66829 0.00218
79.06142 517.00000 476.42073 0.00193
79.07143 490.00000 477.18532 0.00204
79.08143 456.00000 477.95702 0.00219
79.09143 459.00000 478.73479 0.00218
79.10143 464.00000 479.51798 0.00216
79.11143 455.00000 480.30718 0.00220
79.12143 492.00000 481.10436 0.00203
79.13143 501.00000 481.91276 0.00200
79.14143 524.00000 482.73680 0.00191
79.15143 483.00000 483.58184 0.00207
79.16143 495.00000 484.45393 0.00202
79.17143 494.00000 485.35952 0.00202
79.18143 502.00000 486.30521 0.00199
79.19143 472.00000 487.29748 0.00212
79.20143 500.00000 488.34254 0.00200
79.21143 503.00000 489.44615 0.00199
79.22143 487.00000 490.61351 0.00205
79.23143 471.00000 491.84923 0.00212
79.24143 468.00000 493.15725 0.00214
79.25143 468.00000 494.54082 0.00214
79.26143 442.00000 496.00249 0.00226
79.27143 481.00000 497.54409 0.00208
79.28143 476.00000 499.16671 0.00210
79.29144 499.00000 500.87241 0.00200
79.30143 481.00000 502.65543 0.00208
79.31143 503.00000 504.51970 0.00199
79.32143 508.00000 506.46123 0.00197
79.33144 482.00000 508.47891 0.00207
79.34143 488.00000 510.56246 0.00205
79.35143 505.00000 512.71306 0.00198
79.36143 496.00000 514.92124 0.00202
79.37144 491.00000 517.18072 0.00204
79.38143 520.00000 519.47565 0.00192
79.39143 486.00000 521.80184 0.00206
79.40144 505.00000 524.14649 0.00198
79.41144 512.00000 526.49495 0.00195
79.42143 483.00000 528.83118 0.00207
79.43143 502.00000 531.14196 0.00199
79.44144 511.00000 533.40904 0.00196
79.45144 513.00000 535.60846 0.00195
79.46143 536.00000 537.71997 0.00187
79.47144 539.00000 539.72842 0.00186
79.48144 509.00000 541.60599 0.00196
79.49144 484.00000 543.33300 0.00207
79.50143 513.00000 544.88674 0.00195
79.51144 478.00000 546.25118 0.00209
79.52144 497.00000 547.40333 0.00201
79.53144 565.00000 548.32791 0.00177
79.54144 516.00000 549.01088 0.00194
79.55144 518.00000 549.44123 0.00193
79.56144 503.00000 549.61141 0.00199
79.57144 538.00000 549.51758 0.00186
79.58144 514.00000 549.15969 0.00195
79.59144 506.00000 548.54154 0.00198
79.60144 505.00000 547.67056 0.00198
79.61144 487.00000 546.55756 0.00205
79.62144 492.00000 545.21632 0.00203
79.63144 465.00000 543.66314 0.00215
79.64144 519.00000 541.91623 0.00193
79.65144 512.00000 539.99519 0.00195
79.66144 511.00000 537.92044 0.00196
79.67144 507.00000 535.71268 0.00197
79.68144 495.00000 533.39231 0.00202
79.69144 513.00000 530.97875 0.00195
79.70144 488.00000 528.48935 0.00205
79.71144 451.00000 525.94248 0.00222
79.72144 466.00000 523.36442 0.00215
79.73145 519.00000 520.76450 0.00193
79.74144 509.00000 518.16212 0.00196
79.75144 496.00000 515.56177 0.00202
79.76144 473.00000 512.97714 0.00211
79.77145 489.00000 510.41537 0.00204
79.78144 486.00000 507.89245 0.00206
79.79144 472.00000 505.40791 0.00212
79.80145 505.00000 502.96794 0.00198
79.81145 483.00000 500.58242 0.00207
79.82144 486.00000 498.25535 0.00206
79.83144 480.00000 495.98551 0.00208
79.84145 443.00000 493.77591 0.00226
79.85145 473.00000 491.63364 0.00211
79.86144 509.00000 489.56143 0.00196
79.87144 501.00000 487.55249 0.00200
79.88145 517.00000 485.60621 0.00193
79.89145 520.00000 483.72819 0.00192
79.90144 515.00000 481.91883 0.00194
79.91145 473.00000 480.17265 0.00211
79.92145 435.00000 478.49436 0.00230
79.93145 487.00000 476.88148 0.00205
79.94144 494.00000 475.33463 0.00202
79.95145 486.00000 473.84834 0.00206
79.96145 462.00000 472.42601 0.00216
79.97145 462.00000 471.06501 0.00216
79.98145 446.00000 469.76412 0.00224
79.99145 471.00000 468.52213 0.00212
80.00145 436.00000 467.33779 0.00229
80.01145 439.00000 466.20987 0.00228
80.02145 460.00000 465.13712 0.00217
80.03145 460.00000 464.11837 0.00217
80.04145 448.00000 463.15244 0.00223
80.05145 475.00000 462.23823 0.00211
80.06145 439.00000 461.37470 0.00228
80.07145 475.00000 460.56085 0.00211
80.08145 487.00000 459.79579 0.00205
80.09145 481.00000 459.07868 0.00208
80.10145 485.00000 458.40879 0.00206
80.11145 431.00000 457.78544 0.00232
80.12145 472.00000 457.20805 0.00212
80.13145 435.00000 456.67612 0.00230
80.14145 484.00000 456.18919 0.00207
80.15145 462.00000 455.74684 0.00216
80.16145 477.00000 455.34871 0.00210
80.17146 459.00000 454.99401 0.00218
80.18145 481.00000 454.68282 0.00208
80.19145 444.00000 454.41313 0.00225
80.20145 432.00000 454.18920 0.00231
80.21146 441.00000 454.00975 0.00227
80.22145 476.00000 453.87358 0.00210
80.23145 449.00000 453.78005 0.00223
80.24146 467.00000 453.72877 0.00214
80.25146 489.00000 453.71929 0.00204
80.26145 518.00000 453.75079 0.00193
80.27145 463.00000 453.82254 0.00216
80.28146 456.00000 453.93360 0.00219
80.29146 481.00000 454.08244 0.00208
80.30145 457.00000 454.26740 0.00219
80.31145 481.00000 454.48703 0.00208
80.32146 453.00000 454.73924 0.00221
80.33146 411.00000 455.02089 0.00243
80.34145 460.00000 455.32890 0.00217
80.35146 468.00000 455.66075 0.00214
80.36146 471.00000 456.01162 0.00212
80.37146 455.00000 456.37776 0.00220
80.38145 437.00000 456.75470 0.00229
80.39146 459.00000 457.14197 0.00218
80.40146 482.00000 457.54108 0.00207
80.41146 472.00000 457.91866 0.00212
80.42146 478.00000 458.26659 0.00209
80.43146 472.00000 458.58351 0.00212
80.44146 467.00000 458.86345 0.00214
80.45146 453.00000 459.09778 0.00221
80.46146 471.00000 459.27759 0.00212
80.47146 468.00000 459.39447 0.00214
80.48146 479.00000 459.44093 0.00209
80.49146 472.00000 459.41080 0.00212
80.50146 473.00000 459.29956 0.00211
80.51146 477.00000 459.10463 0.00210
80.52146 467.00000 458.82554 0.00214
80.53146 486.00000 458.46391 0.00206
80.54146 461.00000 458.02338 0.00217
80.55146 490.00000 457.50935 0.00204
80.56146 430.00000 456.92863 0.00233
80.57146 473.00000 456.28908 0.00211
80.58146 488.00000 455.59918 0.00205
80.59146 478.00000 454.86769 0.00209
80.60146 437.00000 454.10327 0.00229
80.61147 483.00000 453.31346 0.00207
80.62146 491.00000 452.50848 0.00204
80.63146 453.00000 451.69309 0.00221
80.64146 439.00000 450.87454 0.00228
80.65147 428.00000 450.05777 0.00234
80.66146 445.00000 449.25018 0.00225
80.67146 435.00000 448.45368 0.00230
80.68147 457.00000 447.67197 0.00219
80.69147 477.00000 446.90969 0.00210
80.70146 446.00000 446.16933 0.00224
80.71146 493.00000 445.45147 0.00203
80.72147 459.00000 444.75782 0.00218
80.73147 450.00000 444.09097 0.00222
80.74146 465.00000 443.45171 0.00215
80.75146 462.00000 442.83933 0.00216
80.76147 470.00000 442.25418 0.00213
80.77147 479.00000 441.69741 0.00209
80.78146 461.00000 441.16873 0.00217
80.79147 464.00000 440.66621 0.00216
80.80147 473.00000 440.19076 0.00211
80.81147 437.00000 439.74114 0.00229
80.82146 470.00000 439.31688 0.00213
80.83147 443.00000 438.91581 0.00226
80.84147 472.00000 438.53807 0.00212
80.85147 448.00000 438.18214 0.00223
80.86147 466.00000 437.84688 0.00215
80.87147 483.00000 437.53107 0.00207
80.88147 438.00000 437.23353 0.00228
80.89147 432.00000 436.95305 0.00231
80.90147 462.00000 436.68844 0.00216
80.91147 446.00000 436.43854 0.00224
80.92147 450.00000 436.20222 0.00222
80.93147 432.00000 435.97838 0.00231
80.94147 457.00000 435.76597 0.00219
80.95147 432.00000 435.56398 0.00231
80.96147 466.00000 435.37147 0.00215
80.97147 493.00000 435.18754 0.00203
80.98147 453.00000 435.01133 0.00221
80.99147 441.00000 434.84206 0.00227
81.00147 420.00000 434.67898 0.00238
81.01147 416.00000 434.52141 0.00240
81.02147 459.00000 434.36871 0.00218
81.03147 468.00000 434.22029 0.00214
81.04147 449.00000 434.07560 0.00223
81.05148 474.00000 433.93403 0.00211
81.06147 447.00000 433.79553 0.00224
81.07147 447.00000 433.65928 0.00224
81.08147 454.00000 433.52507 0.00220
81.09148 465.00000 433.39244 0.00215
81.10147 459.00000 433.26150 0.00218
81.11147 455.00000 433.13162 0.00220
81.12148 430.00000 433.00261 0.00233
81.13148 421.00000 432.87454 0.00238
81.14147 473.00000 432.74729 0.00211
81.15147 443.00000 432.62049 0.00226
81.16148 452.00000 432.49408 0.00221
81.17148 474.00000 432.36826 0.00211
81.18147 451.00000 432.24300 0.00222
81.19147 456.00000 432.11805 0.00219
81.20148 414.00000 431.99342 0.00242
81.21148 451.00000 431.86940 0.00222
81.22147 433.00000 431.74602 0.00231
81.23148 434.00000 431.62296 0.00230
81.24148 479.00000 431.50066 0.00209
81.25148 460.00000 431.37903 0.00217
81.26147 452.00000 431.25828 0.00221
81.27148 442.00000 431.13810 0.00226
81.28148 438.00000 431.01891 0.00228
81.29148 421.00000 430.90066 0.00238
81.30148 470.00000 430.78340 0.00213
81.31148 432.00000 430.66719 0.00231
81.32148 436.00000 430.55208 0.00229
81.33148 420.00000 430.43810 0.00238
81.34148 444.00000 430.32531 0.00225
81.35148 454.00000 430.21374 0.00220
81.36148 460.00000 430.10342 0.00217
81.37148 460.00000 429.99438 0.00217
81.38148 448.00000 429.88664 0.00223
81.39148 448.00000 429.78014 0.00223
81.40148 455.00000 429.67456 0.00220
81.41148 427.00000 429.56931 0.00234
81.42148 431.00000 429.46331 0.00232
81.43148 436.00000 429.35434 0.00229
81.44148 452.00000 429.23514 0.00221
81.45148 454.00000 429.09357 0.00220
81.46148 422.00000 428.96175 0.00237
81.47148 418.00000 428.85838 0.00239
81.48148 413.00000 428.76343 0.00242
81.49149 425.00000 428.67143 0.00235
81.50148 426.00000 428.58108 0.00235
81.51148 442.00000 428.49213 0.00226
81.52148 426.00000 428.40469 0.00235
81.53149 432.00000 428.31868 0.00231
81.54148 452.00000 428.23438 0.00221
81.55148 434.00000 428.15155 0.00230
81.56149 458.00000 428.07024 0.00218
81.57149 427.00000 427.99062 0.00234
81.58148 458.00000 427.91273 0.00218
81.59148 451.00000 427.83644 0.00222
81.60149 439.00000 427.76180 0.00228
81.61149 429.00000 427.68899 0.00233
81.62148 458.00000 427.61808 0.00218
81.63148 443.00000 427.54896 0.00226
81.64149 429.00000 427.48170 0.00233
81.65149 440.00000 427.41650 0.00227
81.66148 445.00000 427.35342 0.00225
81.67149 420.00000 427.29237 0.00238
81.68149 454.00000 427.23361 0.00220
81.69149 430.00000 427.17717 0.00233
81.70148 439.00000 427.12320 0.00228
81.71149 443.00000 427.07166 0.00226
81.72149 424.00000 427.02282 0.00236
81.73149 438.00000 426.97676 0.00228
81.74149 450.00000 426.93360 0.00222
81.75149 454.00000 426.89350 0.00220
81.76149 418.00000 426.85660 0.00239
81.77149 421.00000 426.82307 0.00238
81.78149 462.00000 426.79308 0.00216
81.79149 444.00000 426.76680 0.00225
81.80149 451.00000 426.74444 0.00222
81.81149 425.00000 426.72618 0.00235
81.82149 445.00000 426.71225 0.00225
81.83149 414.00000 426.70293 0.00242
81.84149 452.00000 426.69857 0.00221
81.85149 447.00000 426.69982 0.00224
81.86149 413.00000 426.70800 0.00242
81.87149 437.00000 426.72310 0.00229
81.88149 458.00000 426.74132 0.00218
81.89149 463.00000 426.76433 0.00216
81.90149 420.00000 426.79328 0.00238
81.91149 436.00000 426.82868 0.00229
81.92149 417.00000 426.87081 0.00240
81.93150 418.00000 426.91998 0.00239
81.94149 434.00000 426.97628 0.00230
81.95149 438.00000 427.04011 0.00228
81.96149 491.00000 427.11167 0.00204
81.97150 434.00000 427.19125 0.00230
81.98149 444.00000 427.27884 0.00225
81.99149 430.00000 427.37487 0.00233
82.00150 424.00000 427.47958 0.00236
82.01150 464.00000 427.59291 0.00216
82.02149 445.00000 427.71498 0.00225
82.03149 463.00000 427.84616 0.00216
82.04150 448.00000 427.98655 0.00223
82.05150 434.00000 428.13593 0.00230
82.06149 444.00000 428.29427 0.00225
82.07150 442.00000 428.46203 0.00226
82.08150 457.00000 428.63863 0.00219
82.09150 410.00000 428.82408 0.00244
82.10149 446.00000 429.01796 0.00224
82.11150 406.00000 429.22056 0.00246
82.12150 429.00000 429.43090 0.00233
82.13150 432.00000 429.64871 0.00231
82.14149 441.00000 429.87315 0.00227
82.15150 443.00000 430.10418 0.00226
82.16150 449.00000 430.34029 0.00223
82.17150 430.00000 430.58070 0.00233
82.18150 418.00000 430.82425 0.00239
82.19150 415.00000 431.06963 0.00241
82.20150 440.00000 431.31536 0.00227
82.21150 453.00000 431.55977 0.00221
82.22150 457.00000 431.80103 0.00219
82.23150 448.00000 432.03716 0.00223
82.24150 431.00000 432.26602 0.00232
82.25150 423.00000 432.48537 0.00236
82.26150 422.00000 432.69289 0.00237
82.27150 441.00000 432.88623 0.00227
82.28150 422.00000 433.06307 0.00237
82.29150 435.00000 433.22117 0.00230
82.30150 392.00000 433.35847 0.00255
82.31150 428.00000 433.47315 0.00234
82.32150 449.00000 433.56368 0.00223
82.33150 420.00000 433.62892 0.00238
82.34150 409.00000 433.66818 0.00244
82.35150 441.00000 433.68123 0.00227
82.36150 443.00000 433.66835 0.00226
82.37151 407.00000 433.63030 0.00246
82.38150 434.00000 433.56851 0.00230
82.39150 431.00000 433.48461 0.00232
82.40150 486.00000 433.38084 0.00206
82.41151 458.00000 433.25962 0.00218
82.42150 439.00000 433.12417 0.00228
82.43150 455.00000 432.97714 0.00220
82.44151 451.00000 432.82170 0.00222
82.45151 452.00000 432.66144 0.00221
82.46150 453.00000 432.49966 0.00221
82.47150 455.00000 432.33908 0.00220
82.48151 465.00000 432.18262 0.00215
82.49151 426.00000 432.03357 0.00235
82.50150 434.00000 431.89463 0.00230
82.51151 452.00000 431.76789 0.00221
82.52151 439.00000 431.65601 0.00228
82.53151 464.00000 431.56086 0.00216
82.54150 424.00000 431.48429 0.00236
82.55151 472.00000 431.42758 0.00212
82.56151 416.00000 431.39222 0.00240
82.57151 455.00000 431.37915 0.00220
82.58150 429.00000 431.38910 0.00233
82.59151 430.00000 431.42261 0.00233
82.60151 433.00000 431.47989 0.00231
82.61151 427.00000 431.56092 0.00234
82.62151 473.00000 431.66541 0.00211
82.63151 454.00000 431.79278 0.00220
82.64151 429.00000 431.94214 0.00233
82.65151 385.00000 432.11230 0.00260
82.66151 426.00000 432.30172 0.00235
82.67151 431.00000 432.50850 0.00232
82.68151 457.00000 432.73035 0.00219
82.69151 457.00000 432.96457 0.00219
82.70151 427.00000 433.20802 0.00234
82.71151 433.00000 433.45712 0.00231
82.72151 426.00000 433.70782 0.00235
82.73151 446.00000 433.95564 0.00224
82.74151 461.00000 434.19569 0.00217
82.75151 421.00000 434.42277 0.00238
82.76151 431.00000 434.63160 0.00232
82.77151 484.00000 434.81713 0.00207
82.78151 413.00000 434.97311 0.00242
82.79151 434.00000 435.09181 0.00230
82.80151 448.00000 435.16891 0.00223
82.81152 435.00000 435.20035 0.00230
82.82151 464.00000 435.18238 0.00216
82.83151 439.00000 435.11228 0.00228
82.84151 411.00000 434.98831 0.00243
82.85152 441.00000 434.80980 0.00227
82.86151 435.00000 434.57803 0.00230
82.87151 447.00000 434.29437 0.00224
82.88152 417.00000 433.96164 0.00240
82.89152 420.00000 433.58432 0.00238
82.90151 447.00000 433.16712 0.00224
82.91151 426.00000 432.71429 0.00235
82.92152 451.00000 432.23105 0.00222
82.93152 425.00000 431.72376 0.00235
82.94151 401.00000 431.19780 0.00249
82.95152 443.00000 430.65672 0.00226
82.96152 422.00000 430.10688 0.00237
82.97152 447.00000 429.55218 0.00224
82.98151 447.00000 428.99716 0.00224
82.99152 463.00000 428.44373 0.00216
83.00152 421.00000 427.89670 0.00238
83.01152 449.00000 427.35825 0.00223
83.02151 446.00000 426.83127 0.00224
83.03152 444.00000 426.31617 0.00225
83.04152 427.00000 425.81623 0.00234
83.05152 425.00000 425.33229 0.00235
83.06152 432.00000 424.86546 0.00231
83.07152 432.00000 424.41659 0.00231
83.08152 455.00000 423.98623 0.00220
83.09152 446.00000 423.57475 0.00224
83.10152 472.00000 423.18191 0.00212
83.11152 417.00000 422.80676 0.00240
83.12152 434.00000 422.45202 0.00230
83.13152 438.00000 422.11878 0.00228
83.14152 425.00000 421.80503 0.00235
83.15152 419.00000 421.50889 0.00239
83.16152 408.00000 421.23181 0.00245
83.17152 442.00000 420.97536 0.00226
83.18152 423.00000 420.73780 0.00236
83.19152 429.00000 420.51786 0.00233
83.20152 433.00000 420.31491 0.00231
83.21152 470.00000 420.12834 0.00213
83.22152 423.00000 419.95754 0.00236
83.23152 414.00000 419.80187 0.00242
83.24152 409.00000 419.66069 0.00244
83.25153 417.00000 419.53323 0.00240
83.26152 431.00000 419.41922 0.00232
83.27152 441.00000 419.31762 0.00227
83.28152 429.00000 419.22794 0.00233
83.29153 422.00000 419.14948 0.00237
83.30152 397.00000 419.08184 0.00252
83.31152 417.00000 419.02421 0.00240
83.32153 418.00000 418.97603 0.00239
83.33153 438.00000 418.93683 0.00228
83.34152 400.00000 418.90605 0.00250
83.35152 428.00000 418.88307 0.00234
83.36153 432.00000 418.86740 0.00231
83.37153 409.00000 418.85857 0.00244
83.38152 430.00000 418.85605 0.00233
83.39153 443.00000 418.85940 0.00226
83.40153 446.00000 418.86824 0.00224
83.41153 433.00000 418.88232 0.00231
83.42152 405.00000 418.90199 0.00247
83.43153 417.00000 418.92856 0.00240
83.44153 419.00000 418.95579 0.00239
83.45153 394.00000 418.98441 0.00254
83.46152 419.00000 419.01510 0.00239
83.47153 438.00000 419.04788 0.00228
83.48153 441.00000 419.08223 0.00227
83.49153 448.00000 419.11774 0.00223
83.50153 395.00000 419.15397 0.00253
83.51153 432.00000 419.19052 0.00231
83.52153 438.00000 419.22701 0.00228
83.53153 418.00000 419.26307 0.00239
83.54153 439.00000 419.29838 0.00228
83.55153 431.00000 419.33264 0.00232
83.56153 445.00000 419.36563 0.00225
83.57153 428.00000 419.39713 0.00234
83.58153 428.00000 419.42703 0.00234
83.59153 438.00000 419.45522 0.00228
83.60153 403.00000 419.48171 0.00248
83.61153 399.00000 419.50652 0.00251
83.62153 417.00000 419.52977 0.00240
83.63153 411.00000 419.55159 0.00243
83.64153 396.00000 419.57221 0.00253
83.65154 424.00000 419.59187 0.00236
83.66153 387.00000 419.61071 0.00258
83.67153 414.00000 419.62884 0.00242
83.68153 458.00000 419.64700 0.00218
83.69154 405.00000 419.66687 0.00247
83.70153 426.00000 419.68835 0.00235
83.71153 393.00000 419.71170 0.00254
83.72153 416.00000 419.73741 0.00240
83.73154 429.00000 419.76606 0.00233
83.74153 456.00000 419.79813 0.00219
83.75153 396.00000 419.83428 0.00253
83.76154 387.00000 419.87508 0.00258
83.77154 449.00000 419.92101 0.00223
83.78153 446.00000 419.97260 0.00224
83.79153 439.00000 420.03050 0.00228
83.80154 419.00000 420.09526 0.00239
83.81154 418.00000 420.16724 0.00239
83.82153 444.00000 420.24693 0.00225
83.83154 435.00000 420.33506 0.00230
83.84154 391.00000 420.43184 0.00256
83.85154 431.00000 420.53781 0.00232
83.86153 397.00000 420.65328 0.00252
83.87154 394.00000 420.77904 0.00254
83.88154 448.00000 420.91514 0.00223
83.89154 449.00000 421.06209 0.00223
83.90154 440.00000 421.22028 0.00227
83.91154 416.00000 421.39007 0.00240
83.92154 467.00000 421.57183 0.00214
83.93154 429.00000 421.76591 0.00233
83.94154 405.00000 421.97265 0.00247
83.95154 437.00000 422.19236 0.00229
83.96154 434.00000 422.42537 0.00230
83.97154 465.00000 422.67198 0.00215
83.98154 437.00000 422.93247 0.00229
83.99154 417.00000 423.20713 0.00240
84.00154 412.00000 423.49623 0.00243
84.01154 412.00000 423.80003 0.00243
84.02154 460.00000 424.11877 0.00217
84.03154 437.00000 424.45269 0.00229
84.04154 434.00000 424.80202 0.00230
84.05154 407.00000 425.16698 0.00246
84.06154 421.00000 425.54780 0.00238
84.07154 463.00000 425.94470 0.00216
84.08154 443.00000 426.35789 0.00226
84.09155 415.00000 426.78805 0.00241
84.10154 397.00000 427.23409 0.00252
84.11154 404.00000 427.69759 0.00248
84.12154 430.00000 428.17840 0.00233
84.13155 415.00000 428.67734 0.00241
84.14154 451.00000 429.19320 0.00222
84.15154 426.00000 429.72791 0.00235
84.16154 427.00000 430.28138 0.00234
84.17155 436.00000 430.85470 0.00229
84.18154 440.00000 431.44660 0.00227
84.19154 421.00000 432.05947 0.00238
84.20155 422.00000 432.69402 0.00237
84.21155 435.00000 433.34966 0.00230
84.22154 415.00000 434.02710 0.00241
84.23154 422.00000 434.72854 0.00237
84.24155 422.00000 435.45493 0.00237
84.25155 442.00000 436.20570 0.00226
84.26154 446.00000 436.98170 0.00224
84.27155 426.00000 437.78631 0.00235
84.28155 442.00000 438.61807 0.00226
84.29155 426.00000 439.47875 0.00235
84.30154 438.00000 440.36834 0.00228
84.31155 443.00000 441.29047 0.00226
84.32155 421.00000 442.24319 0.00238
84.33155 420.00000 443.22811 0.00238
84.34155 434.00000 444.24584 0.00230
84.35155 438.00000 445.29683 0.00228
84.36155 427.00000 446.38136 0.00234
84.37155 421.00000 447.49952 0.00238
84.38155 438.00000 448.65118 0.00228
84.39155 455.00000 449.83594 0.00220
84.40155 443.00000 451.05313 0.00226
84.41155 425.00000 452.30174 0.00235
84.42155 438.00000 453.58041 0.00228
84.43155 450.00000 454.88739 0.00222
84.44155 416.00000 456.22050 0.00240
84.45155 427.00000 457.57708 0.00234
84.46155 485.00000 458.95396 0.00206
84.47155 479.00000 460.34745 0.00209
84.48155 424.00000 461.75328 0.00236
84.49155 430.00000 463.16655 0.00233
84.50155 460.00000 464.58177 0.00217
84.51155 446.00000 465.99279 0.00224
84.52155 446.00000 467.39283 0.00224
84.53156 397.00000 468.77582 0.00252
84.54155 459.00000 470.12969 0.00218
84.55155 440.00000 471.44990 0.00227
84.56155 433.00000 472.72603 0.00231
84.57156 481.00000 473.94975 0.00208
84.58155 448.00000 475.10778 0.00223
84.59155 437.00000 476.19364 0.00229
84.60155 422.00000 477.19620 0.00237
84.61156 429.00000 478.10645 0.00233
84.62155 412.00000 478.91250 0.00243
84.63155 445.00000 479.60782 0.00225
84.64156 441.00000 480.18389 0.00227
84.65156 436.00000 480.63246 0.00229
84.66155 452.00000 480.94799 0.00221
84.67155 442.00000 481.12658 0.00226
84.68156 398.00000 481.16545 0.00251
84.69156 457.00000 481.06550 0.00219
84.70155 464.00000 480.82957 0.00216
84.71156 451.00000 480.44114 0.00222
84.72156 405.00000 479.90883 0.00247
84.73156 443.00000 479.23997 0.00226
84.74155 455.00000 478.44223 0.00220
84.75156 468.00000 477.52024 0.00214
84.76156 446.00000 476.48420 0.00224
84.77156 430.00000 475.33967 0.00233
84.78156 405.00000 474.09654 0.00247
84.79156 416.00000 472.76500 0.00240
84.80156 458.00000 471.35517 0.00218
84.81156 426.00000 469.87706 0.00235
84.82156 450.00000 468.34058 0.00222
84.83156 451.00000 466.75541 0.00222
84.84156 403.00000 465.13089 0.00248
84.85156 414.00000 463.47591 0.00242
84.86156 453.00000 461.79883 0.00221
84.87156 434.00000 460.10746 0.00230
84.88156 398.00000 458.40899 0.00251
84.89156 416.00000 456.71003 0.00240
84.90156 406.00000 455.01653 0.00246
84.91156 423.00000 453.33385 0.00236
84.92156 425.00000 451.66676 0.00235
84.93156 444.00000 450.01942 0.00225
84.94156 419.00000 448.39540 0.00239
84.95156 446.00000 446.79767 0.00224
84.96156 400.00000 445.22851 0.00250
84.97157 425.00000 443.68733 0.00235
84.98156 433.00000 442.17942 0.00231
84.99156 395.00000 440.71300 0.00253
85.00156 420.00000 439.29298 0.00238
85.01157 444.00000 437.92631 0.00225
85.02156 421.00000 436.58712 0.00238
85.03156 391.00000 435.27564 0.00256
85.04156 388.00000 434.00067 0.00258
85.05157 393.00000 432.76374 0.00254
85.06156 411.00000 431.56879 0.00243
85.07156 402.00000 430.41216 0.00249
85.08157 417.00000 429.29376 0.00240
85.09157 399.00000 428.21549 0.00251
85.10156 408.00000 427.17684 0.00245
85.11156 433.00000 426.17533 0.00231
85.12157 428.00000 425.21054 0.00234
85.13157 413.00000 424.28381 0.00242
85.14156 403.00000 423.39441 0.00248
85.15157 379.00000 422.53913 0.00264
85.16157 409.00000 421.71986 0.00244
85.17157 413.00000 420.93506 0.00242
85.18156 454.00000 420.18474 0.00220
85.19157 384.00000 419.46602 0.00260
85.20157 424.00000 418.78034 0.00236
85.21157 401.00000 418.12626 0.00249
85.22157 433.00000 417.50305 0.00231
85.23157 425.00000 416.91002 0.00235
85.24157 401.00000 416.34645 0.00249
85.25157 413.00000 415.81166 0.00242
85.26157 443.00000 415.30499 0.00226
85.27157 440.00000 414.82577 0.00227
85.28157 399.00000 414.37339 0.00251
85.29157 395.00000 413.94724 0.00253
85.30157 407.00000 413.54673 0.00246
85.31157 415.00000 413.17131 0.00241
85.32157 399.00000 412.82045 0.00251
85.33157 405.00000 412.49366 0.00247
85.34157 406.00000 412.19046 0.00246
85.35157 409.00000 411.91042 0.00244
85.36157 429.00000 411.65312 0.00233
85.37157 435.00000 411.41819 0.00230
85.38157 376.00000 411.20528 0.00266
85.39157 388.00000 411.01408 0.00258
85.40157 413.00000 410.84429 0.00242
85.41158 432.00000 410.69554 0.00231
85.42157 412.00000 410.56799 0.00243
85.43157 419.00000 410.46105 0.00239
85.44157 425.00000 410.37468 0.00235
85.45158 399.00000 410.30869 0.00251
85.46157 416.00000 410.26309 0.00240
85.47157 430.00000 410.23766 0.00233
85.48158 432.00000 410.23238 0.00231
85.49158 404.00000 410.24717 0.00248
85.50157 433.00000 410.28195 0.00231
85.51157 454.00000 410.33677 0.00220
85.52158 392.00000 410.41167 0.00255
85.53158 383.00000 410.50647 0.00261
85.54157 426.00000 410.62110 0.00235
85.55157 374.00000 410.75579 0.00267
85.56158 435.00000 410.91058 0.00230
85.57158 424.00000 411.08511 0.00236
85.58157 400.00000 411.27925 0.00250
85.59158 388.00000 411.49356 0.00258
85.60158 399.00000 411.72727 0.00251
85.61158 414.00000 411.98042 0.00242
85.62157 414.00000 412.25251 0.00242
85.63158 431.00000 412.54408 0.00232
85.64158 434.00000 412.85393 0.00230
85.65158 433.00000 413.18185 0.00231
85.66158 413.00000 413.52730 0.00242
85.67158 415.00000 413.88951 0.00241
85.68158 411.00000 414.26746 0.00243
85.69158 397.00000 414.65981 0.00252
85.70158 425.00000 415.06474 0.00235
85.71158 425.00000 415.47943 0.00235
85.72158 405.00000 415.89720 0.00247
85.73158 409.00000 416.31100 0.00244
85.74158 470.00000 416.74978 0.00213
85.75158 407.00000 417.20314 0.00246
85.76158 389.00000 417.66084 0.00257
85.77158 392.00000 418.11957 0.00255
85.78158 391.00000 418.57675 0.00256
85.79158 436.00000 419.02962 0.00229
85.80158 449.00000 419.47534 0.00223
85.81158 431.00000 419.91091 0.00232
85.82158 409.00000 420.33332 0.00244
85.83158 408.00000 420.73951 0.00245
85.84158 376.00000 421.12644 0.00266
85.85159 375.00000 421.49151 0.00267
85.86158 399.00000 421.83083 0.00251
85.87158 422.00000 422.14274 0.00237
85.88158 444.00000 422.42442 0.00225
85.89159 418.00000 422.67391 0.00239
85.90158 425.00000 422.88885 0.00235
85.91158 429.00000 423.06884 0.00233
85.92159 389.00000 423.21454 0.00257
85.93159 403.00000 423.32988 0.00248
85.94158 398.00000 423.40435 0.00251
85.95158 389.00000 423.42917 0.00257
85.96159 414.00000 423.40890 0.00242
85.97159 388.00000 423.34590 0.00258
85.98158 380.00000 423.24058 0.00263
85.99158 427.00000 423.09243 0.00234
86.00159 438.00000 422.90110 0.00228
86.01159 384.00000 422.66684 0.00260
86.02158 405.00000 422.38983 0.00247
86.03159 379.00000 422.06968 0.00264
86.04159 403.00000 421.70853 0.00248
86.05159 394.00000 421.30982 0.00254
86.06158 406.00000 420.88070 0.00246
86.07159 407.00000 420.40165 0.00246
86.08159 419.00000 419.87733 0.00239
86.09159 419.00000 419.31314 0.00239
86.10159 396.00000 418.71329 0.00253
86.11159 398.00000 418.08069 0.00251
86.12159 405.00000 417.41825 0.00247
86.13159 396.00000 416.72916 0.00253
86.14159 410.00000 416.01683 0.00244
86.15159 394.00000 415.28486 0.00254
86.16159 419.00000 414.53687 0.00239
86.17159 397.00000 413.77654 0.00252
86.18159 389.00000 413.00743 0.00257
86.19159 441.00000 412.23302 0.00227
86.20159 438.00000 411.45658 0.00228
86.21159 412.00000 410.68125 0.00243
86.22159 367.00000 409.91006 0.00272
86.23159 398.00000 409.14601 0.00251
86.24159 392.00000 408.39022 0.00255
86.25159 453.00000 407.64432 0.00221
86.26159 407.00000 406.91042 0.00246
86.27159 400.00000 406.19022 0.00250
86.28159 391.00000 405.48504 0.00256
86.29160 429.00000 404.79525 0.00233
86.30159 378.00000 404.12374 0.00265
86.31159 401.00000 403.46914 0.00249
86.32159 415.00000 402.83262 0.00241
86.33160 403.00000 402.21391 0.00248
86.34159 365.00000 401.61502 0.00274
86.35159 421.00000 401.03410 0.00238
86.36160 373.00000 400.47078 0.00268
86.37160 383.00000 399.92533 0.00261
86.38159 399.00000 399.39960 0.00251
86.39159 396.00000 398.89362 0.00253
86.40160 389.00000 398.40588 0.00257
86.41160 385.00000 397.93672 0.00260
86.42159 373.00000 397.48558 0.00268
86.43159 386.00000 397.05119 0.00259
86.44160 421.00000 396.63316 0.00238
86.45160 411.00000 396.23186 0.00243
86.46159 399.00000 395.84680 0.00251
86.47160 412.00000 395.47641 0.00243
86.48160 399.00000 395.12148 0.00251
86.49160 367.00000 394.78113 0.00272
86.50159 394.00000 394.45524 0.00254
86.51160 420.00000 394.14328 0.00238
86.52160 406.00000 393.84390 0.00246
86.53160 430.00000 393.55535 0.00233
86.54160 420.00000 393.27782 0.00238
86.55160 425.00000 393.01124 0.00235
86.56160 419.00000 392.75523 0.00239
86.57160 382.00000 392.50930 0.00262
86.58160 400.00000 392.27295 0.00250
86.59160 401.00000 392.04572 0.00249
86.60160 378.00000 391.82715 0.00265
86.61160 368.00000 391.61680 0.00272
86.62160 415.00000 391.41425 0.00241
86.63160 409.00000 391.21910 0.00244
86.64160 376.00000 391.03095 0.00266
86.65160 365.00000 390.84945 0.00274
86.66160 376.00000 390.67424 0.00266
86.67160 385.00000 390.50500 0.00260
86.68160 418.00000 390.34142 0.00239
86.69160 437.00000 390.18321 0.00229
86.70160 407.00000 390.03009 0.00246
86.71160 398.00000 389.88180 0.00251
86.72160 404.00000 389.73812 0.00248
86.73161 368.00000 389.59866 0.00272
86.74160 377.00000 389.46365 0.00265
86.75160 402.00000 389.33247 0.00249
86.76160 376.00000 389.20508 0.00266
86.77161 426.00000 389.08119 0.00235
86.78160 401.00000 388.96102 0.00249
86.79160 407.00000 388.84406 0.00246
86.80161 401.00000 388.73019 0.00249
86.81161 398.00000 388.61952 0.00251
86.82160 428.00000 388.51192 0.00234
86.83160 428.00000 388.40709 0.00234
86.84161 424.00000 388.30493 0.00236
86.85161 418.00000 388.20557 0.00239
86.86160 357.00000 388.10893 0.00280
86.87160 426.00000 388.01473 0.00235
86.88161 408.00000 387.92291 0.00245
86.89161 410.00000 387.83356 0.00244
86.90160 370.00000 387.74657 0.00270
86.91161 376.00000 387.66156 0.00266
86.92161 380.00000 387.57841 0.00263
86.93161 379.00000 387.49649 0.00264
86.94160 385.00000 387.41735 0.00260
86.95161 379.00000 387.34129 0.00264
86.96161 389.00000 387.26769 0.00257
86.97161 393.00000 387.19628 0.00254
86.98161 375.00000 387.12696 0.00267
86.99161 375.00000 387.05972 0.00267
87.00161 403.00000 386.99453 0.00248
87.01161 415.00000 386.93138 0.00241
87.02161 397.00000 386.87026 0.00252
87.03161 397.00000 386.81113 0.00252
87.04161 369.00000 386.75386 0.00271
87.05161 407.00000 386.69801 0.00246
87.06161 437.00000 386.64276 0.00229
87.07161 408.00000 386.58654 0.00245
87.08161 380.00000 386.52498 0.00263
87.09161 418.00000 386.44799 0.00239
87.10161 408.00000 386.36209 0.00245
87.11161 406.00000 386.30516 0.00246
87.12161 387.00000 386.26292 0.00258
87.13161 365.00000 386.22410 0.00274
87.14161 400.00000 386.18733 0.00250
87.15161 391.00000 386.15262 0.00256
87.16161 368.00000 386.11999 0.00272
87.17162 384.00000 386.08944 0.00260
87.18161 428.00000 386.06108 0.00234
87.19161 409.00000 386.03485 0.00244
87.20161 343.00000 386.01080 0.00292
87.21162 372.00000 385.98896 0.00269
87.22161 388.00000 385.96941 0.00258
87.23161 408.00000 385.95213 0.00245
87.24162 383.00000 385.93716 0.00261
87.25162 392.00000 385.92456 0.00255
87.26161 390.00000 385.91436 0.00256
87.27161 383.00000 385.90657 0.00261
87.28162 430.00000 385.90124 0.00233
87.29162 386.00000 385.89839 0.00259
87.30161 420.00000 385.89806 0.00238
87.31161 402.00000 385.90026 0.00249
87.32162 414.00000 385.90502 0.00242
87.33162 378.00000 385.91236 0.00265
87.34161 392.00000 385.92227 0.00255
87.35162 400.00000 385.93479 0.00250
87.36162 351.00000 385.94989 0.00285
87.37162 403.00000 385.96758 0.00248
87.38161 375.00000 385.98782 0.00267
87.39162 379.00000 386.01064 0.00264
87.40162 394.00000 386.03595 0.00254
87.41162 385.00000 386.06374 0.00260
87.42162 376.00000 386.09394 0.00266
87.43162 388.00000 386.12649 0.00258
87.44162 380.00000 386.16130 0.00263
87.45162 370.00000 386.19830 0.00270
87.46162 366.00000 386.23743 0.00273
87.47162 380.00000 386.27875 0.00263
87.48162 392.00000 386.32252 0.00255
87.49162 406.00000 386.37006 0.00246
87.50162 375.00000 386.42413 0.00267
87.51162 397.00000 386.47628 0.00252
87.52162 401.00000 386.52592 0.00249
87.53162 389.00000 386.57507 0.00257
87.54162 431.00000 386.62450 0.00232
87.55162 385.00000 386.67411 0.00260
87.56162 359.00000 386.72360 0.00279
87.57162 392.00000 386.77262 0.00255
87.58162 400.00000 386.82082 0.00250
87.59162 398.00000 386.86782 0.00251
87.60162 380.00000 386.91322 0.00263
87.61163 384.00000 386.95664 0.00260
87.62162 390.00000 386.99753 0.00256
87.63162 375.00000 387.03558 0.00267
87.64162 392.00000 387.07033 0.00255
87.65163 372.00000 387.10135 0.00269
87.66162 383.00000 387.12813 0.00261
87.67162 387.00000 387.15033 0.00258
87.68163 392.00000 387.16755 0.00255
87.69163 426.00000 387.17936 0.00235
87.70162 408.00000 387.18544 0.00245
87.71162 398.00000 387.18548 0.00251
87.72163 399.00000 387.17920 0.00251
87.73163 409.00000 387.16638 0.00244
87.74162 428.00000 387.14687 0.00234
87.75163 390.00000 387.12049 0.00256
87.76163 395.00000 387.08724 0.00253
87.77163 393.00000 387.04709 0.00254
87.78162 395.00000 387.00015 0.00253
87.79163 368.00000 386.94640 0.00272
87.80163 399.00000 386.88616 0.00251
87.81163 391.00000 386.81962 0.00256
87.82162 370.00000 386.74713 0.00270
87.83163 357.00000 386.66881 0.00280
87.84163 383.00000 386.58526 0.00261
87.85163 351.00000 386.49683 0.00285
87.86163 389.00000 386.40397 0.00257
87.87163 393.00000 386.30718 0.00254
87.88163 364.00000 386.20695 0.00275
87.89163 384.00000 386.10382 0.00260
87.90163 377.00000 385.99833 0.00265
87.91163 400.00000 385.89103 0.00250
87.92163 416.00000 385.78248 0.00240
87.93163 381.00000 385.67324 0.00262
87.94163 411.00000 385.56387 0.00243
87.95163 375.00000 385.45493 0.00267
87.96163 438.00000 385.34698 0.00228
87.97163 405.00000 385.24057 0.00247
87.98163 370.00000 385.13624 0.00270
87.99163 406.00000 385.03455 0.00246
88.00163 358.00000 384.93601 0.00279
88.01163 384.00000 384.84113 0.00260
88.02163 389.00000 384.75033 0.00257
88.03163 399.00000 384.66396 0.00251
88.04163 373.00000 384.58214 0.00268
88.05164 362.00000 384.50395 0.00276
88.06163 405.00000 384.42816 0.00247
88.07163 377.00000 384.36373 0.00265
88.08163 406.00000 384.30895 0.00246
88.09164 404.00000 384.26229 0.00248
88.10163 379.00000 384.22401 0.00264
88.11163 385.00000 384.19446 0.00260
88.12164 407.00000 384.17414 0.00246
88.13164 374.00000 384.16357 0.00267
88.14163 376.00000 384.16316 0.00266
88.15163 400.00000 384.17334 0.00250
88.16164 400.00000 384.19455 0.00250
88.17164 376.00000 384.22715 0.00266
88.18163 380.00000 384.27145 0.00263
88.19164 383.00000 384.32791 0.00261
88.20164 365.00000 384.39667 0.00274
88.21164 378.00000 384.47802 0.00265
88.22163 368.00000 384.57203 0.00272
88.23164 416.00000 384.67914 0.00240
88.24164 373.00000 384.79917 0.00268
88.25164 381.00000 384.93235 0.00262
88.26163 389.00000 385.07879 0.00257
88.27164 372.00000 385.23760 0.00269
88.28164 405.00000 385.40832 0.00247
88.29164 385.00000 385.59091 0.00260
88.30164 383.00000 385.78496 0.00261
88.31164 356.00000 385.98984 0.00281
88.32164 390.00000 386.20477 0.00256
88.33164 399.00000 386.42884 0.00251
88.34164 409.00000 386.66095 0.00244
88.35164 382.00000 386.89983 0.00262
88.36164 419.00000 387.14403 0.00239
88.37164 397.00000 387.39187 0.00252
88.38164 407.00000 387.64145 0.00246
88.39164 414.00000 387.89065 0.00242
88.40164 402.00000 388.13712 0.00249
88.41164 413.00000 388.37827 0.00242
88.42164 414.00000 388.61130 0.00242
88.43164 382.00000 388.83326 0.00262
88.44164 392.00000 389.04104 0.00255
88.45164 400.00000 389.23147 0.00250
88.46164 373.00000 389.40139 0.00268
88.47164 414.00000 389.54775 0.00242
88.48164 379.00000 389.66772 0.00264
88.49165 395.00000 389.75889 0.00253
88.50164 375.00000 389.81893 0.00267
88.51164 384.00000 389.84658 0.00260
88.52164 394.00000 389.84086 0.00254
88.53165 371.00000 389.80147 0.00270
88.54164 396.00000 389.72898 0.00253
88.55164 342.00000 389.62435 0.00292
88.56165 389.00000 389.48919 0.00257
88.57165 389.00000 389.32596 0.00257
88.58164 387.00000 389.13738 0.00258
88.59164 417.00000 388.92605 0.00240
88.60165 396.00000 388.69505 0.00253
88.61165 403.00000 388.44807 0.00248
88.62164 420.00000 388.18840 0.00238
88.63165 377.00000 387.91843 0.00265
88.64165 405.00000 387.64197 0.00247
88.65165 402.00000 387.36163 0.00249
88.66164 375.00000 387.08036 0.00267
88.67165 423.00000 386.79976 0.00236
88.68165 393.00000 386.52292 0.00254
88.69165 425.00000 386.25159 0.00235
88.70164 364.00000 385.98789 0.00275
88.71165 376.00000 385.73269 0.00266
88.72165 350.00000 385.48829 0.00286
88.73165 394.00000 385.25580 0.00254
88.74165 401.00000 385.03647 0.00249
88.75165 396.00000 384.83143 0.00253
88.76165 370.00000 384.64174 0.00270
88.77165 362.00000 384.46838 0.00276
88.78165 384.00000 384.31227 0.00260
88.79165 387.00000 384.17430 0.00258
88.80165 410.00000 384.05530 0.00244
88.81165 404.00000 383.95611 0.00248
88.82165 397.00000 383.87754 0.00252
88.83165 376.00000 383.82040 0.00266
88.84165 427.00000 383.78552 0.00234
88.85165 386.00000 383.77373 0.00259
88.86165 394.00000 383.78589 0.00254
88.87165 392.00000 383.82287 0.00255
88.88165 407.00000 383.88560 0.00246
88.89165 383.00000 383.97501 0.00261
88.90165 361.00000 384.09207 0.00277
88.91165 371.00000 384.23776 0.00270
88.92165 429.00000 384.41311 0.00233
88.93166 401.00000 384.61936 0.00249
88.94165 387.00000 384.85693 0.00258
88.95165 404.00000 385.12747 0.00248
88.96165 397.00000 385.43179 0.00252
88.97166 437.00000 385.77124 0.00229
88.98165 397.00000 386.14573 0.00252
88.99165 415.00000 386.55716 0.00241
89.00166 390.00000 387.00644 0.00256
89.01166 377.00000 387.49341 0.00265
89.02165 406.00000 388.01851 0.00246
89.03165 388.00000 388.58318 0.00258
89.04166 394.00000 389.18777 0.00254
89.05166 387.00000 389.83117 0.00258
89.06165 430.00000 390.51309 0.00233
89.07166 386.00000 391.23514 0.00259
89.08166 418.00000 391.99458 0.00239
89.09166 443.00000 392.79110 0.00226
89.10165 417.00000 393.62253 0.00240
89.11166 440.00000 394.48968 0.00227
89.12166 430.00000 395.38796 0.00233
89.13166 420.00000 396.31568 0.00238
89.14165 421.00000 397.26892 0.00238
89.15166 465.00000 398.24705 0.00215
89.16166 425.00000 399.24317 0.00235
89.17166 444.00000 400.25366 0.00225
89.18166 411.00000 401.27334 0.00243
89.19166 443.00000 402.29648 0.00226
89.20166 419.00000 403.31697 0.00239
89.21166 448.00000 404.32861 0.00223
89.22166 429.00000 405.32310 0.00233
89.23166 438.00000 406.28932 0.00228
89.24166 404.00000 407.21974 0.00248
89.25166 394.00000 408.10640 0.00254
89.26166 476.00000 408.94094 0.00210
89.27166 421.00000 409.71520 0.00238
89.28166 426.00000 410.42173 0.00235
89.29166 444.00000 411.05416 0.00225
89.30166 445.00000 411.60752 0.00225
89.31166 420.00000 412.07805 0.00238
89.32166 423.00000 412.46354 0.00236
89.33167 447.00000 412.77111 0.00224
89.34166 446.00000 413.00319 0.00224
89.35166 445.00000 413.16517 0.00225
89.36166 436.00000 413.26428 0.00229
89.37167 444.00000 413.31022 0.00225
89.38166 436.00000 413.31387 0.00229
89.39166 440.00000 413.28736 0.00227
89.40166 462.00000 413.24312 0.00216
89.41167 442.00000 413.19379 0.00226
89.42166 411.00000 413.15201 0.00243
89.43166 441.00000 413.12974 0.00227
89.44167 392.00000 413.13847 0.00255
89.45167 441.00000 413.18885 0.00227
89.46166 411.00000 413.29049 0.00243
89.47166 408.00000 413.45227 0.00245
89.48167 447.00000 413.68209 0.00224
89.49167 435.00000 413.98619 0.00230
89.50166 442.00000 414.36991 0.00226
89.51167 445.00000 414.83891 0.00225
89.52167 437.00000 415.39541 0.00229
89.53167 428.00000 416.04208 0.00234
89.54166 445.00000 416.77937 0.00225
89.55167 453.00000 417.60954 0.00221
89.56167 434.00000 418.52927 0.00230
89.57167 440.00000 419.53699 0.00227
89.58167 452.00000 420.62920 0.00221
89.59167 427.00000 421.80111 0.00234
89.60167 454.00000 423.04662 0.00220
89.61167 434.00000 424.35828 0.00230
89.62167 442.00000 425.72718 0.00226
89.63167 463.00000 427.14295 0.00216
89.64167 437.00000 428.59367 0.00229
89.65167 455.00000 430.06587 0.00220
89.66167 456.00000 431.54455 0.00219
89.67167 479.00000 433.01317 0.00209
89.68167 485.00000 434.45380 0.00206
89.69167 464.00000 435.84734 0.00216
89.70167 473.00000 437.17383 0.00211
89.71167 431.00000 438.41291 0.00232
89.72167 445.00000 439.54473 0.00225
89.73167 464.00000 440.55060 0.00216
89.74167 472.00000 441.40826 0.00212
89.75167 477.00000 442.09997 0.00210
89.76167 465.00000 442.61272 0.00215
89.77168 488.00000 442.93664 0.00205
89.78167 498.00000 443.06405 0.00201
89.79167 455.00000 442.99304 0.00220
89.80167 434.00000 442.72477 0.00230
89.81168 445.00000 442.26435 0.00225
89.82167 493.00000 441.62264 0.00203
89.83167 439.00000 440.81095 0.00228
89.84167 452.00000 439.84514 0.00221
89.85168 407.00000 438.74147 0.00246
89.86167 454.00000 437.52191 0.00220
89.87167 421.00000 436.20230 0.00238
89.88168 456.00000 434.80157 0.00219
89.89168 467.00000 433.34119 0.00214
89.90167 422.00000 431.83921 0.00237
89.91167 435.00000 430.30939 0.00230
89.92168 398.00000 428.76712 0.00251
89.93168 407.00000 427.22961 0.00246
89.94167 447.00000 425.70952 0.00224
89.95168 427.00000 424.21366 0.00234
89.96168 444.00000 422.75658 0.00225
89.97168 424.00000 421.34551 0.00236
89.98167 455.00000 419.98938 0.00220
89.99168 442.00000 418.69063 0.00226
90.00168 435.00000 417.45874 0.00230
90.01168 372.00000 416.29688 0.00269
90.02168 435.00000 415.20867 0.00230
90.03168 398.00000 414.19692 0.00251
90.04168 360.00000 413.26367 0.00278
90.05168 424.00000 412.41026 0.00236
90.06168 396.00000 411.63738 0.00253
90.07168 400.00000 410.94513 0.00250
90.08168 402.00000 410.33304 0.00249
90.09168 417.00000 409.80014 0.00240
90.10168 396.00000 409.34500 0.00253
90.11168 433.00000 408.96580 0.00231
90.12168 436.00000 408.66035 0.00229
90.13168 390.00000 408.42618 0.00256
90.14168 414.00000 408.26055 0.00242
90.15168 407.00000 408.16054 0.00246
90.16168 432.00000 408.12310 0.00231
90.17168 433.00000 408.14509 0.00231
90.18168 409.00000 408.22335 0.00244
90.19168 387.00000 408.35474 0.00258
90.20168 398.00000 408.53621 0.00251
90.21169 410.00000 408.76504 0.00244
90.22168 438.00000 409.03778 0.00228
90.23168 398.00000 409.35251 0.00251
90.24168 436.00000 409.70663 0.00229
90.25169 402.00000 410.09838 0.00249
90.26168 383.00000 410.52463 0.00261
90.27168 381.00000 410.98479 0.00262
90.28168 404.00000 411.47723 0.00248
90.29169 426.00000 412.00133 0.00235
90.30168 417.00000 412.55436 0.00240
90.31168 428.00000 413.13688 0.00234
90.32169 389.00000 413.74816 0.00257
90.33169 392.00000 414.38626 0.00255
90.34168 419.00000 415.05037 0.00239
90.35168 400.00000 415.74110 0.00250
90.36169 428.00000 416.45779 0.00234
90.37169 406.00000 417.19823 0.00246
90.38168 398.00000 417.96143 0.00251
90.39169 381.00000 418.74867 0.00262
90.40169 416.00000 419.55649 0.00240
90.41169 385.00000 420.38430 0.00260
90.42168 409.00000 421.22973 0.00244
90.43169 380.00000 422.09358 0.00263
90.44169 392.00000 422.97134 0.00255
90.45169 351.00000 423.86168 0.00285
90.46169 406.00000 424.76215 0.00246
90.47169 433.00000 425.67006 0.00231
90.48169 422.00000 426.58248 0.00237
90.49169 416.00000 427.49622 0.00240
90.50169 407.00000 428.40785 0.00246
90.51169 376.00000 429.31369 0.00266
90.52169 390.00000 430.20985 0.00256
90.53169 405.00000 431.09225 0.00247
90.54169 396.00000 431.95662 0.00253
90.55169 374.00000 432.79858 0.00267
90.56169 404.00000 433.61363 0.00248
90.57169 429.00000 434.39724 0.00233
90.58169 403.00000 435.14490 0.00248
90.59169 429.00000 435.85218 0.00233
90.60169 411.00000 436.51478 0.00243
90.61169 440.00000 437.12864 0.00227
90.62169 427.00000 437.68998 0.00234
90.63169 432.00000 438.19542 0.00231
90.64169 372.00000 438.64202 0.00269
90.65170 438.00000 439.02775 0.00228
90.66169 427.00000 439.34964 0.00234
90.67169 399.00000 439.60766 0.00251
90.68169 406.00000 439.80096 0.00246
90.69170 448.00000 439.92990 0.00223
90.70169 437.00000 439.99510 0.00229
90.71169 428.00000 439.99868 0.00234
90.72169 421.00000 439.94298 0.00238
90.73170 400.00000 439.83102 0.00250
90.74169 418.00000 439.66696 0.00239
90.75169 387.00000 439.45480 0.00258
90.76170 456.00000 439.19914 0.00219
90.77170 409.00000 438.90559 0.00244
90.78169 417.00000 438.58123 0.00240
90.79169 454.00000 438.23116 0.00220
90.80170 458.00000 437.86132 0.00218
90.81170 408.00000 437.47906 0.00245
90.82169 439.00000 437.09156 0.00228
90.83170 429.00000 436.70204 0.00233
90.84170 453.00000 436.31606 0.00221
90.85170 416.00000 435.93969 0.00240
90.86169 413.00000 435.57909 0.00242
90.87170 414.00000 435.23827 0.00242
90.88170 399.00000 434.92269 0.00251
90.89170 426.00000 434.63591 0.00235
90.90170 439.00000 434.38128 0.00228
90.91170 414.00000 434.16156 0.00242
90.92170 405.00000 433.97888 0.00247
90.93170 431.00000 433.83471 0.00232
90.94170 422.00000 433.72985 0.00237
90.95170 423.00000 433.66435 0.00236
90.96170 413.00000 433.63754 0.00242
90.97170 435.00000 433.64795 0.00230
90.98170 395.00000 433.69331 0.00253
90.99170 404.00000 433.77047 0.00248
91.00170 433.00000 433.87544 0.00231
91.01170 443.00000 434.00328 0.00226
91.02170 436.00000 434.14814 0.00229
91.03170 423.00000 434.30321 0.00236
91.04170 414.00000 434.46074 0.00242
91.05170 452.00000 434.61208 0.00221
91.06170 464.00000 434.74775 0.00216
91.07170 463.00000 434.85752 0.00216
91.08170 430.00000 434.93062 0.00233
91.09171 443.00000 434.95589 0.00226
91.10170 404.00000 434.92213 0.00248
91.11170 435.00000 434.81835 0.00230
91.12170 443.00000 434.63415 0.00226
91.13171 465.00000 434.35982 0.00215
91.14170 445.00000 433.98831 0.00225
91.15170 441.00000 433.51240 0.00227
91.16171 436.00000 432.92735 0.00229
91.17171 413.00000 432.23163 0.00242
91.18170 424.00000 431.42578 0.00236
91.19170 447.00000 430.51061 0.00224
91.20171 440.00000 429.49030 0.00227
91.21171 458.00000 428.37329 0.00218
91.22170 442.00000 427.16782 0.00226
91.23170 421.00000 425.88073 0.00238
91.24171 427.00000 424.52191 0.00234
91.25171 415.00000 423.10475 0.00241
91.26170 412.00000 421.64026 0.00243
91.27171 415.00000 420.13468 0.00241
91.28171 433.00000 418.60286 0.00231
91.29171 381.00000 417.05318 0.00262
91.30170 405.00000 415.49637 0.00247
91.31171 392.00000 413.93619 0.00255
91.32171 407.00000 412.38497 0.00246
91.33171 396.00000 410.84803 0.00253
91.34171 419.00000 409.33145 0.00239
91.35171 405.00000 407.84057 0.00247
91.36171 411.00000 406.38002 0.00243
91.37171 423.00000 404.95380 0.00236
91.38171 398.00000 403.56527 0.00251
91.39171 386.00000 402.21725 0.00259
91.40171 398.00000 400.91207 0.00251
91.41171 392.00000 399.65155 0.00255
91.42171 389.00000 398.43711 0.00257
91.43171 402.00000 397.26980 0.00249
91.44171 366.00000 396.15027 0.00273
91.45171 357.00000 395.07890 0.00280
91.46171 395.00000 394.05575 0.00253
91.47171 397.00000 393.08068 0.00252
91.48171 384.00000 392.15334 0.00260
91.49171 365.00000 391.27345 0.00274
91.50171 386.00000 390.44079 0.00259
91.51171 398.00000 389.65247 0.00251
91.52171 386.00000 388.90737 0.00259
91.53172 374.00000 388.20400 0.00267
91.54171 380.00000 387.54330 0.00263
91.55171 422.00000 386.92181 0.00237
91.56171 394.00000 386.33874 0.00254
91.57172 422.00000 385.79199 0.00237
91.58171 373.00000 385.28160 0.00268
91.59171 371.00000 384.80437 0.00270
91.60172 384.00000 384.35883 0.00260
91.61172 398.00000 383.94429 0.00251
91.62171 373.00000 383.55911 0.00268
91.63171 381.00000 383.20100 0.00262
91.64172 390.00000 382.86856 0.00256
91.65172 357.00000 382.56102 0.00280
91.66171 375.00000 382.27694 0.00267
91.67171 427.00000 382.01441 0.00234
91.68172 416.00000 381.77225 0.00240
91.69172 350.00000 381.54972 0.00286
91.70171 407.00000 381.34563 0.00246
91.71172 395.00000 381.15832 0.00253
91.72172 373.00000 380.98734 0.00268
91.73172 384.00000 380.83154 0.00260
91.74171 363.00000 380.69014 0.00275
91.75172 387.00000 380.56189 0.00258
91.76172 360.00000 380.44637 0.00278
91.77172 395.00000 380.34270 0.00253
91.78172 375.00000 380.25014 0.00267
91.79172 371.00000 380.16799 0.00270
91.80172 403.00000 380.09561 0.00248
91.81172 389.00000 380.03234 0.00257
91.82172 395.00000 379.97756 0.00253
91.83172 378.00000 379.93067 0.00265
91.84172 370.00000 379.89104 0.00270
91.85172 362.00000 379.85808 0.00276
91.86172 407.00000 379.83116 0.00246
91.87172 367.00000 379.80967 0.00272
91.88172 399.00000 379.79296 0.00251
91.89172 355.00000 379.78038 0.00282
91.90172 373.00000 379.77122 0.00268
91.91172 388.00000 379.76480 0.00258
91.92172 415.00000 379.76035 0.00241
91.93172 396.00000 379.75714 0.00253
91.94172 396.00000 379.75436 0.00253
91.95172 372.00000 379.75122 0.00269
91.96172 362.00000 379.74691 0.00276
91.97173 373.00000 379.74060 0.00268
91.98172 374.00000 379.73153 0.00267
91.99172 377.00000 379.71888 0.00265
92.00172 385.00000 379.70194 0.00260
92.01173 392.00000 379.67999 0.00255
92.02172 376.00000 379.65252 0.00266
92.03172 399.00000 379.61892 0.00251
92.04173 385.00000 379.57875 0.00260
92.05173 362.00000 379.53180 0.00276
92.06172 364.00000 379.47790 0.00275
92.07172 370.00000 379.41689 0.00270
92.08173 389.00000 379.34881 0.00257
92.09173 392.00000 379.27401 0.00255
92.10172 385.00000 379.19280 0.00260
92.11172 399.00000 379.10544 0.00251
92.12173 375.00000 379.01242 0.00267
92.13173 378.00000 378.91451 0.00265
92.14172 384.00000 378.81236 0.00260
92.15173 405.00000 378.70634 0.00247
92.16173 373.00000 378.59747 0.00268
92.17173 366.00000 378.48637 0.00273
92.18172 383.00000 378.37388 0.00261
92.19173 381.00000 378.26033 0.00262
92.20173 390.00000 378.14676 0.00256
92.21173 389.00000 378.03369 0.00257
92.22173 370.00000 377.92173 0.00270
92.23173 373.00000 377.81145 0.00268
92.24173 369.00000 377.70336 0.00271
92.25173 322.00000 377.59794 0.00311
92.26173 339.00000 377.49562 0.00295
92.27173 365.00000 377.39674 0.00274
92.28173 408.00000 377.30156 0.00245
92.29173 351.00000 377.21016 0.00285
92.30173 379.00000 377.12207 0.00264
92.31173 401.00000 377.03604 0.00249
92.32173 387.00000 376.95618 0.00258
92.33173 354.00000 376.88377 0.00282
92.34173 406.00000 376.81746 0.00246
92.35173 367.00000 376.75670 0.00272
92.36173 390.00000 376.70153 0.00256
92.37173 393.00000 376.65205 0.00254
92.38173 360.00000 376.60836 0.00278
92.39173 375.00000 376.57054 0.00267
92.40173 382.00000 376.53865 0.00262
92.41174 363.00000 376.51274 0.00275
92.42173 339.00000 376.49292 0.00295
92.43173 355.00000 376.47915 0.00282
92.44173 365.00000 376.47150 0.00274
92.45174 400.00000 376.46997 0.00250
92.46173 378.00000 376.47457 0.00265
92.47173 397.00000 376.48533 0.00252
92.48174 377.00000 376.50230 0.00265
92.49174 377.00000 376.52556 0.00265
92.50173 403.00000 376.55544 0.00248
92.51173 365.00000 376.59282 0.00274
92.52174 374.00000 376.63737 0.00267
92.53174 361.00000 376.68609 0.00277
92.54173 381.00000 376.73979 0.00262
92.55173 387.00000 376.79922 0.00258
92.56174 377.00000 376.86460 0.00265
92.57174 383.00000 376.93579 0.00261
92.58173 407.00000 377.01271 0.00246
92.59174 386.00000 377.09553 0.00259
92.60174 363.00000 377.18395 0.00275
92.61174 406.00000 377.27795 0.00246
92.62173 363.00000 377.37735 0.00275
92.63174 367.00000 377.48235 0.00272
92.64174 358.00000 377.59254 0.00279
92.65174 365.00000 377.70790 0.00274
92.66174 366.00000 377.82829 0.00273
92.67174 406.00000 377.95358 0.00246
92.68174 385.00000 378.08359 0.00260
92.69174 348.00000 378.21815 0.00287
92.70174 374.00000 378.35708 0.00267
92.71174 396.00000 378.50016 0.00253
92.72174 397.00000 378.64716 0.00252
92.73174 391.00000 378.79783 0.00256
92.74174 404.00000 378.95192 0.00248
92.75174 382.00000 379.10913 0.00262
92.76174 352.00000 379.26916 0.00284
92.77174 365.00000 379.43168 0.00274
92.78174 383.00000 379.59634 0.00261
92.79174 357.00000 379.76279 0.00280
92.80174 366.00000 379.93064 0.00273
92.81174 395.00000 380.09951 0.00253
92.82174 355.00000 380.26899 0.00282
92.83174 354.00000 380.43867 0.00282
92.84174 362.00000 380.60814 0.00276
92.85175 373.00000 380.77718 0.00268
92.86174 396.00000 380.94488 0.00253
92.87174 392.00000 381.11138 0.00255
92.88174 399.00000 381.27615 0.00251
92.89175 387.00000 381.43905 0.00258
92.90174 378.00000 381.59932 0.00265
92.91174 373.00000 381.75723 0.00268
92.92175 349.00000 381.91259 0.00287
92.93175 374.00000 382.06503 0.00267
92.94174 394.00000 382.21454 0.00254
92.95174 391.00000 382.36146 0.00256
92.96175 381.00000 382.50596 0.00262
92.97175 338.00000 382.64799 0.00296
92.98174 355.00000 382.78790 0.00282
92.99174 384.00000 382.92641 0.00260
93.00175 374.00000 383.06403 0.00267
93.01175 351.00000 383.20112 0.00285
93.02174 381.00000 383.33838 0.00262
93.03175 392.00000 383.47698 0.00255
93.04175 376.00000 383.61737 0.00266
93.05175 411.00000 383.76059 0.00243
93.06174 415.00000 383.90741 0.00241
93.07175 399.00000 384.05926 0.00251
93.08175 368.00000 384.21673 0.00272
93.09175 374.00000 384.38112 0.00267
93.10175 394.00000 384.55394 0.00254
93.11175 374.00000 384.73689 0.00267
93.12175 379.00000 384.92791 0.00264
93.13175 394.00000 385.12884 0.00254
93.14175 394.00000 385.34171 0.00254
93.15175 400.00000 385.56605 0.00250
93.16175 398.00000 385.80088 0.00251
93.17175 389.00000 386.04723 0.00257
93.18175 363.00000 386.30575 0.00275
93.19175 374.00000 386.57664 0.00267
93.20175 391.00000 386.85972 0.00256
93.21175 408.00000 387.15465 0.00245
93.22175 362.00000 387.46086 0.00276
93.23175 381.00000 387.77758 0.00262
93.24175 396.00000 388.10383 0.00253
93.25175 399.00000 388.43843 0.00251
93.26175 381.00000 388.77994 0.00262
93.27175 390.00000 389.12675 0.00256
93.28175 394.00000 389.47701 0.00254
93.29176 394.00000 389.82901 0.00254
93.30175 401.00000 390.17940 0.00249
93.31175 385.00000 390.52678 0.00260
93.32175 356.00000 390.86807 0.00281
93.33176 387.00000 391.20070 0.00258
93.34175 349.00000 391.52058 0.00287
93.35175 399.00000 391.82537 0.00251
93.36176 389.00000 392.11155 0.00257
93.37176 390.00000 392.37488 0.00256
93.38175 390.00000 392.61166 0.00256
93.39175 392.00000 392.81856 0.00255
93.40176 385.00000 392.99166 0.00260
93.41176 397.00000 393.12686 0.00252
93.42175 402.00000 393.22074 0.00249
93.43176 406.00000 393.27032 0.00246
93.44176 404.00000 393.27254 0.00248
93.45176 369.00000 393.22521 0.00271
93.46175 386.00000 393.12680 0.00259
93.47176 357.00000 392.97605 0.00280
93.48176 418.00000 392.77316 0.00239
93.49176 412.00000 392.51863 0.00243
93.50175 410.00000 392.21421 0.00244
93.51176 388.00000 391.86111 0.00258
93.52176 379.00000 391.46308 0.00264
93.53176 389.00000 391.02317 0.00257
93.54176 382.00000 390.54520 0.00262
93.55176 396.00000 390.03332 0.00253
93.56176 368.00000 389.49185 0.00272
93.57176 374.00000 388.92523 0.00267
93.58176 382.00000 388.33779 0.00262
93.59176 373.00000 387.73355 0.00268
93.60176 371.00000 387.11593 0.00270
93.61176 346.00000 386.48702 0.00289
93.62176 385.00000 385.84661 0.00260
93.63176 401.00000 385.19700 0.00249
93.64176 365.00000 384.53134 0.00274
93.65176 379.00000 383.89250 0.00264
93.66176 380.00000 383.27189 0.00263
93.67176 367.00000 382.66192 0.00272
93.68176 380.00000 382.06240 0.00263
93.69176 377.00000 381.47463 0.00265
93.70176 381.00000 380.89953 0.00262
93.71176 381.00000 380.33932 0.00262
93.72176 353.00000 379.79553 0.00283
93.73177 396.00000 379.26788 0.00253
93.74176 384.00000 378.75828 0.00260
93.75176 373.00000 378.26558 0.00268
93.76176 372.00000 377.79062 0.00269
93.77177 381.00000 377.33317 0.00262
93.78176 397.00000 376.89466 0.00252
93.79176 393.00000 376.47375 0.00254
93.80177 368.00000 376.07038 0.00272
93.81177 371.00000 375.68519 0.00270
93.82176 396.00000 375.31790 0.00253
93.83176 380.00000 374.96744 0.00263
93.84177 350.00000 374.63349 0.00286
93.85177 354.00000 374.31631 0.00282
93.86176 371.00000 374.01540 0.00270
93.87177 381.00000 373.72937 0.00262
93.88177 376.00000 373.45859 0.00266
93.89177 361.00000 373.20220 0.00277
93.90176 386.00000 372.95985 0.00259
93.91177 382.00000 372.73011 0.00262
93.92177 399.00000 372.51279 0.00251
93.93177 390.00000 372.30639 0.00256
93.94176 358.00000 372.10799 0.00279
93.95177 362.00000 371.91153 0.00276
93.96177 362.00000 371.73458 0.00276
93.97177 360.00000 371.57163 0.00278
93.98177 364.00000 371.41885 0.00275
93.99177 381.00000 371.27479 0.00262
94.00177 354.00000 371.13893 0.00282
94.01177 351.00000 371.01080 0.00285
94.02177 380.00000 370.88995 0.00263
94.03177 391.00000 370.77596 0.00256
94.04177 379.00000 370.66845 0.00264
94.05177 383.00000 370.56706 0.00261
94.06177 410.00000 370.47147 0.00244
94.07177 377.00000 370.38140 0.00265
94.08177 388.00000 370.29658 0.00258
94.09177 349.00000 370.21681 0.00287
94.10177 385.00000 370.14190 0.00260
94.11177 371.00000 370.07171 0.00270
94.12177 369.00000 370.00612 0.00271
94.13177 396.00000 369.94504 0.00253
94.14177 389.00000 369.88843 0.00257
94.15177 384.00000 369.83628 0.00260
94.16177 370.00000 369.78859 0.00270
94.17178 392.00000 369.74537 0.00255
94.18177 373.00000 369.70681 0.00268
94.19177 368.00000 369.67287 0.00272
94.20177 407.00000 369.64373 0.00246
94.21178 369.00000 369.61950 0.00271
94.22177 353.00000 369.60040 0.00283
94.23177 351.00000 369.58656 0.00285
94.24178 367.00000 369.57817 0.00272
94.25178 381.00000 369.57546 0.00262
94.26177 368.00000 369.57863 0.00272
94.27177 374.00000 369.58792 0.00267
94.28178 366.00000 369.60357 0.00273
94.29178 399.00000 369.62578 0.00251
94.30177 385.00000 369.65477 0.00260
94.31178 330.00000 369.69086 0.00303
94.32178 351.00000 369.73417 0.00285
94.33178 397.00000 369.78494 0.00252
94.34177 370.00000 369.84331 0.00270
94.35178 355.00000 369.90965 0.00282
94.36178 391.00000 369.98391 0.00256
94.37178 383.00000 370.06630 0.00261
94.38177 370.00000 370.15682 0.00270
94.39178 368.00000 370.25583 0.00272
94.40178 363.00000 370.36306 0.00275
94.41178 361.00000 370.47862 0.00277
94.42178 388.00000 370.60243 0.00258
94.43178 379.00000 370.73441 0.00264
94.44178 366.00000 370.87438 0.00273
94.45178 362.00000 371.02213 0.00276
94.46178 371.00000 371.17737 0.00270
94.47178 375.00000 371.33975 0.00267
94.48178 397.00000 371.50883 0.00252
94.49178 378.00000 371.68410 0.00265
94.50178 397.00000 371.86495 0.00252
94.51178 350.00000 372.05063 0.00286
94.52178 350.00000 372.24007 0.00286
94.53178 373.00000 372.43174 0.00268
94.54178 394.00000 372.62331 0.00254
94.55178 387.00000 372.80881 0.00258
94.56178 388.00000 372.97716 0.00258
94.57178 388.00000 373.15825 0.00258
94.58178 429.00000 373.34572 0.00233
94.59178 423.00000 373.53082 0.00236
94.60178 367.00000 373.70911 0.00272
94.61179 385.00000 373.87871 0.00260
94.62178 405.00000 374.03708 0.00247
94.63178 346.00000 374.18261 0.00289
94.64178 376.00000 374.31297 0.00266
94.65179 389.00000 374.42600 0.00257
94.66178 367.00000 374.51876 0.00272
94.67178 356.00000 374.58776 0.00281
94.68179 387.00000 374.63145 0.00258
94.69179 365.00000 374.65785 0.00274
94.70178 355.00000 374.66321 0.00282
94.71178 349.00000 374.64486 0.00287
94.72179 384.00000 374.60225 0.00260
94.73179 375.00000 374.53586 0.00267
94.74178 395.00000 374.44654 0.00253
94.75179 400.00000 374.33508 0.00250
94.76179 357.00000 374.20325 0.00280
94.77179 365.00000 374.05262 0.00274
94.78178 378.00000 373.88524 0.00265
94.79179 340.00000 373.70260 0.00294
94.80179 329.00000 373.50729 0.00304
94.81179 362.00000 373.30123 0.00276
94.82178 389.00000 373.08672 0.00257
94.83179 371.00000 372.86509 0.00270
94.84179 393.00000 372.63891 0.00254
94.85179 383.00000 372.40974 0.00261
94.86179 374.00000 372.17926 0.00267
94.87179 353.00000 371.94899 0.00283
94.88179 377.00000 371.72032 0.00265
94.89179 378.00000 371.49452 0.00265
94.90179 336.00000 371.27270 0.00298
94.91179 365.00000 371.05588 0.00274
94.92179 372.00000 370.84494 0.00269
94.93179 367.00000 370.64067 0.00272
94.94179 373.00000 370.44375 0.00268
94.95179 363.00000 370.25476 0.00275
94.96179 377.00000 370.07420 0.00265
94.97179 353.00000 369.90251 0.00283
94.98179 368.00000 369.74002 0.00272
94.99179 416.00000 369.58702 0.00240
95.00179 393.00000 369.44372 0.00254
95.01180 371.00000 369.31016 0.00270
95.02179 400.00000 369.18682 0.00250
95.03179 366.00000 369.07337 0.00273
95.04179 374.00000 368.96994 0.00267
95.05180 384.00000 368.87638 0.00260
95.06179 343.00000 368.79282 0.00292
95.07179 384.00000 368.71877 0.00260
95.08179 393.00000 368.65377 0.00254
95.09180 398.00000 368.59687 0.00251
95.10179 384.00000 368.54958 0.00260
95.11179 371.00000 368.51273 0.00270
95.12180 341.00000 368.48524 0.00293
95.13180 348.00000 368.46639 0.00287
95.14179 341.00000 368.45580 0.00293
95.15179 352.00000 368.45314 0.00284
95.16180 377.00000 368.45811 0.00265
95.17180 400.00000 368.47037 0.00250
95.18179 359.00000 368.48958 0.00279
95.19180 367.00000 368.51544 0.00272
95.20180 351.00000 368.54754 0.00285
95.21180 364.00000 368.58556 0.00275
95.22179 323.00000 368.62910 0.00310
95.23180 392.00000 368.67793 0.00255
95.24180 365.00000 368.73157 0.00274
95.25180 370.00000 368.78973 0.00270
95.26180 371.00000 368.85207 0.00270
95.27180 371.00000 368.91825 0.00270
95.28180 345.00000 368.98796 0.00290
95.29180 362.00000 369.06088 0.00276
95.30180 397.00000 369.13670 0.00252
95.31180 370.00000 369.21513 0.00270
95.32180 373.00000 369.29588 0.00268
95.33180 382.00000 369.37866 0.00262
95.34180 364.00000 369.46320 0.00275
95.35180 401.00000 369.54920 0.00249
95.36180 400.00000 369.63639 0.00250
95.37180 350.00000 369.72446 0.00286
95.38180 378.00000 369.81311 0.00265
95.39180 349.00000 369.90201 0.00287
95.40180 357.00000 369.99082 0.00280
95.41180 373.00000 370.07916 0.00268
95.42180 345.00000 370.16664 0.00290
95.43180 370.00000 370.25283 0.00270
95.44180 358.00000 370.33726 0.00279
95.45181 379.00000 370.41952 0.00264
95.46180 392.00000 370.49884 0.00255
95.47180 352.00000 370.57492 0.00284
95.48180 350.00000 370.64708 0.00286
95.49181 329.00000 370.71479 0.00304
95.50180 362.00000 370.77725 0.00276
95.51180 418.00000 370.83404 0.00239
95.52180 390.00000 370.88449 0.00256
95.53181 390.00000 370.92805 0.00256
95.54180 338.00000 370.96405 0.00296
95.55180 379.00000 370.99209 0.00264
95.56181 389.00000 371.01168 0.00257
95.57181 390.00000 371.02241 0.00256
95.58180 388.00000 371.02398 0.00258
95.59180 384.00000 371.01618 0.00260
95.60181 394.00000 370.99885 0.00254
95.61181 348.00000 370.97198 0.00287
95.62180 366.00000 370.93569 0.00273
95.63181 359.00000 370.89002 0.00279
95.64181 353.00000 370.83537 0.00283
95.65181 363.00000 370.77207 0.00275
95.66180 393.00000 370.70065 0.00254
95.67181 384.00000 370.62141 0.00260
95.68181 379.00000 370.53517 0.00264
95.69181 348.00000 370.44251 0.00287
95.70181 408.00000 370.34414 0.00245
95.71181 378.00000 370.24077 0.00265
95.72181 331.00000 370.13316 0.00302
95.73181 342.00000 370.02205 0.00292
95.74181 352.00000 369.90821 0.00284
95.75181 341.00000 369.79237 0.00293
95.76181 353.00000 369.67526 0.00283
95.77181 394.00000 369.55758 0.00254
95.78181 422.00000 369.44000 0.00237
95.79181 376.00000 369.32316 0.00266
95.80181 354.00000 369.20765 0.00282
95.81181 367.00000 369.09406 0.00272
95.82181 360.00000 368.98290 0.00278
95.83181 344.00000 368.87466 0.00291
95.84181 376.00000 368.76981 0.00266
95.85181 356.00000 368.66878 0.00281
95.86181 364.00000 368.57194 0.00275
95.87181 379.00000 368.47966 0.00264
95.88181 387.00000 368.39227 0.00258
95.89182 378.00000 368.31001 0.00265
95.90181 384.00000 368.23339 0.00260
95.91181 371.00000 368.16245 0.00270
95.92181 364.00000 368.09750 0.00275
95.93182 372.00000 368.03873 0.00269
95.94181 401.00000 367.98650 0.00249
95.95181 365.00000 367.94087 0.00274
95.96181 343.00000 367.90207 0.00292
95.97182 356.00000 367.87026 0.00281
95.98181 372.00000 367.84570 0.00269
95.99181 403.00000 367.82847 0.00248
96.00182 409.00000 367.81876 0.00244
96.01182 336.00000 367.81673 0.00298
96.02181 385.00000 367.82253 0.00260
96.03181 377.00000 367.83630 0.00265
96.04182 379.00000 367.85822 0.00264
96.05182 358.00000 367.88838 0.00279
96.06181 366.00000 367.92690 0.00273
96.07182 360.00000 367.97403 0.00278
96.08182 403.00000 368.02977 0.00248
96.09182 382.00000 368.09431 0.00262
96.10181 370.00000 368.16767 0.00270
96.11182 356.00000 368.25021 0.00281
96.12182 360.00000 368.34181 0.00278
96.13182 373.00000 368.44265 0.00268
96.14182 389.00000 368.55283 0.00257
96.15182 390.00000 368.67243 0.00256
96.16182 374.00000 368.80155 0.00267
96.17182 348.00000 368.94024 0.00287
96.18182 379.00000 369.08856 0.00264
96.19182 404.00000 369.24656 0.00248
96.20182 411.00000 369.41425 0.00243
96.21182 374.00000 369.59166 0.00267
96.22182 348.00000 369.77877 0.00287
96.23182 359.00000 369.97555 0.00279
96.24182 392.00000 370.18192 0.00255
96.25182 394.00000 370.39782 0.00254
96.26182 371.00000 370.62311 0.00270
96.27182 374.00000 370.85766 0.00267
96.28182 357.00000 371.10129 0.00280
96.29182 376.00000 371.35378 0.00266
96.30182 371.00000 371.61489 0.00270
96.31182 401.00000 371.88434 0.00249
96.32182 363.00000 372.16183 0.00275
96.33183 338.00000 372.44730 0.00296
96.34182 394.00000 372.73955 0.00254
96.35182 393.00000 373.03907 0.00254
96.36182 371.00000 373.34507 0.00270
96.37183 382.00000 373.65720 0.00262
96.38182 371.00000 373.97345 0.00270
96.39182 413.00000 374.29210 0.00242
96.40182 367.00000 374.60704 0.00272
96.41183 361.00000 374.92867 0.00277
96.42182 374.00000 375.26309 0.00267
96.43182 383.00000 375.60575 0.00261
96.44183 389.00000 375.95363 0.00257
96.45183 392.00000 376.30532 0.00255
96.46182 410.00000 376.66058 0.00244
96.47182 360.00000 377.01998 0.00278
96.48183 380.00000 377.38333 0.00263
96.49183 381.00000 377.74974 0.00262
96.50182 414.00000 378.11895 0.00242
96.51183 382.00000 378.49179 0.00262
96.52183 402.00000 378.86680 0.00249
96.53183 408.00000 379.24394 0.00245
96.54182 408.00000 379.62231 0.00245
96.55183 371.00000 380.00244 0.00270
96.56183 388.00000 380.38251 0.00258
96.57183 377.00000 380.76208 0.00265
96.58183 372.00000 381.14026 0.00269
96.59183 387.00000 381.51603 0.00258
96.60183 399.00000 381.88828 0.00251
96.61183 385.00000 382.25585 0.00260
96.62183 423.00000 382.61747 0.00236
96.63183 397.00000 382.97187 0.00252
96.64183 393.00000 383.31771 0.00254
96.65183 387.00000 383.65371 0.00258
96.66183 375.00000 383.97860 0.00267
96.67183 380.00000 384.29118 0.00263
96.68183 413.00000 384.59038 0.00242
96.69183 412.00000 384.87523 0.00243
96.70183 411.00000 385.14495 0.00243
96.71183 383.00000 385.39891 0.00261
96.72183 388.00000 385.63667 0.00258
96.73183 399.00000 385.85798 0.00251
96.74183 399.00000 386.06277 0.00251
96.75183 411.00000 386.25111 0.00243
96.76183 392.00000 386.42326 0.00255
96.77184 413.00000 386.57969 0.00242
96.78183 402.00000 386.72040 0.00249
96.79183 428.00000 386.84633 0.00234
96.80183 421.00000 386.95785 0.00238
96.81184 374.00000 387.05561 0.00267
96.82183 393.00000 387.13985 0.00254
96.83183 353.00000 387.21138 0.00283
96.84184 372.00000 387.27068 0.00269
96.85184 376.00000 387.31812 0.00266
96.86183 367.00000 387.35419 0.00272
96.87183 380.00000 387.37946 0.00263
96.88184 386.00000 387.39433 0.00259
96.89184 392.00000 387.39922 0.00255
96.90183 404.00000 387.39460 0.00248
96.91183 409.00000 387.38090 0.00244
96.92184 377.00000 387.35848 0.00265
96.93184 367.00000 387.32780 0.00272
96.94183 403.00000 387.28924 0.00248
96.95184 388.00000 387.24305 0.00258
96.96184 402.00000 387.18971 0.00249
96.97184 379.00000 387.12953 0.00264
96.98183 396.00000 387.06299 0.00253
96.99184 406.00000 386.99031 0.00246
97.00184 363.00000 386.91224 0.00275
97.01184 364.00000 386.82933 0.00275
97.02184 380.00000 386.74235 0.00263
97.03184 374.00000 386.65221 0.00267
97.04184 369.00000 386.55997 0.00271
97.05184 385.00000 386.46686 0.00260
97.06184 344.00000 386.37425 0.00291
97.07184 401.00000 386.28366 0.00249
97.08184 402.00000 386.19672 0.00249
97.09184 383.00000 386.11514 0.00261
97.10184 393.00000 386.04068 0.00254
97.11184 395.00000 385.97513 0.00253
97.12184 385.00000 385.92024 0.00260
97.13184 381.00000 385.87774 0.00262
97.14184 397.00000 385.84925 0.00252
97.15184 371.00000 385.83632 0.00270
97.16184 390.00000 385.84036 0.00256
97.17184 397.00000 385.86266 0.00252
97.18184 372.00000 385.90435 0.00269
97.19184 400.00000 385.96642 0.00250
97.20184 409.00000 386.04971 0.00244
97.21185 415.00000 386.15500 0.00241
97.22184 371.00000 386.28249 0.00270
97.23184 413.00000 386.43289 0.00242
97.24184 414.00000 386.60633 0.00242
97.25185 425.00000 386.80308 0.00235
97.26184 409.00000 387.02250 0.00244
97.27184 381.00000 387.26501 0.00262
97.28185 398.00000 387.53037 0.00251
97.29185 392.00000 387.81760 0.00255
97.30184 377.00000 388.12606 0.00265
97.31184 380.00000 388.45567 0.00263
97.32185 406.00000 388.80566 0.00246
97.33185 364.00000 389.17437 0.00275
97.34184 387.00000 389.56066 0.00258
97.35184 390.00000 389.96410 0.00256
97.36185 383.00000 390.38338 0.00261
97.37185 381.00000 390.81619 0.00262
97.38184 369.00000 391.26089 0.00271
97.39185 375.00000 391.71709 0.00267
97.40185 370.00000 392.18157 0.00270
97.41185 362.00000 392.65279 0.00276
97.42184 385.00000 393.12814 0.00260
97.43185 391.00000 393.60682 0.00256
97.44185 376.00000 394.08503 0.00266
97.45185 375.00000 394.56080 0.00267
97.46185 403.00000 395.03157 0.00248
97.47185 388.00000 395.49471 0.00258
97.48185 382.00000 395.94752 0.00262
97.49185 392.00000 396.38726 0.00255
97.50185 389.00000 396.81116 0.00257
97.51185 395.00000 397.21646 0.00253
97.52185 411.00000 397.60043 0.00243
97.53185 379.00000 397.96037 0.00264
97.54185 357.00000 398.29371 0.00280
97.55185 373.00000 398.59796 0.00268
97.56185 396.00000 398.87079 0.00253
97.57185 385.00000 399.11004 0.00260
97.58185 404.00000 399.31378 0.00248
97.59185 385.00000 399.48028 0.00260
97.60185 400.00000 399.60809 0.00250
97.61185 392.00000 399.69609 0.00255
97.62185 382.00000 399.74344 0.00262
97.63185 396.00000 399.74958 0.00253
97.64185 403.00000 399.71428 0.00248
97.65186 404.00000 399.63756 0.00248
97.66185 397.00000 399.52008 0.00252
97.67185 366.00000 399.36230 0.00273
97.68185 374.00000 399.16526 0.00267
97.69186 381.00000 398.92977 0.00262
97.70185 388.00000 398.65741 0.00258
97.71185 381.00000 398.35001 0.00262
97.72186 423.00000 398.01147 0.00236
97.73186 364.00000 397.64382 0.00275
97.74185 389.00000 397.24899 0.00257
97.75185 372.00000 396.82858 0.00269
97.76186 380.00000 396.38510 0.00263
97.77186 421.00000 395.92204 0.00238
97.78185 361.00000 395.44211 0.00277
97.79185 364.00000 394.94704 0.00275
97.80186 388.00000 394.43942 0.00258
97.81186 399.00000 393.92283 0.00251
97.82185 395.00000 393.39983 0.00253
97.83186 376.00000 392.87128 0.00266
97.84186 390.00000 392.34109 0.00256
97.85186 394.00000 391.81097 0.00254
97.86185 367.00000 391.28354 0.00272
97.87186 388.00000 390.75923 0.00258
97.88186 367.00000 390.24144 0.00272
97.89186 359.00000 389.73138 0.00279
97.90186 373.00000 389.23061 0.00268
97.91186 370.00000 388.74057 0.00270
97.92186 378.00000 388.26257 0.00265
97.93186 384.00000 387.79776 0.00260
97.94186 398.00000 387.34716 0.00251
97.95186 396.00000 386.91167 0.00253
97.96186 364.00000 386.49203 0.00275
97.97186 369.00000 386.08888 0.00271
97.98186 390.00000 385.70272 0.00256
97.99186 363.00000 385.33391 0.00275
98.00186 355.00000 384.98269 0.00282
98.01186 387.00000 384.64921 0.00258
98.02186 407.00000 384.33344 0.00246
98.03186 404.00000 384.03528 0.00248
98.04186 401.00000 383.75446 0.00249
98.05186 396.00000 383.49064 0.00253
98.06186 383.00000 383.24330 0.00261
98.07186 401.00000 383.01181 0.00249
98.08186 382.00000 382.79544 0.00262
98.09187 361.00000 382.59308 0.00277
98.10186 401.00000 382.40431 0.00249
98.11186 410.00000 382.22738 0.00244
98.12186 375.00000 382.06118 0.00267
98.13187 401.00000 381.90411 0.00249
98.14186 390.00000 381.75511 0.00256
98.15186 403.00000 381.61199 0.00248
98.16187 352.00000 381.47299 0.00284
98.17187 393.00000 381.33652 0.00254
98.18186 382.00000 381.20061 0.00262
98.19186 382.00000 381.06300 0.00262
98.20187 363.00000 380.92171 0.00275
98.21187 377.00000 380.77508 0.00265
98.22186 398.00000 380.62129 0.00251
98.23186 370.00000 380.45830 0.00270
98.24187 360.00000 380.28454 0.00278
98.25187 375.00000 380.09907 0.00267
98.26186 403.00000 379.90086 0.00248
98.27187 399.00000 379.68853 0.00251
98.28187 403.00000 379.46224 0.00248
98.29187 364.00000 379.22165 0.00275
98.30186 382.00000 378.96717 0.00262
98.31187 363.00000 378.69844 0.00275
98.32187 386.00000 378.41695 0.00259
98.33187 380.00000 378.12336 0.00263
98.34187 381.00000 377.81874 0.00262
98.35187 376.00000 377.50433 0.00266
98.36187 385.00000 377.18142 0.00260
98.37187 384.00000 376.85134 0.00260
98.38187 373.00000 376.51532 0.00268
98.39187 394.00000 376.17442 0.00254
98.40187 405.00000 375.83116 0.00247
98.41187 384.00000 375.48653 0.00260
98.42187 373.00000 375.14159 0.00268
98.43187 372.00000 374.79743 0.00269
98.44187 391.00000 374.45513 0.00256
98.45187 384.00000 374.11573 0.00260
98.46187 404.00000 373.78017 0.00248
98.47187 386.00000 373.44933 0.00259
98.48187 380.00000 373.12400 0.00263
98.49187 369.00000 372.80492 0.00271
98.50187 378.00000 372.49278 0.00265
98.51187 361.00000 372.18818 0.00277
98.52187 363.00000 371.89170 0.00275
98.53188 361.00000 371.60357 0.00277
98.54187 361.00000 371.32509 0.00277
98.55187 374.00000 371.05585 0.00267
98.56187 390.00000 370.79651 0.00256
98.57188 366.00000 370.54715 0.00273
98.58187 351.00000 370.30882 0.00285
98.59187 364.00000 370.08104 0.00275
98.60188 387.00000 369.86409 0.00258
98.61188 421.00000 369.65859 0.00238
98.62187 399.00000 369.46468 0.00251
98.63187 383.00000 369.28212 0.00261
98.64188 376.00000 369.11105 0.00266
98.65188 352.00000 368.95190 0.00284
98.66187 371.00000 368.80471 0.00270
98.67188 392.00000 368.66911 0.00255
98.68188 390.00000 368.54554 0.00256
98.69188 368.00000 368.43388 0.00272
98.70187 380.00000 368.33421 0.00263
98.71188 344.00000 368.24622 0.00291
98.72188 368.00000 368.17018 0.00272
98.73188 320.00000 368.10593 0.00313
98.74187 370.00000 368.05346 0.00270
98.75188 365.00000 368.01256 0.00274
98.76188 397.00000 367.98329 0.00252
98.77188 381.00000 367.96551 0.00262
98.78188 374.00000 367.95910 0.00267
98.79188 386.00000 367.96396 0.00259
98.80188 362.00000 367.97994 0.00276
98.81188 369.00000 368.00691 0.00271
98.82188 354.00000 368.04471 0.00282
98.83188 370.00000 368.09316 0.00270
98.84188 379.00000 368.15207 0.00264
98.85188 367.00000 368.22123 0.00272
98.86188 406.00000 368.30040 0.00246
98.87188 370.00000 368.38933 0.00270
98.88188 390.00000 368.48774 0.00256
98.89188 365.00000 368.59531 0.00274
98.90188 381.00000 368.71170 0.00262
98.91188 390.00000 368.83655 0.00256
98.92188 350.00000 368.96942 0.00286
98.93188 351.00000 369.10987 0.00285
98.94188 375.00000 369.25738 0.00267
98.95188 367.00000 369.41140 0.00272
98.96188 376.00000 369.57133 0.00266
98.97189 383.00000 369.73664 0.00261
98.98188 351.00000 369.90611 0.00285
98.99188 354.00000 370.07943 0.00282
99.00188 349.00000 370.25555 0.00287
99.01189 364.00000 370.43368 0.00275
99.02188 380.00000 370.61227 0.00263
99.03188 399.00000 370.79073 0.00251
99.04189 371.00000 370.96787 0.00270
99.05189 371.00000 371.14209 0.00270
99.06188 416.00000 371.31207 0.00240
99.07188 366.00000 371.47673 0.00273
99.08189 385.00000 371.63455 0.00260
99.09189 380.00000 371.78336 0.00263
99.10188 361.00000 371.92081 0.00277
99.11189 358.00000 372.04937 0.00279
99.12189 378.00000 372.16689 0.00265
99.13189 381.00000 372.27171 0.00262
99.14188 363.00000 372.36260 0.00275
99.15189 374.00000 372.43909 0.00267
99.16189 352.00000 372.50043 0.00284
99.17189 389.00000 372.54645 0.00257
99.18188 358.00000 372.57710 0.00279
99.19189 388.00000 372.59266 0.00258
99.20189 357.00000 372.59350 0.00280
99.21189 362.00000 372.58030 0.00276
99.22189 379.00000 372.55390 0.00264
99.23189 348.00000 372.51531 0.00287
99.24189 357.00000 372.46564 0.00280
99.25189 349.00000 372.40612 0.00287
99.26189 352.00000 372.33801 0.00284
99.27189 351.00000 372.26261 0.00285
99.28189 384.00000 372.18124 0.00260
99.29189 379.00000 372.09516 0.00264
99.30189 359.00000 372.00560 0.00279
99.31189 373.00000 371.91374 0.00268
99.32189 345.00000 371.82068 0.00290
99.33189 385.00000 371.72746 0.00260
99.34189 378.00000 371.63501 0.00265
99.35189 358.00000 371.54421 0.00279
99.36189 374.00000 371.45585 0.00267
99.37189 378.00000 371.37063 0.00265
99.38189 381.00000 371.28919 0.00262
99.39189 347.00000 371.21210 0.00288
99.40189 389.00000 371.13983 0.00257
99.41190 350.00000 371.07263 0.00286
99.42189 353.00000 371.01074 0.00283
99.43189 364.00000 370.95343 0.00275
99.44189 384.00000 370.89942 0.00260
99.45190 367.00000 370.84798 0.00272
99.46189 351.00000 370.80742 0.00285
99.47189 332.00000 370.77729 0.00301
99.48190 401.00000 370.75542 0.00249
99.49190 367.00000 370.74084 0.00272
99.50189 384.00000 370.73349 0.00260
99.51189 366.00000 370.73337 0.00273
99.52190 341.00000 370.74052 0.00293
99.53190 348.00000 370.75493 0.00287
99.54189 386.00000 370.77655 0.00259
99.55190 358.00000 370.80544 0.00279
99.56190 394.00000 370.84145 0.00254
99.57190 433.00000 370.88457 0.00231
99.58189 382.00000 370.93466 0.00262
99.59190 375.00000 370.99180 0.00267
99.60190 354.00000 371.05576 0.00282
99.61190 374.00000 371.12648 0.00267
99.62189 377.00000 371.20380 0.00265
99.63190 371.00000 371.28787 0.00270
99.64190 360.00000 371.37835 0.00278
99.65190 351.00000 371.47522 0.00285
99.66190 368.00000 371.57840 0.00272
99.67190 417.00000 371.68780 0.00240
99.68190 381.00000 371.80333 0.00262
99.69190 367.00000 371.92492 0.00272
99.70190 400.00000 372.05250 0.00250
99.71190 373.00000 372.18599 0.00268
99.72190 378.00000 372.32535 0.00265
99.73190 372.00000 372.47051 0.00269
99.74190 370.00000 372.62144 0.00270
99.75190 376.00000 372.77810 0.00266
99.76190 383.00000 372.94046 0.00261
99.77190 382.00000 373.10849 0.00262
99.78190 374.00000 373.28217 0.00267
99.79190 405.00000 373.46151 0.00247
99.80190 383.00000 373.64649 0.00261
99.81190 414.00000 373.83711 0.00242
99.82190 360.00000 374.03337 0.00278
99.83190 392.00000 374.23528 0.00255
99.84190 393.00000 374.44286 0.00254
99.85191 374.00000 374.65632 0.00267
99.86190 390.00000 374.87503 0.00256
99.87190 358.00000 375.09966 0.00279
99.88190 388.00000 375.32998 0.00258
99.89191 355.00000 375.56625 0.00282
99.90190 380.00000 375.80775 0.00263
99.91190 377.00000 376.05520 0.00265
99.92191 376.00000 376.30860 0.00266
99.93191 384.00000 376.56743 0.00260
99.94190 352.00000 376.83164 0.00284
99.95000 371.00000 377.05016 0.00270
99.96000 368.00000 377.32476 0.00272
99.97000 368.00000 377.60487 0.00272
99.98000 385.00000 377.89041 0.00260
99.99191 361.00000 378.23729 0.00277

_cod_database_fobs_code 2108751
