#------------------------------------------------------------------------------
#$Date: 2018-11-17 05:34:44 +0200 (Sat, 17 Nov 2018) $
#$Revision: 212032 $
#$URL: file:///home/coder/svn-repositories/cod/cif/2/10/83/2108306.cif $
#------------------------------------------------------------------------------
#
# This file is available in the Crystallography Open Database (COD),
# http://www.crystallography.net/. The original data for this entry
# were provided by IUCr Journals, http://journals.iucr.org/.
#
# The file may be used within the scientific community so long as
# proper attribution is given to the journal article from which the
# data were obtained.
#
data_2108306
loop_
_publ_author_name
'Mondal, Pradip Kumar'
'Shukla, Rahul'
'Biswas, Subha'
'Chopra, Deepak'
_publ_section_title
;
 Role of halogen-involved intermolecular interactions and existence of
 isostructurality in the crystal packing of ---CF~3~ and halogen (Cl or Br
 or I) substituted benzamides
;
_journal_coeditor_code           AW5013
_journal_issue                   6
_journal_name_full               'Acta Crystallographica Section B'
_journal_page_first
;
;
_journal_paper_doi               10.1107/S2052520618013422
_journal_volume                  74
_journal_year                    2018
_chemical_formula_sum            'C14 H9 Cl F3 N O'
_chemical_formula_weight         299.67
_space_group_crystal_system      triclinic
_space_group_IT_number           2
_space_group_name_Hall           '-P 1'
_space_group_name_H-M_alt        'P -1'
_symmetry_space_group_name_Hall  '-P 1'
_symmetry_space_group_name_H-M   'P -1'
_atom_sites_solution_hydrogens   mixed
_audit_creation_method           SHELXL-2016/6
_cell_angle_alpha                99.948(6)
_cell_angle_beta                 91.911(7)
_cell_angle_gamma                102.379(7)
_cell_formula_units_Z            2
_cell_length_a                   5.1563(5)
_cell_length_b                   10.7617(12)
_cell_length_c                   11.9075(13)
_cell_measurement_reflns_used    5230
_cell_measurement_temperature    100(2)
_cell_measurement_theta_max      28.59
_cell_measurement_theta_min      2.83
_cell_volume                     633.98(12)
_computing_cell_refinement       'Bruker SAINT'
_computing_data_collection       'Bruker APEX2'
_computing_data_reduction        'Bruker SAINT'
_computing_molecular_graphics    'Bruker SHELXTL'
_computing_publication_material  'Bruker SHELXTL'
_computing_structure_refinement  'SHELXL-2016/6 (Sheldrick, 2016)'
_computing_structure_solution    'SHELXT 2014/4 (Sheldrick, 2014)'
_diffrn_ambient_temperature      100(2)
_diffrn_measured_fraction_theta_full 0.975
_diffrn_measured_fraction_theta_max 0.975
_diffrn_measurement_device_type  'Bruker APEX-II CCD'
_diffrn_measurement_method       '\f and \w scans'
_diffrn_radiation_type           MoK\a
_diffrn_radiation_wavelength     0.71073
_diffrn_reflns_av_R_equivalents  0.0405
_diffrn_reflns_av_unetI/netI     0.0390
_diffrn_reflns_Laue_measured_fraction_full 0.975
_diffrn_reflns_Laue_measured_fraction_max 0.975
_diffrn_reflns_limit_h_max       6
_diffrn_reflns_limit_h_min       -6
_diffrn_reflns_limit_k_max       13
_diffrn_reflns_limit_k_min       -13
_diffrn_reflns_limit_l_max       14
_diffrn_reflns_limit_l_min       -14
_diffrn_reflns_number            7784
_diffrn_reflns_point_group_measured_fraction_full 0.975
_diffrn_reflns_point_group_measured_fraction_max 0.975
_diffrn_reflns_theta_full        25.242
_diffrn_reflns_theta_max         25.498
_diffrn_reflns_theta_min         2.378
_exptl_absorpt_coefficient_mu    0.332
_exptl_absorpt_correction_T_max  0.7460
_exptl_absorpt_correction_T_min  0.6322
_exptl_absorpt_correction_type   multi-scan
_exptl_absorpt_process_details   'SADABS 2014/4'
_exptl_crystal_density_diffrn    1.570
_exptl_crystal_description       Plate
_exptl_crystal_F_000             304
_exptl_crystal_size_max          0.500
_exptl_crystal_size_mid          0.100
_exptl_crystal_size_min          0.060
_refine_diff_density_max         0.488
_refine_diff_density_min         -0.320
_refine_diff_density_rms         0.082
_refine_ls_extinction_method     none
_refine_ls_goodness_of_fit_ref   1.138
_refine_ls_hydrogen_treatment    mixed
_refine_ls_matrix_type           full
_refine_ls_number_parameters     185
_refine_ls_number_reflns         2306
_refine_ls_number_restraints     0
_refine_ls_restrained_S_all      1.138
_refine_ls_R_factor_all          0.0650
_refine_ls_R_factor_gt           0.0554
_refine_ls_shift/su_max          0.000
_refine_ls_shift/su_mean         0.000
_refine_ls_structure_factor_coef Fsqd
_refine_ls_weighting_details
'w=1/[\s^2^(Fo^2^)+(0.0407P)^2^+1.8174P] where P=(Fo^2^+2Fc^2^)/3'
_refine_ls_weighting_scheme      calc
_refine_ls_wR_factor_gt          0.1354
_refine_ls_wR_factor_ref         0.1397
_reflns_Friedel_coverage         0.000
_reflns_number_gt                2011
_reflns_number_total             2306
_reflns_threshold_expression     'I > 2\s(I)'
_cod_data_source_file            aw5013sup1.cif
_cod_data_source_block           PC34
_cod_database_code               2108306
_shelx_shelxl_version_number     2016/6
_shelx_space_group_comment
;
The symmetry employed for this shelxl refinement is uniquely defined
by the following loop, which should always be used as a source of
symmetry information in preference to the above space-group names.
They are only intended as comments.
;
_shelx_estimated_absorpt_t_min   0.852
_shelx_estimated_absorpt_t_max   0.980
_shelx_res_file
;
TITL    PC34 in P -1
    shelx.res
    created by SHELXL-2016/6 at 12:37:42 on 10-Sep-2018
CELL    0.71073   5.1563  10.7617  11.9075  99.948  91.911 102.379
ZERR    2       0.0005   0.0012   0.0013   0.006   0.007   0.007
LATT    1
SFAC    C   H   N   O   F   CL
UNIT    28  18   2   2   6   2
MERG    2
ACTA
L.S.    12
OMIT   3 0 3
OMIT   2 3 3
OMIT   1 2 1
OMIT   -2 51
TEMP -173
BOND $H
ACTA
HTAB
CONF
SIZE 0.06 0.10 0.5
FMAP    2
PLAN    10
WGHT    0.040700    1.817400
FVAR       0.88109
CL1   6    0.822994   -0.114941   -0.177030    11.00000    0.02293    0.01366 =
         0.02596   -0.00147   -0.00045    0.00646
F1    5    0.953485    0.679092    0.588688    11.00000    0.06181    0.04001 =
         0.01528   -0.00012   -0.00799    0.02150
F2    5    1.033839    0.844297    0.505817    11.00000    0.04594    0.02235 =
         0.02727   -0.00917   -0.00195   -0.00214
F3    5    0.630981    0.752188    0.527447    11.00000    0.03045    0.04992 =
         0.03450   -0.02022   -0.00145    0.01766
O1    4    1.058088    0.351310    0.044581    11.00000    0.01159    0.01811 =
         0.02150   -0.00179    0.00153    0.00358
N1    3    0.604559    0.309514    0.022569    11.00000    0.00924    0.01574 =
         0.01612   -0.00109    0.00089    0.00437
H1    2    0.475692    0.332989    0.043447    11.00000    0.02722
C1    1    0.835489    0.464798    0.185737    11.00000    0.01327    0.01396 =
         0.01144    0.00231   -0.00361    0.00485
C2    1    0.623623    0.452114    0.255871    11.00000    0.01180    0.01795 =
         0.01608    0.00141   -0.00199    0.00088
AFIX  43
H2    2    0.470976    0.383627    0.233747    11.00000   -1.20000
AFIX   0
C3    1    0.634007    0.538476    0.357395    11.00000    0.01692    0.02147 =
         0.01632    0.00399    0.00141    0.00546
AFIX  43
H3    2    0.490102    0.528611    0.405292    11.00000   -1.20000
AFIX   0
C4    1    0.856464    0.640043    0.389152    11.00000    0.01746    0.01830 =
         0.01416    0.00107   -0.00346    0.00725
C5    1    1.067834    0.655077    0.319209    11.00000    0.01293    0.01622 =
         0.01905   -0.00015   -0.00452    0.00133
AFIX  43
H5    2    1.218139    0.725041    0.340463    11.00000   -1.20000
AFIX   0
C6    1    1.057269    0.567338    0.218523    11.00000    0.01062    0.01619 =
         0.01803    0.00462    0.00044    0.00498
AFIX  43
H6    2    1.202172    0.576813    0.171127    11.00000   -1.20000
AFIX   0
C7    1    0.843220    0.370615    0.078177    11.00000    0.01175    0.01252 =
         0.01629    0.00424    0.00124    0.00278
C8    1    0.564919    0.206456   -0.074079    11.00000    0.01045    0.01439 =
         0.01304    0.00058    0.00107    0.00114
C9    1    0.374881    0.202736   -0.160585    11.00000    0.01311    0.01596 =
         0.02152    0.00305    0.00020    0.00301
AFIX  43
H9    2    0.275811    0.268194   -0.155531    11.00000   -1.20000
AFIX   0
C10   1    0.330305    0.101887   -0.255269    11.00000    0.01709    0.02178 =
         0.01490    0.00057   -0.00617    0.00379
AFIX  43
H10   2    0.202498    0.099759   -0.315316    11.00000   -1.20000
AFIX   0
C11   1    0.471526    0.004774   -0.262186    11.00000    0.01755    0.01537 =
         0.01659   -0.00233   -0.00192    0.00037
AFIX  43
H11   2    0.442400   -0.063874   -0.326394    11.00000   -1.20000
AFIX   0
C12   1    0.655511    0.010621   -0.173226    11.00000    0.01491    0.01325 =
         0.01744    0.00180    0.00378    0.00293
C13   1    0.706544    0.110131   -0.079358    11.00000    0.01206    0.01564 =
         0.01571    0.00036   -0.00078    0.00169
AFIX  43
H13   2    0.835795    0.112364   -0.019856    11.00000   -1.20000
AFIX   0
C14   1    0.869769    0.728928    0.501554    11.00000    0.02479    0.02381 =
         0.01865   -0.00248   -0.00287    0.00798
HKLF 4




REM     PC34 in P -1
REM R1 =  0.0554 for    2011 Fo > 4sig(Fo)  and  0.0650 for all    2306 data
REM    185 parameters refined using      0 restraints

END

WGHT      0.0407      1.8174

REM Instructions for potential hydrogen bonds
EQIV $1 x-1, y, z
HTAB N1 O1_$1
EQIV $2 -x+2, -y, -z
HTAB C13 Cl1_$2

REM Highest difference peak  0.488,  deepest hole -0.320,  1-sigma level  0.082
Q1    1   0.2976  0.0863 -0.0088  11.00000  0.05    0.49
Q2    1   0.4037  0.7359  0.6356  11.00000  0.05    0.40
Q3    1   0.6319  0.3133  0.3445  11.00000  0.05    0.35
Q4    1   0.8496 -0.0353 -0.2166  11.00000  0.05    0.35
Q5    1   0.5148  0.0252 -0.4523  11.00000  0.05    0.30
Q6    1   0.7048 -0.0142 -0.0359  11.00000  0.05    0.30
Q7    1   0.7340  0.0776 -0.1523  11.00000  0.05    0.29
Q8    1   0.8197 -0.1305 -0.2740  11.00000  0.05    0.29
Q9    1   0.9335  0.7270  0.6557  11.00000  0.05    0.28
Q10   1   0.3560  0.0479 -0.3636  11.00000  0.05    0.28
;
_shelx_res_checksum              97925
_shelx_hkl_file
;
  -1   0   0  397.66   13.30
   1   0   0  384.66   13.20
   1   0   0  375.06   13.30
  -2   0   0  199.48    7.60
   2   0   0  201.28    7.30
   2   0   0  187.58    7.60
   3   0   0   44.60    3.20
   4   0   0  588.14   21.00
   5   0   0   90.39    5.80
   6   0   0   68.99    6.10
   6  -1   0  130.79    7.90
   5  -1   0  173.08    8.10
   4  -1   0   72.39    4.50
   3  -1   0    0.20    1.60
   2  -1   0   52.19    2.80
  -2   1   0   53.89    3.20
   1  -1   0    0.00    0.70
  -1  -1   0 2660.73   86.79
   1   1   0 2540.05   86.79
   1   1   0 2568.44   86.69
  -2  -1   0  630.04   21.80
   2   1   0  618.04   21.90
   2   1   0  635.34   21.60
  -3  -1   0   34.20    4.20
   3   1   0   31.40    3.20
   3   1   0   29.20    2.80
  -4  -1   0   81.69    7.70
   4   1   0   87.99    6.50
   4   1   0   84.89    4.80
   5   1   0   98.69    6.10
   6   1   0   41.10    4.90
   6  -2   0  213.68    9.80
   5  -2   0  376.86   14.50
   4  -2   0  169.48    7.30
   3  -2   0  230.98    8.80
   2  -2   0  150.48    5.80
   1  -2   0  122.69    4.50
   0  -2   0  181.28    6.60
   0  -2   0  176.28    6.60
   0  -2   0  173.48    6.50
   0   2   0  177.98    6.50
   0   2   0  175.78    6.50
  -1  -2   0 1298.07   42.70
  -1  -2   0 1265.37   42.90
   1   2   0 1284.17   42.80
   1   2   0 1240.48   42.80
   1   2   0 1243.58   42.50
  -2  -2   0  195.48    7.50
   2   2   0  192.58    7.60
   2   2   0  201.98    7.30
   3   2   0    4.20    1.80
   3   2   0    2.10    1.70
  -4  -2   0  292.27   18.90
   4   2   0  355.36   12.80
   4   2   0  346.07   13.90
  -5  -2   0   82.89   11.20
   5   2   0   90.19    5.70
  -6  -2   0    7.60   10.50
   6   2   0   18.30    4.10
   6  -3   0   29.80    4.00
   5  -3   0  101.19    5.70
   4  -3   0  154.08    6.70
   3  -3   0   97.49    4.60
   2  -3   0  793.62   27.10
   1  -3   0   40.30    2.80
   1  -3   0   46.30    2.00
   1  -3   0   43.80    3.00
  -1   3   0   44.10    2.80
   0  -3   0   50.99    3.00
   0  -3   0   50.29    3.00
   0  -3   0   50.09    3.10
   0   3   0   51.99    3.00
   0   3   0   48.80    2.90
   0   3   0   48.30    2.80
  -1  -3   0  242.28    9.30
   1   3   0  243.68    9.00
   1   3   0  254.57    9.30
   1   3   0  257.77    8.70
  -2  -3   0   95.99    4.70
   2   3   0   96.69    4.00
   2   3   0   92.99    4.40
   2   3   0   91.09    4.70
   3   3   0   34.00    3.60
   3   3   0   35.50    3.10
  -4  -3   0  136.19   10.20
   4   3   0  123.49    7.70
   4   3   0  122.09    6.20
  -5  -3   0   62.89    9.40
   5   3   0   55.09    5.10
   5   3   0   57.09    7.50
   6   3   0   17.80    4.60
   6  -4   0   30.90    4.10
   5  -4   0   18.90    3.20
   3  -4   0  479.85   17.00
   2  -4   0 1331.97   45.30
  -2   4   0 1349.16   46.00
   1  -4   0 1681.03   57.19
   1  -4   0 1662.83   57.09
   1  -4   0 1657.13   57.29
  -1   4   0 1738.33   57.29
  -1   4   0 1671.33   57.09
  -1   4   0 1686.73   57.09
   0  -4   0  603.14   21.00
   0  -4   0  584.94   20.80
   0  -4   0  582.64   20.80
   0   4   0  597.54   20.70
   0   4   0  590.84   20.70
   0   4   0  586.34   20.80
  -1  -4   0 3431.06  114.29
   1   4   0 3387.36  113.69
   1   4   0 3352.46  114.09
  -2  -4   0  295.17   11.30
   2   4   0  287.97   11.20
   2   4   0  293.17   11.10
   2   4   0  297.77   10.60
  -3  -4   0    9.30    2.70
   3   4   0   11.40    2.40
   3   4   0   12.20    2.30
  -4  -4   0   23.10    5.90
   4   4   0   16.00    3.60
   4   4   0   22.50    3.20
  -5  -4   0   11.20    8.40
   5   4   0    8.80    4.70
   5   4   0   12.00    3.80
   6  -5   0   56.09    5.30
   5  -5   0   38.10    4.00
   4  -5   0   83.49    4.70
   3  -5   0   25.30    2.60
  -3   5   0   31.90    3.70
  -2   5   0    7.60    2.10
  -2   5   0    7.10    2.20
   1  -5   0  480.35   17.60
   1  -5   0  481.15   17.70
   1  -5   0  496.05   17.60
  -1   5   0  478.75   17.40
  -1   5   0  478.95   17.50
  -1   5   0  481.95   17.60
   0  -5   0  426.86   14.90
   0  -5   0  382.06   14.80
   0  -5   0  387.96   15.00
   0   5   0  403.16   14.80
   0   5   0  412.76   14.80
   0   5   0  400.16   14.80
  -1  -5   0   90.29    5.30
   1   5   0   94.79    4.10
   1   5   0   95.39    5.00
  -2  -5   0  715.23   24.90
   2   5   0  682.83   24.60
   2   5   0  693.63   23.80
   2   5   0  672.43   24.40
   3   5   0   17.60    2.60
   4   5   0    3.30    3.40
   4   5   0    3.40    3.00
  -5  -5   0   -4.40    9.70
  -5  -5   0   10.00   11.00
   5   5   0   13.40    5.10
   5   5   0   16.50    3.90
   6  -6   0   -2.50    3.00
   5  -6   0   16.00    2.90
   4  -6   0  243.48    9.50
   3  -6   0  109.69    4.90
  -3   6   0  110.69    7.10
   2  -6   0  137.89    7.30
   2  -6   0  158.88    7.80
  -2   6   0  152.08    7.50
  -2   6   0  153.08    7.60
  -2   6   0  155.58    7.20
   1  -6   0   33.00    4.00
   1  -6   0   31.10    3.70
   1  -6   0   34.70    3.60
  -1   6   0   32.60    3.40
  -1   6   0   26.00    3.50
  -1   6   0   30.80    3.60
   0  -6   0  181.68    8.40
   0  -6   0  177.28    8.40
   0   6   0  190.38    8.20
   0   6   0  195.28    8.20
   0   6   0  180.58    8.20
  -1  -6   0  248.28   10.60
   1   6   0  252.97   10.30
  -2  -6   0  740.13   27.00
   2   6   0  767.42   26.80
   2   6   0  710.03   26.30
   2   6   0  761.72   25.70
  -3  -6   0   -0.80    3.80
   3   6   0    0.00    2.70
   3   6   0    0.10    3.70
   3   6   0    1.90    2.10
   4   6   0   65.49    7.20
   4   6   0   54.29    5.30
  -5  -6   0   31.20   13.40
   5   6   0   29.40    4.70
   5   6   0   24.50    6.30
   6  -7   0    3.40    3.00
   5  -7   0  158.58    7.30
   4  -7   0  231.58    9.20
  -4   7   0  232.08   11.80
  -3   7   0   13.50    4.00
   2  -7   0   13.00    3.60
   2  -7   0   17.60    3.90
  -2   7   0   16.10    3.90
  -2   7   0   14.80    3.30
  -2   7   0   16.40    3.40
   1  -7   0  489.95   18.10
   1  -7   0  464.05   17.90
   1  -7   0  457.05   18.00
  -1   7   0  467.15   17.60
  -1   7   0  467.35   17.70
  -1   7   0  461.55   17.80
   0  -7   0   36.20    4.50
   0  -7   0   35.00    4.10
   0  -7   0   31.90    3.90
   0   7   0   29.40    3.90
   0   7   0   31.20    3.70
   0   7   0   34.10    4.40
  -1  -7   0  285.47   12.50
   1   7   0  286.27   11.80
  -2  -7   0    7.50    4.00
   2   7   0   12.10    2.10
   2   7   0    9.90    2.70
  -3  -7   0   41.00    5.60
   3   7   0   30.70    5.10
   3   7   0   36.20    3.40
   3   7   0   32.70    4.30
   4   7   0   38.30    5.50
   4   7   0   33.20    4.40
   5   7   0   25.40    6.80
   5   7   0   19.70    4.80
   6  -8   0   18.50    3.50
   5  -8   0    7.20    2.70
   4  -8   0   58.79    3.90
  -4   8   0   59.29    8.50
  -3   8   0  377.46   15.90
  -3   8   0  385.26   15.90
   2  -8   0  290.37   12.80
   2  -8   0  257.07   12.60
  -2   8   0  282.27   12.50
  -2   8   0  275.47   12.00
   1  -8   0   21.00    4.60
   1  -8   0   16.00    3.90
  -1   8   0   18.90    5.30
   0  -8   0  184.18    9.70
   0  -8   0  189.28   10.30
   0  -8   0  184.48    9.70
   0   8   0  190.98    9.20
   0   8   0  184.08    9.60
  -1  -8   0  104.79    8.00
   1   8   0  110.69    7.30
   1   8   0  118.39    5.60
  -2  -8   0   99.69    8.90
   2   8   0  123.29    7.00
   2   8   0  112.09    8.30
   2   8   0  116.49    5.40
  -3  -8   0   77.49    9.90
   3   8   0   90.19    7.20
   3   8   0   69.39    8.60
   3   8   0   84.99    5.30
  -4  -8   0    8.00    8.10
   4   8   0   27.70    8.00
   4   8   0   11.30    5.10
   4   8   0   17.60    4.20
   6  -9   0   36.20    4.20
  -5   9   0   32.50    8.70
  -4   9   0   63.29    7.60
   3  -9   0   22.70    5.60
  -3   9   0   29.00    5.10
  -3   9   0   29.70    5.50
  -3   9   0   35.80    5.90
   2  -9   0   62.79    8.10
   2  -9   0   42.20    6.40
  -2   9   0   60.69    8.10
  -2   9   0   49.40    6.60
  -2   9   0   50.49    6.60
   1  -9   0    6.60    4.30
   1  -9   0    8.60    4.80
   1  -9   0    4.10    4.20
  -1   9   0   10.70    4.80
  -1   9   0    6.90    3.60
  -1   9   0    8.80    3.90
   0  -9   0  966.00   34.40
   0  -9   0  912.31   34.30
   0  -9   0  921.01   33.80
   0   9   0  945.51   33.90
   0   9   0  926.81   33.80
   0   9   0  927.51   33.60
  -1  -9   0   22.20    5.30
   1   9   0   26.40    3.20
   1   9   0   33.80    5.10
  -2  -9   0    6.00    5.90
   2   9   0    3.90    2.30
   2   9   0    3.80    3.40
  -3  -9   0   19.00    7.60
   3   9   0   21.30    3.60
   3   9   0   15.50    4.80
   3   9   0   27.00    7.40
  -4  -9   0   13.20    9.90
   4   9   0   10.80    5.60
   4   9   0    1.90    3.90
   4   9   0   15.80    9.80
  -5  10   0   28.80    9.60
  -4  10   0   64.99    8.70
   3 -10   0  100.39   10.60
   3 -10   0  100.49   11.50
  -3  10   0   85.49    9.60
  -3  10   0   91.09    8.90
  -3  10   0   87.49   10.90
   2 -10   0   10.50    5.80
   2 -10   0    0.80    6.00
  -2  10   0   11.40    5.90
  -2  10   0   11.50    4.80
  -2  10   0    2.90    4.90
   1 -10   0   92.79    8.90
   1 -10   0   79.49    9.80
   1 -10   0   79.49    9.00
  -1  10   0   77.69    7.60
  -1  10   0   76.49    7.70
   0 -10   0   13.90    5.70
   0 -10   0   -1.00    6.50
   0 -10   0   -2.80    6.40
   0  10   0    2.10    4.80
   0  10   0    8.90    5.50
  -1 -10   0  277.57   16.00
  -1 -10   0  270.87   14.90
   1  10   0  279.17   14.90
   1  10   0  295.57   11.70
  -2 -10   0  239.18   14.80
   2  10   0  244.78    9.90
   2  10   0  239.08   14.30
   2  10   0  237.48   11.70
  -3 -10   0    4.50    8.20
   3  10   0    3.50    3.50
   3  10   0    4.20    8.90
   3  10   0    2.10    5.00
  -5  11   0   25.90   11.80
  -4  11   0   91.89   10.70
  -4  11   0   98.49   10.60
   3 -11   0   17.60    8.30
   3 -11   0   18.10    8.20
  -3  11   0   17.30    8.10
  -3  11   0   19.10    6.20
  -3  11   0    7.70    7.20
   2 -11   0   23.80    7.70
   2 -11   0   28.10    7.60
  -2  11   0   40.50    6.30
  -2  11   0   28.90    7.30
  -2  11   0   45.60    7.00
   1 -11   0   10.10    7.40
  -1  11   0   15.00    5.80
  -1  11   0   26.60    6.90
   0 -11   0  131.69   16.40
   0 -11   0  180.18   12.60
   0 -11   0  164.28   13.90
   0  11   0  151.08   12.40
   0  11   0  177.88   10.80
   0  11   0  146.29   11.20
  -1 -11   0   21.30    8.00
  -1 -11   0   31.50    9.60
   1  11   0   30.80    4.10
   1  11   0   19.20    7.10
  -2 -11   0   94.09   10.80
   2  11   0   94.29    6.00
   2  11   0  108.49   13.20
   2  11   0   74.29    8.10
  -3 -11   0   12.70   11.40
   3  11   0    6.40    4.00
   3  11   0    8.70    6.10
   4 -12   0   -2.90   11.90
  -4  12   0    7.70    7.80
  -4  12   0   -7.50   11.30
   3 -12   0  156.98   16.60
   3 -12   0  125.69   16.90
  -3  12   0  154.88   17.10
  -3  12   0  136.99   12.10
  -3  12   0  163.28   15.50
   2 -12   0  194.48   17.60
   2 -12   0  267.17   17.00
  -2  12   0  243.38   15.10
  -2  12   0  246.48   17.40
  -2  12   0  269.57   15.80
   1 -12   0   73.29   10.60
  -1  12   0   84.89    9.80
  -1  12   0   70.99    8.70
  -1  12   0   77.49    8.90
   0 -12   0   45.50   14.00
   0 -12   0   89.59   13.10
   0 -12   0   74.69    9.50
   0  12   0   77.09    9.00
   0  12   0   81.49    9.80
   0  12   0   64.59    8.80
  -1 -12   0   -2.10   11.90
  -1 -12   0   38.30    9.30
   1  12   0   16.50    4.70
  -2 -12   0    4.70   11.10
   2  12   0    1.30    5.40
   2  12   0    3.90    3.50
  -4  13   0    0.40    9.30
   3 -13   0  103.09   13.40
  -3  13   0   83.19   10.30
  -3  13   0   83.79   14.40
   2 -13   0   11.00   12.10
  -2  13   0   35.90   12.00
  -2  13   0    2.10    8.60
   1 -13   0   43.30   12.90
   1 -13   0   60.39   11.50
  -1  13   0   63.09   12.50
  -1  13   0   58.39    9.30
   0 -13   0   13.00   13.10
   0 -13   0   24.00   10.10
   0  13   0   29.20    8.80
  -1 -13   0   58.39   11.60
  -1 -13   0   74.69   13.20
   1  13   0   70.49    7.50
   2 -14   0   42.70   19.60
   2 -14   0   32.40   14.30
  -2  14   0   21.20   16.70
  -2  14   0   28.20   10.80
   1 -14   0   14.00   15.50
   1 -14   0   35.20   12.60
   1 -14   1   16.20   15.80
   1 -14   1   25.70   13.30
  -2  14  -1  144.19   17.10
  -2  14  -1  124.79   16.20
   2 -14   1  136.79   16.50
   2 -14   1   94.79   20.40
  -1 -13   1   65.99   19.40
  -1 -13   1   43.40   11.20
   0  13  -1   32.00    9.30
   0 -13   1   19.50   10.10
   0 -13   1   40.00   13.30
  -1  13  -1   95.59   10.00
  -1  13  -1   89.29   12.60
   1 -13   1   71.49   13.40
   1 -13   1   84.29   11.60
  -2  13  -1  161.58   13.50
  -2  13  -1  161.18   18.60
   2 -13   1  124.89   16.40
   2 -13   1  125.69   14.20
  -3  13  -1   -4.70    7.70
  -3  13  -1   16.00   11.80
   3 -13   1   11.50   11.60
  -4  13  -1  183.98   16.20
   2  12  -1   30.40    4.30
   2  12  -1   21.30    6.30
  -2 -12   1   46.70   11.60
   1  12  -1   -4.00   10.00
   1  12  -1   -9.50    4.10
  -1 -12   1    5.60    8.30
  -1 -12   1    5.50    9.20
   0  12  -1  158.18   12.90
   0  12  -1  187.38   13.30
   0  12  -1  155.68   15.10
   0 -12   1  166.38   13.90
  -1  12  -1   24.70    7.40
  -1  12  -1    0.50    6.40
  -1  12  -1   16.00    8.80
   1 -12   1   15.00    8.20
   1 -12   1   11.70    9.40
  -2  12  -1   11.90    9.10
  -2  12  -1   -7.00    7.40
  -2  12  -1   20.20    7.00
   2 -12   1   -6.20    9.20
   2 -12   1    3.10    8.20
  -3  12  -1   33.20    9.40
  -3  12  -1   43.20    7.50
  -3  12  -1   39.90   10.20
   3 -12   1   42.50   10.00
   3 -12   1   21.50   10.00
  -4  12  -1   39.80    8.10
  -4  12  -1   35.40   11.60
   3  11  -1   39.70    7.60
   3  11  -1   50.59    5.50
  -3 -11   1   47.90   11.80
   2  11  -1   20.40    5.10
   2  11  -1    1.50    7.90
   2  11  -1   18.60    3.50
  -2 -11   1   23.50    8.60
   1  11  -1  120.59    7.80
   1  11  -1  101.49   11.20
  -1 -11   1  116.29   11.90
  -1 -11   1  159.98   12.80
  -1 -11   1  127.09   15.10
   0  11  -1   40.30    6.80
   0  11  -1   39.40    6.40
   0  11  -1   38.70    7.60
   0 -11   1   14.60   10.90
   0 -11   1   43.10    8.50
  -1  11  -1  532.05   21.50
  -1  11  -1  528.55   22.80
   1 -11   1  525.15   22.40
   1 -11   1  530.55   23.20
  -2  11  -1   -2.30    4.90
  -2  11  -1    3.40    8.00
  -2  11  -1    2.50    5.40
   2 -11   1    2.20    6.80
   2 -11   1   -1.60    6.90
  -3  11  -1  116.49   13.40
  -3  11  -1  122.79   11.60
  -3  11  -1  126.29   10.10
   3 -11   1  112.49   13.30
   3 -11   1   99.39   10.20
  -4  11  -1   34.10    9.40
  -4  11  -1   19.00    8.90
  -5  11  -1   28.40   12.20
   3  10  -1    4.70    5.00
   3  10  -1    4.20    8.50
   3  10  -1   13.10    3.70
  -3 -10   1   20.50    8.90
   2  10  -1  102.69   10.30
   2  10  -1  111.09    7.80
   2  10  -1  107.39    5.90
  -2 -10   1  101.89   11.50
   1  10  -1   11.20    3.10
  -1 -10   1   10.40    7.10
  -1 -10   1    8.20    6.10
   0  10  -1  255.17   12.90
   0  10  -1  273.27   13.80
   0 -10   1  276.17   14.20
   0 -10   1  261.87   14.70
   0 -10   1  291.37   13.70
  -1  10  -1   31.90    5.30
  -1  10  -1   33.70    6.70
   1 -10   1   41.30    6.30
   1 -10   1   31.20    6.60
  -2  10  -1   -1.00    4.30
  -2  10  -1    2.80    4.50
  -2  10  -1   -0.50    5.90
   2 -10   1   -1.30    5.80
   2 -10   1    2.80    5.60
  -3  10  -1   12.00    6.50
  -3  10  -1   13.60    5.00
  -3  10  -1    6.40    5.80
   3 -10   1   11.10    6.60
   3 -10   1   -9.20    6.00
  -4  10  -1   26.30    7.80
  -5  10  -1   66.29   10.80
   4   9  -1   27.20    6.50
   4   9  -1   23.30    4.50
   3   9  -1   48.90    5.60
   3   9  -1   43.70    4.30
  -3  -9   1   43.30    9.80
   2   9  -1   79.39    4.80
   2   9  -1   74.79    6.30
   2   9  -1   90.79    8.20
  -2  -9   1   80.19    9.20
   1   9  -1  181.28    9.70
   1   9  -1  168.28    7.60
  -1  -9   1  169.78   10.10
  -1  -9   1  171.28   10.50
   0   9  -1  430.06   17.40
   0   9  -1  412.16   16.80
   0   9  -1  429.76   17.20
   0  -9   1  435.96   17.30
   0  -9   1  401.66   17.70
   0  -9   1  423.26   17.80
  -1   9  -1   61.49    6.20
  -1   9  -1   53.39    7.30
  -1   9  -1   49.99    6.20
   1  -9   1   66.89    7.50
   1  -9   1   68.99    8.60
  -2   9  -1  330.97   14.60
  -2   9  -1  340.07   15.30
  -2   9  -1  345.67   14.20
   2  -9   1  331.27   15.20
   2  -9   1  349.67   15.20
  -3   9  -1    3.40    5.00
  -3   9  -1   10.80    5.50
  -3   9  -1    4.50    3.80
  -4   9  -1   14.20    6.60
  -5   9  -1  210.18   15.70
   4   8  -1    5.90    4.90
   4   8  -1   -2.70    3.50
   3   8  -1    7.90    3.90
   3   8  -1   16.00    3.00
   3   8  -1    4.00    5.10
  -3  -8   1   13.30    5.90
   2   8  -1    8.70    4.30
   2   8  -1    4.80    2.00
   2   8  -1    7.50    2.90
  -2  -8   1   10.60    4.60
   1   8  -1  212.48    9.80
   1   8  -1  194.48    8.20
  -1  -8   1  202.78   10.50
  -1  -8   1  203.98   10.50
   0   8  -1    3.70    3.60
   0   8  -1   -3.70    2.90
   0   8  -1    6.10    3.60
   0  -8   1    1.70    3.40
   0  -8   1    6.90    3.80
   0  -8   1    5.10    4.20
  -1   8  -1   14.50    3.70
  -1   8  -1   13.30    3.50
  -1   8  -1    8.70    4.00
   1  -8   1   11.30    3.90
   1  -8   1   12.50    4.40
  -2   8  -1   11.60    4.20
  -2   8  -1    6.30    3.20
   2  -8   1    5.40    3.90
   2  -8   1   17.80    4.30
  -3   8  -1   61.39    7.30
  -4   8  -1  142.69   10.40
  -5   8  -1   12.70    7.60
   5  -8   1   13.00    2.80
   6  -8   1   67.99    5.60
   5   7  -1  125.69    8.50
   5   7  -1  134.39   11.80
  -5  -7   1  151.68   20.20
   4   7  -1   46.00    5.90
   4   7  -1   32.00    4.50
   3   7  -1   25.60    4.90
   3   7  -1   33.60    3.30
   3   7  -1   26.50    4.10
  -3  -7   1   27.90    5.40
   2   7  -1   -0.10    2.20
   2   7  -1    1.50    1.70
   2   7  -1    4.50    3.40
  -2  -7   1   -1.90    3.80
   1   7  -1    2.00    1.70
   1   7  -1    2.20    3.00
  -1  -7   1   -0.40    3.10
   0   7  -1  259.67   11.10
   0   7  -1  260.57   11.00
   0   7  -1  272.37   11.20
   0  -7   1  267.07   11.30
   0  -7   1  270.77   11.40
   0  -7   1  262.97   11.50
  -1   7  -1  332.07   13.70
  -1   7  -1  351.76   13.70
  -1   7  -1  339.97   13.30
   1  -7   1  341.07   13.80
   1  -7   1  350.26   13.80
  -2   7  -1  205.48    9.70
  -2   7  -1  199.58    9.70
  -2   7  -1  211.08    9.20
   2  -7   1  211.78    9.90
  -3   7  -1  104.19    7.50
  -4   7  -1   91.49   11.00
   4  -7   1   91.49    4.90
   5  -7   1    8.70    2.70
   6  -7   1   45.10    4.70
   5   6  -1   70.69    6.70
   5   6  -1   65.69    7.40
  -5  -6   1   82.09   14.30
   4   6  -1    0.30    3.80
   4   6  -1    1.50    2.90
   3   6  -1   74.69    4.40
   3   6  -1   83.69    6.00
   3   6  -1   71.69    6.30
   2   6  -1   10.10    1.70
   2   6  -1   10.50    3.00
   2   6  -1    8.30    2.30
  -2  -6   1    5.60    3.20
   1   6  -1  428.46   15.40
   1   6  -1  437.86   16.20
  -1  -6   1  436.76   16.70
   0   6  -1  451.85   16.50
   0   6  -1  437.66   16.50
   0   6  -1  445.56   16.30
   0  -6   1  442.26   16.50
   0  -6   1  436.26   16.80
   0  -6   1  446.36   16.50
  -1   6  -1  308.87   12.30
  -1   6  -1  309.97   12.00
  -1   6  -1  313.27   12.30
   1  -6   1  308.47   12.20
   1  -6   1  299.67   12.20
  -2   6  -1    4.50    2.40
  -2   6  -1    3.30    2.40
  -2   6  -1    3.30    2.80
   2  -6   1    2.00    2.60
  -3   6  -1  373.16   15.20
   3  -6   1  385.36   13.60
   4  -6   1    0.10    1.80
   5  -6   1   36.20    3.70
   6  -6   1   23.70    3.80
   5   5  -1    1.90    4.80
   5   5  -1    5.00    3.50
  -5  -5   1    6.20   10.80
  -5  -5   1   12.50    9.80
   4   5  -1   94.29    5.80
   4   5  -1   97.89    7.40
   3   5  -1  191.58    8.80
   3   5  -1  190.68    7.80
   2   5  -1   26.10    3.60
   2   5  -1   24.90    2.30
   2   5  -1   24.30    2.60
  -2  -5   1   26.20    3.30
   1   5  -1    3.60    1.10
   1   5  -1    3.20    2.00
  -1  -5   1    0.50    2.00
   0   5  -1   39.00    3.60
   0   5  -1   34.20    3.40
   0   5  -1   39.40    3.20
   0  -5   1   34.70    3.50
   0  -5   1   32.20    3.40
   0  -5   1   32.60    3.70
  -1   5  -1   38.20    3.40
  -1   5  -1   36.90    3.60
  -1   5  -1   40.50    3.90
   1  -5   1   38.00    3.60
   1  -5   1   37.60    3.90
  -2   5  -1  643.74   23.20
   3  -5   1   88.49    4.20
   4  -5   1  459.55   16.60
   5  -5   1   49.40    4.30
   6  -5   1  108.19    6.50
   6   4  -1   62.59    6.10
  -6  -4   1   57.39   16.10
   5   4  -1    1.90    3.10
   5   4  -1    0.60    4.50
  -5  -4   1    5.90    9.60
  -5  -4   1    5.70    8.50
   4   4  -1  203.28    8.80
   4   4  -1  198.68   10.00
   3   4  -1   35.10    3.20
   3   4  -1   31.40    3.90
   2   4  -1   19.30    2.10
  -1  -4   1    4.10    1.80
   0   4  -1  160.08    6.60
   0   4  -1  164.18    6.60
   0   4  -1  160.78    6.70
   0  -4   1  160.08    6.70
   0  -4   1  169.08    6.80
   0  -4   1  153.08    6.80
  -1   4  -1  246.38    9.50
  -1   4  -1  252.07    9.60
  -1   4  -1  246.38    9.80
   1  -4   1  263.27    9.70
   1  -4   1  252.07    9.50
   2  -4   1 1546.65   52.09
   3  -4   1   21.60    2.40
   4  -4   1   21.00    2.50
   5  -4   1   45.00    4.20
   6  -4   1    4.20    3.10
   6   3  -1   45.30    5.40
  -6  -3   1   41.50   12.60
  -6  -3   1   55.29   13.60
   5   3  -1   46.90    5.20
  -5  -3   1   53.19    8.40
   4   3  -1  167.28    7.30
   4   3  -1  156.78    8.60
   3   3  -1   57.89    4.10
   3   3  -1   53.29    3.60
   2   3  -1   54.49    2.80
   2   3  -1   52.29    3.20
   1   3  -1    4.70    1.00
   1   3  -1    5.10    1.20
  -1  -3   1    4.00    1.30
   0   3  -1  109.99    4.40
   0   3  -1   94.29    4.30
   0   3  -1   89.39    4.40
   0  -3   1   93.19    4.30
   0  -3   1  106.19    4.50
   0  -3   1   93.59    4.50
   2  -3   1  165.98    6.20
   3  -3   1   13.10    1.70
   4  -3   1  550.54   19.70
   5  -3   1  249.68   10.40
   6  -3   1    2.60    3.20
   6   2  -1   25.40    4.40
   5   2  -1   74.19    5.40
   4   2  -1  137.29    6.60
   4   2  -1  138.39    7.80
  -4  -2   1  138.99   10.90
  -4  -2   1  150.88    9.50
   3   2  -1  600.04   22.30
   3   2  -1  659.43   21.80
  -3  -2   1  603.54   23.80
   2   2  -1  331.57   12.50
   2   2  -1  343.77   12.10
  -2  -2   1  354.46   12.40
   1   2  -1  595.84   19.30
   1   2  -1  539.55   19.40
  -1  -2   1  565.74   19.40
   0   2  -1  455.45   15.70
   0   2  -1  461.85   15.80
   0   2  -1  465.35   15.70
   0  -2   1  450.65   15.70
   0  -2   1  449.46   15.70
   1  -2   1 7003.20  234.18
  -2   2  -1   19.90    2.30
   2  -2   1   21.80    1.80
   3  -2   1    5.30    1.60
   4  -2   1  299.47   11.40
   5  -2   1   79.19    5.20
   6  -2   1   64.09    5.90
   6   1  -1   22.30    4.20
   5   1  -1  236.28   10.10
   4   1  -1  444.66   16.20
  -4  -1   1  434.26   19.10
   3   1  -1   92.99    4.50
   3   1  -1   96.99    5.00
  -3  -1   1   92.39    7.10
   2   1  -1  913.11   32.40
   2   1  -1  963.40   32.10
  -2  -1   1  971.80   33.40
  -2  -1   1  926.81   32.40
   1   1  -1 2955.20  102.89
   1   1  -1 3194.18  102.79
  -1  -1   1 3064.09  102.89
   0   1  -1   56.69    2.70
  -1   1  -1 3249.27  106.49
  -1   1  -1 3079.19  107.19
   1  -1   1 3282.27  106.29
   1  -1   1 3107.49  106.89
   4  -1   1  289.37   11.10
   5  -1   1  805.62   28.60
   6  -1   1   89.39    6.50
   6   0  -1    5.30    3.60
   4   0  -1    8.90    2.30
   3   0  -1  175.48    6.80
  -3   0   1  159.08    8.80
   2   0  -1  171.08    6.50
  -2   0   1  173.48    6.80
   1   0  -1  356.66   12.00
   1   0  -1  340.27   12.70
  -1   0   1  353.86   12.70
  -1   0  -1  640.54   22.40
  -1   0  -1  661.83   21.90
   1   0   1  632.54   22.00
   1   0   1  640.74   21.80
   1   0   1  647.34   22.40
  -2   0  -1 2652.23   89.09
  -2   0  -1 2801.22   88.49
   2   0   1 2402.36   88.19
   2   0   1 2659.83   88.59
  -3   0  -1  110.69    6.70
   3   0   1  110.79    5.50
  -4   0  -1   68.09    7.10
   4   0   1   65.99    4.40
  -5   0  -1   15.50    5.70
   5   0   1   22.20    3.40
   6   0   1   13.40    3.90
   6  -1  -1   33.30    4.40
   5  -1  -1  317.17   12.70
   4  -1  -1  120.99    5.90
   3  -1  -1   73.49    4.00
  -3   1   1   86.89    6.00
   2  -1  -1   54.49    2.70
  -2   1   1   50.99    3.80
   1  -1  -1  528.15   17.40
   1  -1  -1  465.55   16.90
  -1   1   1  483.55   17.30
   0  -1  -1  158.28    5.70
   0  -1  -1  150.58    5.60
   0  -1  -1  152.48    5.70
   0   1   1  150.88    5.70
   0   1   1  151.98    5.60
  -1  -1  -1  876.91   28.50
  -1  -1  -1  854.21   28.60
   1   1   1  790.32   28.30
   1   1   1  871.71   28.60
   1   1   1  807.52   28.60
  -2  -1  -1  824.82   27.70
  -2  -1  -1  778.22   28.60
  -2  -1  -1  794.62   27.70
   2   1   1  815.52   27.90
   2   1   1  813.62   27.40
  -3  -1  -1  563.14   21.40
   3   1   1  563.94   20.40
  -4  -1  -1   17.50    4.50
   4   1   1   11.70    3.20
   4   1   1   14.40    2.60
  -5  -1  -1   10.00    6.40
   5   1   1   10.00    3.20
  -6  -1  -1   75.89   11.50
   6   1   1   86.39    6.80
   6  -2  -1   51.69    5.70
   5  -2  -1  353.16   13.80
   4  -2  -1   74.09    4.60
   3  -2  -1  465.85   16.50
   2  -2  -1  329.47   11.70
   1  -2  -1  185.38    6.90
   1  -2  -1  193.78    6.60
   1  -2  -1  184.88    7.10
  -1   2   1  178.48    6.80
  -1   2   1  184.78    7.00
   0  -2  -1  214.28    8.00
   0  -2  -1  233.28    8.10
   0   2   1  228.88    8.00
   0   2   1  210.78    8.00
  -1  -2  -1  267.17   10.00
   1   2   1  280.87    9.90
  -2  -2  -1  223.78    8.70
   2   2   1  215.88    8.60
   2   2   1  229.68    8.10
   2   2   1  222.08    8.60
  -3  -2  -1  297.97   13.20
  -3  -2  -1  315.37   11.70
   3   2   1  295.47   11.80
   3   2   1  304.87   11.20
  -4  -2  -1   11.90    4.90
   4   2   1    9.80    3.30
   4   2   1   11.30    2.70
  -5  -2  -1    9.00    7.10
   5   2   1   18.20    3.50
   5   2   1   13.30    4.20
  -6  -2  -1  -21.70   10.80
   6   2   1   -2.20    3.90
   6  -3  -1   21.20    3.70
   5  -3  -1   79.49    5.20
   4  -3  -1  219.88    8.90
   3  -3  -1 3372.86  113.39
   2  -3  -1    7.20    1.50
   1  -3  -1  114.59    4.30
   1  -3  -1  113.89    5.00
   1  -3  -1  119.69    5.10
   1  -3  -1  117.59    5.10
  -1   3   1  118.89    5.10
  -1   3   1  113.89    4.90
  -1   3   1  118.79    4.90
   0  -3  -1   12.30    1.60
   0  -3  -1   14.00    1.70
   0  -3  -1   12.20    1.70
   0   3   1   12.10    1.90
   0   3   1   14.80    1.80
   0   3   1   13.80    1.60
  -1  -3  -1  175.58    7.20
   1   3   1  181.68    7.20
   1   3   1  188.88    6.70
   1   3   1  180.68    6.40
  -2  -3  -1  806.82   27.90
   2   3   1  801.12   27.80
   2   3   1  782.92   27.80
   2   3   1  809.12   27.30
  -3  -3  -1  117.59    6.00
   3   3   1  113.59    5.30
   3   3   1  108.99    5.80
  -4  -3  -1   19.00    5.60
   4   3   1   22.50    3.70
   4   3   1   27.30    3.30
  -5  -3  -1   39.90    9.10
   5   3   1   48.20    4.70
   5   3   1   40.60    5.90
   6   3   1  174.08    9.50
   6  -4  -1   32.90    4.10
   5  -4  -1   13.80    3.10
   4  -4  -1  137.49    6.40
   3  -4  -1   18.40    2.00
   2  -4  -1  205.38    7.20
  -2   4   1  181.68    7.90
   1  -4  -1  444.46   16.40
   1  -4  -1  471.45   16.50
   1  -4  -1  443.06   16.40
  -1   4   1  471.55   16.40
  -1   4   1  439.66   16.30
  -1   4   1  467.25   16.40
   0  -4  -1  836.22   29.60
   0  -4  -1  846.52   29.60
   0  -4  -1  853.01   29.70
   0   4   1  875.61   29.60
   0   4   1  854.61   29.50
   0   4   1  869.31   29.70
  -1  -4  -1  238.98    9.30
   1   4   1  232.38    9.20
  -2  -4  -1  177.68    7.70
   2   4   1  177.98    7.70
   2   4   1  174.78    6.70
   2   4   1  172.98    7.20
   3   4   1   78.99    4.40
   3   4   1   73.99    4.90
   3   4   1   76.39    5.50
  -4  -4  -1    5.40    6.10
   4   4   1    5.70    3.40
   4   4   1    2.90    2.60
  -5  -4  -1   13.50    9.00
   5   4   1   19.10    3.90
   5   4   1    8.20    4.80
   6  -5  -1   37.60    4.30
   5  -5  -1   -0.30    2.60
   4  -5  -1   58.69    4.00
   3  -5  -1   60.69    3.60
   2  -5  -1   11.10    1.50
   2  -5  -1   11.20    2.50
  -2   5   1    6.80    2.20
  -2   5   1    8.60    2.40
   1  -5  -1  147.89    6.80
   1  -5  -1  144.09    6.90
   1  -5  -1  149.69    6.90
  -1   5   1  148.19    6.70
  -1   5   1  150.88    6.80
  -1   5   1  147.89    6.50
   0  -5  -1   90.89    4.90
   0  -5  -1   82.29    5.20
   0  -5  -1  103.09    5.10
   0   5   1   89.79    4.90
   0   5   1   87.29    4.90
   0   5   1   86.89    4.80
  -1  -5  -1  476.35   17.60
   1   5   1  481.55   17.50
  -2  -5  -1  445.66   16.80
   2   5   1  447.76   16.70
   2   5   1  458.95   16.40
   2   5   1  429.36   15.90
  -3  -5  -1   49.10    5.50
   3   5   1   53.39    5.60
   3   5   1   60.39    5.20
   3   5   1   60.59    4.10
  -4  -5  -1   30.20    7.30
   4   5   1   20.60    3.40
   5   5   1    1.30    4.70
   5   5   1    2.70    3.70
   6  -6  -1   72.79    5.80
   5  -6  -1  244.88   10.20
   4  -6  -1   16.60    2.60
   3  -6  -1   13.70    2.10
  -3   6   1   14.70    3.50
   2  -6  -1  493.45   18.50
   2  -6  -1  502.65   18.60
  -2   6   1  504.55   18.50
  -2   6   1  480.95   18.40
  -2   6   1  507.75   18.50
   1  -6  -1  233.68   10.20
   1  -6  -1  235.98   10.00
   1  -6  -1  242.38   10.20
  -1   6   1  238.08   10.00
  -1   6   1  244.78    9.80
  -1   6   1  242.18   10.00
   0  -6  -1  350.36   13.80
   0  -6  -1  349.37   13.80
   0  -6  -1  355.76   13.70
   0   6   1  347.37   13.50
   0   6   1  360.06   13.60
   0   6   1  349.27   13.50
  -1  -6  -1   85.59    5.60
   1   6   1   83.19    5.30
  -2  -6  -1   27.20    3.80
   2   6   1   24.70    3.80
   2   6   1   25.70    2.60
   2   6   1   28.90    3.30
  -3  -6  -1  164.68    9.20
   3   6   1  156.68    8.50
   3   6   1  169.98    7.20
   3   6   1  160.98    9.20
  -4  -6  -1  731.43   28.10
  -4  -6  -1  744.03   31.60
   4   6   1  730.63   26.60
   4   6   1  762.62   28.10
   5   6   1   57.59    7.10
   5   6   1   52.39    5.70
   6  -7  -1   12.60    3.30
   5  -7  -1    0.90    2.50
   4  -7  -1    1.80    2.10
   3  -7  -1  216.88    8.20
  -3   7   1  201.88   10.10
   2  -7  -1  102.19    7.40
   2  -7  -1   98.69    6.70
  -2   7   1  102.89    6.50
  -2   7   1   93.59    6.30
  -2   7   1   99.99    6.90
   1  -7  -1    2.40    3.00
   1  -7  -1   -2.80    3.30
  -1   7   1   11.40    2.80
  -1   7   1   12.20    3.20
  -1   7   1    6.50    3.00
   0  -7  -1    7.90    3.20
   0  -7  -1    3.90    3.10
   0  -7  -1    4.90    3.60
   0   7   1    6.80    3.00
   0   7   1    8.80    2.80
   0   7   1    4.10    3.20
  -1  -7  -1  142.79    8.00
   1   7   1  142.19    7.60
  -2  -7  -1  132.29    8.50
   2   7   1  153.28    6.20
   2   7   1  156.68    7.30
   2   7   1  139.49    8.10
  -3  -7  -1   36.00    6.00
   3   7   1   39.70    4.70
   3   7   1   38.80    4.30
   3   7   1   46.10    5.80
  -4  -7  -1  114.69   16.70
   4   7   1   94.69    6.50
   4   7   1   75.19    8.50
   6  -8  -1  132.49    7.20
   5  -8  -1   56.59    4.60
   4  -8  -1   -0.20    2.10
  -3   8   1  278.77   12.20
  -3   8   1  267.67   12.90
  -3   8   1  272.37   12.60
   2  -8  -1  178.98   10.10
   2  -8  -1  195.58   10.60
  -2   8   1  192.08   10.10
  -2   8   1  191.88    9.60
   1  -8  -1  928.71   32.10
   1  -8  -1  902.21   32.40
   1  -8  -1  893.41   32.20
  -1   8   1  754.32   33.30
  -1   8   1  926.71   31.90
  -1   8   1  904.81   32.00
   0  -8  -1   19.60    4.80
   0  -8  -1   22.00    4.30
   0  -8  -1   30.50    4.40
   0   8   1   24.90    4.40
   0   8   1   26.70    3.90
   0   8   1   27.50    4.40
  -1  -8  -1   12.20    4.30
   1   8   1   17.80    4.10
  -2  -8  -1   -2.20    4.40
   2   8   1    7.20    2.80
   2   8   1   -0.40    4.30
   2   8   1    3.30    2.10
   3   8   1   37.20    5.30
   3   8   1   40.40    4.50
  -4  -8  -1   63.89    9.40
   4   8   1   66.99    7.50
   4   8   1   63.29    6.50
   4   8   1   63.29    9.20
   6  -9  -1   16.90    3.90
   5  -9  -1  104.59    5.90
  -4   9   1   -6.80    5.80
   3  -9  -1   21.50    6.10
   3  -9  -1   13.20    5.60
  -3   9   1    4.00    5.70
  -3   9   1   14.80    4.60
  -3   9   1   10.50    4.90
   2  -9  -1  338.37   15.30
   2  -9  -1  306.47   15.00
  -2   9   1  336.57   15.00
  -2   9   1  326.57   14.40
  -2   9   1  331.47   14.50
   1  -9  -1   68.29    6.80
   1  -9  -1   68.89    7.30
  -1   9   1   65.29    7.10
  -1   9   1   82.09    6.80
  -1   9   1   69.49    7.60
   0  -9  -1   84.29    7.70
   0  -9  -1   62.79    7.30
   0  -9  -1   66.39    7.10
   0   9   1   75.99    7.40
   0   9   1   80.59    7.40
  -1  -9  -1    6.10    6.10
  -1  -9  -1    3.80    5.10
   1   9   1   18.90    5.70
  -2  -9  -1  106.39   10.60
   2   9   1  128.89    7.60
   2   9   1  122.49    6.00
  -3  -9  -1   -2.50    7.40
   3   9   1    0.80    3.50
   3   9   1    0.90    7.30
   3   9   1    1.20    4.20
  -4  -9  -1   -2.80   10.40
   4   9   1    8.10   10.80
   4   9   1    2.70    5.70
   4   9   1    6.80    4.50
  -4  10   1  418.96   20.00
  -4  10   1  456.85   19.40
   3 -10  -1   11.90    6.90
   3 -10  -1   16.90    6.90
  -3  10   1   14.10    7.10
  -3  10   1   14.80    6.00
  -3  10   1   11.60    6.00
   2 -10  -1  226.68   13.50
   2 -10  -1  229.68   13.80
  -2  10   1  251.67   12.90
  -2  10   1  241.08   12.50
  -2  10   1  249.58   13.80
   1 -10  -1   14.10    7.00
   1 -10  -1   15.80    5.40
   1 -10  -1    3.20    6.10
  -1  10   1   16.90    5.60
  -1  10   1    8.50    5.10
   0 -10  -1  145.99   11.10
   0 -10  -1  144.09   12.20
   0 -10  -1  156.68   10.90
   0  10   1  164.78   10.40
   0  10   1  193.28   11.20
  -1 -10  -1  248.28   15.50
  -1 -10  -1  254.97   14.60
   1  10   1  268.77   11.20
   1  10   1  264.47   13.70
  -2 -10  -1   42.00    8.10
   2  10   1   38.90    7.70
   2  10   1   38.70    5.00
   2  10   1   42.80    4.60
  -3 -10  -1   95.09   11.50
   3  10   1   96.19    9.80
   3  10   1  101.59    6.80
   3  10   1   92.59   11.70
  -5  11   1   73.09   12.90
   4 -11  -1   22.20   10.30
   4 -11  -1  -11.20   14.30
  -4  11   1   23.10    9.30
  -4  11   1   18.70    9.40
  -4  11   1   17.20    7.20
   3 -11  -1  101.99   13.70
   3 -11  -1   95.49   10.40
  -3  11   1   90.59    9.90
  -3  11   1   90.79   11.70
  -3  11   1   81.19   10.40
   2 -11  -1   49.70    8.20
   2 -11  -1   37.70    8.40
  -2  11   1   56.19    7.80
  -2  11   1   39.80    7.10
  -2  11   1   41.20    8.50
   1 -11  -1  208.18   13.50
   1 -11  -1  162.98   14.60
   1 -11  -1  202.28   13.60
  -1  11   1  216.38   14.20
  -1  11   1  223.88   12.50
  -1  11   1  226.38   14.20
   0 -11  -1   17.00    6.80
   0 -11  -1    6.30    8.00
   0 -11  -1   28.80    6.90
   0  11   1   26.00    7.40
   0  11   1   18.60    6.80
  -1 -11  -1   -9.10    9.00
  -1 -11  -1   -5.70    6.90
   1  11   1    2.70    3.50
   1  11   1   18.80    6.90
  -2 -11  -1    4.20    8.70
   2  11   1    0.40    3.40
   2  11   1   -3.80    4.70
   4 -12  -1   61.09   13.30
  -4  12   1   56.89    9.40
   3 -12  -1  339.67   20.80
   3 -12  -1  322.97   21.30
  -3  12   1  308.67   20.80
  -3  12   1  372.36   18.10
  -3  12   1  332.07   19.40
   2 -12  -1    5.30    8.70
   2 -12  -1    8.50    9.80
  -2  12   1    4.50    7.70
  -2  12   1    7.50    8.10
  -2  12   1   -3.60   10.00
   1 -12  -1   -7.30    9.40
   1 -12  -1    8.20    7.80
   1 -12  -1    1.10    8.60
  -1  12   1   15.00    6.90
  -1  12   1   -7.90    7.00
  -1  12   1   -3.30    9.40
   0 -12  -1   47.60    9.20
   0 -12  -1   44.60    9.10
   0 -12  -1   21.10   13.90
   0  12   1   25.70   10.10
   0  12   1   26.90    8.10
  -1 -12  -1   17.10    9.20
   1  12   1   14.30    4.30
  -2 -12  -1   48.50   12.00
   2  12   1   40.20    4.90
   2  12   1   39.70    6.90
   3 -13  -1    2.00   12.80
  -3  13   1   -1.20   12.80
  -3  13   1   10.30    8.90
   2 -13  -1   47.90   13.90
   2 -13  -1   58.09   12.00
  -2  13   1   37.70   12.80
  -2  13   1   47.10    9.80
   1 -13  -1  203.58   20.40
   1 -13  -1  248.38   18.70
  -1  13   1  180.28   19.60
  -1  13   1  220.38   16.40
   0 -13  -1    8.40   13.40
   0 -13  -1   14.30   10.50
   0 -13  -1   27.90   10.40
   0  13   1   18.80    9.70
  -1  14  -2   16.40   11.20
   1 -14   2   13.70   12.70
   1 -14   2    4.90   15.20
  -2  14  -2   12.00    9.80
  -2  14  -2   16.00   14.70
   2 -14   2   40.30   13.90
   1  13  -2   26.40    5.80
  -1 -13   2    4.10   10.80
  -1 -13   2   10.80   17.20
   0  13  -2   11.90    8.80
   0  13  -2    6.60    4.00
   0 -13   2    4.00   12.80
   0 -13   2    0.90    9.80
  -1  13  -2   51.59    9.40
  -1  13  -2   61.79   12.40
   1 -13   2   57.79   11.30
   1 -13   2   58.49   12.60
  -2  13  -2   85.49    9.70
  -2  13  -2  105.79   13.00
   2 -13   2   91.29   13.50
   2 -13   2  103.79   12.90
  -3  13  -2    4.20    8.10
  -3  13  -2    6.70   11.90
   3 -13   2   13.40   12.70
  -4  13  -2   98.79   11.10
   4 -13   2  106.69   18.90
   2  12  -2   21.50    3.90
   2  12  -2   19.60    6.50
   1  12  -2   57.99    9.60
  -1 -12   2   64.29    9.50
   0  12  -2   79.29   12.10
   0  12  -2   66.79    9.90
   0  12  -2   74.09    8.30
   0 -12   2   71.29   18.20
   0 -12   2   67.69    9.30
  -1  12  -2  175.88   15.50
  -1  12  -2  173.78   12.50
  -1  12  -2  193.18   13.10
   1 -12   2  170.58   16.70
   1 -12   2  177.18   15.00
  -2  12  -2   -4.00    8.60
  -2  12  -2   -3.40    6.60
   2 -12   2   -3.40    8.60
   2 -12   2   -4.40    9.20
  -3  12  -2    5.30    6.40
  -3  12  -2   -2.80    8.20
   3 -12   2   17.30   10.40
   3 -12   2  -14.00    9.20
  -4  12  -2   16.70   11.00
  -4  12  -2    1.30    7.10
   3  11  -2   30.70    6.70
   3  11  -2   17.20   10.90
   3  11  -2   30.50    4.70
  -3 -11   2   51.59   12.50
   2  11  -2   92.19    8.80
   2  11  -2   68.19    9.60
   2  11  -2   95.09    5.90
  -2 -11   2  139.49   15.20
   1  11  -2  575.54   20.80
   1  11  -2  556.64   22.60
   1  11  -2  550.44   23.50
   1  11  -2  541.45   22.90
  -1 -11   2  514.35   23.30
  -1 -11   2  571.14   24.90
   0  11  -2   15.20    6.00
   0  11  -2    9.40    6.90
   0  11  -2   12.70    5.80
   0 -11   2   13.20    6.70
   0 -11   2   17.50    8.20
  -1  11  -2   38.10    7.60
  -1  11  -2   23.80    5.60
   1 -11   2   30.50    7.70
   1 -11   2   31.80    7.20
  -2  11  -2   30.50    5.90
  -2  11  -2   39.70    6.20
   2 -11   2   32.50    8.20
   2 -11   2   26.10    7.40
  -3  11  -2  598.54   25.10
  -3  11  -2  613.34   25.70
  -3  11  -2  603.44   23.80
   3 -11   2  600.44   25.70
   3 -11   2  580.64   25.70
  -4  11  -2    6.10    8.90
  -4  11  -2   11.50    6.10
   3  10  -2   51.49    6.40
   3  10  -2   29.70    8.60
   3  10  -2   42.40    4.90
  -3 -10   2   66.39   10.00
   2  10  -2   31.60    7.00
   2  10  -2   17.20    4.60
  -2 -10   2   24.40    7.30
   1  10  -2   63.69    6.50
  -1 -10   2   60.69    8.00
  -1 -10   2   55.79    8.00
   0  10  -2  169.38   14.40
   0  10  -2  161.18   11.40
   0  10  -2  160.28   10.20
   0 -10   2  180.38   11.30
   0 -10   2  177.88   11.80
  -1  10  -2  244.98   11.70
   1 -10   2  237.68   13.30
   1 -10   2  233.48   12.60
  -2  10  -2   72.09    7.70
  -2  10  -2   66.89    7.50
  -2  10  -2   87.29    9.70
   2 -10   2   97.79    9.40
   2 -10   2   79.99   10.30
  -3  10  -2   -2.40    6.30
  -3  10  -2   -4.10    5.30
  -3  10  -2    6.40    5.60
   3 -10   2   -2.90    6.00
  -4  10  -2  228.68   15.20
  -4  10  -2  205.48   11.80
  -5  10  -2   81.39   12.30
   4   9  -2   17.20    4.20
   4   9  -2   14.60    6.20
   3   9  -2   44.80    5.50
   3   9  -2   51.69    4.90
  -3  -9   2   50.89    8.10
   2   9  -2  103.49    8.90
   2   9  -2  105.09    5.50
   2   9  -2   97.29    7.30
  -2  -9   2  109.99   10.10
   1   9  -2   66.39    7.20
   1   9  -2   60.59    4.80
  -1  -9   2   60.79    6.90
  -1  -9   2   75.09    8.30
   0   9  -2   28.00    4.50
   0   9  -2   15.70    4.30
   0   9  -2   42.70    5.50
   0  -9   2   37.40    5.30
   0  -9   2   23.90    5.30
  -1   9  -2   11.70    3.80
  -1   9  -2   20.90    4.90
  -1   9  -2    9.50    4.10
   1  -9   2   10.30    4.30
   1  -9   2   17.10    4.90
  -2   9  -2   69.99    6.90
  -2   9  -2   60.19    6.40
  -2   9  -2   63.49    8.10
   2  -9   2   67.89    8.30
   2  -9   2   64.99    8.00
  -3   9  -2  107.89    9.10
  -3   9  -2   79.79    7.10
  -3   9  -2   89.39    9.20
  -4   9  -2   79.49   10.70
  -5   9  -2    2.50    8.40
  -6   9  -2    5.20   12.70
   4   8  -2   10.40    5.30
   4   8  -2   12.60    3.90
   3   8  -2  168.48    7.70
   3   8  -2  149.49   10.10
   3   8  -2  178.48    9.50
   2   8  -2   87.29    4.80
   2   8  -2   94.49    7.30
   2   8  -2   94.79    6.10
  -2  -8   2   94.99    8.30
   1   8  -2   11.20    2.20
  -1  -8   2   15.90    4.50
  -1  -8   2   17.80    4.40
   0   8  -2  195.48    9.90
   0   8  -2  196.88    9.40
   0   8  -2  208.38    9.50
   0  -8   2  202.18   10.20
   0  -8   2  185.48    9.90
  -1   8  -2  144.09    7.80
  -1   8  -2  156.98    8.70
  -1   8  -2  154.98    8.20
   1  -8   2  154.48    8.70
   1  -8   2  139.69    8.50
  -2   8  -2   57.79    6.80
  -2   8  -2   42.20    5.30
  -2   8  -2   54.49    7.10
   2  -8   2   53.89    5.50
   2  -8   2   55.39    6.90
  -3   8  -2   57.99    7.00
  -4   8  -2    5.10    5.30
  -5   8  -2   36.20    8.20
   5  -8   2   46.10    4.10
   6  -8   2  197.58    9.10
   5   7  -2    9.30    6.10
   5   7  -2   16.10    4.70
  -5  -7   2   22.50   15.60
   4   7  -2    7.80    4.60
   4   7  -2    8.60    3.40
   3   7  -2  227.38    9.40
   3   7  -2  230.18   10.80
   2   7  -2   59.09    4.80
   2   7  -2   62.09    5.70
   2   7  -2   57.79    3.70
  -2  -7   2   57.89    6.50
   1   7  -2  102.39    6.50
   1   7  -2   98.19    4.90
  -1  -7   2  104.89    7.00
  -1  -7   2  100.29    6.90
  -1  -7   2   87.29    6.70
   0   7  -2  260.57   10.90
   0   7  -2  262.17   10.80
   0   7  -2  264.27   11.30
   0  -7   2  260.27   11.20
   0  -7   2  260.17   11.20
  -1   7  -2    6.20    3.10
  -1   7  -2    6.70    3.20
  -1   7  -2    4.00    2.60
   1  -7   2    8.10    3.30
   1  -7   2    3.80    3.20
  -2   7  -2  146.29    7.30
  -2   7  -2  157.38    8.40
  -2   7  -2  151.98    8.10
   2  -7   2  157.98    8.10
  -3   7  -2   71.89    7.00
  -4   7  -2    3.00    4.80
   4  -7   2    8.80    2.10
  -5   7  -2    9.00    6.50
   5  -7   2   19.70    3.00
   6  -7   2  116.09    6.70
   5   6  -2   49.10    7.00
   5   6  -2   49.90    5.40
  -5  -6   2   56.69   13.40
   4   6  -2   28.20    3.80
   4   6  -2   25.20    4.90
   3   6  -2  138.79    6.30
   2   6  -2    9.10    2.90
   2   6  -2    3.90    1.70
   2   6  -2    5.30    2.10
  -2  -6   2    8.10    3.40
   1   6  -2  358.86   13.40
   1   6  -2  328.37   12.40
  -1  -6   2  340.97   13.60
   0   6  -2   -1.20    2.60
   0   6  -2   -3.30    2.10
   0   6  -2   -2.80    1.90
   0  -6   2   -0.20    2.30
   0  -6   2   -2.50    2.40
  -1   6  -2 2047.20   68.39
  -1   6  -2 2034.10   68.89
  -1   6  -2 2013.40   68.59
   1  -6   2 1975.90   68.49
   1  -6   2 1978.80   68.49
  -2   6  -2  592.04   22.50
  -2   6  -2  617.34   21.90
  -2   6  -2  632.04   22.30
   4  -6   2  142.79    6.30
   5  -6   2   22.10    3.00
   6  -6   2    8.40    3.00
   5   5  -2  209.38    9.80
  -5  -5   2  188.78   19.40
   4   5  -2  109.59    8.00
   4   5  -2  117.29    6.40
   3   5  -2    8.30    2.10
   3   5  -2    6.30    2.60
   2   5  -2  131.39    6.20
   2   5  -2  135.19    5.60
   2   5  -2  138.49    6.40
  -2  -5   2  140.09    7.00
   1   5  -2  726.03   25.20
   1   5  -2  695.13   24.50
  -1  -5   2  719.13   25.40
   0   5  -2  373.46   13.50
   0   5  -2  382.26   13.80
   0   5  -2  345.57   13.60
   0  -5   2  360.76   13.50
   0  -5   2  362.86   13.70
  -1   5  -2 1052.39   35.50
  -1   5  -2 1026.80   35.70
  -1   5  -2 1042.70   36.00
   1  -5   2 1010.20   35.60
   1  -5   2 1023.40   35.60
   3  -5   2   31.60    2.50
   4  -5   2   71.79    4.20
   5  -5   2  210.88    9.00
   6  -5   2   88.49    6.00
   6   4  -2   -1.80    3.70
  -6  -4   2   -0.70   14.50
   5   4  -2    9.50    3.50
  -5  -4   2   32.10    8.50
  -5  -4   2    7.80    9.30
   4   4  -2   39.90    4.90
   4   4  -2   45.90    4.20
  -4  -4   2   53.99    8.50
   3   4  -2   47.10    3.50
   3   4  -2   52.19    4.30
   2   4  -2  850.11   29.10
   2   4  -2  848.22   29.50
   1   4  -2  284.87   10.60
   1   4  -2  299.97   11.00
  -1  -4   2  303.47   11.30
   0   4  -2   27.30    2.80
   0   4  -2   21.10    2.70
   0   4  -2   25.60    2.70
   0  -4   2   23.70    2.60
   0  -4   2   23.20    3.10
   1  -4   2    4.20    1.60
   2  -4   2  156.58    5.80
   3  -4   2  148.89    6.00
   4  -4   2  194.58    8.00
   5  -4   2   64.79    4.80
   6  -4   2   13.10    3.60
   6   3  -2    7.50    3.80
  -6  -3   2   13.10   11.80
  -6  -3   2   34.10   12.90
   5   3  -2   12.00    3.40
  -5  -3   2    7.70    8.80
  -5  -3   2   16.40    7.30
   4   3  -2  396.46   15.60
   4   3  -2  408.16   16.70
  -4  -3   2  456.75   19.90
   3   3  -2  469.35   17.50
   3   3  -2  478.55   17.00
   2   3  -2  219.78    7.90
   2   3  -2  208.08    8.30
  -2  -3   2  213.68    8.30
   1   3  -2  414.46   14.60
  -1  -3   2  427.06   14.50
   0   3  -2 3145.29  104.09
   0   3  -2 3128.49  104.39
   0   3  -2 3036.80  104.19
   0  -3   2 3112.89  104.29
   0  -3   2 3091.99  104.09
  -2   3  -2  102.19    4.80
   2  -3   2   96.49    4.90
   2  -3   2  105.29    4.10
   3  -3   2   42.70    2.90
   4  -3   2  465.85   16.80
   5  -3   2  843.92   29.70
   6  -3   2  150.48    7.80
   6   2  -2  103.59    7.20
   5   2  -2   -1.40    2.70
  -5  -2   2    4.30    8.40
   4   2  -2  718.83   25.30
  -4  -2   2  705.23   28.30
   3   2  -2    9.90    2.00
   3   2  -2   11.20    2.00
  -3  -2   2   11.80    4.20
   2   2  -2  111.29    4.50
   2   2  -2  103.19    4.90
  -2  -2   2  114.39    5.00
   1   2  -2 5355.46  184.68
   1   2  -2 5583.54  184.48
  -1  -2   2 5619.84  184.58
   0   2  -2 9476.05  307.87
   0   2  -2 8701.33  307.77
   0  -2   2 9999.00  307.97
   0  -2   2 8606.34  307.67
  -1   2  -2 1432.86   47.30
   1  -2   2 1377.76   47.70
  -2   2  -2  599.04   21.90
  -2   2  -2  654.23   22.30
   2  -2   2  590.24   21.60
   2  -2   2  679.53   22.50
  -3   2  -2  951.30   33.70
   3  -2   2  952.40   33.00
   3  -2   2  965.10   34.00
   5  -2   2   13.90    3.10
   6  -2   2   81.39    6.40
   6   1  -2   12.00    3.50
   4   1  -2  338.77   13.00
  -4  -1   2  341.47   16.10
   3   1  -2  355.36   12.90
  -3  -1   2  348.27   15.10
   2   1  -2   10.40    1.50
  -2  -1   2   10.60    3.10
  -2  -1   2   12.60    1.80
   1   1  -2 3837.62  129.49
  -1  -1   2 3696.33  130.29
  -1  -1   2 4080.39  129.69
   0   1  -2   33.40    2.20
   0   1  -2   40.10    2.00
   0  -1   2   37.50    2.30
   0  -1   2   35.50    1.90
  -1   1  -2   17.10    1.30
  -1   1  -2   14.30    2.10
   1  -1   2   17.30    2.20
   1  -1   2   15.80    1.10
   1  -1   2   15.70    1.40
   2  -1   2   81.19    3.50
  -3   1  -2    4.60    2.50
   3  -1   2    4.90    1.90
   3  -1   2    4.70    2.00
  -4   1  -2  212.78   10.90
   4  -1   2  220.88    8.80
   5  -1   2   67.29    5.10
   6  -1   2    6.40    3.40
   6   0  -2   76.69    6.40
   5   0  -2   13.00    2.90
  -5   0   2   13.40    7.20
   4   0  -2   30.10    3.20
  -4   0   2   38.00    6.00
   3   0  -2   73.79    4.00
  -3   0   2   82.59    6.20
   2   0  -2  392.76   13.70
   2   0  -2  376.06   14.90
  -2   0   2  382.46   14.90
  -2   0   2  409.06   14.10
   1   0  -2 1644.74   55.89
   1   0  -2 1652.63   55.09
  -1   0   2 1627.04   55.79
   0   0  -2   17.70    1.60
   0   0   2   15.40    1.80
   0   0   2   17.40    1.50
   0   0   2   15.50    1.40
  -1   0  -2   16.50    2.30
   1   0   2   17.60    2.50
   1   0   2   17.80    1.20
  -2   0  -2  362.36   12.80
  -2   0  -2  359.26   13.70
   2   0   2  349.96   13.80
   2   0   2  355.06   12.90
   2   0   2  359.26   12.50
  -3   0  -2  275.27   11.70
  -3   0  -2  273.47   10.50
   3   0   2  264.37   10.00
   3   0   2  263.77   10.60
  -4   0  -2   28.40    4.90
   4   0   2   36.70    3.70
   4   0   2   36.60    4.30
  -5   0  -2    0.70    5.20
   5   0   2    3.00    2.80
  -6   0  -2   42.30   10.50
   6   0   2   43.40    4.80
   6  -1  -2  113.99    7.20
   5  -1  -2    8.70    2.90
   4  -1  -2   72.99    4.50
  -4   1   2   64.99    7.60
   3  -1  -2 1119.79   39.10
   3  -1  -2 1098.19   37.40
  -3   1   2 1061.69   38.70
   2  -1  -2 1304.67   45.60
   2  -1  -2 1359.06   44.50
  -2   1   2 1280.77   45.40
   1  -1  -2   88.79    4.40
   1  -1  -2   80.99    3.50
  -1   1   2   99.69    4.40
  -1   1   2   88.29    4.10
   0  -1  -2  262.97    9.20
   0  -1  -2  262.07    9.30
   0  -1  -2  259.17    9.20
   0   1   2  248.68    9.10
   0   1   2  256.77    9.20
  -1  -1  -2  796.12   28.00
  -1  -1  -2  810.32   28.60
   1   1   2  844.62   27.80
  -2  -1  -2   19.70    2.10
  -2  -1  -2   23.20    3.20
  -2  -1  -2   21.90    2.60
   2   1   2   19.90    2.00
   2   1   2   20.30    2.20
  -3  -1  -2  544.15   20.80
  -3  -1  -2  547.15   19.50
   3   1   2  541.05   19.60
   3   1   2  525.85   19.00
  -4  -1  -2    2.60    4.50
   4   1   2   -0.10    2.80
   4   1   2    1.90    2.30
  -5  -1  -2   -5.90    5.70
   5   1   2   11.30    3.80
   5   1   2   10.90    3.10
  -6  -1  -2   62.19   12.10
   6   1   2   70.59    6.70
   6  -2  -2   20.30    3.90
   5  -2  -2  279.77   11.40
   2  -2  -2 2018.10   69.29
   2  -2  -2 2041.70   68.39
   1  -2  -2  276.57   10.00
   1  -2  -2  276.67    9.50
  -1   2   2  265.57    9.70
  -1   2   2  280.57   10.10
  -1   2   2  260.67    9.90
   0  -2  -2 2756.12   94.89
   0  -2  -2 2884.51   94.99
   0   2   2 2844.72   94.99
   0   2   2 2784.22   94.89
   0   2   2 2861.11   94.99
  -1  -2  -2  154.28    6.20
  -1  -2  -2  151.08    6.80
   1   2   2  157.58    5.70
   1   2   2  144.99    6.10
  -2  -2  -2  524.85   20.40
  -2  -2  -2  547.85   19.40
   2   2   2  546.85   18.80
   2   2   2  560.74   19.30
  -3  -2  -2   72.89    6.30
  -3  -2  -2   66.59    4.90
   3   2   2   56.99    4.30
  -4  -2  -2   30.50    5.70
   4   2   2   24.60    3.90
   4   2   2   25.90    3.10
  -5  -2  -2    7.50    7.40
   5   2   2    9.10    3.40
   5   2   2   10.10    4.40
   6   2   2   41.60    4.70
   6  -3  -2    7.50    3.30
   5  -3  -2   24.20    3.50
   4  -3  -2   12.30    2.50
   3  -3  -2  145.39    6.10
   3  -3  -2  138.69    8.00
   2  -3  -2  254.27   10.60
   2  -3  -2  271.57    9.50
   1  -3  -2  664.13   22.90
   1  -3  -2  644.14   22.70
   1  -3  -2  652.23   22.10
   1  -3  -2  653.53   22.70
  -1   3   2  634.64   22.70
  -1   3   2  659.93   22.80
  -1   3   2  652.53   22.60
   0  -3  -2  413.96   14.70
   0  -3  -2  414.86   14.80
   0   3   2  403.56   14.80
  -1  -3  -2  705.53   23.90
   1   3   2  657.93   23.80
   1   3   2  682.53   23.00
  -2  -3  -2    4.30    2.10
   2   3   2    3.00    1.40
   2   3   2    4.80    2.00
   2   3   2    3.90    1.40
  -3  -3  -2    7.30    4.00
  -3  -3  -2    5.10    2.80
   3   3   2    6.30    2.20
   3   3   2    5.50    2.00
  -4  -3  -2   64.39    7.90
   4   3   2   56.79    4.50
   4   3   2   59.19    6.00
  -5  -3  -2   41.60    9.50
   5   3   2   36.00    5.60
   5   3   2   39.30    4.40
   6   3   2   38.70    5.50
   6  -4  -2    4.70    3.40
   5  -4  -2  161.98    7.70
   4  -4  -2   37.60    3.80
   4  -4  -2   56.29    8.70
   3  -4  -2   74.29    4.40
   3  -4  -2   84.09    6.40
   2  -4  -2  379.86   14.10
   2  -4  -2  378.06   13.40
  -2   4   2  372.66   14.20
  -2   4   2  389.86   14.10
   1  -4  -2  992.80   34.00
   1  -4  -2  980.20   34.00
   1  -4  -2  933.01   33.80
  -1   4   2  958.20   33.90
  -1   4   2 1023.60   34.10
  -1   4   2 1003.70   33.90
  -1  -4  -2  366.46   13.70
   1   4   2  373.86   12.60
   1   4   2  355.96   13.50
  -2  -4  -2  165.08    7.80
   2   4   2  177.08    7.30
   2   4   2  184.08    8.00
   2   4   2  169.28    6.60
  -3  -4  -2   85.49    7.60
  -3  -4  -2   70.39    6.00
   3   4   2   78.29    4.40
   3   4   2   67.69    5.80
  -4  -4  -2  177.08    9.60
  -4  -4  -2  146.39   12.80
   4   4   2  171.38    7.80
   4   4   2  176.38    9.50
  -5  -4  -2   58.19   11.50
   5   4   2   48.70    5.00
   5   4   2   40.40    6.00
   6  -5  -2   45.40    4.50
   5  -5  -2   23.80    3.10
   4  -5  -2   19.30    2.60
   2  -5  -2  437.16   15.00
   2  -5  -2  427.16   16.00
   2  -5  -2  428.26   16.10
   2  -5  -2  440.16   16.20
  -2   5   2  408.26   15.90
  -2   5   2  432.36   15.90
  -2   5   2  434.36   16.10
   1  -5  -2  743.03   26.90
   1  -5  -2  740.73   26.70
   1  -5  -2  747.33   26.90
  -1   5   2  790.52   26.80
  -1   5   2  766.02   26.90
  -1   5   2  765.62   26.80
   0  -5  -2  158.48    7.00
   0  -5  -2  154.78    7.00
   0   5   2  149.49    6.90
   0   5   2  157.48    7.10
   0   5   2  158.08    7.00
  -1  -5  -2   45.40    4.00
   1   5   2   43.00    3.90
  -2  -5  -2    6.90    2.90
   2   5   2   10.40    2.10
   2   5   2    7.50    1.80
   2   5   2    7.40    2.90
  -3  -5  -2  405.76   16.10
   3   5   2  390.96   14.50
   3   5   2  400.56   15.70
  -4  -5  -2   24.10    5.20
  -4  -5  -2   29.80    7.50
   4   5   2   27.20    3.70
   4   5   2   51.59    6.60
   5   5   2   24.50    4.40
   5   5   2   20.00    5.50
   6  -6  -2   22.70    4.00
   5  -6  -2  124.19    6.60
   4  -6  -2   -2.30    2.10
   3  -6  -2   38.50    3.00
  -3   6   2   39.10    4.20
   2  -6  -2   49.70    5.20
   2  -6  -2   55.09    5.60
   2  -6  -2   58.89    5.20
  -2   6   2   56.19    5.20
  -2   6   2   46.60    5.30
  -2   6   2   56.09    4.90
   1  -6  -2   58.89    5.00
   1  -6  -2   64.09    5.50
  -1   6   2   66.69    4.60
  -1   6   2   67.19    5.20
   0  -6  -2  355.06   14.50
   0  -6  -2  379.36   14.60
   0  -6  -2  368.16   14.40
   0   6   2  391.16   14.50
   0   6   2  375.16   14.40
  -1  -6  -2    5.30    2.60
   1   6   2    2.50    2.50
  -2  -6  -2   30.20    4.10
   2   6   2   29.10    2.80
  -3  -6  -2    1.70    3.80
   3   6   2    4.30    2.50
   3   6   2    5.00    3.10
   3   6   2    3.60    4.20
  -4  -6  -2   35.30    6.20
  -4  -6  -2   39.90    8.80
   4   6   2   50.59    4.70
   4   6   2   40.60    5.30
  -5  -6  -2  152.78   13.70
   5   6   2  159.78    9.10
   5   6   2  161.58   11.50
   6  -7  -2   50.59    5.20
   5  -7  -2    7.50    2.70
   4  -7  -2   -4.00    6.30
   4  -7  -2    2.00    2.10
   3  -7  -2  135.19    5.80
   3  -7  -2  139.59    8.20
  -3   7   2  118.29    8.00
  -3   7   2  139.29    8.00
   2  -7  -2  119.89    7.40
   2  -7  -2  113.19    7.80
   2  -7  -2  114.19    7.70
  -2   7   2  115.49    7.30
  -2   7   2  116.89    7.10
  -2   7   2   96.99    7.50
   1  -7  -2  834.32   30.80
   1  -7  -2  876.21   31.00
   1  -7  -2  864.31   31.10
  -1   7   2  881.01   30.70
  -1   7   2  861.81   30.80
  -1   7   2  840.12   30.80
   0  -7  -2    1.60    2.90
   0  -7  -2   -4.20    3.40
   0  -7  -2   -1.20    3.10
   0   7   2    2.20    3.00
   0   7   2    1.80    2.70
   0   7   2    0.50    3.20
  -1  -7  -2    8.30    3.40
   1   7   2    3.10    3.10
  -2  -7  -2  105.09    7.70
   2   7   2  104.49    4.90
   2   7   2   91.39    7.70
   2   7   2  111.69    6.40
  -3  -7  -2    4.50    4.70
   3   7   2   -2.80    5.30
   3   7   2    6.80    3.40
   3   7   2    5.20    2.80
  -4  -7  -2   -0.70    6.60
   4   7   2    0.50    3.90
   4   7   2    4.80    4.20
   6  -8  -2   11.50    3.30
   5  -8  -2  117.09    6.30
   4  -8  -2  268.87   10.30
   4  -8  -2  258.27   15.40
  -4   8   2  245.18   13.00
   3  -8  -2   26.90    5.70
  -3   8   2   22.30    5.20
  -3   8   2   20.40    4.80
  -3   8   2   21.00    4.80
   2  -8  -2   -0.40    4.50
   2  -8  -2    9.90    4.40
   2  -8  -2    2.10    3.90
  -2   8   2    4.90    4.10
  -2   8   2    6.70    3.80
  -2   8   2    1.20    3.80
   1  -8  -2  764.92   27.80
   1  -8  -2  741.43   27.90
   1  -8  -2  740.23   27.90
  -1   8   2  763.42   27.70
  -1   8   2  730.43   27.60
  -1   8   2  762.82   27.50
   0  -8  -2   75.89    7.40
   0  -8  -2   69.69    6.60
   0  -8  -2   61.89    7.50
   0   8   2   72.39    6.40
   0   8   2   54.19    7.70
  -1  -8  -2    4.10    4.10
   1   8   2    0.10    3.70
  -2  -8  -2   -7.30    4.60
   2   8   2    2.50    3.10
   2   8   2    4.20    2.20
  -3  -8  -2   50.39    7.20
   3   8   2   41.80    7.20
   3   8   2   55.89    5.90
   3   8   2   51.59    5.10
  -4  -8  -2    4.00    8.50
   4   8   2    1.30    4.30
   4   8   2    0.50    4.40
   6  -9  -2   42.20    4.80
   5  -9  -2  168.78    7.90
  -4   9   2   19.50    6.40
   3  -9  -2  200.28   12.40
   3  -9  -2  200.78   12.90
  -3   9   2  181.98   11.60
  -3   9   2  205.38   11.00
  -3   9   2  189.38   11.60
   2  -9  -2   60.79    7.00
   2  -9  -2   57.19    6.70
   2  -9  -2   57.39    8.00
  -2   9   2   50.39    6.00
  -2   9   2   58.49    6.50
  -2   9   2   56.49    7.60
   1  -9  -2   49.00    6.90
   1  -9  -2   62.49    6.50
   1  -9  -2   59.79    8.30
  -1   9   2   54.69    6.20
  -1   9   2   52.39    7.00
  -1   9   2   37.10    8.10
   0  -9  -2 1166.78   40.90
   0  -9  -2 1132.49   41.30
   0  -9  -2 1124.19   41.10
   0   9   2 1184.68   40.70
   0   9   2 1072.99   40.60
  -2  -9  -2   14.80    6.30
   2   9   2   21.30    4.00
   2   9   2   17.70    2.90
   2   9   2   16.10    6.00
  -3  -9  -2   18.80    7.90
   3   9   2   18.40    3.80
   3   9   2   15.80    8.40
   3   9   2   10.00    4.90
   4 -10  -2   -1.80    9.80
   4 -10  -2    0.50    8.10
  -4  10   2    4.30    8.00
  -4  10   2    0.60    6.30
   3 -10  -2   21.90    7.80
   3 -10  -2   28.60    7.60
  -3  10   2   23.90    6.90
  -3  10   2   11.20   10.30
  -3  10   2   15.00    6.40
   2 -10  -2   22.80    6.90
   2 -10  -2   12.70    7.10
  -2  10   2   15.10    5.70
  -2  10   2   14.00    8.70
  -2  10   2   13.40    5.60
   1 -10  -2   21.20    6.80
   1 -10  -2   32.20    6.50
   1 -10  -2   18.10    5.70
  -1  10   2   21.80    5.90
  -1  10   2   22.50    5.50
  -1  10   2   23.00    6.10
   0 -10  -2   18.50    5.50
   0 -10  -2   10.90    7.20
   0 -10  -2   23.30    6.20
   0  10   2   19.40    5.90
   0  10   2   16.40    5.90
  -1 -10  -2    6.30    6.60
   1  10   2   15.90    6.20
  -2 -10  -2   -9.30    7.40
   2  10   2   -3.30    3.00
   2  10   2   -0.20    7.60
   2  10   2    7.40    4.10
  -3 -10  -2   39.90   10.40
   3  10   2   34.40    4.90
   3  10   2   27.20    6.20
  -5  11   2   83.99   13.90
   4 -11  -2  115.39   12.70
  -4  11   2   91.99   12.20
  -4  11   2   97.29   10.10
  -4  11   2  114.09   15.40
   3 -11  -2    2.40    8.60
   3 -11  -2   -0.20    9.50
  -3  11   2    6.20    6.90
  -3  11   2   11.50    8.00
  -3  11   2   17.10    8.50
   2 -11  -2    2.40    7.70
   2 -11  -2    6.20    8.60
  -2  11   2   -0.80    6.60
  -2  11   2   -2.00    7.50
  -2  11   2    1.40    7.00
   1 -11  -2   58.59    9.40
   1 -11  -2   59.99    7.70
   1 -11  -2   44.10    8.20
  -1  11   2   44.80    7.90
  -1  11   2   59.19    8.10
  -1  11   2   50.69    6.90
   0 -11  -2   99.69   10.80
   0 -11  -2   97.89   10.50
   0 -11  -2   95.59   11.60
   0  11   2   97.19   10.10
   0  11   2  103.29   10.70
   0  11   2   91.29    9.20
  -1 -11  -2   98.69   11.90
  -1 -11  -2   81.29   12.50
   1  11   2  101.89    7.40
   1  11   2  125.89   12.40
  -2 -11  -2   38.20   10.00
   2  11   2   37.60    4.30
   2  11   2   38.60    5.80
   4 -12  -2   15.10   13.60
  -4  12   2   20.70   13.10
  -4  12   2   30.60    9.50
   3 -12  -2  198.58   18.60
   3 -12  -2  174.58   20.10
  -3  12   2  220.78   18.60
  -3  12   2  220.88   19.50
  -3  12   2  209.18   15.40
   2 -12  -2   38.00   11.10
   2 -12  -2   35.30    9.50
  -2  12   2   26.40   13.80
  -2  12   2   38.10    8.80
  -2  12   2   34.30   10.40
   1 -12  -2   91.89   10.70
   1 -12  -2  109.89   12.70
   1 -12  -2   91.39   12.30
  -1  12   2   83.49   11.90
  -1  12   2   82.79   10.90
   0 -12  -2   -6.70    8.00
   0 -12  -2   -4.00    7.50
   0  12   2   -3.00    8.10
   0  12   2   -2.10   11.20
  -1 -12  -2   -0.90    8.70
  -1 -12  -2    8.60   13.10
   1  12   2    3.60    4.20
   1  12   2    1.50    3.30
   3 -13  -2    0.10   13.80
  -3  13   2    8.50   10.10
  -3  13   2    6.70   14.20
   2 -13  -2  138.49   14.50
   2 -13  -2  133.19   16.40
  -2  13   2  133.89   14.80
  -2  13   2  155.88   15.30
   1 -13  -2   18.30   10.20
   1 -13  -2   -6.80   10.60
   1 -13  -2   18.50   13.40
  -1  13   2   -4.60    9.60
   0 -13  -2   40.00   10.60
   0 -13  -2   11.40   11.20
   0 -13  -2   23.90   14.90
   0  13   2   11.40   10.50
   0  14  -3   54.69    7.00
   0  14  -3   68.29   11.70
   0 -14   3   49.70   18.10
   0 -14   3   55.29   14.20
  -1  14  -3  205.38   18.10
   1 -14   3  177.18   19.20
   1 -14   3  169.18   21.80
  -2  14  -3    8.60   14.80
  -2  14  -3    9.10   10.00
   2 -14   3  -21.10   13.40
   1  13  -3   82.79    9.70
  -1 -13   3   61.79   11.40
   0  13  -3   97.49    7.50
   0  13  -3   91.59   10.40
   0 -13   3   94.89   14.50
   0 -13   3   86.69   11.70
  -1  13  -3   38.80    8.80
  -1  13  -3   26.50   11.20
   1 -13   3   25.30   12.60
   1 -13   3   12.70   10.70
  -2  13  -3   95.09   10.30
  -2  13  -3  112.19   13.30
   2 -13   3   91.99   13.10
   2 -13   3  102.49   14.30
  -3  13  -3   47.50   13.10
  -3  13  -3   46.50    8.80
   3 -13   3   29.80   13.00
  -4  13  -3   13.10    9.20
   2  12  -3   90.59   10.50
   2  12  -3   74.29    6.10
   1  12  -3  104.39   12.30
   1  12  -3  124.59    9.30
   1  12  -3  130.49   13.40
  -1 -12   3  120.69   13.30
  -1 -12   3  141.09   14.50
   0  12  -3   27.50    3.90
   0  12  -3   26.90    7.00
   0  12  -3    8.80    9.10
   0  12  -3   31.80    8.30
   0 -12   3   21.50    9.80
   0 -12   3   23.40    8.50
  -1  12  -3    1.70    6.60
  -1  12  -3   -1.70    8.20
  -1  12  -3    2.00    6.50
   1 -12   3   13.00    8.60
   1 -12   3   15.60    9.50
  -2  12  -3  180.78   13.10
  -2  12  -3  151.78   15.20
   2 -12   3  151.28   16.80
   2 -12   3  165.58   15.70
  -3  12  -3   39.80    7.20
  -3  12  -3   61.09   11.50
  -3  12  -3   31.60    9.30
   3 -12   3   38.00   10.50
   3 -12   3   43.60   10.80
  -4  12  -3   63.59    8.50
   3  11  -3    3.50    3.70
   3  11  -3   -2.90   10.20
   3  11  -3    2.60    6.50
   2  11  -3    5.40    2.90
   2  11  -3    8.90    7.80
   2  11  -3    6.10    4.90
   1  11  -3   64.99    8.30
   1  11  -3   92.79    7.10
   1  11  -3   83.19    9.50
   1  11  -3   82.79    9.80
  -1 -11   3   89.39   11.50
  -1 -11   3   70.39   10.00
   0  11  -3   71.29   10.20
   0  11  -3   71.09    9.30
   0  11  -3   66.29    8.30
   0 -11   3   63.49    8.30
   0 -11   3   71.09    9.00
  -1  11  -3   77.99    8.60
  -1  11  -3   82.09    7.60
   1 -11   3   80.19    8.70
   1 -11   3   78.79   11.10
  -2  11  -3    9.50    7.60
  -2  11  -3   -0.20    5.00
   2 -11   3   27.50    7.70
   2 -11   3   17.30    7.70
  -3  11  -3   33.80    8.00
  -3  11  -3   43.50    8.80
  -3  11  -3   27.30    6.00
   3 -11   3   55.59    9.20
   3 -11   3   29.80    8.50
  -4  11  -3   65.49   10.80
  -4  11  -3   63.39    7.20
  -4  11  -3   50.89    9.90
   3  10  -3    6.40    8.00
   3  10  -3   17.70    3.60
   3  10  -3   12.10    5.90
   2  10  -3  127.69    8.50
   2  10  -3  116.99    6.30
   1  10  -3   95.49    6.30
   1  10  -3  107.89    8.60
  -1 -10   3  101.79   11.50
   0  10  -3   34.10    6.30
   0  10  -3   26.90    5.30
   0  10  -3   16.90    5.40
   0 -10   3   39.80    6.70
   0 -10   3   20.30    6.10
  -1  10  -3  156.08   15.50
  -1  10  -3  123.39    9.10
   1 -10   3  137.79   10.80
  -2  10  -3   30.40    5.10
  -2  10  -3   36.50    6.50
   2 -10   3   34.80    6.70
   2 -10   3   36.50    6.70
  -3  10  -3   70.09   10.00
  -3  10  -3   53.99    7.80
   3 -10   3   63.19    8.10
  -4  10  -3  156.38   10.00
  -4  10  -3  137.19   13.80
  -5  10  -3    1.90   10.60
   4   9  -3   27.00    7.10
   4   9  -3   23.90    4.70
   3   9  -3    3.80    4.70
   3   9  -3   13.90    3.30
   2   9  -3  128.99    9.40
   2   9  -3  133.39    6.30
   1   9  -3   10.80    4.20
   1   9  -3    7.40    2.50
   1   9  -3   12.60    4.40
  -1  -9   3    4.70    5.00
   0   9  -3   40.60    4.80
   0   9  -3   32.10    5.00
   0   9  -3   30.10    6.80
   0  -9   3   37.00    5.40
   0  -9   3   34.00    5.60
  -1   9  -3   13.00    4.30
  -1   9  -3   14.00    3.90
   1  -9   3   25.60    5.00
  -2   9  -3  172.38   10.40
  -2   9  -3  172.48    9.80
  -2   9  -3  159.68    8.80
   2  -9   3  158.28   10.80
   2  -9   3  156.48   10.20
  -3   9  -3   90.79    8.80
  -3   9  -3   88.39    6.90
  -3   9  -3   76.79    9.40
  -4   9  -3   13.10    6.30
  -5   9  -3  122.19   14.80
  -6   9  -3   31.00   13.30
   4   8  -3   51.69    5.60
   4   8  -3   50.49    7.10
   3   8  -3    3.50    4.00
   3   8  -3    5.20    2.70
   2   8  -3    5.70    1.90
   2   8  -3    7.10    3.00
  -2  -8   3   13.20    5.20
   1   8  -3   62.29    6.40
   1   8  -3   61.79    4.30
  -1  -8   3   63.19    7.10
  -1  -8   3   61.09    7.50
   0   8  -3   76.79    6.30
   0   8  -3   86.99    6.40
   0   8  -3   88.79    7.30
   0  -8   3   75.39    7.50
   0  -8   3   86.19    7.00
  -1   8  -3    5.30    3.90
  -1   8  -3    0.40    4.00
  -1   8  -3    1.60    3.00
   1  -8   3    4.90    3.70
   1  -8   3    5.30    4.20
  -2   8  -3  169.68    9.60
  -2   8  -3  169.38    8.50
  -2   8  -3  176.28    9.20
   2  -8   3  164.08   10.00
   2  -8   3  171.38    9.90
  -3   8  -3   -0.10    4.30
  -4   8  -3   -7.10    5.10
  -5   8  -3   47.10    8.50
   5   7  -3    1.10    4.30
  -5  -7   3   12.30   14.00
   4   7  -3   55.79    5.30
   4   7  -3   51.49    6.40
   3   7  -3    8.60    3.50
   3   7  -3    9.50    2.60
   2   7  -3   89.39    6.30
   2   7  -3   85.59    5.60
   2   7  -3   85.39    4.50
  -2  -7   3  100.99    7.50
   1   7  -3  560.74   20.90
   1   7  -3  550.04   20.50
   1   7  -3  572.74   20.80
   1   7  -3  553.74   19.80
  -1  -7   3  573.04   21.00
  -1  -7   3  552.04   20.80
   0   7  -3  311.47   12.30
   0   7  -3  299.47   12.50
   0   7  -3  296.57   12.70
   0  -7   3  303.17   12.80
   0  -7   3  303.57   12.40
  -1   7  -3   96.69    6.70
  -1   7  -3  102.39    6.10
  -1   7  -3  102.89    6.40
   1  -7   3  101.89    6.50
   1  -7   3  101.29    7.20
  -2   7  -3  124.09    7.50
  -2   7  -3  119.69    6.40
  -2   7  -3  105.29    6.90
   5  -7   3    4.70    2.40
   6  -7   3    6.10    3.20
   5   6  -3   92.49    7.30
  -5  -6   3  108.49   16.20
   4   6  -3   -2.00    3.80
   4   6  -3    4.90    2.90
   3   6  -3    1.90    2.80
   3   6  -3    3.10    2.10
   2   6  -3   57.09    4.80
   2   6  -3   58.09    4.30
   2   6  -3   55.49    3.30
   1   6  -3   81.59    4.00
   1   6  -3   82.19    5.40
   0   6  -3  372.96   14.40
   0   6  -3  377.56   14.10
   0   6  -3  369.46   14.30
   0  -6   3  363.86   14.20
   0  -6   3  378.46   14.50
  -1   6  -3  363.36   14.80
  -1   6  -3  360.36   14.50
  -1   6  -3  387.36   14.30
   1  -6   3  412.36   14.80
   1  -6   3  376.56   14.40
  -2   6  -3   76.89    5.90
   4  -6   3  352.16   13.00
   5  -6   3  107.59    5.70
   6  -6   3   -0.50    2.70
   5   5  -3   36.30    4.60
  -5  -5   3   35.90   11.30
   4   5  -3    1.00    2.50
   4   5  -3   -1.90    3.50
  -4  -5   3   -1.50    7.40
   3   5  -3  217.18    9.70
   3   5  -3  219.48    8.70
   2   5  -3  378.96   13.60
   2   5  -3  380.86   14.10
   1   5  -3    3.30    2.00
   1   5  -3    8.70    2.30
   1   5  -3    6.70    1.50
  -1  -5   3    6.90    2.20
   0   5  -3  188.58    8.10
   0   5  -3  195.88    7.80
   0   5  -3  193.48    8.10
   0  -5   3  187.88    8.40
   0  -5   3  187.28    7.90
  -1   5  -3  644.44   22.10
  -1   5  -3  601.64   22.30
   1  -5   3  626.74   22.40
   1  -5   3  637.14   22.20
   3  -5   3 1343.17   45.60
   4  -5   3   86.09    4.60
   5  -5   3   73.89    4.80
   6  -5   3   77.79    5.60
   6   4  -3    6.20    3.90
  -6  -4   3    7.90   13.60
   5   4  -3   45.50    4.70
  -5  -4   3   41.20   11.00
   4   4  -3  160.28    7.60
  -4  -4   3  173.68   13.20
   3   4  -3   15.40    2.30
   3   4  -3   10.20    2.60
   2   4  -3  391.66   14.50
   2   4  -3  402.16   14.10
   1   4  -3  252.47    9.60
   1   4  -3  246.38    9.00
  -1  -4   3  245.08    9.90
   0   4  -3  378.56   13.70
   0   4  -3  355.46   13.50
   0   4  -3  380.16   13.40
   0  -4   3  372.06   13.40
   0  -4   3  367.26   13.60
  -1   4  -3  426.96   15.00
   1  -4   3  407.66   15.20
   1  -4   3  426.26   15.00
  -2   4  -3   92.09    4.60
   2  -4   3   87.59    5.10
   3  -4   3  310.27   11.30
   4  -4   3  457.75   16.50
   5  -4   3  297.67   11.80
   6  -4   3    3.70    3.20
   6   3  -3    5.60    3.80
  -6  -3   3   16.30   12.70
   5   3  -3  100.59    6.40
  -5  -3   3   92.79   13.90
   4   3  -3    0.50    2.20
  -4  -3   3    1.00    5.60
   3   3  -3  224.28    9.40
   3   3  -3  227.08    8.80
  -3  -3   3  220.18   11.90
   2   3  -3 1528.25   53.49
   2   3  -3 1628.54   53.49
  -2  -3   3 1559.54   53.29
   1   3  -3  127.69    5.00
  -1  -3   3  127.89    4.80
   0   3  -3 1524.15   50.39
   0   3  -3 1441.66   50.19
   0  -3   3 1524.85   50.39
   0  -3   3 1447.56   50.19
  -2   3  -3   39.90    3.30
   2  -3   3   47.40    2.40
   2  -3   3   53.09    3.80
   3  -3   3   14.10    1.90
   3  -3   3   16.90    3.60
   5  -3   3   41.30    4.00
   6  -3   3   10.70    3.60
   6   2  -3   10.90    3.80
  -6  -2   3   13.60   12.60
   5   2  -3  100.39    6.20
  -5  -2   3  114.39   13.30
   4   2  -3  369.06   14.00
  -4  -2   3  366.36   17.60
   3   2  -3    4.00    1.80
  -3  -2   3    9.60    4.10
   2   2  -3   15.90    1.70
  -2  -2   3   16.10    2.20
  -2  -2   3   15.00    3.30
   1   2  -3   86.79    4.50
   1   2  -3  103.39    3.70
  -1  -2   3   99.89    3.90
   0   2  -3  518.65   17.60
   0   2  -3  514.65   17.40
   0  -2   3  490.35   17.40
   0  -2   3  487.65   17.60
  -1   2  -3 3210.18  106.09
   1  -2   3 3148.59  106.19
   1  -2   3 3152.68  106.79
  -2   2  -3  360.96   12.90
  -2   2  -3  354.16   13.40
   2  -2   3  371.66   13.70
   2  -2   3  363.96   12.40
   2  -2   3  334.87   12.80
  -3   2  -3  226.28   10.10
   3  -2   3  229.68   10.60
   3  -2   3  234.18    8.90
  -4   2  -3   75.59    6.70
   4  -2   3   75.59    4.30
   5  -2   3  122.59    6.40
   6  -2   3   10.40    3.50
   6   1  -3   33.30    4.50
  -6  -1   3   50.09   12.10
   5   1  -3  181.98    8.30
  -5  -1   3  159.28   21.90
   4   1  -3   20.30    2.90
  -4  -1   3   30.60    5.90
   3   1  -3  110.89    5.10
  -3  -1   3  105.89    7.70
   2   1  -3    7.90    1.30
  -2  -1   3    7.70    2.00
  -2  -1   3    6.00    2.90
   1   1  -3 3058.69  102.89
  -1  -1   3 3087.29  103.89
   0   1  -3  344.87   12.90
   0   1  -3  371.76   12.60
   0  -1   3  365.96   12.90
   0  -1   3  364.36   12.60
  -1   1  -3  655.03   22.50
  -1   1  -3  627.64   23.20
   1  -1   3  741.73   22.60
   1  -1   3  629.24   23.30
  -2   1  -3  831.82   29.70
  -2   1  -3  861.31   28.90
   2  -1   3  811.72   29.00
   2  -1   3  833.82   29.90
   2  -1   3  874.11   28.60
  -3   1  -3    1.20    2.60
   3  -1   3    1.90    1.70
   3  -1   3   -1.30    1.70
   3  -1   3   -0.80    2.90
  -4   1  -3  237.38   12.20
   4  -1   3  245.98    9.50
  -5   1  -3    9.00    6.00
   5  -1   3    7.70    3.00
  -6   1  -3   12.90    9.20
   6  -1   3   -0.60    3.30
   6   0  -3  185.98    9.40
  -6   0   3  181.68   17.70
   5   0  -3    1.30    2.60
  -5   0   3    6.00    6.80
   4   0  -3  174.98    7.60
  -4   0   3  171.68   10.90
   3   0  -3  199.68    8.00
  -3   0   3  203.98   10.10
   2   0  -3   41.90    2.40
   2   0  -3   34.20    4.50
  -2   0   3   38.30    4.10
   1   0  -3    8.10    1.00
   1   0  -3   14.10    1.90
   1   0  -3    8.60    2.00
  -1   0   3    9.40    2.20
  -1   0   3   12.50    1.70
  -1   0   3    7.90    1.40
   0   0  -3 1254.07   43.80
   0   0  -3 1314.07   43.90
   0   0   3 1319.87   43.90
   0   0   3 1293.57   43.70
  -1   0  -3  741.63   26.00
   1   0   3  729.53   26.10
   1   0   3  752.42   25.20
  -2   0  -3 1385.76   47.60
  -2   0  -3 1326.77   46.50
   2   0   3 1360.46   47.70
   2   0   3 1349.27   46.70
   2   0   3 1432.46   46.20
  -3   0  -3  151.58    6.90
  -3   0  -3  133.89    7.70
  -4   0  -3   -1.90    4.10
   4   0   3   -0.90    2.60
   4   0   3    0.20    2.30
  -5   0  -3  209.18   13.60
   5   0   3  209.78    9.10
  -6   0  -3   90.19   13.20
   6   0   3  110.69    7.20
   6  -1  -3  168.08    8.90
   5  -1  -3   25.30    3.70
  -5   1   3   30.20    7.10
   4  -1  -3  399.36   14.90
  -4   1   3  399.26   17.40
   3  -1  -3  578.54   22.10
   3  -1  -3  568.24   20.10
  -3   1   3  564.04   21.60
   2  -1  -3   23.30    3.30
   2  -1  -3   21.80    2.10
  -2   1   3   20.60    3.00
   1  -1  -3 1983.60   65.39
   1  -1  -3 1969.60   64.99
   1  -1  -3 1912.91   65.49
   1  -1  -3 1858.41   65.79
  -1   1   3 1978.70   65.49
  -1   1   3 1928.31   65.29
   0  -1  -3 3099.79  107.69
   0  -1  -3 3119.09  107.49
   0  -1  -3 3296.77  107.59
   0   1   3 3161.48  107.59
   0   1   3 3356.16  107.69
  -1  -1  -3   41.20    2.90
  -1  -1  -3   45.10    3.60
   1   1   3   39.30    3.50
  -2  -1  -3  269.57   11.40
  -2  -1  -3  273.87   10.40
   2   1   3  272.87   10.10
   2   1   3  264.57    9.70
  -3  -1  -3  124.59    6.40
  -3  -1  -3  130.19    7.90
   3   1   3  122.89    5.50
   3   1   3  121.89    6.20
  -4  -1  -3   17.30    5.00
   4   1   3   13.70    3.50
   4   1   3   19.70    3.00
  -5  -1  -3  190.98   14.10
   5   1   3  217.48   11.20
   5   1   3  207.98    9.20
   6   1   3   23.60    4.30
   6  -2  -3   73.59    6.10
  -6   2   3   78.49   11.20
   5  -2  -3   15.00    3.30
   4  -2  -3   78.99    4.80
  -4   2   3   76.99    7.80
   3  -2  -3   27.00    2.90
   3  -2  -3   33.20    4.90
  -3   2   3   28.20    4.80
   2  -2  -3   97.49    5.50
   2  -2  -3   85.19    4.10
   1  -2  -3  133.69    5.00
   1  -2  -3  133.89    5.80
   1  -2  -3  126.09    5.70
  -1   2   3  133.59    5.90
  -1   2   3  130.49    5.60
   0  -2  -3 1083.99   35.20
   0  -2  -3 1018.40   35.40
   0  -2  -3  996.50   35.30
   0   2   3 1056.49   35.20
   0   2   3  989.40   35.20
  -1  -2  -3  822.42   28.30
  -1  -2  -3  812.62   29.00
   1   2   3  806.72   28.20
  -2  -2  -3  671.33   23.40
  -2  -2  -3  656.73   24.50
   2   2   3  632.54   22.50
   2   2   3  671.53   23.10
  -3  -2  -3   38.10    5.90
  -3  -2  -3   39.90    4.50
   3   2   3   37.40    3.80
   3   2   3   42.20    3.40
  -4  -2  -3   53.29    7.80
  -4  -2  -3   64.29    6.20
   4   2   3   43.90    4.40
   4   2   3   48.40    5.50
  -5  -2  -3    2.30    7.70
   5   2   3   24.90    4.00
   5   2   3   15.50    4.50
   6   2   3   -1.20    4.00
   6  -3  -3   51.99    5.70
   5  -3  -3  272.37   11.20
   5  -3  -3  266.77   17.50
   4  -3  -3  121.69   16.10
   4  -3  -3  127.19    6.10
   3  -3  -3  214.38    8.40
   3  -3  -3  210.38   10.40
   2  -3  -3   17.20    1.90
   2  -3  -3   18.00    2.90
   1  -3  -3  410.56   14.20
   1  -3  -3  417.66   15.20
   1  -3  -3  403.86   15.00
   1  -3  -3  409.56   14.80
  -1   3   3  416.06   14.70
  -1   3   3  418.66   15.20
  -1   3   3  416.46   14.90
   0  -3  -3 2428.56   82.79
   0  -3  -3 2458.25   82.69
   0  -3  -3 2405.96   82.59
   0   3   3 2462.75   82.69
   0   3   3 2488.45   82.59
  -1  -3  -3  227.88   10.00
  -1  -3  -3  238.48    9.30
   1   3   3  237.48    9.30
  -2  -3  -3  301.37   12.90
  -2  -3  -3  355.16   14.30
   2   3   3  344.47   13.00
   2   3   3  351.16   12.60
  -3  -3  -3  290.97   12.10
  -3  -3  -3  293.87   14.00
  -4  -3  -3  276.67   12.50
  -4  -3  -3  270.47   15.20
   4   3   3  281.27   11.00
   4   3   3  281.77   12.50
  -5  -3  -3   -3.80    8.80
   5   3   3   -1.60    3.60
   5   3   3    3.00    4.70
   6  -4  -3    0.00    3.30
   5  -4  -3   -3.00    2.30
   4  -4  -3    1.20    5.80
   4  -4  -3   -0.80    2.30
   3  -4  -3  457.45   17.30
   3  -4  -3  517.35   19.30
   2  -4  -3  237.18   10.10
   2  -4  -3  233.68   10.50
   2  -4  -3  264.47    9.20
   2  -4  -3  266.27   10.30
  -2   4   3  262.77   10.30
  -2   4   3  244.08   10.10
   1  -4  -3   33.30    1.90
   1  -4  -3   34.00    3.80
   1  -4  -3   32.40    3.20
   1  -4  -3   37.20    3.70
  -1   4   3   32.20    3.00
  -1   4   3   34.40    3.50
  -1   4   3   34.70    3.80
   0  -4  -3  929.01   32.40
   0  -4  -3  934.01   32.60
   0  -4  -3  917.01   32.50
   0   4   3  956.50   32.60
   0   4   3  938.21   32.50
  -1  -4  -3  290.57   11.20
   1   4   3  281.87   11.20
  -2  -4  -3   49.30    4.70
  -2  -4  -3   50.99    6.00
   2   4   3   48.90    4.70
   2   4   3   47.70    3.60
   2   4   3   48.90    3.10
  -3  -4  -3  220.38   12.10
  -3  -4  -3  235.48   10.50
   3   4   3  227.08    8.90
   3   4   3  216.28   10.00
  -4  -4  -3  380.56   19.20
  -4  -4  -3  381.86   16.30
   4   4   3  389.96   14.50
   4   4   3  382.36   16.10
   5   4   3   42.10    4.90
   5   4   3   41.80    6.00
   6  -5  -3   45.80    4.70
   5  -5  -3   20.80    3.40
   4  -5  -3  247.38    9.90
   4  -5  -3  245.38   13.80
   3  -5  -3  536.85   21.30
   3  -5  -3  558.74   19.40
   2  -5  -3   15.20    3.20
   2  -5  -3   18.00    3.30
   2  -5  -3   20.60    2.00
   2  -5  -3   17.60    3.10
  -2   5   3   16.60    3.20
  -2   5   3   20.80    3.30
  -2   5   3   17.20    2.70
   1  -5  -3  316.17   13.70
   1  -5  -3  363.16   14.20
   1  -5  -3  424.26   14.10
  -1   5   3  372.36   13.70
  -1   5   3  341.77   14.00
   0  -5  -3   88.29    5.00
   0  -5  -3   90.69    5.40
   0  -5  -3   91.29    5.60
   0   5   3   86.29    5.40
   0   5   3   85.99    5.00
   0   5   3   83.39    5.00
  -1  -5  -3  418.66   16.00
   1   5   3  421.86   15.80
  -2  -5  -3   -2.30    2.90
  -2  -5  -3    2.90    4.00
   2   5   3   -0.90    3.10
   2   5   3    1.00    1.90
  -3  -5  -3  237.08   11.30
   3   5   3  242.58   10.60
   3   5   3  223.38    9.30
   3   5   3  226.98   11.00
  -4  -5  -3  189.28   11.60
  -4  -5  -3  196.58   15.40
   4   5   3  201.28    8.90
   4   5   3  202.08   10.60
  -5  -5  -3    0.90    7.00
   5   5   3    9.10    4.90
   5   5   3   10.90    4.30
   6  -6  -3   35.10    4.60
   5  -6  -3   37.40    4.00
   4  -6  -3  142.49    6.70
   3  -6  -3    0.60    1.90
  -3   6   3    4.20    3.50
   2  -6  -3 1011.00   32.90
   2  -6  -3  964.80   34.40
   2  -6  -3  953.70   34.20
   2  -6  -3  955.20   34.20
  -2   6   3  967.80   33.90
  -2   6   3  973.60   34.30
  -2   6   3  922.51   34.00
   1  -6  -3   18.50    3.70
   1  -6  -3   23.20    3.50
   1  -6  -3   24.70    3.40
  -1   6   3   17.00    2.70
  -1   6   3   15.10    3.50
  -1   6   3   20.50    3.30
   0  -6  -3   90.29    5.50
   0  -6  -3   80.79    5.80
   0   6   3   79.49    5.30
   0   6   3   80.89    5.80
  -1  -6  -3   18.10    3.30
   1   6   3   14.10    3.10
  -2  -6  -3  125.39    7.80
   2   6   3  116.79    7.70
   2   6   3  115.89    5.30
   2   6   3  123.19    6.50
  -3  -6  -3   29.90    5.30
   3   6   3   29.00    5.20
   3   6   3   45.90    4.30
  -4  -6  -3   22.60    9.00
  -4  -6  -3   20.80    6.40
   4   6   3   24.00    4.80
   4   6   3   28.70    4.20
  -5  -6  -3   16.10    8.60
   5   6   3   17.70    5.80
   5   6   3   15.30    4.90
   6  -7  -3    2.80    3.50
   5  -7  -3  124.49   14.30
   5  -7  -3  126.49    6.70
   4  -7  -3  389.16   14.10
   4  -7  -3  361.26   18.60
   3  -7  -3   10.50    4.30
   3  -7  -3    0.70    4.40
   3  -7  -3   -1.70    4.60
   3  -7  -3    1.50    2.00
  -3   7   3    5.40    4.30
  -3   7   3    1.10    3.90
   2  -7  -3   14.40    4.30
   2  -7  -3   15.60    4.00
  -2   7   3   18.10    3.70
  -2   7   3   23.80    4.20
   1  -7  -3   67.09    6.50
   1  -7  -3   81.09    6.30
   1  -7  -3   77.89    7.00
  -1   7   3   78.79    6.30
  -1   7   3   63.09    5.50
  -1   7   3   72.69    6.40
   0  -7  -3  377.06   15.10
   0  -7  -3  377.86   15.50
   0  -7  -3  384.36   15.10
   0   7   3  362.06   14.80
   0   7   3  376.36   15.00
   0   7   3  337.37   17.60
  -1  -7  -3 1713.13   59.39
   1   7   3 1696.83   59.09
  -2  -7  -3  285.97   12.80
   2   7   3  269.87   11.40
   2   7   3  270.57   10.20
   2   7   3  253.87   12.60
  -3  -7  -3   34.10    7.90
  -3  -7  -3   27.20    6.60
   3   7   3   25.00    4.60
   3   7   3   30.70    3.70
  -4  -7  -3    6.50    7.00
   4   7   3   13.80    4.40
   4   7   3   16.40    5.00
   6  -8  -3    2.90    3.50
   5  -8  -3   14.80    3.50
   5  -8  -3   21.40   12.20
   4  -8  -3  302.57   11.90
  -4   8   3  320.97   15.60
   3  -8  -3   67.09    8.90
   3  -8  -3   61.49    8.20
  -3   8   3   59.09    7.40
  -3   8   3   62.99    7.60
  -3   8   3   58.39    6.50
   2  -8  -3    2.30    5.00
   2  -8  -3    9.40    4.70
   2  -8  -3    5.50    4.30
  -2   8   3    4.00    3.90
  -2   8   3    8.50    4.30
   1  -8  -3  104.29    8.20
   1  -8  -3  104.19    7.70
   1  -8  -3   98.39    8.50
  -1   8   3   88.99    6.90
  -1   8   3   91.89    7.60
  -1   8   3  102.19    7.80
   0  -8  -3  360.36   15.80
   0  -8  -3  360.96   15.30
   0  -8  -3  349.37   15.20
   0   8   3  357.26   15.10
  -1  -8  -3   46.40    7.00
   1   8   3   42.60    6.20
  -2  -8  -3  158.28   11.10
   2   8   3  152.78    8.40
  -3  -8  -3   29.30    7.20
  -3  -8  -3   53.89    9.90
   3   8   3   28.00    5.30
   3   8   3   37.10    7.80
   3   8   3   33.80    3.90
  -4  -8  -3   -3.60    8.50
   4   8   3   -5.60    4.80
   4   8   3    3.30    4.70
   5  -9  -3   50.89   14.70
   5  -9  -3   35.60    4.20
   4  -9  -3   24.60    9.30
  -4   9   3   17.40    6.30
   3  -9  -3  327.07   16.20
   3  -9  -3  312.47   16.60
  -3   9   3  317.47   15.40
  -3   9   3  340.37   15.40
  -3   9   3  315.77   16.00
   2  -9  -3    0.70    6.00
   2  -9  -3    5.80    5.10
   2  -9  -3   -0.80    5.30
  -2   9   3    5.20    5.40
  -2   9   3    0.60    4.80
  -2   9   3   -0.90    4.50
   1  -9  -3  133.79   10.80
   1  -9  -3  146.79    9.60
   1  -9  -3  132.59   10.10
  -1   9   3  148.69    9.60
  -1   9   3  135.49    9.60
  -1   9   3  135.49    8.80
   0  -9  -3    6.30    6.20
   0  -9  -3    7.00    5.10
   0  -9  -3    8.70    4.90
   0   9   3    6.50    4.70
   0   9   3   -0.10    4.80
  -1  -9  -3   40.00    6.20
   1   9   3   28.50    5.60
  -2  -9  -3  297.17   15.70
   2   9   3  273.77   15.60
   2   9   3  294.37   12.90
   2   9   3  278.97   11.10
  -3  -9  -3   15.40    8.40
   3   9   3    5.40    9.00
   3   9   3   10.10    4.20
   3   9   3    0.90    4.80
   4 -10  -3  122.59   16.80
  -4  10   3  149.59   14.30
  -4  10   3  127.89   15.60
  -4  10   3  161.08   11.90
   3 -10  -3    6.30    7.90
   3 -10  -3    7.40    7.80
  -3  10   3    3.50    6.50
  -3  10   3    7.10    7.50
   2 -10  -3   19.00    8.00
   2 -10  -3   40.50    7.20
   2 -10  -3   33.90    6.20
  -2  10   3   30.60    7.30
  -2  10   3   25.00    6.40
  -2  10   3   25.80    6.20
   1 -10  -3  126.79   12.20
   1 -10  -3  116.49   11.10
   1 -10  -3  116.19    9.80
  -1  10   3  109.79    9.10
  -1  10   3  119.59   10.90
  -1  10   3  103.79    9.90
   0 -10  -3   53.89    7.10
   0 -10  -3   64.79    8.70
   0 -10  -3   58.79    9.90
   0  10   3   57.99    7.20
   0  10   3   84.39   10.40
  -1 -10  -3    5.60    6.80
  -1 -10  -3    6.90    8.40
   1  10   3    5.20    2.50
   1  10   3    9.20    6.60
  -2 -10  -3    9.50    8.10
   2  10   3    9.90    9.10
   2  10   3   23.40    5.10
   2  10   3   19.90    3.70
  -3 -10  -3    7.20   10.20
   3  10   3   -0.90    5.50
   3  10   3   -2.10    4.70
   4 -11  -3  137.29   18.60
  -4  11   3  145.79   18.60
  -4  11   3  112.79   13.30
  -4  11   3  133.39   16.80
   3 -11  -3   15.70    9.90
   3 -11  -3   11.70    9.30
  -3  11   3   27.10    8.30
  -3  11   3    8.20    7.10
  -3  11   3   14.90    9.50
   2 -11  -3  122.39   13.90
   2 -11  -3  128.29   12.40
   2 -11  -3  103.09   12.00
  -2  11   3   95.79    9.70
  -2  11   3  114.59   11.80
  -2  11   3  103.59   13.70
   1 -11  -3    9.10    6.20
   1 -11  -3   -3.10    8.90
  -1  11   3    6.80    6.10
  -1  11   3   17.50    8.00
  -1  11   3    4.40    7.10
   0 -11  -3   60.69    8.40
   0 -11  -3   53.69   10.50
   0 -11  -3   60.89    8.20
   0  11   3   61.09    9.20
   0  11   3   39.70    7.80
  -1 -11  -3  106.09   12.80
  -1 -11  -3   92.19   10.60
   1  11   3   88.09    5.50
   1  11   3   93.89    7.40
  -2 -11  -3  149.99   17.60
   2  11   3  201.88   11.50
   2  11   3  167.08    8.80
   4 -12  -3   14.40   13.70
  -4  12   3    9.80   10.10
  -4  12   3   22.60   14.40
   3 -12  -3   80.09   14.10
   3 -12  -3   76.29   13.30
  -3  12   3   78.19   13.10
  -3  12   3   74.09   10.60
   2 -12  -3  111.49   14.30
   2 -12  -3  155.38   15.30
  -2  12   3  111.59   13.40
   1 -12  -3   13.50    8.20
   1 -12  -3    3.30   11.60
   1 -12  -3   -5.30    9.50
  -1  12   3   -0.20    8.80
  -1  12   3   -0.50   10.30
   0 -12  -3   26.90    9.30
   0 -12  -3   27.20    8.60
   0  12   3   17.20    9.30
  -1 -12  -3   29.30   18.10
  -1 -12  -3   12.90   10.00
   1  12   3   32.90    4.00
   1  12   3   31.80    5.30
   3 -13  -3   66.89   17.30
  -3  13   3   67.99   12.20
  -3  13   3   75.69   16.60
   2 -13  -3   30.80   15.80
   2 -13  -3   48.80   12.80
  -2  13   3   39.50   11.40
  -2  13   3   48.60   15.00
   1 -13  -3   46.10   10.80
   1 -13  -3   18.50   11.30
   1 -13  -3    5.30   15.40
  -1  13   3   19.50   10.70
   0 -13  -3   10.80   10.40
   0 -13  -3    4.20   11.20
  -1  14  -4   18.20    9.90
   1 -14   4   18.80   16.60
   1 -14   4   13.90   13.50
  -2  14  -4   22.80   10.20
  -2  14  -4   17.10   14.90
   2 -14   4    5.70   14.50
   1  13  -4   55.19   10.40
   1  13  -4   56.99    7.50
  -1 -13   4   77.19   15.90
  -1 -13   4   71.69   11.90
   0  13  -4  -18.20   13.90
   0  13  -4    4.10    8.80
   0  13  -4    3.70    4.60
   0 -13   4    2.50   10.30
   0 -13   4   -8.00   12.60
  -1  13  -4   48.30   10.70
  -1  13  -4   16.80   11.70
   1 -13   4   42.30   11.30
   1 -13   4   34.70   12.60
  -2  13  -4  122.49   14.10
  -2  13  -4  158.58   14.30
   2 -13   4  158.58   18.70
   2 -13   4  132.19   14.90
  -3  13  -4   31.80   12.60
  -3  13  -4   26.20    8.80
   3 -13   4   33.20   13.20
  -4  13  -4  188.48   17.30
   2  12  -4  225.08   13.60
   2  12  -4  196.28    9.60
   2  12  -4  195.28   20.90
   1  12  -4   14.90    9.40
   1  12  -4   -0.20    4.90
  -1 -12   4    2.40    8.40
  -1 -12   4   -6.00   11.20
   0  12  -4  116.29   14.80
   0  12  -4  112.29    7.50
   0  12  -4   86.59   11.60
   0 -12   4  139.09   14.00
  -1  12  -4    2.00    6.40
  -1  12  -4   12.10    9.10
  -1  12  -4   17.00    7.00
   1 -12   4    9.00    9.10
   1 -12   4   11.90    9.40
  -2  12  -4   17.10    9.50
  -2  12  -4   17.00    7.90
  -2  12  -4   41.20    7.20
   2 -12   4   22.70   10.00
   2 -12   4   39.20   10.10
  -3  12  -4   61.69   15.20
  -3  12  -4   61.39    7.90
  -3  12  -4   48.50   10.70
   3 -12   4   51.59   11.20
   3 -12   4   69.19   11.70
  -4  12  -4   46.80    8.20
  -4  12  -4   40.10   12.20
   3  11  -4   59.59   11.30
   3  11  -4  109.29   11.80
   3  11  -4   73.39    6.50
   2  11  -4   69.19    8.90
   2  11  -4   62.19    5.10
   2  11  -4   49.99    9.00
   1  11  -4   17.60    4.20
   1  11  -4   11.10    7.10
  -1 -11   4   11.10    9.00
  -1 -11   4   15.60    7.00
   0  11  -4   96.19    9.40
   0  11  -4   73.29    8.30
   0  11  -4   99.99   11.50
   0  11  -4   84.59    5.50
   0 -11   4   90.99   11.90
   0 -11   4   86.99    9.90
  -1  11  -4   52.99    7.30
  -1  11  -4   50.69    7.80
  -1  11  -4   65.79    9.10
   1 -11   4   50.79    8.00
   1 -11   4   51.29    8.40
  -2  11  -4   17.20    5.80
  -2  11  -4   23.80    7.60
   2 -11   4   21.70    8.00
   2 -11   4   22.50    7.60
  -3  11  -4   64.39    9.50
  -3  11  -4   68.59    9.60
  -3  11  -4   75.59    9.30
   3 -11   4   62.99    9.60
   3 -11   4   69.79   10.20
  -4  11  -4   23.40   10.00
  -4  11  -4   14.60    6.40
   3  10  -4   16.60    3.90
   3  10  -4   21.20    6.00
   2  10  -4    8.60    4.40
   2  10  -4   10.90    2.90
   1  10  -4  169.58   10.40
   1  10  -4  180.48   12.20
   1  10  -4  181.08    8.50
  -1 -10   4  144.59   12.40
   0  10  -4  147.59   11.20
   0  10  -4  157.28   11.30
   0  10  -4  168.48   10.00
   0 -10   4  152.18   11.40
   0 -10   4  172.08   11.90
  -1  10  -4   89.29   12.40
  -1  10  -4   71.19    7.80
   1 -10   4   69.89   10.00
   1 -10   4   80.29   10.20
  -2  10  -4   53.39    5.70
  -2  10  -4   50.79    7.30
   2 -10   4   51.99    7.70
   2 -10   4   48.00    7.10
  -3  10  -4    9.10    6.10
  -3  10  -4    6.20    4.70
   3 -10   4   15.20    6.80
  -4  10  -4   -0.10    4.90
  -4  10  -4   14.70    8.00
  -5  10  -4   58.59   12.10
   4   9  -4   36.00    5.10
   4   9  -4   39.00    7.60
   3   9  -4   -0.70    2.90
   3   9  -4    3.30    4.70
   2   9  -4    2.00    2.10
   2   9  -4    8.70    5.00
   2   9  -4    9.40    3.50
   1   9  -4  120.19    6.50
   1   9  -4  118.09    9.00
  -1  -9   4  122.29    9.80
  -1  -9   4  134.99   10.00
   0   9  -4   36.70    4.80
   0   9  -4   28.00    7.30
   0   9  -4   40.40    5.30
   0  -9   4   35.10    5.90
   0  -9   4   42.00    5.70
  -1   9  -4   16.00    4.00
  -1   9  -4   14.20    5.10
  -1   9  -4   11.20    4.30
   1  -9   4   18.40    5.30
   1  -9   4   10.30    4.50
  -2   9  -4   65.49    6.80
  -2   9  -4   75.19    6.90
   2  -9   4   72.49    8.20
   2  -9   4   66.79    9.30
  -3   9  -4   33.20    4.70
  -3   9  -4   34.90    6.20
  -3   9  -4   29.80    6.20
  -4   9  -4  -13.10    6.70
  -5   9  -4   58.59   10.70
   4   8  -4  223.78   10.50
   4   8  -4  225.08   13.10
   3   8  -4    6.80    2.90
   3   8  -4    6.60    4.10
   2   8  -4    7.40    3.00
   2   8  -4    6.10    2.10
   2   8  -4   13.30    5.20
   1   8  -4  228.38    9.20
   1   8  -4  228.48   10.80
   1   8  -4  226.78   11.50
  -1  -8   4  227.08   11.70
  -1  -8   4  228.38   11.30
   0   8  -4  129.69    8.80
   0   8  -4  125.29    8.00
   0   8  -4  143.89    7.80
   0  -8   4  131.79    8.20
   0  -8   4  132.19    9.10
  -1   8  -4  132.79    8.80
  -1   8  -4  128.69   10.10
  -1   8  -4  142.79    7.90
   1  -8   4  146.09    8.40
   1  -8   4  139.49    9.50
  -2   8  -4    5.20    4.00
  -2   8  -4    9.80    4.50
  -2   8  -4    5.90    3.50
   2  -8   4    3.70    5.40
   2  -8   4   11.60    4.90
  -3   8  -4    1.00    4.70
  -6   8  -4   -2.00   12.50
   5   7  -4    6.10    4.20
  -5  -7   4  -10.00   14.00
   4   7  -4    6.50    3.40
   4   7  -4   -1.80    4.80
  -4  -7   4  -13.90   10.40
   3   7  -4   33.50    3.70
   2   7  -4  125.89    5.80
   2   7  -4  133.49    7.70
   2   7  -4  133.59    6.90
   1   7  -4   13.10    3.80
   1   7  -4   11.70    3.30
   1   7  -4   11.30    2.20
  -1  -7   4   16.20    3.80
   0   7  -4  723.83   27.10
   0   7  -4  776.12   27.50
   0   7  -4  771.72   26.90
   0  -7   4  748.03   27.40
   0  -7   4  744.23   27.10
  -1   7  -4   35.70    4.30
  -1   7  -4   25.90    4.10
  -1   7  -4   34.40    4.80
   1  -7   4   34.70    4.00
  -2   7  -4   92.89    6.00
  -2   7  -4  102.29    7.20
   6  -7   4   20.40    3.80
   5   6  -4   24.90    4.80
  -5  -6   4   22.80   12.20
   4   6  -4    8.40    3.40
   4   6  -4    7.80    4.70
  -4  -6   4    0.50    8.30
   3   6  -4  152.08    6.90
   3   6  -4  149.59    8.20
   2   6  -4   30.70    4.00
   2   6  -4   26.70    2.70
   1   6  -4  151.58    7.40
  -1  -6   4  157.98    7.60
  -1  -6   4  144.49    8.00
   0   6  -4  521.45   19.20
   0   6  -4  500.35   19.10
   0   6  -4  526.85   18.80
   0  -6   4  520.25   19.30
   0  -6   4  512.25   18.90
  -1   6  -4  173.18    8.40
  -1   6  -4  192.18    8.00
   1  -6   4  183.48    8.80
   1  -6   4  177.68    8.10
   3  -6   4  162.48    9.20
   5  -6   4   60.79    4.60
   6  -6   4  167.58    8.20
   5   5  -4    9.20    3.80
  -5  -5   4    0.50   10.10
   4   5  -4   19.20    3.40
  -4  -5   4   24.70    8.00
   3   5  -4   10.30    2.10
   3   5  -4    7.90    2.70
   2   5  -4    3.30    1.40
   2   5  -4    1.90    1.90
   1   5  -4  350.86   12.10
   1   5  -4  320.57   12.30
   1   5  -4  284.07   12.10
  -1  -5   4  319.97   12.50
  -1  -5   4  298.67   12.10
   0   5  -4    5.90    2.30
   0   5  -4   -0.50    1.90
   0   5  -4   -0.60    1.80
   0  -5   4    2.50    2.10
   0  -5   4   -0.50    2.40
  -1   5  -4  134.69    6.70
  -1   5  -4  140.39    6.20
   1  -5   4  136.09    6.20
   1  -5   4  131.29    7.00
  -2   5  -4  137.79    6.40
   2  -5   4  144.79    7.30
   4  -5   4  558.74   19.80
   5  -5   4   15.40    2.90
   6  -5   4   86.19    6.00
   5   4  -4   19.70    3.80
  -5  -4   4    8.40    9.80
   4   4  -4  842.52   28.00
  -4  -4   4  708.83   38.90
   3   4  -4  615.64   21.90
  -3  -4   4  622.44   25.10
   2   4  -4  261.07    9.40
   2   4  -4  267.67    9.90
  -2  -4   4  235.58    9.70
   1   4  -4  243.78    9.20
  -1  -4   4  233.68    9.70
  -1  -4   4  232.98    9.30
   0   4  -4   22.20    2.60
   0   4  -4   23.30    2.20
   0  -4   4   22.00    2.70
   0  -4   4   23.30    2.80
  -1   4  -4  214.58    8.90
   1  -4   4  224.98    8.50
  -2   4  -4  918.11   34.30
   2  -4   4 1090.19   35.50
   3  -4   4   36.10    2.70
   3  -4   4   40.60    5.50
   4  -4   4  406.56   14.70
   4  -4   4  399.26   17.50
   5  -4   4   65.09    4.70
   6  -4   4   29.20    4.00
   6   3  -4   -1.20    3.70
  -6  -3   4   15.10   13.60
   5   3  -4    1.30    2.80
  -5  -3   4   14.10    8.30
   4   3  -4    1.00    2.30
  -4  -3   4   -6.10    6.00
   3   3  -4   42.60    3.30
  -3  -3   4   44.00    6.20
   2   3  -4 1118.39   37.80
  -2  -3   4 1120.19   38.00
  -2  -3   4 1086.69   39.80
   1   3  -4  422.36   15.40
  -1  -3   4  430.56   15.50
   0   3  -4   90.99    4.80
   0  -3   4   91.59    4.20
  -2   3  -4   64.89    3.80
   2  -3   4   71.49    4.80
  -3   3  -4   11.10    2.90
   3  -3   4    6.40    1.60
   3  -3   4    6.80    3.60
   4  -3   4   27.80    5.30
  -5   3  -4    3.30    5.30
   5  -3   4    0.90    2.60
  -6   3  -4  179.88   16.20
   6  -3   4  232.48    9.90
   6   2  -4   32.30    4.40
  -6  -2   4   29.40   12.70
   5   2  -4   41.60    4.60
  -5  -2   4   74.09   12.50
   4   2  -4    9.70    2.60
  -4  -2   4   11.30    5.60
  -2  -2   4 1362.46   45.30
  -2  -2   4 1289.97   46.70
   1   2  -4  447.36   15.50
   1   2  -4  415.96   15.70
   1   2  -4  474.35   15.10
  -1  -2   4  443.26   16.50
  -1  -2   4  426.96   15.70
  -1  -2   4  419.96   15.50
   0   2  -4 1560.84   55.89
   0   2  -4 1698.63   55.79
   0  -2   4 1682.43   55.79
   0  -2   4 1664.23   55.99
   1  -2   4   29.80    3.00
  -2   2  -4   15.50    2.50
  -2   2  -4   14.70    1.90
   2  -2   4   17.70    2.70
   2  -2   4   13.60    1.80
   2  -2   4   15.90    1.70
  -3   2  -4  294.37   12.40
   3  -2   4  290.37   11.50
   3  -2   4  302.07   10.90
   3  -2   4  284.27   12.90
  -4   2  -4  234.88   11.80
   4  -2   4  243.98   12.50
   4  -2   4  220.68    9.10
  -5   2  -4   47.50    5.80
  -5   2  -4   46.00    7.30
   5  -2   4   43.00    4.60
   6  -2   4   35.80    4.50
   6   1  -4   16.80    3.90
  -6  -1   4   17.10   10.80
   5   1  -4    0.00    2.60
  -5  -1   4    2.60    7.80
   4   1  -4   35.40    3.80
  -4  -1   4   36.90    6.90
   3   1  -4   51.19    3.60
  -3  -1   4   58.79    6.40
   2   1  -4    7.10    1.50
  -2  -1   4    9.60    2.20
  -2  -1   4    8.20    3.00
   1   1  -4  186.28    7.60
   1   1  -4  193.78    7.40
   1   1  -4  195.48    6.90
  -1  -1   4  197.08    8.30
  -1  -1   4  185.28    7.70
  -1  -1   4  198.08    7.40
   0   1  -4  209.78    7.70
   0   1  -4  203.38    8.00
   0  -1   4  204.18    8.00
   0  -1   4  206.98    7.60
  -1   1  -4  127.69    5.50
   1  -1   4   96.99    4.40
   1  -1   4  124.09    5.70
  -2   1  -4  314.37   12.40
  -2   1  -4  306.07   11.30
   2  -1   4  322.27   10.90
   2  -1   4  305.77   11.50
   2  -1   4  310.17   12.70
   3  -1   4   85.79    7.10
  -4   1  -4   23.70    4.10
  -4   1  -4   27.50    5.20
   4  -1   4   22.90    2.60
   4  -1   4   23.40    3.80
  -5   1  -4  142.89    9.00
  -5   1  -4  142.19   11.90
   5  -1   4  137.49    6.90
  -6   1  -4   12.50   10.50
   6  -1   4    5.70    3.50
   6   0  -4   70.09    6.60
  -6   0   4   93.59   13.20
   5   0  -4  118.59    6.70
  -5   0   4  126.39   13.00
   4   0  -4  134.89    6.40
   3   0  -4  166.98    6.80
  -3   0   4  157.88    9.00
   2   0  -4  324.77   12.60
   2   0  -4  345.97   14.30
  -2   0   4  390.06   14.20
   1   0  -4  511.35   19.30
   1   0  -4  547.85   18.60
   1   0  -4  514.55   18.70
   1   0  -4  536.85   18.20
  -1   0   4  533.05   18.60
  -1   0   4  543.75   18.80
  -1   0   4  531.05   19.20
   0   0  -4  420.96   15.30
   0   0   4  439.56   15.30
   0   0   4  423.76   15.00
   0   0   4  433.26   15.30
  -1   0  -4  109.19    5.60
   1   0   4  117.89    4.50
   1   0   4  120.79    5.90
  -2   0  -4  315.07   12.60
   2   0   4  305.77   11.30
   2   0   4  302.77   10.70
   2   0   4  297.97   12.60
  -3   0  -4  106.49    6.10
  -3   0  -4  108.29    7.10
   3   0   4  110.29    4.90
   3   0   4  107.79    5.60
  -4   0  -4   98.19    6.70
  -4   0  -4   92.09    8.50
   4   0   4   93.69    5.00
   4   0   4   91.49    6.70
  -5   0  -4  174.08   13.80
  -5   0  -4  176.98   10.20
   5   0   4  188.98   10.50
   5   0   4  175.68    8.30
   6   0   4    0.40    3.60
   6  -1  -4    5.10    3.80
  -6   1   4   -5.70    9.60
   5  -1  -4   11.60    2.90
   4  -1  -4  164.28    7.20
  -4   1   4  153.98   10.60
   3  -1  -4   73.59    4.30
   3  -1  -4   80.29    7.10
  -3   1   4   78.29    6.50
   2  -1  -4  361.56   12.60
   2  -1  -4  352.86   14.20
  -2   1   4  343.77   13.90
   1  -1  -4   42.20    2.20
   1  -1  -4   33.30    3.00
   1  -1  -4   37.30    3.10
   1  -1  -4   36.50    3.30
  -1   1   4   41.60    3.30
   0  -1  -4  981.20   32.50
   0  -1  -4  977.10   32.40
   0  -1  -4  893.41   32.60
   0  -1  -4  921.11   32.60
   0   1   4  947.61   32.80
   0   1   4  967.50   32.60
  -1  -1  -4  350.16   13.80
  -1  -1  -4  368.96   13.30
   1   1   4  348.47   13.90
  -2  -1  -4  424.16   17.90
  -2  -1  -4  495.85   17.20
   2   1   4  479.35   16.70
  -3  -1  -4    5.90    2.70
  -3  -1  -4    1.30    3.20
   3   1   4    4.90    2.10
   3   1   4    2.70    1.70
  -4  -1  -4   21.10    6.00
  -4  -1  -4   28.30    4.40
   4   1   4   20.60    3.60
   4   1   4   23.70    3.20
  -5  -1  -4   13.90    7.90
  -5  -1  -4   34.40    5.50
   5   1   4   30.30    3.70
   5   1   4   19.50    4.80
   6   1   4  137.49    8.20
   6  -2  -4   10.10    3.50
  -6   2   4   10.80    9.00
   5  -2  -4    8.70    3.10
   4  -2  -4   56.79    9.30
   4  -2  -4   53.89    4.30
  -4   2   4   54.19    6.80
   3  -2  -4  426.06   14.90
   3  -2  -4  395.96   17.00
  -3   2   4  408.26   16.40
   2  -2  -4  328.97   11.70
   2  -2  -4  302.77   13.00
  -2   2   4  334.67   12.10
   1  -2  -4  102.59    5.10
   1  -2  -4   96.59    5.20
   1  -2  -4   98.49    5.00
   1  -2  -4  104.79    4.10
  -1   2   4   90.09    4.80
  -1   2   4  101.29    5.30
   0   2   4 1056.29   36.40
  -1  -2  -4   15.60    2.10
  -1  -2  -4   11.80    2.90
   1   2   4   16.20    2.20
  -2  -2  -4   20.00    2.70
  -2  -2  -4   22.10    4.00
   2   2   4   19.10    2.50
  -3  -2  -4  165.78    9.90
  -3  -2  -4  178.28    8.40
   3   2   4  169.78    7.00
   3   2   4  163.48    7.70
  -4  -2  -4    5.00    4.00
  -4  -2  -4    4.30    5.70
   4   2   4   10.80    2.70
   4   2   4    7.50    3.50
  -5  -2  -4   41.80    9.40
  -5  -2  -4   57.79    6.80
   5   2   4   44.20    6.10
   5   2   4   52.69    4.80
   6   2   4   48.10    7.60
   6   2   4   51.49    5.40
   6  -3  -4   26.40    4.40
   5  -3  -4  120.19    6.60
   4  -3  -4   20.60    6.90
   4  -3  -4   10.90    3.00
   3  -3  -4  808.52   27.60
   3  -3  -4  777.12   29.40
   2  -3  -4   47.10    4.60
   2  -3  -4   32.80    3.90
   2  -3  -4   39.60    4.30
   2  -3  -4   35.70    2.90
  -2   3   4   39.30    4.30
  -2   3   4   42.50    4.10
   1  -3  -4 1346.37   46.90
   1  -3  -4 1437.36   46.80
   1  -3  -4 1355.56   46.60
  -1   3   4 1388.26   46.50
  -1   3   4 1318.87   46.60
  -1   3   4 1341.97   46.90
   0  -3  -4    3.80    2.40
   0  -3  -4    6.40    1.90
   0  -3  -4    3.00    2.00
   0   3   4    2.60    2.40
   0   3   4    5.30    1.80
   0   3   4    2.70    1.80
  -1  -3  -4   56.09    5.10
  -1  -3  -4   55.19    4.00
   1   3   4   55.39    4.00
  -2  -3  -4  649.83   23.20
  -2  -3  -4  651.93   24.50
   2   3   4  618.64   22.60
  -3  -3  -4   34.90    5.30
  -3  -3  -4   39.40    5.70
   3   3   4   46.60    4.40
  -4  -3  -4   72.79   10.50
  -4  -3  -4   59.89    7.50
   4   3   4   68.19    6.60
   4   3   4   74.59    5.20
  -5  -3  -4  -18.80    9.20
  -5  -3  -4    1.00    6.20
   5   3   4    1.50    3.70
   5   3   4   -0.50    4.50
   6  -4  -4   24.50    4.10
   5  -4  -4   91.19    6.00
   4  -4  -4  241.28    9.90
   4  -4  -4  244.88   13.90
   3  -4  -4  227.08   11.00
   3  -4  -4  219.88    8.80
   2  -4  -4  111.09    4.60
   2  -4  -4  109.09    5.70
   2  -4  -4   97.89    6.10
   2  -4  -4  104.39    6.20
   2  -4  -4  103.49    6.50
  -2   4   4  102.99    6.10
  -2   4   4  110.29    6.40
   1  -4  -4  505.65   18.70
   1  -4  -4  499.35   18.40
   1  -4  -4  490.35   18.20
   1  -4  -4  505.25   17.20
  -1   4   4  513.75   18.10
  -1   4   4  508.05   18.60
  -1   4   4  501.65   18.30
   0  -4  -4  154.78    7.30
   0  -4  -4  147.89    6.90
   0  -4  -4  149.19    6.90
   0   4   4  142.69    6.70
   0   4   4  159.28    7.20
  -1  -4  -4   38.90    3.90
  -1  -4  -4   39.10    4.80
   1   4   4   39.20    4.30
  -2  -4  -4  292.67   13.80
  -2  -4  -4  307.07   12.30
   2   4   4  299.57   11.50
   2   4   4  283.57   12.10
  -3  -4  -4   61.29    6.40
   3   4   4   61.99    5.50
  -4  -4  -4   67.99    9.40
  -4  -4  -4   64.59    8.20
   4   4   4   57.69    6.60
   4   4   4   67.59    5.40
  -5  -4  -4   28.00    7.40
   5   4   4   29.00    5.70
   5   4   4   23.50    4.80
   6  -5  -4   -6.00   15.80
   6  -5  -4    3.60    3.50
   5  -5  -4   36.40   11.00
   5  -5  -4   23.00    3.60
   4  -5  -4  110.99   10.60
   4  -5  -4  122.29    6.20
   3  -5  -4   18.40    2.50
   2  -5  -4  221.48   10.30
   2  -5  -4  228.48    8.50
   2  -5  -4  232.68    9.90
   2  -5  -4  233.08   10.30
  -2   5   4  226.58    9.50
  -2   5   4  235.08   10.30
  -2   5   4  220.98   10.00
   1  -5  -4  233.58   10.40
   1  -5  -4  258.07   10.30
   1  -5  -4  228.38    9.80
  -1   5   4  237.28   10.00
  -1   5   4  234.98    9.70
  -1   5   4  225.68   10.20
   0  -5  -4   -1.00    2.40
   0  -5  -4    2.00    2.20
   0   5   4   -0.80    2.30
  -1  -5  -4  175.88    9.30
  -1  -5  -4  153.58    8.00
   1   5   4  167.28    8.00
  -2  -5  -4   23.60    4.10
  -2  -5  -4   13.50    5.10
   2   5   4   27.00    4.00
   2   5   4   23.30    3.40
  -3  -5  -4   86.89    7.90
   3   5   4   84.99    6.50
  -4  -5  -4  238.78   13.60
  -4  -5  -4  253.57   17.00
   4   5   4  259.67   12.50
   4   5   4  259.17   10.70
  -5  -5  -4  -11.20    7.80
   5   5   4    7.00    4.50
   5   5   4   12.10    5.20
   6  -6  -4    2.00    3.30
   5  -6  -4   -3.60    2.90
   5  -6  -4   -5.60   10.90
   4  -6  -4  179.78   12.90
   4  -6  -4  189.18    8.20
   3  -6  -4  328.17   15.10
   3  -6  -4  344.87   14.30
   3  -6  -4  331.17   12.40
  -3   6   4  317.87   14.10
  -3   6   4  350.36   14.30
   2  -6  -4  678.03   24.60
   2  -6  -4  608.84   22.50
   2  -6  -4  691.43   24.30
   2  -6  -4  606.54   24.00
  -2   6   4  665.63   23.80
  -2   6   4  697.83   24.20
  -2   6   4  638.64   24.40
   1  -6  -4   -0.10    3.40
   1  -6  -4   -1.80    3.20
   1  -6  -4    2.50    2.60
  -1   6   4    0.40    3.40
  -1   6   4   -1.20    2.50
  -1   6   4   -0.20    3.30
   0  -6  -4  705.43   26.10
   0  -6  -4  712.83   25.70
   0  -6  -4  710.03   25.80
   0   6   4  711.03   25.90
   0   6   4  710.33   25.70
   0   6   4  709.03   25.60
  -1  -6  -4  398.16   15.90
  -1  -6  -4  413.76   17.30
   1   6   4  387.16   15.80
  -2  -6  -4  100.99   10.10
  -2  -6  -4  116.09    8.00
   2   6   4  112.29    8.30
   2   6   4  120.89    6.60
  -3  -6  -4   25.60    7.60
   3   6   4   25.10    4.30
  -4  -6  -4  154.78   12.10
   4   6   4  160.98   10.40
   4   6   4  169.48    8.50
   6  -7  -4  150.98    8.30
   5  -7  -4    3.20    3.20
   5  -7  -4   -6.40   11.80
   3  -7  -4  454.75   18.30
   3  -7  -4  448.26   15.90
   3  -7  -4  444.76   18.40
   3  -7  -4  420.26   18.90
  -3   7   4  417.16   18.00
  -3   7   4  452.65   18.20
  -3   7   4  446.96   17.30
   2  -7  -4  897.41   32.30
   2  -7  -4  897.31   32.10
   2  -7  -4  863.91   32.00
  -2   7   4  861.71   31.90
  -2   7   4  905.41   32.20
  -2   7   4  861.51   31.60
   1  -7  -4  159.48    9.60
   1  -7  -4  170.48    8.90
   1  -7  -4  155.88    9.30
  -1   7   4  152.68    9.10
  -1   7   4  149.88    8.90
   0  -7  -4   20.20    3.70
   0  -7  -4   16.00    4.90
   0  -7  -4   10.60    4.00
   0   7   4    9.60    3.50
   0   7   4   22.10    4.40
  -1  -7  -4  623.64   23.50
   1   7   4  608.24   23.30
  -2  -7  -4   37.30    5.40
   2   7   4   27.90    3.80
  -3  -7  -4  182.78   15.40
  -3  -7  -4  190.28   11.90
   3   7   4  186.18   10.20
   3   7   4  179.58   12.30
  -4  -7  -4    8.90    7.70
   4   7   4   18.40    5.60
   6  -8  -4    9.60    3.90
   5  -8  -4    3.90   12.40
   5  -8  -4    3.90    3.30
   4  -8  -4  152.08    6.90
   4  -8  -4  135.59   14.20
  -4   8   4  127.19   11.80
   3  -8  -4  109.09   10.40
   3  -8  -4  104.99   10.30
  -3   8   4  105.99   10.00
  -3   8   4  118.69    9.40
  -3   8   4  119.39    8.80
   2  -8  -4   73.39    8.40
   2  -8  -4   81.79    7.60
  -2   8   4   55.09    7.40
  -2   8   4   80.59    8.30
  -2   8   4   79.29    8.00
   1  -8  -4  121.29    9.20
   1  -8  -4  143.69    8.90
   1  -8  -4  129.49    9.90
  -1   8   4  126.19    8.10
  -1   8   4  130.49    9.00
   0  -8  -4  146.69    8.90
   0  -8  -4  127.69   10.20
   0  -8  -4  123.19    9.10
   0   8   4  124.99    8.80
   0   8   4  123.79    9.00
  -1  -8  -4   11.00    6.00
  -1  -8  -4    9.00    6.30
  -2  -8  -4  120.59    9.60
  -2  -8  -4  129.79   13.80
   2   8   4   81.39   10.70
   2   8   4   94.89    7.30
  -3  -8  -4   15.20    6.80
   3   8   4    0.90    4.00
   3   8   4   13.90    8.10
  -4  -8  -4    4.70    9.30
   4   8   4   -7.80    5.50
   5  -9  -4  114.09    6.80
   4  -9  -4    7.30    8.80
   4  -9  -4   30.30   10.60
  -4   9   4   31.10    7.50
  -4   9   4   12.90    7.80
  -4   9   4   15.70    6.60
   3  -9  -4   81.09   11.30
   3  -9  -4   78.19   11.10
  -3   9   4   85.39   10.80
  -3   9   4   72.19    9.40
  -3   9   4   68.69    9.30
   2  -9  -4   82.19   10.40
   2  -9  -4   81.19    9.80
   2  -9  -4   85.29    8.80
  -2   9   4   85.79    9.20
  -2   9   4   60.59    8.70
  -2   9   4   69.69   11.10
   1  -9  -4  255.87   13.60
   1  -9  -4  250.77   13.50
   1  -9  -4  240.18   14.20
  -1   9   4  266.67   13.40
  -1   9   4  261.77   12.60
  -1   9   4  254.77   13.20
   0  -9  -4    8.50    4.80
   0  -9  -4    1.80    6.60
   0  -9  -4    3.20    5.30
   0   9   4    0.60    5.30
   0   9   4   -0.90    5.20
  -1  -9  -4   22.40    5.90
  -1  -9  -4    6.00    7.50
   1   9   4   13.80    5.70
  -2  -9  -4   42.70   10.80
  -2  -9  -4   20.20    7.10
   2   9   4   18.00    8.30
   2   9   4   12.90    4.30
  -3  -9  -4    6.20    8.60
   3   9   4    8.60    4.80
   4 -10  -4   18.00   11.10
   4 -10  -4   17.10   12.10
   4 -10  -4    9.30   10.30
  -4  10   4   14.70    7.80
  -4  10   4   -1.90    9.90
  -4  10   4   18.30    9.10
   3 -10  -4  251.27   17.20
   3 -10  -4  274.07   17.10
  -3  10   4  253.17   15.10
  -3  10   4  244.78   17.20
  -3  10   4  263.07   15.10
   2 -10  -4  491.55   22.20
   2 -10  -4  500.05   21.30
   2 -10  -4  461.45   21.80
  -2  10   4  480.35   21.70
  -2  10   4  472.35   20.70
  -2  10   4  485.85   21.00
   1 -10  -4   47.60    7.20
   1 -10  -4   40.50    7.60
  -1  10   4   51.49    7.70
  -1  10   4   44.20    7.20
  -1  10   4   41.00    6.50
   0 -10  -4    5.20    6.50
   0 -10  -4   11.90    8.60
   0 -10  -4   17.50    6.50
   0  10   4   10.70    6.60
   0  10   4    9.60    6.50
   0  10   4   11.50    6.90
  -1 -10  -4   49.70    7.80
  -1 -10  -4   35.10    9.90
   1  10   4   25.90    7.40
  -2 -10  -4  102.59   13.90
   2  10   4   61.09    8.10
  -4  11   4  107.89   12.80
  -4  11   4   97.99   13.80
  -4  11   4   76.99   13.50
   3 -11  -4  127.99   17.10
   3 -11  -4   97.29   12.40
  -3  11   4  102.59   12.30
  -3  11   4   97.59   10.60
  -3  11   4  111.39   14.70
   2 -11  -4   20.60   10.20
   2 -11  -4    8.10    9.10
   2 -11  -4   23.30    8.00
  -2  11   4   14.80    9.20
  -2  11   4    4.90    7.90
  -2  11   4   12.50    7.90
   1 -11  -4   12.10   10.20
   1 -11  -4   28.80    8.80
   1 -11  -4   33.10    7.40
  -1  11   4   22.30    9.10
  -1  11   4   19.20    7.20
  -1  11   4   14.70    8.00
   0 -11  -4  122.79   13.00
   0 -11  -4  106.79   13.30
   0 -11  -4  119.59   12.40
   0  11   4  100.09   11.00
   0  11   4  111.69   13.00
  -1 -11  -4   -7.60   12.20
  -1 -11  -4   18.00    8.70
  -1 -11  -4    9.60    8.20
   1  11   4   12.90    4.10
  -2 -11  -4   28.00   11.60
   2  11   4   44.30    6.50
   3 -12  -4   60.89   12.90
  -3  12   4   58.79   13.80
  -3  12   4   56.99   10.60
   2 -12  -4   24.10    9.60
   2 -12  -4   -4.00   10.60
   2 -12  -4    7.90   12.70
  -2  12   4   -1.70   11.60
  -2  12   4   -4.40   10.40
   1 -12  -4   12.50   10.00
   1 -12  -4   -7.00   12.60
   1 -12  -4    9.20    8.40
  -1  12   4    7.70   12.50
  -1  12   4   -6.10    9.20
   0 -12  -4  103.69   13.50
   0 -12  -4   83.39   15.90
   0 -12  -4   83.09   11.60
   0  12   4   88.19   11.60
  -1 -12  -4   28.20   11.00
   1  12   4   24.30    5.50
   2 -13  -4   48.00   14.50
   2 -13  -4   76.99   13.60
   2 -13  -4   34.00   17.30
  -2  13   4   22.40   12.40
   1 -13  -4   55.39   13.40
   1 -13  -4   57.49   17.60
   1 -13  -4   63.49   12.60
  -1  13   4   70.09   13.50
  -1  14  -5   65.29   11.40
   1 -14   5   63.79   14.50
   1 -14   5   75.29   17.30
  -2  14  -5   -4.00   15.50
  -2  14  -5   29.10   10.00
   2 -14   5   13.10   14.90
   1  13  -5  -18.20    9.50
  -1 -13   5  -14.60   15.10
  -1 -13   5   -9.80   11.40
   0  13  -5   27.60    9.40
   0 -13   5   25.00   13.70
   0 -13   5   35.20   11.40
  -1  13  -5   76.69   12.90
  -1  13  -5   54.29   12.10
   1 -13   5   67.39   12.20
   1 -13   5   66.49   13.40
  -2  13  -5   -2.50   11.90
  -2  13  -5   14.30    7.80
   2 -13   5   14.40   12.90
   2 -13   5   -6.00   11.90
  -3  13  -5   85.09   10.00
  -3  13  -5   45.00   13.50
   3 -13   5   74.79   14.40
   2  12  -5   59.89    7.90
   2  12  -5   31.70   11.50
   2  12  -5   64.59    5.50
   1  12  -5   53.29   10.60
   1  12  -5   18.60    8.30
  -1 -12   5   38.20   14.80
  -1 -12   5   38.80   10.00
   0  12  -5   51.89    9.30
   0  12  -5   84.99   11.70
   0  12  -5   70.29   10.90
   0 -12   5   71.09   11.50
   0 -12   5   65.19   10.10
  -1  12  -5   19.90    7.10
  -1  12  -5    8.20    7.90
  -1  12  -5    9.10    9.10
   1 -12   5   14.30    9.70
   1 -12   5   -3.10    8.80
  -2  12  -5   19.80    6.60
  -2  12  -5   10.90    9.70
  -2  12  -5    1.10    8.20
   2 -12   5    9.40    9.30
   2 -12   5   -7.50    9.60
  -3  12  -5   48.80   11.30
  -3  12  -5   57.49    7.70
   3 -12   5   56.99   12.80
   3 -12   5   49.20   11.80
  -4  12  -5   28.80    8.20
   3  11  -5   52.49    8.40
   3  11  -5   46.60    5.70
   2  11  -5   18.20    8.30
   2  11  -5    0.50    5.50
   2  11  -5    2.70    2.90
   1  11  -5   96.29   12.40
   1  11  -5   97.89   10.40
  -1 -11   5   98.49   10.40
  -1 -11   5   93.69   12.70
   0  11  -5  136.99   11.00
   0  11  -5  111.99   13.10
   0  11  -5  148.29   11.70
   0 -11   5  128.09   14.00
   0 -11   5  158.18   13.60
  -1  11  -5   18.40    7.60
  -1  11  -5   -0.80    6.20
  -1  11  -5   15.30    5.60
   1 -11   5    7.70    7.50
   1 -11   5   16.10    7.50
  -2  11  -5   -1.30    7.20
  -2  11  -5   10.30   11.80
  -2  11  -5    6.10    8.30
   2 -11   5   -5.80    7.50
   2 -11   5    2.80    7.40
  -3  11  -5   16.40    7.80
  -3  11  -5   13.70    8.40
  -3  11  -5   14.80    6.10
   3 -11   5   20.40    8.90
  -4  11  -5   63.69    7.30
   3  10  -5   51.69    7.00
   3  10  -5   44.80    4.90
   2  10  -5   26.50    5.70
   2  10  -5   16.80    3.10
  -2 -10   5   15.70    7.20
   1  10  -5   85.69   11.20
   1  10  -5   59.99    6.70
  -1 -10   5   72.89    8.30
   0  10  -5    6.70    6.20
   0  10  -5    5.60    4.80
   0 -10   5    2.70    6.10
   0 -10   5    7.80    6.10
  -1  10  -5  143.19   18.00
  -1  10  -5  160.58    9.90
   1 -10   5  148.79   11.20
   1 -10   5  157.48   11.90
  -2  10  -5  177.78   12.60
  -2  10  -5  184.08   10.50
   2 -10   5  181.88   13.30
   2 -10   5  178.18   12.50
  -3  10  -5   80.69    8.60
  -3  10  -5   74.49    8.60
  -3  10  -5   65.19    8.60
   3 -10   5  109.69   12.70
   3 -10   5   70.89    7.90
  -4  10  -5   51.09    6.10
  -4  10  -5   22.70    9.30
   4   9  -5   11.10    7.20
   4   9  -5   13.70    3.80
   3   9  -5    1.70    5.20
   3   9  -5    6.60    3.20
   2   9  -5   24.90    5.80
   2   9  -5   19.40    2.90
   2   9  -5   18.00    4.20
   1   9  -5   22.00    4.70
   1   9  -5   26.40    5.50
   1   9  -5   26.50    5.90
  -1  -9   5   26.10    6.00
  -1  -9   5   29.00    6.20
   0   9  -5  480.75   18.60
   0   9  -5  475.65   19.20
   0   9  -5  435.26   19.50
   0  -9   5  469.85   19.10
   0  -9   5  479.95   19.90
  -1   9  -5  452.65   19.40
  -1   9  -5  478.95   19.40
  -1   9  -5  479.05   18.50
   1  -9   5  476.95   19.80
   1  -9   5  470.05   23.20
  -2   9  -5   47.70    6.60
  -2   9  -5   46.10    6.50
   2  -9   5   42.70    5.90
   2  -9   5   48.30    6.80
  -3   9  -5   -0.60    5.20
   3  -9   5   -6.90    5.80
  -4   9  -5  111.09   12.40
  -5   9  -5  -24.70    9.90
   4   8  -5   28.00    4.20
  -4  -8   5   12.80   12.00
   3   8  -5   40.80    4.40
   3   8  -5   46.00    5.60
   2   8  -5  221.38   10.00
   2   8  -5  204.18    8.80
   2   8  -5  230.38   11.20
   1   8  -5   -0.20    3.80
   1   8  -5    0.30    3.60
   1   8  -5    3.60    4.70
  -1  -8   5   -2.00    4.20
  -1  -8   5    2.10    4.70
   0   8  -5   96.79    7.90
   0   8  -5   84.99    6.50
   0  -8   5   63.99    7.20
  -1   8  -5   24.70    4.70
  -1   8  -5   35.00    4.30
  -1   8  -5   29.80    4.70
   1  -8   5   31.80    4.50
   1  -8   5   30.30    5.20
  -2   8  -5  166.18    8.40
  -2   8  -5  134.19    9.20
  -2   8  -5  156.68    9.80
   2  -8   5  150.68    9.10
   2  -8   5  172.58   10.50
   3  -8   5  370.26   16.50
   5   7  -5    5.20    4.00
  -5  -7   5   -0.50   12.90
   4   7  -5  104.19    6.70
  -4  -7   5  107.49   15.90
   3   7  -5   44.60    5.00
   3   7  -5   34.10    3.90
   2   7  -5   19.30    3.10
   2   7  -5   17.10    2.30
   1   7  -5    5.80    4.20
   1   7  -5   10.10    3.30
   1   7  -5    5.70    3.30
  -1  -7   5    1.90    3.90
  -1  -7   5    7.60    4.00
   0   7  -5  520.25   19.50
   0   7  -5  488.95   19.30
   0   7  -5  505.65   18.80
   0  -7   5  503.75   19.00
   0  -7   5  500.75   19.50
  -1   7  -5   20.80    3.40
  -1   7  -5   13.30    3.70
  -1   7  -5   15.40    3.90
   1  -7   5   15.70    4.10
   1  -7   5   13.30    3.40
   3  -7   5  484.85   19.70
   5   6  -5   17.90    4.60
  -5  -6   5    0.50   12.70
   4   6  -5   27.40    4.00
  -4  -6   5   31.30    9.50
   3   6  -5  163.48    8.60
   3   6  -5  151.98    7.00
   2   6  -5   42.60    3.20
   2   6  -5   46.90    4.50
   1   6  -5   30.30    3.90
   1   6  -5   42.50    5.30
   1   6  -5   34.00    3.60
  -1  -6   5   30.40    3.80
  -1  -6   5   30.10    4.20
   0   6  -5  276.97   11.70
   0   6  -5  282.97   11.80
   0   6  -5  273.77   11.20
   0  -6   5  278.87   11.40
   0  -6   5  294.17   12.20
  -1   6  -5   45.40    5.50
  -1   6  -5   49.60    4.60
   1  -6   5   58.89    6.40
   1  -6   5   56.19    4.80
   3  -6   5   70.99    6.90
   4  -6   5   87.79    9.60
   6  -6   5   18.30    3.40
   5   5  -5   46.30    5.00
  -5  -5   5   41.00   12.50
   4   5  -5   51.39    4.90
  -4  -5   5   57.69   10.10
   3   5  -5  551.34   20.20
  -3  -5   5  577.34   24.20
   2   5  -5    6.90    1.70
   2   5  -5    9.60    2.50
  -2  -5   5    6.50    2.80
   1   5  -5   33.50    4.70
   1   5  -5   35.90    4.20
   1   5  -5   36.20    4.10
  -1  -5   5   34.70    4.10
  -1  -5   5   39.60    5.20
   0   5  -5  273.97   11.00
   0   5  -5  289.97   11.50
   0  -5   5  289.67   11.60
   0  -5   5  278.77   11.10
  -1   5  -5 2782.12   96.59
   1  -5   5 2928.91   96.49
   2  -5   5 1369.46   47.90
   3  -5   5    3.00    3.60
   4  -5   5    0.60    5.50
   5  -5   5    5.20    2.80
   6  -5   5   24.10    3.80
   5   4  -5  166.18    8.80
  -5  -4   5  170.38   17.30
   4   4  -5   13.00    3.00
  -4  -4   5    9.10    7.20
   3   4  -5  100.69    5.00
  -3  -4   5   93.19    9.70
   2   4  -5    3.60    1.30
  -2  -4   5    4.10    4.10
  -2  -4   5   -1.80    2.40
   1   4  -5  393.06   15.00
   1   4  -5  404.86   14.80
   1   4  -5  397.56   14.60
  -1  -4   5  403.16   14.70
  -1  -4   5  397.66   15.10
   0   4  -5   26.80    3.30
   0   4  -5   28.70    3.10
   0  -4   5   25.60    3.20
   0  -4   5   24.80    2.50
  -1   4  -5   23.50    3.00
  -1   4  -5   24.80    2.50
   1  -4   5   23.30    3.00
  -2   4  -5  848.22   29.80
   2  -4   5  894.11   31.30
   3  -4   5   98.09    7.40
   4  -4   5  541.15   19.30
   4  -4   5  551.94   22.60
   5  -4   5   22.20    8.80
   5  -4   5   26.10    3.20
   6  -4   5   86.89    6.20
   6   3  -5   22.40    4.20
  -6  -3   5   25.50   14.00
   5   3  -5   46.30    5.00
   4   3  -5   86.79    5.30
  -4  -3   5   86.89   10.80
   3   3  -5  144.69    6.60
  -3  -3   5  163.68   10.60
   2   3  -5  883.91   30.30
  -2  -3   5  867.21   32.50
  -2  -3   5  893.21   30.50
   1   3  -5  394.86   14.70
   1   3  -5  399.26   15.00
  -1  -3   5  388.46   15.90
  -1  -3   5  420.66   14.70
  -1  -3   5  423.56   15.20
   0   3  -5   37.60    3.00
   0   3  -5   33.40    4.10
   0  -3   5   38.40    3.00
   0  -3   5   35.30    4.00
   1  -3   5  611.14   22.10
  -2   3  -5   90.69    4.40
   2  -3   5   88.49    5.70
   3  -3   5  430.46   18.20
   3  -3   5  465.65   15.80
  -4   3  -5   24.90    4.70
   4  -3   5   17.60    2.40
   4  -3   5   22.10    5.50
  -5   3  -5  134.89   11.30
   5  -3   5  117.79    6.30
  -6   3  -5  115.19   15.80
  -6   3  -5   93.99   11.00
   6  -3   5  106.09    6.50
   6   2  -5    4.30    3.70
  -6  -2   5    9.50   12.40
   5   2  -5    3.40    3.10
  -5  -2   5    9.20    8.60
   4   2  -5   44.20    4.30
  -4  -2   5   62.69    9.40
   3   2  -5    4.90    2.00
  -3  -2   5    9.70    4.70
   2   2  -5  227.78    8.40
  -2  -2   5  221.38    9.10
  -2  -2   5  221.58   10.90
   1   2  -5  474.15   16.40
   1   2  -5  489.85   17.20
   1   2  -5  453.55   16.90
  -1  -2   5  452.05   18.00
  -1  -2   5  499.05   16.90
  -1  -2   5  486.45   17.30
   0   2  -5  647.74   23.40
   0   2  -5  690.23   23.20
   0  -2   5  660.73   23.10
   0  -2   5  672.73   23.50
   1  -2   5  383.56   14.50
  -2   2  -5  238.28    9.00
  -2   2  -5  246.08   10.20
   2  -2   5  241.78    9.20
   2  -2   5  239.88   10.50
  -3   2  -5   12.70    3.40
   3  -2   5   13.20    2.00
   3  -2   5   11.40    4.30
   3  -2   5   14.50    2.50
  -4   2  -5   54.79    6.40
   4  -2   5   57.79    7.50
   4  -2   5   50.79    3.90
  -5   2  -5    9.50    6.50
  -5   2  -5   17.80    5.10
   5  -2   5   14.10    3.30
  -6   2  -5    0.80   10.40
  -6   2  -5   -0.40    6.50
   6  -2   5    5.50    3.30
   6   1  -5    1.10    3.40
  -6  -1   5    0.00   11.70
   5   1  -5   20.20    3.40
  -5  -1   5   21.60    7.90
   4   1  -5  112.59    6.10
  -4  -1   5  134.49   10.80
   3   1  -5    1.70    1.90
  -3  -1   5    3.00    3.80
   2   1  -5  579.84   21.50
  -2  -1   5  648.14   23.20
   1   1  -5  643.34   23.10
   1   1  -5  632.54   23.70
   1   1  -5  667.13   22.80
   1   1  -5  681.03   22.30
  -1  -1   5  666.03   22.80
  -1  -1   5  634.44   23.10
   0   1  -5   54.09    3.30
   0   1  -5   56.29    4.00
   0  -1   5   54.89    3.90
   0  -1   5   50.49    3.50
   0  -1   5   55.69    3.20
  -1   1  -5  503.65   18.10
   1  -1   5  496.75   17.10
   1  -1   5  488.15   18.40
  -2   1  -5  457.25   17.40
   2  -1   5  457.25   16.30
   2  -1   5  451.55   17.70
  -3   1  -5  135.89    8.00
   3  -1   5  137.49    8.60
   3  -1   5  126.09    5.40
   3  -1   5  122.09    6.40
  -4   1  -5  105.79    9.20
  -4   1  -5   99.59    7.20
   4  -1   5  101.09    7.20
   4  -1   5  112.19    5.40
  -5   1  -5   37.40    5.70
  -5   1  -5   43.60    7.90
   5  -1   5   31.50    3.80
  -6   1  -5    5.50    6.80
   6  -1   5    5.40    3.90
   6   0  -5   53.89    5.90
  -6   0   5   30.10   10.80
   5   0  -5  198.98    9.00
  -5   0   5  193.48   15.00
   4   0  -5   21.40    3.10
  -4   0   5   15.30    5.80
   3   0  -5    1.50    1.80
   3   0  -5    1.80    4.30
  -3   0   5    0.30    3.60
   2   0  -5  137.99    5.60
   2   0  -5  134.99    7.70
  -2   0   5  130.09    7.40
   1   0  -5   42.00    2.20
   1   0  -5   29.00    3.80
   1   0  -5   35.30    3.10
   1   0  -5   35.40    3.70
  -1   0   5   35.70    3.50
  -1   0   5   41.30    3.30
  -1   0  -5  149.49    7.00
   1   0   5  147.89    7.30
   1   0   5  148.99    5.60
  -2   0  -5    4.60    2.60
  -2   0  -5    8.10    2.40
   2   0   5    5.60    1.70
   2   0   5    7.70    3.20
  -3   0  -5  257.57   13.20
  -3   0  -5  275.57   11.40
   3   0   5  271.77   10.90
   3   0   5  257.27   12.90
   3   0   5  283.77   10.00
  -4   0  -5  180.18    9.30
  -4   0  -5  174.78   11.50
   4   0   5  180.98    9.30
   4   0   5  171.88    7.40
  -5   0  -5    2.20    4.90
  -5   0  -5    9.30    7.90
   5   0   5    2.20    2.90
   5   0   5   -0.80    4.20
  -6   0  -5   18.00    7.20
   6   0   5   13.80    4.20
   6  -1  -5   20.40    4.30
  -6   1   5   26.70   10.40
   5  -1  -5   31.20    3.80
  -5   1   5   30.20    8.00
   4  -1  -5   14.00    6.10
   4  -1  -5    5.20    2.30
  -4   1   5    1.40    4.60
   3  -1  -5  402.16   17.40
   3  -1  -5  407.46   14.80
  -3   1   5  403.16   16.70
   2  -1  -5  144.29    6.90
   2  -1  -5  147.79    8.00
   2  -1  -5  161.18    6.10
  -2   1   5  144.19    7.70
   1  -1  -5   54.59    4.00
   1  -1  -5   68.19    3.10
   1  -1  -5   63.69    4.20
   1  -1  -5   61.39    4.30
  -1   1   5   63.59    4.30
   0  -1  -5 1301.57   43.30
   0  -1  -5 1273.27   43.20
   0  -1  -5 1243.78   43.40
   0  -1  -5 1254.37   43.40
   0   1   5 1233.18   43.10
   0   1   5 1290.47   43.40
  -1  -1  -5   12.70    2.30
  -1  -1  -5   12.50    2.80
   1   1   5   13.10    3.00
  -2  -1  -5  963.80   33.40
  -2  -1  -5  961.20   34.40
   2   1   5  935.51   32.90
   2   1   5  945.81   34.50
  -3  -1  -5  261.27   12.50
  -3  -1  -5  270.37   11.30
   3   1   5  263.77   10.80
   3   1   5  262.77    9.80
  -4  -1  -5   12.30    4.40
  -4  -1  -5    2.30    5.30
   4   1   5   12.30    3.70
   4   1   5   10.40    2.80
  -5  -1  -5    1.30    8.20
   5   1   5    8.00    4.80
   5   1   5   13.10    3.50
  -6  -1  -5   69.09    9.10
   6   1   5   57.19    5.50
   6  -2  -5   50.59    5.40
   5  -2  -5   56.09    5.40
  -5   2   5   75.69   10.80
   4  -2  -5  266.97   14.80
   4  -2  -5  255.07   10.50
  -4   2   5  246.38   13.00
   3  -2  -5  199.78    8.10
   3  -2  -5  196.18   10.90
   2  -2  -5   27.10    3.20
   2  -2  -5   28.40    2.50
   2  -2  -5   25.60    4.70
   2  -2  -5   34.10    3.30
  -2   2   5   32.30    4.20
  -2   2   5   31.70    3.80
   1  -2  -5   64.79    4.50
   1  -2  -5   71.09    4.60
   1  -2  -5   69.09    3.80
   1  -2  -5   74.29    3.30
   1  -2  -5   55.79    4.60
  -1   2   5   64.99    4.30
  -1   2   5   66.79    4.80
  -1   2   5   71.09    3.80
   0  -2  -5 3484.25  115.19
   0  -2  -5 3399.56  115.09
   0  -2  -5 3429.96  115.29
   0   2   5 3326.57  114.99
   0   2   5 3381.56  115.09
   0   2   5 3484.05  115.29
  -1  -2  -5   69.39    5.30
  -1  -2  -5   82.59    4.60
  -2  -2  -5  282.07   12.20
  -2  -2  -5  258.27   11.00
   2   2   5  260.07   10.30
  -3  -2  -5    7.80    4.20
  -3  -2  -5   20.40    3.80
   3   2   5   13.20    3.40
  -4  -2  -5   26.20    4.70
  -4  -2  -5   16.50    5.80
   4   2   5   20.30    3.00
   4   2   5   19.60    4.10
  -5  -2  -5    3.80    5.90
  -5  -2  -5  -13.50    9.30
   5   2   5    1.60    4.50
   5   2   5   -0.70    3.40
   6  -3  -5    4.40    3.90
   5  -3  -5   54.49   10.90
   5  -3  -5   28.30    3.90
   4  -3  -5   19.40    6.60
   4  -3  -5    6.10    2.90
   3  -3  -5  305.57   12.30
   3  -3  -5  351.56   14.90
   2  -3  -5  514.65   19.20
   2  -3  -5  514.05   20.00
   2  -3  -5  548.45   18.30
   2  -3  -5  521.45   19.40
  -2   3   5  543.85   19.60
  -2   3   5  493.45   19.00
   1  -3  -5  308.07   12.30
   1  -3  -5  288.77   11.50
   1  -3  -5  311.77   12.10
  -1   3   5  295.27   12.30
  -1   3   5  322.57   11.60
  -1   3   5  314.87   11.90
   0  -3  -5  667.73   23.60
   0  -3  -5  647.64   23.30
   0  -3  -5  663.03   23.30
   0   3   5  633.64   23.00
   0   3   5  657.53   23.50
   0   3   5  656.93   23.30
  -1  -3  -5  152.28    8.10
  -1  -3  -5  148.79    7.10
   1   3   5  149.99    7.20
  -2  -3  -5  210.68   11.00
  -2  -3  -5  206.78    9.60
   2   3   5  201.08    8.40
  -3  -3  -5  283.77   12.40
   3   3   5  271.77   11.80
  -4  -3  -5    8.70    6.20
  -4  -3  -5    9.40    4.80
   4   3   5   12.20    4.10
  -5  -3  -5   43.10    7.40
   5   3   5   37.30    5.90
   5   3   5   46.40    4.70
   6  -4  -5   40.90    4.80
   5  -4  -5  131.59   16.50
   5  -4  -5  103.19    6.70
   4  -4  -5   16.50    3.00
   4  -4  -5   21.80    7.10
   3  -4  -5  193.68    8.00
   3  -4  -5  182.18   10.70
  -3   4   5  198.68    9.40
  -3   4   5  198.78    9.70
   2  -4  -5  101.69    5.70
   2  -4  -5  104.19    6.80
   2  -4  -5   99.09    4.80
   2  -4  -5  118.69    6.90
   2  -4  -5   97.49    6.70
  -2   4   5   99.19    6.50
  -2   4   5   95.89    6.70
   1  -4  -5   41.90    4.90
   1  -4  -5   32.60    3.90
   1  -4  -5   26.10    3.60
  -1   4   5   27.50    3.60
  -1   4   5   33.40    4.00
  -1   4   5   36.00    4.30
   0  -4  -5   81.99    5.50
   0  -4  -5   84.59    5.20
   0  -4  -5   79.09    5.90
   0   4   5   90.39    5.10
   0   4   5   80.89    5.10
  -1  -4  -5  562.24   21.10
  -1  -4  -5  583.04   22.20
   1   4   5  575.24   21.10
  -2  -4  -5  352.76   16.00
  -2  -4  -5  352.56   14.30
  -3  -4  -5  287.17   13.00
   3   4   5  284.77   12.30
  -4  -4  -5   19.00    5.70
  -4  -4  -5   22.20    7.80
   4   4   5   19.60    4.30
  -5  -4  -5   19.70    8.20
   5   4   5   21.80    5.80
   5   4   5   25.40    4.80
   6  -5  -5   10.80    4.00
   5  -5  -5  190.88    9.50
   5  -5  -5  214.58   19.90
   4  -5  -5   -4.30    8.30
   4  -5  -5   -0.20    2.60
   3  -5  -5    5.10    4.60
   3  -5  -5    1.70    2.10
   3  -5  -5   -2.00    3.80
   3  -5  -5    2.10    4.00
  -3   5   5    3.50    4.10
  -3   5   5    9.20    3.80
   2  -5  -5   73.49    6.60
   2  -5  -5   74.39    5.70
   2  -5  -5   67.29    6.40
   2  -5  -5   85.69    4.10
  -2   5   5   86.09    6.70
  -2   5   5   79.69    5.40
  -2   5   5   76.59    6.50
   1  -5  -5   11.30    3.70
   1  -5  -5    5.10    2.60
   1  -5  -5   10.30    3.00
  -1   5   5    0.70    2.60
  -1   5   5    9.70    3.40
  -1   5   5    6.70    2.90
   0  -5  -5  174.78    8.40
   0  -5  -5  180.18    9.30
   0  -5  -5  175.08    8.50
   0   5   5  188.58    8.30
   0   5   5  176.98    8.30
   0   5   5  168.68    8.80
  -1  -5  -5  440.06   18.40
  -1  -5  -5  441.66   17.00
  -2  -5  -5  552.04   26.00
  -2  -5  -5  630.44   24.60
   2   5   5  741.93   24.20
   2   5   5  716.33   24.80
  -3  -5  -5  130.79    9.40
   3   5   5  114.49    7.60
  -4  -5  -5  115.39   11.30
  -4  -5  -5  117.09   15.10
   4   5   5  111.59    9.00
  -5  -5  -5  110.59   11.40
   5   5   5  141.69   11.70
   6  -6  -5   65.19    6.30
   5  -6  -5   -4.90    3.10
   5  -6  -5   -5.70   11.60
   4  -6  -5   78.69    5.40
   3  -6  -5  338.17   15.40
   3  -6  -5  307.17   12.20
   3  -6  -5  296.27   14.50
   3  -6  -5  329.77   14.80
  -3   6   5  330.57   14.40
  -3   6   5  343.47   14.50
   2  -6  -5  208.48    8.60
   2  -6  -5  225.68   11.30
   2  -6  -5  240.18   11.20
   2  -6  -5  201.98   10.30
  -2   6   5  234.98   10.00
  -2   6   5  226.18   10.80
  -2   6   5  214.68   10.90
   1  -6  -5  458.25   18.40
   1  -6  -5  439.16   17.90
   1  -6  -5  469.05   17.70
  -1   6   5  450.15   17.70
  -1   6   5  476.05   18.20
  -1   6   5  451.75   17.50
   0  -6  -5   87.99    6.70
   0  -6  -5   77.99    6.00
   0  -6  -5   80.49    7.50
   0   6   5   95.69    6.30
   0   6   5   63.49    6.80
  -1  -6  -5  306.57   13.30
  -1  -6  -5  285.87   14.60
   1   6   5  334.47   13.50
  -2  -6  -5   15.00    6.20
  -2  -6  -5   20.60    4.60
   2   6   5   16.00    5.30
   2   6   5   18.80    3.40
  -3  -6  -5   21.10    8.20
  -3  -6  -5   12.60    5.80
   3   6   5    7.10    3.80
  -4  -6  -5    0.60    7.30
   4   6   5   -1.30    4.50
   6  -7  -5   23.80    4.50
   5  -7  -5    6.30   12.80
   4  -7  -5  241.68   16.80
   4  -7  -5  267.07   10.60
  -4   7   5  273.17   14.40
   3  -7  -5   13.10    5.20
   3  -7  -5    6.60    2.40
  -3   7   5   16.50    5.00
   2  -7  -5    5.90    4.90
   2  -7  -5    7.10    4.00
   2  -7  -5    9.90    5.10
  -2   7   5    3.50    5.10
  -2   7   5    0.00    4.20
  -2   7   5    4.70    4.40
   1  -7  -5  376.56   15.70
   1  -7  -5  374.16   16.30
   1  -7  -5  380.76   16.10
  -1   7   5  375.86   15.70
  -1   7   5  386.26   16.10
  -1   7   5  379.96   15.50
   0  -7  -5  189.18   10.90
   0  -7  -5  192.28    9.70
   0  -7  -5  198.08   10.30
   0   7   5  187.28    9.70
   0   7   5  196.38    9.60
   0   7   5  178.38   10.20
  -1  -7  -5   93.09    7.60
  -1  -7  -5   96.79   10.00
  -2  -7  -5    2.80    4.80
  -2  -7  -5   -5.10    7.80
   2   7   5    1.30    5.50
   2   7   5    1.40    3.10
  -3  -7  -5   19.10    6.80
  -3  -7  -5   12.00    9.50
   3   7   5   17.50    4.40
  -4  -7  -5   47.80    9.20
   4   7   5   56.19    6.80
   5  -8  -5   30.30    4.20
   4  -8  -5   12.70    7.80
   4  -8  -5   24.90    3.40
   4  -8  -5   28.70    9.80
  -4   8   5   31.10    7.90
  -4   8   5   16.60    6.50
   3  -8  -5   78.79   10.70
   3  -8  -5   86.79   10.30
   3  -8  -5   78.79    9.10
   3  -8  -5   68.59   10.00
  -3   8   5   65.29    9.40
  -3   8   5  102.79    8.90
  -3   8   5   77.89    9.90
   2  -8  -5   93.79    9.20
   2  -8  -5   99.59   10.60
   2  -8  -5   97.39    8.70
  -2   8   5   72.89    9.20
  -2   8   5  104.09    8.50
  -2   8   5   91.39    9.10
   1  -8  -5  126.39    9.50
   1  -8  -5  136.39    9.20
   1  -8  -5  131.89   10.90
  -1   8   5  116.79    9.50
  -1   8   5  136.89    9.60
  -1   8   5  120.39    8.70
   0  -8  -5    9.20    4.60
   0  -8  -5   13.10    6.10
   0  -8  -5    2.40    5.20
   0   8   5   12.00    4.80
   0   8   5   12.90    5.40
  -1  -8  -5  194.38   13.10
  -1  -8  -5  214.18   11.50
  -1  -8  -5  189.58   17.50
  -2  -8  -5   71.69    9.30
  -2  -8  -5   58.19    9.90
   2   8   5   51.59    5.80
   2   8   5   49.30    8.10
  -3  -8  -5   18.50    7.10
   3   8   5    0.50    4.00
   5  -9  -5  192.48    9.20
   4  -9  -5   10.80    9.00
   4  -9  -5   19.90   11.10
  -4   9   5   23.30    7.70
  -4   9   5   22.30    9.10
   3  -9  -5   80.89    9.50
   3  -9  -5   92.49   10.80
   3  -9  -5   73.39    9.00
  -3   9   5   92.09   10.40
  -3   9   5   55.49    9.60
   2  -9  -5   16.60    7.50
   2  -9  -5    2.80    6.30
   2  -9  -5   10.10    8.00
  -2   9   5    5.20    5.80
  -2   9   5  -15.60    6.30
  -2   9   5    6.60    5.50
   1  -9  -5   47.00    7.00
   1  -9  -5   44.90    7.90
   1  -9  -5   53.49    6.80
  -1   9   5   38.50    6.70
  -1   9   5   38.50    6.70
  -1   9   5   38.50    6.60
   0  -9  -5   47.10    8.30
   0  -9  -5   53.19    6.80
   0  -9  -5   44.30    8.50
   0   9   5   34.90    9.50
   0   9   5   31.10    6.70
   0   9   5   49.40    6.80
  -1  -9  -5  158.58   15.20
  -1  -9  -5  131.59   13.90
  -1  -9  -5  157.78   11.60
   1   9   5  130.29   11.30
  -2  -9  -5   77.99   11.70
  -2  -9  -5   39.60   11.70
   2   9   5   41.70    5.70
  -3  -9  -5  126.29   15.70
   3   9   5  119.59   10.30
   4 -10  -5   73.49   12.60
  -4  10   5   79.69   10.90
  -4  10   5   82.89   10.50
   3 -10  -5   57.19   10.00
   3 -10  -5   71.19    9.40
   3 -10  -5   43.40   10.70
  -3  10   5   47.70    8.40
  -3  10   5   35.00    9.40
  -3  10   5   64.89    8.90
   2 -10  -5    5.70    6.70
   2 -10  -5    8.50    7.80
   2 -10  -5   17.40    9.00
  -2  10   5    9.40    7.30
  -2  10   5   11.50    6.80
  -2  10   5    2.20    7.90
   1 -10  -5   18.50    8.90
   1 -10  -5   18.10    7.00
  -1  10   5   23.00    8.00
  -1  10   5   31.30    7.50
  -1  10   5   18.00    7.20
   0 -10  -5  190.38   15.70
   0 -10  -5  178.58   13.50
   0 -10  -5  191.18   13.20
   0  10   5  159.28   13.70
   0  10   5  146.59   12.20
  -1 -10  -5   66.09    9.00
  -1 -10  -5   43.60   12.00
  -1 -10  -5   43.60   11.20
  -2 -10  -5   34.70    9.50
   2  10   5   13.00    5.30
   4 -11  -5   29.70   13.80
  -4  11   5   35.30   10.50
  -4  11   5   47.10   12.70
  -4  11   5   25.00   13.80
   3 -11  -5   33.50   13.10
   3 -11  -5   35.90   11.40
  -3  11   5   41.50    9.70
  -3  11   5   49.20   10.80
  -3  11   5   18.90   11.90
   2 -11  -5   19.90   12.00
   2 -11  -5    6.30    8.50
  -2  11   5  -16.20    9.80
  -2  11   5    3.10    8.10
  -2  11   5    3.90    8.20
   1 -11  -5   73.29   10.60
   1 -11  -5   68.29   12.10
   1 -11  -5   78.89    9.80
  -1  11   5   58.79   10.70
  -1  11   5   69.69    9.90
   0 -11  -5   49.70   12.40
   0 -11  -5   51.29    9.60
   0 -11  -5   68.79   13.00
   0 -11  -5   55.39    9.80
  -1 -11  -5    3.30   13.50
  -1 -11  -5   15.90    9.80
   3 -12  -5    5.70   14.50
  -3  12   5   -4.10   11.00
  -3  12   5  -30.70   14.00
   2 -12  -5   33.70   12.50
   2 -12  -5   76.09   15.60
   2 -12  -5   49.30   11.10
  -2  12   5   35.40   13.70
  -2  12   5   43.30   11.10
   1 -12  -5   -6.00   14.00
   1 -12  -5    9.30   11.00
   1 -12  -5    7.80    9.60
  -1  12   5   -5.20   10.40
   0 -12  -5   17.60    9.70
   0 -12  -5    5.10   15.30
   0 -12  -5   22.20   11.20
   0 -12  -5   16.00   16.30
   0  12   5   -1.40   11.30
  -1  14  -6   96.99   12.20
   1 -14   6   67.29   15.00
   1 -14   6   49.80   19.30
   1  13  -6   12.50   10.80
  -1 -13   6   -6.90   12.40
  -1 -13   6   -0.80   17.20
   0  13  -6  -17.10    9.20
   0 -13   6   -4.00   11.50
   0 -13   6   -1.10   13.70
  -1  13  -6   11.60    8.50
  -1  13  -6    9.50   12.50
   1 -13   6   14.40   11.20
   1 -13   6   -3.10   12.70
  -2  13  -6   46.30    8.90
  -2  13  -6   42.20   13.20
   2 -13   6   38.80   15.90
   2 -13   6   36.20   12.80
  -3  13  -6   26.20    8.80
  -3  13  -6   15.30   13.70
   3 -13   6   27.30   14.60
   2  12  -6    3.70    3.30
   2  12  -6   11.20   11.20
  -2 -12   6    9.20   10.90
   1  12  -6   36.90   11.00
  -1 -12   6   24.60   10.30
  -1 -12   6   26.60   11.90
   0  12  -6   -4.80    7.00
   0  12  -6   -6.30   10.30
   0  12  -6   -2.90    8.70
   0 -12   6    0.10   10.00
   0 -12   6    3.50    9.50
  -1  12  -6   53.09    8.40
  -1  12  -6   34.70   10.60
  -1  12  -6   30.20    9.00
   1 -12   6   40.40   10.30
   1 -12   6   40.50   10.30
  -2  12  -6   53.09   12.40
  -2  12  -6   60.39    7.80
  -2  12  -6   43.60   11.00
   2 -12   6   58.39   11.00
   2 -12   6   31.50   10.60
  -3  12  -6   27.10    7.40
  -3  12  -6   35.70   11.50
   3 -12   6   10.40   11.80
  -4  12  -6   41.10    8.30
   4 -12   6   23.80   11.60
   2  11  -6   87.59   10.80
   2  11  -6   94.49    6.00
  -2 -11   6  121.09   13.20
   1  11  -6   13.80    8.00
   1  11  -6   24.60    7.20
   1  11  -6   35.40    9.40
  -1 -11   6   33.90    9.00
  -1 -11   6   28.60    9.50
   0  11  -6   -4.50    6.10
   0  11  -6   11.20    7.00
   0  11  -6    8.40    8.40
   0 -11   6    6.00    7.80
   0 -11   6    7.60    8.00
  -1  11  -6  221.98   15.60
  -1  11  -6  248.38   15.00
  -1  11  -6  230.48   13.20
   1 -11   6  224.98   15.30
   1 -11   6  214.28   15.90
  -2  11  -6   91.79   10.50
  -2  11  -6   96.19   10.60
  -2  11  -6   93.39   11.90
   2 -11   6   98.89   10.30
   2 -11   6   84.79   10.00
  -3  11  -6   -0.60    8.60
  -3  11  -6    8.60    5.90
  -3  11  -6   16.10    8.20
   3 -11   6    1.80    9.50
  -4  11  -6  101.89   10.70
   4 -11   6   88.19   15.10
   3  10  -6    4.20    3.30
   3  10  -6   -5.20    6.20
   2  10  -6   84.99    5.50
  -2 -10   6   98.49   12.10
   1  10  -6    1.60    5.70
   1  10  -6    6.40    7.50
  -1 -10   6    6.50    7.80
  -1 -10   6    5.50    7.10
   0  10  -6   13.60    6.80
   0  10  -6    3.20    5.10
   0 -10   6   15.20    6.80
   0 -10   6   22.00    9.60
  -1  10  -6   21.40    5.30
   1 -10   6   17.10    6.30
   1 -10   6   14.70    7.00
  -2  10  -6   16.40    4.80
  -2  10  -6    9.90    6.80
   2 -10   6   13.30    6.30
   2 -10   6    9.90    7.50
  -3  10  -6   99.49    9.70
  -3  10  -6   82.19    9.40
  -3  10  -6  114.09    9.30
   3 -10   6   92.69   11.30
  -4  10  -6   89.19   11.40
  -4  10  -6  107.39    9.50
   4   9  -6    0.60    3.60
  -4  -9   6   -4.60   15.80
   3   9  -6   48.30    6.60
   3   9  -6   34.50    4.10
   2   9  -6   10.00    2.60
  -2  -9   6   20.00    6.50
   1   9  -6  156.18   11.60
   1   9  -6  161.88   10.00
   1   9  -6  156.98   10.40
  -1  -9   6  157.88   11.30
  -1  -9   6  164.48   11.70
   0   9  -6   11.20    5.60
   0   9  -6   10.20    5.20
   0   9  -6    3.70    4.30
   0  -9   6    4.50    4.90
   0  -9   6   10.50    5.70
  -1   9  -6   60.49    7.10
  -1   9  -6   62.19    6.80
  -1   9  -6   63.89    7.80
   1  -9   6   67.59    8.30
   1  -9   6   54.89    7.30
  -2   9  -6  102.19   10.20
  -2   9  -6  119.09    8.20
   2  -9   6   97.89   11.00
   2  -9   6  115.69    9.40
  -3   9  -6  269.37   12.20
   3  -9   6  250.57   14.30
   4  -9   6   -7.80    7.50
   4   8  -6   54.79    5.50
  -4  -8   6   51.29   13.50
   3   8  -6    4.80    2.80
   2   8  -6  114.39    5.60
   1   8  -6   49.10    5.10
   1   8  -6   36.80    5.70
  -1  -8   6   49.10    5.90
  -1  -8   6   48.90    6.00
   0   8  -6    4.20    3.60
   0   8  -6    8.80    4.70
   0   8  -6    4.70    4.10
   0  -8   6    1.90    4.60
   0  -8   6   -2.00    4.00
  -1   8  -6   55.79    7.50
  -1   8  -6   56.89    6.30
  -1   8  -6   56.69    6.70
   1  -8   6   56.79    6.80
   1  -8   6   68.69    6.80
  -2   8  -6   76.49    6.70
   2  -8   6   95.49    9.30
   2  -8   6   59.79    7.40
   3  -8   6   -2.00    5.20
   4  -8   6   45.20    8.50
   4   7  -6   53.59    5.30
  -4  -7   6   60.19   12.90
   3   7  -6   16.80    3.10
  -3  -7   6   14.50    9.40
   2   7  -6  329.77   12.40
   1   7  -6  466.75   18.30
   1   7  -6  462.75   17.90
  -1  -7   6  464.45   18.30
  -1  -7   6  473.15   18.80
   0   7  -6  143.69    8.60
   0   7  -6  141.69    8.10
   0   7  -6  155.58    9.40
   0  -7   6  150.18    8.40
   0  -7   6  155.78    9.20
  -1   7  -6  158.88    8.10
  -1   7  -6  154.78    9.40
   1  -7   6  154.58    9.60
   1  -7   6  162.68    8.50
   3  -7   6   17.80    5.30
   4  -7   6    5.30    6.90
   5  -7   6   35.30   10.70
   5   6  -6   25.30    4.80
  -5  -6   6    4.50   12.90
   4   6  -6    9.10    3.10
  -4  -6   6   13.70    9.30
   3   6  -6  264.07   10.60
   2   6  -6   59.69    3.70
   1   6  -6   23.20    3.80
   1   6  -6   40.40    5.00
   1   6  -6   23.10    4.10
  -1  -6   6   25.20    3.70
  -1  -6   6   21.30    4.40
   0   6  -6   39.80    4.90
   0  -6   6   41.40    5.10
   0  -6   6   49.30    6.60
  -1   6  -6   52.59    5.00
  -1   6  -6   60.59    6.20
   1  -6   6   63.09    5.00
   1  -6   6   52.39    6.50
   2  -6   6   15.00    4.00
   3  -6   6  663.83   25.60
   4  -6   6   12.20    6.10
   5  -6   6    2.00    9.00
   5   5  -6   73.19    6.50
  -5  -5   6   82.39   13.60
   4   5  -6    9.00    3.10
  -4  -5   6    8.90    7.70
   3   5  -6   64.99    4.30
  -3  -5   6   67.79   10.50
   2   5  -6   67.79    3.70
  -2  -5   6   68.49    9.00
   1   5  -6   32.40    3.70
   1   5  -6   31.60    4.40
   1   5  -6   40.90    5.40
  -1  -5   6   33.70    4.20
  -1  -5   6   34.50    3.70
   0   5  -6  606.14   22.40
   0   5  -6  625.84   21.90
   0  -5   6  607.74   22.50
   0  -5   6  609.04   21.90
  -1   5  -6    0.10    2.20
  -1   5  -6    3.40    2.80
   1  -5   6    7.10    2.20
   1  -5   6   -3.60    3.10
   2  -5   6    5.80    3.20
   3  -5   6  618.24   24.20
   4  -5   6  257.87   14.90
   5  -5   6   60.39    9.80
   6  -5   6   25.30    3.90
   5   4  -6    9.10    3.70
  -5  -4   6   15.30   10.00
   4   4  -6   41.70    4.60
  -4  -4   6   42.60    8.60
   3   4  -6  650.93   23.60
  -3  -4   6  680.43   27.20
   2   4  -6  254.77    9.80
  -2  -4   6  266.27   10.40
  -2  -4   6  265.37   13.30
   1   4  -6   27.20    3.60
   1   4  -6   33.30    4.20
  -1  -4   6   32.80    4.00
  -1  -4   6   33.80    5.70
   0   4  -6  428.66   16.30
   0   4  -6  445.46   15.80
   0  -4   6  437.56   15.90
   0  -4   6  419.26   16.40
  -1   4  -6    6.80    2.70
   2  -4   6  270.87   11.80
   3  -4   6   44.50    6.90
   4  -4   6  189.88   12.60
   5  -4   6   66.49    5.00
   5  -4   6   80.09   10.60
  -6   4  -6    9.10    7.60
   6  -4   6    7.10    3.60
   5   3  -6    0.50    3.40
  -5  -3   6   11.70    9.60
   4   3  -6   36.10    3.80
  -4  -3   6   48.40    8.10
   3   3  -6  112.99    5.50
  -3  -3   6  108.09    9.30
   2   3  -6  218.18    8.50
  -2  -3   6  227.28    9.20
  -2  -3   6  220.88   11.80
  -2  -3   6  231.48   10.10
   1   3  -6  798.82   28.80
   1   3  -6  851.31   29.30
   1   3  -6  827.42   29.60
  -1  -3   6  877.31   29.80
  -1  -3   6  846.82   29.30
   0   3  -6  160.08    7.80
   0   3  -6  175.88    7.20
   0  -3   6  169.58    7.10
   0  -3   6  171.38    7.90
  -1   3  -6  199.88    8.10
   1  -3   6  205.88    9.00
   2  -3   6    4.10    2.60
   2  -3   6   -0.50    1.70
   3  -3   6    3.10    4.40
  -4   3  -6  165.28   10.50
   4  -3   6  166.78    6.90
   4  -3   6  158.98   11.90
  -5   3  -6   46.90    8.10
   5  -3   6   42.90    4.40
  -6   3  -6    3.10    7.10
   6  -3   6    6.60    3.50
   6   2  -6   43.60    5.20
  -6  -2   6   60.19   13.60
   5   2  -6    5.00    3.50
  -5  -2   6    0.70    8.60
   4   2  -6   60.99    4.80
  -4  -2   6   66.39   10.10
   3   2  -6   25.30    2.90
  -3  -2   6   34.10    5.60
   2   2  -6  740.13   25.70
  -2  -2   6  750.52   26.10
  -2  -2   6  746.73   27.80
  -2  -2   6  730.13   26.50
   1   2  -6   39.00    2.40
   1   2  -6   49.99    4.40
   1   2  -6   43.00    3.90
  -1  -2   6   38.20    3.70
  -1  -2   6   44.80    4.70
   0   2  -6  110.99    6.10
   0   2  -6  121.89    5.50
   0  -2   6  112.59    6.20
   0  -2   6  120.09    5.40
   1  -2   6  244.28   10.20
  -2   2  -6   15.90    3.00
   2  -2   6   11.10    2.00
   2  -2   6   13.40    3.40
  -3   2  -6  165.88   10.50
   3  -2   6  171.78    7.90
   3  -2   6  171.08   10.00
  -4   2  -6   74.19    8.90
   4  -2   6   67.09    9.90
   4  -2   6   72.79    4.20
   4  -2   6   65.19    6.40
  -5   2  -6   15.80    8.00
  -5   2  -6    3.20    5.60
   5  -2   6   12.30    2.90
  -6   2  -6   50.79    8.50
   6  -2   6   54.79    4.80
   6   1  -6   10.10    4.40
  -6  -1   6    9.70   12.30
   5   1  -6   54.39    5.20
  -5  -1   6   63.99   10.10
   4   1  -6    4.70    2.40
  -4  -1   6   -1.00    5.70
   3   1  -6   12.90    2.40
  -3  -1   6    8.40    4.60
   2   1  -6   20.80    2.20
   2   1  -6   19.00    4.10
  -2  -1   6   20.10    3.20
  -2  -1   6   14.60    4.20
   1   1  -6  457.85   15.00
   1   1  -6  423.36   16.00
  -1  -1   6  421.36   16.00
  -1  -1   6  431.56   15.70
  -1  -1   6  421.96   16.40
   0   1  -6  409.46   14.50
   0   1  -6  360.96   13.90
   0  -1   6  376.26   14.40
   0  -1   6  394.06   13.90
   0  -1   6  378.56   14.30
   1  -1   6  581.74   19.70
   1  -1   6  560.14   21.10
  -2   1  -6   -1.20    2.70
   2  -1   6    2.70    3.30
  -3   1  -6   76.59    7.00
   3  -1   6   70.99    3.70
   3  -1   6   64.49    5.10
   3  -1   6   68.99    7.40
  -4   1  -6   47.50    5.50
  -4   1  -6   40.40    6.80
   4  -1   6   39.80    4.80
   4  -1   6   39.50    3.60
  -5   1  -6   57.49    8.50
  -5   1  -6   79.29   12.80
   5  -1   6   64.79    6.90
   5  -1   6   60.49    5.10
  -6   1  -6   19.80    8.00
   6  -1   6    4.90    3.60
   6   0  -6   21.80    3.90
  -6   0   6   21.00   11.50
   5   0  -6  323.47   13.30
  -5   0   6  328.77   18.50
   4   0  -6   36.70    3.70
  -4   0   6   41.40    6.70
   3   0  -6   10.70    2.40
  -3   0   6   13.00    4.40
   2   0  -6    4.70    3.80
   2   0  -6    3.70    2.50
   2   0  -6    6.40    2.30
   2   0  -6    3.40    1.80
  -2   0   6    8.10    2.60
   1   0  -6   59.79    4.40
   1   0  -6   51.99    4.90
   1   0  -6   68.09    3.10
  -1   0   6   63.29    4.80
  -1   0   6   64.39    4.80
  -1   0   6   60.89    4.20
   0   0  -6  247.28   10.30
   0   0  -6  254.67    9.90
   0   0  -6  269.97   10.00
   0   0   6  255.37    9.90
   0   0   6  258.47   10.30
   0   0   6  250.07   10.40
  -1   0  -6  135.39    6.20
  -1   0  -6  127.29    6.70
   1   0   6  125.49    7.20
   1   0   6  130.89    5.20
  -2   0  -6  422.16   16.70
  -2   0  -6  414.56   15.80
   2   0   6  411.66   15.10
   2   0   6  409.86   16.90
  -3   0  -6   29.20    4.90
  -3   0  -6   31.00    4.00
   3   0   6   25.90    2.20
   3   0   6   22.50    5.00
   3   0   6   21.30    3.10
  -4   0  -6  222.18   13.40
  -4   0  -6  220.58   11.10
   4   0   6  235.48   10.70
   4   0   6  197.08    8.70
  -5   0  -6    1.80    5.70
  -5   0  -6   12.40    9.20
   5   0   6    1.10    4.60
   5   0   6    0.80    3.10
   6  -1  -6    8.50    3.80
  -6   1   6   -0.10   10.10
   5  -1  -6   94.89    6.40
  -5   1   6  100.29   12.00
   4  -1  -6  627.84   22.30
   4  -1  -6  579.94   31.70
  -4   1   6  632.44   24.90
   3  -1  -6   20.60    2.80
  -3   1   6   22.80    4.60
   2  -1  -6   61.69    3.80
   2  -1  -6   58.29    5.10
   2  -1  -6   59.59    5.80
  -2   1   6   64.89    4.70
  -2   1   6   70.59    5.20
   1  -1  -6 1214.88   40.20
   1  -1  -6 1193.68   40.50
   1  -1  -6 1185.48   40.70
   1  -1  -6 1165.98   39.70
  -1   1   6 1142.09   40.40
  -1   1   6 1147.99   40.80
   0  -1  -6  107.29    5.40
   0  -1  -6  107.49    5.50
   0  -1  -6  114.99    6.00
   0   1   6  109.29    5.80
   0   1   6  111.89    6.30
   0   1   6  114.79    5.30
  -1  -1  -6  277.77   10.70
  -1  -1  -6  266.27   11.30
   1   1   6  254.47   11.50
  -2  -1  -6    3.40    2.60
  -2  -1  -6    3.20    3.30
   2   1   6    5.60    1.90
   2   1   6    1.10    3.60
  -3  -1  -6   10.80    3.50
  -3  -1  -6    9.40    4.30
  -4  -1  -6  165.98   12.10
  -4  -1  -6  175.88   10.10
   4   1   6  175.18    9.60
   4   1   6  158.08    7.40
  -5  -1  -6  358.46   21.80
  -5  -1  -6  364.66   17.40
   5   1   6  407.26   14.80
   5   1   6  388.96   17.40
   6  -2  -6    2.70    4.20
   5  -2  -6    3.90    3.40
   4  -2  -6    5.40    7.00
   4  -2  -6    3.30    2.70
   3  -2  -6   52.09    7.30
   3  -2  -6   45.60    4.00
   2  -2  -6   61.69    5.60
   2  -2  -6   57.59    5.10
   2  -2  -6   62.49    5.50
   2  -2  -6   63.19    3.80
  -2   2   6   54.49    5.40
   1  -2  -6  834.22   29.10
   1  -2  -6  814.42   29.30
   1  -2  -6  837.02   28.70
  -1   2   6  811.42   29.30
   0  -2  -6   35.50    3.70
   0  -2  -6   33.70    3.70
   0  -2  -6   36.50    3.40
   0   2   6   34.50    3.70
  -1  -2  -6   79.89    5.90
  -1  -2  -6   80.49    5.10
   1   2   6   75.49    6.20
  -2  -2  -6    2.50    3.60
  -2  -2  -6    7.70    2.80
   2   2   6    3.10    1.80
  -4  -2  -6  111.09   12.10
  -4  -2  -6  108.89   11.10
   4   2   6  116.39    8.30
  -5  -2  -6    8.20    6.90
   5   2   6   -2.10    3.60
   5   2   6   -0.50    4.40
   6  -3  -6   44.10    5.00
   5  -3  -6   34.10   11.60
   5  -3  -6   34.40    4.40
   4  -3  -6   15.40    8.30
   4  -3  -6    4.10    3.00
   3  -3  -6   60.29    4.40
   3  -3  -6   53.59    7.50
  -3   3   6   60.39    6.30
   2  -3  -6   50.89    5.60
   2  -3  -6   35.20    3.60
   2  -3  -6   60.29    5.60
   2  -3  -6   60.79    5.80
  -2   3   6   41.20    5.20
  -2   3   6   41.60    5.50
   1  -3  -6  305.87   12.60
   1  -3  -6  309.67   12.30
   1  -3  -6  301.67   11.80
  -1   3   6  306.67   12.20
  -1   3   6  298.27   12.50
  -1   3   6  307.97   11.80
   0  -3  -6  522.35   18.60
   0  -3  -6  494.85   18.50
   0   3   6  511.05   18.80
   0   3   6  489.85   18.30
   0   3   6  497.15   18.50
  -1  -3  -6  441.16   17.40
  -1  -3  -6  425.36   16.60
  -2  -3  -6   44.70    5.60
  -2  -3  -6   46.80    5.60
   2   3   6   49.10    3.90
  -3  -3  -6  412.46   17.00
   3   3   6  408.76   16.30
  -4  -3  -6  -11.10    6.10
  -4  -3  -6   -0.90    5.20
   4   3   6    3.30    3.50
  -5  -3  -6   58.29    8.60
   5   3   6   41.00    6.80
   5   3   6   42.70    4.70
   6  -4  -6   29.00    4.50
   5  -4  -6   54.89    6.00
   5  -4  -6   79.09   13.00
   4  -4  -6  192.88    8.70
   3  -4  -6  110.49    9.10
   3  -4  -6   97.59    5.70
  -3   4   6  107.99    7.80
  -3   4   6  101.99    7.80
   2  -4  -6   17.80    3.90
   2  -4  -6   10.60    4.00
   2  -4  -6   31.30    5.50
  -2   4   6    9.70    3.70
  -2   4   6   18.50    3.70
   1  -4  -6  624.34   22.10
   1  -4  -6  607.54   22.30
   1  -4  -6  610.04   22.80
  -1   4   6  583.04   22.10
  -1   4   6  606.24   22.00
  -1   4   6  616.24   22.70
   0  -4  -6  193.38    9.70
   0  -4  -6  189.18    8.70
   0  -4  -6  196.88    9.10
   0   4   6  197.58    8.80
  -1  -4  -6   28.80    5.20
  -1  -4  -6   33.40    3.90
  -2  -4  -6  700.03   25.90
  -2  -4  -6  692.73   27.40
   2   4   6  697.13   25.10
  -3  -4  -6  282.77   13.20
   3   4   6  269.27   12.30
  -4  -4  -6    2.60    5.90
  -4  -4  -6   -7.10    7.50
   4   4   6    8.10    4.40
  -5  -4  -6   54.09    9.40
   5   4   6   57.39    7.30
   6  -5  -6    3.60    4.00
   5  -5  -6    2.70    3.50
   5  -5  -6   28.30   13.10
   4  -5  -6  126.59    6.90
   3  -5  -6 2881.31   98.69
   3  -5  -6 2891.31  100.09
   3  -5  -6 2863.61   99.89
  -3   5   6 3080.89  100.39
  -3   5   6 2925.91   99.79
   2  -5  -6   40.40    3.50
   2  -5  -6   50.19    5.30
   2  -5  -6   45.40    6.50
   2  -5  -6   43.50    5.70
  -2   5   6   49.50    6.80
  -2   5   6   48.60    5.30
   1  -5  -6   -1.60    3.40
   1  -5  -6   -0.20    2.90
   1  -5  -6   -5.90    3.60
  -1   5   6   -0.80    3.00
  -1   5   6   -1.60    3.50
  -1   5   6    8.00    3.70
   0  -5  -6   45.40    5.40
   0  -5  -6   40.00    5.00
   0  -5  -6   41.10    4.50
   0   5   6   45.30    6.10
   0   5   6   43.30    6.60
  -1  -5  -6    6.80    8.60
  -1  -5  -6   11.90    3.50
   1   5   6   15.40    3.80
  -2  -5  -6  218.88   13.40
  -2  -5  -6  222.08   11.00
   2   5   6  199.18    9.50
  -3  -5  -6   84.19    9.10
  -3  -5  -6  108.09   12.70
   3   5   6   87.89    7.10
  -4  -5  -6  108.69   12.20
   4   5   6  114.19    9.50
   6  -6  -6   -1.70    3.70
   5  -6  -6   52.29   14.20
   5  -6  -6   48.00    4.90
   4  -6  -6   16.50    8.10
   4  -6  -6   -3.70    3.00
  -4   6   6    2.20    6.10
  -4   6   6    6.80    5.40
   3  -6  -6   99.29    9.60
   3  -6  -6  115.19    5.90
   3  -6  -6  105.09    9.90
  -3   6   6  135.19    9.30
  -3   6   6  120.59   10.00
   2  -6  -6  334.77   14.40
   2  -6  -6  313.17   13.70
   2  -6  -6  312.27   14.50
   2  -6  -6  299.37   11.90
  -2   6   6  338.77   14.10
  -2   6   6  309.47   13.40
  -2   6   6  350.26   14.50
   1  -6  -6  103.99    7.00
   1  -6  -6   98.49    7.80
   1  -6  -6   92.19    8.30
  -1   6   6  105.89    8.00
  -1   6   6  100.49    7.60
  -1   6   6   99.29    9.20
   0  -6  -6   10.50    4.90
   0  -6  -6    8.10    3.90
   0  -6  -6    9.10    3.60
   0   6   6   10.40    3.80
   0   6   6   11.50    3.60
  -1  -6  -6   47.90    5.40
  -1  -6  -6   45.50    7.20
  -2  -6  -6   46.20    6.20
   2   6   6   31.20    4.10
  -3  -6  -6    4.00    5.90
  -3  -6  -6   -5.20    8.60
   3   6   6    3.00    3.70
  -4  -6  -6   13.70    8.00
   4   6   6   17.10    5.40
   5  -7  -6   19.40    4.10
   4  -7  -6   11.40    3.30
   4  -7  -6    8.80    8.90
   4  -7  -6    2.40    6.80
  -4   7   6    4.30    7.30
  -4   7   6    6.10    6.20
   3  -7  -6  115.59   10.80
   3  -7  -6  108.29    5.80
   3  -7  -6  107.09   10.80
  -3   7   6  131.49   10.60
  -3   7   6  121.39    9.60
  -3   7   6  113.99    9.90
   2  -7  -6  234.68   16.00
   2  -7  -6  256.17   13.50
   2  -7  -6  281.17   13.00
  -2   7   6  290.67   13.50
  -2   7   6  278.47   13.50
  -2   7   6  271.27   12.50
   1  -7  -6   20.80    7.00
   1  -7  -6   24.20    4.80
  -1   7   6   29.80    5.40
   0  -7  -6   60.39    6.90
   0  -7  -6   66.49    6.70
   0  -7  -6   58.29    7.70
   0   7   6   56.99    6.40
   0   7   6   58.99    6.90
   0   7   6   64.99    7.40
  -1  -7  -6  259.67   13.30
  -1  -7  -6  285.77   15.50
  -2  -7  -6   20.70    8.60
  -2  -7  -6   16.60    5.70
   2   7   6    5.60    6.30
   2   7   6   15.50    3.70
  -3  -7  -6   22.70    7.20
   3   7   6   22.30    4.90
   5  -8  -6   35.20    4.30
   4  -8  -6    3.70    3.40
   4  -8  -6   -7.10   10.20
  -4   8   6   -0.30    7.00
  -4   8   6    4.70    9.00
   3  -8  -6   28.00    7.30
   3  -8  -6   33.00    6.80
   3  -8  -6   24.70    7.60
   3  -8  -6   50.09    7.70
  -3   8   6   37.80    7.10
  -3   8   6   35.30    6.40
  -3   8   6   43.80    7.90
   2  -8  -6   59.89    8.80
   2  -8  -6   68.19    7.60
   2  -8  -6   69.29    8.30
  -2   8   6   53.69    6.90
  -2   8   6   62.59    7.50
  -2   8   6   58.39    6.80
   1  -8  -6  116.49   11.40
   1  -8  -6  116.79   10.20
   1  -8  -6  127.49    9.50
  -1   8   6  104.29    9.10
  -1   8   6  117.49   10.20
  -1   8   6  111.29    9.70
   0  -8  -6  173.38   10.90
   0  -8  -6  162.98   13.00
   0  -8  -6  168.28   10.60
   0   8   6  161.18   10.50
   0   8   6  167.78   10.80
  -1  -8  -6  295.17   14.30
  -1  -8  -6  296.67   16.70
  -2  -8  -6   39.20   11.30
  -2  -8  -6   40.80    7.00
   2   8   6   24.80    4.80
   2   8   6   42.20    8.70
  -3  -8  -6    1.20    8.00
   3   8   6   -1.10    4.40
   5  -9  -6   53.69    5.30
   4  -9  -6  170.58   17.60
   4  -9  -6  165.18   23.70
  -4   9   6  166.48   14.40
  -4   9   6  184.28   14.20
  -4   9   6  214.98   18.40
   3  -9  -6   12.50    8.20
   3  -9  -6   23.70    9.10
   3  -9  -6    4.60    7.90
   3  -9  -6   30.90   11.00
  -3   9   6   24.60    7.80
  -3   9   6   22.70    7.50
  -3   9   6   37.00    8.90
   2  -9  -6   74.49   10.10
   2  -9  -6   77.39   10.40
   2  -9  -6   67.19    8.80
  -2   9   6   83.29   10.30
  -2   9   6   70.19    8.50
  -2   9   6   75.89    8.80
   1  -9  -6   -6.80    6.50
   1  -9  -6    9.70   10.80
   1  -9  -6   14.30    5.90
  -1   9   6   -1.10    6.10
  -1   9   6    0.60    6.30
  -1   9   6    5.90    6.40
   0  -9  -6   -6.30    6.20
   0  -9  -6    7.80    8.80
   0  -9  -6    4.60    6.00
   0   9   6   -2.20    6.40
   0   9   6   -5.60    6.00
   0   9   6    6.20    6.80
  -1  -9  -6  106.79   15.00
  -1  -9  -6   88.49   11.40
  -1  -9  -6   74.99   11.40
   1   9   6   75.79    9.70
  -2  -9  -6  128.79   13.40
   2   9   6   84.89    8.60
   4 -10  -6  240.38   21.00
  -4  10   6  221.68   17.20
  -4  10   6  202.88   17.90
  -4  10   6  296.67   22.20
   3 -10  -6   71.89   10.00
   3 -10  -6   55.89   12.40
   3 -10  -6   62.79   10.80
  -3  10   6   61.89   11.60
  -3  10   6   67.09    9.70
  -3  10   6   60.49   10.00
   2 -10  -6   14.00    7.80
   2 -10  -6    9.50   10.40
   2 -10  -6    1.40    8.80
  -2  10   6   11.50    8.00
  -2  10   6   10.10    8.20
  -2  10   6    6.90    8.50
   1 -10  -6   90.99   11.80
   1 -10  -6   97.69   12.90
   1 -10  -6   89.89   12.10
  -1  10   6   95.49   10.40
  -1  10   6   91.89   12.60
  -1  10   6   83.19   12.00
   0 -10  -6   27.00   10.70
   0 -10  -6   41.60    8.20
   0 -10  -6   26.70    8.30
   0 -10  -6    7.60   10.60
   0  10   6    5.50    7.80
   0  10   6   26.70    8.70
  -1 -10  -6   71.99    9.60
  -1 -10  -6   58.69   14.20
  -1 -10  -6   73.19   13.30
  -2 -10  -6   50.29   11.20
   2  10   6   48.80    7.00
   3 -11  -6   40.90   14.20
   3 -11  -6   61.59   18.00
   3 -11  -6   68.19   12.20
  -3  11   6   34.10   10.80
  -3  11   6   29.40   13.00
   2 -11  -6   46.70   10.00
   2 -11  -6   43.80   11.00
   2 -11  -6   40.80   13.80
  -2  11   6   30.10   11.80
   1 -11  -6   92.19   13.80
   1 -11  -6   97.49   15.10
   1 -11  -6   80.79   11.40
  -1  11   6   85.69   11.20
  -1  11   6   88.79   14.40
   0 -11  -6   71.49   19.00
   0 -11  -6   51.59   14.20
   0 -11  -6   54.79   10.70
   0 -11  -6   63.09   10.20
   0  11   6   48.20   10.70
  -1 -11  -6   12.50   10.20
   1  11   6   18.00    4.70
   2 -12  -6   82.29   13.00
   2 -12  -6   72.69   17.90
   2 -12  -6   74.09   14.40
  -2  12   6   68.19   12.90
   1 -12  -6   18.30   11.30
   1 -12  -6   30.00   17.70
   1 -12  -6   17.00   12.60
  -1  12   6   -0.30   11.40
   0  13  -7   -0.80   10.30
   0 -13   7   -9.20   14.10
   0 -13   7    6.70   12.20
  -1  13  -7    6.60    8.60
  -1  13  -7   -0.50   13.40
   1 -13   7    4.20   14.20
   1 -13   7   28.00   13.00
  -2  13  -7  120.79   14.00
  -2  13  -7  102.39   15.00
   2 -13   7  120.09   15.10
  -3  13  -7    1.40    9.10
  -3  13  -7    6.80   17.60
   3 -13   7   -5.00   14.80
   1  12  -7    0.50   10.60
   1  12  -7    8.70    8.60
  -1 -12   7    0.90   10.60
  -1 -12   7    5.00   12.50
   0  12  -7   71.49    9.00
   0  12  -7   61.69   12.10
   0  12  -7   65.89   10.70
   0 -12   7   85.49   12.30
   0 -12   7   79.39   11.30
  -1  12  -7   35.10   10.40
  -1  12  -7   36.60    9.10
  -1  12  -7   51.39   11.10
   1 -12   7   35.20   10.60
   1 -12   7   49.99   11.10
  -2  12  -7    5.10    6.90
  -2  12  -7    3.60   11.10
   2 -12   7   -1.70   10.70
   2 -12   7    1.60   11.10
  -3  12  -7  105.59   13.40
  -3  12  -7  132.39   12.50
   3 -12   7  113.69   13.90
  -4  12  -7   26.60    8.40
   4 -12   7   -1.20   12.30
   2  11  -7   40.40   10.60
   2  11  -7   27.80    3.70
  -2 -11   7   22.50    9.00
  -2 -11   7   34.50   12.60
   1  11  -7    5.60    7.20
   1  11  -7   -9.60    7.90
   1  11  -7    8.00   10.00
  -1 -11   7    2.50    8.80
   0  11  -7    9.90    9.50
   0  11  -7   11.00    6.70
   0  11  -7    2.40    7.50
   0 -11   7   22.80   11.10
   0 -11   7   10.20    8.60
  -1  11  -7    6.20    8.80
  -1  11  -7    3.30    8.20
  -1  11  -7   -4.60    5.80
   1 -11   7    2.80    8.50
   1 -11   7   10.50    8.50
  -2  11  -7    6.60   11.50
  -2  11  -7   14.90    7.80
  -2  11  -7   13.30    6.00
   2 -11   7   14.20    8.40
   2 -11   7   14.20    9.10
  -3  11  -7  220.88   12.80
   3 -11   7  214.08   18.00
   3 -11   7  204.88   16.40
   3 -11   7  210.28   17.20
  -4  11  -7    1.00    6.80
   4 -11   7    8.30   10.20
   3  10  -7   91.19    6.30
   2  10  -7   10.70    2.90
   1  10  -7   10.10    5.90
   1  10  -7   12.10    8.00
  -1 -10   7   -4.40    7.60
  -1 -10   7   11.80    7.60
   0  10  -7  117.19   10.10
   0  10  -7  107.59   12.40
   0 -10   7  126.89   12.50
   0 -10   7  118.89   11.70
  -1  10  -7    2.60    5.10
  -1  10  -7    8.50    6.60
  -1  10  -7   -0.30    8.50
   1 -10   7    8.80    6.60
   1 -10   7    6.60    7.30
  -2  10  -7   30.50    7.90
   2 -10   7   24.30    8.20
   2 -10   7   36.50    7.30
  -3  10  -7   43.10    8.30
  -3  10  -7   71.49    8.50
   3 -10   7   49.80    8.90
   3   9  -7    3.50    2.80
  -3  -9   7   -9.20   13.20
   2   9  -7   -1.90    2.20
  -2  -9   7    0.40    7.70
  -2  -9   7  -12.20    6.60
   1   9  -7  425.06   17.90
   1   9  -7  417.76   18.40
   1   9  -7  432.36   19.30
  -1  -9   7  414.46   19.00
  -1  -9   7  421.16   19.40
   0   9  -7   89.89    8.50
   0   9  -7   88.19    9.60
   0   9  -7   81.49   10.50
   0  -9   7   84.69    9.50
   0  -9   7   84.89   10.50
  -1   9  -7   16.00    6.20
  -1   9  -7    7.60    4.50
  -1   9  -7    0.70    5.90
   1  -9   7   16.50    6.30
   1  -9   7   13.20    5.40
  -2   9  -7    8.90    4.40
  -2   9  -7   10.90    6.10
   2  -9   7   17.30    6.70
   2  -9   7   17.10    5.70
   3  -9   7  174.98   12.90
   4  -9   7   17.20    8.70
   5  -9   7   48.70   13.00
   4   8  -7   10.30    3.60
  -4  -8   7   10.10   13.10
   3   8  -7   88.99    5.70
   2   8  -7  143.69    6.60
  -2  -8   7  131.59   10.90
   1   8  -7  187.08   11.80
   1   8  -7  157.68   10.70
   1   8  -7  178.08   10.10
  -1  -8   7  176.68   11.30
  -1  -8   7  180.48   11.00
   0   8  -7  163.88    9.20
   0   8  -7  155.08   10.00
   0   8  -7  140.29   10.80
   0  -8   7  166.58   10.90
   0  -8   7  161.48   10.40
  -1   8  -7  602.24   24.40
  -1   8  -7  624.24   23.40
   1  -8   7  647.84   24.60
   1  -8   7  630.64   23.70
  -2   8  -7   23.60    5.60
  -2   8  -7   14.90    3.90
   2  -8   7   29.20    6.30
   3  -8   7   12.90    5.90
   4  -8   7  214.28   15.50
   5  -8   7   30.70   12.50
   4   7  -7    4.20    3.10
  -4  -7   7   -0.10   10.00
   3   7  -7  124.39    6.30
  -3  -7   7  122.29   14.80
   2   7  -7   50.09    3.80
  -2  -7   7   70.29    8.50
   0   7  -7  275.07   12.60
   0   7  -7  265.77   11.30
   0   7  -7  224.48   11.80
   0  -7   7  253.97   12.40
   0  -7   7  247.38   11.70
  -1   7  -7  323.17   13.70
  -1   7  -7  280.87   12.30
   1  -7   7  249.38   12.40
   1  -7   7  307.37   13.40
  -2   7  -7  352.66   15.50
   3  -7   7    8.90    5.60
   4  -7   7   96.59   12.40
   5  -7   7   37.30   11.30
   5   6  -7    6.70    4.00
  -5  -6   7    2.00   12.80
   4   6  -7  168.88    8.20
  -4  -6   7  130.59   16.50
   3   6  -7    5.90    2.60
  -3  -6   7    8.50    8.30
   2   6  -7  284.27   10.90
  -2  -6   7  297.77   16.00
  -2  -6   7  281.77   12.80
   1   6  -7  115.89    7.10
   1   6  -7  112.99    7.40
   1   6  -7  112.19    8.50
  -1  -6   7  105.79    8.10
  -1  -6   7  107.89    7.20
   0   6  -7   76.49    7.20
   0   6  -7   79.99    5.90
   0  -6   7   63.49    6.90
   0  -6   7   57.59    5.80
  -1   6  -7   36.90    4.80
  -1   6  -7   37.10    5.20
   1  -6   7   37.80    4.00
   1  -6   7   30.30    4.80
   2  -6   7   -6.30    3.40
   3  -6   7  154.68   10.40
   5  -6   7  268.97   19.20
   5   5  -7   57.69    6.60
  -5  -5   7  104.89   17.50
   4   5  -7   22.90    3.60
  -4  -5   7   26.30    9.10
   3   5  -7   39.10    3.70
  -3  -5   7   37.20    8.10
   2   5  -7  109.39    4.90
  -2  -5   7   99.49    7.90
  -2  -5   7  109.99   10.30
  -2  -5   7   89.09    7.20
   1   5  -7   20.60    4.20
   1   5  -7   29.70    3.80
  -1  -5   7   20.50    3.60
  -1  -5   7   24.20    4.50
   0   5  -7  168.78    7.50
   0  -5   7  141.69    7.60
  -1   5  -7   70.39    6.90
  -1   5  -7   91.39    5.60
   1  -5   7   90.39    7.00
   1  -5   7   85.79    5.30
   2  -5   7   13.30    3.80
   3  -5   7   15.10    5.20
   4  -5   7    9.10    7.50
   5  -5   7   32.60    9.80
   5   4  -7   71.89    6.80
  -5  -4   7  100.19   16.50
   4   4  -7   13.70    3.20
  -4  -4   7   18.90    7.80
   3   4  -7  104.59    5.30
  -3  -4   7   91.99   10.70
   2   4  -7  368.36   13.40
  -2  -4   7  368.56   15.10
  -2  -4   7  362.76   16.80
   1   4  -7  272.27   11.80
   1   4  -7  273.77   11.10
  -1  -4   7  272.17   11.20
  -1  -4   7  276.17   12.00
   0   4  -7  150.28    8.30
   0   4  -7  168.48    7.40
   0  -4   7  149.88    7.30
   0  -4   7  154.88    8.40
  -1   4  -7    6.60    3.20
  -1   4  -7    5.10    2.30
   1  -4   7    5.30    2.90
   1  -4   7    2.80    2.10
   2  -4   7  330.47   14.10
   3  -4   7   21.40    5.00
   4  -4   7   44.60    8.00
   5  -4   7   48.00   10.80
  -6   4  -7   -2.20    8.30
   5   3  -7   12.00    3.50
  -5  -3   7   25.00   10.60
   4   3  -7   62.59    5.20
  -4  -3   7   92.59   11.40
   3   3  -7   15.10    2.50
  -3  -3   7   22.00    6.10
   2   3  -7    3.50    1.80
  -2  -3   7    0.80    3.10
  -2  -3   7    1.40    3.00
   1   3  -7   77.39    3.60
   1   3  -7   67.39    6.10
   1   3  -7   79.79    5.20
  -1  -3   7   70.49    5.10
  -1  -3   7   81.59    6.20
   0   3  -7  770.82   26.50
   0   3  -7  737.53   27.00
   0  -3   7  750.92   27.10
   0  -3   7  757.32   26.50
   1  -3   7  316.07   13.10
   2  -3   7   49.20    5.90
   3  -3   7   59.99    5.10
   4  -3   7    5.20    6.70
   5  -3   7   -7.30    9.20
  -6   3  -7   19.10    8.40
   6  -3   7   24.90    4.00
   5   2  -7    3.20    3.20
  -5  -2   7    9.50    8.60
   4   2  -7    1.40    2.80
  -4  -2   7   -3.80    6.30
   3   2  -7  106.29    5.60
  -3  -2   7  109.59    9.30
   2   2  -7   26.50    2.80
  -2  -2   7   38.20    4.90
  -2  -2   7   25.30    3.60
   1   2  -7    2.90    1.40
   1   2  -7   -0.60    2.70
   1   2  -7   -0.20    2.20
  -1  -2   7    2.10    2.80
  -1  -2   7   -0.50    2.20
   0   2  -7  248.78   10.80
   0   2  -7  301.67   11.50
   0  -2   7  291.07   11.40
   0  -2   7  287.77   10.80
   0  -2   7  263.27   11.40
   1  -2   7   30.20    4.40
  -3   2  -7  103.29    7.40
   3  -2   7   86.39    8.50
   3  -2   7   91.69    5.80
  -4   2  -7   12.80    5.50
   4  -2   7   12.50    4.10
  -5   2  -7   -3.70    5.80
  -5   2  -7    3.00    7.90
   5  -2   7    1.70    3.10
   6   1  -7   40.40    5.00
  -6  -1   7   34.30   13.30
   5   1  -7   20.00    3.80
  -5  -1   7   30.40    9.80
   4   1  -7  264.77   11.00
   3   1  -7  145.39    6.80
  -3  -1   7  156.28   10.10
   2   1  -7   53.39    5.30
   2   1  -7   62.39    6.90
   2   1  -7   61.29    5.80
  -2  -1   7   58.09    6.70
  -2  -1   7   73.79    5.30
  -2  -1   7   49.80    5.60
   1   1  -7    9.60    3.10
   1   1  -7   11.10    1.70
  -1  -1   7    9.30    2.50
  -1  -1   7   12.80    3.20
   0   1  -7  641.34   23.50
   0  -1   7  657.23   23.10
   0  -1   7  650.23   23.70
   0  -1   7  663.93   23.50
   1  -1   7   93.29    4.20
   1  -1   7   98.59    6.20
  -2   1  -7  141.39    8.40
   2  -1   7  165.38    9.40
  -3   1  -7   12.20    3.80
  -3   1  -7   14.20    4.30
   3  -1   7   18.50    5.20
   3  -1   7   16.60    3.10
  -4   1  -7    9.80    4.50
  -4   1  -7    8.40    5.80
   4  -1   7    5.10    2.60
   4  -1   7   14.90    4.00
  -5   1  -7  152.88   16.40
  -5   1  -7  171.38   12.10
   5  -1   7  173.48   11.50
   5  -1   7  175.48    7.90
   6   0  -7    9.40    4.00
  -6   0   7    1.40   11.30
   5   0  -7   19.10    3.80
  -5   0   7   15.90    8.20
   4   0  -7   -4.70    2.60
  -4   0   7   -2.30    6.50
   3   0  -7    9.30    5.30
   3   0  -7   13.40    2.70
  -3   0   7   12.50    4.70
   2   0  -7   15.80    2.30
   2   0  -7   16.20    3.60
   2   0  -7   19.20    4.80
   2   0  -7   18.40    3.40
  -2   0   7   15.80    3.60
  -2   0   7   16.00    3.20
  -2   0   7   11.80    3.90
   1   0  -7  157.48    6.30
   1   0  -7  173.28    8.30
   1   0  -7  160.68    7.70
  -1   0   7  158.18    8.00
  -1   0   7  158.28    7.60
   0   0  -7  385.36   14.00
   0   0  -7  368.16   13.90
   0   0  -7  350.36   14.40
   0   0   7  379.96   14.40
   0   0   7  371.76   13.80
  -1   0  -7  985.90   34.80
  -1   0  -7  984.80   34.30
   1   0   7  953.50   35.10
   1   0   7  988.40   33.40
  -2   0  -7   44.70    6.00
  -2   0  -7   40.90    4.80
   2   0   7   43.00    6.40
   2   0   7   42.70    3.70
  -3   0  -7   14.20    3.80
   3   0   7    6.60    4.80
   3   0   7   12.20    3.00
  -5   0  -7   71.89   10.30
   5   0   7   78.79    9.30
   5   0   7   64.79    5.50
   6  -1  -7    6.00    3.80
  -6   1   7    8.50   11.50
   5  -1  -7   33.90    4.20
  -5   1   7   35.70    8.50
   4  -1  -7   34.60    3.90
  -4   1   7   39.30    8.00
   3  -1  -7    6.50    2.40
   2  -1  -7   59.19    5.10
   2  -1  -7   49.40    6.50
   2  -1  -7   51.49    4.10
   2  -1  -7   43.40    5.50
  -2   1   7   54.49    5.70
  -2   1   7   57.69    5.20
   1  -1  -7  255.37    9.20
   1  -1  -7  245.48   10.90
   1  -1  -7  248.78   10.40
  -1   1   7  251.27   10.30
  -1   1   7  250.37   10.80
   0  -1  -7  178.78    8.00
   0  -1  -7  173.48    8.70
   0  -1  -7  182.38    8.10
   0   1   7  192.08    8.40
   0   1   7  172.78    8.90
   0   1   7  182.38    7.80
  -1  -1  -7  238.98    9.90
  -1  -1  -7  213.58   10.60
   1   1   7  240.48   11.10
  -2  -1  -7    0.00    2.90
   2   1   7    0.20    1.90
   2   1   7   -5.10    3.90
  -3  -1  -7   14.00    3.80
   3   1   7   12.40    3.10
  -4  -1  -7   40.10    8.30
  -4  -1  -7   47.30    6.20
   4   1   7   41.80    5.50
  -5  -1  -7    2.00    6.60
   5   1   7    4.60    5.20
   6  -2  -7   16.00    4.70
   5  -2  -7   12.20    4.00
   5  -2  -7   12.20   11.70
   4  -2  -7    4.20    2.80
   3  -2  -7   17.80    3.00
   3  -2  -7   20.00    5.80
   2  -2  -7  117.09    7.30
   2  -2  -7   91.39    4.80
   2  -2  -7   80.39    7.10
   2  -2  -7  108.79    6.80
  -2   2   7   73.79    6.70
   1  -2  -7    5.70    3.20
   1  -2  -7    3.80    2.70
   1  -2  -7    2.50    2.20
   1  -2  -7    5.30    3.10
  -1   2   7    2.80    3.20
   0  -2  -7  157.78    7.30
   0  -2  -7  146.89    7.90
   0   2   7  141.79    6.90
  -1  -2  -7  256.57   11.90
  -1  -2  -7  265.37   10.90
   1   2   7  249.68   12.10
  -2  -2  -7  555.74   22.00
  -2  -2  -7  535.55   20.60
   2   2   7  543.35   19.80
  -3  -2  -7  105.59    8.00
   3   2   7  111.69    7.00
  -4  -2  -7   -3.80    6.40
  -4  -2  -7    1.40    5.10
   4   2   7   -1.40    3.80
  -5  -2  -7   37.70    8.20
   5   2   7   25.70    5.90
   6  -3  -7  136.09    8.50
   5  -3  -7   -0.40   11.90
   5  -3  -7   -1.50    3.60
   4  -3  -7  184.58    8.70
   3  -3  -7  532.95   22.70
   3  -3  -7  540.05   19.50
   3  -3  -7  526.25   21.00
  -3   3   7  565.14   21.30
   2  -3  -7  772.22   28.50
   2  -3  -7  776.92   29.30
   2  -3  -7  774.52   26.90
   2  -3  -7  799.22   28.20
  -2   3   7  764.02   28.50
   1  -3  -7   16.10    3.70
   1  -3  -7   18.30    4.10
   1  -3  -7   20.80    3.10
  -1   3   7   21.50    3.60
  -1   3   7   16.60    4.10
  -1   3   7   20.40    3.20
   0   3   7   22.20    4.00
  -1  -3  -7  287.77   13.20
  -1  -3  -7  357.66   14.60
  -2  -3  -7   34.10    6.10
   3   3   7  116.49    7.50
  -4  -3  -7   43.20    7.00
  -4  -3  -7   42.40    9.10
   4   3   7   39.50    5.30
  -5  -3  -7    3.90    8.10
   5   3   7   -0.40    5.60
   6  -4  -7   -1.20    3.80
   5  -4  -7   40.20   13.10
   5  -4  -7   33.00    4.80
   4  -4  -7  348.67   13.80
   3  -4  -7   47.80    5.90
   3  -4  -7   34.30    5.70
   3  -4  -7   40.50    3.90
  -3   4   7   38.50    5.80
  -3   4   7   35.50    5.50
   2  -4  -7  358.96   13.20
   2  -4  -7  367.56   15.60
   2  -4  -7  369.26   15.80
   2  -4  -7  356.26   15.10
  -2   4   7  369.86   15.40
  -2   4   7  342.07   14.90
  -2   4   7  366.06   14.10
   1  -4  -7    1.20    4.20
   1  -4  -7    0.10    3.50
   1  -4  -7   -1.00    2.90
  -1   4   7   -2.80    3.40
  -1   4   7    1.50    3.80
  -1   4   7    2.30    3.30
   0  -4  -7   12.30    3.30
   0  -4  -7   15.60    3.60
   0   4   7   13.10    3.50
  -1  -4  -7  620.54   22.90
  -1  -4  -7  598.44   25.30
  -2  -4  -7  799.22   31.50
  -2  -4  -7  806.02   30.10
   2   4   7  841.82   29.20
  -3  -4  -7   34.60    7.70
  -3  -4  -7   44.30    6.10
   3   4   7   35.40    4.70
  -4  -4  -7   19.50    6.90
   4   4   7   17.70    4.90
   6  -5  -7   -0.40    4.20
   5  -5  -7   65.49    6.50
   5  -5  -7   84.19   15.90
   4  -5  -7    2.30    7.80
   4  -5  -7   10.30    3.80
  -4   5   7   25.90    6.10
   3  -5  -7    6.80    2.70
   3  -5  -7    8.80    5.30
   3  -5  -7   13.50    5.10
  -3   5   7   11.40    4.90
  -3   5   7   18.10    5.30
   2  -5  -7  236.78   12.20
   2  -5  -7  221.08   10.60
   2  -5  -7  260.47   12.20
   2  -5  -7  215.08    9.00
   2  -5  -7  248.18   11.90
  -2   5   7  243.88   11.90
  -2   5   7  221.08   11.20
   1  -5  -7  177.68    9.50
   1  -5  -7  161.68    8.70
   1  -5  -7  156.48   10.00
  -1   5   7  167.78    9.80
  -1   5   7  166.18    9.00
  -1   5   7  157.78    8.90
   0  -5  -7   -0.20    3.40
   0  -5  -7   -0.60    4.90
   0  -5  -7    0.90    3.10
   0   5   7    1.90    3.30
  -1  -5  -7   72.19    6.50
  -1  -5  -7   64.09    8.90
  -2  -5  -7    7.00    4.60
   2   5   7    0.80    3.00
  -3  -5  -7    9.60    5.40
  -3  -5  -7   -9.30    7.50
   3   5   7    6.30    3.50
  -4  -5  -7   26.60    8.10
   4   5   7   29.20    5.80
   5  -6  -7   31.30    4.50
   4  -6  -7   70.19    6.00
   4  -6  -7   80.49   13.00
  -4   6   7   89.39   10.20
  -4   6   7   81.29   11.40
   3  -6  -7    2.40    5.40
   3  -6  -7    0.50    3.00
   3  -6  -7    1.60    6.00
  -3   6   7    4.00    5.30
  -3   6   7    5.60    5.50
   2  -6  -7  114.69    9.50
   2  -6  -7  121.79    9.40
   2  -6  -7  104.39   12.80
   2  -6  -7  127.49    8.60
  -2   6   7  113.19    9.80
  -2   6   7  149.88    9.80
  -2   6   7  119.89    9.80
   1  -6  -7   61.59    7.50
   1  -6  -7   48.10    6.30
   1  -6  -7   53.49    6.60
  -1   6   7   53.79    6.90
  -1   6   7   62.79    7.80
  -1   6   7   65.99    7.50
   0  -6  -7  274.87   12.50
   0  -6  -7  259.17   12.30
   0  -6  -7  257.47   13.40
   0   6   7  254.87   12.20
   0   6   7  265.07   12.40
   0   6   7  270.07   12.80
  -1  -6  -7    1.80    6.20
  -2  -6  -7   31.60    8.80
  -2  -6  -7   37.50    6.10
   2   6   7   24.60    4.20
  -3  -6  -7  151.08   18.70
  -3  -6  -7  156.28   12.70
   3   6   7  132.99    9.40
  -4  -6  -7    5.50    9.40
   4   6   7    1.70    5.30
   5  -7  -7   13.90    4.20
   4  -7  -7  135.49    7.20
   4  -7  -7  109.29   14.90
  -4   7   7  144.79   12.10
  -4   7   7  135.29   13.10
   3  -7  -7   13.10    6.90
   3  -7  -7   13.80    3.10
   3  -7  -7   15.50    7.50
  -3   7   7   17.80    7.10
  -3   7   7   16.60    6.20
   2  -7  -7   68.49    7.40
   2  -7  -7   75.09   10.70
   2  -7  -7   81.49    8.60
  -2   7   7   78.49    9.20
  -2   7   7   75.29   10.00
  -2   7   7   64.09    8.50
   1  -7  -7  152.18   11.40
  -1   7   7  114.99   10.20
  -1   7   7  166.58    9.90
   0  -7  -7  211.48   13.20
   0  -7  -7  227.78   12.00
   0   7   7  221.48   11.90
  -1  -7  -7   18.00    4.80
  -2  -7  -7   21.10    6.40
  -2  -7  -7   29.90   10.40
   2   7   7   18.50    6.90
   2   7   7   22.80    4.50
  -3  -7  -7    8.00    8.00
   3   7   7    2.60    4.20
   5  -8  -7   35.80    4.70
  -5   8   7   26.80   10.00
   4  -8  -7   -3.00    9.50
   4  -8  -7    5.60    3.50
  -4   8   7   11.60    7.90
  -4   8   7   21.10    9.90
   3  -8  -7    5.90    6.60
   3  -8  -7    9.80    8.50
   3  -8  -7   -2.90    8.60
   3  -8  -7    6.10    7.60
  -3   8   7    8.10    8.30
  -3   8   7   -3.00    6.40
  -3   8   7    7.90   12.50
   2  -8  -7   -3.60    7.50
   2  -8  -7    2.30    6.10
   2  -8  -7    0.30    6.70
  -2   8   7    8.90    7.20
  -2   8   7   -4.00    5.80
  -2   8   7    5.90    6.60
   1  -8  -7  173.08   11.50
   1  -8  -7  168.58   12.40
   1  -8  -7  164.58   13.90
  -1   8   7  167.28   12.00
  -1   8   7  185.08   12.50
  -1   8   7  173.38   12.30
   0  -8  -7    5.90    7.90
   0  -8  -7   12.80    5.50
   0  -8  -7   14.30    5.20
   0   8   7    6.10    6.20
   0   8   7   12.00    6.60
  -1  -8  -7  100.79    9.80
  -1  -8  -7  121.89   14.80
   1   8   7   88.69   11.40
  -2  -8  -7   49.20    8.00
  -2  -8  -7   55.99   13.50
   2   8   7   36.30    5.40
  -3  -8  -7   98.49   11.20
   3   8   7   90.29    9.70
   4  -9  -7   25.80   11.60
  -4   9   7   37.00    9.90
  -4   9   7   43.90   12.70
   3  -9  -7    6.20    8.00
   3  -9  -7    9.90    8.80
   3  -9  -7  -12.20   10.60
  -3   9   7   15.20   10.30
  -3   9   7   -1.40    8.10
  -3   9   7    5.00    8.20
   2  -9  -7  118.59   13.20
   2  -9  -7   98.49   11.30
   2  -9  -7   82.29   12.00
  -2   9   7  127.89   14.20
  -2   9   7   97.49   12.40
  -2   9   7   83.79    9.50
   1  -9  -7   57.49    8.10
   1  -9  -7   52.99    8.20
   1  -9  -7   58.69   10.50
  -1   9   7   46.80    8.60
  -1   9   7   40.40    8.20
  -1   9   7   55.99    9.00
   0  -9  -7   14.60    9.90
   0  -9  -7    8.00    7.00
   0  -9  -7    4.70    6.50
   0   9   7   22.40    7.90
   0   9   7   13.80    7.20
  -1  -9  -7  109.89   18.30
  -1  -9  -7   81.89   12.20
  -1  -9  -7   82.49    9.30
  -2  -9  -7   28.90    8.70
   2   9   7    3.70    4.70
   4 -10  -7   30.30   13.80
  -4  10   7   37.40   11.20
  -4  10   7   25.00   12.20
  -4  10   7   32.30   16.50
   3 -10  -7   18.90    9.70
   3 -10  -7   -5.40   10.30
   3 -10  -7    4.50   13.30
  -3  10   7   10.40    9.60
  -3  10   7    5.60   10.10
  -3  10   7   41.70   12.60
   2 -10  -7  124.79   14.20
   2 -10  -7  112.69   12.00
   2 -10  -7  130.29   14.10
  -2  10   7  172.58   18.30
  -2  10   7  148.19   14.50
  -2  10   7  107.99   15.00
   1 -10  -7   47.70    9.80
   1 -10  -7   60.39    9.70
   1 -10  -7   53.49   12.80
  -1  10   7   69.99   11.20
  -1  10   7   48.90    9.80
   0 -10  -7   28.60    8.70
   0 -10  -7   28.90   12.80
   0 -10  -7   32.20   12.60
   0 -10  -7   32.30    9.00
  -1 -10  -7   -4.80    8.50
  -1 -10  -7   17.70   15.40
   3 -11  -7  238.78   23.10
   3 -11  -7  280.37   20.90
  -3  11   7  330.97   27.50
  -3  11   7  224.88   20.00
   2 -11  -7    8.30   11.10
   2 -11  -7    8.70   10.20
   2 -11  -7   -8.70   15.20
  -2  11   7   -6.90   11.10
  -2  11   7   29.60   15.20
   1 -11  -7   15.20   10.70
   1 -11  -7    5.90   15.40
   1 -11  -7  -14.60   10.10
  -1  11   7    8.60   10.80
   0 -11  -7  130.29   16.80
   0 -11  -7  159.48   24.80
   0 -11  -7  133.79   18.20
   0  13  -8   69.09   12.10
   0 -13   8   74.89   15.40
   0 -13   8   96.39   16.80
  -1  13  -8   27.70   15.20
  -1  13  -8    2.60    9.70
   1 -13   8   30.30   13.50
   1 -13   8    0.50   14.70
  -2  13  -8    3.60   15.40
  -2  13  -8  -19.50    8.90
   2 -13   8   23.50   14.80
   1  12  -8   29.90   10.40
   1  12  -8    1.20   11.50
  -1 -12   8    1.00   11.10
  -1 -12   8   36.50   14.40
   0  12  -8   43.30    9.20
   0  12  -8   37.70   13.30
   0  12  -8   13.40   12.90
   0 -12   8   69.59   12.50
   0 -12   8   66.29   13.00
  -1  12  -8   55.19    9.00
  -1  12  -8   39.10   12.60
   1 -12   8   59.29   12.20
   1 -12   8   74.09   12.50
  -2  12  -8   -7.20    7.10
  -2  12  -8    7.20   12.00
   2 -12   8    8.60   13.90
   2 -12   8   21.90   11.90
  -3  12  -8   75.09   18.00
  -3  12  -8   59.69    9.20
   3 -12   8   74.49   12.50
   3 -12   8   90.19   14.70
   2  11  -8   12.10   10.90
   2  11  -8    1.10    2.90
  -2 -11   8    5.00   13.60
  -2 -11   8   -3.20    9.90
   1  11  -8    8.40   11.20
   1  11  -8   17.10    9.00
   1  11  -8   18.80    8.40
  -1 -11   8    2.40    9.10
  -1 -11   8    7.80   10.40
   0  11  -8   21.70    9.00
   0  11  -8   24.00    7.40
   0  11  -8   12.70    9.80
   0 -11   8   22.50    9.20
  -1  11  -8   42.50    9.50
  -1  11  -8   41.50   10.30
   1 -11   8   61.29    9.80
   1 -11   8   52.49   10.30
  -2  11  -8   61.29    9.60
  -2  11  -8   56.39    7.30
   2 -11   8   76.09   10.30
  -3  11  -8   26.00   11.10
  -3  11  -8   -0.20    6.80
   3 -11   8    2.50    9.00
  -4  11  -8   15.60    7.60
   4 -11   8    9.00   11.40
   3  10  -8   32.50    4.30
  -3 -10   8   19.60   19.40
   2  10  -8  245.48   16.30
   2  10  -8  242.58   10.40
  -2 -10   8  252.17   16.60
  -2 -10   8  241.08   19.00
   1  10  -8  168.58   15.60
   1  10  -8  176.28   12.60
  -1 -10   8  141.39   14.20
   0  10  -8   11.60    7.70
   0  10  -8   12.30    8.50
   0  10  -8   12.20    6.10
   0 -10   8    1.60    7.20
   0 -10   8   14.00    8.00
  -1  10  -8   -1.50    7.90
  -1  10  -8   -3.90    5.40
  -1  10  -8    5.40    7.10
   1 -10   8   10.80    7.90
   1 -10   8    0.70    6.80
  -2  10  -8  156.78   10.90
  -2  10  -8  140.99   14.40
   2 -10   8  162.38   15.00
   2 -10   8  155.28   13.50
   4 -10   8  136.39   16.60
   3   9  -8   16.80    3.70
  -3  -9   8   46.10   15.10
   2   9  -8   -2.10    6.90
   2   9  -8    0.90    2.40
  -2  -9   8   -5.80    7.10
  -2  -9   8   15.30    8.50
   1   9  -8  257.77   15.10
   1   9  -8  221.28   12.80
   1   9  -8  185.08   13.20
  -1  -9   8  235.98   14.10
  -1  -9   8  206.58   14.70
   0   9  -8  247.58   15.20
   0   9  -8  260.47   13.00
   0   9  -8  264.37   14.00
   0  -9   8  263.27   14.40
   0  -9   8  229.08   14.50
  -1   9  -8   77.89    8.30
  -1   9  -8   73.39    8.50
   1  -9   8   68.49    8.40
   1  -9   8   69.29    7.20
  -2   9  -8    1.90    6.90
   2  -9   8   -2.00    6.60
   2  -9   8    4.40    5.90
   3  -9   8  116.69   11.90
   4  -9   8   18.70    9.70
   5  -9   8   33.80   14.20
   4   8  -8    7.70    3.60
  -4  -8   8  -11.60   14.00
   3   8  -8   18.60    3.50
  -3  -8   8   16.20   12.10
   2   8  -8   19.20    2.80
   2   8  -8   20.20    6.00
  -2  -8   8   18.50    6.80
  -2  -8   8   33.40    7.30
  -2  -8   8   26.30   10.50
   1   8  -8   14.90    5.00
   1   8  -8    4.30    5.40
   1   8  -8   18.40    6.60
  -1  -8   8   12.30    5.60
  -1  -8   8    9.70    5.90
   0   8  -8  212.38   12.20
   0   8  -8  241.68   11.50
   0  -8   8  209.58   12.90
   0  -8   8  236.58   14.50
  -1   8  -8  156.18    9.30
  -1   8  -8  155.78   12.00
   1  -8   8  167.68   11.60
   1  -8   8  163.98   10.50
  -2   8  -8   42.70    5.20
  -2   8  -8   36.30    6.80
   2  -8   8   38.10    6.80
   2  -8   8   35.40    5.60
   3  -8   8   11.80    6.50
   4  -8   8   15.40    9.00
   5  -8   8    2.00   12.30
   4   7  -8   23.20    4.20
  -4  -7   8    9.80   12.60
   3   7  -8   19.70    3.20
  -3  -7   8   23.30   11.00
   2   7  -8   17.50    4.90
   2   7  -8   11.50    2.40
   2   7  -8   18.20    6.10
  -2  -7   8   24.80    5.90
  -2  -7   8   14.00    5.90
   1   7  -8    2.60    4.60
   1   7  -8    2.40    4.20
   1   7  -8   -0.10    5.20
  -1  -7   8    7.80    4.70
  -1  -7   8    0.50    4.60
   0   7  -8  227.58   10.80
   0   7  -8  214.28   12.30
   0  -7   8  223.48   10.80
   0  -7   8  207.98   11.70
  -1   7  -8   11.80    5.30
  -1   7  -8    8.30    3.90
   1  -7   8   16.30    4.10
   1  -7   8    4.00    4.90
  -2   7  -8  841.02   31.60
   2  -7   8  864.81   32.20
   4  -7   8  115.39   13.80
   5  -7   8   14.50   12.00
   4   6  -8  562.74   21.90
  -4  -6   8  606.74   29.00
   3   6  -8   24.60    3.40
  -3  -6   8   19.30    9.50
   2   6  -8   12.90    2.30
   2   6  -8    9.70    5.20
  -2  -6   8   10.10    4.90
  -2  -6   8   12.00    5.30
   1   6  -8   14.10    4.00
   1   6  -8    6.40    4.10
  -1  -6   8   11.90    4.00
  -1  -6   8   10.40    4.80
   0   6  -8  340.27   13.70
   0   6  -8  327.57   14.80
   0  -6   8  338.67   14.90
   0  -6   8  337.27   13.80
  -1   6  -8    6.20    3.40
  -1   6  -8    5.30    4.40
   1  -6   8    2.30    4.60
   2  -6   8   93.09    7.90
   3  -6   8   40.90    6.70
   4  -6   8   84.79   13.00
   5  -6   8   20.00   11.60
   5   5  -8    6.40    4.10
  -5  -5   8   23.60   12.10
   4   5  -8   71.19    5.80
  -4  -5   8   82.89   14.30
   3   5  -8  213.98    9.10
  -3  -5   8  219.58   16.90
   2   5  -8  143.59    6.20
   2   5  -8  140.39    9.40
  -2  -5   8  138.89    8.90
  -2  -5   8  136.39    9.70
  -2  -5   8  139.39   12.00
   1   5  -8    6.10    3.10
   1   5  -8    5.80    4.30
  -1  -5   8    0.70    3.30
  -1  -5   8    3.30    4.30
   0   5  -8    4.10    4.00
   0   5  -8    7.60    3.00
   0  -5   8   -1.70    3.00
   0  -5   8    0.30    3.90
  -1   5  -8  282.37   11.40
   1  -5   8  268.87   12.60
   1  -5   8  271.77   11.40
   2  -5   8   43.20    6.50
   3  -5   8   57.09    8.80
   4  -5   8    7.00    7.70
   5  -5   8   -6.70    9.50
   5   4  -8   13.70    4.30
  -5  -4   8   11.70   11.30
  -4  -4   8   16.90    8.40
   3   4  -8  123.29    6.40
  -3  -4   8  145.99   12.10
   2   4  -8   18.40    3.90
   2   4  -8   23.60    4.80
   2   4  -8   17.10    2.40
  -2  -4   8   19.70    4.70
  -2  -4   8   25.60    4.10
   1   4  -8    6.10    3.20
   1   4  -8    2.60    1.60
   1   4  -8    6.90    4.10
  -1  -4   8    6.60    4.30
  -1  -4   8   10.70    3.00
   0   4  -8  377.16   15.70
   0   4  -8  377.96   14.50
   0  -4   8  386.36   14.70
   0  -4   8  382.66   15.70
  -1   4  -8  245.68   10.30
  -1   4  -8  256.37   11.50
   1  -4   8  246.08   11.50
   2  -4   8    9.30    3.90
   3  -4   8   12.10    5.20
   4  -4   8   -2.20    7.40
   5  -4   8   12.30   10.00
   5   3  -8   29.40    4.70
  -5  -3   8   33.10   10.90
   4   3  -8    0.60    3.00
  -4  -3   8    4.30    7.80
   3   3  -8   43.20    4.10
  -3  -3   8   44.80    7.70
   2   3  -8   10.40    2.20
   2   3  -8   12.20    3.70
  -2  -3   8   17.50    4.30
  -2  -3   8   12.50    3.60
   1   3  -8   16.60    4.10
   1   3  -8   16.00    3.30
   1   3  -8   14.90    2.00
  -1  -3   8   18.50    3.20
   0   3  -8  108.29    7.60
   0   3  -8   82.29    5.90
   0  -3   8  100.49    6.00
   0  -3   8  123.29    7.60
  -1   3  -8  112.09    8.00
   1  -3   8  134.69    7.90
   2  -3   8  360.76   15.80
   3  -3   8  298.87   12.20
   3  -3   8  302.47   15.40
   4  -3   8   24.20    7.60
  -5   3  -8   -4.30    6.30
   5  -3   8    0.20   10.30
   5   2  -8  114.59    7.80
  -5  -2   8  148.59   16.00
   4   2  -8   76.59    5.90
  -4  -2   8   92.19   11.50
   3   2  -8   64.69    4.60
  -3  -2   8   58.99    8.90
   2   2  -8    1.50    1.90
   2   2  -8    4.50    3.70
  -2  -2   8    4.90    4.70
  -2  -2   8    0.20    3.50
  -2  -2   8   -1.60    3.30
   1   2  -8   30.40    3.70
   1   2  -8   30.70    4.40
  -1  -2   8   34.40    4.40
  -1  -2   8   26.20    3.70
   0   2  -8   75.29    5.20
   0  -2   8   74.69    6.40
   0  -2   8   80.39    5.90
   0  -2   8   84.49    5.10
   1  -2   8  936.01   33.90
   2  -2   8  306.57   13.30
   2  -2   8  252.37   10.60
   3  -2   8  165.18   11.30
   3  -2   8  158.18    8.00
  -4   2  -8  233.78   12.70
  -4   2  -8  235.88   14.30
   4  -2   8  243.28   11.90
   4  -2   8  226.18   15.50
  -5   2  -8  157.38   12.20
   5   1  -8   27.20    4.20
  -5  -1   8   27.50    9.60
   4   1  -8   34.70    4.10
  -4  -1   8   40.50    8.10
   3   1  -8    6.40    2.70
  -3  -1   8    0.10    5.10
  -3  -1   8    2.40    4.10
   2   1  -8  520.65   19.60
   2   1  -8  506.45   21.30
   2   1  -8  515.45   20.00
   2   1  -8  541.85   18.50
  -2  -1   8  517.15   20.80
  -2  -1   8  533.85   20.00
  -2  -1   8  498.35   19.30
   1   1  -8  277.17   10.30
   1   1  -8  295.97   12.30
  -1  -1   8  272.17   11.40
  -1  -1   8  279.07   12.10
   0   1  -8   33.70    4.40
   0  -1   8   27.60    4.70
   0  -1   8   36.30    3.40
   0  -1   8   37.30    5.30
   1  -1   8  294.97   10.60
   1  -1   8  283.77   12.80
  -2   1  -8   72.79    6.60
   2  -1   8   73.79    8.10
   2  -1   8   75.29    4.80
  -3   1  -8    7.30    4.30
   3  -1   8    9.10    5.20
   3  -1   8    9.10    3.20
  -4   1  -8  203.78   14.10
  -4   1  -8  195.68   11.80
   4  -1   8  207.98   15.10
   4  -1   8  212.38   10.90
  -5   1  -8   16.50    7.40
   5  -1   8   21.70    6.00
   6   0  -8    0.50    4.10
  -6   0   8    1.50   12.90
   5   0  -8   26.70    4.10
  -5   0   8   25.00    9.10
   4   0  -8    1.00    3.10
  -4   0   8    0.50    6.10
   3   0  -8   52.89    4.70
   3   0  -8   74.39    9.80
   2   0  -8  658.43   22.80
   2   0  -8  620.24   24.10
   2   0  -8  670.03   25.70
   2   0  -8  660.43   23.80
  -2   0   8  670.13   24.40
  -2   0   8  632.24   23.80
  -2   0   8  637.34   24.70
   1   0  -8  162.28    8.10
   1   0  -8  160.58    6.40
   1   0  -8  161.48    7.30
   1   0  -8  147.99    8.80
  -1   0   8  151.68    8.00
  -1   0   8  162.68    8.60
   0   0  -8   61.19    5.30
   0   0  -8   54.69    4.80
   0   0  -8   54.89    5.20
   0   0   8   50.29    4.80
   0   0   8   59.89    5.70
   0   0   8   67.19    6.10
  -1   0  -8   65.29    5.90
  -1   0  -8   62.59    5.20
   1   0   8   55.39    7.20
   1   0   8   67.19    3.60
  -2   0  -8   73.19    6.10
  -2   0  -8   81.89    7.70
   2   0   8   75.39    8.00
   2   0   8   78.49    4.80
  -3   0  -8  252.07   12.00
   3   0   8  244.88   14.20
   3   0   8  245.68   10.90
  -4   0  -8   10.30    7.10
  -4   0  -8   -4.10    5.40
   4   0   8   13.30    4.40
  -5   0  -8    4.40    7.30
   5   0   8    0.60    5.50
   6  -1  -8   13.30    4.80
   5  -1  -8   66.49    6.30
  -5   1   8   74.59   10.50
   4  -1  -8   -1.10    3.00
  -4   1   8    8.40    6.10
   3  -1  -8    6.80    2.80
  -3   1   8    6.40    3.90
   2  -1  -8   33.10    3.20
   2  -1  -8   52.69    7.20
   2  -1  -8   27.40    4.50
  -2   1   8   41.60    5.90
  -2   1   8   47.90    6.00
   1  -1  -8   11.20    2.20
   0  -1  -8  114.79    6.40
   0  -1  -8  108.39    7.80
   0  -1  -8  115.39    6.70
   0   1   8  111.59    6.60
   0   1   8  113.89    7.90
   0   1   8  117.79    7.10
  -1  -1  -8   24.80    3.70
  -1  -1  -8   24.90    4.60
   1   1   8   22.60    4.80
  -2  -1  -8    5.60    3.50
  -2  -1  -8    7.20    4.30
   2   1   8    3.70    4.80
   2   1   8    3.50    2.40
  -3  -1  -8   13.90    4.40
   3   1   8   15.30    3.40
  -4  -1  -8   10.60    7.80
  -4  -1  -8    6.80    5.80
   4   1   8   -1.20    4.20
  -5  -1  -8   11.40    7.50
   5   1   8    5.20    5.90
   6  -2  -8   60.89    6.40
   5  -2  -8   -1.20    3.70
   5  -2  -8    3.10   12.40
   4  -2  -8  101.69    6.50
   3  -2  -8  447.06   15.90
   3  -2  -8  396.86   17.80
   3  -2  -8  438.36   19.70
   3  -2  -8  424.76   17.80
  -3   2   8  443.86   18.00
  -3   2   8  409.36   17.20
   2  -2  -8  200.48   10.90
   2  -2  -8  198.78   10.30
   2  -2  -8  188.58   15.60
  -2   2   8  214.08   10.50
  -2   2   8  194.28    9.80
   1  -2  -8   25.90    4.60
   1  -2  -8   29.20    3.60
   1  -2  -8   30.00    4.20
  -1   2   8   28.20    3.90
  -1  -2  -8   26.30    3.90
   1   2   8   24.60    5.00
  -2  -2  -8 2576.54   83.79
  -2  -2  -8 2595.14   85.09
   2   2   8 2129.79   84.39
  -3  -2  -8  214.98   11.30
   3   2   8  205.18   10.30
  -4  -2  -8    4.90    9.70
  -4  -2  -8    6.70    6.20
   4   2   8   11.80    4.60
  -5  -2  -8   18.40    8.90
   5   2   8    7.60    6.10
   6  -3  -8    5.30    4.90
   5  -3  -8   10.50    4.30
   4  -3  -8  341.07   13.70
  -4   3   8  353.56   16.10
  -4   3   8  336.67   16.20
   3  -3  -8  430.76   15.70
   3  -3  -8  396.96   19.20
   3  -3  -8  408.26   17.60
  -3   3   8  435.26   18.00
   2  -3  -8  339.07   13.50
  -2   3   8  253.47   13.30
   1  -3  -8   95.69    7.90
   1  -3  -8   95.29    6.40
   1  -3  -8   93.99    7.40
   1  -3  -8   92.89    8.00
  -1   3   8   84.19    7.70
   0  -3  -8  177.68    8.80
   0  -3  -8  178.48    9.30
   0   3   8  190.98    9.90
  -1  -3  -8   31.90    4.40
  -2  -3  -8   49.30    6.90
  -2  -3  -8   48.80    7.10
   2   3   8   64.79    5.30
  -3  -3  -8  315.77   15.00
  -3  -3  -8  307.87   17.40
   3   3   8  319.07   13.80
  -4  -3  -8  117.19   11.90
   4   3   8  106.99    9.20
   5  -4  -8    1.60    3.90
   4  -4  -8  120.79    7.40
  -4   4   8  126.39   10.80
   3  -4  -8  309.77   12.30
   3  -4  -8  323.17   15.20
   3  -4  -8  318.87   15.00
  -3   4   8  316.37   15.10
   2  -4  -8  104.59    8.80
   2  -4  -8  104.19    9.30
   2  -4  -8  121.59    9.60
  -2   4   8  117.29    9.00
  -2   4   8  110.59    8.50
   1  -4  -8   60.19    7.40
   1  -4  -8   71.99    8.00
   1  -4  -8   63.09    6.30
   1  -4  -8   78.39    8.00
  -1   4   8   68.89    7.60
  -1   4   8   72.59    7.00
  -1   4   8   74.19    6.30
   0  -4  -8   22.10    3.90
   0  -4  -8   19.30    4.10
   0  -4  -8   21.90    5.10
   0   4   8   21.50    4.80
  -1  -4  -8   48.60    6.80
  -1  -4  -8   46.70    5.30
  -2  -4  -8   -2.00    4.10
   2   4   8   -0.80    2.90
  -3  -4  -8   47.20    9.10
  -3  -4  -8   63.19    9.30
   3   4   8   57.79    6.10
  -4  -4  -8  173.08   14.00
   4   4   8  207.48   12.00
   5  -5  -8    4.30    4.20
   4  -5  -8   31.10   10.30
   4  -5  -8   44.70    5.00
   4  -5  -8   45.50    8.40
  -4   5   8   50.79    7.50
   3  -5  -8   84.39   10.10
   3  -5  -8   90.79   10.10
   3  -5  -8   86.39    5.60
  -3   5   8  101.69    9.80
  -3   5   8   74.79    9.70
   2  -5  -8   12.60    5.30
   2  -5  -8   19.00    4.10
   2  -5  -8    7.80    5.70
   2  -5  -8   10.10    7.40
  -2   5   8    5.40    5.20
  -2   5   8   10.10    5.30
  -2   5   8   17.90    4.50
   1  -5  -8   92.69    7.70
   1  -5  -8  103.09    9.90
   1  -5  -8  112.79    9.10
  -1   5   8  114.49    8.50
  -1   5   8  122.09    8.20
  -1   5   8  110.59    9.00
   0  -5  -8  163.28    9.40
   0  -5  -8  127.69    8.70
   0  -5  -8  133.39   10.40
   0   5   8  130.79    8.90
   0   5   8  160.38    9.70
  -1  -5  -8   15.50    5.60
  -1  -5  -8   10.70    6.20
  -2  -5  -8  -11.10    7.00
  -2  -5  -8    4.70    4.70
   2   5   8   -0.90    3.30
  -3  -5  -8   22.70    6.40
  -3  -5  -8   11.60    9.40
   3   5   8   21.30    4.90
  -4  -5  -8   10.30    9.00
   4   5   8   13.60    5.80
   5  -6  -8   45.60    5.20
   4  -6  -8   15.20   10.40
   4  -6  -8   13.90    8.20
   4  -6  -8   11.00    3.90
  -4   6   8   26.10    8.20
  -4   6   8   29.00    7.60
   3  -6  -8   14.00   12.20
   3  -6  -8   -2.80    7.20
   3  -6  -8    8.90    6.40
  -3   6   8   12.40    6.30
  -3   6   8    9.20    6.80
   2  -6  -8    7.10    6.00
   2  -6  -8    2.10    4.70
   2  -6  -8    6.80    6.70
   2  -6  -8   -2.60    5.30
  -2   6   8    5.00    5.10
  -2   6   8   -5.80    5.30
  -2   6   8   11.50    6.10
   1  -6  -8  161.78   10.30
   1  -6  -8  126.59    9.00
   1  -6  -8  149.69   11.30
  -1   6   8  145.39    9.80
  -1   6   8  133.59    9.90
  -1   6   8  148.49   10.50
   0  -6  -8  179.08   11.10
   0  -6  -8  188.08   11.00
   0  -6  -8  176.88   12.70
   0   6   8  186.38   10.90
   0   6   8  210.98   11.10
  -1  -6  -8   86.19    8.50
  -1  -6  -8   71.29    9.00
  -2  -6  -8   39.50    6.70
  -2  -6  -8   21.20    8.70
   2   6   8   33.00    4.80
  -3  -6  -8  105.79   13.10
   3   6   8  113.29    9.30
   5  -7  -8   94.49    7.40
   4  -7  -8   44.30    4.50
   4  -7  -8   36.40   10.50
  -4   7   8   44.70   10.30
  -4   7   8   55.59    8.70
   3  -7  -8  101.49   12.70
   3  -7  -8  117.39   13.60
   3  -7  -8  104.29   14.00
   3  -7  -8  103.39    6.10
  -3   7   8   97.39   12.40
   2  -7  -8   55.99    8.50
   2  -7  -8   58.49    8.70
   2  -7  -8   66.59    8.10
   2  -7  -8   75.59    9.40
  -2   7   8   69.99    9.80
  -2   7   8   63.69    7.80
  -2   7   8   85.49   10.40
   1  -7  -8   62.99    9.20
   1  -7  -8   71.79    7.80
  -1   7   8   71.39    9.70
  -1   7   8   71.49    7.60
  -1   7   8   71.09    7.80
   0  -7  -8   24.10    6.10
   0  -7  -8   11.60    8.00
   0  -7  -8   10.60    5.40
   0   7   8   20.20    6.10
   0   7   8    2.50    6.30
  -1  -7  -8    6.60    9.20
  -1  -7  -8    7.00    5.30
   1   7   8   23.00    6.30
  -2  -7  -8  -21.40   10.40
  -2  -7  -8    9.00    7.00
   2   7   8    1.70    3.90
  -3  -7  -8   -8.90    8.70
   3   7   8    0.50    4.90
   4  -8  -8   11.10    4.00
   4  -8  -8   25.10   10.80
  -4   8   8   17.20    9.20
  -4   8   8    5.10   11.10
   3  -8  -8    8.20    8.80
   3  -8  -8   34.10   10.70
   3  -8  -8   10.00   10.00
  -3   8   8   14.30    7.80
  -3   8   8    8.10    9.20
  -3   8   8   20.50    8.50
   2  -8  -8  174.38   16.10
   2  -8  -8  185.38   14.40
   2  -8  -8  194.28   13.50
  -2   8   8  180.58   13.50
  -2   8   8  186.78   15.20
  -2   8   8  200.38   14.10
   1  -8  -8    6.60    6.20
   1  -8  -8    4.30    7.70
  -1   8   8   10.70    7.30
  -1   8   8   19.10    7.50
  -1   8   8    5.10    7.30
   0  -8  -8    7.30    9.10
   0  -8  -8   18.10    5.90
   0  -8  -8   16.70    7.00
   0   8   8   15.80    7.10
  -1  -8  -8   11.00   10.30
  -1  -8  -8    9.40   10.80
  -1  -8  -8    8.40    6.20
  -2  -8  -8   10.70    7.90
   2   8   8   16.10    5.30
   4  -9  -8   68.19   13.20
  -4   9   8   39.20   11.20
  -4   9   8   29.40   13.90
   3  -9  -8   40.60    9.40
   3  -9  -8   66.19   10.30
   3  -9  -8   24.00   12.50
  -3   9   8   35.90   12.20
  -3   9   8   28.10    9.80
  -3   9   8   39.30   10.70
   2  -9  -8  126.89   16.80
   2  -9  -8   93.59   13.20
   2  -9  -8  110.59   13.50
  -2   9   8  122.99   16.90
  -2   9   8  112.29   14.50
  -2   9   8  117.09   13.80
   1  -9  -8   54.79    8.80
   1  -9  -8   56.49    8.80
   1  -9  -8   49.50   11.60
  -1   9   8   46.70    9.80
  -1   9   8   54.19    9.60
  -1   9   8   31.90    9.80
   0  -9  -8   48.10    8.50
   0  -9  -8   39.00   11.60
   0  -9  -8   41.70    8.30
   0   9   8   32.00    9.10
  -1  -9  -8  222.98   14.80
  -1  -9  -8  190.18   21.10
  -1  -9  -8  181.08   22.40
   3 -10  -8   14.00   10.90
   3 -10  -8   -3.20   12.40
  -3  10   8    2.50   13.00
  -3  10   8    6.60   14.80
  -3  10   8    5.50   10.60
   2 -10  -8   -9.00   10.00
   2 -10  -8    4.10    9.70
   2 -10  -8   13.00   14.40
  -2  10   8    9.80   13.70
   1 -10  -8  134.59   16.00
   1 -10  -8  127.29   16.40
   1 -10  -8  176.78   21.20
  -1  10   8  166.68   16.70
   0 -10  -8  219.38   17.70
   0 -10  -8  203.98   17.50
   0 -10  -8  207.88   22.80
  -1  13  -9    2.50   10.60
  -1  13  -9  -18.80   16.70
   1 -13   9  -14.60   15.10
   1  12  -9  147.89   18.00
  -1 -12   9   87.99   13.70
  -1 -12   9  127.99   16.70
   0  12  -9   66.29   15.30
   0  12  -9   63.59   14.00
   0 -12   9   51.49   14.00
   0 -12   9   73.09   13.20
  -1  12  -9    8.80   13.40
  -1  12  -9   10.00    8.70
   1 -12   9   -2.00   15.10
   1 -12   9   26.80   12.80
  -2  12  -9   24.00    8.80
  -2  12  -9   14.10   13.80
   2 -12   9   12.90   12.00
  -3  12  -9   27.50    9.10
   3 -12   9   11.60   12.20
   3 -12   9    6.60   14.70
   2  11  -9   59.29   12.40
   2  11  -9   49.30    5.00
  -2 -11   9   68.59   21.60
  -2 -11   9   46.50   12.50
   1  11  -9   -3.50    9.70
   1  11  -9   19.70    9.00
  -1 -11   9    1.20   11.60
  -1 -11   9   15.90    9.90
   0  11  -9  147.89   18.90
   0  11  -9  184.58   14.30
   0  11  -9  175.48   17.40
   0 -11   9  157.28   17.00
   0 -11   9  170.08   17.60
  -1  11  -9   52.59   11.50
  -1  11  -9   57.29   10.50
  -1  11  -9   63.99    8.30
   1 -11   9   57.19   11.20
   1 -11   9   66.69   11.10
  -2  11  -9   23.10   11.80
  -2  11  -9   27.40    7.40
   2 -11   9   43.30   10.90
   2 -11   9   10.50   10.90
  -3  11  -9   59.49    8.40
   3 -11   9   31.60   10.90
  -4  11  -9  267.57   16.90
   4 -11   9  239.28   22.50
   2  10  -9   21.00    3.20
  -2 -10   9   32.10   10.10
  -2 -10   9   43.20   16.70
  -2 -10   9   51.39   13.10
   1  10  -9    1.00    8.40
   1  10  -9   18.90   10.70
   1  10  -9   11.90    7.50
  -1 -10   9   15.60    8.40
  -1 -10   9   11.00   10.10
   0  10  -9    4.20    8.00
   0  10  -9   16.80    7.00
   0  10  -9   25.40    9.20
   0 -10   9    1.10    8.20
   0 -10   9    5.40    8.50
  -1  10  -9    7.30    8.40
  -1  10  -9   21.30    9.10
   1 -10   9   14.00    8.30
   1 -10   9   20.80    8.80
  -2  10  -9   31.30    6.50
  -2  10  -9   19.60    9.40
   2 -10   9   26.50    8.40
   2 -10   9   17.50    9.00
  -3  10  -9    9.70    6.30
   3 -10   9    4.80    8.40
   4 -10   9    7.40   11.90
   3   9  -9   21.60    4.10
  -3  -9   9   29.10   16.30
   2   9  -9  186.28   16.90
   2   9  -9  158.38    7.80
  -2  -9   9  167.68   15.60
  -2  -9   9  200.08   16.70
   1   9  -9   15.40    9.10
   1   9  -9   13.60    7.50
   1   9  -9   22.20    6.90
  -1  -9   9   43.50   14.20
   0   9  -9   98.39   10.70
   0   9  -9  128.09   10.70
   0  -9   9  120.19   12.40
   0  -9   9  107.59   12.30
  -1   9  -9  390.36   17.30
  -1   9  -9  402.26   20.30
   1  -9   9  384.46   18.20
   1  -9   9  390.66   18.90
  -2   9  -9    7.50    5.30
  -2   9  -9    9.50    7.50
   2  -9   9    4.10    7.50
   3  -9   9  243.78   16.10
   4  -9   9   46.70   11.30
   3   8  -9   47.60    4.90
  -3  -8   9   65.99   11.30
  -3  -8   9   43.80   13.40
   2   8  -9  103.09   13.70
   2   8  -9   88.49   10.20
   2   8  -9   67.09    4.90
  -2  -8   9   79.89    9.00
  -2  -8   9   65.69    9.00
   1   8  -9   45.20    7.10
   1   8  -9   47.60    6.70
   1   8  -9   57.69    8.50
  -1  -8   9   53.39    7.20
  -1  -8   9   44.70    7.70
   0   8  -9  112.29   11.90
   0   8  -9   69.99    7.90
   0   8  -9   86.89    8.70
   0  -8   9   79.79   10.00
   0  -8   9   81.29   10.80
  -1   8  -9    8.10    6.90
   1  -8   9    2.90    6.50
   1  -8   9   14.80    5.60
  -2   8  -9   26.60    8.30
  -2   8  -9   43.30    7.90
   2  -8   9   40.20    6.10
   2  -8   9   26.80    6.90
   2  -8   9   30.60    7.40
   3  -8   9    2.20    7.10
   4  -8   9    7.20    9.80
   5  -8   9   -6.00   14.20
   4   7  -9    7.00    3.50
  -4  -7   9   -0.60   13.40
   3   7  -9    4.30    2.60
  -3  -7   9  -11.50   10.90
  -3  -7   9    6.40    7.50
   2   7  -9   46.20    7.70
   2   7  -9   36.20    6.00
   2   7  -9   30.50    3.40
  -2  -7   9   36.20    6.70
  -2  -7   9   39.00    8.20
   1   7  -9  137.49    9.60
   1   7  -9  133.99   11.90
  -1  -7   9  131.39   11.40
  -1  -7   9  143.09    9.70
   0   7  -9   15.10    5.90
   0   7  -9    9.30    4.30
   0  -7   9    4.70    5.80
   0  -7   9   13.50    7.30
  -1   7  -9  145.79   11.60
  -1   7  -9  144.69    9.00
   1  -7   9  140.59   11.40
   1  -7   9  148.99    9.60
  -2   7  -9   92.89    7.60
  -2   7  -9   98.29   10.50
   3  -7   9    8.50    6.70
   4  -7   9  184.68   16.90
   5  -7   9   26.50   14.20
   4   6  -9   14.50    3.80
  -4  -6   9   29.20   12.40
   3   6  -9  100.39    6.00
  -3  -6   9   94.19   15.00
   2   6  -9   77.49   10.50
   2   6  -9   65.89    6.30
   2   6  -9   58.29    4.40
  -2  -6   9   76.59    7.50
  -2  -6   9   61.59    6.60
   1   6  -9   -0.10    5.70
   1   6  -9    5.40    3.90
  -1  -6   9   -3.10    4.10
  -1  -6   9   10.00    5.50
   0   6  -9   10.10    5.20
   0  -6   9    0.70    3.90
   0  -6   9   10.50    5.30
  -1   6  -9   48.10    4.90
  -1   6  -9   40.90    6.00
   1  -6   9   32.20    6.10
   1  -6   9   42.90    4.70
   2  -6   9   30.50    5.70
   3  -6   9   21.80    6.60
   4  -6   9   97.79   15.00
   5  -6   9   16.20   12.50
   4   5  -9   13.20    3.80
  -4  -5   9   30.30   10.20
   3   5  -9  118.79    6.60
  -3  -5   9  155.78   14.30
  -3  -5   9  125.19   11.20
   2   5  -9   57.79    6.50
   2   5  -9   62.59    6.00
   2   5  -9   46.20    3.80
  -2  -5   9   62.19    6.60
  -2  -5   9   52.39    5.80
   1   5  -9  117.49    8.00
   1   5  -9  124.99    5.50
   1   5  -9  127.59   10.60
  -1  -5   9  112.49    8.30
  -1  -5   9  131.39   10.00
   0   5  -9    8.20    4.90
   0   5  -9   14.80    3.50
   0  -5   9   14.20    4.60
   0  -5   9    5.40    3.40
  -1   5  -9   36.30    5.30
  -1   5  -9   53.19    5.80
   1  -5   9   33.20    5.10
   1  -5   9   30.30    4.20
   2  -5   9   38.60    5.60
   3  -5   9   57.79    9.60
   4  -5   9   43.30    9.80
   5  -5   9   26.00   11.90
   5   4  -9    4.80    4.20
  -5  -4   9    3.10   12.00
   4   4  -9   12.60    3.60
  -4  -4   9   10.50    9.70
   3   4  -9   23.90    3.20
  -3  -4   9   27.90    8.90
  -3  -4   9   21.80    7.00
   2   4  -9    1.10    4.10
   2   4  -9    2.70    2.20
   2   4  -9    6.70    4.80
  -2  -4   9    8.60    4.50
  -2  -4   9    8.40    4.10
   1   4  -9  407.66   13.90
   1   4  -9  365.86   16.60
   1   4  -9  388.56   15.40
  -1  -4   9  376.56   15.30
  -1  -4   9  381.76   16.30
   0   4  -9   33.50    5.20
   0   4  -9   24.80    4.00
   0  -4   9   29.10    4.00
   0  -4   9   23.80    4.90
  -1   4  -9   29.20    5.10
  -1   4  -9   29.40    3.90
   1  -4   9   29.90    5.00
   1  -4   9   29.00    4.80
   2  -4   9  269.97   13.30
   4  -4   9   -6.90    8.20
   5  -4   9   52.99   12.50
   5   3  -9   -2.80    3.60
  -5  -3   9   10.70   11.10
   4   3  -9    5.50    3.20
  -4  -3   9   19.80    8.30
   3   3  -9   14.30    3.20
  -3  -3   9   16.90    5.70
  -3  -3   9   19.90    4.90
  -3  -3   9   13.30    7.50
   2   3  -9   77.49    8.50
   2   3  -9   63.99    4.30
  -2  -3   9   66.79    6.90
  -2  -3   9   65.79    8.00
   1   3  -9  138.09    5.60
   1   3  -9  120.89    7.50
   1   3  -9  127.69    9.20
  -1  -3   9  129.29    8.90
  -1  -3   9  114.29    7.40
   0   3  -9   86.99    7.90
   0   3  -9   65.39    5.80
   0  -3   9   61.39    6.50
   0  -3   9   76.69    7.30
   0  -3   9   70.79    5.80
  -1   3  -9   10.00    4.30
   1  -3   9   12.80    4.10
   2  -3   9   10.60    4.90
   3  -3   9   59.89    6.10
   4  -3   9  123.79   13.80
  -5   3  -9   -5.00    7.70
   5  -3   9   -3.70   12.20
   5   2  -9   43.00    5.10
  -5  -2   9   52.39   11.70
   4   2  -9  136.09    7.80
  -4  -2   9  156.18   14.30
   3   2  -9   29.40    3.60
  -3  -2   9   36.60    5.60
  -3  -2   9   34.10    7.40
   2   2  -9  106.59    5.50
   2   2  -9  127.79    8.70
  -2  -2   9  108.89    8.50
  -2  -2   9   95.49    7.80
   1   2  -9   68.59    7.40
   1   2  -9   64.79    3.80
  -1  -2   9   58.49    7.00
  -1  -2   9   50.39    6.00
   0   2  -9    4.20    3.10
   0   2  -9    4.50    4.00
   0  -2   9   -1.90    2.90
   0  -2   9    1.30    3.60
   0  -2   9   -0.30    3.80
  -1   2  -9   97.59    7.90
   1  -2   9   97.29    7.90
   2  -2   9    0.60    2.30
   2  -2   9    9.30    4.90
   3  -2   9  120.99    7.40
  -4   2  -9  305.37   17.60
  -4   2  -9  339.37   16.30
   4  -2   9  331.17   15.30
   4  -2   9  406.96   19.90
  -5   2  -9   -0.40    7.40
   5   1  -9    7.70    3.70
  -5  -1   9    1.50    9.50
   4   1  -9    1.10    3.30
  -4  -1   9   -1.70    7.10
   3   1  -9  178.68    8.20
  -3  -1   9  192.88   11.00
  -3  -1   9  161.38   12.10
  -3  -1   9  171.18   10.30
   2   1  -9   51.19    9.10
   2   1  -9   42.50    5.30
   2   1  -9   46.70    4.10
  -2  -1   9   42.20    4.80
  -2  -1   9   47.80    5.70
  -2  -1   9   41.90    7.50
   1   1  -9   30.50    5.10
   1   1  -9   28.80    4.10
   1   1  -9   31.10    3.40
  -1  -1   9   23.20    4.00
  -1  -1   9   28.90    4.70
   0   1  -9   63.89    7.50
   0  -1   9   81.29    6.70
   0  -1   9   71.79    6.90
   0  -1   9   64.29    5.50
   1  -1   9  183.38   10.20
   1  -1   9  180.58    7.30
  -2   1  -9    1.80    3.60
   2  -1   9    4.10    2.40
   2  -1   9   -0.20    5.10
  -3   1  -9   22.30    7.00
   3  -1   9   34.20    7.60
  -4   1  -9   29.00    6.70
  -4   1  -9   38.70    7.80
   4  -1   9   22.40    8.80
   4  -1   9   36.00    5.60
  -5   1  -9   -0.50    7.80
   5  -1   9   -3.00    6.00
   5   0  -9   27.30    4.60
  -5   0   9   26.60    9.80
   4   0  -9   20.20    3.90
  -4   0   9   24.60    7.70
   3   0  -9   -0.20    7.30
   3   0  -9   12.10    5.10
   3   0  -9    1.60    2.80
  -3   0   9    2.60    5.60
  -3   0   9   -0.90    4.60
   2   0  -9  136.99    8.60
   2   0  -9  144.39    6.50
  -2   0   9  138.89    9.50
  -2   0   9  119.19    8.50
   1   0  -9  383.06   16.10
   1   0  -9  513.05   17.80
   1   0  -9  458.25   18.40
  -1   0   9  492.85   17.70
  -1   0   9  439.76   18.20
   0   0  -9  971.30   33.40
   0   0  -9  909.11   33.90
   0   0  -9  931.21   33.30
   0   0   9  945.11   34.20
   0   0   9  965.10   34.00
   0   0   9  922.91   33.20
  -1   0  -9   43.20    5.30
   1   0   9   40.10    3.30
   1   0   9   42.20    6.20
  -2   0  -9   39.50    5.80
  -2   0  -9   36.10    4.70
   2   0   9   25.80    3.40
   2   0   9   39.00    6.40
  -3   0  -9  185.58   10.60
   3   0   9  176.28   13.20
   3   0   9  177.18    9.30
  -4   0  -9   74.79    7.90
  -4   0  -9   56.69   10.00
   4   0   9   88.49    8.70
  -5   0  -9    7.00    8.80
   5   0   9   -0.10    6.30
   5  -1  -9    7.10    4.10
   4  -1  -9   32.40    9.70
   4  -1  -9   27.70    3.90
  -4   1   9   26.60    6.80
   3  -1  -9   88.09   11.60
   3  -1  -9   78.49    9.20
   3  -1  -9   84.29    5.60
  -3   1   9   68.59    8.80
  -3   1   9   90.39    8.60
   2  -1  -9  402.86   18.40
   2  -1  -9  411.26   14.50
   2  -1  -9  409.36   16.40
   2  -1  -9  316.07   18.70
  -2   1   9  401.16   16.60
  -2   1   9  397.56   16.10
   1  -1  -9   96.29    8.70
   1  -1  -9   88.49    6.30
   1  -1  -9   81.09    7.00
  -1   1   9   74.39    7.30
  -1   1   9  105.49    7.50
   0  -1  -9  315.37   13.80
   0  -1  -9  274.57   12.40
   0  -1  -9  309.67   12.40
   0   1   9  259.37   12.80
   0   1   9  319.07   13.40
  -1  -1  -9  928.31   33.00
  -1  -1  -9  824.22   31.40
   1   1   9  861.41   32.90
  -2  -1  -9   98.09    7.40
  -2  -1  -9   76.89    9.60
   2   1   9   87.09   10.10
   2   1   9   87.59    8.30
  -3  -1  -9   63.69    8.10
   3   1   9   57.59    6.40
  -4  -1  -9   25.80    7.10
   4   1   9   19.20    5.30
  -5  -1  -9   60.09   10.00
   5   1   9   67.49    8.20
   5  -2  -9  230.68   11.20
   4  -2  -9   22.00    9.60
   4  -2  -9   17.50    4.10
  -4   2   9   21.70    7.10
   3  -2  -9   79.69    5.70
   3  -2  -9   71.69    9.10
   3  -2  -9   94.29   12.10
   3  -2  -9   84.89    7.90
  -3   2   9   82.09    8.60
  -3   2   9   77.19    8.90
   2  -2  -9  200.08    8.50
   2  -2  -9  213.28   11.00
  -2   2   9  195.88   11.10
  -2   2   9  184.18   10.30
   1  -2  -9   10.00    5.20
   1  -2  -9   16.00    4.30
   1  -2  -9   16.70    3.60
  -1   2   9   19.90    3.90
  -1   2   9    7.60    4.40
   0  -2  -9   48.90    6.10
   0  -2  -9   52.79    6.70
   0  -2  -9   44.00    5.90
   0   2   9   42.80    5.80
  -1  -2  -9  117.79    9.50
  -1  -2  -9  105.49    7.80
   1   2   9  100.49    9.70
  -2  -2  -9   38.80    9.20
  -2  -2  -9   55.99    7.20
   2   2   9   69.19    5.50
  -3  -2  -9   68.49    8.70
  -3  -2  -9   63.69    9.60
   3   2   9   54.89    6.80
  -4  -2  -9  157.18   13.00
   4   2   9  165.68   11.00
   5  -3  -9   32.10    4.90
   4  -3  -9   33.80    4.80
   4  -3  -9   61.39   11.70
  -4   3   9   33.80    6.90
  -4   3   9   38.00    7.00
   3  -3  -9   53.19    6.70
   3  -3  -9   56.49    7.50
   3  -3  -9   58.89    5.50
   3  -3  -9   58.09    8.90
  -3   3   9   58.79    7.20
  -3   3   9   67.29    9.10
   2  -3  -9  189.88   14.50
   2  -3  -9  179.18   12.50
   2  -3  -9  191.18   10.80
  -2   3   9  183.48   11.10
  -2   3   9  178.48   10.60
   1  -3  -9    7.40    4.30
   1  -3  -9    8.80    3.70
   1  -3  -9   17.40    5.00
  -1   3   9    5.50    4.70
  -1   3   9   21.80    7.00
   0  -3  -9  249.28   11.80
   0  -3  -9  248.08   11.40
   0  -3  -9  241.68   12.40
   0   3   9  240.78   12.30
  -1  -3  -9   10.40    6.10
  -1  -3  -9   15.60    4.40
  -2  -3  -9    7.30    4.70
   2   3   9    4.00    3.10
  -3  -3  -9    7.20    9.20
  -3  -3  -9   15.10    5.70
   3   3   9    5.90    4.50
  -4  -3  -9   55.49    8.90
   4   3   9   59.69    7.00
   5  -4  -9    7.40    4.50
   4  -4  -9   64.19   12.40
   4  -4  -9   59.29    6.40
  -4   4   9   70.19    8.80
  -4   4   9   73.19    8.60
   3  -4  -9  170.08   12.00
   3  -4  -9  162.58    8.00
   3  -4  -9  158.28   12.90
   3  -4  -9  171.08   12.80
  -3   4   9  157.58   11.90
   2  -4  -9   14.20    6.10
   2  -4  -9    8.70    5.30
   2  -4  -9   10.80    6.60
  -2   4   9   18.00    5.80
   1  -4  -9  250.77   12.90
   1  -4  -9  257.27   11.90
   1  -4  -9  249.08   16.70
  -1   4   9  269.07   13.40
   0  -4  -9  105.59    7.80
   0  -4  -9   89.39    9.60
   0  -4  -9  106.89    8.70
   0   4   9  101.59    9.20
  -1  -4  -9   87.29   10.70
  -2  -4  -9   -0.40    7.50
  -2  -4  -9    1.60    4.90
   2   4   9    2.00    3.30
  -3  -4  -9   -1.70   10.40
  -3  -4  -9    1.80    6.30
   3   4   9    2.30    4.30
  -4  -4  -9    7.50    8.30
   4   4   9   -2.10    5.30
   5  -5  -9  111.99    8.40
   4  -5  -9   -1.50   11.40
   4  -5  -9   10.10    4.10
  -4   5   9   17.30    7.90
   3  -5  -9   48.00    5.30
   3  -5  -9   57.19    8.00
   3  -5  -9   36.50    8.40
   3  -5  -9   38.30    7.90
  -3   5   9   41.70    8.10
   2  -5  -9   15.10    7.30
   2  -5  -9    7.50    4.30
   2  -5  -9   -0.40    6.40
   2  -5  -9    6.70    6.10
  -2   5   9    2.70    6.00
   1  -5  -9  621.14   25.00
   1  -5  -9  626.74   24.70
   1  -5  -9  607.44   23.90
  -1   5   9  631.74   24.80
   0  -5  -9   -1.50    6.20
   0  -5  -9    2.50    4.50
   0  -5  -9   12.20    5.20
   0   5   9   12.10    5.90
  -1  -5  -9   28.20    8.10
  -1  -5  -9   28.30    5.20
  -2  -5  -9   51.99    9.80
  -2  -5  -9   52.89    6.70
   2   5   9   41.50    5.20
  -3  -5  -9   26.50    7.50
   3   5   9   12.70    4.90
   5  -6  -9    8.90    4.70
   4  -6  -9   79.79   11.70
   4  -6  -9   77.49   10.50
   4  -6  -9   67.99    6.80
  -4   6   9  118.19   13.80
   3  -6  -9   96.89   13.70
   3  -6  -9   98.09   12.20
   3  -6  -9   73.89   13.50
   3  -6  -9   93.79    6.40
  -3   6   9  135.79   16.70
  -3   6   9  118.49   12.70
   2  -6  -9   15.60    5.40
   2  -6  -9   12.60    6.60
   2  -6  -9   14.60    7.80
   2  -6  -9   16.20    8.30
  -2   6   9   22.70    6.90
  -2   6   9   22.90    6.20
  -2   6   9   27.40    7.20
   1  -6  -9    5.30    7.60
   1  -6  -9    8.20    5.80
   1  -6  -9   -0.60    5.30
  -1   6   9   17.20    6.00
  -1   6   9   20.40    6.30
  -1   6   9   11.00    6.30
   0  -6  -9  131.79   12.90
   0  -6  -9  132.29   10.30
   0  -6  -9  125.69   10.10
   0   6   9  124.49   10.50
   0   6   9  139.99   11.00
   0   6   9  138.99   10.50
  -1  -6  -9   91.29    9.90
  -2  -6  -9  140.89   17.70
  -2  -6  -9  156.88   12.50
   2   6   9  155.48    9.60
  -3  -6  -9   34.30    9.40
   3   6   9   31.60    6.00
   4  -7  -9   38.40    5.00
   4  -7  -9   34.80   11.40
  -4   7   9   63.79   10.10
  -4   7   9   53.49   11.70
   3  -7  -9   10.20    8.60
   3  -7  -9   11.60   10.20
   3  -7  -9   14.40   10.00
   3  -7  -9   13.00    3.90
  -3   7   9   21.80    9.20
  -3   7   9   27.10    8.50
   2  -7  -9   39.50   12.50
   2  -7  -9   45.70   10.10
   2  -7  -9   49.00   10.40
   2  -7  -9   44.10    8.20
  -2   7   9   51.59    9.00
  -2   7   9   55.29    8.10
  -2   7   9   64.49    8.70
   1  -7  -9   17.10    5.80
   1  -7  -9    2.50    9.20
  -1   7   9   13.00    7.00
  -1   7   9    5.80    7.00
  -1   7   9   13.60    7.00
   0  -7  -9   31.50    8.80
   0  -7  -9   12.00    6.80
   0  -7  -9   10.10    6.10
   0   7   9   29.00    7.30
   0   7   9   16.20    7.40
   0   7   9   19.00    7.50
  -1  -7  -9   12.50    6.90
  -1  -7  -9    3.30   10.30
  -2  -7  -9   11.70    8.10
   2   7   9   23.90    5.40
   4  -8  -9  107.89   14.30
   4  -8  -9  123.89    8.00
  -4   8   9  113.19   15.30
  -4   8   9  125.69   16.70
   3  -8  -9  359.96   19.60
   3  -8  -9  340.97   23.50
   3  -8  -9  373.66   20.80
  -3   8   9  364.26   20.10
  -3   8   9  351.36   22.50
  -3   8   9  370.76   20.20
   2  -8  -9   24.80   10.90
   2  -8  -9   -1.10   10.90
   2  -8  -9   38.80    8.20
  -2   8   9   24.50    9.00
  -2   8   9   16.30    9.70
  -2   8   9   28.90    9.30
   1  -8  -9    3.10    7.90
   1  -8  -9   15.40    7.40
   1  -8  -9   -6.80    9.90
  -1   8   9    2.70    8.40
  -1   8   9   -5.50    8.30
  -1   8   9    5.40    8.30
   0  -8  -9  257.87   15.00
   0  -8  -9  245.18   16.00
   0  -8  -9  224.78   19.50
   0   8   9  290.17   23.40
  -1  -8  -9  145.39   12.80
  -1  -8  -9  144.79   14.20
  -1  -8  -9  115.89   15.70
  -2  -8  -9   43.60    9.90
   2   8   9   40.70    6.40
   3  -9  -9   46.30   10.60
   3  -9  -9   21.40   18.30
  -3   9   9   64.59   12.70
  -3   9   9   40.50   11.10
  -3   9   9   36.50   14.10
   2  -9  -9    2.90    9.40
   2  -9  -9   13.00   10.20
   2  -9  -9  -11.10   13.10
  -2   9   9   -9.20   11.40
  -2   9   9    4.50   11.20
   1  -9  -9   72.19   10.40
   1  -9  -9   55.39   14.10
   1  -9  -9   74.09   10.40
  -1   9   9   62.59   11.20
   0  -9  -9   31.40    9.40
   0  -9  -9   18.40   13.60
   0  -9  -9   27.20    9.20
  -1  -9  -9  202.28   16.00
   2 -10  -9   -8.30   11.50
   2 -10  -9   -7.00   16.50
   2 -10  -9   26.70   12.00
  -2  10   9   -5.70   11.60
   1 -10  -9   23.40   10.90
   1 -10  -9    8.50   16.30
   1 -10  -9    2.60   11.20
  -1  10   9   13.60   11.90
   0  12 -10   11.00   11.20
   0 -12  10    2.40   12.80
   0 -12  10   18.70   15.00
  -1  12 -10    4.30   14.70
  -1  12 -10   29.30   10.40
   1 -12  10    8.40   19.60
  -2  12 -10   -2.90   15.40
  -2  12 -10    9.80    9.80
   2 -12  10   19.00   14.10
   1  11 -10   -9.40   11.30
   1  11 -10   -2.50   10.50
  -1 -11  10   29.70   12.40
  -1 -11  10  -12.60   12.70
   0  11 -10    1.20   11.60
   0  11 -10    5.10   11.20
   0  11 -10   -9.90   12.90
   0 -11  10    1.50   10.80
   0 -11  10  -12.30   11.10
  -1  11 -10  114.19   13.60
  -1  11 -10   74.29   13.90
   1 -11  10   86.59   12.80
   1 -11  10  144.69   17.40
  -2  11 -10   25.90    8.60
  -2  11 -10   29.00   13.00
   2 -11  10   27.80   11.80
  -3  11 -10   13.10    8.90
   3 -11  10    9.80   10.70
   2  10 -10    3.20    2.90
  -2 -10  10   19.10   13.80
  -2 -10  10   -6.00   11.10
   1  10 -10  177.08   20.40
   1  10 -10  193.38   17.40
   1  10 -10  198.28   15.80
  -1 -10  10  210.68   18.40
  -1 -10  10  213.48   19.80
   0  10 -10    7.00   10.90
   0  10 -10    5.70    7.40
   0  10 -10   17.10    9.00
   0 -10  10    0.60    9.60
   0 -10  10    4.80    9.60
  -1  10 -10   26.10   10.50
  -1  10 -10    9.30    9.20
  -1  10 -10   26.70    7.50
   1 -10  10   16.50    9.10
   1 -10  10   28.30    9.90
  -2  10 -10   32.20   11.10
  -2  10 -10   38.80    7.50
   2 -10  10   43.00    9.40
   2 -10  10   20.40   10.40
   3 -10  10   68.29   11.40
   4 -10  10   35.70   13.50
   3   9 -10   13.90    3.60
  -3  -9  10    1.80   17.70
   2   9 -10    4.00    2.80
   2   9 -10    1.30    8.00
  -2  -9  10   -1.90    9.60
   1   9 -10    6.10   10.30
   1   9 -10   13.60    7.30
  -1  -9  10   15.40    8.70
  -1  -9  10   -3.00    8.30
   0   9 -10  145.79   14.10
   0   9 -10  159.18   12.60
   0   9 -10  167.48   17.10
   0  -9  10  164.58   15.40
   0  -9  10  204.08   14.30
  -1   9 -10  135.19   14.40
  -1   9 -10  152.38   20.80
   1  -9  10  155.58   15.30
   1  -9  10  168.98   14.00
  -2   9 -10   11.70    9.20
  -2   9 -10    4.80    6.20
   2  -9  10    1.60    7.40
   2  -9  10    1.10    9.30
   3  -9  10   44.90    9.80
   4  -9  10   11.80   12.50
   3   8 -10   20.80    3.80
  -3  -8  10    2.40   14.60
  -3  -8  10   36.10   11.20
   2   8 -10   74.19    8.50
   2   8 -10   72.59    5.00
   2   8 -10   79.19   10.90
  -2  -8  10  105.59   13.30
  -2  -8  10   84.79   10.30
   1   8 -10   74.59   10.20
   1   8 -10   79.69    9.80
   1   8 -10   73.59    8.60
  -1  -8  10   85.09   11.10
  -1  -8  10   71.59    9.50
   0   8 -10   35.30    8.20
   0   8 -10   25.20    6.20
   0  -8  10   29.40    6.40
   0  -8  10   39.90    8.20
  -1   8 -10  155.38   10.70
  -1   8 -10  181.48   14.40
   1  -8  10  150.88   11.70
   1  -8  10  159.78   14.00
  -2   8 -10   62.19    9.30
  -2   8 -10   37.40    5.70
   2  -8  10   29.80    7.10
   3  -8  10   74.99   10.50
   4  -8  10   22.40   11.70
   4   7 -10   30.20    4.80
  -4  -7  10   54.49   16.00
   3   7 -10    3.40    3.20
  -3  -7  10  -13.60    8.70
  -3  -7  10   10.10   12.30
  -3  -7  10    9.40    8.10
   2   7 -10   -1.80    6.50
   2   7 -10    5.40    2.50
   2   7 -10    1.00    8.20
  -2  -7  10   -5.90    6.90
  -2  -7  10    0.10    7.20
   1   7 -10    8.00    5.20
   1   7 -10  -10.40    5.90
   1   7 -10   11.50    7.20
  -1  -7  10    2.60    6.60
   0   7 -10  198.78   11.00
   0  -7  10  185.38   11.10
   0  -7  10  180.88   13.50
  -1   7 -10  116.89    9.30
  -1   7 -10   87.79   11.90
   1  -7  10  122.39   12.10
   1  -7  10  128.69    9.40
   2  -7  10    7.00    5.70
   3  -7  10   14.80    7.50
   4  -7  10   44.30   11.50
   4   6 -10   23.00    4.30
  -4  -6  10   40.20   14.20
   3   6 -10    0.90    3.10
  -3  -6  10   25.70   11.00
   2   6 -10   34.80    6.40
   2   6 -10   40.90    7.90
   2   6 -10   27.80    3.30
  -2  -6  10   23.10    6.20
   1   6 -10   93.79    5.10
   1   6 -10  103.29   11.00
   1   6 -10   96.99    8.60
  -1  -6  10   77.89    8.90
  -1  -6  10  115.59   11.20
   0   6 -10  127.69    8.30
   0   6 -10  128.19   11.20
   0  -6  10  111.59    8.80
   0  -6  10  122.39   11.20
  -1   6 -10    7.50    4.10
  -1   6 -10    8.40    6.00
   1  -6  10   -2.30    4.90
   1  -6  10    7.70    6.10
   1  -6  10    2.80    4.10
   2  -6  10   81.09    9.50
   3  -6  10  102.89   12.40
   4  -6  10   11.50   10.60
   5  -6  10    7.70   13.70
   4   5 -10   38.20    4.60
  -4  -5  10   48.30   13.10
   3   5 -10   17.90    3.30
  -3  -5  10   16.30    7.00
  -3  -5  10   22.10    7.30
  -3  -5  10   34.90   10.00
   2   5 -10    5.10    6.20
   2   5 -10    2.30    2.50
   2   5 -10   -3.60    5.00
  -2  -5  10   -5.10    5.10
  -2  -5  10    2.30    5.70
   1   5 -10   82.69   10.00
   1   5 -10   71.19    7.60
   1   5 -10   84.29    4.60
  -1  -5  10   88.99    9.50
  -1  -5  10   69.59    8.20
   0   5 -10   41.30    5.00
   0   5 -10   41.40    6.50
   0  -5  10   41.20    6.60
   0  -5  10   34.50    4.90
  -1   5 -10   77.49    7.10
  -1   5 -10   75.59    7.40
   1  -5  10   73.69    8.20
   1  -5  10   72.89    7.00
   1  -5  10   80.39    9.60
   3  -5  10   24.70    7.70
   4  -5  10   99.99   17.30
   5  -5  10   43.60   13.60
   4   4 -10   28.20    4.20
  -4  -4  10   27.10   11.10
   3   4 -10   15.00    3.30
  -3  -4  10    6.40    6.50
  -3  -4  10   12.70    9.10
   2   4 -10    3.50    2.40
   2   4 -10    1.50    5.70
   2   4 -10    4.40    5.10
  -2  -4  10   -2.50    5.70
  -2  -4  10   13.50    4.60
   1   4 -10   34.10    3.50
   1   4 -10   33.30    8.20
   1   4 -10   38.60    4.90
  -1  -4  10   38.00    6.10
  -1  -4  10   41.70    5.00
   0   4 -10   -2.00    3.70
   0   4 -10    1.60    5.30
   0  -4  10   -2.20    4.40
   0  -4  10   -4.10    4.80
   0  -4  10    3.40    4.40
  -1   4 -10   39.10    6.00
  -1   4 -10   43.30    6.00
   1  -4  10   42.40    6.00
   1  -4  10   41.40    6.10
   2  -4  10   12.70    5.50
   3  -4  10  221.28   15.20
   4  -4  10   58.69   10.80
   5  -4  10   28.40   13.60
   5   3 -10   -0.70    4.20
  -5  -3  10    1.20   12.30
   4   3 -10   17.10    4.10
  -4  -3  10   30.90   10.80
   3   3 -10  138.29    7.30
  -3  -3  10  138.19   13.50
  -3  -3  10  151.68   11.50
   2   3 -10  105.89   10.70
   2   3 -10  101.99    5.60
  -2  -3  10  104.09    9.90
  -2  -3  10   94.79    8.30
  -2  -3  10  113.79   11.00
   1   3 -10   16.40    2.40
   1   3 -10   18.00    4.40
   1   3 -10   18.90    5.30
  -1  -3  10   19.90    4.10
  -1  -3  10   17.80    5.30
   0   3 -10  124.19    9.50
   0   3 -10  127.39    7.70
   0  -3  10  112.09    8.80
   0  -3  10   91.59    9.00
  -1   3 -10  318.07   13.00
  -1   3 -10  290.87   14.70
   1  -3  10  314.77   14.70
   2  -3  10  370.36   17.40
   3  -3  10  106.39    7.80
   3  -3  10  107.29   12.60
   4  -3  10   44.50    9.80
  -5   3 -10   79.79   11.10
   5  -3  10   89.19   15.40
   5   2 -10   31.00    4.80
  -5  -2  10   33.50   12.10
   4   2 -10   -1.30    3.90
  -4  -2  10   -5.40    8.70
   3   2 -10   93.39    6.20
  -3  -2  10   91.59   13.10
  -3  -2  10   81.79    9.50
   2   2 -10   75.59    4.90
   2   2 -10   78.09    9.30
   2   2 -10   68.89    8.10
  -2  -2  10   87.79    8.60
  -2  -2  10   64.39    8.10
   1   2 -10    3.20    2.40
   1   2 -10   -0.20    4.80
  -1  -2  10    0.10    4.70
  -1  -2  10   -5.40    3.70
   0   2 -10  168.58    6.60
   0   2 -10  151.98   10.30
   0  -2  10  135.49   10.40
   0  -2  10  162.28   10.00
   0  -2  10  179.58    9.80
   1  -2  10  123.59    9.30
   2  -2  10   76.89    9.90
   2  -2  10   56.99    5.20
  -3   2 -10    9.60    5.00
   3  -2  10    5.30    4.40
   3  -2  10    0.50    6.60
  -4   2 -10   34.20    7.20
   4  -2  10   44.90   10.00
   4  -2  10   41.70    6.50
  -5   2 -10   17.00    9.20
   5   1 -10   83.89    7.00
  -5  -1  10   71.19   12.50
   4   1 -10   27.10    4.50
  -4  -1  10   31.20    8.80
   3   1 -10  130.09    7.20
   3   1 -10  133.09   10.80
  -3  -1  10  134.99   13.00
  -3  -1  10  129.09   10.20
   2   1 -10   72.19    5.10
   2   1 -10   69.09    8.20
   2   1 -10   67.99    9.50
  -2  -1  10   77.19    9.00
  -2  -1  10   63.89    8.50
  -2  -1  10   62.49    7.10
   1   1 -10  484.95   17.00
   1   1 -10  486.25   17.90
   1   1 -10  485.55   18.70
   1   1 -10  456.65   19.60
  -1  -1  10  443.16   18.30
  -1  -1  10  475.75   19.20
   0   1 -10   11.20    3.60
   0   1 -10   14.50    3.80
   0   1 -10   22.50    5.30
   0  -1  10   15.80    4.70
   0  -1  10   10.00    3.70
   0  -1  10   20.70    5.10
  -1   1 -10   41.50    6.20
   1  -1  10   58.09    8.40
   1  -1  10   34.90    3.80
  -2   1 -10  385.06   16.40
   2  -1  10  376.36   18.70
   2  -1  10  399.26   14.90
  -3   1 -10  128.79    9.90
   3  -1  10  139.39    8.70
   3  -1  10  144.99   13.10
  -4   1 -10   28.00    7.10
   4  -1  10   28.30    5.70
   4  -1  10   22.90   10.30
   5   0 -10    5.30    4.10
  -5   0  10   17.80   10.40
   4   0 -10  100.69    7.30
  -4   0  10  139.09   13.50
   3   0 -10    7.20    3.50
   3   0 -10   16.50    9.10
   3   0 -10   -5.20    5.50
  -3   0  10    9.10    5.70
  -3   0  10    5.60    5.40
   2   0 -10  150.88    9.80
   2   0 -10  152.68   11.00
   2   0 -10  129.19    7.00
  -2   0  10  151.28   10.50
  -2   0  10  134.09   10.60
   1   0 -10  119.69    6.30
   1   0 -10  143.49    8.80
   1   0 -10  127.29   10.10
   1   0 -10  136.39    7.60
  -1   0  10  146.09    9.70
  -1   0  10  119.39    8.60
   0   0 -10    6.90    3.70
   0   0 -10   11.30    4.10
   0   0 -10    2.20    5.50
   0   0  10   11.50    4.90
   0   0  10    6.60    3.80
   0   0  10   19.50    5.20
  -1   0 -10  562.64   21.50
   1   0  10  553.84   23.40
   1   0  10  560.54   19.90
   2   0  10   80.09   10.70
   2   0  10   78.49    5.70
  -3   0 -10  216.58   14.50
  -3   0 -10  214.78   12.10
   3   0  10  181.38   15.40
   3   0  10  218.68   10.60
  -4   0 -10   51.59    8.10
   4   0  10   50.59    6.60
   5  -1 -10   45.50    5.50
   4  -1 -10   62.69    6.00
   4  -1 -10   38.80   11.10
   3  -1 -10   44.10    9.80
   3  -1 -10   23.90    7.20
   3  -1 -10   35.70    7.00
   3  -1 -10   38.30    4.30
  -3   1  10   28.60    6.50
  -3   1  10   42.20    6.90
   2  -1 -10   72.09    8.10
   2  -1 -10   70.79    9.10
   2  -1 -10   70.19    5.60
   2  -1 -10   85.39   12.10
  -2   1  10   85.29    8.50
  -2   1  10   85.69    9.10
   1  -1 -10   84.39    6.70
   1  -1 -10   80.59   10.00
   1  -1 -10   68.19    7.60
  -1   1  10   84.19    8.10
  -1   1  10   81.39    9.00
   0   1  10   11.50    4.60
  -1  -1 -10  555.84   22.10
  -1  -1 -10  528.05   20.90
   1   1  10  529.45   22.80
  -2  -1 -10    2.70    4.20
   2   1  10    2.00    3.30
  -3  -1 -10   -1.50    7.90
  -3  -1 -10    3.00    5.30
   3   1  10    5.70    4.10
  -4  -1 -10   14.20    7.40
   4   1  10    6.20    5.40
   5  -2 -10  126.89    8.80
   4  -2 -10   32.70    4.80
   4  -2 -10   25.90   12.20
  -4   2  10   33.00    8.50
  -4   2  10   24.40    7.80
   3  -2 -10    8.90    6.30
   3  -2 -10   -5.90    7.40
   3  -2 -10   16.80    9.50
   3  -2 -10    8.70    3.80
  -3   2  10    6.60    5.90
  -3   2  10   14.20    6.60
   2  -2 -10   70.39    8.20
   2  -2 -10   62.09    5.70
   2  -2 -10   66.79    9.10
   2  -2 -10   71.09    9.00
  -2   2  10   60.99    7.10
  -2   2  10   62.59    8.40
   1  -2 -10   38.30    6.60
   1  -2 -10   33.80    4.80
   1  -2 -10   42.70    5.80
  -1   2  10   47.10    5.70
  -1   2  10   32.80    6.30
   0  -2 -10    9.10    6.00
   0  -2 -10   11.70    4.70
   0  -2 -10    9.00    4.30
   0   2  10   12.10    4.70
   0   2  10   -0.70    5.00
  -1  -2 -10   37.60    5.30
  -1  -2 -10   36.60    7.00
   1   2  10   25.60    6.80
  -2  -2 -10    5.00    7.30
  -2  -2 -10    7.30    4.70
   2   2  10    8.70    3.40
  -3  -2 -10  129.19   15.80
  -3  -2 -10  144.09   11.10
   3   2  10  137.09    9.20
  -4  -2 -10   53.79    9.40
   4   2  10   55.99    7.20
   5  -3 -10  120.69    8.60
   4  -3 -10  242.48   11.60
   4  -3 -10  278.47   21.30
  -4   3  10  256.37   16.20
  -4   3  10  264.47   17.00
   3  -3 -10  100.39    6.90
   3  -3 -10   92.49   10.60
   3  -3 -10   80.49   11.60
   3  -3 -10   91.09   12.60
  -3   3  10   94.49   10.60
  -3   3  10   87.29   12.00
   2  -3 -10   29.90    7.80
   2  -3 -10   34.50    7.90
   2  -3 -10   33.00    6.20
  -2   3  10   25.80    6.40
   1  -3 -10   41.70    7.60
   1  -3 -10   32.50    5.70
   1  -3 -10   47.50    6.70
  -1   3  10   61.59    8.00
  -1   3  10   25.50    6.20
   0  -3 -10   66.69    8.30
   0  -3 -10   75.99   10.30
   0  -3 -10   73.69    7.70
   0   3  10   66.39    7.90
   0   3  10   76.49    9.30
  -1  -3 -10   17.20    6.90
  -1  -3 -10   11.50    5.10
  -2  -3 -10   97.89    9.70
  -2  -3 -10  117.79   13.80
   2   3  10   94.19    7.30
  -3  -3 -10   42.10    7.60
   3   3  10   32.50    5.50
  -4  -3 -10   -5.00    8.70
   4   3  10    1.80    5.50
   5  -4 -10   17.20    5.20
   4  -4 -10   70.79   10.30
   4  -4 -10   49.99    5.50
  -4   4  10   58.49    9.70
  -4   4  10   62.99    9.40
   3  -4 -10  122.49    7.30
   3  -4 -10  107.69   14.40
   3  -4 -10  125.39   12.20
   3  -4 -10   93.59   15.00
  -3   4  10  129.49   12.90
   2  -4 -10   37.50    8.60
   2  -4 -10   30.60    6.50
   2  -4 -10   33.00    8.90
  -2   4  10   33.00    7.00
  -2   4  10   24.80    6.50
   1  -4 -10   23.80    6.00
   1  -4 -10   20.00    5.10
   1  -4 -10   23.00    6.80
  -1   4  10   19.90    5.80
  -1   4  10   23.00    6.50
   0  -4 -10   86.19    8.80
   0  -4 -10   93.29   10.80
   0  -4 -10   92.39    9.40
   0   4  10   85.09    9.00
  -1  -4 -10   42.40    6.00
  -2  -4 -10  152.18   16.00
  -2  -4 -10  133.09   11.10
   2   4  10  141.19    8.60
  -3  -4 -10   17.10    7.60
   3   4  10   30.60    5.80
   5  -5 -10    0.30    5.20
   4  -5 -10   29.70    4.90
  -4   5  10   26.60    9.40
  -4   5  10   40.60   11.50
   3  -5 -10   87.39    6.90
   3  -5 -10  102.79   13.60
   3  -5 -10  109.79   16.10
   3  -5 -10  111.49   15.60
  -3   5  10  100.59   10.50
   2  -5 -10   42.80    8.90
   2  -5 -10   40.60    9.40
   2  -5 -10   52.79    7.90
  -2   5  10   43.20    8.30
   1  -5 -10   36.70    6.40
   1  -5 -10   39.70    8.30
   1  -5 -10   69.09   11.90
   1  -5 -10   43.40    6.90
  -1   5  10   38.00    7.40
   0  -5 -10   15.40    5.90
   0  -5 -10   28.70    6.00
   0  -5 -10   11.70    7.90
   0   5  10   20.20    6.90
  -1  -5 -10  104.69   17.10
  -1  -5 -10   90.59    9.50
  -2  -5 -10   55.09    7.40
  -2  -5 -10   40.00   11.90
   2   5  10   42.80    5.70
  -3  -5 -10   30.60    8.60
   3   5  10   15.10    5.80
   4  -6 -10   11.80    5.00
   4  -6 -10    9.60   10.80
  -4   6  10   21.90   10.00
   3  -6 -10  125.39   14.60
   3  -6 -10  142.19    7.60
   3  -6 -10  124.79   12.90
   3  -6 -10  132.39   17.70
   2  -6 -10   81.29    9.40
   2  -6 -10   73.89   10.80
   2  -6 -10   72.49   10.40
  -2   6  10   97.99   13.10
   1  -6 -10   19.60    6.40
   1  -6 -10   25.60    8.10
   1  -6 -10   12.80    9.50
  -1   6  10   43.20    8.20
   0  -6 -10   39.70    9.10
   0  -6 -10   49.80    7.60
   0  -6 -10   40.80    7.20
   0   6  10   48.90    8.00
  -1  -6 -10   20.30   11.10
  -1  -6 -10   38.80    7.60
  -2  -6 -10   10.50    7.70
   2   6  10   10.50    4.90
   4  -7 -10   89.99   13.90
   4  -7 -10   95.89    7.60
   3  -7 -10   44.10    4.90
   3  -7 -10   53.59   13.00
  -3   7  10   54.49   10.60
   2  -7 -10   17.50   11.60
   2  -7 -10   19.40    7.80
   2  -7 -10   13.10   10.80
  -2   7  10   39.50    9.50
  -2   7  10   22.70    9.40
  -2   7  10   24.90    8.80
   1  -7 -10   10.80    7.80
   1  -7 -10    7.40    6.80
   1  -7 -10    3.90   10.10
  -1   7  10   12.80    8.30
  -1   7  10   -3.80    7.90
  -1   7  10   18.80    9.00
   0  -7 -10   60.39    8.60
   0  -7 -10   57.49   11.60
   0   7  10   68.69    9.80
  -1  -7 -10  186.78   14.70
  -1  -7 -10  188.78   22.20
  -2  -7 -10  104.29   14.50
   2   7  10   85.99    9.50
   3  -8 -10   46.30   10.90
   3  -8 -10   25.70   17.60
  -3   8  10   84.19   13.90
  -3   8  10   70.29   12.10
  -3   8  10   61.69   11.30
   2  -8 -10    8.40   13.20
   2  -8 -10   16.80   10.20
   2  -8 -10   20.40    9.20
  -2   8  10   30.40   18.40
  -2   8  10    9.90   11.00
  -2   8  10   15.30   11.70
   1  -8 -10   85.39   10.70
   1  -8 -10   54.99   13.40
   1  -8 -10  100.99   13.10
  -1   8  10   85.49   13.60
  -1   8  10   72.39   11.10
   0  -8 -10    8.30    8.10
   0  -8 -10  -11.80   12.30
   0  -8 -10   -5.40    8.70
  -1  -8 -10    2.90    8.70
   2  -9 -10   35.40   12.20
   2  -9 -10   17.40   16.20
   2  -9 -10    2.30   11.10
  -2   9  10   24.50   11.90
   1  -9 -10   35.40   11.00
   1  -9 -10   40.00   11.60
   1  -9 -10   46.30   16.30
  -1   9  10   30.10   12.10
   0  -9 -10   31.70   10.70
   0  -9 -10   25.90   10.50
   1  11 -11   26.30   15.10
   1  11 -11   13.30   13.90
  -1 -11  11   47.80   15.50
  -1 -11  11   14.50   14.10
   0  11 -11   82.69   11.60
   0  11 -11   95.99   16.10
   0 -11  11   76.09   14.70
   0 -11  11   71.39   14.20
  -1  11 -11   56.19   14.50
  -1  11 -11   55.89    9.70
   1 -11  11   35.20   14.40
  -2  11 -11   39.90   15.20
  -2  11 -11   52.89    9.90
   2 -11  11   33.10   14.90
   2 -11  11   31.00   11.90
   2  10 -11   15.70   11.80
   2  10 -11    7.80    3.40
  -2 -10  11   23.00   13.50
  -2 -10  11   55.99   20.30
   1  10 -11   44.20   10.20
   1  10 -11   58.89   12.30
   1  10 -11   42.90    4.50
   1  10 -11   34.50   17.90
  -1 -10  11   18.10   12.20
  -1 -10  11   74.69   13.50
   0  10 -11  136.79   18.00
   0  10 -11  143.89   15.30
   0  10 -11  128.89   16.00
   0 -10  11  172.08   19.40
  -1  10 -11   35.30   11.90
  -1  10 -11   71.39    9.10
  -1  10 -11   70.59   13.50
   1 -10  11   69.49   11.80
   1 -10  11   68.19   12.40
  -2  10 -11   54.09    8.50
   2 -10  11   29.50    9.80
   3 -10  11    3.40   11.20
   2   9 -11   20.30    9.70
   2   9 -11   23.90    3.80
  -2  -9  11   30.70   13.00
  -2  -9  11   30.20   11.60
   1   9 -11    1.10    2.60
   1   9 -11   21.80   13.00
   1   9 -11    3.50    9.60
   1   9 -11    9.10    7.50
  -1  -9  11   -5.60   10.40
  -1  -9  11    8.60   10.20
   0   9 -11   49.80   12.50
   0   9 -11   -2.00    8.90
   0   9 -11   17.10    8.10
   0  -9  11   18.90   10.10
   0  -9  11   17.20    8.90
  -1   9 -11   -1.10    6.80
  -1   9 -11   22.40   11.50
   1  -9  11  -13.60    9.30
   1  -9  11   11.30    8.90
  -2   9 -11   30.40   11.20
  -2   9 -11   20.80    7.20
   2  -9  11   23.30   10.40
   2  -9  11   13.90    8.90
   2  -9  11   21.50    8.20
   3  -9  11   25.00   10.70
   4  -9  11   17.60   13.80
   3   8 -11   29.10    4.50
  -3  -8  11   35.50   16.70
   2   8 -11   14.30    8.10
   2   8 -11   14.60    3.10
   2   8 -11   30.90   12.20
  -2  -8  11   35.90   10.00
  -2  -8  11   17.40   10.00
   1   8 -11   39.80   10.50
   1   8 -11   29.90    7.30
   1   8 -11   30.50    3.50
  -1  -8  11   52.99    8.80
   0   8 -11   95.09   10.80
   0   8 -11   87.79   11.20
   0  -8  11   81.79   10.70
   0  -8  11  105.69   11.90
  -1   8 -11   62.69    7.30
  -1   8 -11   69.09   10.30
   1  -8  11   69.29    9.80
   1  -8  11   72.79    8.60
  -2   8 -11   34.50    9.40
   2  -8  11   23.10    7.30
   2  -8  11   25.30    7.90
   3  -8  11   51.29   10.20
   4  -8  11   28.20   13.40
   3   7 -11   36.60    4.50
  -3  -7  11   25.10    9.50
  -3  -7  11   10.80   10.20
   2   7 -11   36.60    4.00
   2   7 -11   49.90   10.20
   2   7 -11   43.50    7.80
  -2  -7  11   43.40    9.00
   1   7 -11   19.60    6.40
   1   7 -11   41.10    9.20
  -1  -7  11   13.50    6.90
   0   7 -11   43.70    5.90
   0   7 -11   46.40    8.90
   0  -7  11   33.40    6.50
   0  -7  11   43.30    8.60
  -1   7 -11   23.70    7.90
   1  -7  11   33.60    6.40
   1  -7  11   18.80    6.70
   1  -7  11   31.00    8.50
   2  -7  11   55.39    8.30
   3  -7  11   94.49   13.60
   4  -7  11   50.09   13.20
   4   6 -11   17.90    4.50
  -4  -6  11   22.10   15.80
   3   6 -11   12.40    3.40
  -3  -6  11   11.30    8.60
  -3  -6  11   -3.10    8.70
  -3  -6  11   29.40   12.70
   2   6 -11   29.70    3.60
   2   6 -11   29.60    6.80
   2   6 -11   34.70    9.00
  -2  -6  11   36.20    7.00
  -2  -6  11   35.50    7.90
   1   6 -11   65.69    8.50
   1   6 -11   60.09    6.80
   1   6 -11   51.49    4.10
  -1  -6  11   47.70    6.70
  -1  -6  11   72.39    8.60
   0   6 -11   31.90    5.50
   0   6 -11   35.40   10.10
   0  -6  11   27.70    5.80
   0  -6  11   44.80    7.70
  -1   6 -11  183.48   10.70
  -1   6 -11  178.38   13.70
   1  -6  11  154.58   10.60
   1  -6  11  165.68   12.00
   1  -6  11  186.78   13.80
  -2   6 -11   21.80    7.90
   2  -6  11   11.70    6.50
   3  -6  11   11.40    8.50
   4  -6  11   21.90   12.50
   4   5 -11   60.39    6.30
  -4  -5  11   51.39   14.80
   3   5 -11    6.60    3.20
  -3  -5  11    3.60    7.90
  -3  -5  11    1.80   11.20
  -3  -5  11   10.60    7.70
   2   5 -11   76.49    9.30
   2   5 -11   79.49    7.90
   2   5 -11   64.99    5.00
  -2  -5  11   69.19    7.80
   1   5 -11   18.70    7.00
   1   5 -11   11.50    2.70
   1   5 -11    8.70    4.90
  -1  -5  11   10.30    5.10
  -1  -5  11   19.00    6.40
   0   5 -11   -2.10    4.40
   0   5 -11   10.10    6.60
   0  -5  11    3.40    5.50
   0  -5  11   13.90    6.20
   0  -5  11   -0.50    4.60
  -1   5 -11   62.09    7.70
  -1   5 -11   67.39    7.70
   1  -5  11   63.69    6.00
   1  -5  11   74.59    8.10
   2  -5  11    7.80    6.30
   3  -5  11   14.60    8.00
   4  -5  11   38.20   12.60
   4   4 -11   22.30    4.50
  -4  -4  11   26.40   12.90
   3   4 -11  237.58   10.90
  -3  -4  11  247.68   18.00
  -3  -4  11  259.17   15.10
  -3  -4  11  253.47   15.90
   2   4 -11  110.49   12.60
   2   4 -11  111.49    6.20
  -2  -4  11  127.29   10.30
  -2  -4  11   84.09   11.30
   1   4 -11    5.80    6.50
   1   4 -11    0.50    2.40
   1   4 -11   -0.50    4.80
  -1  -4  11    8.60    4.60
  -1  -4  11    2.20    6.00
   0   4 -11   16.40    4.80
   0   4 -11   19.40    6.70
   0  -4  11   15.80    5.90
   0  -4  11   12.00    4.60
   0  -4  11    5.50    5.40
  -1   4 -11   66.79    7.80
  -1   4 -11   66.39    7.30
   1  -4  11   66.79    8.90
   2  -4  11  115.89   11.40
   3  -4  11   70.59   10.10
   4  -4  11    6.40   10.30
   4   3 -11   49.60    5.60
  -4  -3  11   65.89    9.20
  -4  -3  11   66.79   12.60
   3   3 -11    6.80    3.40
  -3  -3  11    5.20    6.60
  -3  -3  11    4.90    8.50
  -3  -3  11    8.30    6.70
   2   3 -11    2.50    2.80
   2   3 -11    3.90    7.10
  -2  -3  11  -12.00    4.70
  -2  -3  11    0.50    6.30
   1   3 -11  176.08    7.60
  -1  -3  11  153.68   11.40
  -1  -3  11  185.88   11.30
  -1  -3  11  197.48   12.20
   0   3 -11  468.45   16.10
   0   3 -11  413.16   19.40
   0   3 -11  485.45   18.30
   0  -3  11  450.75   19.50
   0  -3  11  451.95   19.40
   0  -3  11  424.36   17.80
  -1   3 -11    0.70    6.20
   1  -3  11    7.20    5.50
   2  -3  11   10.80    6.40
   3  -3  11  116.89   15.20
   3  -3  11  134.69    9.10
  -4   3 -11  106.49   12.60
   4  -3  11  126.59   16.60
   4   2 -11    7.10    4.30
  -4  -2  11   -6.40   10.40
   3   2 -11   35.50    7.30
   3   2 -11   33.50    4.50
  -3  -2  11   32.00    9.10
  -3  -2  11   32.30    6.70
  -3  -2  11   43.80    7.40
   2   2 -11  119.79   10.70
   2   2 -11  122.99   11.70
   2   2 -11  130.39    6.80
  -2  -2  11  108.69   10.10
  -2  -2  11  118.99   11.00
   1   2 -11   34.40    3.50
   1   2 -11   48.30    6.30
   1   2 -11   36.70    6.90
   1   2 -11   34.50    5.60
  -1  -2  11   36.10    5.60
  -1  -2  11   36.70    6.20
   0   2 -11  494.85   21.20
   0   2 -11  525.45   19.60
   0  -2  11  522.65   21.10
   0  -2  11  517.25   21.20
   0  -2  11  496.45   19.70
  -1   2 -11  172.58   12.00
   1  -2  11  165.68    9.10
   1  -2  11  186.98   12.40
   2  -2  11  175.98    8.70
   2  -2  11  178.18   14.40
  -3   2 -11    2.80    5.70
   3  -2  11    7.90    4.50
   3  -2  11   -2.00    8.10
  -4   2 -11   89.49    9.80
   4  -2  11   85.49   13.30
   4  -2  11   86.79    8.40
   5   1 -11    3.10    4.40
  -5  -1  11   10.90   11.90
   4   1 -11    3.90    4.00
  -4  -1  11    2.20    9.50
   3   1 -11   63.69    7.90
   3   1 -11   67.39    6.30
   3   1 -11   64.79    8.30
  -3  -1  11   73.39   12.40
  -3  -1  11   65.79    7.70
  -3  -1  11   69.99    9.30
   2   1 -11   24.20    7.20
   2   1 -11   15.80    6.00
   2   1 -11   18.10    3.60
  -2  -1  11   16.60    5.80
  -2  -1  11   17.20    6.20
   1   1 -11  118.89    7.80
   1   1 -11  115.39    6.30
   1   1 -11  116.99   11.60
   1   1 -11  116.79    9.40
  -1  -1  11  117.79   10.50
  -1  -1  11  127.59    8.90
   0   1 -11  365.36   16.90
   0   1 -11  354.06   15.50
   0   1 -11  346.77   15.00
   0  -1  11  352.96   16.40
   0  -1  11  330.37   14.80
   0  -1  11  363.36   16.50
  -1   1 -11    7.40    4.40
  -1   1 -11    8.80    6.40
   1  -1  11   14.00    6.70
  -2   1 -11    3.90    4.80
   2  -1  11    8.30    3.30
   2  -1  11    5.00    6.90
  -3   1 -11   34.20    6.30
   3  -1  11   46.00    9.20
   3  -1  11   29.00    5.20
  -4   1 -11    8.50    7.80
   4  -1  11   -2.50   10.70
   4  -1  11    4.40    5.90
   5   0 -11    6.50    4.50
   4   0 -11   -0.20    4.00
  -4   0  11    6.20    7.30
  -4   0  11   14.30    8.40
   3   0 -11   37.50    7.70
   3   0 -11   42.10    4.60
   3   0 -11   36.40   11.60
   3   0 -11   47.70    8.60
  -3   0  11   39.20    7.20
  -3   0  11   43.60    7.20
   2   0 -11  507.45   21.50
   2   0 -11  479.05   17.90
   2   0 -11  487.65   20.20
  -2   0  11  456.95   20.20
  -2   0  11  494.65   20.80
   1   0 -11  258.77   14.80
   1   0 -11  261.67   11.90
   1   0 -11  251.97   12.80
  -1   0  11  244.48   12.70
  -1   0  11  262.77   13.90
  -1   0 -11  234.68   12.00
   1   0  11  242.88   14.90
   1   0  11  231.98    9.60
  -2   0 -11   90.99    8.90
   2   0  11  117.79   13.10
   2   0  11   88.29    7.00
  -3   0 -11  127.19   13.70
  -3   0 -11  120.29   10.80
   3   0  11  107.29   15.10
   3   0  11  112.59    9.00
  -4   0 -11  108.79   13.90
   4   0  11  131.99   11.10
   5  -1 -11   30.20    5.40
   4  -1 -11    0.50    4.00
  -4   1  11   -7.90    9.20
   3  -1 -11  165.38   18.00
   3  -1 -11  151.08    8.20
   3  -1 -11  169.08   13.10
   3  -1 -11  148.19   14.40
  -3   1  11  142.39   12.80
  -3   1  11  133.19   12.10
   2  -1 -11   14.70    6.40
   2  -1 -11    5.10    7.60
   2  -1 -11    8.20    3.80
  -2   1  11    4.50    5.80
   1  -1 -11  139.49    8.70
   1  -1 -11  119.29    9.80
   1  -1 -11  125.89   12.50
  -1   1  11  119.59   10.00
  -1   1  11  126.99   10.50
   0  -1 -11   -1.50    4.70
   0  -1 -11    7.70    7.00
   0  -1 -11   12.30    4.70
   0   1  11    3.50    4.70
   0   1  11   12.00    5.80
  -1  -1 -11  207.08   14.20
   1   1  11  222.48   14.50
  -2  -1 -11    9.60    5.30
  -2  -1 -11   10.10    7.50
   2   1  11    1.80    3.50
   2   1  11    1.30    7.80
  -3  -1 -11   66.69   14.70
  -3  -1 -11   56.69    8.00
   3   1  11   62.29    7.90
  -4  -1 -11   59.99    9.80
   4   1  11   67.79    8.10
   5  -2 -11    5.60    5.10
   4  -2 -11   95.69    8.00
  -4   2  11   98.29   10.80
  -4   2  11  103.49   11.10
   3  -2 -11    4.00    4.10
   3  -2 -11    4.10    7.10
   3  -2 -11  -11.70    8.80
   3  -2 -11   20.20   12.20
  -3   2  11   10.60    8.50
  -3   2  11   -7.40    7.50
   2  -2 -11  111.39   14.20
   2  -2 -11  147.39   11.30
   2  -2 -11  114.09    7.40
  -2   2  11  101.19   11.60
  -2   2  11  113.39   11.70
   1  -2 -11  165.88    9.90
   1  -2 -11  181.98   11.50
   1  -2 -11  191.68   14.30
  -1   2  11  159.18   11.60
  -1   2  11  133.49   11.80
   0  -2 -11   32.30    5.20
   0  -2 -11   30.80    5.70
   0  -2 -11   26.20    8.30
   0   2  11   24.20    6.10
   0   2  11   25.00    6.40
  -1  -2 -11   58.49    8.10
   1   2  11   32.90    8.50
  -2  -2 -11   79.79   11.10
  -2  -2 -11   87.19    9.40
   2   2  11   90.09    7.00
  -3  -2 -11   84.69   11.00
   3   2  11   79.59    8.60
   4  -3 -11   75.49    6.80
   4  -3 -11   58.09   10.70
  -4   3  11   75.89   11.70
  -4   3  11   78.29   10.40
   3  -3 -11   -2.80   12.00
   3  -3 -11    8.30    7.80
   3  -3 -11   -1.40   10.00
   3  -3 -11    9.30    4.50
  -3   3  11    8.80    7.70
  -3   3  11   14.80    8.60
   2  -3 -11  205.18   16.90
   2  -3 -11  225.58   16.00
   2  -3 -11  211.88   13.80
  -2   3  11  225.88   13.60
  -2   3  11  221.38   14.30
   1  -3 -11   34.80    9.00
   1  -3 -11   35.20    6.60
   1  -3 -11   37.10    5.90
  -1   3  11   44.80    6.50
  -1   3  11   29.50    7.40
   0  -3 -11   -1.90    8.00
   0   3  11   14.00    6.50
   0   3  11    2.80    6.50
  -1  -3 -11  168.78   11.40
  -2  -3 -11   62.19    8.00
  -2  -3 -11   66.29   11.30
   2   3  11   73.59    7.30
  -3  -3 -11    3.90    7.60
   3   3  11   -4.50    5.20
   4  -4 -11   55.59   11.60
   4  -4 -11   35.50    5.60
  -4   4  11   39.70   10.10
  -4   4  11   39.90   13.20
   3  -4 -11    1.60    8.20
   3  -4 -11   20.00    4.80
   3  -4 -11    0.60   12.00
   3  -4 -11   16.50   10.80
  -3   4  11   18.40    8.40
  -3   4  11   22.70    8.70
   2  -4 -11  116.79   15.80
   2  -4 -11   99.09   12.70
   2  -4 -11  112.69   12.50
  -2   4  11  109.79   12.20
  -2   4  11  112.79   13.00
   1  -4 -11   11.90    6.20
   1  -4 -11   18.70    6.60
  -1   4  11   29.10    6.70
  -1   4  11   17.40    7.40
   0  -4 -11   -0.70    5.40
   0  -4 -11   -4.00    5.90
   0  -4 -11   14.60    9.10
  -1  -4 -11   19.40    9.40
  -1  -4 -11   26.40    6.40
  -2  -4 -11  112.19   18.70
  -2  -4 -11   97.89   11.50
   2   4  11  116.99    8.70
  -3  -4 -11   41.50    9.10
   3   4  11   51.19    7.30
   4  -5 -11   93.59    7.80
   4  -5 -11   70.19   12.50
  -4   5  11   66.49   12.50
  -4   5  11   81.49   12.60
   3  -5 -11  152.38   16.20
   3  -5 -11  123.89   15.40
   3  -5 -11  120.19    8.20
  -3   5  11  113.39   15.30
  -3   5  11  127.39   16.00
   2  -5 -11   79.39   12.10
   2  -5 -11   64.99    9.30
   2  -5 -11   61.79   12.50
   2  -5 -11   43.50    6.90
  -2   5  11   50.49    9.30
  -2   5  11   56.79    9.90
   1  -5 -11    8.80    9.00
   1  -5 -11    1.70    6.40
   1  -5 -11   15.30    7.20
  -1   5  11    0.40    7.80
  -1   5  11    1.50    8.10
   0  -5 -11   51.19    8.00
   0  -5 -11   63.79    8.20
   0  -5 -11   55.89   10.20
  -1  -5 -11   15.90    6.70
  -1  -5 -11   17.90   11.30
  -2  -5 -11  149.59   13.10
   2   5  11  156.18   10.30
   4  -6 -11    8.40    5.50
   4  -6 -11    9.40   12.60
  -4   6  11   24.50   11.90
  -4   6  11    5.60   13.80
   3  -6 -11   85.89   11.80
   3  -6 -11  116.69   16.20
  -3   6  11  127.69   17.10
   2  -6 -11   30.30    9.90
   2  -6 -11   22.20   11.20
   2  -6 -11   17.30   13.10
   2  -6 -11   30.90    7.40
  -2   6  11   36.00   10.10
   1  -6 -11  190.38   14.70
   1  -6 -11  182.08   13.00
   1  -6 -11  184.68   18.60
   1  -6 -11  188.88   17.50
   0  -6 -11   76.79    9.50
   0  -6 -11   87.69    9.40
   0  -6 -11   68.99   11.60
  -1  -6 -11   29.50    8.80
  -1  -6 -11   30.50   14.80
  -2  -6 -11   40.40    9.80
   2   6  11   44.30    6.60
   3  -7 -11   61.09   14.10
  -3   7  11   85.59   12.70
   2  -7 -11   28.40   10.00
   2  -7 -11   18.50   13.30
   2  -7 -11   16.70    9.00
   1  -7 -11  110.69   12.60
   1  -7 -11  110.09   14.80
   1  -7 -11  109.19   14.40
  -1   7  11  123.49   15.40
   0  -7 -11    7.40    8.70
   0  -7 -11  -13.30    8.20
   0  -7 -11   -5.10   12.10
   0   7  11    7.60   10.50
  -1  -7 -11  -20.00    9.10
   2  -8 -11   21.30   11.90
   2  -8 -11   21.10   15.40
   2  -8 -11   29.50   10.50
  -2   8  11   28.10   11.90
   1  -8 -11   27.90    9.80
   1  -8 -11   19.80   15.10
   1  -8 -11   15.20   11.10
  -1   8  11   31.80   11.90
   0  -8 -11   96.09   12.10
   0  -8 -11  100.39   15.00
  -1  11 -12   -3.00   10.90
  -1  11 -12   -8.10   16.50
   1 -11  12  -19.30   20.10
   1  10 -12    6.40    3.10
   1  10 -12    0.80   13.60
  -1 -10  12   39.80   14.30
  -1 -10  12   14.50   13.70
   0  10 -12  170.18   16.00
   0  10 -12  113.99   16.90
   0  10 -12  152.78   18.50
   0 -10  12  179.48   21.90
   0 -10  12  184.98   22.20
  -1  10 -12    5.80    9.40
  -1  10 -12   -2.70   15.40
   1 -10  12    8.90   13.10
  -2  10 -12   -0.40    9.40
  -2  10 -12    3.30   14.30
   2 -10  12  -10.60    9.70
   2   9 -12    1.70   11.10
  -2  -9  12   27.90   15.20
  -2  -9  12   39.60   13.30
   1   9 -12   12.00   11.40
   1   9 -12   10.70    9.10
   1   9 -12   10.30   14.50
   1   9 -12   17.90    3.30
  -1  -9  12   23.60   12.00
  -1  -9  12   35.20   12.30
   0   9 -12   58.49   13.80
   0   9 -12   60.99    8.80
   0  -9  12   50.49   12.60
   0  -9  12   35.70   11.30
  -1   9 -12   35.00   13.10
  -1   9 -12   14.70    7.80
   1  -9  12   -8.90    8.90
   1  -9  12   17.60   11.40
   1  -9  12   28.70   10.30
  -2   9 -12  116.39   14.70
  -2   9 -12   91.59   12.40
   2  -9  12   94.29   14.20
   2  -9  12   96.99   14.00
   3  -9  12    1.90   11.30
   2   8 -12    6.30    3.20
   2   8 -12   10.00    9.80
  -2  -8  12    8.80   10.60
  -2  -8  12   -4.30   10.60
   1   8 -12   21.70    3.30
   1   8 -12   18.10   12.70
   1   8 -12   31.40    8.20
  -1  -8  12   40.50   10.90
  -1  -8  12   47.80    9.50
   0   8 -12    5.80    7.40
   0   8 -12   -6.80   11.50
   0  -8  12   20.40    8.60
   0  -8  12    6.20   10.20
  -1   8 -12   62.59   12.40
  -1   8 -12   72.49   10.00
   1  -8  12   66.09   11.50
   1  -8  12   41.40    9.60
   1  -8  12   68.79    9.70
  -2   8 -12   54.09    7.40
  -2   8 -12   47.50   11.90
   2  -8  12   49.50    9.60
   3  -8  12   28.10   10.50
   3   7 -12    1.50    3.70
  -3  -7  12   12.20   16.20
  -3  -7  12    7.30   15.20
  -3  -7  12   -5.40   11.20
   2   7 -12   -6.10    8.10
   2   7 -12   19.50   12.10
   2   7 -12   10.10    3.30
  -2  -7  12   17.70    9.60
  -2  -7  12   13.80    9.60
   1   7 -12   17.20    3.30
   1   7 -12   20.30   10.80
   1   7 -12   25.00    7.70
  -1  -7  12   15.70    8.30
   0   7 -12    7.90    9.70
   0   7 -12    7.40    8.70
   0  -7  12    7.80    8.80
   0  -7  12   -6.30    7.00
  -1   7 -12   36.80    6.70
  -1   7 -12   51.59   10.30
   1  -7  12   24.80    7.90
   1  -7  12   32.90    7.20
   1  -7  12   39.40    9.60
  -2   7 -12    2.70    9.50
   2  -7  12   -3.90    7.70
   3  -7  12   11.50   10.10
   4  -7  12   40.50   15.30
   3   6 -12   54.59    5.70
  -3  -6  12   63.69   15.20
  -3  -6  12   48.90   10.90
   2   6 -12  195.38   17.80
   2   6 -12  200.98   15.10
   2   6 -12  208.58    9.40
  -2  -6  12  202.48   15.20
  -2  -6  12  239.78   17.00
   1   6 -12    6.70    6.20
   1   6 -12    5.60    2.90
   1   6 -12    7.40    8.70
  -1  -6  12   12.30    8.30
  -1  -6  12    5.40    6.60
   0   6 -12   11.30    5.90
   0   6 -12   13.10    8.50
   0  -6  12    7.90    7.30
   0  -6  12    4.40    5.90
   0  -6  12   14.30    8.20
  -1   6 -12   38.90    6.50
  -1   6 -12   49.70    9.30
   1  -6  12   38.50    6.90
   1  -6  12   51.79    9.10
   1  -6  12   46.80    8.20
  -2   6 -12    6.10    9.10
   2  -6  12    4.40    7.80
   3  -6  12   66.89   11.50
   4  -6  12    8.90   14.20
   3   5 -12   -0.40    3.40
  -3  -5  12   -3.40    9.10
  -3  -5  12   -2.10    9.30
  -3  -5  12    7.90   12.50
   2   5 -12   27.40    9.80
   2   5 -12   33.70    4.00
  -2  -5  12   26.00    7.30
  -2  -5  12   28.30    8.60
   1   5 -12   13.10    6.20
   1   5 -12   31.00    8.50
   1   5 -12   19.00    3.20
  -1  -5  12   11.40    6.40
  -1  -5  12    9.00    7.80
   0   5 -12   70.59    7.10
   0  -5  12   60.39    8.50
   0  -5  12   66.99    7.20
   0  -5  12   62.19    8.70
  -1   5 -12   44.80    8.70
  -1   5 -12   51.29    6.10
   1  -5  12   47.30    8.80
   1  -5  12   37.70    6.00
   1  -5  12   38.90    7.60
   2  -5  12  339.37   18.70
   3  -5  12   37.10   10.10
   4  -5  12   -7.00   12.90
   4   4 -12   88.19    7.70
  -4  -4  12   84.29   16.20
   3   4 -12  -10.90    8.30
   3   4 -12   15.20   10.20
   3   4 -12    0.40    3.70
  -3  -4  12   -0.90    7.90
  -3  -4  12   27.90    8.60
  -3  -4  12   10.60   11.20
   2   4 -12    9.80    3.40
   2   4 -12   15.40    9.40
  -2  -4  12   -1.10    9.70
  -2  -4  12   16.90    6.70
   1   4 -12  186.78   15.80
   1   4 -12  182.98    8.30
  -1  -4  12  198.38   11.80
  -1  -4  12  189.58   14.30
  -1  -4  12  186.18   13.30
   0   4 -12   16.40    3.00
   0   4 -12   28.30    6.10
   0   4 -12   15.20    8.50
   0  -4  12   24.80   11.50
   0  -4  12   21.30    7.20
  -1   4 -12   27.60    8.50
  -1   4 -12   33.50    5.70
   1  -4  12   13.30    5.40
   1  -4  12   22.50    7.40
   1  -4  12   40.70    8.10
   2  -4  12  109.99   13.50
   3  -4  12   21.90   10.70
   4  -4  12  190.58   20.80
   4   3 -12    7.80    4.80
  -4  -3  12   10.00   11.10
  -4  -3  12  -19.80   12.70
  -4  -3  12    9.20   10.30
   3   3 -12   27.60    4.60
   3   3 -12   17.80   10.00
   3   3 -12   32.40    8.30
  -3  -3  12   21.10   10.90
  -3  -3  12   27.70    8.20
  -3  -3  12   31.10    8.60
   2   3 -12   18.40    7.20
   2   3 -12   21.00    3.70
   2   3 -12   15.00    8.80
  -2  -3  12   19.00    7.60
  -2  -3  12   21.20    6.50
   1   3 -12  157.38   13.90
  -1  -3  12  105.69    9.90
  -1  -3  12  132.79   11.60
   0   3 -12    2.00    7.20
   0  -3  12    6.40    6.60
   0  -3  12    4.60    5.00
   0  -3  12    2.60    6.40
   1  -3  12   46.20    8.40
   2  -3  12   13.00    8.10
  -3   3 -12   13.70    6.90
   3  -3  12   23.90    9.60
  -4   3 -12    0.70    8.60
   4  -3  12   22.90   12.00
   4   2 -12   21.90    5.00
  -4  -2  12   32.40   10.00
  -4  -2  12   16.00   12.00
   3   2 -12   14.20    7.60
   3   2 -12   14.80    9.40
   3   2 -12    9.00    4.30
  -3  -2  12   11.50    8.20
  -3  -2  12    6.30    7.60
   2   2 -12  169.88   13.00
   2   2 -12  195.98   15.20
   2   2 -12  187.08    8.80
  -2  -2  12  157.28   12.20
  -2  -2  12  185.18   13.80
   1   2 -12  200.98   14.20
   1   2 -12  204.28   12.40
   1   2 -12  191.48    8.70
  -1  -2  12  177.48   11.80
  -1  -2  12  205.98   13.40
   0   2 -12  -12.50    5.10
   0   2 -12   -6.30    6.90
   0   2 -12    1.60    5.00
   0  -2  12    3.90    6.20
   0  -2  12   -7.00    4.50
   0  -2  12    7.90    6.60
  -1   2 -12   14.50    4.90
  -1   2 -12   14.10    4.90
   1  -2  12    9.00    7.00
  -2   2 -12    5.50    5.70
   2  -2  12    0.40    8.90
  -3   2 -12    2.40    6.60
   3  -2  12   20.30    5.60
   3  -2  12   23.00    9.60
  -4   2 -12   21.40    8.90
   4  -2  12   10.30   13.40
   4  -2  12   17.90    7.30
   4   1 -12    7.90    4.60
  -4  -1  12  -11.40   10.00
  -4  -1  12    3.90    8.30
   3   1 -12   14.10    9.00
   3   1 -12   10.30    4.30
   3   1 -12    1.50    7.60
  -3  -1  12    9.60    8.00
  -3  -1  12    3.30    8.40
   2   1 -12    6.80    6.50
   2   1 -12   12.70    4.00
   2   1 -12   21.40    8.60
  -2  -1  12    8.50    6.30
  -2  -1  12   10.70    7.50
   1   1 -12   53.69    6.80
   1   1 -12   43.30    5.80
   1   1 -12   52.79    5.60
   1   1 -12   58.69    9.00
  -1  -1  12   43.20    7.70
  -1  -1  12   46.60    6.50
   0   1 -12  290.37   14.10
   0   1 -12  274.87   16.70
   0   1 -12  289.87   13.40
   0  -1  12  289.47   15.90
   0  -1  12  298.67   16.10
   0  -1  12  254.37   13.80
  -1   1 -12   32.50    5.90
  -1   1 -12   43.30    5.90
   1  -1  12   34.10   11.40
  -2   1 -12   18.70    5.60
   2  -1  12    6.90    8.70
  -3   1 -12   55.89    8.20
   3  -1  12   62.69    7.00
   3  -1  12   70.79   11.70
  -4   1 -12   24.30    9.40
   4  -1  12   17.10    7.20
   4   0 -12   54.29    6.20
   4   0 -12   67.29   11.30
  -4   0  12   63.19   10.80
   3   0 -12  112.59   13.80
   3   0 -12  132.59   19.90
   3   0 -12  110.89    8.00
   3   0 -12  115.59   16.50
  -3   0  12  111.79   12.60
   2   0 -12   45.10    4.90
   2   0 -12   29.50    7.00
   2   0 -12   49.50    9.60
  -2   0  12   37.00    7.20
  -2   0  12   41.20    7.70
   1   0 -12    4.30    5.80
   1   0 -12   22.80   10.00
   1   0 -12    7.50    5.00
  -1   0  12    9.20    5.90
  -1   0  12    4.50    6.30
   0   0 -12  440.76   18.40
   0   0 -12  444.26   19.40
   0   0 -12  454.15   21.30
   0   0  12  439.06   18.70
   0   0  12  463.15   20.00
  -1   0 -12   15.10    5.50
   1   0  12    7.00    3.30
   1   0  12    0.40    8.80
  -2   0 -12  160.28   11.60
   2   0  12  199.28   16.40
   2   0  12  147.49    9.50
  -3   0 -12   59.19    8.20
   3   0  12   62.89    6.90
   3   0  12   55.29   12.40
   4  -1 -12    0.70   10.60
   4  -1 -12    2.60    4.80
  -4   1  12   11.30   10.80
  -4   1  12    6.00    9.30
   3  -1 -12   84.79   11.50
   3  -1 -12   75.09    7.00
   3  -1 -12   77.99    9.90
   3  -1 -12   64.69   16.10
  -3   1  12   47.00    9.40
  -3   1  12   59.39    9.20
   2  -1 -12   16.40    9.40
   2  -1 -12   19.60    4.50
   2  -1 -12   21.60    7.70
  -2   1  12   18.40    7.70
  -2   1  12   22.60    7.20
   1  -1 -12   85.29   12.70
   1  -1 -12   72.19    8.70
   1  -1 -12   73.89    8.20
  -1   1  12   76.69    8.80
  -1   1  12   71.59    7.90
   0  -1 -12   25.40    8.80
   0  -1 -12   30.80    8.50
   0   1  12   32.60    7.50
   0   1  12   37.50    6.30
  -1  -1 -12   60.49    9.10
   1   1  12   85.99   13.70
   1   1  12   66.29    6.00
  -2  -1 -12   23.10    6.60
   2   1  12   20.70    4.70
   2   1  12   15.60    9.80
  -3  -1 -12    1.90    7.40
   3   1  12   27.00    6.00
   4  -2 -12   30.40    5.90
   4  -2 -12   23.30   11.10
  -4   2  12   15.00   13.80
  -4   2  12   34.50   10.60
   3  -2 -12   61.89    6.30
   3  -2 -12   57.79   12.20
   3  -2 -12   88.39   16.10
   3  -2 -12   56.49    9.80
  -3   2  12   39.20    9.40
  -3   2  12   55.19   10.60
   2  -2 -12   12.60   10.30
   2  -2 -12   11.10    7.70
   2  -2 -12    0.90   11.80
  -2   2  12   -8.80    7.60
  -2   2  12    6.60    8.30
   1  -2 -12    6.50    6.70
   1  -2 -12  -21.00   10.20
   1  -2 -12    1.70    5.40
  -1   2  12   -9.60    7.20
  -1   2  12    2.90    7.20
   0  -2 -12   14.00    6.20
   0  -2 -12    2.00    9.60
   0  -2 -12   14.20    6.30
   0   2  12    8.70    7.20
  -1  -2 -12  150.88   16.10
  -1  -2 -12  193.48   12.10
  -1  -2 -12  177.08   12.30
   1   2  12  176.08    8.80
  -2  -2 -12    4.80   10.50
  -2  -2 -12    3.70    6.00
   2   2  12    1.90    4.40
  -3  -2 -12   -1.60    7.60
   3   2  12    1.00    5.70
   4  -3 -12    3.10    5.60
   4  -3 -12  -11.60   11.20
  -4   3  12    1.20   10.40
  -4   3  12   -5.60   12.80
   3  -3 -12    1.90   15.90
   3  -3 -12   -1.80    8.80
   3  -3 -12  -28.50   12.30
   3  -3 -12    3.40    5.10
  -3   3  12  -13.50    9.10
  -3   3  12    2.30   10.40
   2  -3 -12    6.80    7.70
   2  -3 -12   -7.90   12.40
   2  -3 -12    8.40   11.70
  -2   3  12   11.30    9.20
  -2   3  12    5.40    8.40
   1  -3 -12   37.90   11.00
   1  -3 -12   33.60   11.40
  -1   3  12   31.60    8.60
  -1   3  12   31.20    8.60
   0  -3 -12  106.69   11.50
   0  -3 -12  110.19   10.90
   0  -3 -12  121.59   12.50
   0   3  12  110.19   12.90
  -1  -3 -12   32.00    7.10
  -1  -3 -12   24.80    9.70
  -2  -3 -12   42.30    7.90
   2   3  12   46.90    5.80
  -3  -3 -12   93.09   14.10
   3   3  12   79.69   10.30
   4  -4 -12   36.70    6.10
   4  -4 -12   58.49   13.60
  -4   4  12   47.60   15.50
  -4   4  12   34.00   12.30
   3  -4 -12  -12.60   13.80
   3  -4 -12    0.20    5.10
   3  -4 -12  -13.30    9.70
  -3   4  12   -4.20    9.70
  -3   4  12   -2.80   10.00
   2  -4 -12    1.30   10.20
   2  -4 -12   -4.30   12.20
   2  -4 -12   13.10   13.10
  -2   4  12   21.50    8.60
  -2   4  12    3.60    9.10
   1  -4 -12   79.09    8.40
   1  -4 -12   75.19   12.60
   1  -4 -12   63.69    8.90
  -1   4  12   74.39   10.10
  -1   4  12   74.19    9.10
   0  -4 -12   25.80    7.30
   0  -4 -12   14.20    7.40
   0  -4 -12   11.80   11.10
   0   4  12   18.00    8.80
  -1  -4 -12   24.30   11.60
  -1  -4 -12    5.70    6.80
  -2  -4 -12  111.99   12.90
   2   4  12  138.69    9.90
   3  -5 -12   34.40   16.80
   3  -5 -12   65.99   12.80
  -3   5  12   42.50   11.90
  -3   5  12   54.39   11.80
   2  -5 -12   30.80    7.70
   2  -5 -12   53.09   15.40
   2  -5 -12   34.70   14.70
   2  -5 -12   57.99   10.20
  -2   5  12   48.60   10.70
  -2   5  12   29.30   13.20
   1  -5 -12   92.99   12.40
   1  -5 -12  112.39   14.80
   1  -5 -12  105.79   14.50
  -1   5  12  112.99   15.20
  -1   5  12   99.99   11.60
   0  -5 -12   10.10    8.40
   0  -5 -12   -2.80    7.80
   0  -5 -12   18.50   12.80
  -1  -5 -12  142.79   13.70
  -1  -5 -12  132.69   16.40
  -2  -5 -12   19.10    8.70
   2   5  12   16.50    5.50
   3  -6 -12   10.60   12.40
  -3   6  12   26.30   13.90
  -3   6  12   31.30   12.70
   2  -6 -12  139.99   13.40
   2  -6 -12  131.19   18.20
   2  -6 -12  111.39   12.80
  -2   6  12  110.79   14.10
  -2   6  12  149.59   20.30
   1  -6 -12   47.40   17.10
   1  -6 -12   28.60   13.60
   1  -6 -12    7.20    9.20
   1  -6 -12    1.40    7.90
  -1   6  12   24.20   10.90
   0  -6 -12   50.49   14.40
   0  -6 -12   30.40    9.30
   0  -6 -12   45.80   10.20
  -1  -6 -12   55.39   11.10
   2  -7 -12   11.70   10.40
   2  -7 -12   37.10   16.50
   2  -7 -12   22.60   12.00
  -2   7  12   27.90   12.80
   1  -7 -12   18.60   10.90
   1  -7 -12    2.30   15.20
   1  -7 -12    8.40    9.70
  -1   7  12   25.10   12.00
   0  -7 -12   24.30   10.60
   0  -7 -12    3.60    9.70
   0  10 -13   33.50   10.90
   0  10 -13   67.19   20.60
   0 -10  13   28.90   16.10
  -1  10 -13   22.80   10.10
  -1  10 -13   10.80   18.90
   1 -10  13   -0.80   11.90
   1 -10  13   23.50   16.80
   1   9 -13   11.30   10.90
   1   9 -13    8.90    3.40
  -1  -9  13   24.00   13.90
  -1  -9  13    9.70   13.20
   0   9 -13    8.40    9.50
   0   9 -13   21.00   15.70
   0  -9  13    8.90   13.10
   0  -9  13    8.00   13.90
  -1   9 -13   29.80    9.00
  -1   9 -13   30.70   15.40
   1  -9  13   44.50   14.10
  -2   9 -13   58.99    9.30
   2  -9  13   63.99   15.10
   2  -9  13   39.40   11.10
   2   8 -13   -4.60   11.10
   2   8 -13    1.30    3.70
  -2  -8  13    6.50   13.40
  -2  -8  13    5.10   12.70
   1   8 -13   65.39    5.60
   1   8 -13   67.39   15.10
   1   8 -13   42.60   15.00
  -1  -8  13   82.29   12.00
  -1  -8  13   68.79   13.00
   0   8 -13    5.00    8.20
   0   8 -13    8.60   13.20
   0  -8  13    1.90   11.50
   0  -8  13   17.80   10.60
  -1   8 -13   15.20   13.60
  -1   8 -13    9.20    7.50
   1  -8  13    4.50    9.30
   1  -8  13   12.00   11.50
   2  -8  13   -0.60    9.40
   3  -8  13   41.90   12.90
   2   7 -13    2.10   10.20
   2   7 -13    3.10    3.70
  -2  -7  13   11.70   11.50
  -2  -7  13    3.50   11.50
   1   7 -13   17.60    3.40
   1   7 -13    9.40   10.40
   1   7 -13    7.60   13.20
  -1  -7  13    9.60   10.80
  -1  -7  13   10.80    9.80
   0   7 -13   44.30    8.50
   0   7 -13   47.90   13.00
   0  -7  13   45.30   10.50
   0  -7  13   44.50    9.30
   0  -7  13   61.79   10.80
  -1   7 -13   -0.50    6.80
  -1   7 -13   13.30   17.10
   1  -7  13    8.30    8.60
   1  -7  13   22.90    8.10
   1  -7  13    7.30   10.30
  -2   7 -13   36.20   11.90
  -2   7 -13   11.70    7.40
   2  -7  13   12.00    9.40
   3  -7  13  154.48   20.20
   3   6 -13    2.30    3.90
  -3  -6  13   15.90   16.40
  -3  -6  13    0.20   12.10
   2   6 -13   12.80    3.80
   2   6 -13   27.80   12.80
  -2  -6  13    2.10    9.50
  -2  -6  13   -0.60   10.50
   1   6 -13   29.20    3.80
   1   6 -13   23.60    7.80
   1   6 -13   25.60   11.00
  -1  -6  13   15.50    8.70
   0   6 -13  260.67   15.00
   0   6 -13  266.77   19.80
   0  -6  13  233.18   15.60
   0  -6  13  272.87   17.80
   0  -6  13  298.47   19.30
  -1   6 -13   -0.60    9.80
  -1   6 -13    4.10    6.40
   1  -6  13    0.50    7.20
   1  -6  13  -11.40    8.30
  -2   6 -13    9.80    6.50
   2  -6  13   29.40    9.40
   3  -6  13   46.60   12.20
   3   5 -13   -7.00   10.60
   3   5 -13    3.00    4.10
  -3  -5  13    6.20   11.00
  -3  -5  13   -9.20   10.80
  -3  -5  13    9.30   14.50
   2   5 -13   51.59   12.10
   2   5 -13   54.49    5.70
  -2  -5  13   43.10    9.30
  -2  -5  13   35.10   10.70
   1   5 -13   33.70   10.60
   1   5 -13   30.30    8.10
   1   5 -13   14.40    3.50
  -1  -5  13   11.30    9.00
  -1  -5  13    8.50    9.40
  -1  -5  13   16.60    7.70
   0   5 -13  136.19   17.00
   0   5 -13  128.99   11.80
   0   5 -13  115.49    6.50
   0  -5  13  107.49   14.90
   0  -5  13   99.59   12.30
   0  -5  13  150.08   14.30
  -1   5 -13   56.59    7.20
  -1   5 -13   46.00   10.20
   1  -5  13   48.10    9.50
   1  -5  13   39.10    7.30
   2  -5  13  160.88   16.80
   3  -5  13   15.50   11.70
   3   4 -13   18.90    4.70
  -3  -4  13   26.40    9.90
  -3  -4  13   46.80   10.60
  -3  -4  13    2.50   13.00
   2   4 -13   -1.50    8.10
   2   4 -13    0.00    3.60
   2   4 -13    4.00   11.60
  -2  -4  13   18.20    7.80
  -2  -4  13    4.30    8.70
   1   4 -13    4.80    3.50
   1   4 -13   11.10   10.30
  -1  -4  13   14.00    8.10
  -1  -4  13   14.00    8.40
  -1  -4  13   24.50    7.10
   0   4 -13   42.90    4.10
   0   4 -13   37.60   14.80
   0  -4  13   41.10    8.60
   0  -4  13   46.10    9.70
   0  -4  13   49.50    7.30
  -1   4 -13    9.40    9.40
   1  -4  13    9.10    8.40
   2  -4  13   54.29   10.90
   3  -4  13    4.10   11.90
   3   3 -13   40.80    5.50
   3   3 -13   37.60   10.00
  -3  -3  13   38.20   10.30
  -3  -3  13   28.50    9.80
  -3  -3  13   28.70   12.40
   2   3 -13   87.89   10.00
   2   3 -13   70.39   12.20
   2   3 -13   83.09    6.60
  -2  -3  13   83.99    9.00
  -2  -3  13   81.99   10.70
   1   3 -13  144.19   16.90
   1   3 -13  107.09   12.70
   1   3 -13  131.79    7.10
  -1  -3  13  112.39   16.30
  -1  -3  13  134.79   14.00
  -1  -3  13  113.79   11.50
   0   3 -13   26.00   10.00
   0   3 -13   17.50    3.60
   0  -3  13   13.80    6.40
   0  -3  13   11.20    7.80
   0  -3  13   21.10    8.00
  -1   3 -13   14.50    9.60
   1  -3  13   40.60    9.30
  -2   3 -13    5.10    7.20
   2  -3  13   11.30   10.70
  -3   3 -13   90.39    9.90
   3  -3  13   88.89   13.40
   4   2 -13    9.10    5.00
  -4  -2  13   -8.60   10.90
   3   2 -13  131.29   15.30
   3   2 -13  113.39   17.20
   3   2 -13  122.59    8.60
  -3  -2  13  148.49   16.80
  -3  -2  13  127.09   11.70
   2   2 -13   92.59   10.10
   2   2 -13  123.69   17.00
   2   2 -13   93.49    7.30
  -2  -2  13   73.89   13.10
  -2  -2  13   80.69    8.90
   1   2 -13  299.17   16.20
   1   2 -13  291.77   18.80
   1   2 -13  289.07   11.80
  -1  -2  13  293.77   17.50
  -1  -2  13  252.77   15.40
   0   2 -13    9.70    6.60
   0   2 -13   12.50    6.50
   0   2 -13   19.70    8.90
   0  -2  13   15.00    8.20
   0  -2  13   30.10    9.60
   0  -2  13    7.20    5.80
  -1   2 -13  108.49   10.80
   1  -2  13  147.89   16.20
  -2   2 -13   22.90    7.10
   2  -2  13   40.50   11.60
  -3   2 -13   -1.40    7.10
   3  -2  13   15.40    6.10
   3  -2  13    5.90   11.40
   4   1 -13   44.10   13.40
   4   1 -13   35.70    5.90
  -4  -1  13   31.60   11.00
   3   1 -13    0.30    9.00
   3   1 -13   22.50    5.20
   3   1 -13   24.10   12.50
  -3  -1  13   15.40    9.20
  -3  -1  13    8.10   10.10
   2   1 -13   50.39    8.70
   2   1 -13   60.89   11.30
   2   1 -13   59.09    5.60
  -2  -1  13   34.20    8.60
   1   1 -13   80.29    9.00
   1   1 -13   82.69   11.20
  -1  -1  13   73.89    9.80
  -1  -1  13   61.39    8.10
   0   1 -13   70.89   10.60
   0   1 -13   69.99    8.30
   0   1 -13   66.79    9.20
   0  -1  13   77.69    9.70
  -1   1 -13  103.59   10.70
  -1   1 -13  109.89   11.40
  -1   1 -13  107.19   11.20
   1  -1  13  107.99   16.90
  -2   1 -13   88.49   11.00
   2  -1  13  104.09   17.20
   2  -1  13  103.09    8.70
  -3   1 -13    1.60    7.60
   3  -1  13   -1.60   12.90
   3  -1  13   -2.20    6.00
   4   0 -13    3.70    5.20
  -4   0  13    1.70   11.00
   3   0 -13   28.40   12.90
   3   0 -13   13.60    5.20
   3   0 -13   10.00   17.80
   3   0 -13   20.30   10.10
  -3   0  13   14.40    9.00
  -3   0  13   15.90    9.60
   2   0 -13  -16.00    7.30
   2   0 -13    7.80    4.90
   2   0 -13   25.10   11.70
  -2   0  13    7.90   10.30
  -2   0  13    4.20    8.50
   1   0 -13   -1.90   10.00
   1   0 -13    5.30   10.20
   1   0 -13    7.90    6.00
  -1   0  13    4.30    7.10
  -1   0  13   -8.00    7.60
   0   0 -13   26.60    6.20
   0   0 -13   28.30   10.60
   0   0 -13    7.70    6.40
   0   0  13   13.90    6.80
   0   0  13   19.10    8.30
  -1   0 -13   68.19   10.20
   1   0  13   62.29    6.90
   1   0  13   86.39   12.20
  -2   0 -13   79.29    9.20
   2   0  13  111.29   13.50
   2   0  13   84.39    7.50
  -3   0 -13   26.20    8.90
   3   0  13   24.40   13.90
   3   0  13   23.40    6.20
   4  -1 -13   15.00    5.90
  -4   1  13   -7.10   11.60
   3  -1 -13   31.80    5.60
   3  -1 -13   45.50   10.50
   3  -1 -13   44.30   14.20
  -3   1  13   19.80    9.80
  -3   1  13   29.70   10.90
   2  -1 -13   13.40    9.10
   2  -1 -13    5.20   11.70
  -2   1  13    8.40    8.90
  -2   1  13    5.00   11.00
   1  -1 -13   -5.50   10.30
   1  -1 -13    0.80    8.70
   1  -1 -13   -6.10    9.90
  -1   1  13   12.80    8.30
  -1   1  13    0.70    7.70
   0  -1 -13   96.79   10.50
   0  -1 -13   76.29   11.60
   0  -1 -13   92.49    9.30
   0   1  13   67.09    8.40
  -1  -1 -13   35.00    7.50
   1   1  13   37.50    4.70
   1   1  13   51.29   10.90
  -2  -1 -13    7.60    7.20
   2   1  13   -1.90    4.90
   2   1  13  -15.40   11.10
  -3  -1 -13  104.29   13.70
   3   1  13   75.29    8.30
   3  -2 -13  166.38   10.30
   3  -2 -13  115.59   16.70
   3  -2 -13  162.48   17.70
  -3   2  13  157.58   17.30
  -3   2  13  139.39   18.70
   2  -2 -13    9.10    9.60
   2  -2 -13   -7.00   11.80
  -2   2  13    2.90   15.50
  -2   2  13   -1.00    9.70
   1  -2 -13   -7.50    6.90
   1  -2 -13  -14.60   12.20
   1  -2 -13    8.40    8.00
  -1   2  13   -9.30    8.60
  -1   2  13   -0.10    8.70
   0  -2 -13    8.40   11.90
   0  -2 -13   38.70    8.30
   0  -2 -13   33.70    7.70
   0   2  13    6.30    8.40
   0   2  13   38.90    9.70
  -1  -2 -13   19.90    7.50
   1   2  13   19.90    4.10
  -2  -2 -13    6.20    7.70
   2   2  13    2.70    5.20
   3  -3 -13   10.40   11.00
  -3   3  13   13.90   11.10
  -3   3  13   19.50   13.40
   2  -3 -13  -21.80   15.00
   2  -3 -13   -0.80    9.20
  -2   3  13    1.90   11.30
   1  -3 -13   20.10   14.10
   1  -3 -13    4.40    7.30
   1  -3 -13   12.10    8.40
  -1   3  13    6.30    9.40
  -1   3  13    6.20   10.00
   0  -3 -13   17.00    7.60
   0  -3 -13   -0.60    7.30
   0  -3 -13   11.70   13.30
   0   3  13   10.40    9.80
   0   3  13   -4.10   11.50
  -1  -3 -13   36.40    8.60
   1   3  13   34.80    5.20
  -2  -3 -13   35.20    8.80
   2   3  13   21.40    5.70
  -3   4  13  101.59   16.70
  -3   4  13   84.79   13.80
   2  -4 -13   49.80   17.30
   2  -4 -13   48.50   11.30
  -2   4  13   73.39   14.30
  -2   4  13   50.69   12.60
   1  -4 -13   26.40   15.40
   1  -4 -13    5.50    9.40
   1  -4 -13   15.00    8.40
  -1   4  13   32.40   10.70
  -1   4  13   20.70   12.70
   0  -4 -13  -10.20   14.10
   0  -4 -13   -5.40    7.70
   0  -4 -13    1.10    8.20
  -1  -4 -13   35.90    9.20
  -1  -4 -13   31.40   14.30
   1   4  13   27.10    5.10
   2  -5 -13   74.99   19.40
   2  -5 -13   94.39   12.90
  -2   5  13   83.39   13.90
  -2   5  13   82.59   14.10
   1  -5 -13    8.00    9.20
   1  -5 -13   11.80   16.60
   1  -5 -13   31.30   10.40
  -1   5  13    8.40   11.70
   0  -5 -13   15.80    9.40
   0  -5 -13   42.20   10.40
   1  -6 -13   18.00   11.60
   1  -6 -13   40.60   20.30
   1  -6 -13   13.90   10.20
  -1   6  13   43.30   13.60
   1   8 -14   -8.90   10.90
   1   8 -14   14.70    4.00
  -1  -8  14   18.10   14.70
  -1  -8  14    1.50   13.10
   0   8 -14   16.30   15.90
   0   8 -14    6.50   10.40
   0  -8  14  -11.50   11.60
  -1   8 -14    0.20    9.20
  -1   8 -14    4.20   15.90
   1  -8  14    2.20   14.10
   1  -8  14    7.80   10.80
   1   7 -14    9.90    3.70
   1   7 -14   -3.30    9.70
   1   7 -14    2.50   16.00
  -1  -7  14    8.70   12.90
  -1  -7  14   -9.80   12.00
  -1  -7  14   10.50   11.80
   0   7 -14    8.60   14.80
   0   7 -14    9.70    8.50
   0   7 -14   12.50    3.90
   0  -7  14    4.70   10.60
   0  -7  14    9.60   12.90
   0  -7  14   18.30   12.70
  -1   7 -14  120.39   16.10
  -1   7 -14  120.69   13.70
   1  -7  14  109.09   17.60
   2  -7  14   19.60   11.30
   2   6 -14   23.90    4.60
  -2  -6  14   22.60   11.80
  -2  -6  14   25.80   13.20
   1   6 -14    1.40    3.80
   1   6 -14   -0.10   13.80
   1   6 -14    4.80    9.40
  -1  -6  14  -13.90   10.60
  -1  -6  14   -0.40   10.00
  -1  -6  14  -12.20   11.40
   0   6 -14    3.20    3.60
   0   6 -14   -7.70   12.40
   0   6 -14   15.30    8.30
   0  -6  14   22.80   10.20
   0  -6  14   -2.70    9.20
   0  -6  14   -2.50   11.10
  -1   6 -14   16.60   15.70
  -1   6 -14    9.40    7.40
   1  -6  14    3.80   10.30
   1  -6  14    0.90   11.80
  -2   6 -14   32.10    8.20
  -2   6 -14   18.80   13.60
   2  -6  14   34.30   12.10
   2   5 -14    0.00    4.10
  -2  -5  14   -7.10   10.60
  -2  -5  14   13.10   11.50
  -2  -5  14   -9.90   11.40
   1   5 -14    8.30    4.10
   1   5 -14   23.40   13.20
  -1  -5  14   26.30   10.40
  -1  -5  14    4.30    9.70
   0   5 -14   27.20   12.40
   0   5 -14   28.20    4.30
   0  -5  14   40.30   11.40
   0  -5  14   29.90   10.60
   0  -5  14   28.50    9.30
  -1   5 -14  231.08   22.00
   1  -5  14  262.77   20.90
   1  -5  14  270.87   19.40
   2  -5  14   50.19   12.80
   3   4 -14   51.39   13.10
   3   4 -14   35.40    6.20
  -3  -4  14   52.89   15.40
  -3  -4  14   75.49   14.70
  -3  -4  14   29.20   12.20
   2   4 -14    7.90   14.40
   2   4 -14    2.90    4.20
   2   4 -14   -6.20    9.60
  -2  -4  14   -1.50   10.30
   1   4 -14   19.20   13.20
   1   4 -14   23.10    8.60
   1   4 -14   19.40    4.40
  -1  -4  14   25.20    9.90
  -1  -4  14   45.00    9.30
  -1  -4  14   16.80   10.70
   0   4 -14   61.59    5.20
   0   4 -14   64.99   13.00
   0  -4  14   67.49   10.90
   0  -4  14   62.79   11.10
   0  -4  14   69.39    9.50
  -1   4 -14   23.80   12.00
   1  -4  14   21.30   10.60
   2  -4  14   40.90   12.20
  -3   4 -14    6.50    9.00
   3  -4  14   17.60   14.30
   3   3 -14   99.19   13.40
   3   3 -14  124.39    8.80
  -3  -3  14   96.99   13.80
  -3  -3  14  100.49   13.40
   2   3 -14    9.30    4.70
   2   3 -14    0.90   14.50
   2   3 -14   12.50   10.10
  -2  -3  14   15.80   10.30
  -2  -3  14   14.30    9.50
   1   3 -14    5.00   12.70
   1   3 -14   -1.80   12.20
   1   3 -14    7.70    4.40
   1   3 -14    1.30    8.70
  -1  -3  14    3.50    7.90
  -1  -3  14   20.40    9.70
   0   3 -14   14.70   12.20
   0   3 -14   19.60    7.60
   0   3 -14   25.00    7.70
   0  -3  14   28.30    9.70
   0  -3  14   28.60   10.50
   0  -3  14   11.00    7.80
  -1   3 -14   -1.70    7.30
  -1   3 -14  -19.00   11.90
  -1   3 -14   -4.60    7.30
   1  -3  14   17.70   10.70
  -2   3 -14  102.49   13.50
   2  -3  14  118.09   15.70
  -3   3 -14   20.00    9.10
   3  -3  14   12.50   14.20
   3   2 -14   27.90   11.70
   3   2 -14   45.90    6.30
  -3  -2  14   53.19   12.50
  -3  -2  14   31.70   11.70
   2   2 -14   34.00   13.20
   2   2 -14   13.60    9.20
   2   2 -14   11.60    5.30
  -2  -2  14    0.90    9.30
  -2  -2  14   10.90   10.70
   1   2 -14  363.86   23.70
   1   2 -14  356.96   18.70
   1   2 -14  291.37   19.60
   1   2 -14  347.57   13.90
  -1  -2  14  343.97   20.80
  -1  -2  14  290.47   18.20
   0   2 -14   11.70    6.70
   0   2 -14   13.00   11.70
   0   2 -14   15.60    7.90
   0  -2  14   20.20   10.30
   0  -2  14   11.80   10.10
   0  -2  14   -5.50    7.20
  -1   2 -14   63.79   11.90
  -1   2 -14   48.70    8.10
   1  -2  14   72.99   13.90
  -2   2 -14   50.69    8.80
   2  -2  14   53.29   13.30
   3   1 -14    5.10    5.60
   3   1 -14  -20.60   11.80
  -3  -1  14    1.70   10.50
  -3  -1  14  -10.30   12.20
   2   1 -14   18.30   13.30
   2   1 -14    2.50    5.20
   2   1 -14   -1.30   10.10
  -2  -1  14    7.40   10.40
  -2  -1  14   -4.20    9.90
   1   1 -14   55.69    8.50
   1   1 -14   49.60   12.90
   1   1 -14   51.59    9.20
  -1  -1  14   51.09   10.60
   0   1 -14   85.29    9.30
   0   1 -14   89.99   11.10
   0  -1  14   97.19   11.20
   0  -1  14  119.89   14.50
   0  -1  14   84.79    9.00
  -1   1 -14  135.29   13.50
  -1   1 -14  112.19   13.30
  -1   1 -14  110.79   12.20
   1  -1  14  128.09   19.30
  -2   1 -14    6.50    8.20
   2  -1  14   12.40   12.50
   2  -1  14   10.20    5.70
   3   0 -14   -4.60    5.40
   3   0 -14    1.40   12.40
  -3   0  14   -0.20   11.80
  -3   0  14   -0.10   11.10
   2   0 -14   13.30   14.90
   2   0 -14   14.60    5.70
  -2   0  14   12.50   10.10
  -2   0  14    2.20   10.10
   1   0 -14   11.50   13.10
   1   0 -14   12.10    7.10
   1   0 -14   -8.20    8.00
  -1   0  14    5.40    9.00
  -1   0  14    3.20    9.50
   0   0 -14   69.99    8.70
   0   0 -14   38.40    8.80
   0   0  14   44.30    8.70
   0   0  14   49.00   10.30
  -1   0 -14   12.60    7.70
  -1   0 -14   -9.20    8.50
   1   0  14   14.50   11.70
   1   0  14   10.20    4.80
  -2   0 -14   28.90    9.20
   2   0  14   24.90    6.40
   2   0  14   23.10   14.80
   3  -1 -14   34.50   12.70
   3  -1 -14   31.50    6.70
  -3   1  14   22.60   12.60
  -3   1  14   22.60   13.30
   2  -1 -14   35.40   10.70
   2  -1 -14   33.50   16.00
  -2   1  14    9.70   10.70
  -2   1  14    8.80   10.70
   1  -1 -14    1.50    7.40
   1  -1 -14    3.20    9.30
   1  -1 -14   25.40   14.60
  -1   1  14    0.70   10.30
  -1   1  14   -6.10    9.00
   0  -1 -14   15.10    9.20
   0  -1 -14    0.40    7.70
   0   1  14   -1.90   10.40
  -1  -1 -14   87.29   12.80
  -1  -1 -14   71.19    9.90
   1   1  14   58.49   14.20
   1   1  14   58.39    6.50
  -2  -1 -14   61.59   10.30
   2   1  14   58.59    7.90
   3  -2 -14   91.79    9.80
  -3   2  14   84.79   13.80
  -3   2  14   59.89   15.20
   2  -2 -14    9.60   11.00
   2  -2 -14  -11.40   15.90
  -2   2  14   18.50   11.40
  -2   2  14  -18.80   12.30
   1  -2 -14   22.40    8.30
   1  -2 -14   17.40   14.90
   1  -2 -14   27.10    9.80
  -1   2  14   27.10   11.00
  -1   2  14    7.70   10.80
   0  -2 -14   31.90    9.40
   0  -2 -14   45.50    9.00
   0   2  14   24.90   11.50
  -1  -2 -14  -23.70   14.00
  -1  -2 -14    7.60    9.50
  -1  -2 -14    5.10    9.20
   1   2  14    8.40    4.80
   2  -3 -14  382.46   23.20
   2  -3 -14  361.16   30.50
  -2   3  14  348.77   25.30
  -2   3  14  385.76   24.60
   1  -3 -14   36.00   10.70
   1  -3 -14   24.20   17.90
   1  -3 -14   54.59    9.70
  -1   3  14   54.69   12.70
   0  -3 -14   32.50   10.10
   0  -3 -14   38.40    9.30
   0  -3 -14   29.40   17.70
  -1  -3 -14  114.99   12.60
   1   3  14  138.89    9.70
   2  -4 -14    7.60   12.20
   2  -4 -14  -27.00   22.20
  -2   4  14   21.30   13.80
   1  -4 -14   25.00    9.80
   1  -4 -14   19.10   11.30
   1  -4 -14   45.70   20.60
  -1   4  14   33.50   13.40
   0  -4 -14   17.70    9.80
   0  -4 -14    3.30   10.50
   0   4  14   -0.50   13.70
   1   6 -15   -1.50    4.30
   1   6 -15   -2.40   17.80
  -1  -6  15   11.70   13.30
  -1  -6  15   19.30   15.30
   0   6 -15   53.39    5.60
   0   6 -15   40.30   16.60
   0  -6  15   50.19   13.70
   0  -6  15   58.49   14.90
  -1   6 -15   97.69   18.80
   1  -6  15  121.49   20.50
   1  -6  15  120.99   16.30
   1   5 -15   90.19   17.70
   1   5 -15   74.99    6.40
  -1  -5  15   58.69   13.20
  -1  -5  15   48.80   14.40
  -1  -5  15   22.30   13.20
   0   5 -15   28.30   15.40
   0   5 -15   17.50    4.70
   0  -5  15   20.50   12.60
   0  -5  15   30.70   12.60
  -1   5 -15   18.20    4.70
  -1   5 -15    3.70   15.10
   1  -5  15   13.30   13.80
   1  -5  15   25.40   13.30
   2   4 -15  281.37   23.20
   2   4 -15  305.87   13.90
  -2  -4  15  299.37   24.10
  -2  -4  15  334.47   24.00
   1   4 -15   -8.50    4.60
   1   4 -15    2.80   16.90
   1   4 -15   -6.50    8.50
   1   4 -15  -10.80   10.30
  -1  -4  15   10.70   12.30
  -1  -4  15   33.00   11.70
   0   4 -15  111.69    8.10
   0   4 -15  106.29   13.90
   0   4 -15   85.89   11.60
   0   4 -15  105.59   17.10
   0  -4  15  135.99   19.80
   0  -4  15  116.29   14.20
  -1   4 -15   -7.40    8.80
  -1   4 -15   12.60    9.30
   1  -4  15    1.10   13.40
   1  -4  15   20.40   13.50
  -2   4 -15   44.50   11.00
   2  -4  15   72.29   17.40
   2   3 -15   45.10    6.30
   2   3 -15   48.50   13.00
  -2  -3  15   33.90   12.60
  -2  -3  15   30.60   13.10
   1   3 -15   -2.90    5.50
   1   3 -15   14.10   10.30
   1   3 -15    7.90    7.80
   1   3 -15  -20.90   16.20
  -1  -3  15   -1.10   10.90
   0   3 -15    4.80    8.40
   0   3 -15   -0.70   15.10
   0   3 -15   13.50   10.00
   0  -3  15   38.70   12.60
   0  -3  15   22.60   12.40
  -1   3 -15  -13.20   14.60
  -1   3 -15  -16.10    9.00
   1  -3  15   24.10   13.90
  -2   3 -15    3.80    9.90
   2  -3  15   -1.80   16.20
   2   2 -15   38.60    6.30
   2   2 -15   24.80   11.50
   2   2 -15   53.59   21.00
  -2  -2  15   34.40   12.90
  -2  -2  15   12.60   11.50
   1   2 -15   18.30   15.20
   1   2 -15   -1.70    9.80
   1   2 -15    2.90    8.10
  -1  -2  15    3.60   10.00
  -1  -2  15    8.00   13.10
   0   2 -15   32.00    8.70
   0   2 -15   41.60   10.50
   0   2 -15   55.99   14.90
   0  -2  15   36.70   12.60
   0  -2  15   57.39   13.80
  -1   2 -15   36.70   14.70
  -1   2 -15   15.20   10.00
  -1   2 -15   25.40    8.80
   1  -2  15   31.40   15.60
   2   1 -15    2.10    6.20
   2   1 -15   11.80   17.90
   2   1 -15  -17.70   10.90
  -2  -1  15  -19.90   11.80
  -2  -1  15    8.10   12.00
   1   1 -15    2.60   15.30
   1   1 -15   11.10    8.70
   1   1 -15   -3.50    9.60
  -1  -1  15  -20.80   13.20
  -1  -1  15   -1.70   10.80
   0   1 -15    6.60    9.30
   0   1 -15   -3.80    8.40
   0   1 -15    0.10   14.30
   0  -1  15    4.70   11.10
   0  -1  15   -9.10   14.70
  -1   1 -15  -16.50    8.90
  -1   1 -15    3.10    8.60
  -1   1 -15    6.10   16.30
   1  -1  15  -11.80   14.00
   2   0 -15   14.30   19.10
   2   0 -15   -0.40   12.40
  -2   0  15   -5.10   13.20
  -2   0  15  -19.20   11.90
   1   0 -15   12.70    9.20
   1   0 -15    1.50   16.50
   1   0 -15   10.60   11.30
  -1   0  15   19.40   12.40
   0   0 -15   13.90    8.80
   0   0 -15    6.90   15.70
   0   0 -15  -10.20   10.20
  -1   0 -15   -1.50   10.40
  -1   0 -15   22.80    9.60
   1   0  15   15.60    5.70
   1   0  15   16.80   14.20
   2  -1 -15   54.49   14.10
   2  -1 -15   46.20   21.00
  -2   1  15   21.40   22.20
  -2   1  15   31.90   14.50
   1  -1 -15  123.59   14.90
   1  -1 -15  164.18   18.60
   1  -1 -15  137.99   20.40
  -1   1  15   97.79   15.10
   0  -1 -15   15.20   10.60
   0  -1 -15   18.50   17.70
   0  -1 -15    2.40   10.00
   1  -2 -15   10.60   10.10
   1  -2 -15    0.10   12.00
   1  -2 -15  -19.40   19.90
  -1   2  15   -5.80   13.80
   0  -2 -15   45.00   11.20
   0  -2 -15   39.60   12.00
   0   2  15   56.79   14.70

_computing_structure_solution     'SHELXT 2014/4 (Sheldrick, 2014)'
;
_shelx_hkl_checksum              29135
loop_
_space_group_symop_operation_xyz
'x, y, z'
'-x, -y, -z'
loop_
_atom_site_label
_atom_site_type_symbol
_atom_site_fract_x
_atom_site_fract_y
_atom_site_fract_z
_atom_site_U_iso_or_equiv
_atom_site_adp_type
_atom_site_occupancy
_atom_site_site_symmetry_order
_atom_site_calc_flag
_atom_site_refinement_flags_posn
_atom_site_refinement_flags_adp
Cl1 Cl 0.82299(17) -0.11494(8) -0.17703(8) 0.0212(2) Uani 1 1 d . .
F1 F 0.9535(5) 0.6791(2) 0.58869(18) 0.0384(6) Uani 1 1 d . .
F2 F 1.0338(5) 0.8443(2) 0.50582(19) 0.0351(6) Uani 1 1 d . .
F3 F 0.6310(5) 0.7522(2) 0.5274(2) 0.0405(7) Uani 1 1 d . .
O1 O 1.0581(4) 0.3513(2) 0.0446(2) 0.0177(5) Uani 1 1 d . .
N1 N 0.6046(6) 0.3095(3) 0.0226(2) 0.0140(6) Uani 1 1 d . .
H1 H 0.476(9) 0.333(4) 0.043(4) 0.027(12) Uiso 1 1 d . .
C1 C 0.8355(6) 0.4648(3) 0.1857(3) 0.0127(7) Uani 1 1 d . .
C2 C 0.6236(6) 0.4521(3) 0.2559(3) 0.0159(7) Uani 1 1 d . .
H2 H 0.470976 0.383627 0.233747 0.019 Uiso 1 1 calc R U
C3 C 0.6340(7) 0.5385(3) 0.3574(3) 0.0180(7) Uani 1 1 d . .
H3 H 0.490102 0.528611 0.405292 0.022 Uiso 1 1 calc R U
C4 C 0.8565(7) 0.6400(3) 0.3892(3) 0.0165(7) Uani 1 1 d . .
C5 C 1.0678(7) 0.6551(3) 0.3192(3) 0.0169(7) Uani 1 1 d . .
H5 H 1.218139 0.725041 0.340463 0.020 Uiso 1 1 calc R U
C6 C 1.0573(6) 0.5673(3) 0.2185(3) 0.0145(7) Uani 1 1 d . .
H6 H 1.202172 0.576813 0.171127 0.017 Uiso 1 1 calc R U
C7 C 0.8432(6) 0.3706(3) 0.0782(3) 0.0133(7) Uani 1 1 d . .
C8 C 0.5649(6) 0.2065(3) -0.0741(3) 0.0131(7) Uani 1 1 d . .
C9 C 0.3749(6) 0.2027(3) -0.1606(3) 0.0170(7) Uani 1 1 d . .
H9 H 0.275811 0.268194 -0.155531 0.020 Uiso 1 1 calc R U
C10 C 0.3303(7) 0.1019(3) -0.2553(3) 0.0185(7) Uani 1 1 d . .
H10 H 0.202498 0.099759 -0.315316 0.022 Uiso 1 1 calc R U
C11 C 0.4715(7) 0.0048(3) -0.2622(3) 0.0177(7) Uani 1 1 d . .
H11 H 0.442400 -0.063874 -0.326394 0.021 Uiso 1 1 calc R U
C12 C 0.6555(6) 0.0106(3) -0.1732(3) 0.0153(7) Uani 1 1 d . .
C13 C 0.7065(6) 0.1101(3) -0.0794(3) 0.0150(7) Uani 1 1 d . .
H13 H 0.835795 0.112364 -0.019856 0.018 Uiso 1 1 calc R U
C14 C 0.8698(7) 0.7289(4) 0.5016(3) 0.0229(8) Uani 1 1 d . .
loop_
_atom_site_aniso_label
_atom_site_aniso_U_11
_atom_site_aniso_U_22
_atom_site_aniso_U_33
_atom_site_aniso_U_23
_atom_site_aniso_U_13
_atom_site_aniso_U_12
Cl1 0.0229(4) 0.0137(4) 0.0260(5) -0.0015(3) -0.0005(3) 0.0065(3)
F1 0.0618(17) 0.0400(14) 0.0153(11) -0.0001(10) -0.0080(11) 0.0215(12)
F2 0.0459(14) 0.0223(11) 0.0273(12) -0.0092(9) -0.0020(11) -0.0021(10)
F3 0.0305(13) 0.0499(15) 0.0345(13) -0.0202(11) -0.0014(10) 0.0177(11)
O1 0.0116(11) 0.0181(12) 0.0215(13) -0.0018(10) 0.0015(9) 0.0036(9)
N1 0.0092(13) 0.0157(14) 0.0161(14) -0.0011(11) 0.0009(11) 0.0044(11)
C1 0.0133(15) 0.0140(15) 0.0114(15) 0.0023(12) -0.0036(12) 0.0049(12)
C2 0.0118(15) 0.0180(16) 0.0161(16) 0.0014(13) -0.0020(13) 0.0009(13)
C3 0.0169(17) 0.0215(17) 0.0163(17) 0.0040(14) 0.0014(13) 0.0055(14)
C4 0.0175(16) 0.0183(16) 0.0142(16) 0.0011(13) -0.0035(13) 0.0073(13)
C5 0.0129(16) 0.0162(16) 0.0190(17) -0.0002(13) -0.0045(13) 0.0013(13)
C6 0.0106(15) 0.0162(16) 0.0180(16) 0.0046(13) 0.0004(13) 0.0050(13)
C7 0.0117(15) 0.0125(15) 0.0163(16) 0.0042(13) 0.0012(13) 0.0028(12)
C8 0.0104(15) 0.0144(15) 0.0130(16) 0.0006(12) 0.0011(12) 0.0011(12)
C9 0.0131(16) 0.0160(16) 0.0215(18) 0.0031(14) 0.0002(13) 0.0030(13)
C10 0.0171(17) 0.0218(17) 0.0149(16) 0.0006(13) -0.0062(13) 0.0038(14)
C11 0.0175(17) 0.0154(16) 0.0166(17) -0.0023(13) -0.0019(13) 0.0004(13)
C12 0.0149(16) 0.0133(15) 0.0174(16) 0.0018(13) 0.0038(13) 0.0029(13)
C13 0.0121(15) 0.0156(16) 0.0157(16) 0.0004(13) -0.0008(13) 0.0017(13)
C14 0.0248(19) 0.0238(18) 0.0187(18) -0.0025(15) -0.0029(15) 0.0080(15)
loop_
_atom_type_symbol
_atom_type_description
_atom_type_scat_dispersion_real
_atom_type_scat_dispersion_imag
_atom_type_scat_source
C C 0.0033 0.0016 'International Tables Vol C Tables 4.2.6.8 and 6.1.1.4'
H H 0.0000 0.0000 'International Tables Vol C Tables 4.2.6.8 and 6.1.1.4'
N N 0.0061 0.0033 'International Tables Vol C Tables 4.2.6.8 and 6.1.1.4'
O O 0.0106 0.0060 'International Tables Vol C Tables 4.2.6.8 and 6.1.1.4'
F F 0.0171 0.0103 'International Tables Vol C Tables 4.2.6.8 and 6.1.1.4'
Cl Cl 0.1484 0.1585 'International Tables Vol C Tables 4.2.6.8 and 6.1.1.4'
loop_
_geom_angle_atom_site_label_1
_geom_angle_atom_site_label_2
_geom_angle_atom_site_label_3
_geom_angle
C7 N1 C8 125.1(3)
C7 N1 H1 119(3)
C8 N1 H1 116(3)
C2 C1 C6 119.1(3)
C2 C1 C7 123.2(3)
C6 C1 C7 117.7(3)
C3 C2 C1 120.5(3)
C3 C2 H2 119.7
C1 C2 H2 119.7
C2 C3 C4 119.8(3)
C2 C3 H3 120.1
C4 C3 H3 120.1
C5 C4 C3 120.4(3)
C5 C4 C14 120.5(3)
C3 C4 C14 119.0(3)
C6 C5 C4 119.5(3)
C6 C5 H5 120.3
C4 C5 H5 120.3
C5 C6 C1 120.7(3)
C5 C6 H6 119.6
C1 C6 H6 119.6
O1 C7 N1 123.4(3)
O1 C7 C1 120.6(3)
N1 C7 C1 116.1(3)
C13 C8 C9 120.8(3)
C13 C8 N1 120.7(3)
C9 C8 N1 118.5(3)
C8 C9 C10 119.5(3)
C8 C9 H9 120.3
C10 C9 H9 120.3
C11 C10 C9 120.5(3)
C11 C10 H10 119.8
C9 C10 H10 119.8
C12 C11 C10 118.3(3)
C12 C11 H11 120.9
C10 C11 H11 120.9
C11 C12 C13 122.5(3)
C11 C12 Cl1 118.9(2)
C13 C12 Cl1 118.5(3)
C12 C13 C8 118.5(3)
C12 C13 H13 120.8
C8 C13 H13 120.8
F2 C14 F3 106.4(3)
F2 C14 F1 106.6(3)
F3 C14 F1 105.7(3)
F2 C14 C4 113.3(3)
F3 C14 C4 112.3(3)
F1 C14 C4 112.1(3)
loop_
_geom_bond_atom_site_label_1
_geom_bond_atom_site_label_2
_geom_bond_distance
Cl1 C12 1.748(3)
F1 C14 1.346(4)
F2 C14 1.336(4)
F3 C14 1.343(4)
O1 C7 1.237(4)
N1 C7 1.354(4)
N1 C8 1.429(4)
N1 H1 0.79(5)
C1 C2 1.395(5)
C1 C6 1.399(4)
C1 C7 1.497(4)
C2 C3 1.384(5)
C2 H2 0.9500
C3 C4 1.394(5)
C3 H3 0.9500
C4 C5 1.393(5)
C4 C14 1.495(5)
C5 C6 1.384(5)
C5 H5 0.9500
C6 H6 0.9500
C8 C13 1.385(5)
C8 C9 1.387(5)
C9 C10 1.398(5)
C9 H9 0.9500
C10 C11 1.389(5)
C10 H10 0.9500
C11 C12 1.382(5)
C11 H11 0.9500
C12 C13 1.383(4)
C13 H13 0.9500
loop_
_geom_torsion_atom_site_label_1
_geom_torsion_atom_site_label_2
_geom_torsion_atom_site_label_3
_geom_torsion_atom_site_label_4
_geom_torsion
C6 C1 C2 C3 -1.0(5)
C7 C1 C2 C3 176.6(3)
C1 C2 C3 C4 0.9(5)
C2 C3 C4 C5 0.1(5)
C2 C3 C4 C14 -177.3(3)
C3 C4 C5 C6 -0.9(5)
C14 C4 C5 C6 176.4(3)
C4 C5 C6 C1 0.7(5)
C2 C1 C6 C5 0.2(5)
C7 C1 C6 C5 -177.5(3)
C8 N1 C7 O1 6.8(5)
C8 N1 C7 C1 -172.8(3)
C2 C1 C7 O1 -150.0(3)
C6 C1 C7 O1 27.6(5)
C2 C1 C7 N1 29.6(5)
C6 C1 C7 N1 -152.8(3)
C7 N1 C8 C13 40.1(5)
C7 N1 C8 C9 -142.0(3)
C13 C8 C9 C10 -1.4(5)
N1 C8 C9 C10 -179.2(3)
C8 C9 C10 C11 1.1(5)
C9 C10 C11 C12 0.2(5)
C10 C11 C12 C13 -1.1(5)
C10 C11 C12 Cl1 176.8(3)
C11 C12 C13 C8 0.8(5)
Cl1 C12 C13 C8 -177.1(2)
C9 C8 C13 C12 0.4(5)
N1 C8 C13 C12 178.2(3)
C5 C4 C14 F2 25.1(5)
C3 C4 C14 F2 -157.5(3)
C5 C4 C14 F3 145.7(3)
C3 C4 C14 F3 -36.9(5)
C5 C4 C14 F1 -95.5(4)
C3 C4 C14 F1 81.8(4)

_cod_database_fobs_code 2108306
