#------------------------------------------------------------------------------
#$Date: 2021-03-13 07:56:10 +0200 (Sat, 13 Mar 2021) $
#$Revision: 263024 $
#$URL: file:///home/coder/svn-repositories/cod/cif/2/10/87/2108790.cif $
#------------------------------------------------------------------------------
#
# This file is available in the Crystallography Open Database (COD),
# http://www.crystallography.net/. The original data for this entry
# were provided by IUCr Journals, http://journals.iucr.org/.
#
# The file may be used within the scientific community so long as
# proper attribution is given to the journal article from which the
# data were obtained.
#
data_2108790
loop_
_publ_author_name
'Zarychta, Bartosz'
'Czapla, Zbigniew'
'Przes\/lawski, Janusz'
'Szklarz, Przemys\/law'
_publ_section_title
;
 Structure, ferroelasticity and Goldilocks zone phase transitions in
 C~3~H~5~N~2~Al(SO~4~)~2~&#x00B7;6H~2~O
;
_journal_coeditor_code           XK5078SUP1
_journal_issue                   2
_journal_name_full               'Acta Crystallographica Section B'
_journal_page_first
;
;
_journal_paper_doi               10.1107/S2052520621001256
_journal_volume                  77
_journal_year                    2021
_chemical_formula_sum            'C3 H17 Al N2 O14 S2'
_chemical_formula_weight         396.29
_space_group_crystal_system      monoclinic
_space_group_IT_number           13
_space_group_name_Hall           '-P 2ya'
_space_group_name_H-M_alt        'P 1 2/a 1'
_atom_sites_solution_hydrogens   mixed
_audit_creation_method           SHELXL-2013
_cell_angle_alpha                90
_cell_angle_beta                 88.835(9)
_cell_angle_gamma                90
_cell_formula_units_Z            2
_cell_length_a                   12.0026(10)
_cell_length_b                   6.7859(6)
_cell_length_c                   9.1005(11)
_cell_measurement_reflns_used    4395
_cell_measurement_temperature    290.0(1)
_cell_measurement_theta_max      25.998
_cell_measurement_theta_min      3.002
_cell_volume                     741.07(13)
_computing_cell_refinement       'CrysAlis RED (Oxford Diffraction, 2007)'
_computing_data_collection       'CrysAlis CCD (Oxford Diffraction, 2007)'
_computing_data_reduction        'CrysAlis RED (Oxford Diffraction, 2007)'
_computing_molecular_graphics    'Mercury (Macrae, 2020)'
_computing_structure_refinement  'SHELXL-2014 (Sheldrick, 2014)'
_computing_structure_solution    'SHELXS-2014 (Sheldrick, 2014)'
_diffrn_ambient_temperature      290.0(1)
_diffrn_detector_area_resol_mean 10.4508
_diffrn_measured_fraction_theta_full 0.979
_diffrn_measured_fraction_theta_max 0.979
_diffrn_measurement_device       '4-circle kappa geometry goniometer'
_diffrn_measurement_device_type  'Oxford Diffraction Xcalibur System'
_diffrn_measurement_method       \w--scan
_diffrn_radiation_monochromator  graphite
_diffrn_radiation_source         'Enhance (Mo) X-ray Source'
_diffrn_radiation_type           MoK\a
_diffrn_radiation_wavelength     0.71073
_diffrn_reflns_av_R_equivalents  0.0622
_diffrn_reflns_av_unetI/netI     0.0539
_diffrn_reflns_Laue_measured_fraction_full 0.979
_diffrn_reflns_Laue_measured_fraction_max 0.979
_diffrn_reflns_limit_h_max       14
_diffrn_reflns_limit_h_min       -14
_diffrn_reflns_limit_k_max       7
_diffrn_reflns_limit_k_min       -8
_diffrn_reflns_limit_l_max       11
_diffrn_reflns_limit_l_min       -8
_diffrn_reflns_number            4395
_diffrn_reflns_point_group_measured_fraction_full 0.979
_diffrn_reflns_point_group_measured_fraction_max 0.979
_diffrn_reflns_theta_full        25.242
_diffrn_reflns_theta_max         25.998
_diffrn_reflns_theta_min         3.002
_diffrn_standards_decay_%        0
_diffrn_standards_interval_count 0
_diffrn_standards_interval_time  0
_diffrn_standards_number         0
_exptl_absorpt_coefficient_mu    0.495
_exptl_absorpt_correction_type   none
_exptl_crystal_colour            colorless
_exptl_crystal_density_diffrn    1.776
_exptl_crystal_description       irregular
_exptl_crystal_F_000             412
_exptl_crystal_size_max          0.25
_exptl_crystal_size_mid          0.20
_exptl_crystal_size_min          0.125
_refine_diff_density_max         0.521
_refine_diff_density_min         -0.479
_refine_diff_density_rms         0.097
_refine_ls_extinction_method     none
_refine_ls_goodness_of_fit_ref   0.972
_refine_ls_hydrogen_treatment    mixed
_refine_ls_matrix_type           full
_refine_ls_number_parameters     125
_refine_ls_number_reflns         1431
_refine_ls_number_restraints     0
_refine_ls_restrained_S_all      0.972
_refine_ls_R_factor_all          0.0673
_refine_ls_R_factor_gt           0.0498
_refine_ls_shift/su_max          0.000
_refine_ls_shift/su_mean         0.000
_refine_ls_structure_factor_coef Fsqd
_refine_ls_weighting_details
'w=1/[\s^2^(Fo^2^)+(0.0750P)^2^] where P=(Fo^2^+2Fc^2^)/3'
_refine_ls_weighting_scheme      calc
_refine_ls_wR_factor_gt          0.1154
_refine_ls_wR_factor_ref         0.1214
_reflns_Friedel_coverage         0.000
_reflns_number_gt                1082
_reflns_number_total             1431
_reflns_threshold_expression     'I > 2\s(I)'
_cod_data_source_file            xk5078sup1.cif
_cod_data_source_block           I_non-standard_setting
_cod_original_sg_symbol_H-M      'P 2/a'
_cod_database_code               2108790
_shelx_space_group_comment
;
The symmetry employed for this shelxl refinement is uniquely defined
by the following loop, which should always be used as a source of
symmetry information in preference to the above space-group names.
They are only intended as comments.
;
_shelxl_version_number           2013-4
_shelx_res_file
;
TITL aqq_a.res in P2/c
REM Old TITL aqq in P2/c
REM SHELXT solution in P2/c
REM R1 0.195,  Rweak 0.009,  Alpha 0.048,  Orientation as input
REM Formula found by SHELXT:  C19 N2 O
CELL  0.71073   12.0026   6.7859  9.1005   90.000   88.835   90.000
ZERR   2.000   0.0010   0.0006   0.0011    0.000    0.009    0.000
LATT  1
SYMM 1/2-X, Y, -Z
SFAC C H N O AL S
UNIT 6 34 4 28 2 4
L.S. 10
BOND $H
CONF
ACTA
EQIV $1 x-1/2, -y+1, z
HTAB O1 S1_$1
HTAB O1 O2B_$1
HTAB O1 O2
HTAB O1A O2_$1
EQIV $2 x-1/2, -y, z
HTAB O1A S1_$2
HTAB O1A O2A_$2
EQIV $3 -x+1/2, y, -z
HTAB O1B S1_$3
HTAB O1B O2A_$3
EQIV $4 -x+1, -y, -z
HTAB O1B S1_$4
HTAB O1B O2B_$4
EQIV $5 -x+1, -y+1, -z+1
HTAB N1 S1_$5
HTAB N1 O3_$5
EQIV $6 x, y+1, z
HTAB C2 O3_$6
EQIV $7 -x+3/2, y+1, -z+1
HTAB C2 O3_$7
HTAB C2A O3
OMIT 0 52
OMIT     5   3   0
OMIT     3   1   1
OMIT    -9   3   1
OMIT   -10   2   2
OMIT     4   2   1
OMIT     2   0   4
OMIT  -11   3   1
OMIT     0   0   2
OMIT     2   0   5
OMIT     3   3   2
OMIT    -2   2   3
OMIT    -7   1   2
OMIT    10   4   2
OMIT    -2   6   6
OMIT   -10   4   2
OMIT     5   5   4
OMIT    -5   3   1
OMIT     4   4   4
OMIT     2   4   4
OMIT     3   3   1
OMIT    -6   4   1
OMIT     1   1   4
OMIT     6   6   6
OMIT    10   4   0
LIST 6
FMAP 2
PLAN 20
WGHT    0.075000
FVAR       0.79763
AL1   5    0.250000    0.265541    0.000000    10.50000    0.01584    0.01896 =
         0.02455    0.00000    0.00118    0.00000
O1    4    0.313520    0.464911    0.114176    11.00000    0.02053    0.02776 =
         0.03591   -0.00805   -0.00440    0.00314
H1A   2    0.274765    0.567520    0.155402    11.00000    0.05006
H1B   2    0.365370    0.459637    0.145487    11.00000    0.04864
O1A   4    0.119688    0.265743    0.115318    11.00000    0.02399    0.01965 =
         0.04234   -0.00060    0.01501   -0.00030
H1AA  2    0.092851    0.347818    0.147175    11.00000    0.03215
H1AB  2    0.090990    0.168781    0.138988    11.00000    0.03377
O1B   4    0.188475    0.068179   -0.116422    11.00000    0.01917    0.02758 =
         0.04008   -0.00873   -0.00415    0.00069
H1BA  2    0.129569    0.061000   -0.138830    11.00000    0.04016
H1BB  2    0.228303   -0.043881   -0.152974    11.00000    0.05323
S1    6    0.575208    0.230690    0.262612    11.00000    0.01531    0.01982 =
         0.03300    0.00034    0.00091    0.00101
O2    4    0.520204    0.413806    0.217104    11.00000    0.02178    0.02044 =
         0.04885    0.00377   -0.00077    0.00172
O2A   4    0.521287    0.063376    0.188229    11.00000    0.02049    0.02334 =
         0.06584   -0.00853   -0.00569    0.00106
O2B   4    0.694113    0.236282    0.216815    11.00000    0.01700    0.02619 =
         0.04564   -0.00059    0.00512   -0.00035
O3    4    0.564814    0.205190    0.421065    11.00000    0.03197    0.05137 =
         0.03351    0.00703    0.00218    0.00234
N1    3    0.663567    0.799742    0.504459    11.00000    0.02363    0.07399 =
         0.03663   -0.01062    0.00089    0.00732
AFIX  43
H1    2    0.595663    0.840210    0.507835    11.00000   -1.20000
AFIX   0
C2    1    0.750000    0.910739    0.500000    10.50000    0.04896    0.03805 =
         0.03794    0.00000   -0.00631    0.00000
AFIX  43
H2    2    0.750000    1.047788    0.499998    10.50000   -1.20000
AFIX   0
C2A   1    0.695575    0.611951    0.503037    11.00000    0.07824    0.04929 =
         0.03202   -0.00278    0.00535   -0.03163
AFIX  43
H2A   2    0.649369    0.501944    0.505828    11.00000   -1.20000
AFIX   0
HKLF 4

REM  aqq_a.res in P2/c
REM R1 =  0.0498 for    1082 Fo > 4sig(Fo)  and  0.0673 for all    1431 data
REM    125 parameters refined using      0 restraints

END

WGHT      0.0750      0.0000

REM Highest difference peak  0.521,  deepest hole -0.479,  1-sigma level  0.097
Q1    1   0.6486  0.3186  0.2458  11.00000  0.05    0.52
Q2    1   0.5618  0.3433  0.2082  11.00000  0.05    0.48
Q3    1   0.5560  0.1460  0.1908  11.00000  0.05    0.46
Q4    1   0.2819  0.3540  0.0741  11.00000  0.05    0.46
Q5    1   0.7500  0.9610  0.5000  10.50000  0.05    0.43
Q6    1   0.6343  0.1980  0.2523  11.00000  0.05    0.42
Q7    1   0.2223  0.1535 -0.0821  11.00000  0.05    0.38
Q8    1   0.7500  0.5244  0.5000  10.50000  0.05    0.38
Q9    1   0.6283  0.3420  0.3836  11.00000  0.05    0.37
Q10   1   0.6510  0.0872  0.4195  11.00000  0.05    0.33
Q11   1   0.6470  0.8393  0.5091  11.00000  0.05    0.29
Q12   1   0.6671  0.3984  0.4232  11.00000  0.05    0.28
Q13   1   0.3240  0.3974  0.1350  11.00000  0.05    0.25
Q14   1   0.6711  0.6601  0.5208  11.00000  0.05    0.25
Q15   1   0.7918  1.1244  0.5834  11.00000  0.05    0.24
Q16   1   0.4635  0.4244  0.0178  11.00000  0.05    0.22
Q17   1   0.2500  0.5629  0.0000  10.50000  0.05    0.22
Q18   1   0.5978  0.5378  0.5194  11.00000  0.05    0.21
Q19   1   0.5759  0.7268  0.5193  11.00000  0.05    0.20
Q20   1   0.6592  0.2647  0.0367  11.00000  0.05    0.20
;
_shelx_res_checksum              8739
_shelx_hkl_file
;
   2   0   0  260.45    6.35
  -2   0   0  262.78    6.05
  -3   0   0    0.83    3.32
   3   0   0    0.41    3.12
   4   0   0  222.74    8.76
  -4   0   0  221.65    8.12
  -5   0   0   -0.94    3.34
   5   0   0    0.15    3.97
  -6   0   0    7.27    4.39
   6   0   0    6.88    5.31
  -7   0   0    1.83    4.21
   7   0   0   -5.07    5.63
   8   0   0 1043.93   27.84
  -8   0   0  929.67   23.65
  -9   0   0    0.90    6.70
   9   0   0   12.23    6.90
 -10   0   0   49.10    8.65
  10   0   0   79.82   12.05
  11   0   0    9.04    7.66
 -11   0   0    5.24    7.14
  12   0   0  366.51   21.29
 -12   0   0  324.94   18.23
   0  -1   0   88.51    3.73
   0  -1   0   92.07    3.12
  -1  -1   0  583.16    9.96
  -1  -1   0  586.92    9.04
   2  -1   0   86.04    5.41
   2  -1   0   77.92    4.50
  -2  -1   0   85.93    4.58
  -2  -1   0   76.96    5.37
   3  -1   0 3001.83   28.67
  -3   1   0 3219.50   19.10
  -3  -1   0 3577.65   28.25
   3  -1   0 3112.87   28.06
  -3  -1   0 3467.83   31.48
  -4   1   0    7.38    2.27
   4  -1   0    7.07    3.27
   4   1   0    8.43    4.58
  -4  -1   0    5.20    4.02
   5   1   0 2494.62   32.49
  -5   1   0 2364.81   24.54
  -5  -1   0 2421.11   32.25
   5  -1   0 2445.30   31.31
  -6  -1   0   65.22    7.36
   6  -1   0   63.77    6.70
  -6   1   0   74.52    5.70
   6   1   0   60.81    7.18
  -7  -1   0  507.97   18.06
   7  -1   0  588.73   18.54
   7   1   0  501.09   17.71
  -7   1   0  532.40   15.11
   8   1   0   20.44    7.03
  -8  -1   0    9.87    6.72
   8  -1   0   14.65    5.83
  -8   1   0    8.47    4.63
   9   1   0 1020.39   28.58
  -9   1   0  965.26   23.71
  -9  -1   0  953.38   27.86
   9  -1   0  985.98   27.90
 -10  -1   0   11.75    8.41
  10  -1   0    6.68    6.86
  10   1   0    9.61    8.43
  11  -1   0   44.15    8.76
  11  -1   0   46.02    9.08
  11   1   0   52.81   12.20
 -11  -1   0   38.93    9.54
  12  -1   0   21.11    7.47
  12   1   0   21.85    9.91
  12  -1   0   11.83    8.23
 -12  -1   0    4.93    8.54
 -13  -1   0   95.50   13.73
  13   1   0  112.31   14.50
  13  -1   0  101.44   12.44
 -14  -1   0    0.41   10.52
   0  -2   0 2610.73   27.31
   0  -2   0 2615.36   23.27
   1  -2   0   66.79    5.46
   1   2   0   74.45    3.60
  -1  -2   0   69.25    5.20
  -1  -2   0   69.56    5.22
   1  -2   0   70.59    3.49
   2  -2   0   41.81    5.17
  -2  -2   0   32.18    4.17
  -3  -2   0  215.86    8.56
   3  -2   0  207.76    9.98
  -3  -2   0  185.95    9.28
  -4  -2   0 1782.95   25.50
   4  -2   0 1222.74   24.61
  -4  -2   0 1566.33   26.94
   4  -2   0 1381.36   23.16
   5  -2   0  163.03   10.44
  -5  -2   0  143.73    9.87
  -5   2   0  173.77    5.13
  -5  -2   0  146.76    8.36
   5  -2   0  143.07    8.86
   6  -2   0 2667.26   40.00
   6  -2   0 2648.66   37.31
  -6  -2   0 3070.91   42.71
  -6   2   0 2739.22   23.80
   6   2   0 3003.12   41.85
   7   2   0    6.22    6.86
  -7  -2   0    6.70    6.55
  -7   2   0   13.27    3.10
   7  -2   0   12.10    4.98
   7  -2   0   11.16    6.46
  -8  -2   0  159.80   13.19
   8  -2   0   97.59   10.65
   8   2   0  174.47   13.86
   8  -2   0  116.30   10.22
   9   2   0   49.63   10.24
   9  -2   0   65.04   10.22
   9  -2   0   65.24    9.69
  -9  -2   0   49.04    9.91
  10   2   0  171.00   15.15
 -10  -2   0  191.74   15.57
  10  -2   0  164.64   13.08
  10  -2   0  165.93   13.95
 -11  -2   0   11.83    8.65
  11  -2   0   15.61    8.56
  11   2   0   22.42    9.02
  11  -2   0    6.40    7.27
  12  -2   0  224.84   17.84
  12   2   0  248.18   20.39
 -12  -2   0  240.16   18.73
  13   2   0   14.02   10.20
 -13  -2   0    8.91    8.86
  13  -2   0   23.58   10.44
  14   2   0  188.27   18.80
 -14  -2   0  143.53   16.79
 -15  -2   0   -1.90   12.97
   0  -3   0  555.46   15.52
   0  -3   0  582.40   13.27
  -1  -3   0  994.56   20.57
   1   3   0 1038.12   14.93
   1  -3   0  940.09   14.58
  -1  -3   0 1041.22   19.78
   1  -3   0 1057.09   22.03
   2  -3   0    3.62    1.77
   2   3   0    4.19    1.55
   2  -3   0    5.11    4.34
  -2  -3   0    4.06    3.45
  -2  -3   0    2.60    4.04
  -3  -3   0   35.78    4.93
  -3  -3   0   34.43    5.74
   3  -3   0   51.83    6.83
   4  -3   0  160.06   10.55
  -4  -3   0  150.02    9.17
  -4  -3   0  144.21   10.44
  -5  -3   0  115.34   10.92
  -5  -3   0  134.54    9.54
  -6  -3   0   14.45    5.89
  -6  -3   0   12.77    7.51
   6  -3   0   19.61    7.47
  -7  -3   0  295.40   17.07
   7  -3   0  272.32   16.55
   8  -3   0  470.76   19.50
   8   3   0  437.10   20.96
   8  -3   0  518.16   23.23
  -8  -3   0  442.19   21.24
   9  -3   0 3196.14   57.22
   9   3   0 3472.66   57.36
  -9  -3   0 3455.76   58.84
  10  -3   0   -0.90    6.72
 -10  -3   0   -3.27    8.21
  10  -3   0   -8.43    8.03
  10   3   0    1.53    8.08
 -11  -3   0  176.15   16.51
  11   3   0  158.73   15.55
  11  -3   0  220.21   18.21
  12   3   0   24.87   11.13
 -12  -3   0   23.73    9.93
  12  -3   0   28.82    9.93
 -13  -3   0  157.92   17.55
  13   3   0  145.10   15.30
  13  -3   0  166.96   16.27
  14   3   0   43.40   11.86
 -14  -3   0   55.61   15.70
  14  -3   0   58.29   14.82
 -15  -3   0   15.06   14.37
   0  -4   0 2165.38   28.97
   0   4   0 2286.40   30.48
   0  -4   0 2294.92   36.81
   1   4   0  249.20    9.30
  -1  -4   0  228.20   11.05
   1  -4   0  233.66    9.04
   1  -4   0  246.30   12.93
  -1  -4   0  245.03   12.55
   2   4   0   53.58    3.52
   2  -4   0   46.68    7.12
  -2  -4   0   49.63    6.88
   2  -4   0   51.22    3.91
  -2  -4   0   48.84    7.38
   3  -4   0  160.65   11.59
  -3  -4   0  141.74    9.69
  -3  -4   0  151.57   11.11
  -4  -4   0  220.73   14.28
   4  -4   0  200.82   13.49
  -4  -4   0  176.41   11.35
   5  -4   0  325.62   16.86
  -5  -4   0  289.46   16.24
  -5  -4   0  326.93   15.22
  -6  -4   0  680.65   25.61
   6  -4   0  740.18   25.70
  -6  -4   0  734.97   23.30
  -7  -4   0   42.40    9.89
  -7  -4   0   46.46    8.17
   7  -4   0   63.27   10.35
   8  -4   0  128.99   12.66
  -8  -4   0  163.88   15.15
   9  -4   0   58.67   10.35
   9   4   0   72.01   12.05
  -9  -4   0   63.45   12.25
 -10  -4   0   57.42   12.47
  10  -4   0   14.04    8.84
  10   4   0   40.00   11.68
  11  -4   0   64.82   13.14
 -11  -4   0   62.18   13.08
  11   4   0   51.20   12.36
  12  -4   0  115.32   14.37
 -12  -4   0  122.29   17.42
  12   4   0  119.89   16.59
  13   4   0    0.37   10.81
 -13  -4   0   -0.11   12.86
  13  -4   0    5.04   11.72
  14   4   0   20.46   12.27
 -14  -4   0   24.54   13.08
  14  -4   0   28.51   13.58
   0  -5   0  224.92   11.24
   0   5   0  249.57   12.14
   0  -5   0  233.79   14.96
  -1  -5   0   43.49    8.08
  -1   5   0   59.76    9.24
   1  -5   0   48.29    5.89
  -1  -5   0   37.31    7.82
   1  -5   0   40.59    8.54
  -2  -5   0  381.97   16.46
   2  -5   0  368.08   18.41
  -2  -5   0  351.82   16.59
   3  -5   0  616.22   24.39
  -3  -5   0  556.66   20.94
  -3  -5   0  541.68   20.65
  -4  -5   0    6.46    6.22
  -4  -5   0   13.67    7.88
   4  -5   0   10.98    8.06
  -5  -5   0  196.02   13.78
   5  -5   0  256.17   17.01
  -5  -5   0  198.46   15.15
  -6  -5   0   18.03    8.34
   6  -5   0   20.74    8.58
  -6  -5   0   25.94    7.07
  -7  -5   0  116.50   13.99
  -7  -5   0  125.30   11.99
   7  -5   0  131.11   14.19
   8  -5   0  247.19   18.78
  -8  -5   0  251.15   16.11
  -8  -5   0  216.13   17.82
   9  -5   0  163.38   16.48
   9   5   0  149.19   16.40
  -9  -5   0  186.19   18.75
 -10  -5   0    5.20    9.28
  10   5   0   -2.55    9.50
  10  -5   0   -8.14    9.39
  11  -5   0    8.03   10.31
  11   5   0   36.18   12.71
 -11  -5   0   54.28   12.88
  12   5   0   12.40   11.94
  12  -5   0   36.55   11.46
 -12  -5   0   25.02   12.62
  13   5   0   11.31   11.77
 -13  -5   0   23.16   13.45
  13  -5   0   12.55   12.93
   0  -6   0 1738.79   40.85
   1  -6   0  231.82   16.66
  -1  -6   0  236.63   15.72
  -1  -6   0  234.88   13.80
  -2  -6   0    8.41    5.87
  -2  -6   0    5.50    6.48
  -2   6   0   30.09    7.47
   2  -6   0    9.06    8.36
  -3  -6   0  150.39   13.23
   3  -6   0  158.22   14.19
  -3   6   0  201.41   15.46
  -3  -6   0  172.96   13.75
   4  -6   0   95.96   12.79
  -4  -6   0   64.28    9.54
  -4  -6   0   71.94    9.93
  -5  -6   0  234.42   15.96
   5  -6   0  247.06   18.06
  -5  -6   0  241.84   16.99
  -6  -6   0   65.02   11.75
   6  -6   0   86.94   12.66
  -6  -6   0   81.63   11.66
  -7  -6   0   -3.95   10.31
   7  -6   0   15.72    8.49
  -7  -6   0   13.19    7.84
  -8  -6   0   -7.34   11.00
   8  -6   0    0.00   10.26
   9  -6   0   36.40   11.44
  -9  -6   0   31.35   11.20
  10  -6   0   10.35   10.85
  10   6   0   22.97   10.20
 -10  -6   0   28.99   12.95
  11   6   0    7.79   13.45
  11  -6   0   19.10   12.36
 -11  -6   0   34.91   14.08
  12  -6   0   27.47   14.15
   0  -7   0  253.00   17.66
  -1  -7   0   11.86    8.51
   1  -7   0    6.66    9.02
   2  -7   0   35.28    9.50
  -2  -7   0   28.78    9.15
   3  -7   0   76.24   12.95
  -3  -7   0   75.39   11.31
   4  -7   0   16.13    8.80
  -4  -7   0   21.31    8.67
  -4  -7   0   27.07   10.15
  -5  -7   0   -6.35    9.17
  -5   7   0    8.60   10.72
   5  -7   0    2.34    9.74
  -5  -7   0   -0.98    8.10
  -6  -7   0    4.39    9.82
  -6  -7   0   13.60    9.72
   6  -7   0    6.07    9.41
  -6   7   0    9.50   10.89
  -7   7   0  133.88   17.38
  -7  -7   0   98.40   15.15
   7  -7   0  131.70   16.99
  -8  -7   0  321.62   25.52
  -8   7   0  388.00   26.46
   8  -7   0  288.46   22.38
   9  -7   0  213.68   21.72
  -9   7   0  217.98   22.88
  -9  -7   0  186.87   21.72
  10  -7   0   19.76   13.51
 -10  -7   0   32.95   14.91
 -10   7   0   21.13   15.81
   0  -8   0   11.75   10.35
  -1  -8   0   63.38   11.07
   1  -8   0   61.81   11.55
  -2  -8   0   32.18   11.92
   2  -8   0   11.62   10.74
   3  -8   0   73.05   13.80
  -3  -8   0   97.46   12.84
   4  -8   0   20.52   11.96
  -4  -8   0   23.95    9.74
   5  -8   0   90.26   15.63
  -5  -8   0   63.95   12.01
   6  -8   0  146.24   18.49
  -6  -8   0  148.51   18.49
  -7  -8   0   70.41   13.32
  -8  -8   0   -2.21   14.58
  -8   8   0   -0.68   15.92
   0  -9   0    4.65   11.79
  -1  -9   0  -10.65   13.08
  -2  -9   0   25.87   12.16
  -3  -9   0   -0.68   12.64
  14   0   1  411.99   25.76
  13   0   1   13.21    9.76
  12   0   1  -11.33    9.37
 -11   0  -1   -3.80    6.94
  11   0   1   -8.25    9.06
 -10   0  -1  144.69   11.81
  10   0   1  151.19   15.00
   9   0   1   -1.99    8.08
  -9   0  -1    1.77    5.89
  -8   0  -1  311.65   14.24
   8   0   1  408.21   20.11
  -7   0  -1    0.81    4.78
   7   0   1    4.76    6.53
   6   0   1  203.44   12.18
  -6   0  -1  178.11    9.48
   5   0   1    1.20    5.11
  -5   0  -1   -0.26    3.76
  -4   0  -1 3220.25   30.46
   4   0   1 3268.87   36.48
   3   0   1    0.59    4.61
   2   0   1 6175.83   30.48
   2   0   1 5716.22   36.72
   1   0   1   -0.11    1.68
   1   0   1    2.55    1.68
  -1   0   1    3.60    1.59
  -1   0   1    3.30    1.70
  -2   0   1 2314.92   20.61
  -2   0   1 2523.71   21.59
  -3   0   1    3.14    3.43
   3   0  -1   -0.81    2.53
   4   0  -1 8031.60   42.86
  -4   0   1 7981.82   50.91
  -5   0   1   -0.94    3.52
   5   0  -1    0.98    3.06
   6   0  -1  870.42   19.21
  -6   0   1  842.19   20.11
   7   0  -1    5.55    4.96
  -7   0   1   -1.03    5.00
   8   0  -1  206.98   12.86
  -8   0   1  179.01   11.88
   9   0  -1   -1.99    5.96
  -9   0   1   -1.31    6.53
 -10   0   1   40.92    8.89
  10   0  -1   33.32    9.58
 -11   0   1    2.75    6.75
  11   0  -1    2.84    7.75
 -12   0   1   37.99    9.00
  15   1   1  438.32   26.94
  14   1   1    0.65   12.07
  13  -1   1  138.90   15.11
 -13  -1  -1  150.41   14.61
  13   1   1  147.53   17.60
 -12  -1  -1    2.31    7.40
  12   1   1   -4.83    9.52
  12  -1   1    1.72    8.65
  11  -1   1  431.73   19.39
 -11  -1  -1  386.27   20.09
  11  -1   1  448.93   22.86
  10  -1   1   81.68   11.09
  10   1   1   90.24   12.29
 -10  -1  -1   82.99   10.68
  10  -1   1   88.31    9.82
  -9  -1  -1  298.83   16.37
   9  -1   1  356.01   18.73
  -9   1  -1  351.93   14.41
   9  -1   1  325.73   15.55
   9   1   1  364.92   18.80
   8  -1   1    4.37    6.83
  -8  -1  -1    0.00    6.35
   8   1   1    4.39    7.01
  -8   1  -1   -1.00    4.10
   8  -1   1    2.03    5.39
   7  -1   1  146.74    9.32
   7   1   1  133.49   11.03
  -7   1  -1  146.13    7.97
  -7  -1  -1  144.60   10.61
   7  -1   1  162.70   11.18
   6  -1   1    9.24    5.26
   6   1   1    4.76    5.68
  -6   1  -1    9.06    3.54
  -6  -1  -1   10.46    5.92
   6  -1   1    8.62    3.76
   5  -1   1   61.33    6.94
   5   1   1   59.67    7.20
  -5  -1  -1   63.97    6.94
   5  -1   1   57.73    5.46
  -5   1  -1   67.29    4.87
   4   1   1    3.47    4.54
  -4  -1  -1    8.45    4.89
   4  -1   1    4.50    3.45
  -4   1  -1    4.37    2.40
   4  -1   1    3.84    4.30
   3  -1   1  204.36    8.84
   3   1   1  233.81   10.20
   3   1   1  233.07    7.01
   2   1   1   32.55    5.22
   2  -1   1   30.87    4.45
   2  -1   1   29.93    3.65
   2   1   1   30.48    3.32
  -2  -1  -1   30.59    2.36
   1  -1   1 3083.05   25.22
   1   1   1 2899.78   20.37
   1  -1   1 3060.32   22.60
   1  -1   1 3095.78   16.20
  -1  -1  -1 2923.56   17.38
   0  -1   1   42.66    2.88
   0  -1   1   38.58    3.08
   0   1   1   40.04    3.17
   0  -1  -1   44.36    3.12
   0  -1   1   32.07    2.36
  -1   1   1 8730.39   43.40
   1  -1  -1 8810.06   41.26
  -1  -1   1 5519.86   34.06
  -2  -1   1   69.49    5.55
  -2   1   1   70.72    3.60
  -2   1   1   77.57    6.77
  -2  -1   1   70.17    5.74
  -3  -1   1  629.38   14.76
   3  -1  -1  683.51   10.85
  -3   1   1  615.91   11.13
  -3  -1   1  592.61    9.52
  -4   1   1   37.23    3.76
   4  -1  -1   34.58    3.62
  -4  -1   1   31.92    5.26
  -5   1   1 1624.71   21.83
   5  -1  -1 1581.35   22.25
  -5  -1   1 1538.25   27.27
   5   1  -1 1519.19   23.97
   6   1  -1  126.68    8.76
  -6  -1   1  144.84    9.96
  -6   1   1  125.71    7.36
   6  -1  -1  148.46    8.38
   7  -1  -1 3275.22   40.46
  -7  -1   1 3776.12   48.73
  -7   1   1 3331.36   38.40
   7   1  -1 3632.41   42.66
   8  -1  -1    6.24    5.20
  -8   1   1   13.32    5.28
  -8  -1   1    8.08    7.18
   8   1  -1    5.50    5.81
  -9   1   1  161.13   10.68
  -9  -1   1  166.32   13.36
   9   1  -1  179.29   12.40
   9  -1  -1  173.51   12.05
  10   1  -1    1.03    6.96
 -10   1   1    3.47    5.41
  10  -1  -1    1.96    5.89
 -10  -1   1    2.53    7.95
 -11  -1   1  104.56   11.99
  11   1  -1  112.11   12.62
 -12  -1   1   24.82    9.00
 -13  -1   1  126.11   14.34
  14  -1  -1   -3.34   10.22
 -14  -1   1   -1.18   11.07
  15   2   1    5.79   14.93
 -15  -2  -1   17.44   13.01
  14   2   1   11.16   12.44
 -14  -2  -1   17.40   10.17
  13  -2   1   27.40   10.55
  13   2   1   38.49   12.51
 -13  -2  -1   32.07   10.15
  12  -2   1   21.51    9.06
  12  -2   1   24.23    9.08
 -12  -2  -1   37.03    9.82
  12   2   1   33.34   10.65
  11   2   1   -7.47    8.12
  11  -2   1   -6.79    7.73
  11  -2   1   -5.83    7.12
 -11  -2  -1    6.38    9.19
  10  -2   1  511.42   23.08
  10   2   1  494.69   23.62
 -10  -2  -1  458.97   22.20
  10  -2   1  566.18   23.60
   9  -2   1   31.24    8.43
   9  -2   1   27.99    8.41
   9   2   1   30.87    9.48
  -9  -2  -1   24.78    9.74
  -8  -2  -1 3237.25   50.39
   8   2   1 3445.32   52.31
   8  -2   1 3236.40   48.84
  -7  -2  -1  327.04   16.48
   7  -2   1  351.53   16.51
   7   2   1  346.08   17.18
   7  -2   1  374.61   16.61
   6  -2   1 1294.68   27.95
  -6   2  -1 1224.05   15.37
   6  -2   1 1268.63   27.07
  -6  -2  -1 1185.56   27.97
   6   2   1 1161.67   28.10
  -5  -2  -1   73.86    5.46
   5  -2   1   64.91    6.92
  -5  -2  -1   69.95    8.21
   5   2   1   68.34    8.41
   5  -2   1   61.18    6.88
  -5   2  -1   67.94    3.03
  -4  -2  -1  603.14   13.27
  -4  -2  -1  544.04   16.83
   4  -2   1  278.13   11.86
   4  -2   1  254.05   10.94
   4   2   1  462.42    9.10
   3  -2   1  144.53    7.84
   3   2   1  155.30    5.61
  -3  -2  -1  141.26    6.24
  -3  -2  -1  148.33    8.97
   2   2   1 7590.44   36.31
   2  -2   1 7643.76   49.82
  -2  -2  -1 7549.11   42.53
   1   2   1  134.45    5.52
   1  -2   1  130.58    6.88
  -1  -2  -1  145.32    6.27
   1  -2   1  146.26    4.78
   0  -2   1  425.07   11.99
   0  -2  -1  449.98   11.29
   0   2   1  439.72   11.16
   0  -2   1  414.98    9.80
  -1  -2   1  175.58    8.08
  -1   2   1  202.96    8.76
   1  -2  -1  199.12    8.62
  -1  -2   1  187.81    7.88
  -2  -2   1 2502.46   31.09
  -2  -2   1 2539.12   30.89
  -3  -2   1   17.62    4.56
   3  -2  -1   15.68    5.11
  -3  -2   1   13.32    3.71
  -4   2   1   18.86    2.42
   4  -2  -1   11.99    5.07
  -4  -2   1   25.06    5.11
  -4  -2   1   27.23    5.68
  -5   2   1    4.83    1.94
   5  -2  -1    4.54    5.41
  -5  -2   1    3.95    5.11
  -5  -2   1    2.45    1.75
   6  -2  -1  178.46   13.12
  -6  -2   1  450.87   18.21
   6  -2  -1  188.31    9.96
  -6   2   1  168.73    7.23
   7   2  -1   10.87    6.38
   7  -2  -1    7.29    6.72
  -7  -2   1   14.74    3.82
   7  -2  -1    9.39    4.98
  -7   2   1   15.02    3.67
  -7  -2   1    7.55    7.16
   8  -2  -1   40.39    9.28
   8  -2  -1   31.13    6.53
   8   2  -1   84.58   10.44
  -8  -2   1   98.27   11.81
   9  -2  -1  196.26   12.31
   9  -2  -1  196.58   15.37
  -9  -2   1  196.24   15.50
   9   2  -1  168.57   13.82
  10   2  -1 1133.57   32.12
  10  -2  -1 1103.55   33.99
 -10  -2   1 1243.24   36.42
 -11  -2   1   27.07    8.69
  11   2  -1   20.22    8.34
  11  -2  -1   21.09    7.82
 -12  -2   1   60.46   12.38
  12   2  -1   64.76   10.48
  12  -2  -1   53.40   12.07
  13  -2  -1    7.82    9.15
 -13  -2   1    4.61   11.11
 -14  -2   1  197.92   19.23
  14  -2  -1  159.56   16.57
 -15  -2   1   11.13   13.67
 -16   2   1  106.68   19.32
  15   3   1  157.50   18.69
 -15  -3  -1  145.17   18.10
  14   3   1   -6.64   11.68
 -14  -3  -1    4.72   12.12
  13   3   1  164.36   18.56
 -13  -3  -1  138.77   16.09
 -12  -3  -1   15.09    9.61
  12  -3   1   17.01   10.00
  12   3   1   18.69    9.10
  12  -3   1   16.13    8.95
  11  -3   1   85.17   11.79
 -11  -3  -1  127.40   15.57
  11   3   1  105.00   14.74
  11  -3   1   89.69   13.01
  10  -3   1  274.92   17.34
  10   3   1  277.48   18.78
  10  -3   1  282.91   17.71
 -10  -3  -1  256.36   18.17
   9  -3   1  945.20   29.56
  -9  -3  -1  848.15   30.17
   9  -3   1  949.59   29.67
   9   3   1  879.98   30.63
   8  -3   1   14.15    7.90
   8   3   1   12.88    9.80
  -8  -3  -1   14.61    9.41
   8  -3   1   15.72    7.42
  -7  -3  -1  219.58   15.50
   7  -3   1  207.59   13.97
   7  -3   1  211.04   14.13
   7   3   1  212.52   15.72
   6  -3   1    8.47    6.11
  -6  -3  -1    9.08    4.54
  -6  -3  -1   11.62    8.23
  -5  -3  -1 3503.07   49.08
  -5  -3  -1 3857.25   41.13
   5  -3   1 3538.55   46.50
   4   3   1   91.28    4.30
  -4  -3  -1   83.51    6.40
  -4  -3  -1   88.31    9.02
   4  -3   1   96.04    8.45
  -3  -3  -1  438.21   13.21
   3  -3   1  310.79   13.19
   3   3   1  323.17    8.45
  -3  -3  -1  422.38   15.89
   2   3   1  186.74    6.51
  -2  -3  -1  186.74   10.37
  -2  -3  -1  185.80    8.86
   2  -3   1  191.61    5.31
   2  -3   1  178.99   10.04
   1  -3   1  375.33   13.89
   1  -3   1  394.35    9.78
  -1  -3  -1  356.95   11.96
   1   3   1  353.22   10.00
   0   3   1  346.34   11.11
   0  -3  -1  320.62   11.72
   0  -3   1  330.47   12.82
   0  -3   1  322.28   10.28
   1  -3  -1   22.66    4.98
  -1   3   1   31.05    5.46
  -1  -3   1   29.93    5.11
  -1  -3   1   35.19    5.11
  -2   3   1    3.06    5.13
   2  -3  -1    4.89    4.54
  -2  -3   1    2.01    4.08
  -2  -3   1   -0.39    3.91
   3  -3  -1   23.01    6.07
  -3  -3   1   15.09    5.09
  -3  -3   1   21.55    5.89
  -4  -3   1  177.68   10.83
   4  -3  -1  193.20   12.29
  -4  -3   1  160.69   10.96
  -5  -3   1   25.17    6.14
   5  -3  -1    6.64    7.14
  -5  -3   1   27.84    7.49
  -6  -3   1  132.20   10.83
  -6  -3   1  125.93   11.68
   6  -3  -1  146.30   13.10
  -7  -3   1 3820.11   57.68
   7  -3  -1 3595.03   59.78
  -8  -3   1  109.80   13.38
   8   3  -1  111.17   12.44
   8  -3  -1  146.89   14.32
   9   3  -1  223.83   16.42
  -9  -3   1  296.58   19.45
  10   3  -1    8.78    7.51
  10  -3  -1    7.79    8.91
 -10  -3   1    3.01    9.37
  11  -3  -1   17.07   10.57
 -11  -3   1   48.12   11.75
  11   3  -1   40.09   10.94
  12  -3  -1  118.58   15.48
  12   3  -1   74.87   12.47
 -12  -3   1   69.19   15.48
 -13  -3   1  400.72   25.63
  13  -3  -1  365.94   25.65
  13   3  -1  336.38   22.90
 -14  -3   1    7.93   13.25
  14  -3  -1    4.65   12.62
 -15   3   1   80.11   16.57
  15  -3  -1   90.39   18.01
 -15  -3   1   95.26   16.37
  14   4   1   37.51   14.10
 -14  -4  -1   25.83   13.41
 -13  -4  -1   57.57   14.04
  13  -4   1   72.88   13.12
  13   4   1   51.11   13.84
  12   4   1   61.24   11.99
 -12  -4  -1   44.52   13.06
  12  -4   1   50.74   11.00
  11  -4   1   14.10    8.89
 -11  -4  -1   16.42   11.55
  11   4   1   15.46    8.89
  10   4   1  153.53   15.98
 -10  -4  -1  165.71   16.86
  10  -4   1  172.35   14.89
   9  -4   1   -0.26    7.03
  -9  -4  -1   11.11    8.69
   9   4   1    7.97    9.10
   8   4   1  735.29   28.75
  -8  -4  -1  736.25   28.82
  -7  -4  -1  187.66   12.25
   7  -4   1  178.18   14.02
  -7  -4  -1  158.40   14.63
  -6  -4  -1   80.80   11.18
   6  -4   1   60.72    9.37
  -6  -4  -1   96.00    9.21
  -5  -4  -1  351.38   18.17
  -5  -4  -1  361.90   14.65
   5  -4   1  347.32   17.14
  -4  -4  -1   85.59   10.50
   4  -4   1   55.00    8.21
  -4  -4  -1   78.71    8.62
   3  -4   1  108.07    9.96
  -3  -4  -1  119.51   10.48
  -3  -4  -1   96.68    8.19
   2  -4   1 2492.33   23.93
   2  -4   1 2586.28   41.24
   2   4   1 2268.13   25.37
  -2  -4  -1 2518.95   38.14
  -2  -4  -1 2327.06   35.26
  -1  -4  -1  649.27   18.49
   1  -4   1  662.83   20.72
   1   4   1  648.57   14.98
  -1  -4  -1  666.89   19.39
   1  -4   1  713.79   15.37
   0  -4   1  473.52   14.10
   0   4   1  450.42   14.48
   0  -4  -1  452.56   14.54
   0  -4   1  446.73   17.44
   0  -4  -1  440.94   16.22
  -1  -4   1   28.21    5.81
   1  -4  -1   27.99    6.05
  -1   4   1   23.91    5.52
  -1  -4   1   21.18    6.18
   1  -4  -1   28.80    4.69
   2  -4  -1   13.12    3.65
  -2  -4   1    6.77    5.26
  -2   4   1   13.56    6.90
   2  -4  -1    9.78    5.61
  -2  -4   1    7.88    5.81
  -3  -4   1   64.54    8.45
  -3   4   1   65.15   10.33
  -3  -4   1   73.86    8.10
   3  -4  -1   64.69    8.69
  -4  -4   1  301.49   15.15
  -4  -4   1  327.58   16.24
   4  -4  -1  386.55   18.01
   5  -4  -1   -0.35    7.42
  -5  -4   1    0.96    5.41
  -5  -4   1   -2.66    7.51
  -6  -4   1   29.91    8.32
  -6  -4   1   57.94    9.56
  -7  -4   1   79.39   12.38
   7  -4  -1   91.74   12.77
  -7  -4   1   89.95   11.31
   8  -4  -1   49.41   12.12
  -8  -4   1  137.74   15.39
   9   4  -1   43.95   10.02
  -9  -4   1   38.71   10.02
   9  -4  -1   49.06   10.52
 -10  -4   1  246.02   19.65
  10   4  -1  211.08   17.14
  10  -4  -1  247.17   20.09
  11   4  -1    8.58    9.89
  11  -4  -1    0.70    9.58
 -11  -4   1    3.73    9.52
  12  -4  -1   10.74   10.85
  12   4  -1   30.48   10.37
 -12  -4   1   42.14   11.31
 -13  -4   1    1.68   12.66
  13  -4  -1   11.00   12.60
  13   4  -1   -8.47   10.35
 -14  -4   1  121.41   18.84
 -14   4   1   93.40   18.21
  14  -4  -1  116.13   17.86
  13   5   1    1.83   14.02
  13  -5   1   -0.59   12.42
  12  -5   1   13.62   11.59
 -12  -5  -1   -9.72   11.38
  12   5   1    5.39   10.76
 -11  -5  -1  315.09   23.56
  11   5   1  294.94   23.45
  11  -5   1  237.33   20.09
 -10  -5  -1  151.15   16.75
  10   5   1  134.67   16.13
  10  -5   1  157.46   15.70
   9  -5   1   38.03    9.98
   9   5   1   35.37   11.94
  -9  -5  -1   33.54   11.42
  -8  -5  -1   72.99   11.86
   8  -5   1   85.39   12.23
  -7  -5  -1  153.57   15.44
   7  -5   1  183.90   14.61
  -6  -5  -1  162.77   15.13
  -6  -5  -1  179.49   12.58
   6  -5   1  133.95   12.75
  -5  -5  -1   70.28   11.31
  -5  -5  -1   94.08    9.65
   5  -5   1  126.89   12.40
  -4  -5  -1   31.11    6.81
   4  -5   1   31.64    8.76
  -4  -5  -1   30.33    8.84
  -3  -5  -1   29.69    6.90
  -3  -5  -1   28.32    9.02
   3  -5   1   32.47    7.77
  -2  -5  -1   81.66    9.85
  -2  -5  -1   88.29    9.50
   2  -5   1   93.82   10.87
   1  -5   1   57.64    9.13
  -1  -5  -1   43.49    8.32
  -1  -5  -1   62.90    8.10
   0  -5   1  540.15   17.10
   0  -5  -1  519.15   20.24
   0  -5  -1  515.46   17.60
   0  -5   1  547.60   21.64
   0   5   1  556.92   17.71
  -1   5   1 2247.82   37.36
   1  -5  -1 2239.09   32.64
  -1  -5   1 2122.26   40.41
   1  -5  -1 2110.80   40.57
  -1  -5   1 2237.08   36.64
  -2  -5   1  414.72   18.80
  -2  -5   1  459.65   18.49
  -2   5   1  455.02   19.06
   2  -5  -1  455.11   19.91
  -3  -5   1   22.82    7.64
   3  -5  -1   19.54    8.10
  -3   5   1   18.32    9.15
  -3  -5   1   15.74    6.90
  -4  -5   1  102.88   10.74
   4  -5  -1  103.20   11.90
  -4   5   1   95.45   12.82
  -4  -5   1   96.46   11.66
  -5   5   1  112.68   14.61
  -5  -5   1   56.94    9.74
   5  -5  -1   96.65   12.10
  -5  -5   1   51.02   11.07
  -6  -5   1  168.31   15.33
   6  -5  -1  157.48   14.80
  -6  -5   1  151.17   13.21
  -7  -5   1  376.80   20.09
  -7  -5   1  355.44   21.85
   7  -5  -1  433.98   23.01
  -8  -5   1   -7.73    9.26
  -8  -5   1    2.93    7.51
   8  -5  -1    6.11    8.25
  -9  -5   1   68.97   13.12
   9  -5  -1   93.73   12.86
  10  -5  -1   94.69   14.41
 -10  -5   1   69.60   13.17
  10   5  -1   80.59   13.54
 -11  -5   1   97.59   15.46
  11   5  -1   93.31   15.37
  11  -5  -1   87.99   12.99
 -12  -5   1  -15.68   13.54
  12  -5  -1   11.09   12.23
  12   5  -1    9.21   10.68
 -12   5   1    1.59   14.30
  13   5  -1   49.65   14.06
  13  -5  -1   63.47   14.39
  12  -6   1   -1.83   13.03
 -11  -6  -1   16.42   11.90
  11  -6   1   12.49   12.69
  11   6   1   22.82   13.95
  10   6   1   21.90   13.36
 -10  -6  -1   41.31   14.17
  10  -6   1    8.08   12.44
   9   6   1    7.40   10.55
  -9  -6  -1    4.76   10.02
   9  -6   1    6.24   10.07
   8  -6   1   41.13   11.75
  -8  -6  -1   56.09   13.19
   7  -6   1   80.06   12.44
  -7  -6  -1   80.59   12.14
   6  -6   1   62.12   11.46
  -6  -6  -1   48.71    9.56
  -6  -6  -1   44.80   11.24
   5  -6   1   72.75   11.66
  -5  -6  -1   82.57   11.27
  -5  -6  -1   64.47    8.65
  -4  -6  -1  103.95   11.29
   4  -6   1  121.17   13.27
  -4  -6  -1   98.38   12.01
   3  -6   1    5.24    7.95
  -3  -6  -1   15.04    6.88
  -3  -6  -1    6.03    7.16
  -2  -6  -1  375.11   18.97
   2  -6   1  363.35   20.94
  -2  -6  -1  353.19   17.75
  -1  -6  -1  733.59   23.43
  -1  -6  -1  763.00   26.68
   1  -6   1  756.95   28.12
   0  -6   1  162.53   14.74
   0  -6  -1  162.13   13.80
   1  -6  -1   57.73    9.80
  -1  -6   1   63.67   10.57
  -2   6   1  192.41   14.10
   2  -6  -1  168.25   14.54
  -2  -6   1  152.68   13.25
  -2  -6   1  155.89   12.73
  -3  -6   1   97.96   11.72
   3  -6  -1  126.48   13.38
  -3   6   1  101.85   12.16
  -3  -6   1  110.52   13.32
  -4   6   1  334.02   19.41
  -4  -6   1  239.09   16.68
  -4  -6   1  231.34   16.44
   4  -6  -1  257.76   18.60
  -5  -6   1    9.24    6.94
  -5  -6   1    2.49    7.88
  -5   6   1    6.90    9.43
   5  -6  -1    9.13    8.10
  -6  -6   1   72.40   12.03
   6  -6  -1   74.95   12.75
  -6   6   1   73.97   13.19
  -6  -6   1   67.18   10.37
  -7   6   1   84.30   14.52
   7  -6  -1   63.27   11.72
  -7  -6   1   85.89   14.17
  -7  -6   1   90.96   11.59
  -8  -6   1   15.59    8.97
  -8  -6   1    7.97    9.80
  -8   6   1   14.17   13.21
   8  -6  -1   26.77   10.15
  -9  -6   1   39.58   12.01
   9  -6  -1   38.01   11.94
 -10  -6   1   20.30   13.71
 -10   6   1   39.37   14.52
  10  -6  -1    9.87   11.29
  11  -6  -1    3.12   12.82
 -11  -6   1   -6.05   13.32
 -11   6   1   -3.58   14.80
  11   6  -1   12.86   12.69
  12   6  -1   41.35   14.48
 -10  -7  -1  221.26   21.81
  10  -7   1  198.66   22.10
   9   7   1  106.00   17.07
  -9  -7  -1   92.59   17.44
   9  -7   1   92.46   16.57
  -8  -7  -1   -4.74   12.12
   8  -7   1    1.55   11.11
  -7  -7  -1    2.60   10.70
   7  -7   1   10.87   10.24
   6  -7   1   12.38    9.80
  -6  -7  -1    7.71    9.85
  -5  -7  -1   26.72    8.36
   5  -7   1   19.87   10.13
  -5  -7  -1   31.64    9.72
  -4  -7  -1  121.57   14.24
  -4  -7  -1  134.51   13.93
   4  -7   1  147.26   13.73
   3  -7   1    3.30    9.21
  -3  -7  -1    6.83    7.75
  -3  -7  -1    7.16    7.53
   2  -7   1   38.45   11.11
  -2  -7  -1   36.94    8.10
  -1  -7  -1   37.18    9.13
   1  -7   1   41.48   10.26
   0  -7  -1   46.35   10.02
   0  -7   1   40.70   11.24
  -1  -7   1   59.76   10.83
   1  -7  -1   49.95   11.20
  -2  -7   1   71.02   12.10
   2  -7  -1   65.26   11.94
   3  -7  -1   11.11    9.02
  -3  -7   1   14.15    7.75
  -4  -7   1  120.04   13.67
   4  -7  -1  106.02   14.50
  -4   7   1  131.17   14.98
  -4  -7   1  131.19   15.11
   5  -7  -1    2.69    9.08
  -5   7   1   -3.73   11.62
  -5  -7   1    2.73    8.67
  -5  -7   1    8.12    9.45
  -6  -7   1  162.77   17.18
  -6   7   1  190.80   18.34
   6  -7  -1  176.24   18.08
  -6  -7   1  184.21   16.11
  -7  -7   1  269.88   20.94
  -7  -7   1  281.19   20.89
  -7   7   1  370.68   25.74
   7  -7  -1  329.11   23.38
  -8  -7   1  114.30   17.27
  -8  -7   1  134.82   15.96
  -8   7   1  110.93   18.23
   8  -7  -1  106.41   14.10
   9  -7  -1   30.00   11.72
  -9   7   1   27.82   14.41
  -9  -7   1   11.59   14.52
 -10  -7   1   27.88   14.58
  -8   8  -1  187.66   22.01
  -8  -8  -1  139.71   18.58
  -7  -8  -1  383.83   27.09
   6  -8   1   62.03   16.46
  -6  -8  -1   30.92   12.42
   5  -8   1   31.09   12.64
  -4  -8  -1    0.24    9.74
   4  -8   1    3.17   12.90
   3  -8   1   89.86   15.44
  -3  -8  -1   87.07   11.24
  -2  -8  -1  121.24   13.91
   2  -8   1  119.65   15.52
   1  -8   1  116.02   14.80
  -1  -8  -1  130.28   14.76
   0  -8  -1    6.22    9.80
   0  -8   1    3.60   10.00
  -1  -8   1   66.74   13.27
   1  -8  -1   64.80   13.30
   2  -8  -1   38.43   11.70
  -2  -8   1   17.51   10.61
   3  -8  -1   29.02   11.22
  -3  -8   1   17.18   10.11
   4  -8  -1   -1.64   11.68
  -4  -8   1    3.78   10.85
  -5  -8   1   71.22   10.85
   5  -8  -1   71.83   13.71
  -6  -8   1   19.34   12.01
   6  -8  -1   39.87   12.55
  -7  -8   1   20.20   14.65
  -7  -8   1   13.23   12.49
  -7   8   1   15.20   15.52
  -8  -8   1   22.53   14.32
  -8   8   1    0.22   15.87
  -3  -9  -1   -7.25   13.60
  -2  -9  -1   20.54   12.18
  -1  -9  -1   10.28   12.01
   0  -9  -1   42.92   13.91
  15   0   2   11.05   13.65
  14   0   2  476.53   28.82
  13   0   2  -10.44   10.81
  12   0   2   11.77    8.89
 -11   0  -2    0.76    6.29
  11   0   2   -7.64    8.58
 -10   0  -2 1784.42   36.31
  10   0   2 2050.32   48.10
   9   0   2    2.42    4.39
  -9   0  -2   -3.08    6.51
   9   0   2    0.90    8.89
   8   0   2  140.85   13.67
   8   0   2  125.15    8.10
  -8   0  -2  122.83   10.11
   7   0   2    1.64    2.95
   7   0   2   -0.35    6.92
  -7   0  -2    0.33    4.96
   6   0   2  470.22   11.59
  -6   0  -2  456.90   15.00
   6   0   2  522.25   19.72
   5   0   2    0.74    2.03
   5   0   2   -1.09    5.39
   4   0   2  932.01   21.64
   4   0   2  902.30   11.96
   3   0   2    1.55    3.34
   3   0   2   -0.79    4.04
   2   0   2 3539.80   33.73
   2   0   2 4290.29   35.17
   1   0   2   -0.13    1.68
   1   0   2   -0.98    3.43
   1   0   2   -1.83    3.49
   0   0   2  396.95    7.82
   0   0   2  375.86    9.37
   0   0   2  430.35   10.44
  -1   0   2    0.09    3.30
  -1   0   2    0.13    3.41
  -2   0   2 9048.69   50.72
  -2   0   2 8066.60   45.00
  -3   0   2    0.74    3.71
  -3   0   2    0.90    3.45
   3   0  -2    1.48    1.64
  -4   0   2  338.22   11.96
  -4   0   2  314.33   11.29
   4   0  -2  310.27    7.36
  -5   0   2    1.11    3.84
  -5   0   2    0.81    4.69
   5   0  -2    0.52    2.21
  -6   0   2  532.12   16.90
   6   0  -2  544.39   13.51
  -6   0   2  515.11   16.77
   7   0  -2   -4.52    3.80
  -7   0   2   -0.15    5.44
  -7   0   2   -0.31    6.77
  -8   0   2  741.98   23.51
  -8   0   2  797.10   23.67
   8   0  -2  879.44   21.90
  -9   0   2    2.45    7.58
   9   0  -2   -8.10    5.44
  -9   0   2    3.62    6.03
 -10   0   2   27.99    7.42
 -10   0   2   33.19    9.19
 -11   0   2   -3.73    6.70
 -11   0   2   -0.17    7.82
 -12   0   2   28.60   10.48
 -12   0   2   29.61    7.60
  16   1   2   -1.05   16.88
  15   1   2   50.15   15.44
  15  -1   2   55.28   14.43
  14   1   2   13.06   12.10
  14  -1   2    6.99   12.14
  13  -1   2  196.34   18.60
  13   1   2  189.66   19.56
 -13  -1  -2  203.20   17.64
  12   1   2    6.00   11.11
 -12  -1  -2    4.48    7.60
  12  -1   2   -0.55    8.95
  11   1   2  486.79   25.94
  11  -1   2  452.73   24.21
 -11  -1  -2  432.01   21.13
  10  -1   2   22.99    9.02
 -10  -1  -2   23.30    8.47
  10   1   2   26.90   10.96
  10  -1   2   26.72    7.88
  -9   1  -2   63.58    7.95
   9  -1   2   90.06   12.36
  -9  -1  -2   73.12   10.41
   9  -1   2   78.51    9.13
   9   1   2   74.10   11.33
   8  -1   2    0.76    4.91
  -8  -1  -2    4.74    7.10
  -8   1  -2    2.05    5.22
   8   1   2   -0.20    8.19
   8  -1   2   -3.12    8.27
  -7  -1  -2    5.94    6.40
  -7   1  -2   -0.28    4.39
   7  -1   2    1.94    3.65
   7   1   2   -0.35    6.31
   7  -1   2    5.50    6.35
   6  -1   2   -2.42    6.14
   6  -1   2    2.77    3.76
  -6   1  -2    2.69    3.67
   6   1   2    1.20    5.89
  -6  -1  -2    3.23    5.48
   5   1   2  272.39    9.78
   5  -1   2  320.38   10.31
   5  -1   2  333.83   14.52
   5   1   2  386.45   15.28
   4   1   2   37.05    4.56
   4   1   2   37.88    6.18
   4  -1   2   41.44    4.13
   4  -1   2   41.09    6.33
   3   1   2   35.00    5.26
   3   1   2   38.54    4.52
   3  -1   2   47.36    5.65
   3  -1   2   43.97    4.15
   2  -1   2   54.15    4.02
   2   1   2   48.99    5.46
   2  -1   2   52.62    5.37
   2   1   2   66.46    5.52
   2  -1   2   43.88    4.24
  -1  -1  -2 8802.74   33.58
   1  -1   2 9214.23   42.27
   1  -1   2 9226.33   49.87
   1   1   2 8963.79   51.61
   1   1   2 8887.02   46.16
   1  -1   2 9286.24   43.34
   1  -1   2 9282.77   48.34
   0   1   2    9.37    2.95
   0  -1   2   10.02    3.25
   0  -1   2    6.90    3.08
   0   1   2    3.86    3.69
   0  -1   2    7.66    3.14
  -1  -1   2 3513.25   33.34
  -1   1   2 3917.31   28.89
  -1  -1   2 3245.07   32.29
  -1   1   2 4105.18   33.56
  -1  -1   2 3422.03   28.14
  -2  -1   2    4.76    2.23
  -2  -1   2    8.14    4.41
  -2   1   2    1.64    4.34
  -2  -1   2    7.20    3.73
  -2   1   2    3.32    2.75
  -3   1   2   13.01    5.09
  -3   1   2   11.75    3.19
  -3  -1   2    7.40    4.54
  -3  -1   2    7.90    2.66
  -4  -1   2    0.26    4.63
   4  -1  -2    0.65    1.48
  -4  -1   2    0.81    2.62
  -4   1   2    0.92    5.02
  -4   1   2    1.62    2.86
   5  -1  -2 4211.97   31.31
  -5  -1   2 4327.88   48.19
  -5  -1   2 4170.38   36.26
  -5   1   2 3999.08   47.27
  -5   1   2 3907.51   42.09
  -6  -1   2   10.63    5.63
   6  -1  -2    6.42    2.88
  -6   1   2    6.51    6.57
  -6  -1   2    7.42    4.85
  -6   1   2    7.84    4.17
   6   1  -2    7.58    4.26
  -7   1   2   75.28   10.50
  -7   1   2   91.87    8.49
   7  -1  -2   84.19    6.42
  -7  -1   2  111.37   10.52
   7   1  -2  100.87    8.36
  -7  -1   2   98.88    8.03
  -8  -1   2   76.35    9.80
  -8   1   2   71.98   10.87
  -8   1   2   76.77    8.34
   8   1  -2   69.28    7.77
   8  -1  -2   85.19    7.34
  -8  -1   2   68.75    8.34
  -9  -1   2  173.49   12.25
  -9   1   2  107.55   13.27
  -9   1   2  117.59   10.50
  -9  -1   2  173.81   13.54
   9   1  -2  173.92   11.86
 -10  -1   2    3.27    7.97
  10   1  -2    5.31    6.51
 -10   1   2    1.29    9.89
 -10  -1   2    1.00    6.14
 -10   1   2    3.01    6.00
 -11   1   2   90.02   13.25
 -11  -1   2   86.57   10.94
 -12  -1   2   -2.25    7.75
 -12   1   2   17.95   11.03
 -13  -1   2   36.20   10.35
 -13   1   2   23.01   10.07
 -14   1   2  -11.42   12.49
 -14  -1   2    8.01   10.79
 -15  -2  -2   11.72   12.66
  15   2   2   13.91   16.29
  14   2   2   40.19   13.01
 -14  -2  -2   30.59   10.70
  14  -2   2   37.71   11.53
 -13  -2  -2   19.13    9.32
  13   2   2    7.25   11.55
  13  -2   2    7.45    9.96
  12   2   2  180.54   17.47
 -12  -2  -2  167.11   14.89
  12  -2   2  153.05   16.03
 -11  -2  -2   48.86   10.85
  11   2   2   60.22   12.53
  11  -2   2   57.73   10.15
  10  -2   2  196.83   13.73
 -10  -2  -2  215.49   16.40
  10   2   2  229.66   18.60
  10  -2   2  195.71   17.42
  -9  -2  -2   62.27   11.64
   9   2   2   52.88   11.86
   9  -2   2   55.83   10.76
   9  -2   2   60.46    9.10
   8  -2   2 1375.11   34.78
   8   2   2 1320.66   34.10
  -8  -2  -2 1352.80   34.26
   8  -2   2 1383.69   29.39
   7   2   2   27.47    8.45
   7  -2   2   33.19    6.22
  -7  -2  -2   27.20    8.86
   7  -2   2   32.49    7.47
   6  -2   2  475.04   18.58
   6  -2   2  435.53   15.13
  -6   2  -2  423.39   10.24
   6   2   2  420.26   17.92
  -6  -2  -2  429.06   17.88
   5   2   2  129.43   10.63
   5  -2   2  107.53    7.90
   5  -2   2  112.72    8.80
   5   2   2  102.99    6.09
   4   2   2 4365.87   48.27
  -4  -2  -2 4671.99   31.64
   4  -2   2 4565.99   49.89
   4  -2   2 4648.00   42.64
   4   2   2 4397.03   38.71
  -3  -2  -2  170.12    5.92
   3  -2   2  175.19    9.96
   3  -2   2  159.82    8.27
   3   2   2  152.57    9.48
   3   2   2  200.38    8.45
   2  -2   2  638.36   15.37
   2  -2   2  665.25   10.79
  -2  -2  -2  550.52   10.79
   2   2   2  564.45   12.93
   1   2   2    7.03    3.30
   1  -2   2    6.35    3.23
  -1  -2  -2    9.82    2.55
   1  -2   2   11.16    2.82
   0   2   2   30.35    4.48
   0  -2   2   35.76    4.67
   0  -2  -2   37.38    4.48
   0  -2   2   42.40    4.48
   1  -2  -2    6.83    4.24
  -1  -2   2    4.76    3.76
  -1  -2   2    5.44    1.96
  -1   2   2    5.02    4.39
  -1  -2   2    3.93    3.45
   2  -2  -2 1337.41   23.01
  -2   2   2 1283.63   23.93
  -2  -2   2  939.11   20.52
  -2  -2   2  916.22   12.58
  -2  -2   2  874.98   19.10
  -3   2   2   12.42    5.76
  -3  -2   2   13.97    2.12
  -3  -2   2   17.60    4.85
   3  -2  -2   15.81    5.11
  -3  -2   2   15.68    4.85
  -4   2   2  614.71   19.82
  -4  -2   2  514.26   17.77
   4  -2  -2  593.01   18.32
  -4  -2   2  515.83    9.26
  -4   2   2  516.07   12.42
  -4  -2   2  565.17   18.14
  -5   2   2    7.75    2.88
  -5   2   2    9.80    6.88
  -5  -2   2    8.10    5.33
  -5  -2   2    9.41    2.88
  -6   2   2   74.69    6.03
  -6  -2   2  176.45   13.30
  -6   2   2   84.82   11.44
  -6  -2   2  168.66    7.07
  -7   2   2    2.27    3.34
   7  -2  -2    2.29    3.32
  -7   2   2    8.12    9.37
  -7  -2   2    3.76    3.56
  -7  -2   2    1.96    7.05
  -8  -2   2  845.97   28.58
   8   2  -2  770.97   23.16
  -9  -2   2    1.86    9.87
   9   2  -2    2.27    6.77
 -10  -2   2  368.72   21.24
  10   2  -2  366.40   18.01
 -11  -2   2   31.53   10.11
  11  -2  -2   13.65    8.03
 -11   2   2   15.04   10.09
  12  -2  -2   65.02   12.88
 -12   2   2   83.31   14.63
 -12  -2   2   85.04   13.73
 -13  -2   2   25.68    9.74
  13  -2  -2   33.60   11.00
 -13   2   2   16.53   11.33
  14  -2  -2  538.01   30.04
 -14   2   2  531.44   30.92
 -14  -2   2  597.00   30.98
 -15  -2   2   -4.13   13.71
  15  -2  -2    1.79   13.12
 -15   2   2    9.50   15.04
 -15  -3  -2   -7.73   12.31
  15   3   2   41.09   15.72
 -14  -3  -2   15.94   11.55
  14   3   2    0.11   13.38
  13   3   2   36.94   11.92
  13  -3   2   43.38   12.07
 -13  -3  -2   30.92   11.09
 -12  -3  -2    8.67    9.06
  12  -3   2    9.08    9.74
  12   3   2    6.18    9.80
  11  -3   2  279.92   19.13
  11   3   2  241.98   19.17
  11  -3   2  333.83   19.43
 -11  -3  -2  294.16   20.15
 -10  -3  -2   12.95    9.78
  10  -3   2   19.74    7.27
  10   3   2   13.47   10.50
  10  -3   2   16.75    8.01
   9   3   2  339.53   20.54
  -9  -3  -2  348.02   20.48
   9  -3   2  315.68   17.03
   9  -3   2  312.80   18.69
  -8  -3  -2   16.59   10.65
   8   3   2   18.69   10.02
   8  -3   2   22.44    7.93
   8  -3   2   20.48    8.36
   7   3   2  386.29   20.26
   7  -3   2  294.46   17.42
  -7  -3  -2  396.64   20.89
  -6  -3  -2  286.38   16.64
  -6  -3  -2  312.65   11.75
   6  -3   2  295.88   16.35
   6  -3   2  283.48   14.28
   6   3   2  283.11   16.77
  -5  -3  -2  132.55   12.07
   5   3   2  129.19   11.44
   5   3   2  108.64    6.55
  -5  -3  -2  145.63    7.82
   5  -3   2  113.29    9.52
   4   3   2   14.85    3.78
   4  -3   2   14.37    5.24
  -4  -3  -2   12.31    3.41
  -3  -3  -2  136.87    7.18
   3   3   2  139.10    7.42
   3  -3   2   12.84    5.11
   2  -3   2  447.64   10.09
   2   3   2  403.56   11.51
   2  -3   2  410.92   15.13
  -2  -3  -2  405.99   12.18
  -1  -3  -2 4441.57   40.50
   1  -3   2 4171.95   46.18
   1  -3   2 4457.11   36.83
   1   3   2 4019.97   38.58
   0  -3   2    2.18    3.06
   0  -3   2    0.24    4.21
   0   3   2    3.47    3.73
   0  -3  -2    1.99    3.65
   1  -3  -2  330.20   13.49
  -1  -3   2  295.42   11.59
  -1  -3   2  255.49   11.86
  -1   3   2  352.34   14.39
  -2   3   2   87.55    8.47
  -2  -3   2   83.23    7.82
  -2  -3   2   72.51    6.46
   2  -3  -2   78.42    7.99
  -3  -3   2  166.08   10.96
  -3  -3   2  146.98   10.63
   3  -3  -2  222.06   13.27
  -3   3   2  206.21   12.90
  -4  -3   2   41.81    7.93
  -4   3   2   43.49    9.04
  -4  -3   2   40.00    6.90
   4  -3  -2   47.53    8.65
  -5  -3   2    0.92    6.57
  -5  -3   2    7.12    6.51
  -5   3   2   -2.16    8.25
   5  -3  -2    2.14    6.99
  -6  -3   2   55.32    9.80
  -6   3   2   68.38   12.62
  -6  -3   2   61.48    9.08
   6  -3  -2   69.58    9.72
  -7   3   2  309.88   20.98
   7  -3  -2  286.80   18.71
  -8  -3   2    6.33    9.56
  -8   3   2    8.65   10.41
   8  -3  -2   12.51    9.45
  -9   3   2  300.66   20.92
   9  -3  -2  305.82   19.85
  -9  -3   2  380.48   22.62
   9   3  -2  327.37   18.32
 -10   3   2    0.70   10.37
  10  -3  -2   -3.03    8.91
  10   3  -2   -2.55    8.21
 -10  -3   2   -1.68    9.21
 -11   3   2  678.83   32.01
  11   3  -2  716.93   27.68
 -11  -3   2  765.58   33.27
  11  -3  -2  680.10   30.96
 -12  -3   2   18.91   11.64
 -12   3   2   21.03   13.30
  12  -3  -2   21.57   10.74
 -13   3   2   21.24   12.69
  13  -3  -2   11.79   10.96
 -14  -3   2   -2.64   13.34
  14  -3  -2   -0.83   13.41
 -14   3   2  -15.15   14.43
 -15   3   2   16.13   15.57
  15  -3  -2   19.41   16.66
 -14  -4  -2   50.76   13.80
  14   4   2   81.13   14.32
  13   4   2   -0.11   12.53
 -13  -4  -2   -7.66   11.90
 -12  -4  -2    7.60    9.91
  12   4   2    1.72   11.79
  11   4   2    0.09    9.91
 -11  -4  -2   -0.41    9.04
  11  -4   2   -1.29    8.43
 -10  -4  -2  430.94   25.26
  10   4   2  382.34   23.67
   9   4   2  202.48   18.14
  -9  -4  -2  185.58   16.51
   9  -4   2  236.36   16.09
  -8  -4  -2  666.54   27.90
   8  -4   2  666.17   25.85
   8   4   2  695.36   28.71
  -7  -4  -2   -0.37   10.63
   7  -4   2   -0.11    6.40
   7   4   2    5.70    8.78
  -6  -4  -2  295.42   18.27
   6  -4   2  308.37   17.16
   5  -4   2    4.41    6.40
  -5  -4  -2    2.12    7.62
  -5  -4  -2    8.06    4.61
  -4  -4  -2  476.83   20.37
  -4  -4  -2  509.06   16.05
   4  -4   2  411.88   18.03
  -3  -4  -2  282.41   15.37
   3   4   2  281.38   10.44
   3  -4   2  283.68   14.65
  -3  -4  -2  281.19   12.34
   2  -4   2   45.87    7.66
   2   4   2   41.29    5.00
   2  -4   2   61.44    5.39
  -2  -4  -2   47.27    6.18
  -1  -4  -2  229.29   11.59
   1  -4   2  243.48    9.69
   1  -4   2  227.57   13.21
   1   4   2  229.77   10.39
   0  -4  -2  190.84   10.98
   0   4   2  197.33   10.37
   0  -4   2  185.43   12.12
   0  -4   2  206.76   10.11
  -1  -4   2   11.11    4.72
  -1   4   2    6.90    6.14
   1  -4  -2    3.95    5.04
  -1  -4   2    6.11    5.72
  -2   4   2   10.37    7.12
  -2  -4   2    6.33    5.13
  -2  -4   2   11.88    6.05
   2  -4  -2    6.64    5.33
  -3  -4   2   14.48    6.83
  -3  -4   2   12.12    6.16
   3  -4  -2   17.79    6.55
  -3   4   2   13.56    8.30
  -4  -4   2   66.94    9.89
   4  -4  -2   80.32   10.72
  -4   4   2   74.28   11.46
  -4  -4   2   56.05    9.19
  -5  -4   2   43.64    9.89
  -5   4   2   27.64   10.13
  -5  -4   2   33.88    7.97
   5  -4  -2   38.27    9.45
  -6  -4   2    0.94    8.62
  -6  -4   2    6.18    8.21
  -6   4   2    2.64   11.42
   6  -4  -2    9.02    9.56
  -7   4   2  144.19   16.92
  -7  -4   2  151.74   12.77
  -7  -4   2  129.03   14.02
   7  -4  -2  158.94   15.70
  -8  -4   2  593.40   26.77
   8  -4  -2  583.01   27.71
  -8   4   2  549.82   27.12
  -9  -4   2   28.89   10.04
  -9   4   2   40.17   13.41
   9  -4  -2   39.93   11.44
 -10  -4   2   50.72   12.99
 -10   4   2   23.36   11.18
  10   4  -2   39.39   11.22
  10  -4  -2   22.27   11.88
 -11  -4   2    5.59    9.96
 -11   4   2    7.40   12.25
  11   4  -2    3.43    9.17
  11  -4  -2    3.78   12.10
  12  -4  -2   12.05   11.83
 -12   4   2   -4.41   12.62
 -12  -4   2    4.02   12.23
  12   4  -2   -4.39    9.80
 -13  -4   2    6.38   13.60
 -13   4   2   18.99   13.08
  13  -4  -2   11.20   13.41
  14  -4  -2  257.98   24.47
 -12  -5  -2  132.40   18.91
  12   5   2  119.25   17.49
  12  -5   2  145.41   16.94
 -11  -5  -2  185.97   18.97
  11  -5   2  159.40   16.35
  11   5   2  182.31   18.67
 -10  -5  -2    0.35   10.20
  10  -5   2   -0.83    8.80
  10   5   2   12.20   12.14
   9  -5   2   -1.00    8.14
  -9  -5  -2   16.11   10.07
   9   5   2   10.11   11.29
   8   5   2    9.32   10.00
   8  -5   2    6.92    7.07
  -8  -5  -2    3.03    9.41
   7  -5   2    7.18    8.08
  -7  -5  -2   33.36    9.96
   6  -5   2   68.49   10.76
  -6  -5  -2   62.22   11.35
   5  -5   2    6.29    7.07
  -5  -5  -2    7.69    8.89
  -5  -5  -2    7.38    5.24
  -4  -5  -2   39.63   10.20
  -4  -5  -2   44.36    7.31
   4  -5   2   38.25    7.84
  -3  -5  -2  128.53   12.95
   3  -5   2  160.08   13.84
  -3  -5  -2  135.12   10.24
  -2  -5  -2    3.25    5.28
  -2  -5  -2    4.50    7.40
   2  -5   2    5.92    7.64
  -1  -5  -2  317.54   15.61
  -1  -5  -2  328.50   16.24
   1  -5   2  300.29   17.16
   1   5   2  299.31   12.99
   0   5   2  252.30   13.01
   0  -5  -2  272.72   14.96
   0  -5   2  265.34   12.75
   0  -5  -2  253.18   13.73
   0  -5   2  252.48   15.57
  -1  -5   2  651.19   23.58
   1  -5  -2  682.44   23.41
  -1  -5   2  702.37   21.42
  -1   5   2  691.02   21.85
  -2  -5   2   37.18    8.21
   2  -5  -2   44.34    8.76
  -2   5   2   43.86    9.02
  -2  -5   2   36.55    7.73
  -3  -5   2    4.24    7.62
  -3  -5   2   12.97    7.01
  -3   5   2    1.81    9.21
   3  -5  -2   11.20    7.25
  -4  -5   2  381.38   19.74
  -4   5   2  380.24   20.63
  -4  -5   2  355.20   19.37
   4  -5  -2  380.40   19.82
  -5  -5   2 1445.02   38.56
   5  -5  -2 1880.70   43.82
  -5  -5   2 1474.69   37.79
  -5   5   2 1897.95   44.71
  -6   5   2  260.14   18.93
   6  -5  -2  278.63   18.67
  -6  -5   2  250.71   17.23
  -6  -5   2  252.54   18.10
  -7  -5   2   20.11    9.37
   7  -5  -2   31.24    7.95
  -7   5   2   10.13   11.13
  -7  -5   2   32.40    9.15
   8  -5  -2   -1.57    8.12
  -8   5   2    9.45   11.79
  -8  -5   2   -0.63    8.73
  -8  -5   2   -2.84    9.78
  -9  -5   2   73.14   14.30
   9  -5  -2   76.00   13.91
  -9   5   2   67.86   15.55
 -10  -5   2    1.64   10.35
  10  -5  -2    3.06   11.72
 -10   5   2    1.55   12.88
 -11  -5   2   13.17   11.20
 -11   5   2   -5.22   12.01
  11  -5  -2  -10.33   11.38
  11   5  -2    4.78   10.35
  12   5  -2   19.37   11.57
 -12  -5   2    0.00   13.86
 -12   5   2   -2.71   13.75
  12  -5  -2    8.21   13.56
  13  -5  -2   -6.22   13.60
  12  -6   2   20.50   13.23
 -11  -6  -2    4.58   12.03
  11   6   2    0.00   13.84
  11  -6   2    2.79   12.79
  10   6   2  251.74   23.10
 -10  -6  -2  303.89   23.97
   9  -6   2  239.68   19.74
   9   6   2  245.29   20.65
  -9  -6  -2  222.24   20.00
  -8  -6  -2   90.89   14.28
   8   6   2  107.72   15.92
   8  -6   2  125.71   15.83
  -7  -6  -2   -7.79   10.09
   7  -6   2   -0.70    8.06
   6  -6   2    4.96    7.95
  -6  -6  -2   -0.22    9.00
   5  -6   2    0.79    7.34
  -5  -6  -2   -2.36    9.13
   4  -6   2    6.24    7.38
  -4  -6  -2   13.95    8.38
  -4  -6  -2   15.72    6.88
  -3  -6  -2  126.85   13.41
  -3  -6  -2  129.14   11.51
   3  -6   2  146.17   14.06
  -2  -6  -2  464.83   20.57
   2  -6   2  456.62   22.75
  -2  -6  -2  478.67   21.70
  -1  -6  -2   32.42    7.95
  -1  -6  -2   41.85    8.21
   1  -6   2   36.46    9.72
   0  -6   2  252.30   17.14
   0  -6  -2  283.04   16.90
  -1  -6   2   24.91    8.47
   1  -6  -2   34.85    8.62
  -1   6   2   36.11    7.53
  -2  -6   2  209.20   16.05
  -2  -6   2  222.85   14.72
   2  -6  -2  245.19   17.07
  -2   6   2  313.06   18.75
  -3   6   2  157.79   14.50
  -3  -6   2  174.51   14.54
  -3  -6   2  158.05   14.04
   3  -6  -2  155.41   14.30
  -4  -6   2   47.81    9.93
   4  -6  -2   47.47    9.96
  -4  -6   2   44.28    9.67
  -4   6   2   63.73   11.51
  -5  -6   2    5.76    7.75
   5  -6  -2   -0.28    9.06
  -5   6   2    9.96    9.69
  -5  -6   2    4.58    7.97
  -6  -6   2   16.79   10.09
  -6  -6   2   18.10   10.00
  -6   6   2   22.82   11.16
   6  -6  -2   20.65   10.96
  -7   6   2  159.95   18.01
   7  -6  -2  181.30   17.55
  -7  -6   2  196.87   17.71
  -7  -6   2  183.88   17.66
  -8   6   2  319.70   24.34
   8  -6  -2  325.77   22.73
  -8  -6   2  281.14   21.27
  -8  -6   2  263.87   21.64
  -9  -6   2   23.62   11.27
  -9   6   2   28.08   14.26
   9  -6  -2   19.63   10.72
  10  -6  -2   -0.31   12.82
 -10  -6   2    6.86   11.81
 -10   6   2   11.86   13.51
 -11  -6   2   -0.11   13.45
  11  -6  -2   15.37   12.95
 -11   6   2    6.44   14.96
  11   6  -2   13.51   12.25
  12   6  -2   -1.83   14.93
  10  -7   2   17.68   13.41
  -9  -7  -2    7.82   12.69
   9  -7   2   20.04   12.05
   9   7   2   29.41   14.69
  -8  -7  -2    3.67   11.75
   8  -7   2    7.69   10.76
  -7  -7  -2   22.75   11.31
   7  -7   2   20.94   10.55
   6  -7   2  123.99   15.74
  -6  -7  -2  134.21   17.40
  -5  -7  -2  109.54   13.41
   5  -7   2  111.48   14.48
   4  -7   2    9.19    9.93
  -4  -7  -2   -3.23    9.34
   3  -7   2    6.14    8.58
  -3  -7  -2   10.46    8.45
  -3  -7  -2    4.80    7.27
  -2  -7  -2   30.30    8.36
   2  -7   2   39.02   10.83
   1  -7   2  231.10   18.36
  -1  -7  -2  251.41   17.84
   0  -7   2  144.34   15.37
   0  -7  -2  157.09   14.63
   1  -7  -2   67.38   11.99
  -1  -7   2   63.86   10.63
   2  -7  -2   79.49   11.29
  -2  -7   2   68.29   11.81
  -3  -7   2   36.99   10.00
   3  -7  -2   66.81   12.01
  -4  -7   2  -13.60    9.02
  -4   7   2    0.37   10.83
   4  -7  -2    3.93    8.47
  -4  -7   2    9.00    9.21
   5  -7  -2  192.44   17.99
  -5  -7   2  171.56   15.59
  -5  -7   2  149.88   16.18
  -6   7   2  170.69   18.30
  -6  -7   2  122.09   15.72
   6  -7  -2  125.08   16.05
  -6  -7   2  169.77   17.01
  -7  -7   2    5.87   11.27
  -7  -7   2   15.02   10.37
  -7   7   2    7.29   11.57
   7  -7  -2    6.75    9.69
  -8  -7   2   39.08   12.84
  -8  -7   2   46.59   11.53
  -8   7   2   36.02   13.06
   8  -7  -2   43.78   12.55
  -9  -7   2   17.86   13.43
  -9   7   2   57.42   14.45
  -9  -7   2   27.60   12.99
   9  -7  -2   40.46   12.34
  -7  -8  -2    9.56   13.91
  -6  -8  -2   18.71   13.12
   6  -8   2   43.56   12.03
   5  -8   2   12.58   12.51
   4  -8   2  140.89   17.31
   3  -8   2  251.19   21.57
  -2  -8  -2   41.02    9.78
   2  -8   2   28.32   10.85
  -1  -8  -2   -6.53    9.87
   1  -8   2   12.84   10.22
   0  -8   2    1.99   10.50
   0  -8  -2   -8.80   10.26
   1  -8  -2   13.36   10.15
  -1  -8   2    5.65   10.11
   2  -8  -2    8.78   10.81
  -2  -8   2   18.95   10.65
  -3  -8   2   -4.39   11.11
   3  -8  -2   24.45   11.00
   4  -8  -2   -1.22   11.64
  -4  -8   2    4.89   10.48
   5  -8  -2   34.80   13.19
  -5  -8   2   31.99   11.94
  -6  -8   2   15.96   12.34
   6  -8  -2   13.97   12.23
  -7   8   2   -3.30   14.02
  -7  -8   2    7.05   13.84
  -7  -8   2    9.10   14.10
  -8  -8   2   59.10   14.93
  -1  -9  -2   32.51   13.08
   0  -9  -2  122.92   16.92
  16   0   3    6.11   16.00
  15   0   3   -6.03   13.54
  14   0   3   70.67   15.48
  13   0   3   -0.20   10.11
  12   0   3  287.45   22.29
 -11   0  -3  -10.02    7.29
  11   0   3   -1.35    9.41
 -10   0  -3 1186.52   31.24
  10   0   3 1283.37   39.63
  -9   0  -3   -0.52    7.27
   9   0   3   -2.31    9.69
   8   0   3   81.35   12.16
  -8   0  -3   70.52    9.72
   7   0   3   -1.70    2.55
   7   0   3   -7.03    8.36
   6   0   3   40.35    8.73
   6   0   3   33.03    3.14
   5   0   3   -0.11    1.33
   5   0   3   -0.94    5.76
   5   0   3   -0.13    3.60
   4   0   3  258.92   12.71
   4   0   3  249.07    5.17
   4   0   3  230.12   10.57
   3   0   3   -0.39    0.96
   3   0   3   -1.29    3.86
   3   0   3    1.83    4.65
   2   0   3 1946.03   16.22
   2   0   3 1917.47   27.27
   1   0   3    0.15    4.04
   1   0   3    0.72    3.23
   0   0   3 9649.08   56.46
   0   0   3 9817.52   45.89
   0   0   3 9999.00   58.95
  -1   0   3    0.48    1.64
  -1   0   3   -0.15    3.69
  -1   0   3    2.53    3.30
  -2   0   3  625.02   15.57
  -2   0   3  740.69   17.53
  -3   0   3    1.27    4.02
  -3   0   3    1.27    4.17
  -4   0   3  467.56   15.74
   4   0  -3  452.08    7.36
  -4   0   3  428.17   13.62
  -5   0   3    1.64    4.91
   5   0  -3   -0.28    1.90
  -5   0   3   -1.11    4.98
  -6   0   3 7490.88   68.18
  -6   0   3 6956.93   61.48
   6   0  -3 7292.99   42.60
  -7   0   3    0.09    6.22
  -7   0   3    0.81    6.64
  -8   0   3  285.69   15.72
  -8   0   3  289.96   15.92
  -9   0   3    0.74    6.94
  -9   0   3   -1.18    7.66
 -10   0   3   23.27    7.82
 -10   0   3   14.96    7.18
 -11   0   3    0.07    7.31
 -11   0   3   -9.21    8.43
 -12   0   3    4.98    8.10
  16  -1   3    6.11   15.50
  15   1   3   29.13   14.65
  15  -1   3   10.00   13.75
  14   1   3  -12.95   12.34
  14  -1   3    5.89   12.18
  13  -1   3  176.48   18.06
  13   1   3  182.13   19.52
 -13  -1  -3  150.28   15.22
 -12  -1  -3   11.42    7.64
  12   1   3    2.75   11.46
  12  -1   3   10.81    9.91
 -11  -1  -3   89.52   12.55
  11   1   3  100.26   15.89
  11  -1   3  106.61   13.56
  10  -1   3   16.31    7.75
 -10  -1  -3    2.42    8.32
   9  -1   3  280.51   18.93
  -9  -1  -3  256.82   16.70
  -9   1  -3  266.41   13.67
   9   1   3  282.35   20.28
   8  -1   3   83.69   11.79
  -8   1  -3   75.72    8.12
   8  -1   3   84.97    6.96
   8   1   3   98.77   12.90
  -8  -1  -3   84.84   10.81
   7  -1   3  223.48   15.30
   7   1   3  242.15   15.96
   7  -1   3  195.82    9.08
   6   1   3    8.58    4.78
   6   1   3    6.64    1.31
   6  -1   3   13.27    3.23
   6  -1   3   13.69    7.01
   6   1   3   13.12    6.75
   5  -1   3  166.11   11.68
   5  -1   3  133.05    6.53
   5   1   3  142.61   11.03
   5   1   3  120.80    8.06
   4   1   3  106.04    8.78
   4  -1   3   95.48    8.41
   4  -1   3   84.36    5.07
   4   1   3   99.49    7.69
   3  -1   3  771.41   13.91
   3  -1   3  779.99   19.30
   3   1   3  596.92   16.70
   3  -1   3  655.19   16.16
   3   1   3  699.27   18.01
   2   1   3   12.38    4.19
   2  -1   3   10.35    2.73
   2  -1   3   10.00    3.84
   2  -1   3    9.45    3.86
   2   1   3    6.38    3.91
   1  -1   3  458.97   11.59
   1  -1   3  513.49   14.43
   1   1   3  424.30   13.14
   1  -1   3  485.50   12.60
   1  -1   3  486.72   12.95
   1   1   3  446.66   12.49
   0   1   3   31.13    4.85
   0  -1   3   35.52    4.52
   0   1   3   30.87    3.56
   0  -1   3   30.50    4.08
   0  -1   3   34.93    4.87
  -1  -1   3 2318.89   29.47
  -1   1   3 2636.56   18.97
  -1   1   3 2519.82   28.93
  -1  -1   3 2310.66   30.48
  -1  -1   3 2165.19   30.13
  -1   1   3 2919.71   33.58
  -2  -1   3    3.71    2.55
  -2  -1   3    5.13    4.28
  -2   1   3    1.72    3.49
  -2   1   3    1.81    4.19
  -3  -1   3  388.52   11.44
  -3   1   3  558.90   15.13
  -3  -1   3  402.62   14.98
  -3   1   3  619.32   17.38
  -4  -1   3   27.68    5.83
  -4  -1   3   24.69    4.45
  -4   1   3   22.55    6.03
  -4   1   3   28.91    5.20
  -5   1   3 1804.46   30.26
  -5  -1   3 1710.01   32.68
  -5  -1   3 1622.83   25.33
  -5   1   3 1587.09   30.59
  -6  -1   3   21.37    5.39
  -6   1   3   27.03    7.84
  -6   1   3   20.52    5.72
   6   1  -3   20.83    4.43
  -6  -1   3   20.72    6.33
   7   1  -3   43.21    6.00
  -7   1   3   83.58    8.32
  -7  -1   3   62.38    9.28
  -7  -1   3   45.09    6.83
  -7   1   3   62.38   10.41
  -8   1   3    3.95    8.17
  -8  -1   3    2.58    7.23
  -8  -1   3   -3.52    5.33
  -8   1   3   -4.67    5.28
   8   1  -3   -1.14    4.83
  -9  -1   3   81.85   11.40
  -9   1   3   72.84   12.14
  -9  -1   3   63.36    9.15
  -9   1   3   79.58    9.61
 -10  -1   3   21.72    6.77
 -10   1   3   27.71   11.11
 -10   1   3   19.41    6.44
 -11  -1   3   62.42   11.20
 -11   1   3   41.22   10.94
 -12  -1   3   -3.76    8.27
 -12   1   3   -0.22   10.26
 -13  -1   3    7.84    9.06
 -13   1   3   -2.49   10.59
 -14  -1   3   21.00   10.85
 -14   1   3   -2.51   12.55
 -15  -2  -3   11.77   12.49
  15  -2   3   -9.56   15.44
  15   2   3  -23.08   15.98
 -14  -2  -3    7.69   11.38
  14   2   3   -9.58   15.28
  14  -2   3   -2.64   12.18
 -13  -2  -3    6.64    9.21
  13  -2   3   -0.37   11.92
  13   2   3   10.48   11.81
  12  -2   3   13.06   10.02
 -12  -2  -3   11.55    9.28
  12   2   3   20.00   12.07
 -11  -2  -3   53.25   12.10
  11   2   3   65.78   13.01
  11  -2   3   52.07   11.88
 -10  -2  -3  432.38   22.86
  10  -2   3  434.74   23.78
  10   2   3  438.45   24.17
   9  -2   3   10.70    5.02
   9  -2   3   11.68    8.65
  -9  -2  -3   17.23    9.96
   9   2   3   10.59    9.61
   8  -2   3   81.04   11.59
  -8  -2  -3   84.52   12.07
   8   2   3   94.93   13.58
   8  -2   3   79.39    8.27
  -7  -2  -3    4.58    9.06
   7  -2   3   -2.14    7.97
   7  -2   3    0.68    4.43
   7   2   3    3.45    8.89
   6  -2   3  108.64   11.57
   6   2   3  113.12   11.16
   6  -2   3   79.54    7.34
   6   2   3   96.85    7.86
   5  -2   3   55.89    8.08
   5   2   3   41.55    6.20
   5   2   3   47.64    8.19
   5  -2   3   48.49    5.65
  -4  -2  -3 2001.18   16.92
   4  -2   3 2304.61   37.05
   4   2   3 1975.59   34.43
   4  -2   3 2214.51   30.09
   4   2   3 1980.98   30.78
   3  -2   3    3.32    3.58
   3   2   3    3.71    4.26
   3  -2   3    3.01    4.78
  -3  -2  -3    2.86    1.51
   3   2   3    3.34    4.96
   2   2   3  176.21    9.30
   2  -2   3   92.14    5.76
   2   2   3  149.62    9.30
   2  -2   3   83.38    6.64
  -2  -2  -3  100.91    5.04
   1  -2   3  218.11    8.60
   1   2   3  211.10    9.87
   1   2   3  213.40    9.43
   1  -2   3  204.01    9.48
  -1  -2  -3  229.77    8.03
   1  -2   3  188.51    8.43
   0  -2  -3  828.48   16.99
   0  -2   3  695.16   17.40
   0   2   3  765.55   18.10
   0  -2   3  676.28   16.57
   0  -2   3  653.77   14.89
  -1   2   3   30.96    5.46
  -1  -2   3   24.47    4.89
  -1  -2   3   29.39    3.93
   1  -2  -3   27.40    4.58
  -1  -2   3   32.44    5.24
  -2  -2   3   22.27    4.24
  -2   2   3   30.61    5.74
  -2  -2   3   16.11    4.98
   2  -2  -3   37.01    5.72
  -2  -2   3   22.92    5.13
  -3   2   3   34.93    7.16
  -3  -2   3   37.27    6.05
  -3  -2   3   40.87    4.72
  -3  -2   3   43.40    7.01
  -3   2   3   37.05    4.56
  -4  -2   3  240.29   13.12
  -4   2   3  262.94   10.83
  -4  -2   3  261.21   13.36
  -4  -2   3  254.03    8.93
  -4   2   3  264.62   14.10
  -5  -2   3    9.87    5.83
  -5  -2   3    8.03    3.25
  -5   2   3   10.33    4.02
  -5   2   3   10.20    7.73
  -6   2   3  249.05   16.22
  -6   2   3  234.64   11.24
  -6  -2   3  252.43   15.39
  -6  -2   3  251.98    9.65
  -7  -2   3   57.77    9.96
  -7   2   3   63.53   11.09
  -7   2   3   60.13    7.03
  -8   2   3  372.65   21.03
  -8   2   3  412.65   16.57
   8   2  -3  423.23   17.42
  -9  -2   3    8.38    9.17
  -9   2   3    1.24    9.39
 -10   2   3  156.17   15.76
 -10  -2   3  171.04   15.61
 -11  -2   3   22.88   10.13
 -11   2   3   24.47   12.60
 -12   2   3  403.80   25.35
 -12  -2   3  438.63   25.11
 -13   2   3   30.04   12.60
 -13  -2   3   24.78   10.24
  13  -2  -3   35.00   11.77
 -14   2   3   61.92   15.02
  14  -2  -3   59.21   13.69
 -15  -2   3    0.74   14.50
 -15   2   3  -16.81   14.56
  15  -2  -3   -0.33   14.41
 -15  -3  -3   14.13   14.06
  15  -3   3   -2.07   14.85
 -14  -3  -3   -5.28   11.44
  14  -3   3   12.73   13.82
  14   3   3   -5.76   14.67
  13  -3   3    8.47   11.11
 -13  -3  -3    4.96   10.13
  13   3   3    7.25   12.40
 -12  -3  -3    7.99    9.58
  12  -3   3    1.38   10.92
  12   3   3   13.86   10.50
  11   3   3   52.01   11.42
 -11  -3  -3   43.51   11.07
  11  -3   3   36.16   11.35
 -10  -3  -3    3.32    9.69
  10  -3   3    9.32    8.03
  10   3   3  -12.18   10.37
  -9  -3  -3  163.42   15.92
   9  -3   3  161.74   14.93
   9   3   3  155.52   15.11
   9  -3   3  161.02   11.88
   8  -3   3    4.02    7.05
  -8  -3  -3    9.54   10.09
   8  -3   3   13.80    5.92
   8   3   3   13.27    9.00
   7  -3   3  832.45   29.21
   7   3   3  812.41   28.54
  -7  -3  -3  812.93   28.78
   7  -3   3  783.50   23.80
   6   3   3    8.03    4.34
   6   3   3    3.76    8.25
   6  -3   3    5.85    5.61
   6  -3   3    5.89    7.38
   5  -3   3   79.69    8.58
   5   3   3   48.45    9.58
   5   3   3   52.22    6.07
   4   3   3   15.28    4.56
   4  -3   3   16.40    5.70
  -4  -3  -3   13.95    3.21
   4   3   3   16.42    6.96
   3  -3   3 5646.12   37.62
   3  -3   3 5740.63   56.72
   3   3   3 6141.58   52.81
  -3  -3  -3 5976.15   42.99
   2  -3   3  418.54   11.29
   2  -3   3  424.68   15.70
  -2  -3  -3  445.13   12.49
   2   3   3  441.68   14.72
   1  -3   3 1582.48   29.30
  -1  -3  -3 1774.07   25.57
   1   3   3 1686.60   27.25
   0  -3  -3   19.26    4.26
   0  -3   3   25.54    4.93
   0   3   3   29.17    5.50
   0  -3   3   20.96    5.46
   1  -3  -3  134.36    9.76
  -1  -3   3   40.54    6.46
  -1   3   3  164.58   10.33
  -1  -3   3   44.39    6.22
  -2  -3   3    8.25    2.12
  -2  -3   3    9.02    5.61
  -2  -3   3   14.80    4.85
   2  -3  -3   13.12    5.63
  -2   3   3    6.46    5.74
  -3  -3   3   -0.15    2.01
  -3  -3   3    6.44    5.41
   3  -3  -3    6.86    6.24
  -3  -3   3    2.38    5.74
  -3   3   3    1.35    7.27
  -4  -3   3   42.95    7.66
   4  -3  -3   42.18    8.32
  -4  -3   3   46.44    8.19
  -4   3   3   43.69    9.61
  -4  -3   3   41.59    3.52
  -5   3   3  170.10   15.65
   5  -3  -3  159.29   14.54
  -5  -3   3  138.14   12.77
  -5  -3   3  138.84   12.01
  -6   3   3    6.81   10.02
   6  -3  -3    5.72    7.79
  -6  -3   3    2.71    7.27
  -7   3   3  309.72   19.78
  -7  -3   3  315.95   18.67
   7  -3  -3  313.85   19.41
  -8   3   3   34.71   11.24
   8  -3  -3   42.09   10.76
  -8  -3   3   29.78    9.85
  -9  -3   3   28.56   10.15
  -9   3   3    0.96    9.26
   9  -3  -3    7.53    8.86
   9   3  -3    9.54    8.14
 -10  -3   3   76.02   13.51
  10  -3  -3   69.45   12.51
 -10   3   3   57.01   13.84
 -11   3   3  234.47   21.44
  11  -3  -3  250.86   20.41
 -12  -3   3   18.80   11.92
  12  -3  -3    4.85   10.00
 -12   3   3   10.72   12.99
 -13  -3   3    1.92   11.55
 -13   3   3   20.04   13.10
  13  -3  -3   -6.77   12.25
 -14  -3   3    7.95   12.66
 -14   3   3   13.95   14.80
  14  -3  -3   18.91   13.25
 -13  -4  -3  -10.35   12.16
  13   4   3   21.77   12.82
 -12  -4  -3   26.16   11.55
  12   4   3   25.48   11.24
 -11  -4  -3   72.51   13.84
  11   4   3   72.70   15.41
  10  -4   3  528.82   23.95
  10   4   3  550.24   28.78
 -10  -4  -3  606.94   29.76
   9  -4   3   15.68    7.25
  -9  -4  -3   22.92   10.15
   9   4   3   20.81   11.09
  -8  -4  -3   49.67   12.16
   8  -4   3   27.62    8.21
   8   4   3   50.30   12.18
   7   4   3   55.32   11.77
  -7  -4  -3   60.00   11.55
   7  -4   3   46.59    9.08
   6  -4   3    0.39    6.03
  -6  -4  -3   24.04   10.22
   6   4   3   16.86    9.34
   5  -4   3    0.81    5.39
  -5  -4  -3    1.11    8.58
   5   4   3   -2.82    9.00
  -4  -4  -3  331.56   12.40
   4  -4   3  376.97   17.77
   4   4   3  380.88   14.63
  -3  -4  -3   -0.61    3.95
   3  -4   3    3.23    5.76
   3   4   3    2.18    4.63
  -2  -4  -3  135.12    8.95
   2  -4   3  135.37    7.60
   2  -4   3  113.16   10.24
   2   4   3  132.40    9.00
   1  -4   3   -0.94    5.74
   1   4   3    3.89    4.63
  -1  -4  -3    1.29    4.58
   1  -4   3    1.14    3.82
   0   4   3  118.36    9.30
   0  -4   3  113.03    8.67
   0  -4   3   95.83   10.11
   0  -4  -3  144.97   10.59
  -1  -4   3   99.01    8.67
  -1  -4   3  108.23   10.31
   1  -4  -3  102.81    9.56
  -1   4   3  101.09    9.54
  -2  -4   3  218.57   12.86
  -2  -4   3  219.95   14.04
  -2   4   3  253.57   14.80
   2  -4  -3  263.61   14.82
  -3  -4   3    6.53    6.20
  -3  -4   3    1.29    5.44
   3  -4  -3    3.62    6.81
  -3   4   3   -1.24    8.51
   4  -4  -3  211.72   15.94
  -4  -4   3  152.26   13.03
  -4  -4   3  151.26   13.08
  -4   4   3  182.63   15.33
  -5  -4   3   30.68    8.91
   5  -4  -3   31.72   10.57
  -5  -4   3   42.68   10.17
  -5   4   3   30.61   10.35
  -6   4   3  610.08   26.90
  -6  -4   3  543.16   24.13
  -6  -4   3  587.83   25.37
  -7  -4   3   17.03    9.08
   7  -4  -3   12.79   10.52
  -7   4   3   24.69   11.66
  -8   4   3  174.03   17.60
   8  -4  -3  224.23   20.52
  -8  -4   3  177.02   16.46
  -9  -4   3   -2.69    9.00
   9  -4  -3   -5.61    9.65
  -9   4   3    0.09   11.38
  10  -4  -3  171.02   20.37
 -10  -4   3  198.66   18.80
 -10   4   3  130.78   16.92
  10   4  -3  143.22   14.56
 -11  -4   3    1.05   10.61
  11  -4  -3    1.86   11.05
 -11   4   3   11.53   12.49
  12  -4  -3  171.41   20.33
 -12   4   3  118.40   18.73
 -12  -4   3  155.67   17.97
 -13  -4   3   31.77   15.39
  13  -4  -3   50.52   16.07
 -13   4   3   33.71   16.53
 -12  -5  -3    9.72   13.41
  12   5   3    4.61   12.44
 -11  -5  -3  -11.59   12.27
  11  -5   3   -3.47   11.31
  11   5   3   -5.09   10.89
 -10  -5  -3   -2.58    9.02
  10  -5   3   11.18    9.13
  10   5   3    1.55   11.53
   9   5   3  197.79   20.20
  -9  -5  -3  214.49   19.43
   9  -5   3  142.07   14.85
  -8  -5  -3   16.22   10.48
   8  -5   3   40.24    9.61
   8   5   3   19.63   10.11
   7  -5   3   65.54   10.33
  -7  -5  -3   63.93   12.51
   7   5   3   55.59   12.44
   6  -5   3    7.34    7.27
  -6  -5  -3   12.71    9.91
   6   5   3    7.36    9.52
   5  -5   3    1.57    7.07
  -5  -5  -3   10.59    9.02
   4  -5   3   22.34    7.45
  -4  -5  -3   19.91    9.10
   3  -5   3    4.10    6.40
  -3  -5  -3   10.50    9.02
  -3  -5  -3   22.01    5.89
   2  -5   3  117.18   12.12
  -2  -5  -3  135.82   10.15
   1  -5   3  405.11   19.61
   1   5   3  432.58   16.94
  -1  -5  -3  494.48   18.89
   0  -5  -3    8.27    5.79
   0  -5   3   19.08    5.87
   0  -5   3   10.28    6.64
   0   5   3   12.42    6.27
  -1  -5   3  246.52   13.84
  -1  -5   3  240.49   15.68
   1  -5  -3  258.72   15.26
  -1   5   3  258.33   15.02
  -2  -5   3    5.41    6.64
  -2   5   3    4.00    7.58
  -2  -5   3   -2.12    7.73
   2  -5  -3    2.31    7.23
   3  -5  -3  293.17   18.58
  -3  -5   3  275.77   16.40
  -3  -5   3  262.61   17.14
  -4  -5   3  208.18   16.33
  -4   5   3  195.73   16.57
  -4  -5   3  212.09   15.68
   4  -5  -3  211.34   15.79
  -5   5   3  530.02   25.13
  -5  -5   3  423.39   21.79
  -5  -5   3  413.61   21.88
   5  -5  -3  602.03   26.40
  -6  -5   3   10.35    9.00
  -6  -5   3    9.41    8.62
   6  -5  -3   -4.63    9.15
  -6   5   3    3.78   10.20
  -7  -5   3   64.39   12.07
  -7   5   3   83.23   14.76
   7  -5  -3   84.43   13.73
  -7  -5   3   69.52   13.56
  -8  -5   3   10.22    8.67
  -8   5   3    5.37   11.51
   8  -5  -3   -3.58    9.80
   9  -5  -3   73.64   14.21
  -9  -5   3   63.93   12.47
  -9   5   3   62.14   13.14
 -10  -5   3   -4.32   10.94
  10  -5  -3   -0.50   11.16
 -10   5   3    6.96   13.01
 -11  -5   3   -1.90   11.90
 -11   5   3  -10.94   13.36
  11  -5  -3   -7.84   13.01
 -12  -5   3    3.60   14.48
 -12   5   3  -20.52   15.00
 -11  -6  -3  134.25   17.79
  11  -6   3  168.77   16.94
  10   6   3  215.65   22.86
 -10  -6  -3  207.74   21.33
  10  -6   3  235.49   20.30
  -9  -6  -3    1.77   10.37
   9  -6   3   -1.53   10.26
   9   6   3    3.91   11.09
   8   6   3   -0.46   10.79
   8  -6   3    5.28    9.58
  -8  -6  -3   12.60   10.89
   7  -6   3   17.16    8.69
  -7  -6  -3   14.08   10.24
   7   6   3   14.91    9.89
   6  -6   3   14.19    8.36
  -6  -6  -3    6.48   10.89
   5  -6   3    7.12    8.19
  -5  -6  -3    8.82   10.15
   4  -6   3   42.33   10.28
  -4  -6  -3   52.97   11.86
   3  -6   3   17.77    7.36
  -3  -6  -3   16.70    7.03
  -3  -6  -3   15.83    5.98
  -2  -6  -3   44.65    8.01
  -2  -6  -3   42.60   10.28
   2  -6   3   48.91   10.48
  -1  -6  -3   13.93    6.35
  -1  -6  -3   19.41    8.45
   1  -6   3   20.72    7.99
   0  -6  -3   36.53    7.84
   0  -6   3   37.40    9.32
  -1   6   3  114.47   11.00
  -1  -6   3  104.19   12.69
   1  -6  -3  109.82   11.99
  -2  -6   3  218.05   15.00
  -2   6   3  246.15   15.87
  -2  -6   3  215.78   16.37
   2  -6  -3  212.50   16.05
  -3  -6   3    7.25    7.79
  -3   6   3    0.92    7.88
  -3  -6   3    8.47    7.55
   3  -6  -3   10.98    6.75
  -4  -6   3   72.94   11.35
  -4   6   3   87.24   12.40
  -4  -6   3   77.77   11.48
   4  -6  -3   88.82   13.03
  -5  -6   3    6.31    9.39
  -5   6   3   12.20    8.60
  -5  -6   3   13.27    7.88
   5  -6  -3   11.86    9.06
  -6  -6   3  491.68   25.92
  -6  -6   3  502.05   26.57
  -6   6   3  632.31   29.63
   6  -6  -3  686.85   30.39
  -7  -6   3  109.82   15.13
  -7   6   3  117.79   16.16
  -7  -6   3  119.25   16.51
   7  -6  -3  151.04   16.72
   8  -6  -3   19.39   12.62
  -8  -6   3   18.67   10.33
  -8  -6   3   14.69    9.85
  -8   6   3   20.15   11.31
  -9  -6   3    6.20   12.07
   9  -6  -3   13.67   11.75
  -9   6   3    4.04   12.47
 -10  -6   3   18.47   12.84
  10  -6  -3   10.52   12.01
 -10   6   3   -3.80   13.30
  11   6  -3   18.86   14.17
  10  -7   3   32.66   13.56
   9  -7   3    3.58   14.61
  -9  -7  -3   24.37   12.77
   8  -7   3   61.79   15.41
  -8  -7  -3   14.28   13.51
   8   7   3   45.06   13.17
   7  -7   3   57.38   12.51
  -7  -7  -3   36.46   10.87
   7   7   3   60.08   13.36
  -6  -7  -3   -6.44   10.37
   6  -7   3  -24.89   11.05
   5  -7   3    4.87    9.80
  -5  -7  -3    7.69   11.31
  -4  -7  -3    2.29    9.54
   4  -7   3    9.00    9.76
  -3  -7  -3  110.43   14.54
   3  -7   3  118.05   14.02
   2  -7   3  302.54   21.16
  -2  -7  -3  338.30   19.56
   1  -7   3  273.74   19.74
  -1  -7  -3  294.86   18.67
   0  -7   3   36.44   10.26
   0  -7  -3   44.74    9.50
   1  -7  -3   88.84   11.77
  -1  -7   3   69.32   13.12
   2  -7  -3   24.23    8.32
  -2  -7   3   25.26    9.76
  -3   7   3   21.00    8.93
  -3  -7   3    5.61    9.28
   3  -7  -3   -6.94    9.17
  -4  -7   3   61.37   10.92
  -4  -7   3   55.85   12.14
   4  -7  -3   65.26   11.03
  -4   7   3   58.97   12.88
  -5  -7   3   17.27    9.74
  -5   7   3    7.38   10.28
  -5  -7   3   18.56   10.41
   5  -7  -3   15.13    9.78
  -6  -7   3   18.54   10.44
  -6  -7   3   16.61   11.70
  -6   7   3    8.84   10.83
   6  -7  -3    2.55   11.11
  -7  -7   3   74.49   16.16
  -7  -7   3   70.22   11.81
  -7   7   3  127.77   15.76
   7  -7  -3  105.17   15.35
  -8  -7   3   34.37   13.65
  -8  -7   3   12.20   13.01
  -8   7   3   23.34   12.53
   8  -7  -3   26.42   13.19
  -9   7   3   34.23   13.97
  -9  -7   3   34.17   14.65
  -7  -8  -3   67.05   13.36
  -6  -8  -3    9.74   13.75
   6  -8   3  -13.34   14.76
   5  -8   3  141.28   14.48
   4  -8   3  104.58   16.55
   3  -8   3    0.59   10.87
   2  -8   3   22.18   11.53
   1  -8   3    4.17   10.76
  -1  -8  -3   10.09   10.09
   0  -8  -3   48.80   11.68
   0  -8   3   50.57   14.10
   1  -8  -3   50.54   11.48
  -1  -8   3   50.83   11.79
   2  -8  -3   13.65   11.22
  -2  -8   3   -8.73   10.96
   3  -8  -3  -10.96   11.55
  -3  -8   3    6.03   11.33
   4  -8  -3   -3.82   11.48
  -4  -8   3   -2.53   12.18
  -5  -8   3   -3.89   12.53
   5  -8  -3    9.34   11.88
  -6  -8   3   18.62   13.23
  -6   8   3   15.63   14.32
  -7  -8   3   88.95   15.24
  -7   8   3   72.53   15.24
   1  -9  -3    4.48   14.61
  15   0   4  -25.13   16.61
  14   0   4   96.35   16.79
  13   0   4    0.11   12.86
  12   0   4 1014.06   40.24
 -11   0  -4   -1.11    7.97
  11   0   4   -0.52    9.32
 -10   0  -4   44.98    8.93
  10   0   4   49.47   11.31
  -9   0  -4   -0.63    8.03
   9   0   4    2.23   10.72
   8   0   4  147.37   15.87
   7   0   4    4.08    9.41
   6   0   4    1.14    5.11
   6   0   4    2.38    7.10
   5   0   4    2.84    5.61
   5   0   4   -1.51    6.94
   4   0   4  511.48    7.73
   4   0   4  522.71   18.89
   4   0   4  499.54   17.79
   3   0   4    4.24    5.11
   3   0   4   -1.70    5.31
   2   0   4  537.99   16.00
   2   0   4  554.65   17.97
   1   0   4    0.94    4.78
   1   0   4    2.31    3.43
   0   0   4 1429.63   20.06
   0   0   4 1360.83   24.78
   0   0   4 1440.37   26.35
  -1   0   4    4.02    4.30
  -1   0   4    0.94    1.83
  -1   0   4    1.00    4.06
  -2   0   4  105.43    8.65
  -2   0   4   97.44    7.88
  -3   0   4   -1.31    4.58
  -3   0   4    0.83    4.65
  -4   0   4  672.57   21.09
  -4   0   4  590.72   18.34
  -5   0   4    1.35    5.50
  -5   0   4   -0.41    4.78
  -6   0   4 2517.05   42.60
  -6   0   4 2344.89   37.95
  -7   0   4    1.38    6.79
  -7   0   4    1.27    8.60
  -8   0   4  200.91   15.22
  -8   0   4  192.22   13.65
  -9   0   4   -2.53    8.19
  -9   0   4  -10.15    7.51
 -10   0   4  337.12   19.98
 -10   0   4  283.11   17.29
 -11   0   4   -2.31    8.54
 -11   0   4   -6.05    8.51
 -12   0   4  167.09   14.93
  15  -1   4   56.07   14.34
  15   1   4   51.09   14.67
  14  -1   4   -7.29   12.49
  14   1   4    0.00   13.95
 -13  -1  -4    1.05    9.39
  13  -1   4    9.26   13.25
  13   1   4    0.00   12.44
 -12  -1  -4    9.76    9.69
  12  -1   4    3.41   12.97
  12   1   4   11.92   10.79
  11  -1   4   38.49   10.22
 -11  -1  -4   30.59   10.02
  11   1   4   39.98   14.89
 -10  -1  -4   -3.12    7.71
  10  -1   4    3.17    8.38
  10   1   4   -2.60    9.98
  -9  -1  -4  599.43   24.89
   9  -1   4  686.91   28.93
   9   1   4  704.47   30.63
   8   1   4   -3.95    9.43
   8  -1   4    1.03    9.52
   7  -1   4    4.67    7.86
   7   1   4    4.61    8.69
   7   1   4    4.41    5.13
   6   1   4    1.88    5.44
   6  -1   4    4.74    2.75
   6  -1   4    1.88    6.77
   6   1   4    4.10    7.77
   5  -1   4  113.92   10.76
   5   1   4  131.46   11.90
   5  -1   4  126.11    6.59
   5   1   4  126.98    9.72
   4  -1   4   22.79    5.22
   4   1   4   21.16    5.72
   4  -1   4   17.95    6.31
   4  -1   4   23.56    3.25
   4   1   4   29.15    7.03
   3  -1   4 1716.76   31.90
   3   1   4 1328.76   27.53
   3  -1   4 1771.97   22.20
   3   1   4 1453.71   29.19
   3  -1   4 1713.74   30.13
   2  -1   4   10.41    4.93
   2   1   4   16.46    6.14
   2  -1   4    8.34    3.06
   2  -1   4   17.14    5.22
   2   1   4   13.21    5.28
   1  -1   4  157.11    8.89
   1  -1   4  166.06    8.36
   1  -1   4  157.57    8.60
   1   1   4  156.06    8.54
   1  -1   4  170.12   10.09
   1   1   4  159.56   10.20
   0  -1   4   17.25    5.35
   0   1   4   14.30    5.74
   0  -1   4   16.24    4.34
   0   1   4   19.93    4.28
   0  -1   4   16.20    4.28
  -1   1   4  950.20   21.85
  -1  -1   4  723.22   18.47
  -1  -1   4  712.61   19.15
  -1   1   4 1032.86   14.82
  -1  -1   4  821.01   20.79
  -2   1   4   72.22    7.07
  -2  -1   4   79.06    7.86
  -2  -1   4   76.44    6.99
  -2   1   4   63.99    7.27
  -3   1   4 1598.07   28.89
  -3  -1   4 1473.47   29.95
  -3  -1   4 1440.22   25.89
  -4   1   4  105.98    8.51
  -4  -1   4  114.54   10.46
  -4  -1   4  102.33    7.77
  -4   1   4  104.25    9.30
  -5   1   4  178.14   11.42
  -5  -1   4  158.20   12.69
  -5  -1   4  130.74    8.84
  -5   1   4  140.04   11.00
  -6   1   4   54.84    9.13
  -6  -1   4   49.28    6.46
  -6   1   4   48.36    7.75
  -6  -1   4   57.55    9.61
  -7  -1   4   26.07    7.03
  -7   1   4   17.31    9.04
  -7   1   4   20.68    6.83
  -7  -1   4   28.38    8.73
  -8  -1   4    2.42    5.55
  -8   1   4    2.47    9.15
  -8   1   4    5.35    7.31
  -8  -1   4    2.38    8.45
  -9  -1   4  562.86   20.72
  -9   1   4  632.44   23.78
  -9  -1   4  626.87   26.55
  -9   1   4  564.91   24.17
 -10   1   4   11.38    8.76
 -10   1   4   22.01    7.03
 -10  -1   4    9.15    8.67
 -11   1   4   37.12   10.57
 -11  -1   4   48.08   10.00
 -12   1   4    8.34   10.35
 -12  -1   4    1.18    9.50
 -13  -1   4  212.00   18.25
 -13   1   4  153.81   18.03
 -14  -1   4   -7.73   13.38
 -14  -2  -4    5.79   12.10
  14   2   4   25.37   13.47
  14  -2   4   -1.20   13.34
 -13  -2  -4   13.91   10.24
  13  -2   4   -0.72   12.12
  13   2   4    1.35   12.99
  12  -2   4  237.85   20.79
  12   2   4  219.42   21.59
 -12  -2  -4  221.52   18.80
 -11  -2  -4    3.58   10.41
  11  -2   4   -2.05    9.93
  11   2   4    1.72   11.75
 -10  -2  -4   14.45    8.97
  10  -2   4   14.19   10.17
  10   2   4   11.68   10.35
  -9  -2  -4   80.30   12.53
   9  -2   4   77.73   12.55
   9   2   4   81.35   13.06
   8  -2   4  853.35   30.87
   8   2   4  810.05   29.65
   7   2   4    4.10    5.04
   7  -2   4   -0.96    4.04
   7  -2   4    3.97    8.36
   7   2   4    4.28    8.45
   6  -2   4   69.63   12.12
   6  -2   4   92.55    7.58
   6   2   4   68.38   11.07
   6   2   4   63.67    7.95
   5  -2   4   -2.82    3.60
   5   2   4   11.64    5.00
   5  -2   4    2.42    6.22
   5   2   4   -2.51    7.12
   4  -2   4   35.78    5.11
   4   2   4   19.58    6.09
   4  -2   4   46.09    7.31
   4   2   4    6.77    7.49
  -3  -2  -4   50.50    3.03
   3  -2   4   41.61    6.29
   3  -2   4   45.37    6.86
   3  -2   4   47.90    5.76
   3   2   4   42.55    7.62
   3   2   4   72.75    8.21
   2  -2   4  836.16   18.60
   2   2   4  675.03   18.75
   2  -2   4  822.76   19.21
   2  -2   4  754.22   19.04
   2   2   4  723.31   20.41
  -2  -2  -4  683.90   12.36
   1  -2   4    3.06    4.19
  -1  -2  -4    7.84    3.38
   1   2   4    1.29    4.87
   1  -2   4    1.96    3.82
   1  -2   4    3.67    3.45
   1   2   4    1.72    3.76
   0  -2  -4 2298.63   30.11
   0  -2   4 2037.31   31.90
   0  -2   4 2123.59   33.27
   0   2   4 2225.25   28.64
   0  -2   4 2060.69   31.68
   0   2   4 2343.26   35.33
  -1   2   4   72.64    8.14
  -1  -2   4   81.15    7.86
  -1  -2   4   74.15    7.77
  -1   2   4   76.48    5.39
  -1  -2   4   80.83    6.81
  -2  -2   4  371.49   15.83
  -2  -2   4  369.48   15.52
  -2   2   4  529.12   10.61
  -2  -2   4  392.19   13.73
  -2   2   4  504.06   17.47
  -3  -2   4   23.08    5.02
  -3  -2   4   21.11    6.31
  -3   2   4   23.58    6.94
  -3  -2   4   16.48    5.79
  -3   2   4   26.09    2.38
  -4  -2   4  197.98   13.17
  -4   2   4  167.85   10.44
  -4  -2   4  165.30    8.80
  -4   2   4  168.42   12.58
  -5  -2   4    0.68    4.13
  -5   2   4   -0.46    8.01
  -5   2   4    4.19    5.76
  -5  -2   4   -0.04    6.68
  -6   2   4  134.95    9.82
  -6  -2   4  118.34   12.18
  -6  -2   4  106.04    7.95
  -6   2   4  134.32   13.34
  -7  -2   4    5.04    8.17
  -7   2   4   -1.66   10.74
  -7   2   4    7.27    4.87
  -8  -2   4  421.55   22.03
  -8   2   4  384.20   21.24
  -8   2   4  450.98   17.97
  -9  -2   4  141.06   15.30
  -9   2   4  130.78   14.30
 -10  -2   4    0.31   10.13
 -10   2   4    1.81    9.45
 -11  -2   4   11.31   10.46
 -11   2   4   11.05   10.50
 -12  -2   4  602.61   29.54
 -12   2   4  395.64   24.85
 -13  -2   4    6.35   12.01
 -13   2   4   -1.29   11.55
 -14  -2   4  107.96   16.11
  14  -2  -4   69.25   16.57
 -14   2   4   75.89   17.36
 -15  -2   4   -2.40   15.44
 -15   2   4   -1.07   15.28
 -14  -3  -4  -16.11   12.51
  14  -3   4   21.31   15.22
  14   3   4    6.03   14.80
 -13  -3  -4   21.00   13.99
  13  -3   4   26.64   13.78
  13   3   4    2.36   15.00
 -12  -3  -4    3.08   10.50
  12  -3   4    6.03   11.55
  12   3   4   17.10   11.68
 -11  -3  -4    7.49   12.12
  11   3   4    8.67   11.48
  11  -3   4   17.20   11.03
 -10  -3  -4   -1.29   10.87
  10  -3   4    5.96    9.08
  10   3   4   11.31   10.13
   9  -3   4  161.37   16.44
   9   3   4  172.94   16.59
  -9  -3  -4  176.83   16.37
   8  -3   4   12.86    5.92
  -8  -3  -4   11.51    9.76
   8  -3   4    0.55    8.89
   8   3   4   16.35   10.07
   7   3   4   19.89    6.51
   7  -3   4   18.08    6.72
   7  -3   4   27.44   10.46
   6   3   4    3.06    4.85
   6  -3   4    5.59    5.35
   6  -3   4    1.18    8.60
   6   3   4    3.41    9.13
   5  -3   4   31.57    6.66
   5   3   4   38.32    7.16
   5  -3   4   33.97    9.10
   5   3   4   32.09    9.45
   4   3   4  132.05   12.07
   4  -3   4  111.06    9.32
   4   3   4  142.64   10.76
   3  -3   4 2521.54   30.24
   3   3   4 2650.97   40.39
   3   3   4 2414.50   40.59
   3  -3   4 2716.14   39.82
  -3  -3  -4 2399.74   26.42
   2  -3   4   87.44    6.77
   2   3   4   73.36    8.76
   2  -3   4   70.26    7.93
  -2  -3  -4   85.59    5.96
   2   3   4   84.65    8.69
  -1  -3  -4  155.93    8.43
   1  -3   4  125.85    8.43
   1  -3   4  119.82    9.85
   1   3   4  154.03   10.11
   1   3   4  133.40    9.89
   0  -3   4   16.33    4.15
   0  -3   4   24.39    6.29
   0   3   4   13.89    5.72
   0  -3  -4   19.10    5.13
   0  -3   4   18.99    5.52
   1  -3  -4  156.98   11.07
  -1  -3   4   94.86    9.30
  -1  -3   4   98.05    8.82
  -1  -3   4   91.81    6.70
  -1   3   4  163.16   11.92
  -2  -3   4    6.94    3.58
  -2   3   4   10.24    6.83
  -2  -3   4    9.72    6.22
   2  -3  -4   11.96    6.24
  -2  -3   4    5.24    5.79
   3  -3  -4   53.91    8.27
  -3  -3   4   33.88    4.50
  -3  -3   4   22.58    6.66
  -3   3   4   52.64    8.89
  -3  -3   4   33.40    7.69
   4  -3  -4   72.42   10.28
  -4   3   4   72.62   10.61
  -4  -3   4   82.88   10.50
  -4  -3   4   71.46    9.48
  -5  -3   4    7.55    6.92
   5  -3  -4   12.44    8.27
  -5   3   4    5.37    9.85
  -5  -3   4    5.65    6.83
  -6  -3   4   16.83    7.71
  -6   3   4   14.65   10.46
   6  -3  -4   29.54    9.61
   7  -3  -4  250.53   20.41
  -7  -3   4  228.66   17.38
  -7   3   4  275.84   20.35
  -8  -3   4    5.59    7.88
  -8   3   4   -0.07    9.67
   8  -3  -4    2.31    8.58
   9  -3  -4  384.24   23.16
  -9  -3   4  405.59   23.30
  -9   3   4  336.64   22.34
 -10   3   4   10.28   10.52
 -10  -3   4   -5.72    9.43
  10  -3  -4   11.86    9.80
  11  -3  -4    2.45    9.63
 -11  -3   4   21.48   10.02
 -11   3   4    7.14   12.27
 -12  -3   4   12.07   10.26
 -12   3   4   18.71   11.42
  12  -3  -4    4.65   10.55
 -13  -3   4  243.70   21.92
  13  -3  -4  219.71   23.12
 -13   3   4  200.58   21.18
  14  -3  -4   78.80   15.96
 -14   3   4   45.13   17.71
  13  -4   4   18.30   15.50
 -13  -4  -4   23.78   11.62
  13   4   4   22.49   15.11
  12  -4   4  217.13   23.45
  12   4   4  231.19   22.73
 -12  -4  -4  208.72   20.57
  11  -4   4   19.34   11.46
 -11  -4  -4   12.95   11.62
  11   4   4   13.93   11.33
 -10  -4  -4   50.70   12.47
  10   4   4   48.10   13.84
   9  -4   4    0.94    7.20
  -9  -4  -4    4.06   11.86
   9   4   4   -5.63    9.10
   8  -4   4   49.34    8.73
  -8  -4  -4   54.89   11.88
   8   4   4   53.77   12.38
   7  -4   4    1.27    6.38
  -7  -4  -4    6.99    9.17
   7   4   4   -1.77    9.91
   6   4   4  362.01   21.16
   6  -4   4  342.93   17.44
   5   4   4  195.32   15.72
   5  -4   4  186.02   13.14
   4  -4   4   43.29    8.62
   4   4   4   72.46   11.72
   4   4   4   87.18    8.91
   3   4   4   19.69    5.87
   3   4   4   26.96    8.38
   3  -4   4   18.71    6.90
   2   4   4   14.24    6.57
  -2  -4  -4    7.66    4.21
   2  -4   4    7.79    6.62
   2  -4   4    6.11    3.84
   1   4   4    3.54    5.17
  -1  -4  -4    1.00    4.54
   1  -4   4    2.21    6.64
   1  -4   4    0.48    3.86
   0  -4   4  142.72   10.04
   0  -4   4  148.20   11.72
   0  -4  -4  190.01   11.55
   0   4   4  161.22   12.14
   1  -4  -4    3.34    5.79
  -1   4   4    3.36    5.81
  -1  -4   4    7.25    6.68
  -1  -4   4    4.98    6.18
  -2   4   4    4.48    7.58
  -2  -4   4    4.48    6.00
   2  -4  -4    3.27    7.07
  -2  -4   4    2.69    5.98
  -3  -4   4   -3.14    6.75
  -3   4   4    8.86    7.36
  -3  -4   4    2.16    7.99
   3  -4  -4    4.26    8.08
  -4  -4   4  253.68   16.07
  -4  -4   4  246.56   17.05
  -4   4   4  310.25   18.69
   5  -4  -4  270.23   19.21
  -5  -4   4  215.49   17.12
  -5  -4   4  227.78   16.13
  -5   4   4  230.51   17.71
  -6  -4   4  555.04   25.37
  -6  -4   4  517.64   24.04
  -6   4   4  664.62   28.25
  -7  -4   4   35.78    9.69
   7  -4  -4   42.44   10.79
  -7   4   4   35.50   11.48
  -8  -4   4   76.15   12.05
  -8   4   4   80.21   15.30
   8  -4  -4   74.43   13.32
  -9  -4   4   11.79    9.17
  -9   4   4   13.58   10.89
   9  -4  -4    6.55   11.59
 -10  -4   4   19.08   10.94
 -10   4   4   18.65   12.34
  10  -4  -4   24.80   11.64
 -11  -4   4   13.86   11.96
 -11   4   4   16.77   11.18
  11  -4  -4   34.43   12.66
 -12  -4   4  129.34   18.51
  12  -4  -4   91.04   15.81
 -12   4   4   82.66   17.97
  13  -4  -4   12.86   14.54
 -13   4   4  -11.90   15.33
 -11  -5  -4   43.29   13.97
  11   5   4   24.56   15.52
 -10  -5  -4   74.10   15.22
  10   5   4  105.76   15.37
   9  -5   4  570.00   26.85
   9   5   4  528.43   28.86
  -9  -5  -4  590.37   31.07
  -8  -5  -4  111.22   15.92
   8  -5   4  126.26   13.73
   8   5   4  101.07   15.02
   7  -5   4   56.02    9.28
  -7  -5  -4   48.40   13.49
   7   5   4   46.50   11.79
   6  -5   4   59.43   10.15
  -6  -5  -4   46.22   12.12
   6   5   4   68.84   12.73
  -5  -5  -4  219.29   17.20
   5   5   4  187.90   16.55
   5  -5   4  161.41   14.50
   4  -5   4   33.69    8.03
   3  -5   4  283.63   17.34
   2   5   4   39.23    7.75
  -2  -5  -4   35.13    6.51
   2  -5   4   30.65    8.30
   1  -5   4  110.08   11.86
   1   5   4  156.67   12.55
   0  -5   4  435.57   21.03
   0  -5   4  478.67   18.41
   0  -5  -4  473.65   18.97
   0   5   4  450.05   19.21
  -1  -5   4  441.73   19.17
  -1  -5   4  346.38   19.37
   1  -5  -4  431.07   19.30
  -1   5   4  408.23   19.06
  -2   5   4   17.12    8.84
  -2  -5   4   11.46    7.88
   2  -5  -4   12.29    7.84
  -2  -5   4   19.45    7.55
  -3  -5   4  459.17   21.09
   3  -5  -4  585.26   24.54
  -3  -5   4  485.76   23.60
  -3   5   4  591.55   24.45
  -4  -5   4   84.82   11.62
   4  -5  -4   88.34   13.43
  -4   5   4   80.11   11.72
  -4  -5   4   89.43   12.51
  -5  -5   4    9.30    8.25
  -5  -5   4    6.70    8.82
  -5   5   4    5.35    9.98
   5  -5  -4    8.62    8.60
  -6  -5   4   14.80    7.75
  -6  -5   4   14.02    9.06
  -6   5   4   11.13   10.24
   6  -5  -4   14.06   10.17
   7  -5  -4  328.74   23.01
  -7  -5   4  231.37   18.91
  -7  -5   4  255.45   19.41
  -7   5   4  302.06   22.12
   8  -5  -4  153.99   17.79
  -8  -5   4  164.84   17.84
  -8   5   4  179.31   19.48
   9  -5  -4  202.59   21.42
  -9  -5   4  220.56   20.81
  -9   5   4  204.31   20.24
 -10  -5   4   19.50   11.16
 -10   5   4   17.16   12.01
  10  -5  -4   27.05   12.62
 -11  -5   4    6.77   11.92
 -11   5   4   -3.67   13.56
  11  -5  -4  -19.67   14.56
  10  -6   4   15.72   14.34
 -10  -6  -4   25.50   12.71
  10   6   4   21.46   11.81
   9  -6   4    5.61   11.99
  -9  -6  -4  -15.26   11.81
   9   6   4   23.12   12.90
   8  -6   4   10.85   10.65
  -8  -6  -4   60.08   13.86
   8   6   4   48.67   14.26
   7  -6   4   46.00    9.87
  -7  -6  -4   49.26   12.07
   7   6   4   52.95   12.16
   6  -6   4   98.47   13.65
  -6  -6  -4   97.16   14.19
   6   6   4   83.88   14.74
  -5  -6  -4   56.77   12.29
   5   6   4   54.76   10.94
   5  -6   4   44.15   10.87
  -4  -6  -4   50.02   11.27
   4  -6   4   54.43   10.79
  -3  -6  -4    5.48    8.82
   3  -6   4    2.95    7.34
   2  -6   4   -1.75    7.75
  -1  -6  -4    4.13    6.27
   1  -6   4    3.97    7.27
   0  -6   4  263.13   18.34
   0  -6  -4  298.76   17.38
   0   6   4  241.52   15.11
  -1   6   4   34.19    8.12
   1  -6  -4   37.84    8.62
  -1  -6   4   30.96    9.26
  -2   6   4   19.32    7.42
  -2  -6   4   12.27    8.51
  -2  -6   4    7.90    7.60
   2  -6  -4    0.87    6.83
  -3  -6   4   31.70    9.00
  -3   6   4   26.42    9.17
  -3  -6   4   26.72    9.32
   3  -6  -4   29.91    7.62
  -4  -6   4  144.91   16.05
  -4  -6   4  152.29   14.48
   4  -6  -4  190.80   16.81
  -4   6   4  205.78   16.31
  -5  -6   4  328.37   21.92
  -5  -6   4  320.53   21.03
   5  -6  -4  302.76   20.63
  -5   6   4  306.23   21.03
  -6  -6   4  303.76   21.94
  -6  -6   4  289.55   21.44
   6  -6  -4  426.31   25.15
  -6   6   4  376.07   24.47
  -7  -6   4   15.81   10.11
   7  -6  -4    9.80    9.43
  -7  -6   4   12.40   10.35
  -7   6   4   12.77   12.10
  -8  -6   4   65.30   14.82
   8  -6  -4  116.74   15.98
  -8   6   4  109.49   18.36
  -8  -6   4   93.82   14.10
  -9  -6   4   21.44   12.66
   9  -6  -4   19.10   14.24
  -9   6   4   20.50   13.65
 -10  -6   4   72.38   16.35
  10  -6  -4   74.95   14.65
 -10   6   4   47.07   14.13
   9  -7   4   47.16   13.56
   8  -7   4   21.00   12.97
  -8  -7  -4   14.76   12.77
   8   7   4   13.45   12.86
  -7  -7  -4   38.69   13.86
   7   7   4   38.16   13.91
   7  -7   4   18.43   11.57
  -6  -7  -4   33.06   12.07
   6   7   4   34.23   12.29
   6  -7   4   22.95   11.62
  -5  -7  -4   46.68   13.14
   5  -7   4   22.25   10.22
   4  -7   4  132.22   15.00
  -4  -7  -4  154.49   16.81
   3  -7   4  338.11   23.16
  -3  -7  -4  394.48   23.78
   2  -7   4   69.32   12.64
   1  -7   4  -10.02    8.71
   0  -7  -4   20.89    8.43
   0  -7   4   25.00    9.30
   1  -7  -4   15.26    8.27
  -1  -7   4  -15.35    8.73
   2  -7  -4   32.31   10.70
  -2  -7   4   23.67   10.07
  -3  -7   4  125.26   15.89
   3  -7  -4  113.18   14.34
  -3   7   4  145.06   15.74
  -4   7   4   43.91   10.07
  -4  -7   4   54.71   12.27
   4  -7  -4   41.48   10.50
  -5  -7   4   32.27   11.09
   5  -7  -4   23.91   11.22
  -5   7   4   46.55   11.33
  -5  -7   4   37.68   11.31
  -6  -7   4   70.70   13.12
  -6  -7   4   82.20   13.08
  -6   7   4   84.93   14.52
   6  -7  -4   66.59   11.83
  -7  -7   4   16.20   13.38
  -7  -7   4    1.27   11.99
  -7   7   4    9.34   12.16
   7  -7  -4   -6.51   12.34
  -8  -7   4   34.91   13.84
  -8  -7   4   48.47   14.43
  -8   7   4   42.09   13.86
   8  -7  -4   56.11   14.67
  -6  -8  -4   46.53   14.48
   5  -8   4   22.34   13.14
   4  -8   4   20.65   13.08
   3  -8   4   28.16   12.84
   2  -8   4   38.99   11.35
   1  -8   4  126.85   15.59
   0  -8   4   75.63   12.20
   1  -8  -4   34.95   10.70
  -1  -8   4   16.07   12.53
   2  -8  -4    2.66   11.66
  -2  -8   4  -13.58   12.07
   3  -8  -4   13.06   12.69
  -3  -8   4   16.48   11.77
  -4  -8   4   50.76   14.37
   4  -8  -4   39.91   12.44
   5  -8  -4   31.46   13.58
  -6   8   4   10.48   14.91
  14   0   5  -10.31   15.72
  13   0   5    3.06   14.13
  12   0   5    2.01   11.48
  11   0   5    0.65   11.03
 -10   0  -5  142.90   13.27
  10   0   5  157.48   17.07
   9   0   5    2.71    9.17
   8   0   5  746.69   29.78
   7   0   5    3.19    8.43
   6   0   5  755.12   27.18
   6   0   5  603.27   21.00
   5   0   5   -3.08    6.72
   5   0   5    0.87    7.05
   4   0   5  601.70   21.96
   4   0   5  585.04   21.37
   3   0   5   -5.22    6.46
   3   0   5   -0.65    5.22
   2   0   5   24.47    7.53
   2   0   5   34.80    6.62
   1   0   5    1.70    5.70
   1   0   5    4.61    3.23
   0   0   5  174.73   10.52
   0   0   5  192.79    8.71
   0   0   5  180.93   11.70
  -1   0   5    2.29    5.48
  -1   0   5   -0.92    2.73
  -1   0   5    2.77    4.96
  -2   0   5 2454.19   39.98
  -2   0   5 3107.61   44.04
  -3   0   5   -1.44    4.50
  -3   0   5   -0.11    4.48
  -4   0   5 2328.74   41.50
  -4   0   5 1989.91   35.76
  -5   0   5   -2.53    6.81
  -5   0   5    0.00    6.92
  -6   0   5  176.61   13.86
  -6   0   5  142.18   11.55
  -7   0   5    2.90    7.49
  -7   0   5    1.38    7.25
  -8   0   5   31.99    8.60
  -8   0   5   35.94    8.65
  -9   0   5   -2.10    7.99
  -9   0   5    2.29    6.94
 -10   0   5  836.23   30.89
 -10   0   5  733.77   26.83
 -11   0   5    1.62    8.34
 -11   0   5    0.07    8.73
 -12   0   5   19.06    9.39
 -13   0   5    8.60   10.74
  14  -1   5   -6.18   15.22
  14   1   5    6.79   14.58
  13  -1   5   74.45   14.37
  13   1   5   82.33   17.55
 -12  -1  -5    4.10    9.93
  12  -1   5   13.58   11.13
  12   1   5   -6.48   12.47
  11   1   5  349.94   24.87
  11  -1   5  356.25   25.02
 -11  -1  -5  309.57   19.48
 -10  -1  -5   74.21   11.48
  10  -1   5   79.19   13.25
  10   1   5   63.88   13.97
   9  -1   5  136.04   14.63
   9   1   5  128.25   15.83
   8  -1   5   -0.70    9.06
   8   1   5    9.41    9.74
   7   1   5    1.53    6.27
   7  -1   5    5.02    9.04
   7   1   5   -3.78   10.04
   6   1   5   22.58    7.73
   6  -1   5   36.18    9.91
   6   1   5   35.76    9.08
   5  -1   5 1070.69   30.04
   5   1   5 1114.86   31.57
   5  -1   5 1169.07   18.58
   5  -1   5 1109.19   27.38
   5   1   5 1015.59   27.51
   4  -1   5    2.62    6.09
   4   1   5    0.39    6.24
   4   1   5   -1.33    7.10
   4  -1   5    4.41    6.46
   4  -1   5   -0.61    2.69
   3  -1   5  125.67    7.18
   3  -1   5  120.26    9.93
   3   1   5  128.86   10.89
   3  -1   5  128.57   10.61
   3   1   5  116.98   10.96
   2  -1   5    4.21    5.39
   2   1   5    2.12    6.27
   2  -1   5    0.59    3.78
   2  -1   5   -0.46    5.20
   2   1   5   -2.86    5.09
   1  -1   5 3274.35   39.61
   1  -1   5 3187.82   41.72
   1  -1   5 3558.48   40.17
   1   1   5 3567.20   40.96
   1  -1   5 3491.57   46.64
   1   1   5 3400.54   47.25
   0  -1   5   12.49    5.50
   0   1   5    7.12    5.70
   0  -1   5    8.30    4.96
   0   1   5   16.48    3.97
  -1  -1   5   89.23    8.49
  -1   1   5  130.13    6.27
  -1  -1   5  103.31    9.78
  -1   1   5  130.63   10.04
  -2   1   5   15.33    1.88
  -2  -1   5   16.13    5.33
  -2   1   5    9.08    5.65
  -2   1   5   13.67    5.61
  -2  -1   5   15.89    5.57
  -3   1   5   99.67    9.85
  -3  -1   5  101.24    9.93
  -3  -1   5   88.05    8.65
  -3   1   5   81.07    9.06
  -4  -1   5    2.47    6.90
  -4  -1   5    3.84    4.89
  -4   1   5    5.68    6.42
  -4   1   5    3.06    5.96
  -5  -1   5    5.79    5.26
  -5   1   5   15.83    8.03
  -5   1   5   24.96    7.38
  -5  -1   5    5.61    7.07
  -6  -1   5   -0.65    5.79
  -6   1   5    6.11    7.49
  -6   1   5    3.06    5.98
  -6  -1   5    2.93    7.60
  -7  -1   5 1577.37   40.72
  -7  -1   5 1422.01   31.83
  -7   1   5 1544.36   36.81
  -8  -1   5   78.49   11.92
  -8   1   5   81.22   10.61
  -8  -1   5   82.11    9.76
  -8   1   5   93.49   11.81
  -9   1   5   11.07    7.40
  -9   1   5   12.01    8.01
  -9  -1   5   15.35    9.63
 -10   1   5   -0.68    9.04
 -10   1   5    2.69    7.49
 -10  -1   5   -9.30    8.84
 -11   1   5   84.67   12.69
 -11   1   5   98.23   13.23
 -11  -1   5   95.21   14.32
 -12   1   5   46.02   11.05
 -12  -1   5   33.36   10.70
 -13   1   5  129.51   16.51
 -13  -1   5  131.19   17.12
 -14  -1   5  -13.23   14.19
 -14  -2  -5  100.96   14.74
  14  -2   5  105.10   14.96
  14   2   5  111.94   19.06
 -13  -2  -5   16.16   11.11
  13  -2   5   30.65   12.31
  13   2   5   16.37   15.13
 -12  -2  -5   85.32   11.88
  12  -2   5   85.61   17.23
  12   2   5   76.66   17.92
 -11  -2  -5   24.02    9.80
  11  -2   5   20.33   11.35
  11   2   5   14.34   11.42
  10  -2   5  176.00   18.25
  10   2   5  200.38   20.02
 -10  -2  -5  174.18   16.37
   9  -2   5   10.31    9.28
   9   2   5    5.57    8.82
   8   2   5   -0.26    5.13
   8   2   5   11.27    9.39
   8  -2   5    0.65    8.71
   7   2   5   46.66    7.73
   7  -2   5   62.79   11.72
   7   2   5   64.23   11.75
   6  -2   5  139.14   13.49
   6   2   5  146.61   13.71
   6  -2   5  144.47    8.69
   6   2   5  156.70   11.94
   5   2   5   36.85    7.77
   5  -2   5   40.04    9.56
   5   2   5   40.22    9.85
   5  -2   5   33.51    5.02
   4   2   5   56.81    9.30
   4   2   5   50.57    8.76
   4  -2   5   82.53    9.91
   4  -2   5   70.15    6.64
   4  -2   5   56.70    8.10
   3  -2   5   25.24    6.29
   3   2   5   24.47    7.36
   3  -2   5   21.27    4.83
   3  -2   5   25.98    6.90
   3   2   5   23.38    7.10
  -2  -2  -5 2187.22   24.78
   2  -2   5 2370.94   34.98
   2  -2   5 2403.17   34.78
   2  -2   5 2307.25   37.73
   2   2   5 2176.60   39.15
   1  -2   5   32.68    6.53
  -1  -2  -5   32.16    4.45
   1   2   5   32.77    7.07
   1  -2   5   27.51    5.57
   1  -2   5   33.91    6.59
   1   2   5   21.99    5.37
   0  -2   5   88.97    8.67
   0  -2   5   92.29    8.65
   0   2   5   72.86    6.59
   0  -2   5   84.25    8.91
   0   2   5  109.78   10.76
  -1  -2   5   41.96    7.18
  -1   2   5   34.89    8.19
  -1  -2   5   46.98    7.34
  -1   2   5   40.96    4.15
  -1  -2   5   38.67    7.07
  -2   2   5  603.60   11.59
  -2  -2   5  472.36   19.23
  -2  -2   5  485.70   19.34
  -2  -2   5  500.94   18.21
  -2   2   5  634.84   22.14
  -3  -2   5    0.72    5.81
  -3   2   5   -1.90    7.47
  -3  -2   5   -3.97    6.90
  -4   2   5 1834.85   34.93
  -4  -2   5 1453.62   34.87
  -4  -2   5 1495.70   29.13
  -4   2   5 1924.85   38.54
  -5   2   5  109.06   10.02
  -5  -2   5  104.56   12.12
  -5  -2   5  114.36    9.28
  -5   2   5   93.23   12.01
  -6  -2   5   63.80    8.34
  -6   2   5   62.31   10.79
  -6   2   5   51.26    8.41
  -6  -2   5   75.94   11.27
  -7   2   5   60.91   10.74
  -7   2   5   52.18    8.67
  -7  -2   5   60.96   12.29
  -8   2   5  351.16   18.17
  -8  -2   5  355.86   22.68
  -8   2   5  334.57   20.24
  -9   2   5   28.03   10.46
  -9  -2   5   43.32   10.44
 -10  -2   5  311.69   22.66
 -10   2   5  266.08   20.41
 -11   2   5   18.99   10.04
 -11  -2   5   30.37   13.25
 -12  -2   5   52.27   13.62
 -12   2   5   45.39   12.29
 -13   2   5   -3.43   12.62
 -13  -2   5    4.78   12.69
 -14   2   5   18.12   15.17
 -14  -2   5   42.55   14.98
 -14  -3  -5  -13.36   12.18
 -13  -3  -5   28.80   11.38
  13  -3   5   30.11   13.51
  13   3   5   36.24   17.82
 -12  -3  -5    7.12   11.51
  12  -3   5   27.07   11.35
  12   3   5   14.85   14.39
 -11  -3  -5   77.92   15.02
  11  -3   5  115.02   15.81
  11   3   5  118.53   17.64
 -10  -3  -5   56.22   13.21
  10  -3   5   57.14   12.73
  10   3   5   54.76   11.90
  -9  -3  -5  130.52   15.89
   9  -3   5  123.29   15.06
   9   3   5  128.07   16.57
   8  -3   5    6.40    9.21
   8   3   5   13.17   10.15
   7  -3   5  446.36   23.89
   7   3   5  367.04   21.42
   7   3   5  345.53   16.29
   6   3   5   53.58    8.14
   6  -3   5   51.13    7.49
   6  -3   5   44.65    9.61
   6   3   5   43.51   10.85
   5  -3   5  938.91   31.05
   5   3   5  799.11   27.53
   5  -3   5  898.39   24.21
   5   3   5  825.95   25.28
   4   3   5   81.81   10.61
   4  -3   5   92.73    8.65
   4   3   5  102.24   11.42
   3   3   5   15.35    8.54
   3  -3   5    2.93    5.46
   3   3   5   11.42    7.38
   2   3   5   49.71    8.80
   2  -3   5   47.01    7.82
   2  -3   5   49.60    6.66
   2   3   5   50.81    7.97
   1  -3   5   68.36    7.47
   1  -3   5   76.74    8.65
   1   3   5   67.03    8.03
   1  -3   5   46.55    6.86
   1   3   5   71.24    9.32
  -1  -3  -5   63.34    6.64
   0  -3   5   43.01    6.42
   0   3   5   45.50    8.25
   0  -3   5   48.69    8.14
   0   3   5   45.81    7.12
   0  -3  -5   50.48    6.99
   0  -3   5   47.25    7.40
   1  -3  -5 2086.35   36.20
  -1  -3   5 1461.40   32.97
  -1  -3   5 1384.70   32.60
  -1   3   5 1705.86   26.72
  -1  -3   5 1331.29   26.79
  -1   3   5 2076.22   38.91
   2  -3  -5  185.01   12.23
  -2  -3   5  169.38   13.17
  -2  -3   5  184.99   13.25
  -2  -3   5  166.22    9.93
  -2   3   5  159.71   13.30
   3  -3  -5  534.67   20.59
  -3  -3   5  340.16   18.75
  -3  -3   5  350.55   18.49
  -3  -3   5  366.77   14.45
  -3   3   5  497.36   21.18
  -4  -3   5    7.31    8.08
  -4   3   5   14.28    8.89
   4  -3  -5   12.75    8.17
  -4  -3   5   15.96    8.19
   5  -3  -5  136.41   13.56
  -5  -3   5  121.44   13.67
  -5   3   5  123.12   13.93
   6  -3  -5    9.17    8.95
  -6   3   5    3.73    8.49
  -6  -3   5   -7.14    7.84
   7  -3  -5  198.66   16.86
  -7  -3   5  191.93   16.64
  -7   3   5  189.23   16.33
  -8   3   5   25.63   10.76
   8  -3  -5   37.68   10.59
  -8  -3   5   22.62    8.62
  -9   3   5   15.41    8.95
   9  -3  -5   14.91    8.82
  -9  -3   5   22.34   10.48
  10  -3  -5   18.56   10.81
 -10   3   5    4.08   11.57
 -10  -3   5   17.07   10.39
 -11   3   5    5.22   12.79
  11  -3  -5    6.70   10.09
 -11  -3   5   14.87   10.92
  12  -3  -5   58.93   12.47
 -12   3   5   50.28   15.24
 -12  -3   5   38.56   13.97
  13  -3  -5  206.69   22.44
 -13  -3   5  234.57   22.97
 -13   3   5  180.43   19.80
 -12  -4  -5   27.84   13.41
  12  -4   5   28.40   13.43
  12   4   5   18.36   13.62
 -11  -4  -5    7.23   11.42
  11  -4   5    3.36   12.73
  11   4   5   10.41   11.18
 -10  -4  -5   63.88   14.43
  10   4   5   46.66   12.49
  -9  -4  -5    2.12   10.83
   9   4   5    7.66   10.92
   8   4   5  157.94   16.11
  -8  -4  -5  176.74   18.73
   7  -4   5   24.72    7.47
   7   4   5   20.92   10.35
   6   4   5  110.54   13.99
   6  -4   5  130.69   11.81
   5   4   5    2.99    6.35
   5   4   5   -0.61    8.19
   5  -4   5    2.40    6.66
   4   4   5   12.31    6.81
   4  -4   5    2.31    6.16
   4   4   5   10.96    9.26
   3   4   5    2.73    5.76
   3  -4   5    6.18    6.38
   3   4   5   -1.20    7.40
   2  -4   5  891.84   22.77
   2  -4   5  897.73   27.55
   2   4   5 1098.68   29.67
   2   4   5 1201.19   30.94
   1  -4   5  352.89   15.06
   1  -4   5  330.97   17.62
   1   4   5  334.13   16.09
  -1  -4  -5  374.15   14.89
   1   4   5  377.34   18.03
   0  -4  -5   21.35    6.72
   0   4   5   21.18    8.56
   0  -4   5    0.94    6.99
   0  -4   5    2.64    5.79
   1  -4  -5   99.03   10.39
  -1  -4   5   85.28    9.89
  -1  -4   5   96.65   11.79
  -1   4   5   81.20   10.65
  -2  -4   5   17.75    8.06
  -2   4   5   82.79   11.86
   2  -4  -5   72.40   10.63
  -2  -4   5   20.20    7.14
   3  -4  -5   87.64   11.96
  -3   4   5   80.72   11.40
  -3  -4   5   88.71   11.81
  -3  -4   5   82.40   10.76
  -4  -4   5  574.62   25.83
  -4  -4   5  612.83   26.66
  -5  -4   5    5.39    8.32
  -5   4   5    3.76    8.56
   5  -4  -5    4.96    9.06
  -5  -4   5    0.41    8.45
  -6   4   5   30.94   11.00
   6  -4  -5   34.26   10.50
  -6  -4   5   38.49   10.17
   7  -4  -5  112.31   14.61
  -7  -4   5  113.97   13.56
  -7   4   5  118.23   15.06
  -8  -4   5   49.69   12.99
  -8   4   5   33.86   11.20
   8  -4  -5   37.86   12.53
  -9  -4   5   24.80   10.55
  -9   4   5   19.43   10.33
   9  -4  -5   34.26   11.62
 -10  -4   5  262.83   22.51
  10  -4  -5  308.89   23.69
 -10   4   5  218.66   21.64
 -11  -4   5   30.61   12.51
 -11   4   5   45.00   14.52
  11  -4  -5   19.08   12.73
 -12  -4   5   31.51   15.52
 -12   4   5   10.57   14.28
  12  -4  -5   32.05   15.41
  11   5   5  200.91   21.88
 -11  -5  -5  232.89   23.65
 -10  -5  -5   59.45   17.01
  10   5   5   71.31   16.55
  -9  -5  -5   36.18   11.38
   9   5   5   30.74   12.73
   8  -5   5    3.82    9.39
  -8  -5  -5   -1.07   10.70
   8   5   5   11.05    9.50
  -7  -5  -5   28.75   10.68
   7   5   5   23.95   11.59
   7  -5   5   17.42    9.17
   6   5   5    4.21    8.91
   6  -5   5    0.72    7.55
   5   5   5  510.46   25.70
   5  -5   5  455.66   22.25
   4   5   5  144.45   14.10
   4  -5   5  137.31   12.71
   3  -5   5   22.31    8.97
   3   5   5    2.03    8.14
   2   5   5   34.41    8.47
   2  -5   5   38.12    8.03
   2   5   5   31.35    9.54
   1  -5   5  239.53   16.75
   1   5   5  295.99   16.64
   0   5   5    5.65    7.18
   0  -5   5   12.88    6.88
   0  -5  -5   11.33    5.46
   0  -5   5    8.38    6.64
  -1  -5   5   48.03    9.87
  -1  -5   5   51.66    7.77
   1  -5  -5  102.51   10.89
  -1   5   5   95.78   13.51
  -2  -5   5  165.15   13.86
  -2  -5   5  146.74   14.28
  -2   5   5  125.91   12.82
   2  -5  -5  129.40   12.23
   3  -5  -5    6.70    7.93
  -3   5   5   -0.70    7.88
  -3  -5   5   -0.72    7.07
  -3  -5   5   -6.75    7.10
   4  -5  -5  166.17   15.74
  -4  -5   5  166.22   15.70
  -4  -5   5  137.92   13.49
  -4   5   5  140.34   14.52
  -5  -5   5    8.91    9.32
  -5   5   5    0.87    9.02
   5  -5  -5  -13.95   10.55
  -5  -5   5    1.22    8.12
  -6  -5   5   75.50   12.95
  -6  -5   5   70.63   13.38
  -6   5   5   75.17   13.71
   6  -5  -5   69.78   13.89
  -7  -5   5  378.28   24.37
  -7   5   5  413.47   25.46
  -8  -5   5   20.26    9.96
  -8   5   5    8.10   10.61
   8  -5  -5   18.89   10.50
  -9  -5   5   15.02   12.14
  -9   5   5   27.82   11.42
   9  -5  -5   -2.12   12.58
 -10  -5   5    9.08   12.58
 -10   5   5    0.31   12.36
  10  -5  -5    3.19   13.41
 -11  -5   5  151.89   18.23
 -11   5   5  123.58   18.14
  11  -5  -5  150.50   21.31
  -9  -6  -5    9.67   13.86
   9   6   5   -3.17   12.88
  -8  -6  -5  100.67   16.48
   8   6   5  122.57   17.25
   8  -6   5  102.48   14.87
  -7  -6  -5   43.47   12.66
   7   6   5   30.70   12.23
   7  -6   5   32.60    9.98
  -6  -6  -5   16.13   10.04
   6   6   5   -7.01   10.59
   6  -6   5   -9.06    9.67
  -5  -6  -5   12.36   11.68
   5   6   5   -2.18    9.82
   5  -6   5   -7.82    8.84
   4  -6   5   15.09    8.89
   4   6   5   33.10   11.90
   3  -6   5   47.22   10.07
   3   6   5   40.81   10.83
   2  -6   5   99.38   13.32
   1  -6   5  138.09   14.02
   0   6   5   11.07    7.23
   0  -6   5   10.37    7.93
  -1   6   5   23.06    8.45
  -1  -6   5   26.20    9.74
   1  -6  -5   18.01    6.99
  -2   6   5   51.53   11.09
  -2  -6   5   32.42    9.98
   2  -6  -5   28.60    8.10
  -3   6   5   23.32    9.61
  -3  -6   5   33.43   10.26
   3  -6  -5   38.34    8.38
  -3  -6   5   29.98    9.48
  -4  -6   5  231.23   19.72
  -4  -6   5  281.67   20.13
   4  -6  -5  320.92   21.22
  -4   6   5  355.70   22.01
   5  -6  -5   42.51   10.09
  -5  -6   5   42.42   10.92
  -5   6   5   37.07   10.70
  -5  -6   5   45.00   11.66
  -6  -6   5  137.24   17.20
  -6  -6   5  140.21   17.07
  -6   6   5  147.92   17.71
   6  -6  -5  174.08   18.60
  -7  -6   5  164.64   17.95
  -7  -6   5  177.70   17.77
  -7   6   5  179.10   18.71
   7  -6  -5  200.54   19.15
  -8  -6   5    2.07   12.64
   8  -6  -5   -1.42   11.53
  -8   6   5    8.49   12.40
  -9  -6   5   92.62   18.41
  -9   6   5   74.25   15.81
   9  -6  -5   81.68   15.48
   8  -7   5   51.07   13.47
  -7  -7  -5   24.54   12.93
   7   7   5   16.88   12.79
   7  -7   5   28.38   12.14
  -6  -7  -5    0.20   13.75
   6   7   5  -16.72   12.88
   6  -7   5    1.57   10.87
  -5  -7  -5   67.64   15.87
   5  -7   5   46.92   12.49
   5   7   5   56.48   15.37
  -4  -7  -5   71.55   14.26
   4  -7   5   83.53   13.95
   4   7   5   65.67   12.93
  -3  -7  -5   17.49   11.31
   3  -7   5    1.07   10.17
   2  -7   5   19.61   10.28
   1  -7   5   14.89   10.02
   0  -7   5   42.07   10.68
  -1  -7   5  122.31   15.52
  -2  -7   5  155.82   16.79
   2  -7  -5  166.76   15.89
  -3   7   5   14.61    9.91
  -3  -7   5    5.85   11.90
   3  -7  -5   -5.89   10.26
  -4   7   5   10.15   10.26
  -4  -7   5    9.87   12.20
   4  -7  -5    9.21   10.11
  -5  -7   5   14.98   11.33
  -5   7   5   10.59   11.33
   5  -7  -5   17.66   10.68
  -5  -7   5   -9.78   12.64
  -6  -7   5   19.45   13.60
  -6   7   5    4.85   12.55
   6  -7  -5   12.20   12.44
  -6  -7   5   17.40   13.34
  -7  -7   5   57.64   15.04
  -7   7   5   73.90   13.41
   7  -7  -5   38.64   13.08
  -8  -7   5   14.69   15.70
   4   8   5    0.00   14.96
   3  -8   5   68.34   13.97
   2  -8   5  110.85   18.10
   1  -8   5   58.16   13.12
   0  -8   5   11.70   13.17
  -1  -8   5   -1.46   13.01
   3  -8  -5   85.80   15.37
   4  -8  -5   47.20   12.58
  13   0   6    1.99   14.28
  12   0   6  273.18   24.41
  11   0   6    1.59   12.31
  10   0   6  126.39   16.48
   9   0   6   -8.47    9.63
   8   0   6  193.48   17.01
   7   0   6    1.86    6.42
   7   0   6   -1.18    8.54
   6   0   6   61.83    9.54
   6   0   6   81.35   11.96
   5   0   6   -5.39    7.07
   5   0   6   -4.34    8.19
   4   0   6 2105.28   41.88
   4   0   6 2072.79   41.81
   3   0   6    1.55    7.88
   3   0   6   -1.33    6.20
   2   0   6 1292.93   28.14
   2   0   6 1421.51   35.11
   1   0   6    0.52    7.47
   1   0   6   -0.33    4.48
   0   0   6   89.84    6.86
   0   0   6  102.75   11.16
  -1   0   6   -3.93    6.46
  -1   0   6   -0.22    2.95
  -1   0   6   -7.05    6.55
  -2   0   6  583.69   22.29
  -2   0   6  542.84   23.86
  -3   0   6   -0.52    6.70
  -3   0   6   -1.44    6.20
  -4   0   6   78.40    9.76
  -4   0   6   84.95   10.00
  -5   0   6    0.24    8.08
  -5   0   6   -0.22    7.73
  -6   0   6 1178.46   34.58
  -6   0   6 1001.92   29.71
  -7   0   6   -4.54    7.36
  -7   0   6   -0.52    6.86
  -8   0   6 1314.83   38.97
  -8   0   6 1151.00   33.78
  -9   0   6   -2.60    7.73
  -9   0   6   -1.57    8.08
 -10   0   6   52.57   11.07
 -10   0   6   75.35   13.60
 -11   0   6    4.54   10.31
 -12   0   6  197.83   18.08
 -13   0   6  -11.11   12.88
  13  -1   6   89.60   17.34
  13   1   6   71.57   17.38
 -12  -1  -6   -5.68   10.11
  12  -1   6    2.42   12.10
  12   1   6   -4.76   13.12
  11  -1   6  274.66   23.58
  11   1   6  263.74   22.71
 -11  -1  -6  274.97   21.07
  10  -1   6   -3.14    9.96
  10   1   6   -6.44    9.91
   9  -1   6  264.68   20.79
   9   1   6  315.64   23.38
   8   1   6   35.94    7.60
   8  -1   6   47.71   10.55
   8   1   6   27.42   11.86
   7  -1   6  191.89   16.33
   7   1   6  192.39   17.79
   7   1   6  143.73   12.71
   6  -1   6   36.90    8.73
   6   1   6   46.24    9.65
   6  -1   6   50.65   10.22
   6   1   6   45.65   10.57
   5  -1   6  214.25   16.05
   5   1   6  215.49   16.42
   5  -1   6  201.13   14.52
   5   1   6  211.78   15.04
   4  -1   6   33.27    8.27
   4   1   6   35.48    9.26
   4  -1   6   28.06    8.03
   4   1   6   39.89    9.10
   3  -1   6  201.26   10.11
   3  -1   6  188.29   13.19
   3   1   6  158.33   12.47
   3  -1   6  170.60   13.56
   3   1   6  147.48   14.91
   2  -1   6   19.19    8.30
   2   1   6   18.12    8.93
   2  -1   6   16.48    4.39
   2  -1   6   20.76    6.22
   2   1   6   18.71    6.94
   1  -1   6  819.48   22.82
   1  -1   6  912.43   23.08
   1   1   6  968.95   22.82
   1  -1   6  978.49   28.25
   1   1   6  939.41   28.89
   0  -1   6    8.17    6.53
   0   1   6    2.86    6.44
   0   1   6    0.50    4.17
   0  -1   6    1.51    5.72
  -1  -1   6 1006.59   28.08
  -1   1   6 1204.60   19.37
  -1  -1   6 1169.29   30.92
  -1   1   6 1172.68   30.72
  -2  -1   6    7.86    6.29
  -2   1   6   10.55    7.12
  -2   1   6   10.39    7.77
  -2  -1   6    0.00    6.05
  -3   1   6   71.74   10.44
  -3  -1   6   65.28    9.06
  -3  -1   6   76.44    9.21
  -3   1   6  114.14   11.75
  -4  -1   6    9.37    6.44
  -4   1   6    5.72    7.05
  -4   1   6   10.57    7.05
  -4  -1   6   -0.61    7.60
  -5   1   6  717.46   24.91
  -5  -1   6  724.99   27.27
  -5  -1   6  700.40   23.71
  -5   1   6  689.31   25.85
  -6  -1   6   19.13    6.75
  -6   1   6   22.16    9.08
  -6   1   6   24.26    7.62
  -6  -1   6   12.38    9.80
  -7  -1   6   53.27    8.47
  -7   1   6   45.94   10.22
  -7   1   6   50.65    9.37
  -7  -1   6   79.28   11.90
  -8  -1   6   14.98    7.53
  -8   1   6   12.20    8.14
  -8   1   6   14.28    7.90
  -8  -1   6   30.81    9.85
  -9   1   6    0.41    8.23
  -9   1   6    2.71    7.16
  -9  -1   6   -2.66    8.97
 -10   1   6    9.39    9.41
 -10   1   6    4.96    8.19
 -10  -1   6    4.19    9.41
 -11   1   6  581.94   27.73
 -11  -1   6  563.62   29.45
 -11   1   6  573.53   27.64
 -12   1   6    3.49   11.48
 -12  -1   6   16.68   11.40
 -13  -1   6   59.65   13.25
 -14  -1   6   14.41   15.68
 -14  -2  -6  113.77   17.92
 -13  -2  -6   -3.67   11.72
  13  -2   6  -10.85   15.33
  13   2   6   -8.73   15.55
 -12  -2  -6    0.55   10.28
  12  -2   6   -4.41   12.10
  12   2   6    7.34   14.52
 -11  -2  -6   45.67   12.64
  11  -2   6   41.31   12.71
  11   2   6   42.07   12.95
  10  -2   6   63.27   14.21
  10   2   6   41.42   15.02
   9  -2   6   25.04    9.41
   9   2   6   15.28   10.33
   9   2   6   22.34    6.53
   8  -2   6  192.68   16.13
   8   2   6  192.50   18.82
   8   2   6  138.75   11.92
   7   2   6   11.18    6.88
   7  -2   6   13.45    8.82
   7   2   6   10.81   10.61
   6  -2   6  390.44   21.42
   6   2   6  345.46   21.18
   6   2   6  312.19   17.97
   5   2   6    0.55    7.73
   5  -2   6    6.68    7.71
   5   2   6   -1.77    8.73
   4  -2   6  411.82   20.04
   4  -2   6  412.25   15.11
   4   2   6  294.40   17.68
   4  -2   6  346.86   17.34
   4   2   6  343.85   19.52
   3  -2   6   65.76    9.54
   3   2   6   81.52   11.42
   3  -2   6   76.48    7.97
   3  -2   6   67.84    9.69
   3   2   6   72.11    9.56
   2  -2   6   41.72    8.60
   2   2   6   44.08   10.41
   2  -2   6   44.89    6.57
   2   2   6   35.78    6.83
   1  -2   6   71.15    9.32
  -1  -2  -6   70.13    6.29
   1   2   6   55.32    9.39
   1  -2   6   63.93    8.65
   1  -2   6   74.80    8.14
   1   2   6   85.19    8.67
   0  -2   6  198.62   13.01
   0  -2   6  225.54   14.30
   0   2   6  232.85   11.68
   0  -2   6  234.31   14.76
   0   2   6  245.82   16.07
  -1  -2   6   22.05    7.69
  -1  -2   6   16.51    7.27
  -1   2   6   17.14    7.75
  -1  -2   6   19.21    6.79
  -2  -2   6 1706.25   37.20
  -2  -2   6 1873.08   38.80
  -3  -2   6   47.31    8.10
  -3   2   6   50.78    9.85
  -3  -2   6   50.72    9.45
  -4  -2   6   -6.24    6.55
  -4   2   6    7.16    6.48
  -4  -2   6    1.27    8.01
  -5  -2   6    2.49    5.65
  -5   2   6   -1.24    9.56
  -5   2   6    0.94    6.29
  -5  -2   6    0.76    8.36
  -6   2   6  231.12   15.74
  -6  -2   6  179.62   16.29
  -6   2   6  214.99   16.55
  -7   2   6    6.05    9.37
  -7   2   6    8.32    6.77
  -7  -2   6   12.10    9.02
  -8   2   6  266.82   16.83
  -8  -2   6  262.19   19.76
  -8   2   6  266.17   19.06
  -9   2   6   26.72   11.00
  -9   2   6   28.99    8.27
  -9  -2   6   18.14    9.32
 -10   2   6   23.73   11.27
 -10  -2   6   29.37   12.79
 -11   2   6   46.09   12.10
 -11  -2   6   60.24   13.84
 -12   2   6    2.31   11.72
 -12  -2   6   25.70   13.19
 -13   2   6   10.63   13.73
 -13  -2   6   11.18   14.06
 -13  -3  -6  145.71   18.99
 -12  -3  -6   41.88   12.84
  12  -3   6   39.02   12.79
  12   3   6   46.79   16.83
  11  -3   6  232.43   20.85
  11   3   6  279.31   25.48
 -11  -3  -6  224.27   20.41
 -10  -3  -6   10.07   10.65
  10  -3   6   -3.78   12.07
  10   3   6    8.93   11.51
   9  -3   6   40.72   10.96
   9   3   6   47.84   11.03
   8   3   6   32.44    7.79
   8  -3   6   30.76   10.61
   8   3   6   30.35   11.03
   7   3   6   -1.83    6.64
   7   3   6    0.37    9.17
   6   3   6   93.05   12.51
   6  -3   6   75.26   12.42
   6   3   6   98.53   10.74
   5   3   6   70.76   10.31
   5  -3   6   82.07   11.92
   5  -3   6   73.12    8.08
   5   3   6   73.66   11.40
   4   3   6   11.29    6.94
   4  -3   6   11.46    5.22
   4   3   6   17.51    8.82
   3  -3   6 1349.09   30.87
   3   3   6 1258.52   35.57
   2  -3   6   33.67    7.66
   2   3   6   41.53    9.32
   2  -3   6   33.49    7.12
   2  -3   6   28.69    6.99
   2   3   6   37.81    8.45
   1  -3   6  489.80   19.17
   1  -3   6  523.82   21.42
   1   3   6  481.81   18.34
   1  -3   6  459.19   18.86
   1   3   6  545.30   26.16
   0  -3  -6  170.65   11.22
   0  -3   6  135.67   11.55
   0  -3   6  149.21   12.84
   0   3   6  131.35    9.54
   0  -3   6  140.30   11.00
   0   3   6  134.06   13.27
  -1  -3   6   66.61    8.78
   1  -3  -6   81.02    9.48
  -1   3   6   71.59   10.85
  -1  -3   6   80.96   10.20
  -1  -3   6   78.84   10.89
  -2  -3   6    3.54    5.09
  -2  -3   6    6.53    7.40
  -2   3   6    0.83    9.52
   2  -3  -6    6.53    6.70
  -2  -3   6    8.19    7.53
   3  -3  -6  296.32   17.03
  -3  -3   6  184.31   15.28
  -3  -3   6  204.82   15.65
  -3  -3   6  197.68   12.66
  -3   3   6  287.08   18.36
   4  -3  -6  121.74   12.16
  -4  -3   6  119.73   13.93
  -4   3   6  114.17   13.62
  -5  -3   6  492.99   23.67
  -5   3   6  533.77   24.74
  -6   3   6   43.29   10.46
  -6  -3   6   67.20   11.05
  -7   3   6   12.18   10.00
  -7  -3   6    8.54    9.24
  -8   3   6   34.87   11.66
  -8  -3   6   32.23    9.19
  -9   3   6   19.21    9.67
  -9  -3   6   -4.10   10.20
  10  -3  -6    0.57   11.38
 -10   3   6   -4.63   10.46
 -10  -3   6    3.27   12.38
  11  -3  -6  174.49   20.04
 -11  -3   6  169.77   20.70
 -11   3   6  177.04   19.02
 -12   3   6    7.10   13.69
  12  -3  -6    9.72   13.10
 -12  -3   6    3.19   14.19
 -11  -4  -6  -10.09   12.42
  11   4   6    4.61   14.65
 -10  -4  -6   14.21   11.62
  10   4   6   21.40   11.59
  -9  -4  -6   34.28   12.73
   9   4   6   41.16   11.18
   8   4   6  189.38   18.14
   7   4   6   48.53   12.60
   6  -4   6   -1.14    6.94
   6   4   6    0.57    8.91
   5   4   6    7.90    7.36
   5  -4   6    9.87    6.48
   5   4   6    2.45    7.29
   4   4   6  583.73   24.91
   4  -4   6  682.46   24.96
   4   4   6  617.37   26.13
   3  -4   6  229.09   15.11
   3   4   6  224.57   15.50
   3   4   6  261.82   17.07
   2   4   6   30.48    9.43
   2  -4   6   30.89    8.36
   2  -4   6   35.11    7.75
   2   4   6   17.40    7.25
   1   4   6   83.90   11.83
   1  -4   6   95.43    9.26
   1  -4   6   82.68   10.50
   1   4   6   90.39    9.54
   0  -4   6  243.46   14.43
   0  -4   6  259.22   17.51
   0   4   6  271.49   17.03
  -1  -4   6    6.68    5.17
  -1   4   6    5.17    8.17
  -1  -4   6   -2.31    7.18
   1  -4  -6    5.41    6.40
  -1  -4   6   11.92    6.31
   2  -4  -6  469.59   21.88
  -2  -4   6  231.34   16.77
  -2  -4   6  253.20   17.16
  -2   4   6  473.32   22.49
   3  -4  -6  252.06   17.34
  -3  -4   6  207.98   17.53
  -3  -4   6  193.68   15.52
  -3   4   6  194.75   16.16
  -4  -4   6   17.64    8.69
  -4   4   6   20.46   10.35
   4  -4  -6    9.30    8.08
  -4  -4   6    5.55    7.31
  -5   4   6   85.13   12.97
  -5  -4   6  104.54   13.84
   5  -4  -6   88.29   12.60
   6  -4  -6  108.20   14.26
  -6   4   6   78.99   13.47
  -6  -4   6   69.36   12.73
  -7   4   6   73.40   12.79
   7  -4  -6   58.67   11.59
  -7  -4   6   72.40   14.63
   8  -4  -6  392.17   25.92
  -8  -4   6  350.40   25.00
  -8   4   6  314.42   22.29
  -9   4   6   27.44   10.24
   9  -4  -6   35.26   12.03
  -9  -4   6   29.50   12.49
 -10   4   6   59.39   14.72
  10  -4  -6   56.02   14.08
 -10  -4   6   85.50   15.70
 -11   4   6   14.89   12.97
  11  -4  -6    1.00   12.82
 -11  -4   6   16.33   16.31
 -10  -5  -6    9.13   14.45
  10   5   6   22.29   12.95
  -9  -5  -6   78.95   15.17
   9   5   6   65.30   14.93
  -8  -5  -6   -6.35   10.02
   8   5   6    4.00   10.65
   7   5   6  312.39   22.97
   6   5   6  213.29   18.69
   6  -5   6  207.57   16.44
   5   5   6  110.78   13.75
   5  -5   6  140.39   13.27
   4  -5   6   10.50    7.49
   4   5   6   12.75    8.25
   3   5   6    3.62    7.93
   3  -5   6    5.94    7.07
   3   5   6    3.93    9.45
   2   5   6   16.90    7.95
   2  -5   6   16.42    7.42
   2   5   6   24.37    8.69
   1  -5   6   58.29    9.96
   1   5   6  135.82   12.58
   0  -5   6  108.01   13.03
   0   5   6  110.41   11.90
   1  -5  -6   42.27    7.64
  -1   5   6   36.18   10.28
  -1  -5   6   33.88   10.70
  -1  -5   6   46.92    9.63
  -2  -5   6   86.66   13.03
  -2  -5   6  105.17   12.34
  -2   5   6   96.11   12.07
   2  -5  -6   98.12   11.68
  -3   5   6   84.19   13.45
  -3  -5   6   43.62   10.44
   3  -5  -6   71.24   11.96
  -3  -5   6   40.22    8.36
  -4  -5   6   31.18    9.96
  -4   5   6   24.87   10.85
   4  -5  -6   38.84   10.13
  -4  -5   6   33.82   10.22
  -5  -5   6  221.39   19.67
  -5  -5   6  226.98   19.96
  -5   5   6  296.12   21.51
  -6   5   6   94.28   14.28
   6  -5  -6  120.78   17.29
  -6  -5   6  108.62   15.48
  -7   5   6   14.10   10.57
   7  -5  -6    6.68   11.29
  -7  -5   6   -4.10   11.55
  -8   5   6   17.23   11.46
   8  -5  -6   23.78   11.33
  -8  -5   6    8.30   11.64
  -9   5   6   17.51   12.25
   9  -5  -6   29.58   14.82
  -9  -5   6   14.17   13.69
  10  -5  -6  119.58   19.17
 -10   5   6   67.97   15.65
 -10  -5   6   91.22   17.82
   9   6   6   81.09   17.55
  -8  -6  -6   30.06   11.70
   8   6   6   21.66   13.73
  -7  -6  -6    4.15   13.17
   7  -6   6   -2.38   11.00
   7   6   6   -0.65   11.51
  -6  -6  -6   69.76   13.97
   6  -6   6   31.51   10.65
   6   6   6   52.14   14.02
   5  -6   6   22.79   10.41
   5   6   6   39.87   10.68
   4   6   6  369.00   23.21
   4  -6   6  262.96   19.41
   3  -6   6  128.97   14.08
   3   6   6  123.73   15.02
   2  -6   6   53.91   11.51
   1  -6   6   38.62   10.83
   0   6   6   30.46    9.89
   0  -6   6   21.22   10.41
  -1   6   6   -1.31    8.21
  -1  -6   6    5.74    9.02
   2  -6  -6  180.49   15.81
  -2   6   6  214.01   19.02
  -3  -6   6  115.98   14.72
  -3  -6   6  141.39   14.74
   3  -6  -6  152.48   15.20
  -3   6   6  129.69   14.87
   4  -6  -6   13.97    9.24
  -4  -6   6   11.11   10.52
  -4   6   6    3.84    9.93
  -4  -6   6   12.55    9.91
   5  -6  -6   80.28   12.95
  -5  -6   6   86.04   14.61
  -5   6   6   76.00   13.17
  -5  -6   6   77.64   14.80
  -6  -6   6   76.50   16.42
   6  -6  -6   85.32   14.08
  -6   6   6   90.43   14.26
  -6  -6   6   66.48   13.47
  -7   6   6   31.42   11.86
   7  -6  -6   21.75   12.60
  -7  -6   6   20.06   13.08
   8  -6  -6  182.35   20.57
  -8   6   6  136.37   18.12
  -8  -6   6  184.21   22.16
   7  -7   6   19.76   12.84
   7   7   6   53.53   15.15
  -6  -7  -6  101.96   16.46
   6  -7   6  112.83   14.43
   6   7   6   89.73   15.94
  -5  -7  -6   34.08   12.05
   5  -7   6    0.76   11.00
   5   7   6   21.94   13.82
  -4  -7  -6   82.35   13.97
   4  -7   6   67.36   13.99
   4   7   6   68.21   12.93
   3  -7   6    7.18   11.31
   2  -7   6    5.00   10.63
   1  -7   6   60.59   12.18
   0  -7   6   78.21   14.34
  -1  -7   6   92.99   14.91
  -2   7   6   -4.19   10.92
  -2  -7   6   -1.42   11.92
  -3   7   6   35.15   11.72
  -3  -7   6   19.19   12.82
   3  -7  -6   37.62   11.05
  -4   7   6   41.96   13.82
  -4  -7   6   37.77   13.38
   4  -7  -6   47.88   10.98
  -5  -7   6  115.19   17.60
   5  -7  -6  108.36   14.17
  -5   7   6  152.29   17.44
  -6   7   6   53.53   13.25
  -6  -7   6   88.66   17.62
   6  -7  -6   86.02   13.60
  -7  -7   6   29.74   15.61
  12   0   7   60.74   13.38
  11   0   7   11.94   11.88
  10   0   7  153.12   16.99
   9   0   7    6.83   10.55
   8   0   7  174.40   17.14
   8   0   7  131.94   13.06
   7   0   7    1.83    7.16
   7   0   7   -2.36    8.23
   6   0   7 1005.00   33.73
   6   0   7  865.42   29.54
   5   0   7   -0.44    8.49
   5   0   7    0.13    7.90
   4   0   7  316.30   17.79
   4   0   7  333.65   19.93
   3   0   7    5.35    9.04
   3   0   7    1.46    6.72
   2   0   7  192.39   12.49
   2   0   7  197.63   16.07
   1   0   7    8.47    8.12
   1   0   7    5.65    4.48
   0   0   7   56.09   11.05
   0   0   7   51.46    5.79
  -1   0   7    1.72    8.06
  -1   0   7   -0.20    6.83
  -2   0   7  105.69   12.58
  -2   0   7   99.30   11.62
  -3   0   7   -1.03    7.29
  -3   0   7   -1.03    7.07
  -4   0   7  601.81   24.98
  -4   0   7  628.05   25.22
  -5   0   7   -2.62    8.27
  -5   0   7    6.22    7.55
  -6   0   7  369.33   20.61
  -6   0   7  342.67   19.10
  -7   0   7   -1.16    7.01
  -7   0   7   -6.11    7.60
  -8   0   7   70.11   11.57
  -8   0   7   94.21   13.95
  -9   0   7   -5.94    8.58
  -9   0   7   -7.93    8.21
 -10   0   7    0.87    9.69
 -10   0   7   -0.09   10.94
 -11   0   7    0.37   10.76
 -12   0   7  226.52   19.13
 -13   0   7   -9.39   15.00
 -12  -1  -7   27.14   11.24
  12  -1   7   16.81   14.41
  12   1   7   20.06   14.78
  11  -1   7  216.23   20.37
  11   1   7  238.66   22.64
  10  -1   7   -3.67   10.15
  10   1   7   22.36   13.41
   9  -1   7  -11.27    9.45
   9   1   7   17.79   11.83
   8   1   7   26.37    8.19
   8  -1   7   45.02   12.27
   8   1   7   16.66   11.88
   7  -1   7  394.76   22.99
   7   1   7  430.05   24.76
   7  -1   7  339.20   19.30
   7   1   7  345.20   19.56
   6  -1   7    0.07    7.07
   6   1   7    0.20    6.57
   6  -1   7   -0.35    8.56
   6   1   7   -3.12    9.45
   5  -1   7   26.22    9.52
   5   1   7   37.23    9.13
   5  -1   7   20.13    8.95
   5   1   7   19.45    9.39
   4  -1   7   -4.17    7.16
   4   1   7    0.81    8.71
   4  -1   7    2.95    7.31
   4   1   7    0.74    7.79
   3  -1   7  317.74   16.94
   3   1   7  310.49   17.10
   3  -1   7  345.20   19.72
   3   1   7  362.17   22.36
   2  -1   7   31.46    9.74
   2   1   7   45.72   11.75
   2  -1   7   32.86    7.71
   2   1   7   42.01    7.88
   1  -1   7  210.73   13.06
   1   1   7  207.65   11.79
   1  -1   7  251.82   16.94
   1   1   7  220.47   16.83
   0  -1   7   22.27    8.51
   0   1   7   16.72    7.86
   0  -1   7   18.80    7.53
  -1   1   7   62.86   11.38
  -1  -1   7   54.78   10.13
  -1  -1   7   91.50   12.40
  -2  -1   7   21.66   10.02
  -2   1   7   12.51    8.78
  -2  -1   7   16.11    8.03
  -3   1   7  477.79   21.85
  -3  -1   7  417.56   20.35
  -3  -1   7  493.03   21.94
  -3   1   7  502.38   23.19
  -4  -1   7   12.82    7.64
  -4   1   7    1.35    8.19
  -4   1   7   -5.63    6.81
  -4  -1   7    8.12    7.25
  -5  -1   7   10.70    7.58
  -5   1   7   20.81    9.37
  -5  -1   7    9.26    8.32
  -6  -1   7    8.36    6.70
  -6   1   7    2.53    7.51
  -6   1   7   -1.77    7.29
  -6  -1   7    2.34    7.75
  -7   1   7  172.70   17.90
  -7  -1   7  146.81   14.98
  -7  -1   7  143.64   13.43
  -7   1   7  121.28   14.21
  -8   1   7   -1.68    8.65
  -8   1   7   -4.34    7.38
  -8  -1   7   -6.94    9.26
  -9   1   7  370.22   21.83
  -9  -1   7  374.22   25.41
  -9   1   7  357.69   23.41
 -10   1   7   52.86   12.05
 -10   1   7   29.37    9.39
 -10  -1   7   51.22   13.34
 -11   1   7   13.60   11.20
 -11   1   7   13.99   10.09
 -11  -1   7   27.53   13.99
 -12   1   7  -15.52   12.23
 -12  -1   7    5.11   13.80
 -13  -2  -7    1.83   12.53
 -12  -2  -7   63.38   13.21
  12  -2   7   86.09   17.86
  12   2   7   73.10   17.49
 -11  -2  -7   32.36   10.74
  11  -2   7   14.50   11.90
  11   2   7   47.53   13.60
  10  -2   7  297.04   22.40
  10   2   7  318.98   25.61
   9   2   7   33.64    7.97
   9  -2   7   44.47   12.82
   9   2   7   37.42   14.43
   8   2   7   -4.80    7.45
   8  -2   7   -2.60    9.19
   8   2   7   -3.41   11.94
   7   2   7   14.89    8.21
   7  -2   7   20.98    9.30
   7   2   7   16.46   10.44
   6  -2   7  186.04   15.98
   6   2   7  167.02   17.58
   6   2   7  150.30   13.95
   5  -2   7   96.46   12.25
   5   2   7  118.79   14.15
   5  -2   7   78.45   10.61
   5   2   7  106.11   12.84
   4  -2   7  230.86   16.20
   4   2   7  194.53   15.65
   4  -2   7  203.31   15.15
   4   2   7  194.10   16.31
   3  -2   7   77.22    8.67
   3   2   7   94.82   11.55
   3  -2   7   83.99   10.39
   3  -2   7   82.16   10.89
   3   2   7  102.94   12.99
   2  -2   7 1424.83   32.12
   2   2   7 1211.76   31.09
   2  -2   7 1320.55   35.09
   2   2   7 1286.93   37.86
   1  -2   7    2.49    7.88
   1   2   7    4.41    7.51
   1  -2   7    0.04    6.70
   1  -2   7    2.60    6.99
   1   2   7    0.70    6.20
   0  -2   7  258.55   17.18
   0  -2   7  284.97   17.71
  -1  -2   7   23.78    7.93
  -1   2   7   26.94    9.61
  -1  -2   7   16.79    7.69
  -2  -2   7  164.69   14.21
  -2  -2   7  218.37   15.92
  -2   2   7  244.49   17.47
  -3  -2   7    2.23    7.79
  -3   2   7   -0.13    7.12
  -3  -2   7   -0.94    7.05
  -4  -2   7   -1.16    7.12
  -4   2   7    7.16    8.06
  -4  -2   7   -0.94    7.16
  -5  -2   7    6.70    7.23
  -5   2   7    9.28    8.21
  -5   2   7   -1.31    6.59
  -5  -2   7   10.02    7.25
  -6   2   7  678.55   26.66
  -6  -2   7  597.00   27.88
  -6   2   7  614.73   27.84
  -7   2   7   43.78   11.27
  -7   2   7   44.50    8.82
  -7  -2   7   38.58   11.03
  -8   2   7  162.68   15.48
  -8  -2   7  128.31   15.61
  -8   2   7  132.64   15.39
  -9   2   7    8.65    9.50
  -9   2   7    6.24    9.00
  -9  -2   7   -2.93   10.15
 -10   2   7    8.01   10.35
 -10  -2   7   -6.62   10.76
 -11   2   7   19.58   12.53
 -11  -2   7   27.03   13.01
 -12   2   7   36.99   13.56
 -12  -2   7   35.52   15.13
 -13   2   7   15.00   14.50
 -12  -3  -7   10.31   12.38
 -11  -3  -7   15.81   12.40
  11  -3   7   -7.25   14.43
  11   3   7   -0.37   15.06
  10  -3   7    1.94   11.75
  10   3   7  -11.83   13.75
   9  -3   7   12.14    9.85
   9   3   7   -3.25   12.93
   8   3   7   44.15    9.39
   8  -3   7   38.54   10.89
   8   3   7   34.08   11.18
   7  -3   7  328.50   22.95
   7   3   7  334.85   23.03
   7   3   7  322.08   19.58
   6   3   7   -7.12    7.55
   6  -3   7    3.60    8.12
   6   3   7   -7.62    9.52
   5   3   7   87.57   12.29
   5   3   7   94.47   11.83
   4   3   7   60.11   10.98
   4   3   7   58.91   10.85
   3  -3   7   67.31    9.80
   3   3   7   77.33   12.84
   3  -3   7   87.73   10.33
   3   3   7   70.35    9.52
   2  -3   7   91.35    9.10
   2  -3   7   97.29   10.39
   2   3   7   85.08    9.93
   2  -3   7   79.49    9.93
   2   3   7   98.79   12.79
   1  -3   7  192.76   14.17
   1  -3   7  184.58   13.91
   1  -3   7  205.95   14.63
   1   3   7  173.53   14.67
   0  -3   7   11.70    7.27
   0   3   7    4.21    9.02
   0  -3   7   17.66    6.99
   0  -3   7    8.58    6.35
  -1  -3   7   -2.53    5.81
   1  -3  -7    6.07    6.18
  -1  -3   7    0.37    7.40
  -1   3   7    1.31    8.27
  -1  -3   7    1.35    6.66
  -2  -3   7   19.08    6.62
  -2   3   7   18.78    8.36
  -2  -3   7   24.50    8.38
  -2  -3   7   27.09    7.53
   2  -3  -7   45.13    7.93
   3  -3  -7 1423.23   35.46
  -3  -3   7 1037.44   33.80
  -3  -3   7 1056.66   29.91
  -3   3   7 1432.69   39.47
  -4   3   7   62.18   11.81
  -4  -3   7   65.63   11.53
  -5   3   7   50.00   12.18
  -5  -3   7   33.54    9.28
  -6   3   7   34.08   10.94
  -6  -3   7   39.15   10.63
  -7   3   7    2.25    9.93
  -7  -3   7    2.82    9.30
  -8   3   7   13.58   10.22
  -8  -3   7   19.69    9.61
  -9   3   7  103.86   15.83
  -9  -3   7  115.61   15.72
 -10   3   7    9.32   11.59
 -10  -3   7    8.08   11.59
  11  -3  -7   23.91   13.43
 -11   3   7    6.59   13.58
 -11  -3   7   15.59   12.66
  11   4   7   70.26   17.29
 -10  -4  -7   74.76   15.94
  10   4   7   89.71   17.42
   9   4   7    5.24   12.23
   8   4   7    3.19   11.42
   7   4   7   -2.75   10.17
   6   4   7  153.03   16.31
   6   4   7  154.27   14.87
   5   4   7   32.55    9.19
   5   4   7   36.00    9.96
   4  -4   7  300.66   17.40
   4   4   7  226.78   16.94
   4   4   7  267.52   18.67
   3   4   7    2.66    8.69
   3  -4   7   -8.84    7.12
   3   4   7   -0.46    8.19
   2  -4   7  130.93   12.88
   2   4   7  136.35   13.43
   1   4   7   16.72    8.36
   1  -4   7    7.86    7.55
   1  -4   7    9.69    6.75
   0  -4   7  230.93   15.70
   0  -4   7  228.11   16.92
   0  -4   7  182.35   12.73
  -1  -4   7  233.94   15.79
  -1  -4   7  243.68   17.95
  -1   4   7  239.57   17.97
  -2  -4   7   86.07   12.36
  -2   4   7   80.45   13.14
  -2  -4   7   81.37   11.20
   2  -4  -7   85.76   11.22
  -3  -4   7   83.58   13.23
  -3   4   7   58.71   10.89
   3  -4  -7   81.02   11.07
  -3  -4   7   84.69   12.69
  -4   4   7   74.56   12.53
   4  -4  -7   88.10   12.05
  -4  -4   7   41.35   10.68
  -5   4   7   -9.21   10.83
   5  -4  -7    7.10    8.10
  -5  -4   7   -6.20    8.51
   6  -4  -7  116.46   14.87
  -6   4   7  106.94   15.33
  -6  -4   7   86.44   14.91
   7  -4  -7   20.70   10.46
  -7   4   7   25.92    9.76
  -7  -4   7   21.55   10.37
   8  -4  -7   99.58   16.24
  -8   4   7   78.16   14.41
  -8  -4   7   82.97   13.06
   9  -4  -7   17.97   11.59
  -9   4   7   17.23   12.05
  -9  -4   7   21.27   12.69
  10  -4  -7   11.18   13.89
 -10   4   7    3.34   13.25
 -10  -4   7    2.51   13.80
  -9  -5  -7    7.42   14.30
   9   5   7    2.84   14.32
   8   5   7   29.87   12.07
   7   5   7   34.69   13.47
   6   5   7    4.98   10.17
   5  -5   7   -7.69    8.73
   5   5   7  -10.57    9.56
   4  -5   7    1.33    8.73
   4   5   7    4.32   10.11
   3  -5   7  174.05   16.16
   3   5   7  252.91   18.71
   2  -5   7  163.27   15.02
   2   5   7  182.63   15.79
   1  -5   7  168.79   16.03
   1   5   7  176.96   16.07
   0   5   7   32.49   10.44
   0  -5   7   16.64    9.00
  -1   5   7   13.17    8.25
  -1  -5   7    7.36    8.49
  -1  -5   7   13.38    7.88
  -2   5   7   11.27    9.63
  -2  -5   7    3.54    8.97
  -2  -5   7   -7.14    8.49
  -3  -5   7   41.94   12.29
  -3   5   7   72.94   12.88
   3  -5  -7   81.31   11.79
  -3  -5   7   58.73   11.75
  -4  -5   7   47.18   12.16
  -4   5   7   46.59   11.94
   4  -5  -7   50.02   11.31
  -4  -5   7   44.28   10.68
  -5   5   7    0.90   10.50
   5  -5  -7    4.67   10.15
  -5  -5   7   -0.55   10.04
   6  -5  -7  234.88   20.68
  -6  -5   7  206.43   19.30
  -6   5   7  188.70   19.30
   7  -5  -7  200.51   21.18
  -7  -5   7  142.31   17.05
  -7   5   7  165.28   19.56
   8  -5  -7    6.05   13.32
  -8   5   7    8.51   12.31
  -8  -5   7   16.81   12.75
   9  -5  -7  178.68   23.43
  -9  -5   7  124.62   19.26
   8   6   7   36.68   13.86
  -7  -6  -7   31.29   14.26
   7   6   7    9.39   14.17
   6   6   7   90.89   14.06
   5  -6   7  116.30   15.04
   5   6   7  101.81   15.33
   4  -6   7    6.75   10.85
   3  -6   7   14.34   10.89
   2  -6   7   15.70    9.76
   1   6   7    6.03   10.07
   1  -6   7    2.29   10.89
   0   6   7   37.84   11.94
   0  -6   7   34.98   10.15
  -1  -6   7  141.13   16.86
  -1   6   7  134.03   14.89
  -2   6   7   86.33   13.56
  -2  -6   7   60.59   12.55
  -3   6   7   10.59   10.74
  -3  -6   7    2.75   11.20
  -3  -6   7    7.75   11.07
  -4  -6   7   93.77   16.20
  -4   6   7  119.45   16.61
  -4  -6   7   78.14   13.75
   4  -6  -7  118.12   14.45
  -5  -6   7   12.36   12.53
   5  -6  -7   -0.92   11.83
  -5   6   7   13.82   12.03
  -5  -6   7   26.75   12.62
  -6   6   7   45.96   12.23
   6  -6  -7   56.77   13.49
  -6  -6   7   25.65   12.90
  -7   6   7   56.59   14.19
   7  -6  -7   65.22   13.45
  -7  -6   7   70.48   14.50
   6   7   7   10.46   14.21
  -5  -7  -7   14.93   14.06
   5  -7   7   13.78   12.82
   4  -7   7   28.69   13.75
   3  -7   7   17.14   13.75
   2  -7   7   97.92   15.15
   1  -7   7    7.38   11.66
   0  -7   7    1.90   13.97
  -1  -7   7   -2.31   11.90
  -2   7   7   45.70   12.36
  -2  -7   7   37.88   13.97
  -3   7   7   82.73   16.20
  -3  -7   7   51.29   13.93
  -4   7   7   62.18   14.06
   5  -7  -7   18.12   14.28
  -6  -7   7   -4.19   13.75
  11   0   8   18.34   14.58
  10   0   8  115.26   17.36
   9   0   8   16.86   11.90
   8   0   8   -3.38    7.97
   8   0   8   -3.93   10.83
   7   0   8    0.00    7.62
   7   0   8   -0.65    8.65
   6   0   8  125.34   14.76
   6   0   8  119.51   14.50
   5   0   8   -1.07    9.08
   5   0   8   -0.26    8.51
   4   0   8  133.12   12.79
   4   0   8  131.89   14.02
   3   0   8    0.72    8.01
   3   0   8    1.62    7.60
   2   0   8  686.15   23.69
   2   0   8  720.99   29.30
   1   0   8    0.94    9.43
   0   0   8 1542.59   42.75
  -1   0   8    1.18    8.67
  -2   0   8   69.47   10.72
  -2   0   8   58.16   11.05
  -3   0   8   -3.21    7.55
  -3   0   8   -6.72    8.25
  -4   0   8   20.48    9.37
  -4   0   8   16.77    8.43
  -5   0   8   -3.45    7.99
  -5   0   8    4.74    7.58
  -6   0   8   25.20   10.04
  -6   0   8   24.80    8.38
  -7   0   8   -3.06    8.84
  -7   0   8    3.67    7.93
  -8   0   8   68.47   11.09
  -8   0   8   55.46   11.83
  -9   0   8   -1.51    9.72
  -9   0   8    3.69    9.56
 -10   0   8  166.80   16.88
 -11   0   8   10.00   12.51
 -12   0   8    8.45   12.71
  11  -1   8   21.92   14.69
  11   1   8    7.82   13.01
  10  -1   8   15.15   11.94
  10   1   8   13.71   12.20
   9  -1   8  195.10   19.89
   9   1   8  185.89   19.48
   9   1   8  178.97   14.67
   8   1   8    5.02    7.95
   8  -1   8    3.97   10.04
   8   1   8    4.41   10.28
   7  -1   8   35.81    9.80
   7   1   8   48.10   11.22
   7  -1   8   50.72   12.88
   7   1   8   71.85   13.56
   6  -1   8   25.50    9.13
   6   1   8   25.89   10.26
   6  -1   8   25.20    9.76
   6   1   8   25.09    9.69
   5  -1   8   84.97   12.29
   5   1   8   92.42   13.38
   5  -1   8  111.15   12.64
   5   1   8  100.19   12.44
   4  -1   8   34.50    9.30
   4   1   8   54.26   11.88
   4  -1   8   44.98    9.32
   4   1   8   57.70   10.94
   3  -1   8  359.22   18.67
   3   1   8  349.11   17.58
   3  -1   8  366.34   21.33
   3   1   8  312.67   20.28
   2  -1   8   14.61    9.02
   2   1   8    9.72   10.39
   2  -1   8    2.84    6.33
   2   1   8   16.20    6.57
   1  -1   8   46.98   10.35
   1   1   8   58.36   12.29
   1  -1   8   44.98    7.55
   0  -1   8    5.48    9.50
   0   1   8    9.02    9.21
   0  -1   8   11.18    7.34
  -1  -1   8  487.77   23.65
  -1  -1   8  619.34   27.84
  -1   1   8  572.35   26.24
  -2  -1   8   -4.83    8.47
  -2   1   8   -2.18    8.43
  -2  -1   8   10.59    7.01
  -3  -1   8   73.14   13.06
  -3  -1   8   55.76    9.82
  -3   1   8   71.07   13.25
  -4  -1   8    0.94    8.21
  -4   1   8    3.47    7.77
  -4   1   8   -4.10    7.82
  -4  -1   8    2.58    8.03
  -5   1   8  332.63   20.89
  -5  -1   8  326.47   20.79
  -5  -1   8  303.41   19.13
  -5   1   8  285.95   19.78
  -6  -1   8    3.10    8.54
  -6   1   8    1.16    8.86
  -6   1   8   -9.89    8.41
  -6  -1   8    8.80    9.02
  -7  -1   8   69.93   11.88
  -7   1   8   56.83   12.36
  -7   1   8   62.46   11.20
  -7  -1   8   60.74   11.86
  -8   1   8   11.99   10.46
  -8   1   8    4.26    8.84
  -8  -1   8   10.89   10.26
  -9   1   8   75.78   14.10
  -9   1   8   98.55   13.12
  -9  -1   8   60.15   11.59
 -10   1   8    1.40   11.81
 -10   1   8  -13.08   10.59
 -10  -1   8   17.84   11.62
 -11   1   8   -3.80   13.10
 -11   1   8    3.27   12.01
 -11  -1   8    8.65   12.44
 -12  -2  -8  219.47   21.09
  11  -2   8   -0.57   15.13
  11   2   8  -25.85   16.42
  10  -2   8    5.63   13.23
  10   2   8    1.14   13.30
   9   2   8    9.04    8.76
   9  -2   8   10.31   10.98
   9   2   8   28.91   12.75
   8   2   8   37.95    9.37
   8  -2   8   50.76   10.22
   8   2   8   32.01   11.00
   7   2   8   23.41    8.62
   7  -2   8   10.44    9.37
   7   2   8   26.29   10.76
   6  -2   8  205.34   18.19
   6   2   8  188.16   17.84
   6  -2   8  170.08   15.85
   6   2   8  174.77   15.94
   5  -2   8   -6.38    7.40
   5   2   8    3.34    9.69
   5  -2   8   -2.71    8.80
   5   2   8    7.82    8.41
   4  -2   8  337.45   20.17
   4   2   8  287.28   18.86
   4  -2   8  292.78   19.04
   4   2   8  293.94   20.46
   3  -2   8   19.80    7.66
   3   2   8   29.43   11.00
   3   2   8   33.82    8.58
   2  -2   8   -3.38    7.64
   2   2   8    1.48    9.45
   1  -2   8   26.59    9.19
   1   2   8   52.29   11.40
   1  -2   8   23.86    7.40
   0  -2   8  260.88   17.90
   0  -2   8  286.45   19.45
   0   2   8  256.87   18.21
  -1  -2   8   31.77   10.00
  -1   2   8   24.74    8.36
  -1  -2   8   28.36    8.01
  -2  -2   8   56.39   10.92
  -2   2   8   64.93   12.10
  -2  -2   8   49.95    9.91
  -3  -2   8   25.13    9.04
  -3   2   8   29.74    7.99
  -3  -2   8   16.57    7.60
  -4  -2   8  187.37   16.31
  -4  -2   8  211.50   16.90
  -4   2   8  200.97   17.27
  -5  -2   8   10.11    8.60
  -5   2   8    1.24    9.08
  -5  -2   8   -4.74    8.08
  -6   2   8  150.30   15.00
  -6  -2   8  124.58   15.72
  -6   2   8  109.95   14.96
  -7   2   8    1.31   10.94
  -7   2   8    8.38    8.34
  -7  -2   8  -15.57    9.32
  -8   2   8   35.06    9.98
  -8   2   8   20.96    9.30
  -8  -2   8   18.38   10.09
  -9   2   8   -2.01   11.51
  -9   2   8   10.94   10.61
  -9  -2   8    2.36   11.42
 -10   2   8   58.49   13.06
 -10  -2   8   94.91   15.28
 -11   2   8    8.41   14.19
 -11  -2   8   14.52   14.82
  10  -3   8   12.01   13.69
  10   3   8   19.21   15.06
   9  -3   8  158.03   19.17
   9   3   8  184.97   23.43
   8   3   8    9.56    9.74
   8  -3   8   11.42   11.46
   8   3   8  -12.12   12.47
   7   3   8   16.42    9.87
   7  -3   8   16.46   10.83
   7   3   8   17.05   11.81
   6   3   8    3.69    9.19
   6   3   8    7.82   10.87
   5   3   8    3.58    8.76
   5   3   8   20.79    9.61
   4   3   8   62.31   12.25
   4   3   8   55.54   11.33
   4  -3   8   32.20    9.32
   3  -3   8  158.22   14.19
   3   3   8  121.63   15.83
   2  -3   8   10.02    7.10
   2   3   8   12.49    9.74
   2  -3   8   10.79    7.47
   1  -3   8  242.76   16.29
   1  -3   8  265.51   18.06
   1  -3   8  203.90   16.77
   1   3   8  235.69   19.65
   0  -3   8    6.29    7.14
   0  -3   8   22.14    7.49
   0   3   8   19.26    9.91
   0  -3   8    8.17    7.20
  -1  -3   8   67.36   11.09
  -1   3   8   98.79   13.86
  -1  -3   8   67.49   11.31
  -2  -3   8   44.58    8.95
  -2   3   8   46.20   11.53
  -2  -3   8   42.53   10.33
   3  -3  -8   12.34    7.20
  -3   3   8   13.99    8.82
  -3  -3   8   -2.21    7.40
  -4   3   8   -0.85    9.04
  -4  -3   8    9.76    8.58
  -5   3   8   58.01   12.23
  -5  -3   8   74.56   11.99
  -6   3   8   13.54   11.18
  -6  -3   8    5.26    9.48
  -7  -3   8  186.74   18.08
  -7   3   8  164.88   18.06
  -8   3   8   22.92   11.33
  -8  -3   8   20.83   11.35
  -9   3   8  132.72   18.41
  -9  -3   8  145.52   18.97
 -10   3   8   -6.96   13.84
 -10  -3   8  -17.84   14.72
  10   4   8   31.90   16.72
   9   4   8    1.55   15.50
   8   4   8  -25.94   13.30
   7   4   8   69.45   15.39
   6   4   8  132.61   16.64
   6   4   8  141.72   16.59
   5   4   8  -15.81    9.61
   5   4   8    7.25   10.81
   4   4   8   52.68   12.47
   3   4   8    7.73    9.39
   2   4   8   20.48    8.86
   2  -4   8   10.72    8.06
   1   4   8   18.86    8.71
   1  -4   8   19.78    9.67
   1  -4   8   27.60    8.51
   1  -4   8   18.60    7.36
   0  -4   8  168.73   15.17
   0  -4   8  173.64   15.85
   0  -4   8  154.53   12.88
   0   4   8  188.51   18.34
  -1   4   8   11.40    9.50
  -1  -4   8    3.93    9.24
  -1  -4   8    3.93    7.90
  -2  -4   8   20.28   10.20
  -2  -4   8   19.50    7.97
  -3   4   8    0.48    9.34
  -3  -4   8   -4.63    8.47
  -4   4   8   34.87   12.27
   4  -4  -8   45.15   10.48
  -4  -4   8   22.42    9.85
   5  -4  -8  124.36   15.52
  -5   4   8  103.45   15.72
  -5  -4   8   98.93   14.04
   6  -4  -8   68.21   11.70
  -6   4   8   82.29   13.71
  -6  -4   8   57.12   12.53
  -7   4   8    8.54   11.48
   7  -4  -8    2.75   10.44
  -7  -4   8  -12.36   11.83
  -8   4   8    8.25   12.40
   8  -4  -8   10.81   11.72
  -8  -4   8   -3.01   13.67
  -9   4   8  -13.08   14.69
   9  -4  -8   18.14   12.34
  -9  -4   8   23.91   15.06
   8   5   8   -1.05   14.89
   7   5   8   -4.17   13.84
   6   5   8    0.00   12.23
   3  -5   8  169.45   15.22
   3   5   8  166.89   17.14
   2   5   8    7.10    9.96
   2  -5   8   -5.11   10.11
   1   5   8   17.51    9.89
   1  -5   8   27.68    9.48
   0   5   8    5.28   10.22
   0  -5   8    1.24   10.41
  -1  -5   8   73.36   11.99
  -1  -5   8   89.97   10.57
  -2  -5   8   65.80   12.58
  -2   5   8   60.43   12.25
  -2  -5   8   41.07    8.69
  -3  -5   8   32.99   12.66
  -3   5   8   65.85   14.19
  -3  -5   8   43.45   11.83
  -4   5   8    7.84   12.03
  -4  -5   8    8.89   11.72
   5  -5  -8  193.09   19.10
  -5  -5   8  109.78   15.76
  -5   5   8  161.19   18.84
  -6   5   8    0.11   12.16
  -6  -5   8    8.56   13.69
   6  -5  -8   10.39   11.86
   7  -5  -8   28.62   13.19
  -7   5   8   16.24   15.65
  -7  -5   8   11.29   14.72
   8  -5  -8   68.91   15.02
   7   6   8   85.65   15.46
   3  -6   8   10.48   11.57
   2  -6   8   12.71   11.42
   1   6   8   41.46   12.93
   1  -6   8   25.61   12.03
   0  -6   8  130.98   16.51
   0   6   8  156.81   17.49
  -1   6   8    7.95   11.70
  -1  -6   8   16.18   12.20
  -2   6   8    8.10   12.07
  -2  -6   8    1.79   12.07
  -3  -6   8    7.95   13.38
  -3   6   8   10.74   11.96
  -4  -6   8   15.09   13.84
  -4   6   8   10.85   12.58
  -4  -6   8   24.91   13.19
  -5   6   8   43.84   13.23
  -5  -6   8   41.18   13.65
   6  -6  -8  113.71   16.57
  -6  -6   8   86.96   15.41
  -2   7   8   24.89   14.21
  10   0   9   78.86   15.28
   9   0   9    2.58   12.12
   8   0   9   70.83   11.83
   8   0   9   89.56   13.78
   7   0   9   -2.77    9.28
   7   0   9   -1.22   10.24
   6   0   9   65.11   12.07
   6   0   9   78.97   12.49
   5   0   9   -3.52    8.84
   5   0   9   -7.16    8.91
   4   0   9   -1.07   10.89
   4   0   9   -7.69    8.76
   3   0   9    6.03    9.28
   3   0   9   -7.93    7.60
   2   0   9  141.30   15.81
   1   0   9  -10.72    9.69
   0   0   9   60.74   12.34
  -1   0   9   -4.93   11.68
  -2   0   9   53.56   12.82
  -3   0   9   -2.79   10.24
  -3   0   9    8.06    7.69
  -4   0   9  146.57   16.35
  -4   0   9  167.18   16.18
  -5   0   9    5.59    9.61
  -5   0   9  -12.03    9.87
  -6   0   9    9.17   10.11
  -6   0   9    1.29    9.52
  -7   0   9    2.23   10.76
  -7   0   9  -17.55    9.56
  -8   0   9    6.40   11.92
  -8   0   9   -4.98    9.76
  -9   0   9    8.58   11.44
 -10   0   9  -12.49   12.07
  10  -1   9    4.34   14.96
  10   1   9    3.69   15.20
   9   1   9   13.62   10.17
   9  -1   9    4.98   12.60
   9   1   9    6.00   13.47
   8   1   9   -0.15    9.50
   8  -1   9   -3.89   11.75
   8   1   9   -0.90   11.44
   7  -1   9   13.62    9.76
   7   1   9    4.21    9.82
   7  -1   9   19.37   10.09
   7   1   9    9.91   11.09
   6  -1   9   -6.92    8.69
   6   1   9   -2.84    9.54
   6  -1   9   -8.71    9.91
   6   1   9    6.44   10.22
   5  -1   9  193.03   16.42
   5   1   9  151.17   16.27
   5  -1   9  149.62   15.28
   5   1   9  151.04   16.96
   4  -1   9    2.86   10.17
   4   1   9   -7.45    9.87
   4  -1   9    1.07    8.73
   4   1   9    4.91    8.12
   3  -1   9   26.59   11.11
   3   1   9   23.82   11.68
   3  -1   9   37.05    8.19
   2  -1   9    7.93    9.87
   2   1   9   22.60   10.59
   1  -1   9    8.93   10.02
   1   1   9   34.37   11.31
   0  -1   9   34.37   11.59
   0   1   9   23.71   10.50
  -1  -1   9  103.64   14.98
  -1   1   9   90.06   14.82
  -1  -1   9   71.39   12.03
  -2  -1   9    5.94   10.46
  -2   1   9    4.83    8.67
  -2  -1   9    9.50    8.71
  -3  -1   9   32.40   11.31
  -3   1   9   19.69   10.94
  -3  -1   9   15.94    8.67
  -4  -1   9   -1.44   10.04
  -4   1   9    7.79    9.15
  -4  -1   9   10.41    8.73
  -5  -1   9   21.81    9.78
  -5   1   9   15.92   10.98
  -5   1   9   27.62   11.03
  -5  -1   9   29.67   11.00
  -6  -1   9  -13.08   10.35
  -6   1   9   -7.38   10.17
  -6   1   9    1.86    8.76
  -6  -1   9   -6.44    9.15
  -7   1   9  289.20   21.79
  -7  -1   9  257.91   21.35
  -7   1   9  244.71   21.00
  -8   1   9   12.20   10.87
  -8   1   9    7.45   11.27
  -8  -1   9   26.83   11.40
  -9   1   9    5.61   12.07
  -9   1   9    5.20   12.20
  -9  -1   9    8.49   11.68
 -10   1   9   15.24   13.30
 -10   1   9    4.72   13.47
 -10  -1   9    3.78   12.93
  10  -2   9    1.35   15.65
  10   2   9   13.58   14.45
  10   2   9  -11.16   11.27
   9   2   9    5.20   10.55
   9  -2   9   11.62   13.21
   9   2   9   18.56   14.28
   8  -2   9  219.20   20.54
   8   2   9  240.93   23.27
   8   2   9  196.89   16.86
   7   2   9    7.05   10.24
   7  -2   9   17.01   10.68
   7   2   9   26.22   11.99
   6   2   9   43.43    9.65
   6  -2   9   36.83   10.65
   6   2   9   21.42   12.27
   6  -2   9   23.86    8.73
   5  -2   9    3.30    9.41
   5   2   9    5.94   10.59
   5  -2   9    7.05    9.74
   5   2   9    8.60   10.24
   4  -2   9   10.26    8.38
   4   2   9    2.23    9.61
   4  -2   9   -3.12    9.04
   3  -2   9   10.22    8.41
   3   2   9   25.83   12.29
   2  -2   9  228.59   18.49
   2   2   9  201.02   19.72
   1  -2   9   -0.55    8.54
   1   2   9   -1.00   11.83
   0  -2   9   15.37    9.82
   0   2   9   18.89   10.65
   0  -2   9   10.52    7.93
  -1  -2   9   -4.30    9.69
  -1   2   9   -3.21   11.18
  -1  -2   9    0.15    9.65
  -2  -2   9   17.90    9.61
  -2   2   9    5.48    9.13
  -2  -2   9   14.45    8.27
  -3  -2   9   -1.59    9.80
  -3   2   9    6.09    9.58
  -3  -2   9    3.71    8.14
  -4   2   9  112.53   15.57
  -4  -2   9  125.98   15.46
  -4  -2   9  143.22   15.09
  -5   2   9   13.78   10.35
  -5  -2   9   -6.51    9.26
  -6   2   9   14.19   10.63
  -6  -2   9   11.24    9.39
  -7   2   9   17.66   10.63
  -7  -2   9    9.19   11.33
  -8   2   9   69.01   14.89
  -8   2   9   67.07   12.88
  -8  -2   9   83.07   14.76
  -9   2   9  -13.84   12.66
  -9   2   9   -4.89   12.07
  -9  -2   9    8.01   13.95
 -10   2   9   25.33   14.85
   9  -3   9   28.23   15.33
   9   3   9   28.78   15.30
   8   3   9   -8.14   11.79
   8  -3   9    9.06   13.34
   8   3   9    4.21   13.36
   7   3   9   49.54   10.68
   7   3   9   62.20   13.78
   6   3   9   17.97   10.76
   6   3   9   -9.37   12.03
   5   3   9  219.27   19.58
   4  -3   9    1.00    8.23
   4   3   9    5.52   10.26
   3  -3   9   -1.31    7.84
   3   3   9   18.47   11.62
   2  -3   9    0.50    8.38
   2   3   9    4.87   12.77
   1  -3   9   -1.07    8.51
   1   3   9    7.99   10.72
   1  -3   9    2.16    7.36
   0  -3   9    2.47    8.80
   0   3   9    2.05    9.10
   0  -3   9    2.14    8.62
  -1  -3   9  100.34   13.78
  -1  -3   9  116.00   14.17
  -1   3   9  150.19   16.81
  -2  -3   9    9.13    9.78
  -2   3   9    1.59   11.16
  -2  -3   9   -5.50    8.38
  -3   3   9   92.42   13.84
  -3  -3   9   55.39   12.36
  -4   3   9   12.77    9.72
  -4  -3   9    2.73    9.65
  -5   3   9   45.83   13.14
  -5  -3   9   38.99   11.35
  -6   3   9    9.00   11.33
  -6  -3   9    7.40   10.44
  -7  -3   9  171.56   18.27
  -7   3   9  173.38   19.13
  -8   3   9   12.07   13.06
  -8  -3   9    0.55   12.20
  -9   3   9    4.04   13.21
   9   4   9   25.30   16.96
   8   4   9   57.36   18.95
   7   4   9    7.55   15.06
   6   4   9  -12.66   12.20
   5   4   9   11.77   11.38
   4   4   9    2.40   11.68
   3   4   9   13.10   11.51
   2   4   9  280.05   24.61
   1  -4   9   38.30    9.00
   1   4   9   42.49   12.16
   1  -4   9   48.12   11.57
   1  -4   9   39.82    9.04
   0  -4   9   19.67   10.11
   0   4   9   38.23   12.12
   0  -4   9   36.64   10.61
  -1   4   9   -3.76   10.37
  -1  -4   9   -2.29    9.56
  -2   4   9   49.60   13.78
  -2  -4   9   21.33    9.52
  -3   4   9   25.35   11.51
  -3  -4   9    6.27    9.67
  -4   4   9   85.93   16.13
  -4  -4   9   58.64   12.49
  -5   4   9    9.65   11.24
  -5  -4   9   -5.37   11.79
  -6   4   9   12.77   12.12
  -6  -4   9    9.82   12.14
   6  -4  -9   16.20   11.46
   7  -4  -9   24.43   12.79
  -7   4   9    1.88   13.03
  -7  -4   9   15.79   12.42
   8  -4  -9   -0.52   12.99
   4   5   9    9.69   13.56
   3   5   9   13.73   13.47
   2   5   9    4.48   13.21
   1   5   9   55.26   13.78
   1  -5   9   30.09   12.73
   0   5   9   55.00   13.97
   0  -5   9   49.04   13.03
  -1  -5   9  154.08   18.71
  -1   5   9  181.19   20.28
  -2   5   9   20.15   12.42
  -2  -5   9   17.92   11.33
  -2  -5   9   28.64   11.09
  -3   5   9   15.65   12.88
  -3  -5   9   -1.35   11.40
  -4   5   9   27.71   12.58
  -4  -5   9   36.02   12.55
  -5   5   9   19.19   12.69
  -5  -5   9    2.49   13.71
  -6  -5   9   12.99   15.15
   7  -5  -9  -17.25   15.44
   2  -6   9   34.63   15.28
   1   6   9   34.47   13.82
   1  -6   9    9.39   14.04
   0   6   9   12.71   13.54
   0  -6   9   16.11   14.45
  -1   6   9    7.49   14.93
  -1  -6   9   28.80   15.68
  -2  -6   9    7.95   14.72
  -2   6   9    6.72   14.21
   9   0  10  -14.02   16.22
   8   0  10   13.01   11.09
   8   0  10    2.90   13.47
   7   0  10   -3.12   11.31
   7   0  10   -5.39   12.64
   6   0  10   77.97   14.41
   6   0  10   87.53   12.64
   5   0  10   -0.94   10.74
   4   0  10   58.97   12.31
   3   0  10   -7.29   10.50
   2   0  10  107.94   15.79
   1   0  10    3.38   11.62
   0   0  10  143.97   17.82
  -1   0  10    8.67   10.81
  -2   0  10  234.09   21.31
  -3   0  10    1.20   12.20
  -4   0  10   18.32   11.66
  -4   0  10   16.68    9.00
  -5   0  10    0.00   11.38
  -5   0  10    6.09    9.91
  -6   0  10   20.35   12.40
  -6   0  10   22.20   12.25
  -7   0  10   -5.85   12.82
  -7   0  10   12.49   12.38
  -8   0  10   67.14   14.24
  -8   0  10   73.73   14.72
   9   1  10   -2.64   11.81
   9  -1  10  -10.50   14.69
   9   1  10    9.06   15.96
   8   1  10    4.93   10.76
   8  -1  10    6.62   12.31
   8   1  10   16.99   14.32
   7  -1  10   12.29   10.04
   7   1  10   35.57   11.38
   7  -1  10   47.60   13.97
   7   1  10   32.95   12.90
   6  -1  10   -6.33   10.41
   6   1  10   -2.55   11.57
   6  -1  10    9.04   10.85
   6   1  10   13.36   12.20
   5  -1  10   15.11    9.72
   5   1  10   17.38   10.85
   5  -1  10    9.06   10.83
   4  -1  10   -3.69   10.24
   4   1  10   11.35   10.63
   3  -1  10   -0.28   10.22
   3   1  10   14.02   11.48
   2  -1  10  -12.82    9.89
   2   1  10    4.58   11.27
   1  -1  10  281.01   22.95
   1   1  10  279.24   22.99
   0  -1  10    5.13    9.78
   0   1  10    6.11   12.14
  -1  -1  10   66.31   14.21
  -1   1  10   72.73   12.88
  -2  -1  10    6.05   11.20
  -2   1  10    5.50   11.11
  -2  -1  10  -13.97    8.84
  -3  -1  10   -1.24   11.62
  -3   1  10   -6.14   10.17
  -3  -1  10   -3.54    9.43
  -4  -1  10   14.15   11.66
  -4   1  10    9.00   12.51
  -4  -1  10    2.62   10.00
  -5  -1  10  172.07   17.95
  -5  -1  10  172.63   18.62
  -5   1  10  161.13   18.60
  -6  -1  10   -1.05   13.47
  -6   1  10  -12.99   13.19
  -6   1  10   11.62   11.07
  -6  -1  10  -11.42   14.08
  -7   1  10   25.89   13.36
  -7   1  10   -3.01   11.18
  -7  -1  10   -0.11   13.03
  -8   1  10    6.79   14.74
  -8   1  10    4.34   13.08
  -8  -1  10    2.03   13.65
  -9   1  10   -1.09   14.72
  -9   1  10   12.10   14.45
   9   2  10  -15.46   15.70
   8   2  10   24.76   12.90
   8  -2  10   44.19   13.95
   8   2  10   23.95   15.76
   7   2  10   -0.48   12.16
   7  -2  10  -11.40   13.65
   7   2  10   -7.88   14.72
   6  -2  10   -7.07    9.91
   6   2  10    6.09   12.62
   6  -2  10    1.22   13.14
   5  -2  10   -1.68   10.09
   5   2  10   -3.38   11.18
   5  -2  10  -10.33   11.20
   4   2  10  112.40   17.20
   4  -2  10  143.88   16.57
   3  -2  10   24.26   11.79
   3   2  10   27.73   11.68
   2  -2  10   93.53   13.93
   2   2  10   90.48   15.11
   1  -2  10  -14.04   10.11
   1   2  10    4.85   11.33
   0  -2  10   12.29   11.77
   0   2  10   16.94   12.99
  -1  -2  10    1.59   10.28
  -1   2  10    9.98   10.57
  -1  -2  10    3.10    8.27
  -2  -2  10   26.46   10.72
  -2   2  10   31.00   10.85
  -2  -2  10   22.86   10.70
  -3  -2  10    3.30   11.96
  -3   2  10    2.88   10.65
  -3  -2  10    5.63   10.39
  -4   2  10   34.87   13.89
  -4  -2  10   39.69   11.90
  -5   2  10    2.47   13.45
  -5  -2  10    0.00   11.66
  -6   2  10    8.34   12.62
  -6  -2  10    5.89   11.18
  -7   2  10    0.33   14.10
  -7  -2  10    4.98   12.10
  -8   2  10   67.40   15.68
   8   3  10   13.36   12.95
   8   3  10   -7.29   16.77
   7   3  10   75.15   13.84
   6   3  10   16.03   12.73
   5   3  10   17.88   12.97
   4  -3  10   12.16   10.24
   4   3  10   11.53   12.25
   3  -3  10   16.68   10.00
   3   3  10   22.88   12.29
   2  -3  10   -0.63    9.78
   2   3  10   10.22   12.95
   1  -3  10  111.04   14.56
   1   3  10  160.49   20.06
   0  -3  10    0.65   11.22
   0   3  10    0.11   11.55
   0  -3  10    5.17    9.08
  -1  -3  10   15.74   10.70
  -1   3  10    8.71   12.42
  -1  -3  10   25.24   10.85
  -2   3  10   -2.77   11.72
  -2  -3  10  -11.94   10.61
  -3   3  10   45.04   14.19
  -3  -3  10   57.14   13.10
  -4   3  10  -14.67   12.40
  -4  -3  10    0.96   11.96
  -5   3  10  121.11   19.30
  -5  -3  10   85.19   13.71
  -6   3  10   24.98   14.78
  -6  -3  10   11.13   13.19
   6   4  10    1.99   14.17
   5   4  10   12.64   14.37
   4   4  10   45.46   13.99
   3   4  10    8.89   13.23
   2   4  10   47.60   13.19
   2  -4  10   24.37   10.81
   1   4  10   18.01   13.30
   0   4  10   12.51   13.10
   0  -4  10   11.55   10.79
  -1   4  10    1.94   12.07
  -1  -4  10    4.69   12.12
  -2   4  10   61.57   14.43
  -2  -4  10   52.66   11.64
  -3   4  10   20.39   14.21
  -3  -4  10    8.27   11.77
  -4   4  10   14.13   13.51
  -4  -4  10   21.22   11.81
  -5  -4  10   11.05   12.66
   4   5  10   10.11   16.20
   3   5  10   31.99   15.39
   2   5  10   22.86   16.35
   1   5  10   92.31   15.61
   0   5  10   13.58   14.28
  -1   5  10    5.09   13.73
  -2  -5  10   11.20   13.75
  -3  -5  10   -3.67   14.41
   8   0  11    3.56   15.39
   6   0  11   18.30   13.62
   5   0  11    1.14   12.84
   4   0  11   11.48   12.18
   3   0  11   -2.71   13.01
   2   0  11   97.68   17.01
   1   0  11    6.20   12.51
   0   0  11    5.63   12.75
  -1   0  11   12.05   13.03
  -2   0  11    6.92   13.19
  -3   0  11   -8.58   13.86
  -4   0  11   -7.38   15.48
  -5   0  11   -5.98   15.20
  -5   0  11   18.43   11.62
  -6   0  11  208.51   22.07
  -7   0  11   -3.21   15.76
   7  -1  11   14.76   14.52
   6  -1  11   -2.79   11.99
   6   1  11    6.11   13.21
   5  -1  11   27.01   14.78
   5   1  11   24.96   13.56
   4  -1  11   -8.41   12.47
   4   1  11   13.69   12.93
   3  -1  11   38.06   13.30
   3   1  11   48.82   15.48
   2  -1  11   12.01   12.14
   2   1  11   15.92   12.75
   1  -1  11   37.88   12.73
   1   1  11   18.36   13.69
   0  -1  11    2.47   12.34
   0   1  11   28.03   13.58
  -1  -1  11   49.54   14.30
  -1   1  11   59.43   14.19
  -2  -1  11  -17.01   13.84
  -2   1  11    5.81   14.72
  -3  -1  11   97.29   17.77
  -3   1  11   92.92   17.14
  -3  -1  11   75.48   13.23
  -4  -1  11   20.59   15.30
  -4   1  11   -5.00   14.04
  -4  -1  11    6.62   12.53
  -5  -1  11  140.60   15.68
  -5   1  11   89.04   18.25
  -5  -1  11   91.57   16.57
  -6   1  11    5.92   14.98
   7  -2  11  -16.40   16.22
   5  -2  11   -2.77   10.98
   5   2  11    3.36   13.34
   4   2  11  129.06   18.19
   4  -2  11  163.73   17.90
   3  -2  11    7.53   12.07
   3   2  11    3.52   12.95
   2  -2  11    0.39   12.44
   2   2  11    7.05   15.11
   1  -2  11   -5.35   12.51
   1   2  11   -0.46   13.54
   0  -2  11   58.60   14.32
   0   2  11   63.01   16.96
  -1  -2  11    4.43   13.41
  -1   2  11   -8.95   14.28
  -2  -2  11   -4.41   13.80
  -2   2  11  -11.35   13.89
  -2  -2  11    2.01   10.74
  -3  -2  11   -0.59   13.32
  -3   2  11   -5.92   14.58
  -3  -2  11    5.52   11.55
  -4   2  11   38.27   14.04
  -4  -2  11   39.67   12.27
  -5   2  11    6.46   15.55
   4  -3  11    0.00   13.34
   4   3  11  -13.51   14.26
   3  -3  11  119.34   16.33
   3   3  11  114.67   18.08
   2  -3  11   41.92   12.58
   2   3  11   21.59   14.93
   1  -3  11  121.15   17.53
   1   3  11  136.74   22.10
   0  -3  11   -9.10   13.47
   0   3  11    2.82   16.13
  -1   3  11    5.72   14.72
  -1  -3  11   13.30   11.81
  -2   3  11   -6.88   15.20
  -2  -3  11   15.41   12.77
  -3  -3  11   91.26   16.48
   2  -4  11  -15.94   12.95
  -1  -4  11   11.46   12.44
  -2  -4  11    8.45   13.97
   1   0  12    3.54   14.52
   0   0  12   36.81   15.83
  -1   0  12    1.22   15.68
  -2   0  12    3.38   17.23
   1  -1  12    0.57   15.15
   0  -1  12   -1.53   16.07
  -1  -1  12   23.14   15.17
  -2  -1  12    1.72   15.26
  -3  -1  12   61.46   16.40
  -4  -1  12    4.78   16.86
   1  -2  12   29.74   15.83
   0  -2  12   80.35   16.27
  -1  -2  12  -23.03   15.24
  -2  -2  12   30.70   16.46

_computing_structure_solution     'SHELXT 2014/4 (Sheldrick, 2014)'
;
_shelx_hkl_checksum              92032
loop_
_space_group_symop_operation_xyz
'x, y, z'
'-x+1/2, y, -z'
'-x, -y, -z'
'x-1/2, -y, z'
loop_
_atom_site_label
_atom_site_type_symbol
_atom_site_fract_x
_atom_site_fract_y
_atom_site_fract_z
_atom_site_U_iso_or_equiv
_atom_site_adp_type
_atom_site_occupancy
_atom_site_site_symmetry_order
_atom_site_calc_flag
_atom_site_refinement_flags_posn
_atom_site_refinement_flags_adp
_atom_site_refinement_flags_occupancy
_atom_site_disorder_assembly
_atom_site_disorder_group
Al1 Al 0.2500 0.26554(15) 0.0000 0.0198(3) Uani 1 2 d S T P . .
O1 O 0.31352(19) 0.4649(3) 0.1142(2) 0.0280(5) Uani 1 1 d . . . . .
H1A H 0.275(3) 0.568(6) 0.155(4) 0.050(11) Uiso 1 1 d . . . . .
H1B H 0.365(3) 0.460(6) 0.145(4) 0.049(13) Uiso 1 1 d . . . . .
O1A O 0.1197(2) 0.2657(3) 0.1153(3) 0.0289(6) Uani 1 1 d . . . . .
H1AA H 0.093(3) 0.348(5) 0.147(4) 0.032(11) Uiso 1 1 d . . . . .
H1AB H 0.091(3) 0.169(5) 0.139(4) 0.034(10) Uiso 1 1 d . . . . .
O1B O 0.18848(19) 0.0682(3) -0.1164(2) 0.0289(5) Uani 1 1 d . . . . .
H1BA H 0.130(3) 0.061(5) -0.139(4) 0.040(11) Uiso 1 1 d . . . . .
H1BB H 0.228(3) -0.044(6) -0.153(4) 0.053(11) Uiso 1 1 d . . . . .
S1 S 0.57521(6) 0.23069(9) 0.26261(8) 0.0227(3) Uani 1 1 d . . . . .
O2 O 0.52020(15) 0.4138(3) 0.2171(2) 0.0304(5) Uani 1 1 d . . . . .
O2A O 0.52129(16) 0.0634(3) 0.1882(2) 0.0365(6) Uani 1 1 d . . . . .
O2B O 0.69411(17) 0.2363(2) 0.2168(3) 0.0297(5) Uani 1 1 d . . . . .
O3 O 0.56481(19) 0.2052(3) 0.4211(3) 0.0390(6) Uani 1 1 d . . . . .
N1 N 0.6636(2) 0.7997(5) 0.5045(3) 0.0448(8) Uani 1 1 d . . . . .
H1 H 0.5957 0.8402 0.5078 0.054 Uiso 1 1 calc R U . . .
C2 C 0.7500 0.9107(7) 0.5000 0.0416(12) Uani 1 2 d S T P . .
H2 H 0.7500 1.0478 0.5000 0.050 Uiso 1 2 calc R U P . .
C2A C 0.6956(3) 0.6120(6) 0.5030(4) 0.0533(10) Uani 1 1 d . . . . .
H2A H 0.6494 0.5019 0.5058 0.064 Uiso 1 1 calc R U . . .
loop_
_atom_site_aniso_label
_atom_site_aniso_U_11
_atom_site_aniso_U_22
_atom_site_aniso_U_33
_atom_site_aniso_U_23
_atom_site_aniso_U_13
_atom_site_aniso_U_12
Al1 0.0158(6) 0.0190(6) 0.0246(6) 0.000 0.0012(5) 0.000
O1 0.0205(13) 0.0278(12) 0.0359(13) -0.0080(9) -0.0044(10) 0.0031(9)
O1A 0.0240(12) 0.0197(11) 0.0423(14) -0.0006(10) 0.0150(10) -0.0003(9)
O1B 0.0192(12) 0.0276(12) 0.0401(13) -0.0087(9) -0.0042(10) 0.0007(9)
S1 0.0153(4) 0.0198(4) 0.0330(4) 0.0003(3) 0.0009(3) 0.0010(3)
O2 0.0218(10) 0.0204(10) 0.0489(13) 0.0038(9) -0.0008(9) 0.0017(9)
O2A 0.0205(11) 0.0233(11) 0.0658(16) -0.0085(10) -0.0057(10) 0.0011(9)
O2B 0.0170(11) 0.0262(11) 0.0456(13) -0.0006(8) 0.0051(9) -0.0003(8)
O3 0.0320(13) 0.0514(14) 0.0335(13) 0.0070(10) 0.0022(10) 0.0023(11)
N1 0.0236(14) 0.074(2) 0.0366(16) -0.0106(16) 0.0009(12) 0.0073(15)
C2 0.049(3) 0.038(3) 0.038(3) 0.000 -0.006(2) 0.000
C2A 0.078(3) 0.049(2) 0.0320(18) -0.0028(18) 0.005(2) -0.032(2)
loop_
_atom_type_symbol
_atom_type_description
_atom_type_scat_dispersion_real
_atom_type_scat_dispersion_imag
_atom_type_scat_source
C C 0.0033 0.0016 'International Tables Vol C Tables 4.2.6.8 and 6.1.1.4'
H H 0.0000 0.0000 'International Tables Vol C Tables 4.2.6.8 and 6.1.1.4'
N N 0.0061 0.0033 'International Tables Vol C Tables 4.2.6.8 and 6.1.1.4'
O O 0.0106 0.0060 'International Tables Vol C Tables 4.2.6.8 and 6.1.1.4'
Al Al 0.0645 0.0514 'International Tables Vol C Tables 4.2.6.8 and 6.1.1.4'
S S 0.1246 0.1234 'International Tables Vol C Tables 4.2.6.8 and 6.1.1.4'
loop_
_geom_angle_atom_site_label_1
_geom_angle_atom_site_label_2
_geom_angle_atom_site_label_3
_geom_angle
_geom_angle_site_symmetry_1
_geom_angle_site_symmetry_3
_geom_angle_publ_flag
O1A Al1 O1A 179.92(14) 2 . ?
O1A Al1 O1B 91.03(10) 2 . ?
O1A Al1 O1B 89.03(10) . . ?
O1A Al1 O1B 89.03(10) 2 2 ?
O1A Al1 O1B 91.03(10) . 2 ?
O1B Al1 O1B 88.46(14) . 2 ?
O1A Al1 O1 88.03(10) 2 . ?
O1A Al1 O1 91.91(11) . . ?
O1B Al1 O1 178.99(9) . . ?
O1B Al1 O1 91.90(11) 2 . ?
O1A Al1 O1 91.91(11) 2 2 ?
O1A Al1 O1 88.02(10) . 2 ?
O1B Al1 O1 91.90(11) . 2 ?
O1B Al1 O1 178.99(9) 2 2 ?
O1 Al1 O1 87.77(15) . 2 ?
Al1 O1 H1A 125(2) . . ?
Al1 O1 H1B 125(3) . . ?
H1A O1 H1B 109(4) . . ?
Al1 O1A H1AA 127(3) . . ?
Al1 O1A H1AB 121(2) . . ?
H1AA O1A H1AB 111(4) . . ?
Al1 O1B H1BA 126(3) . . ?
Al1 O1B H1BB 125(2) . . ?
H1BA O1B H1BB 109(4) . . ?
O3 S1 O2 110.46(12) . . ?
O3 S1 O2A 109.45(13) . . ?
O2 S1 O2A 108.48(13) . . ?
O3 S1 O2B 110.19(14) . . ?
O2 S1 O2B 109.58(11) . . ?
O2A S1 O2B 108.64(12) . . ?
C2 N1 C2A 109.2(3) . . ?
C2 N1 H1 125.4 . . ?
C2A N1 H1 125.4 . . ?
N1 C2 N1 108.0(4) 2_656 . ?
N1 C2 H2 126.0 2_656 . ?
N1 C2 H2 126.0 . . ?
C2A C2A N1 106.77(19) 2_656 . ?
C2A C2A H2A 126.6 2_656 . ?
N1 C2A H2A 126.6 . . ?
loop_
_geom_bond_atom_site_label_1
_geom_bond_atom_site_label_2
_geom_bond_distance
_geom_bond_site_symmetry_2
_geom_bond_publ_flag
Al1 O1A 1.866(2) 2 ?
Al1 O1A 1.866(2) . ?
Al1 O1B 1.869(2) . ?
Al1 O1B 1.869(2) 2 ?
Al1 O1 1.877(2) . ?
Al1 O1 1.877(2) 2 ?
O1 H1A 0.91(4) . ?
O1 H1B 0.69(4) . ?
O1A H1AA 0.70(3) . ?
O1A H1AB 0.77(3) . ?
O1B H1BA 0.74(4) . ?
O1B H1BB 0.95(4) . ?
S1 O3 1.455(2) . ?
S1 O2 1.4706(19) . ?
S1 O2A 1.478(2) . ?
S1 O2B 1.479(2) . ?
N1 C2 1.282(4) . ?
N1 C2A 1.331(5) . ?
N1 H1 0.8600 . ?
C2 N1 1.282(4) 2_656 ?
C2 H2 0.9300 . ?
C2A C2A 1.307(7) 2_656 ?
C2A H2A 0.9300 . ?
loop_
_geom_hbond_atom_site_label_D
_geom_hbond_atom_site_label_H
_geom_hbond_atom_site_label_A
_geom_hbond_distance_DH
_geom_hbond_distance_HA
_geom_hbond_distance_DA
_geom_hbond_angle_DHA
_geom_hbond_site_symmetry_A
O1 H1A S1 0.91(4) 2.91(4) 3.757(2) 155(3) 4_565
O1 H1A O2B 0.91(4) 1.73(4) 2.643(3) 174(3) 4_565
O1 H1B O2 0.69(4) 2.01(4) 2.692(3) 172(4) .
O1A H1AA O2 0.70(3) 1.94(3) 2.640(3) 175(4) 4_565
O1A H1AB S1 0.77(3) 2.94(3) 3.661(2) 157(3) 4
O1A H1AB O2A 0.77(3) 1.84(3) 2.606(3) 178(4) 4
O1B H1BA S1 0.74(4) 2.96(4) 3.630(2) 152(4) 2
O1B H1BA O2A 0.74(4) 1.87(4) 2.614(3) 175(4) 2
O1B H1BB S1 0.95(4) 2.84(4) 3.711(2) 152(3) 3_655
O1B H1BB O2B 0.95(4) 1.70(4) 2.653(3) 177(3) 3_655
N1 H1 S1 0.86 2.94 3.536(3) 128.4 3_666
N1 H1 O3 0.86 2.04 2.811(4) 148.2 3_666
C2 H2 O3 0.93 2.58 3.084(4) 114.4 1_565
C2 H2 O3 0.93 2.58 3.084(4) 114.4 2_666
C2A H2A O3 0.93 2.39 3.269(4) 157.6 .
loop_
_geom_torsion_atom_site_label_1
_geom_torsion_atom_site_label_2
_geom_torsion_atom_site_label_3
_geom_torsion_atom_site_label_4
_geom_torsion
_geom_torsion_site_symmetry_1
_geom_torsion_site_symmetry_2
_geom_torsion_site_symmetry_3
_geom_torsion_site_symmetry_4
_geom_torsion_publ_flag
C2A N1 C2 N1 0.09(17) . . . 2_656 ?
C2 N1 C2A C2A -0.2(5) . . . 2_656 ?

_cod_database_fobs_code 2108790
