#------------------------------------------------------------------------------
#$Date: 2018-12-07 05:37:15 +0200 (Fri, 07 Dec 2018) $
#$Revision: 212436 $
#$URL: file:///home/coder/svn-repositories/cod/cif/2/10/83/2108345.cif $
#------------------------------------------------------------------------------
#
# This file is available in the Crystallography Open Database (COD),
# http://www.crystallography.net/. The original data for this entry
# were provided by IUCr Journals, http://journals.iucr.org/.
#
# The file may be used within the scientific community so long as
# proper attribution is given to the journal article from which the
# data were obtained.
#
data_2108345
loop_
_publ_author_name
'Siidra, Oleg I.'
'Kozin, Michael S.'
'Depmeier, Wulf'
'Kayukov, Roman A.'
'Kovrugin, Vadim M.'
_publ_section_title
;
 Copper--lead selenite bromides: a new large family of compounds partly
 having Cu^2+^ substructures derivable from kagome nets
;
_journal_issue                   6
_journal_name_full               'Acta Crystallographica Section B'
_journal_page_first              712
_journal_page_last               724
_journal_paper_doi               10.1107/S2052520618016542
_journal_volume                  74
_journal_year                    2018
_chemical_formula_sum            'Br1.75 Cu2.5 O4 Pb0.5 Se'
_chemical_formula_weight         545.25
_space_group_crystal_system      monoclinic
_space_group_IT_number           12
_space_group_name_Hall           '-C 2y'
_space_group_name_H-M_alt        'C 1 2/m 1'
_symmetry_space_group_name_Hall  '-C 2y'
_symmetry_space_group_name_H-M   'C 1 2/m 1'
_audit_creation_method           SHELXL-2018/3
_cell_angle_alpha                90
_cell_angle_beta                 109.843(12)
_cell_angle_gamma                90
_cell_formula_units_Z            8
_cell_length_a                   19.049(10)
_cell_length_b                   6.226(3)
_cell_length_c                   12.726(7)
_cell_measurement_reflns_used    1494
_cell_measurement_temperature    296(2)
_cell_measurement_theta_max      30.767
_cell_measurement_theta_min      1.701
_cell_volume                     1419.7(13)
_computing_structure_refinement  'SHELXL-2018/3 (Sheldrick, 2018)'
_diffrn_ambient_temperature      296(2)
_diffrn_measured_fraction_theta_full 1.000
_diffrn_measured_fraction_theta_max 0.998
_diffrn_measurement_device_type  'Bruker Apex 2 Duo'
_diffrn_radiation_type           MoK\a
_diffrn_radiation_wavelength     0.71073
_diffrn_reflns_av_R_equivalents  0.0667
_diffrn_reflns_av_unetI/netI     0.0894
_diffrn_reflns_Laue_measured_fraction_full 1.000
_diffrn_reflns_Laue_measured_fraction_max 0.998
_diffrn_reflns_limit_h_max       27
_diffrn_reflns_limit_h_min       -27
_diffrn_reflns_limit_k_max       7
_diffrn_reflns_limit_k_min       -8
_diffrn_reflns_limit_l_max       12
_diffrn_reflns_limit_l_min       -18
_diffrn_reflns_number            7541
_diffrn_reflns_point_group_measured_fraction_full 1.000
_diffrn_reflns_point_group_measured_fraction_max 0.998
_diffrn_reflns_theta_full        25.242
_diffrn_reflns_theta_max         30.767
_diffrn_reflns_theta_min         1.701
_exptl_absorpt_coefficient_mu    34.175
_exptl_crystal_density_diffrn    5.103
_exptl_crystal_description       prism
_exptl_crystal_F_000             1926
_refine_diff_density_max         1.796
_refine_diff_density_min         -2.044
_refine_diff_density_rms         0.392
_refine_ls_extinction_coef       0.00017(3)
_refine_ls_extinction_expression Fc^*^=kFc[1+0.001xFc^2^\l^3^/sin(2\q)]^-1/4^
_refine_ls_extinction_method     'SHELXL-2018/3 (Sheldrick 2018)'
_refine_ls_goodness_of_fit_ref   0.944
_refine_ls_hydrogen_treatment    undef
_refine_ls_matrix_type           full
_refine_ls_number_parameters     114
_refine_ls_number_reflns         2401
_refine_ls_number_restraints     0
_refine_ls_restrained_S_all      0.944
_refine_ls_R_factor_all          0.0804
_refine_ls_R_factor_gt           0.0407
_refine_ls_shift/su_max          0.000
_refine_ls_shift/su_mean         0.000
_refine_ls_structure_factor_coef Fsqd
_refine_ls_weighting_details
'w=1/[\s^2^(Fo^2^)+(0.0208P)^2^] where P=(Fo^2^+2Fc^2^)/3'
_refine_ls_weighting_scheme      calc
_refine_ls_wR_factor_gt          0.0610
_refine_ls_wR_factor_ref         0.0713
_reflns_Friedel_coverage         0.000
_reflns_number_gt                1629
_reflns_number_total             2401
_reflns_threshold_expression     'I > 2\s(I)'
_cod_data_source_file            ps5074sup1.cif
_cod_data_source_block           CuPbOXO1
_cod_original_cell_volume        1419.5(13)
_cod_original_formula_sum        'Br1.75 Cu2.50 O4 Pb0.50 Se'
_cod_database_code               2108345
_shelx_shelxl_version_number     2018/3
_shelx_space_group_comment
;
The symmetry employed for this shelxl refinement is uniquely defined
by the following loop, which should always be used as a source of
symmetry information in preference to the above space-group names.
They are only intended as comments.
;
_shelx_res_file
;

TITL shelxt_a.res in C2/m
    shelx.res
    created by SHELXL-2018/3 at 20:27:36 on 17-Oct-2018
CELL  0.71073  19.0489   6.2255  12.7255   90.000  109.843   90.000
ZERR     8.00   0.0104   0.0034   0.0068    0.000    0.012    0.000
LATT   7
SYMM  - X,   Y, - Z
SFAC  O    CU   SE   PB   Br
UNIT  32 20 8 4 14
MERG   2
FMAP   2
PLAN   20
BOND   $H
conn 12 2 $Br $Pb
acta
LIST   6
L.S.  20
TEMP    23.00
WGHT    0.020800
EXTI    0.000172
FVAR       0.03182   1.00360
PB1   4    0.714978    1.000000    0.333926    10.50000    0.01254    0.01852 =
         0.01509    0.00000    0.00399    0.00000
SE1   3    0.324742    0.500000   -0.156169    10.50000    0.00939    0.01606 =
         0.01048    0.00000    0.00381    0.00000
SE2   3    0.596713    1.000000    0.732412    10.50000    0.00961    0.01455 =
         0.01142    0.00000    0.00401    0.00000
BR1   5    0.704144    1.000000    0.571052    10.50000    0.01419    0.03023 =
         0.01534    0.00000    0.00278    0.00000
BR2   5    0.599804    0.500000    0.448687    10.50000    0.02682    0.02780 =
         0.02558    0.00000    0.01036    0.00000
BR3   5    0.500000    0.000000    0.000000    10.25000    0.04301    0.02443 =
         0.02955    0.00000    0.01465    0.00000
BR4   5    0.277717    0.500000    0.129524    10.50000    0.01819    0.05007 =
         0.03758    0.00000    0.01720    0.00000
CU1   2    0.571069    1.000000    0.460205    10.50000    0.01281    0.02486 =
         0.00912    0.00000    0.00450    0.00000
CU2   2    0.546635    0.756252    0.227065    11.00000    0.01283    0.01490 =
         0.01700   -0.00493    0.00574   -0.00182
CU3   2    0.500000    0.500000    0.000000    10.25000    0.01329    0.02827 =
         0.00802    0.00000    0.00422    0.00000
CU4   2    0.402771    0.500000    0.139632    10.50000    0.01214    0.02825 =
         0.02201    0.00000    0.00804    0.00000
rem Cu+
CU5   2    0.500000    0.500000    0.500000    10.25000    0.04240    0.05552 =
         0.06512    0.00000    0.03439    0.00000
rem oxocentered
O1    1    0.505290    0.500000    0.151528    10.50000    0.01172    0.01389 =
         0.01087    0.00000    0.00253    0.00000
O2    1    0.588455    1.000000    0.320519    10.50000    0.01748    0.01650 =
         0.00908    0.00000    0.00247    0.00000
rem
O3    1    0.559033    0.789404    0.774976    11.00000    0.02057    0.01684 =
         0.03323    0.01498    0.01340   -0.00009
O4    1    0.352959    0.290754   -0.217566    11.00000    0.01266    0.01861 =
         0.01829   -0.00330    0.00490    0.00026
O5    1    0.390858    0.500000   -0.027639    10.50000    0.00903    0.03463 =
         0.01256    0.00000    0.00188    0.00000
O6    1    0.540965    1.000000    0.594247    10.50000    0.01658    0.04056 =
         0.00933    0.00000    0.01010    0.00000
HKLF 4




REM  shelxt_a.res in C2/m
REM wR2 = 0.0713, GooF = S = 0.944, Restrained GooF = 0.944 for all data
REM R1 = 0.0407 for 1629 Fo > 4sig(Fo) and 0.0804 for all 2401 data
REM 114 parameters refined using 0 restraints

END

WGHT      0.0169      0.0000

REM Highest difference peak  1.796,  deepest hole -2.044,  1-sigma level  0.392
Q1    1   0.7584  1.0000  0.6978  10.50000  0.05    1.80
Q2    1   0.5547  0.5000  0.4378  10.50000  0.05    1.77
Q3    1   0.4985  0.5000  0.3751  10.50000  0.05    1.63
Q4    1   0.7032  0.9225  0.3002  11.00000  0.05    1.60
Q5    1   0.2175  0.5000 -0.1532  10.50000  0.05    1.58
Q6    1   0.4035  0.5000 -0.0853  10.50000  0.05    1.53
Q7    1   0.3614  0.5000 -0.0574  10.50000  0.05    1.51
Q8    1   0.5077  1.0000  0.2996  10.50000  0.05    1.50
Q9    1   0.7167  0.9363  0.3565  11.00000  0.05    1.49
Q10   1   0.5371  0.5000  0.3433  10.50000  0.05    1.48
Q11   1   0.6363  1.0000  0.5186  10.50000  0.05    1.46
Q12   1   0.5267  0.6135  0.6008  11.00000  0.05    1.43
Q13   1   0.2713  0.3560 -0.3171  11.00000  0.05    1.41
Q14   1   0.4999  0.7660  0.5623  11.00000  0.05    1.38
Q15   1   0.6730  0.9218  0.7338  11.00000  0.05    1.37
Q16   1   0.2996  0.5000  0.0406  10.50000  0.05    1.36
Q17   1   0.5522  0.7547  0.5946  11.00000  0.05    1.35
Q18   1   0.7666  0.9017  0.3065  11.00000  0.05    1.35
Q19   1   0.6958  0.7975  0.3214  11.00000  0.05    1.34
Q20   1   0.5408  0.7704  0.3198  11.00000  0.05    1.34
;
_shelx_res_checksum              35577
_shelx_hkl_file
;
  -2   0   0    5.88    1.12
  -2   0   0    7.43    0.94
  -2   0   0    6.02    0.48
   2   0   0    8.08    1.03
   2   0   0    7.69    0.88
  -2   0   0    6.28    0.63
   4   0   0   41.74    3.23
   4   0   0   42.86    2.79
  -4   0   0   40.35    1.93
  -4   0   0   38.86    2.99
  -4   0   0   41.14    2.14
  -6   0   0   71.46    4.26
  -6   0   0   63.60    2.88
   6   0   0   55.64    4.11
   6   0   0   60.25    4.26
  -6   0   0   60.31    3.15
   8   0   0   38.04    3.81
   8   0   0   40.70    3.50
  -8   0   0   43.92    3.44
  -8   0   0   35.50    2.31
  -8   0   0   36.74    2.63
 -10   0   0  155.42    6.87
 -10   0   0  160.79    7.51
 -10   0   0  154.84    6.17
  10   0   0  151.14    7.67
  10   0   0  165.30    7.96
 -12   0   0   13.94    1.71
 -12   0   0   17.77    2.47
  12   0   0   11.09    2.79
 -12   0   0   16.85    2.57
  12   0   0   14.39    2.80
  14   0   0   28.75    3.90
 -14   0   0   24.38    3.22
 -14   0   0   25.49    3.04
 -14   0   0   23.64    2.34
 -16   0   0   74.88    4.91
 -16   0   0   64.65    3.99
 -18   0   0   67.31    4.16
 -18   0   0   69.80    4.97
 -20   0   0   20.70    2.56
 -20   0   0   16.71    3.25
 -22   0   0   17.22    3.52
 -22   0   0   18.66    2.60
 -24   0   0    6.20    2.97
 -24   0   0    2.52    1.67
   1  -1   0    0.18    0.35
  -1  -1   0    0.33    0.48
   1  -1   0   -0.33    0.64
  -1  -1   0   -0.19    0.48
   1  -1   0    0.14    0.45
   1  -1   0   -0.82    0.68
  -1  -1   0   -0.26    0.52
  -1  -1   0   -0.33    0.45
   1   1   0    0.35    0.39
  -1   1   0   -0.07    0.31
   1   1   0   -0.32    0.43
  -1   1   0   -0.07    0.42
  -3  -1   0    2.61    0.59
   3  -1   0    3.15    1.27
  -3  -1   0    3.45    0.90
  -3  -1   0    2.90    0.96
  -3  -1   0    1.50    0.71
  -3   1   0    3.00    0.75
  -3   1   0    3.11    0.53
  -5  -1   0   30.46    2.35
   5  -1   0   29.87    2.91
  -5  -1   0   28.23    2.01
  -5  -1   0   31.58    2.61
  -5  -1   0   30.13    1.91
  -5   1   0   31.26    1.68
  -5   1   0   29.74    2.11
  -7  -1   0  187.50    7.43
  -7  -1   0  197.31    7.99
  -7  -1   0  183.91    6.63
  -7  -1   0  177.69    7.00
   7  -1   0  174.16    8.18
  -7   1   0  171.86    6.52
  -7   1   0  186.48    7.19
   7   1   0  166.81    7.53
  -9  -1   0    3.49    1.55
  -9  -1   0    5.06    2.14
  -9  -1   0    3.81    1.41
  -9  -1   0    3.78    1.04
   9  -1   0    3.92    1.90
  -9   1   0    4.87    1.02
   9   1   0    1.82    1.59
  -9   1   0    3.47    1.42
  11  -1   0   54.22    4.88
 -11  -1   0   49.40    3.01
  11  -1   0   49.87    5.00
 -11  -1   0   45.99    3.31
 -11  -1   0   55.47    4.14
 -11  -1   0   50.77    5.10
 -11   1   0   46.33    3.40
  11   1   0   50.70    4.38
  13  -1   0    2.66    2.44
  13  -1   0   -0.04    1.87
 -13  -1   0    1.35    1.07
 -13  -1   0   -0.19    1.47
 -13  -1   0    1.34    1.53
  13   1   0    2.30    1.83
 -13   1   0   -1.29    1.60
 -13   1   0   -0.63    0.93
 -13   1   0    2.11    1.66
 -15  -1   0   59.42    4.59
 -15  -1   0   53.12    4.05
  15  -1   0   50.20    5.35
 -15  -1   0   47.14    3.37
 -15   1   0   53.14    4.05
 -15   1   0   50.41    3.42
 -17  -1   0   51.13    3.50
 -17  -1   0   50.37    4.65
 -17   1   0   54.07    4.74
 -17   1   0   51.03    3.65
 -19  -1   0    8.94    2.65
 -19  -1   0   10.98    1.91
 -19   1   0    7.53    2.47
 -19   1   0    9.27    1.95
 -21  -1   0   20.61    3.75
 -21  -1   0   21.56    2.49
 -21   1   0   23.07    3.65
 -21   1   0   18.78    2.64
 -23  -1   0   -1.09    2.25
 -23  -1   0    0.56    1.29
 -23   1   0   -0.98    1.41
 -25  -1   0   -0.61    2.50
 -25   1   0   -1.00    1.57
   0  -2   0  905.64   29.60
   0  -2   0  919.10   30.21
   0  -2   0  930.04   30.61
   0  -2   0  885.08   30.00
   0   2   0  921.67   29.52
   0   2   0  911.29   30.12
  -2  -2   0   94.48    4.13
   2  -2   0   85.35    4.66
  -2  -2   0   98.75    3.86
  -2  -2   0   94.65    3.88
  -2  -2   0   92.19    3.94
   2  -2   0   87.61    3.64
   2  -2   0   95.94    3.86
  -2   2   0   94.73    3.61
  -2   2   0   95.35    3.80
  -4  -2   0   11.02    1.25
  -4  -2   0    7.90    1.34
  -4  -2   0    8.93    1.05
   4  -2   0    9.55    2.00
   4  -2   0    9.35    1.00
  -4  -2   0    9.80    1.40
  -4   2   0   11.30    1.34
  -4   2   0    9.11    0.95
  -6  -2   0   28.89    1.89
  -6  -2   0   27.20    2.11
  -6  -2   0   26.31    2.21
  -6  -2   0   29.29    2.62
   6  -2   0   31.54    3.32
  -6   2   0   25.87    2.19
  -6   2   0   26.91    1.76
   8  -2   0    5.05    2.02
  -8  -2   0    3.88    1.31
  -8  -2   0    5.13    0.96
  -8  -2   0    5.75    1.93
  -8  -2   0    7.10    1.58
  -8   2   0    2.89    0.87
  -8   2   0    5.28    1.45
 -10  -2   0  505.31   18.07
 -10  -2   0  488.09   16.83
 -10  -2   0  513.11   17.42
 -10  -2   0  477.91   18.85
  10  -2   0  491.24   19.20
 -10   2   0  514.35   17.06
 -10   2   0  488.38   18.08
 -12  -2   0   18.39    3.47
  12  -2   0   19.24    3.59
 -12  -2   0   16.91    2.18
 -12  -2   0   20.96    2.73
 -12  -2   0   19.44    1.86
 -12   2   0   16.46    2.53
 -12   2   0   17.66    1.92
 -14  -2   0   49.04    4.38
 -14  -2   0   51.35    3.78
  14  -2   0   63.51    6.01
 -14  -2   0   49.94    3.15
 -14   2   0   50.76    4.33
 -14   2   0   52.37    3.29
 -16  -2   0   56.74    3.91
 -16  -2   0   55.16    3.27
 -16  -2   0   46.36    4.61
  16  -2   0   54.40    6.00
 -16   2   0   45.99    4.43
 -16   2   0   53.49    3.60
 -18  -2   0   26.73    2.60
 -18  -2   0   25.49    3.82
 -18  -2   0   20.81    2.17
 -18   2   0   21.22    3.33
 -18   2   0   24.28    2.88
 -20  -2   0    0.43    1.25
 -20  -2   0    2.14    2.31
 -20   2   0   -0.70    1.40
 -22  -2   0   -3.83    2.20
 -22   2   0   -1.01    1.55
 -24  -2   0    1.42    2.74
 -24   2   0    1.60    1.85
  -1  -3   0    0.09    1.19
  -1  -3   0   -0.27    0.84
   1  -3   0    0.08    1.18
   1  -3   0    1.88    1.35
   1  -3   0   -0.34    0.74
   1  -3   0    1.11    0.85
  -1  -3   0    0.45    1.11
  -1  -3   0    1.03    0.84
  -1   3   0    1.83    0.66
  -3  -3   0   10.51    1.76
  -3  -3   0   14.40    1.67
   3  -3   0    9.37    1.85
   3  -3   0   13.49    1.35
  -3  -3   0   10.54    1.43
   3  -3   0   13.89    2.25
  -3  -3   0   11.04    1.33
  -3   3   0   10.69    1.18
  -3   3   0   13.51    1.49
  -5  -3   0   19.26    1.63
  -5  -3   0   19.90    1.62
   5  -3   0   16.35    2.67
  -5  -3   0   19.56    2.14
   5  -3   0   19.17    1.61
  -5  -3   0   19.65    2.19
  -5   3   0   24.17    1.76
  -5   3   0   20.44    2.01
   7  -3   0   78.81    5.74
  -7  -3   0   80.84    4.57
  -7  -3   0   75.52    3.71
  -7  -3   0   83.85    4.40
  -7   3   0   86.25    3.71
  -7   3   0   79.83    4.26
  -9  -3   0   10.27    2.05
  -9  -3   0   11.09    2.36
   9  -3   0   11.02    2.78
  -9   3   0   13.81    1.56
  -9   3   0   13.83    2.17
  11  -3   0   22.16    3.71
 -11  -3   0   27.73    3.16
 -11  -3   0   28.40    3.70
 -11   3   0   24.54    2.93
 -11   3   0   27.46    2.37
 -13  -3   0    0.98    1.87
  13  -3   0   -3.34    2.16
 -13   3   0    1.93    1.76
 -13   3   0    3.01    1.20
 -15  -3   0   27.33    3.68
  15  -3   0   35.20    4.95
 -15   3   0   33.36    3.69
 -15   3   0   28.04    2.70
  17  -3   0   45.64    5.94
 -17  -3   0   46.12    4.93
 -17   3   0   49.81    3.61
 -19  -3   0    6.88    2.83
 -19   3   0    8.85    2.11
 -21  -3   0   20.40    4.00
 -21   3   0   18.12    2.91
 -23  -3   0    2.75    2.81
 -23   3   0    3.65    1.97
   0  -4   0 1000.00   33.97
   0  -4   0  990.04   32.22
   0  -4   0  924.96   32.88
   0  -4   0  982.65   33.04
   0   4   0  979.17   32.03
   2  -4   0    0.11    0.98
  -2  -4   0    1.26    1.27
  -2  -4   0    1.42    1.00
   2  -4   0    1.50    1.01
  -2  -4   0    1.37    1.52
   2  -4   0    2.94    1.64
  -2  -4   0    0.19    1.09
   2  -4   0    1.49    1.70
  -2   4   0    0.26    0.73
  -4  -4   0   15.71    1.54
   4  -4   0   16.54    2.88
  -4  -4   0   14.37    2.40
  -4  -4   0   18.38    2.17
  -4  -4   0   15.93    1.72
   4  -4   0   19.68    1.86
   4  -4   0   20.53    2.80
  -4   4   0   16.07    1.61
  -4   4   0   16.56    2.01
  -6  -4   0   26.66    2.85
   6  -4   0   35.18    4.06
   6  -4   0   27.24    2.21
  -6  -4   0   26.03    3.02
  -6   4   0   26.31    2.56
  -6   4   0   23.85    2.00
  -8  -4   0   19.91    2.76
  -8  -4   0   22.30    2.93
   8  -4   0   23.40    3.84
  -8   4   0   21.78    2.02
  -8   4   0   19.30    2.53
 -10  -4   0   67.30    4.68
  10  -4   0   72.17    6.51
 -10   4   0   81.90    4.03
 -12  -4   0    8.98    2.42
  12  -4   0    8.59    3.11
 -12   4   0    6.00    1.42
 -14  -4   0   12.02    2.75
  14  -4   0   12.16    3.63
 -14   4   0    7.75    1.73
 -16  -4   0   29.29    4.13
  16  -4   0   30.62    4.93
 -16   4   0   30.86    3.07
  18  -4   0   25.42    5.16
 -18  -4   0   37.47    4.80
 -18   4   0   38.10    3.65
 -20  -4   0    9.25    3.33
 -22  -4   0   11.42    3.66
 -22   4   0   13.43    2.87
   1  -5   0    5.50    1.99
  -1  -5   0    3.08    1.91
   1  -5   0    2.23    1.26
   1  -5   0    0.74    1.83
  -1  -5   0    1.16    1.13
  -1  -5   0    1.24    1.62
   3  -5   0    2.15    1.99
  -3  -5   0   -0.24    1.72
  -3  -5   0    0.40    0.99
   3  -5   0   -1.42    1.49
   3  -5   0   -1.25    0.99
   5  -5   0   11.69    3.03
  -5  -5   0    9.98    2.61
  -7  -5   0   77.49    5.23
   7  -5   0   72.02    6.29
   9  -5   0    9.05    3.09
  -9  -5   0    9.55    2.49
  11  -5   0   28.47    4.55
 -11  -5   0   19.21    3.29
  13  -5   0    3.72    2.90
 -13  -5   0    0.87    2.29
  15  -5   0   13.58    4.01
 -15  -5   0   11.58    3.19
  17  -5   0   15.25    4.28
 -17  -5   0   18.95    3.86
 -19  -5   0    5.67    3.20
  19  -5   0   17.51    4.55
 -21  -5   0    8.23    3.56
   0  -6   0  156.37    8.81
   0  -6   0  162.37    7.43
   0  -6   0  180.72    7.01
   2  -6   0   25.93    2.61
  -2  -6   0   21.97    3.52
   2  -6   0   31.94    4.13
   2  -6   0   15.29    2.83
  -4  -6   0    1.94    2.11
   4  -6   0   -0.60    1.81
   4  -6   0   -1.45    1.93
  -6  -6   0    6.60    2.49
   6  -6   0    6.67    2.73
  -8  -6   0   -0.82    2.26
   8  -6   0    2.10    2.47
  10  -6   0  124.07    8.22
 -10  -6   0  106.74    7.17
 -12  -6   0    0.87    2.51
  12  -6   0    4.01    3.05
  14  -6   0   15.79    4.19
 -14  -6   0    8.96    3.10
  16  -6   0   17.08    4.41
 -16  -6   0   14.27    3.65
  18  -6   0    1.73    3.39
 -18  -6   0    2.87    3.07
  -1  -7   0    0.51    2.40
   1  -7   0    1.38    1.20
   1  -7   0    2.21    2.35
  -3  -7   0    3.66    2.60
   3  -7   0    1.92    1.92
   3  -7   0    7.08    2.74
  -5  -7   0    6.42    2.77
   5  -7   0    1.76    2.11
  -7  -7   0   13.21    3.27
   7  -7   0   17.10    3.58
  -9  -7   0   13.01    3.57
   9  -7   0    6.45    3.04
  11  -7   0   -0.98    2.53
 -11  -7   0    6.33    3.20
  13  -7   0    3.68    3.19
 -13  -7   0    7.76    3.24
  15  -7   0    3.97    3.47
 -15  -7   0    5.67    3.32
   0  -8   0  123.64    8.72
   2  -8   0    0.91    2.75
  -2  -8   0    5.16    3.07
  -4  -8   0    5.10    3.09
   6  -8   0    4.77    2.19
  -6  -8   0    2.31    2.71
   8  -8   0    2.97    2.47
  -8  -8   0    0.91    2.79
  10  -8   0    7.08    2.96
 -10  -8   0   11.86    3.69
 -26   0   1   -1.47    1.55
 -24   0   1    0.12    1.62
 -22   0   1    2.77    1.68
 -22   0   1   -0.63    2.09
 -20   0   1    2.11    2.27
 -20   0   1    1.81    1.52
 -18   0   1   -1.91    1.61
 -18   0   1    2.53    1.45
 -16   0   1    0.94    1.75
 -16   0   1    1.61    1.26
 -14   0   1   62.91    3.93
  14   0  -1   73.22    6.26
 -14   0   1   76.65    5.70
 -14   0   1   64.87    4.38
  14   0  -1   72.70    5.95
  12   0  -1   -0.74    1.65
 -12   0   1   -1.81    1.42
  12   0  -1    1.79    2.13
 -12   0   1    0.64    0.95
 -12   0   1   -0.49    1.44
 -10   0   1    1.75    1.74
  10   0  -1    1.97    1.76
 -10   0   1    3.26    0.99
 -10   0   1    2.89    1.42
  10   0  -1    1.32    2.06
  -8   0   1  132.10    5.82
   8   0  -1  137.62    6.96
  -8   0   1  142.41    5.38
  -8   0   1  134.31    6.67
   8   0  -1  132.83    6.62
  -6   0   1  282.69   10.36
  -6   0   1  295.52    9.90
   6   0  -1  291.02   10.82
   6   0  -1  275.60   11.40
  -4   0   1   14.76    1.10
   4   0  -1    9.93    1.88
  -4   0   1   11.02    1.20
   4   0  -1   10.86    1.44
   2   0  -1   72.25    2.60
   2   0  -1   76.89    2.73
  -2   0   1   72.17    2.69
   2   0  -1   65.52    2.72
  -2   0   1   73.27    2.59
   0   0   1   24.86    1.01
   0   0  -1   24.17    1.03
   0   0   1   25.08    0.91
  -2   0  -1    2.39    0.51
  -2   0  -1    1.95    0.40
   2   0   1    0.50    0.50
  -2   0  -1    1.92    0.33
  -4   0  -1   33.62    2.29
  -4   0  -1   29.03    1.70
  -4   0  -1   27.54    1.61
   4   0   1   27.98    2.07
   4   0   1   29.14    2.57
  -6   0  -1    7.11    0.95
  -6   0  -1   12.18    1.51
  -6   0  -1    8.49    1.54
   6   0   1    8.90    1.77
   6   0   1    9.60    2.19
   8   0   1    1.00    1.67
  -8   0  -1    1.63    1.26
  -8   0  -1    1.16    1.13
   8   0   1   -2.11    1.30
  -8   0  -1    1.15    0.75
  10   0   1   37.80    3.72
 -10   0  -1   31.05    2.81
 -10   0  -1   29.86    2.19
 -10   0  -1   33.18    3.09
 -12   0  -1   85.15    4.78
 -12   0  -1  103.81    5.60
  12   0   1   83.46    6.02
 -12   0  -1   87.51    4.23
 -14   0  -1    1.52    1.60
 -14   0  -1    0.24    1.57
 -14   0  -1   -0.07    1.03
 -16   0  -1   18.16    2.81
 -16   0  -1   13.41    1.92
 -18   0  -1    9.56    1.81
 -18   0  -1    5.96    2.30
 -20   0  -1   10.73    2.66
 -20   0  -1   10.06    1.87
 -22   0  -1   63.02    5.85
 -22   0  -1   62.91    4.01
 -24   0  -1    8.54    1.84
 -24   0  -1   13.34    3.41
 -25  -1   1    3.12    2.83
 -25  -1   1    0.48    1.42
 -25   1   1    1.54    1.78
 -23  -1   1   12.51    2.25
 -23  -1   1   13.71    3.62
 -23   1   1   14.76    2.54
 -21  -1   1    7.73    2.00
 -21  -1   1    8.69    2.88
 -21   1   1    9.87    2.81
 -21   1   1    9.96    2.20
 -19  -1   1    2.30    1.48
 -19  -1   1    1.36    2.04
 -19   1   1    4.81    1.73
 -19   1   1    3.86    2.31
  17  -1  -1    1.01    2.41
 -17  -1   1    2.57    2.06
 -17  -1   1    3.76    1.54
 -17   1   1    5.51    2.09
 -17   1   1    1.34    1.32
 -15  -1   1   24.24    3.34
 -15  -1   1   32.90    3.66
  15  -1  -1   28.26    4.07
 -15  -1   1   28.03    2.72
 -15   1   1   24.38    2.52
 -15   1   1   29.72    3.35
  13  -1  -1  126.64    7.44
  13  -1  -1  107.53    7.45
 -13  -1   1  109.59    5.32
 -13  -1   1  126.84    6.73
 -13  -1   1  115.31    6.01
  13   1  -1  112.38    6.96
  13   1  -1   99.28    6.61
 -13   1   1  116.16    5.27
 -13   1   1  123.42    6.13
  11  -1  -1   49.72    4.57
 -11  -1   1   42.34    2.95
 -11  -1   1   48.85    3.40
 -11  -1   1   38.73    3.67
  11  -1  -1   44.66    4.82
 -11   1   1   40.78    3.20
  11   1  -1   51.97    4.49
  11   1  -1   45.88    4.21
  -9  -1   1    5.90    1.60
  -9  -1   1    7.48    2.37
  -9  -1   1   10.21    1.92
   9  -1  -1   10.10    2.28
  -9  -1   1    8.80    1.36
   9   1  -1   10.13    2.26
   9   1  -1   10.82    2.07
  -9   1   1    9.95    1.76
  -9   1   1    8.05    1.17
  -7  -1   1   82.23    4.49
  -7  -1   1   86.62    3.82
  -7  -1   1   85.97    4.05
  -7  -1   1   82.84    4.81
   7  -1  -1   81.43    5.13
   7   1  -1   85.96    4.51
  -7   1   1   82.48    3.50
   7   1  -1   77.23    4.64
  -7   1   1   87.65    4.12
  -5  -1   1    1.15    0.96
  -5  -1   1    0.87    0.78
   5  -1  -1    0.37    1.40
  -5  -1   1    1.44    1.06
  -5  -1   1   -1.21    1.32
  -5   1   1   -0.34    0.51
   5   1  -1    0.05    1.22
   5   1  -1   -0.84    0.96
  -5   1   1    1.55    1.04
  -3  -1   1   -0.82    0.59
   3  -1  -1   -0.21    0.39
  -3  -1   1    0.46    0.78
   3  -1  -1   -1.05    0.75
  -3  -1   1   -0.21    0.71
  -3  -1   1    0.07    0.92
   3  -1  -1    0.26    1.04
   3   1  -1    0.89    0.87
  -3   1   1    0.67    0.39
  -3   1   1    0.37    0.79
   3   1  -1    0.38    0.71
  -1  -1   1    1.35    0.59
   1  -1  -1    2.03    0.64
  -1  -1   1    1.42    0.61
  -1  -1   1    2.84    0.74
   1  -1  -1    1.58    0.54
   1  -1  -1    1.39    0.54
  -1  -1   1    2.10    0.78
   1  -1  -1    1.63    0.33
   1   1  -1    1.96    0.63
   1   1  -1    2.02    0.54
  -1  -1  -1  111.45    3.78
  -1  -1  -1  109.77    3.83
   1  -1   1  116.87    4.44
  -1   1  -1  113.52    4.13
  -1   1  -1  109.08    3.94
   3  -1   1  292.58   10.44
  -3  -1  -1  285.65    9.96
  -3  -1  -1  295.65    9.85
  -3   1  -1  286.88   10.02
  -3   1  -1  289.40    9.63
  -5  -1  -1  201.86    7.44
  -5  -1  -1  211.57    7.99
  -5  -1  -1  199.57    6.94
   5  -1   1  200.37    8.25
  -5   1  -1  207.34    8.14
  -5   1  -1  205.65    7.53
  -5   1  -1  203.18    7.09
  -7  -1  -1  210.12    7.35
   7  -1   1  199.54    8.96
  -7  -1  -1  205.47    7.72
  -7  -1  -1  217.29    9.05
  -7  -1  -1  208.97    8.04
  -7   1  -1  215.05    8.82
  -7   1  -1  221.77    7.59
  -7   1  -1  212.66    8.07
   9  -1   1    4.55    1.98
  -9  -1  -1    2.49    2.07
  -9  -1  -1    4.34    1.25
  -9  -1  -1    4.65    1.49
  -9  -1  -1    4.68    0.97
  -9   1  -1    5.44    1.74
  -9   1  -1    4.59    1.42
  -9   1  -1    4.96    1.01
 -11  -1  -1    2.03    1.50
 -11  -1  -1   -0.75    0.81
  11  -1   1    3.51    2.07
  11  -1   1    0.46    2.14
 -11  -1  -1   -1.34    2.04
 -11  -1  -1    0.15    1.14
 -11   1  -1    2.00    1.64
 -11   1  -1    1.64    1.37
 -13  -1  -1   45.51    2.90
 -13  -1  -1   44.46    3.85
  13  -1   1   54.45    5.26
 -13  -1  -1   42.46    3.32
 -13   1  -1   40.90    3.02
 -13   1  -1   42.18    3.74
 -13   1  -1   47.70    4.33
 -15  -1  -1   68.66    3.71
 -15  -1  -1   73.26    4.60
 -15  -1  -1   72.87    4.47
 -15   1  -1   66.20    4.60
 -15   1  -1   59.15    3.83
 -17  -1  -1   20.36    2.20
 -17  -1  -1   22.54    2.58
 -17  -1  -1   24.57    3.31
 -17   1  -1   23.32    3.28
 -17   1  -1   26.80    2.66
 -19  -1  -1   18.57    2.43
 -19  -1  -1   22.86    2.27
 -19  -1  -1   21.27    3.31
 -19   1  -1   19.96    3.37
 -19   1  -1   22.25    2.65
 -21  -1  -1   17.19    3.48
 -21  -1  -1   22.51    2.13
 -21   1  -1   18.16    2.56
 -21   1  -1   16.79    3.32
 -23  -1  -1    1.40    2.59
 -23   1  -1    1.75    1.57
 -25  -1  -1   -3.89    2.19
 -25   1  -1   -2.02    1.46
 -24  -2   1   -0.89    2.54
 -24   2   1    3.48    2.02
 -22  -2   1    4.02    2.78
 -22  -2   1    3.35    1.52
 -22   2   1    0.31    1.72
 -20  -2   1   13.54    2.11
 -20  -2   1   20.10    3.72
 -20   2   1   14.25    2.45
 -18  -2   1   35.88    4.40
 -18  -2   1   38.47    3.19
  18  -2  -1   44.51    5.69
 -18   2   1   43.00    3.65
 -18   2   1   42.76    4.43
  16  -2  -1   52.60    5.60
 -16  -2   1   36.27    4.18
 -16  -2   1   40.19    3.77
 -16  -2   1   30.72    2.84
 -16   2   1   38.01    3.96
 -16   2   1   32.34    2.96
 -14  -2   1    4.97    1.92
 -14  -2   1    8.63    1.64
 -14  -2   1    9.85    2.36
  14  -2  -1    3.87    2.52
  14  -2  -1   12.10    3.41
 -14   2   1    7.08    1.50
 -14   2   1   10.17    2.24
 -12  -2   1   16.42    2.46
 -12  -2   1   19.12    3.53
  12  -2  -1   13.28    3.03
 -12  -2   1   18.49    2.68
 -12  -2   1   15.08    1.87
 -12   2   1   18.31    2.55
  12   2  -1   16.28    2.75
 -12   2   1   16.65    1.80
 -10  -2   1    9.70    2.47
 -10  -2   1    5.80    1.35
 -10  -2   1    8.31    1.86
  10  -2  -1    8.69    2.53
 -10  -2   1    8.06    1.81
 -10   2   1    6.75    1.75
  10   2  -1    9.52    2.06
 -10   2   1    5.14    1.11
  -8  -2   1   10.52    1.75
  -8  -2   1    5.74    1.25
  -8  -2   1    9.29    1.67
  -8  -2   1    6.53    2.01
   8  -2  -1   11.91    2.36
  -8   2   1    7.77    1.07
   8   2  -1   11.84    1.88
  -8   2   1    9.56    1.70
  -6  -2   1   85.23    4.40
  -6  -2   1   81.47    3.99
  -6  -2   1   78.30    3.67
   6  -2  -1   77.96    3.30
   6  -2  -1   69.42    4.95
  -6  -2   1   75.72    3.98
  -6   2   1   82.88    3.98
  -6   2   1   81.35    3.35
   6   2  -1   81.11    4.11
  -4  -2   1   97.49    4.47
   4  -2  -1   91.84    5.22
  -4  -2   1   97.87    4.40
  -4  -2   1   97.92    4.20
   4  -2  -1   99.49    4.18
   4  -2  -1   95.68    3.74
  -4  -2   1   98.45    4.47
  -4   2   1  100.85    4.20
   4   2  -1   97.44    4.16
   4   2  -1   96.99    4.31
  -4   2   1   95.34    3.71
   2  -2  -1    2.25    0.63
  -2  -2   1    2.46    0.98
  -2  -2   1    3.06    0.98
  -2  -2   1    0.93    1.02
   2  -2  -1    1.25    1.25
  -2  -2   1    1.59    1.20
   2  -2  -1    2.37    0.81
   2  -2  -1    2.39    1.11
  -2   2   1    1.93    0.57
   2   2  -1    3.49    0.92
   2   2  -1    0.68    0.73
   0  -2   1   49.60    2.53
   0  -2  -1   47.97    2.14
   0  -2  -1   49.22    2.62
   0  -2   1   42.07    2.99
   0  -2   1   43.64    2.52
   0  -2   1   50.36    2.93
   0  -2  -1   51.59    2.24
   0   2  -1   49.44    2.35
   0   2  -1   51.29    2.39
   2  -2   1   25.57    2.40
  -2  -2  -1   24.28    1.56
   2  -2   1   22.78    2.28
  -2  -2  -1   24.73    1.78
  -2   2  -1   21.07    1.46
  -2   2  -1   22.21    1.72
  -4  -2  -1  118.36    4.77
  -4  -2  -1  115.24    4.70
   4  -2   1  120.96    5.82
  -4   2  -1  120.88    4.86
  -4   2  -1  119.09    4.51
   6  -2   1   16.85    2.50
  -6  -2  -1   16.46    1.73
  -6  -2  -1   18.18    2.09
  -6   2  -1   19.76    1.91
  -6   2  -1   18.02    1.47
   8  -2   1   82.83    5.54
  -8  -2  -1   72.17    3.91
  -8  -2  -1   73.97    4.46
  -8   2  -1   75.44    3.39
  -8   2  -1   72.23    3.90
  10  -2   1    1.09    1.91
 -10  -2  -1   -0.05    1.91
 -10  -2  -1   -0.38    1.42
 -10   2  -1    1.12    0.84
 -10   2  -1   -0.07    1.29
  12  -2   1   50.06    5.32
 -12  -2  -1   46.67    3.94
 -12  -2  -1   52.08    5.30
 -12   2  -1   44.31    2.83
 -12   2  -1   45.61    3.89
 -14  -2  -1   17.68    2.86
  14  -2   1   22.37    3.85
 -14   2  -1   17.28    2.09
 -14   2  -1   19.00    2.85
 -16  -2  -1   -2.13    1.78
 -16   2  -1    1.78    1.81
 -16   2  -1    0.90    1.18
 -18  -2  -1   11.02    2.88
 -18   2  -1    7.44    2.52
 -18   2  -1   12.85    2.14
 -20  -2  -1   40.93    4.77
 -20   2  -1   37.94    3.57
 -22  -2  -1   63.32    6.21
 -22   2  -1   67.81    4.70
 -24  -2  -1    2.03    2.69
 -24   2  -1    1.35    1.92
 -23  -3   1    8.29    3.46
 -23   3   1   10.61    2.56
 -21  -3   1    8.32    3.23
 -21   3   1    9.02    2.35
  19  -3  -1    3.85    3.04
 -19  -3   1    3.27    2.65
 -19  -3   1    2.44    1.33
 -19   3   1    0.85    1.50
  17  -3  -1    0.28    2.54
 -17  -3   1    2.82    1.23
 -17  -3   1    0.35    1.40
 -17  -3   1   -1.13    2.00
 -17   3   1   -0.51    1.19
 -15  -3   1   27.08    2.76
  15  -3  -1   20.80    4.02
 -15  -3   1   23.91    2.18
 -15  -3   1   17.92    3.21
 -15   3   1   15.11    2.09
 -13  -3   1   90.18    5.64
 -13  -3   1   89.27    4.39
 -13  -3   1   90.24    5.17
  13  -3  -1   95.94    7.08
 -13   3   1   91.30    5.41
 -13   3   1   90.90    4.51
 -11  -3   1   22.63    3.44
  11  -3  -1   21.16    3.58
 -11  -3   1   22.10    2.85
 -11  -3   1   18.38    2.42
 -11  -3   1   22.15    2.07
 -11   3   1   20.21    1.99
 -11   3   1   19.81    2.68
  -9  -3   1    4.42    1.22
  -9  -3   1    4.46    1.70
  -9  -3   1    3.80    1.98
  -9  -3   1    5.16    1.51
   9  -3  -1    3.43    2.06
  -9   3   1    3.25    1.55
  -9   3   1    2.90    0.97
  -7  -3   1   56.80    3.55
   7  -3  -1   52.62    4.58
  -7  -3   1   51.61    3.12
   7  -3  -1   57.73    2.88
  -7  -3   1   64.92    4.07
  -7  -3   1   53.15    3.57
  -7   3   1   51.63    3.39
  -7   3   1   57.67    2.88
  -5  -3   1    2.28    1.30
  -5  -3   1    0.67    1.27
  -5  -3   1    0.60    1.05
  -5  -3   1    0.64    0.95
   5  -3  -1    3.43    1.81
   5  -3  -1    1.39    0.70
   5   3  -1    0.25    0.93
  -5   3   1   -0.19    0.89
  -5   3   1    0.35    0.63
   3  -3  -1    0.65    0.85
  -3  -3   1    0.64    1.03
   3  -3  -1    1.13    1.19
  -3  -3   1    1.30    1.00
  -3  -3   1    0.06    0.95
  -3  -3   1   -0.78    1.18
   3  -3  -1    0.68    1.43
   3  -3  -1    0.66    0.68
   3   3  -1   -0.32    0.76
  -3   3   1    0.18    0.59
  -1  -3   1    1.25    0.89
  -1  -3   1   -0.19    1.09
   1  -3  -1    0.19    0.70
   1  -3  -1   -0.53    1.11
  -1  -3   1    0.43    1.11
   1  -3  -1    0.04    0.76
   1  -3  -1    1.69    1.24
  -1  -3   1    0.70    0.91
   1   3  -1    0.21    0.76
   1   3  -1    0.57    0.70
   1  -3   1   79.03    4.40
  -1  -3  -1   79.41    3.49
  -1  -3  -1   77.69    4.03
   1  -3   1   77.13    4.60
   1  -3   1   82.17    3.70
  -1   3  -1   77.29    3.45
  -1   3  -1   79.95    3.63
   3  -3   1  144.09    6.94
   3  -3   1  137.51    6.66
  -3  -3  -1  143.96    5.79
   3  -3   1  142.18    5.64
  -3  -3  -1  145.68    6.04
  -3   3  -1  151.65    5.58
  -3   3  -1  146.69    5.84
   5  -3   1  113.22    6.33
  -5  -3  -1  112.68    4.97
  -5  -3  -1  104.47    4.88
  -5   3  -1  109.74    4.50
  -5   3  -1  111.72    4.87
  -7  -3  -1  133.97    6.22
  -7  -3  -1  129.78    5.89
   7  -3   1  132.89    7.52
  -7   3  -1  140.35    5.46
  -7   3  -1  136.67    5.96
  -9  -3  -1   -0.02    1.40
   9  -3   1    1.43    2.10
  -9  -3  -1    6.50    2.14
  -9   3  -1    2.67    0.93
  -9   3  -1    3.39    1.48
  11  -3   1   -0.14    2.26
 -11  -3  -1    1.98    1.94
 -11  -3  -1    0.36    1.55
 -11   3  -1    0.82    0.96
 -11   3  -1   -1.60    1.33
  13  -3   1   39.96    5.13
 -13  -3  -1   43.87    4.15
 -13   3  -1   40.33    2.87
 -13   3  -1   43.84    4.10
  15  -3   1   65.82    6.75
 -15  -3  -1   57.83    5.09
 -15   3  -1   54.18    4.81
 -15   3  -1   52.01    3.49
 -17  -3  -1   15.15    3.19
 -17   3  -1   11.98    2.09
 -19  -3  -1   22.93    3.84
 -19   3  -1   18.23    2.70
 -21  -3  -1    6.37    2.98
 -21   3  -1   11.98    2.48
 -23  -3  -1    2.23    2.76
 -23   3  -1    2.23    1.84
 -22  -4   1    0.20    2.86
 -22   4   1   -0.29    1.74
 -20  -4   1    4.14    3.07
  20  -4  -1    2.30    3.21
 -20   4   1    2.77    1.69
 -18  -4   1    0.36    2.40
  18  -4  -1   -2.54    2.59
 -18   4   1   -0.22    1.30
  16  -4  -1    0.74    2.74
 -16  -4   1    0.22    2.31
 -16   4   1    1.60    1.34
 -14  -4   1   43.02    4.62
  14  -4  -1   30.72    4.74
 -14   4   1   40.78    3.05
 -12  -4   1    2.60    2.01
  12  -4  -1    2.74    2.41
 -12  -4   1    0.13    1.15
 -12   4   1   -0.43    0.93
  10  -4  -1   -1.89    1.97
 -10  -4   1    0.55    1.79
 -10  -4   1    0.64    1.04
 -10  -4   1    0.72    1.22
 -10   4   1    0.34    0.93
  -8  -4   1   45.19    4.07
   8  -4  -1   40.58    4.46
  -8  -4   1   47.26    3.32
   8  -4  -1   46.84    2.89
  -8  -4   1   51.22    4.32
  -8  -4   1   41.62    2.99
  -8   4   1   49.27    2.89
   6  -4  -1  172.26    6.65
  -6  -4   1  168.77    6.99
   6  -4  -1  175.87    8.54
  -6  -4   1  157.09    7.70
  -6  -4   1  167.66    6.97
  -6  -4   1  173.82    7.72
  -6   4   1  171.72    6.58
  -6   4   1  169.93    7.26
   4  -4  -1    3.95    1.07
   4  -4  -1    3.27    1.29
  -4  -4   1    4.32    1.54
   4  -4  -1    2.16    1.65
  -4  -4   1    9.16    2.12
  -4  -4   1    2.71    1.28
   4  -4  -1    5.80    2.04
  -4  -4   1    4.62    1.48
  -4   4   1    4.74    0.98
   4   4  -1    2.25    1.11
   2  -4  -1   33.39    2.46
   2  -4  -1   27.19    3.14
  -2  -4   1   34.23    2.71
   2  -4  -1   34.05    3.08
  -2  -4   1   32.08    3.01
  -2  -4   1   39.54    3.12
  -2  -4   1   30.05    3.24
   2  -4  -1   34.85    2.49
   2   4  -1   35.08    2.58
   0  -4  -1   12.79    1.67
   0  -4  -1   11.93    1.60
   0  -4   1    6.14    1.99
   0  -4  -1   10.74    2.11
   0  -4  -1   11.91    1.32
   0  -4   1   14.40    1.77
   0  -4   1   13.55    2.32
   0   4  -1   13.46    1.47
  -2  -4  -1    1.52    1.07
   2  -4   1   -0.94    1.59
  -2  -4  -1    1.44    1.41
   2  -4   1    0.01    0.87
   2  -4   1   -0.29    1.38
  -2   4  -1   -1.08    0.90
  -2   4  -1    0.40    0.75
   4  -4   1   13.51    1.67
  -4  -4  -1   12.90    2.15
   4  -4   1    8.32    2.31
  -4  -4  -1    8.25    1.64
   4  -4   1    6.75    2.14
  -4   4  -1    8.76    1.33
  -4   4  -1    9.87    1.68
   6  -4   1   14.50    3.04
  -6  -4  -1    9.72    1.95
  -6  -4  -1   10.82    2.08
  -6   4  -1    9.59    1.37
  -6   4  -1   10.68    1.87
   8  -4   1   -0.23    2.05
  -8  -4  -1   -2.96    1.38
  -8  -4  -1   -0.45    1.50
  -8   4  -1    0.26    1.39
  -8   4  -1   -1.20    0.77
  10  -4   1   11.27    3.39
 -10  -4  -1   13.52    2.45
 -10   4  -1   15.40    1.88
 -12  -4  -1   51.76    4.53
  12  -4   1   57.59    6.28
 -12   4  -1   48.92    3.22
 -14  -4  -1   -1.13    1.85
  14  -4   1    1.22    2.86
 -14   4  -1   -0.63    1.15
 -16  -4  -1   14.19    3.28
  16  -4   1   16.34    4.04
 -16   4  -1   17.25    2.38
 -18  -4  -1    3.29    2.61
 -18   4  -1    0.74    1.52
 -20  -4  -1    5.57    3.08
 -22  -4  -1   36.02    5.29
 -22   4  -1   37.92    4.17
  21  -5  -1   -2.85    3.00
 -21  -5   1    2.61    3.04
 -19  -5   1   -0.21    2.76
  19  -5  -1    2.93    3.25
  17  -5  -1    1.68    2.94
 -17  -5   1    1.65    2.56
 -15  -5   1   10.38    3.11
  15  -5  -1    5.40    3.29
  13  -5  -1   47.35    5.69
 -13  -5   1   43.78    4.83
 -11  -5   1   16.53    3.18
  11  -5  -1   12.01    3.44
  -9  -5   1    1.20    1.81
   9  -5  -1    0.52    2.13
  -7  -5   1   25.51    2.18
  -7  -5   1   26.71    2.28
  -7  -5   1   26.38    3.58
   7  -5  -1   21.75    3.47
   5  -5  -1   -0.29    1.82
  -5  -5   1    0.81    1.36
  -5  -5   1   -0.49    1.26
  -5  -5   1   -1.13    1.70
   5  -5  -1    1.50    1.10
  -3  -5   1    0.29    1.23
   3  -5  -1   -0.18    1.54
   3  -5  -1    1.72    1.10
  -3  -5   1   -0.57    1.49
   3  -5  -1   -0.56    1.68
  -3  -5   1    2.30    1.90
  -1  -5   1    1.72    1.72
   1  -5  -1    2.73    1.36
  -1  -5   1    0.64    1.27
   1  -5  -1   -1.25    0.92
  -1  -5   1    1.57    1.95
   1  -5  -1   -0.45    1.70
   1  -5   1   14.61    2.77
  -1  -5  -1   18.22    2.90
   1  -5   1   24.84    3.26
   1  -5   1   17.82    2.13
  -3  -5  -1   81.88    5.22
   3  -5   1   92.84    5.85
  -3  -5  -1   94.03    4.94
   3  -5   1   69.65    5.94
   5  -5   1   70.48    6.13
  -5  -5  -1   69.95    4.91
   7  -5   1   45.86    5.23
  -7  -5  -1   44.82    4.22
   9  -5   1   -1.58    2.36
  -9  -5  -1    2.86    1.96
  -9   5  -1    1.14    1.13
 -11  -5  -1    1.82    2.03
  11  -5   1    6.36    3.21
 -11   5  -1    4.22    1.39
  13  -5   1   22.97    4.61
 -13  -5  -1   15.80    3.05
 -13   5  -1   14.91    2.19
  15  -5   1   24.09    4.88
 -15  -5  -1   22.21    3.78
 -15   5  -1   24.03    2.85
  17  -5   1   13.11    4.24
 -17  -5  -1   11.21    3.32
 -17   5  -1    9.51    2.19
 -19  -5  -1    4.38    2.99
 -19   5  -1    5.05    1.95
 -18  -6   1    4.03    3.14
  18  -6  -1   12.02    3.97
 -16  -6   1   11.11    3.55
  16  -6  -1   10.06    3.88
 -14  -6   1    1.92    2.57
  14  -6  -1   -2.32    2.50
 -12  -6   1    7.46    2.92
  12  -6  -1    4.59    2.87
 -10  -6   1    3.30    2.49
  10  -6  -1    0.77    2.50
  -8  -6   1   -1.36    1.95
   8  -6  -1    2.89    2.36
   6  -6  -1   25.90    3.53
  -6  -6   1   24.78    3.80
   4  -6  -1   45.40    3.25
  -4  -6   1   39.83    3.00
   4  -6  -1   42.29    3.77
  -4  -6   1   40.46    4.65
  -4  -6   1   41.00    3.33
  -2  -6   1   -0.96    1.91
  -2  -6   1   -1.11    1.67
   2  -6  -1    0.50    1.23
   2  -6  -1    1.18    1.08
  -2  -6   1    0.85    1.34
   2  -6  -1    1.28    2.08
   0  -6   1    9.55    1.95
   0  -6   1    9.67    2.73
   0  -6  -1    8.58    2.72
   0  -6   1    7.16    2.40
   2  -6   1    4.32    2.48
  -2  -6  -1    2.65    2.20
   2  -6   1    1.33    2.02
   4  -6   1   36.75    4.62
  -4  -6  -1   38.92    4.38
  -6  -6  -1    2.92    2.25
   6  -6   1    0.86    2.58
  -8  -6  -1   14.63    3.19
   8  -6   1   13.86    3.69
  10  -6   1    4.07    3.13
 -10  -6  -1    1.25    2.25
 -12  -6  -1   19.42    3.66
  12  -6   1   23.03    4.74
  14  -6   1    7.32    3.71
 -14  -6  -1    7.99    3.06
 -16  -6  -1    0.41    2.76
  16  -6   1    2.14    3.38
 -18  -6  -1   -0.01    2.83
  18  -6   1    2.33    3.51
  15  -7  -1    0.27    2.80
 -15  -7   1    8.63    3.49
 -13  -7   1   14.30    3.95
  13  -7  -1   20.08    4.00
  11  -7  -1    3.20    2.70
 -11  -7   1    3.63    2.97
   9  -7  -1   -0.22    2.18
  -9  -7   1    0.53    2.53
   7  -7  -1    5.30    2.19
  -7  -7   1    8.04    2.97
   5  -7  -1   -0.08    1.57
  -5  -7   1   -1.96    2.07
  -3  -7   1    0.67    2.35
   3  -7  -1    0.07    2.19
   1  -7  -1   -1.33    2.20
  -1  -7   1   -1.87    2.03
  -1  -7   1    0.40    1.63
  -1  -7   1   -0.04    1.29
   1  -7   1    6.50    2.34
   1  -7   1    3.47    2.52
  -1  -7  -1    7.46    3.02
  -3  -7  -1   26.49    4.18
   3  -7   1   25.89    3.88
   3  -7   1   35.09    4.88
  -5  -7  -1   14.72    3.35
   5  -7   1   12.28    3.25
   7  -7   1   17.48    4.00
  -7  -7  -1   20.50    3.89
   9  -7   1    2.07    2.83
  -9  -7  -1    1.19    2.49
 -11  -7  -1   -1.76    2.46
  11  -7   1   -2.08    2.76
 -13  -7  -1   11.72    3.62
  13  -7   1    9.59    3.90
  15  -7   1   26.11    5.19
 -15  -7  -1    4.99    3.48
  12  -8  -1    0.64    2.43
 -10  -8   1   -2.40    2.60
  10  -8  -1   -0.23    1.96
   8  -8  -1    5.21    2.07
  -8  -8   1    0.14    3.04
  -6  -8   1   39.18    5.55
  -4  -8   1    0.35    2.71
   2  -8  -1    1.82    2.68
  -2  -8   1    7.83    3.29
   0  -8   1    2.91    2.90
   0  -8  -1    2.39    2.77
  -2  -8  -1   -3.01    2.58
   2  -8   1    1.10    1.79
   2  -8   1   -0.94    2.49
  -4  -8  -1   -0.61    2.59
   4  -8   1    1.13    2.07
  -6  -8  -1    4.34    3.14
   6  -8   1    3.47    2.60
  -8  -8  -1    2.53    2.80
   8  -8   1   -0.60    2.54
 -10  -8  -1    1.32    2.84
  10  -8   1    0.81    2.95
 -24   0   2   10.39    2.36
 -22   0   2    4.18    2.58
 -22   0   2    2.19    1.66
 -20   0   2   14.65    3.16
 -20   0   2   20.97    2.67
 -18   0   2   -1.19    1.24
 -18   0   2    4.90    2.22
  16   0  -2   19.09    3.55
 -16   0   2   21.39    3.20
 -16   0   2   18.66    2.36
 -14   0   2    0.28    1.82
 -14   0   2   -0.73    1.58
  14   0  -2    1.58    2.38
 -14   0   2    3.09    1.30
  14   0  -2    2.10    2.08
 -12   0   2  143.47    6.06
  12   0  -2  142.03    7.89
  12   0  -2  123.22    7.43
 -12   0   2  148.87    6.72
 -10   0   2    1.91    1.37
  10   0  -2    1.57    1.63
 -10   0   2    2.70    0.99
  10   0  -2    2.41    2.17
   8   0  -2  523.05   20.41
  -8   0   2  560.48   19.38
   8   0  -2  559.62   19.63
  -8   0   2  570.88   18.64
   6   0  -2    2.37    1.92
   6   0  -2    1.40    1.26
  -6   0   2    2.83    1.13
  -6   0   2    2.52    0.82
  -4   0   2    1.57    0.62
   4   0  -2    2.13    0.61
   4   0  -2    1.96    0.88
  -4   0   2    1.80    0.80
   4   0  -2    0.30    1.44
  -2   0   2    0.75    0.42
   2   0  -2    1.11    0.62
  -2   0   2    1.50    0.62
   2   0  -2    1.13    0.46
   2   0  -2    1.05    0.43
   2   0  -2    1.65    0.91
   0   0  -2   41.77    1.86
   0   0  -2   40.49    1.50
   0   0  -2   40.75    1.81
   0   0  -2   42.87    1.43
  -2   0  -2   62.87    2.26
  -2   0  -2   58.02    2.14
  -2   0  -2   58.82    2.34
  -4   0  -2    5.74    0.69
  -4   0  -2    6.91    0.93
  -4   0  -2    6.89    0.91
  -6   0  -2   44.50    2.19
  -6   0  -2   48.74    2.75
  -6   0  -2   45.01    2.41
   8   0   2   75.65    4.67
  -8   0  -2   78.49    3.30
  -8   0  -2   70.61    3.89
  -8   0  -2   73.46    3.76
 -10   0  -2  166.46    6.42
 -10   0  -2  168.60    7.13
  10   0   2  165.48    8.06
 -10   0  -2  172.85    7.17
 -12   0  -2    2.28    1.38
 -12   0  -2    4.34    1.13
  12   0   2    5.18    2.20
 -12   0  -2    3.82    1.71
 -14   0  -2   51.74    3.94
 -14   0  -2   69.67    4.42
 -14   0  -2   62.92    3.47
 -16   0  -2   54.45    3.34
 -16   0  -2   48.64    4.49
 -16   0  -2   64.28    4.41
 -18   0  -2   22.26    2.34
 -18   0  -2   25.28    3.48
 -20   0  -2    9.86    1.80
 -20   0  -2    6.03    2.42
 -22   0  -2   34.38    4.40
 -22   0  -2   31.45    2.67
 -24   0  -2    3.17    2.45
 -25  -1   2    1.31    1.68
 -25   1   2    1.14    1.78
 -23  -1   2   -0.49    2.34
 -23  -1   2   -0.59    1.57
 -23   1   2    1.23    1.72
 -21  -1   2   -1.46    1.43
 -21  -1   2    0.65    2.40
 -21   1   2   -0.74    1.48
 -19  -1   2  100.40    6.60
 -19  -1   2   95.14    5.55
 -19   1   2  110.17    5.74
 -19   1   2  107.27    6.51
  17  -1  -2    1.43    2.49
 -17  -1   2    0.21    1.80
 -17  -1   2    2.06    1.39
 -17   1   2    2.17    1.33
 -17   1   2    2.12    1.81
 -15  -1   2   10.88    1.89
  15  -1  -2   13.02    3.12
 -15  -1   2   14.85    2.75
  15  -1  -2    8.47    3.24
  15   1  -2    7.53    2.79
 -15   1   2   10.52    1.80
 -15   1   2   10.74    2.37
 -13  -1   2   12.31    2.51
 -13  -1   2   15.07    1.98
  13  -1  -2   14.08    3.57
  13  -1  -2   14.92    3.02
 -13  -1   2   15.64    2.54
 -13   1   2   15.51    2.44
  13   1  -2   16.89    3.10
  13   1  -2   10.74    2.67
 -13   1   2   11.54    1.71
 -11  -1   2    1.11    1.01
 -11  -1   2    1.76    1.48
  11  -1  -2    1.13    1.84
 -11  -1   2    0.47    1.47
  11  -1  -2    0.89    2.27
  11   1  -2    2.71    1.97
 -11   1   2    0.52    1.30
  11   1  -2   -0.71    1.54
   9  -1  -2   87.89    5.48
   9  -1  -2   92.84    5.92
  -9  -1   2   90.18    4.16
  -9  -1   2   87.67    4.88
  -9  -1   2   84.44    4.46
   9   1  -2   83.57    5.03
  -9   1   2   85.75    3.82
  -9   1   2   82.52    4.35
   9   1  -2   81.19    5.05
   7  -1  -2   23.90    2.63
  -7  -1   2   30.43    2.23
  -7  -1   2   26.66    2.36
  -7  -1   2   31.36    2.60
  -7   1   2   29.28    1.79
   7   1  -2   30.56    2.56
  -7   1   2   26.75    2.34
   7   1  -2   32.02    3.01
   5  -1  -2   26.39    2.10
  -5  -1   2   24.52    1.88
   5  -1  -2   25.44    1.56
   5  -1  -2   31.94    2.50
  -5  -1   2   28.07    2.12
  -5  -1   2   29.16    2.26
  -5   1   2   26.89    2.08
  -5   1   2   29.16    1.59
   5   1  -2   27.23    2.48
   5   1  -2   29.05    2.21
  -3  -1   2   36.35    2.22
  -3  -1   2   41.44    2.35
   3  -1  -2   40.53    2.06
   3  -1  -2   36.39    2.16
   3  -1  -2   36.81    1.57
   3   1  -2   34.58    2.33
  -3   1   2   35.93    1.58
  -3   1   2   36.17    1.86
   3   1  -2   35.64    2.27
   1  -1  -2   34.24    1.62
  -1  -1   2   40.16    2.25
   1  -1  -2   37.35    1.52
  -1  -1   2   36.56    2.16
   1   1  -2   36.38    1.80
   1   1  -2   34.14    2.01
   1  -1   2    5.32    1.03
   1  -1   2    3.70    1.10
  -1   1  -2    5.71    0.88
  -1   1  -2    4.37    0.63
  -1   1  -2    5.63    1.02
  -3  -1  -2   23.85    1.62
  -3  -1  -2   19.24    1.08
   3  -1   2   23.40    1.98
  -3   1  -2   21.15    1.60
  -3   1  -2   20.76    1.81
  -3   1  -2   18.27    1.30
   5  -1   2   10.19    1.72
  -5  -1  -2    6.40    1.70
  -5  -1  -2    6.13    1.03
  -5   1  -2    6.44    1.40
  -5   1  -2    6.01    1.08
  -5   1  -2    6.25    0.84
   7  -1   2   55.64    4.10
  -7  -1  -2   57.65    3.09
  -7  -1  -2   65.12    4.50
  -7   1  -2   56.93    2.72
  -7   1  -2   59.87    3.79
  -7   1  -2   59.95    3.13
  -9  -1  -2   78.97    3.20
  -9  -1  -2   83.57    4.04
   9  -1   2   66.28    5.04
  -9   1  -2   72.62    4.01
  -9   1  -2   75.91    4.71
  -9   1  -2   79.64    3.56
 -11  -1  -2   11.75    1.23
 -11  -1  -2   13.10    2.10
 -11  -1  -2   12.80    1.40
  11  -1   2    8.92    2.85
  11  -1   2   11.67    2.73
 -11   1  -2   11.31    2.18
 -11   1  -2   12.54    2.17
 -11   1  -2   11.96    1.51
 -13  -1  -2   11.76    1.36
 -13  -1  -2   10.30    1.47
 -13  -1  -2   13.09    2.38
 -13   1  -2   10.66    2.23
 -13   1  -2    8.40    1.54
 -13   1  -2   11.63    2.32
 -15  -1  -2   24.51    2.15
 -15  -1  -2   29.32    2.11
 -15  -1  -2   28.61    3.32
 -15   1  -2   26.43    2.49
 -15   1  -2   23.65    3.12
 -17  -1  -2    5.77    1.32
 -17  -1  -2    3.02    1.99
 -17   1  -2    3.20    2.05
 -17   1  -2    8.99    1.75
 -19  -1  -2   -0.62    1.85
 -19   1  -2   -1.93    1.13
 -19   1  -2   -0.62    1.91
 -21  -1  -2    6.41    2.76
 -21   1  -2   13.70    3.20
 -21   1  -2   10.61    2.03
 -23  -1  -2   18.49    3.66
 -23   1  -2   11.49    3.35
 -23   1  -2   15.99    2.34
 -26  -2   2   37.70    3.19
 -26   2   2   35.65    4.21
 -24  -2   2    3.87    3.08
 -24  -2   2    6.23    1.88
 -24   2   2    4.62    2.13
 -22  -2   2    3.13    2.79
 -22  -2   2    1.73    1.63
 -22   2   2    5.09    2.01
 -20  -2   2    2.55    2.39
 -20  -2   2    5.70    1.78
 -20   2   2    1.26    1.60
 -18  -2   2   38.22    3.42
 -18  -2   2   40.83    4.70
  18  -2  -2   45.62    5.60
 -18   2   2   37.19    3.44
 -16  -2   2   31.44    3.07
  16  -2  -2   27.51    4.32
 -16  -2   2   29.30    3.90
 -16   2   2   33.37    3.73
 -16   2   2   30.93    2.87
  14  -2  -2    4.43    2.54
 -14  -2   2    6.72    1.66
 -14  -2   2    2.13    1.86
  14  -2  -2    7.61    3.24
 -14  -2   2    7.11    2.27
 -14   2   2    4.53    1.95
 -14   2   2    2.44    1.19
 -12  -2   2   21.52    2.77
 -12  -2   2   21.58    2.87
 -12  -2   2   19.13    2.23
  12  -2  -2   18.61    3.27
 -12   2   2   22.07    2.76
 -12   2   2   18.27    1.86
  12   2  -2   22.95    3.03
  10  -2  -2  139.32    7.58
 -10  -2   2  145.30    6.81
 -10  -2   2  149.06    6.74
 -10  -2   2  144.29    6.14
  10   2  -2  141.88    6.89
 -10   2   2  138.59    5.69
 -10   2   2  141.01    6.54
  10   2  -2  143.48    6.79
   8  -2  -2   98.61    6.00
  -8  -2   2  106.88    4.86
   8  -2  -2  110.34    4.24
  -8  -2   2   99.34    5.07
  -8  -2   2  109.61    5.30
  -8   2   2  105.46    4.96
  -8   2   2  105.33    4.28
   8   2  -2  106.91    5.20
   8   2  -2   98.47    5.18
   6  -2  -2    8.93    1.89
  -6  -2   2    4.99    1.34
  -6  -2   2    8.60    1.59
  -6  -2   2    5.06    1.23
   6  -2  -2    7.04    0.89
  -6   2   2    6.16    1.37
   6   2  -2    5.51    1.35
   6   2  -2    9.36    1.54
  -6   2   2    6.99    0.91
   4  -2  -2    3.29    0.64
  -4  -2   2    2.39    1.02
  -4  -2   2    2.46    1.29
  -4  -2   2    1.14    1.02
   4  -2  -2    3.46    1.27
   4  -2  -2    4.22    1.08
   4   2  -2    4.00    1.15
   4   2  -2    3.66    1.07
  -4   2   2    4.64    0.68
   2  -2  -2   54.24    2.88
   2  -2  -2   50.82    2.15
  -2  -2   2   52.31    3.03
   2  -2  -2   56.33    2.58
  -2  -2   2   57.13    3.14
  -2  -2   2   53.44    3.27
   2   2  -2   51.01    2.74
   2   2  -2   56.55    2.80
   0  -2   2  104.48    5.13
   0  -2   2  128.95    5.18
   0  -2  -2  114.77    4.18
   0  -2  -2  117.39    4.48
   0   2  -2  114.58    4.63
   0   2  -2  115.53    4.44
  -2  -2  -2  363.78   12.25
   2  -2   2  381.71   13.55
  -2  -2  -2  361.80   12.38
   2  -2   2  368.94   13.23
  -2   2  -2  366.19   12.82
  -2   2  -2  367.10   12.36
   4  -2   2   35.62    3.05
  -4  -2  -2   32.96    1.83
  -4  -2  -2   31.45    1.98
  -4   2  -2   31.84    2.15
  -4   2  -2   31.75    1.91
   6  -2   2   43.45    3.76
  -6  -2  -2   40.88    2.40
  -6  -2  -2   36.61    2.83
  -6   2  -2   41.46    2.27
  -6   2  -2   38.85    2.58
  -8  -2  -2  137.44    6.23
  -8  -2  -2  158.00    7.13
   8  -2   2  154.29    7.81
  -8   2  -2  157.24    5.94
  -8   2  -2  158.17    6.52
 -10  -2  -2    4.26    2.50
 -10  -2  -2    7.61    1.79
  10  -2   2    8.43    2.45
 -10   2  -2    8.31    2.16
 -10   2  -2    7.38    1.30
 -10   2  -2    6.59    1.74
  12  -2   2   39.80    4.67
 -12  -2  -2   30.31    4.27
 -12  -2  -2   37.29    3.40
 -12   2  -2   32.42    2.46
 -12   2  -2   32.54    3.42
 -14  -2  -2   17.96    2.81
 -14   2  -2   13.81    2.64
 -16  -2  -2   31.68    3.69
 -16   2  -2   35.40    3.06
 -16   2  -2   29.36    3.74
 -18  -2  -2   19.55    3.21
 -18   2  -2   11.37    2.76
 -18   2  -2   17.72    2.39
 -20  -2  -2   30.67    4.23
 -20   2  -2   33.27    3.33
 -20   2  -2   30.02    4.26
 -22  -2  -2    2.98    2.59
 -22   2  -2    1.77    1.71
 -25  -3   2   -1.37    2.74
 -25   3   2    0.72    2.09
 -23  -3   2   -1.70    2.47
 -23   3   2    2.02    1.97
 -21  -3   2   -0.62    1.21
 -21  -3   2   -1.79    2.34
  21  -3  -2    2.68    3.03
 -21   3   2   -1.16    1.58
 -19  -3   2   73.16    4.20
  19  -3  -2   69.27    7.10
 -19  -3   2   56.46    5.97
 -17  -3   2    2.44    1.50
  17  -3  -2    0.81    2.51
 -17  -3   2    3.65    2.52
 -17   3   2    4.82    1.55
 -15  -3   2   10.74    2.69
 -15  -3   2    7.58    1.77
 -15  -3   2    6.35    2.15
  15  -3  -2   13.61    3.39
 -15   3   2    8.31    1.63
 -13  -3   2    1.25    1.80
  13  -3  -2    9.14    2.83
 -13  -3   2    3.86    2.02
 -13  -3   2    4.63    1.52
 -13   3   2    5.82    1.36
 -11  -3   2   -1.67    1.35
  11  -3  -2    1.03    2.01
 -11  -3   2    0.01    1.12
 -11  -3   2   -0.63    1.59
 -11   3   2    0.91    0.89
 -11   3   2    0.92    1.41
  -9  -3   2   67.77    4.80
  -9  -3   2   76.01    4.51
   9  -3  -2   66.13    3.34
   9  -3  -2   65.20    5.34
  -9  -3   2   65.07    4.28
  -9  -3   2   67.01    3.89
  -9   3   2   69.98    4.04
  -9   3   2   68.77    3.39
   9   3  -2   66.06    4.45
  -7  -3   2   39.23    3.47
  -7  -3   2   36.40    3.03
   7  -3  -2   30.41    3.29
  -7  -3   2   34.02    3.14
  -7  -3   2   34.23    2.72
   7  -3  -2   34.86    2.17
  -7   3   2   34.03    2.14
   7   3  -2   36.63    2.98
  -7   3   2   35.84    2.94
  -5  -3   2    6.90    1.82
  -5  -3   2    7.23    1.47
   5  -3  -2   11.09    1.54
   5  -3  -2    5.37    1.71
   5  -3  -2    8.98    1.06
  -5  -3   2   11.79    1.91
  -5  -3   2   10.76    1.70
  -5   3   2    9.42    1.06
   5   3  -2    8.86    1.45
   5   3  -2    9.84    1.49
  -3  -3   2   53.23    3.61
   3  -3  -2   59.01    2.67
  -3  -3   2   52.61    3.37
   3  -3  -2   58.25    3.25
  -3  -3   2   49.69    3.45
   3  -3  -2   49.83    3.41
   3  -3  -2   58.84    2.87
   3   3  -2   57.34    3.16
   3   3  -2   55.75    3.00
  -1  -3   2   12.07    1.97
   1  -3  -2   13.95    1.82
   1  -3  -2   13.18    1.33
  -1  -3   2   14.17    1.96
  -1  -3   2   15.91    1.69
   1   3  -2   16.61    1.48
   1   3  -2   17.16    1.66
   1  -3   2   -0.44    1.21
   1  -3   2    0.40    1.27
  -1  -3  -2    1.82    1.15
  -1  -3  -2    0.58    0.68
  -1   3  -2    0.48    0.67
  -1   3  -2    1.60    0.90
   3  -3   2    2.88    1.58
  -3  -3  -2    6.05    1.11
  -3  -3  -2    5.86    1.31
   3  -3   2    4.07    1.69
  -3   3  -2    6.61    1.04
  -3   3  -2    8.07    1.36
   5  -3   2    5.67    2.03
  -5  -3  -2    6.33    1.31
  -5  -3  -2    5.76    1.29
  -5   3  -2    4.63    1.30
  -5   3  -2    6.26    1.04
  -7  -3  -2   25.26    2.40
  -7  -3  -2   29.31    2.79
   7  -3   2   24.47    3.40
  -7   3  -2   23.51    1.97
  -7   3  -2   26.34    2.52
  -9  -3  -2   65.93    3.86
  -9  -3  -2   66.44    4.55
   9  -3   2   52.82    5.24
  -9   3  -2   57.56    3.82
  -9   3  -2   64.61    3.38
 -11  -3  -2    6.35    2.55
  11  -3   2   10.79    3.02
 -11  -3  -2    5.10    1.91
 -11   3  -2    7.15    1.44
 -11   3  -2    7.85    2.02
 -13  -3  -2    9.77    2.42
  13  -3   2   10.41    3.51
 -13   3  -2   15.79    2.02
 -13   3  -2   10.04    2.44
 -15  -3  -2   16.26    3.03
 -15   3  -2   21.79    3.27
 -15   3  -2   22.01    2.52
 -17  -3  -2    3.36    2.29
 -17   3  -2    0.84    1.38
 -19  -3  -2    2.36    2.57
 -19   3  -2    2.52    1.77
 -21  -3  -2   15.44    3.68
 -21   3  -2   13.16    2.56
 -23  -3  -2    6.63    3.11
 -23   3  -2    8.35    2.34
  22  -4  -2    5.75    3.79
 -22  -4   2   -1.64    2.86
 -20  -4   2   10.80    3.37
  20  -4  -2    9.80    3.81
  18  -4  -2    1.25    2.92
 -18  -4   2    1.46    2.64
 -18  -4   2    2.20    1.44
 -16  -4   2   10.95    2.13
  16  -4  -2    9.17    3.33
 -16  -4   2    7.26    1.58
 -16  -4   2   11.34    3.04
  14  -4  -2    0.93    2.39
 -14  -4   2   -0.43    1.76
 -14  -4   2    0.07    1.62
 -14  -4   2    1.22    1.26
 -12  -4   2   62.08    3.88
 -12  -4   2   66.14    4.96
  12  -4  -2   84.58    6.82
 -12  -4   2   76.00    4.83
 -12   4   2   67.13    3.74
 -10  -4   2    1.77    1.87
 -10  -4   2    1.52    1.49
 -10  -4   2    0.24    1.19
  10  -4  -2    0.86    2.01
 -10   4   2    2.20    1.01
   8  -4  -2  203.26    9.61
  -8  -4   2  196.89    8.34
  -8  -4   2  218.40    8.78
  -8  -4   2  198.29    9.31
   8  -4  -2  216.69    7.84
  -8   4   2  208.05    7.88
   6  -4  -2    1.17    0.85
  -6  -4   2    0.65    1.26
  -6  -4   2    2.37    1.37
  -6  -4   2   -0.25    1.37
   6  -4  -2    2.79    1.27
   6  -4  -2    1.83    1.62
  -6  -4   2    2.03    1.69
   6   4  -2    2.16    1.20
  -6   4   2    1.62    0.80
  -4  -4   2   -2.09    1.57
  -4  -4   2   -0.52    1.27
  -4  -4   2   -0.18    1.11
   4  -4  -2   -1.94    0.79
   4  -4  -2    1.24    0.88
   4  -4  -2   -0.28    1.21
   4   4  -2    0.28    0.91
   2  -4  -2    1.12    0.99
  -2  -4   2   -0.71    1.40
   2  -4  -2   -0.95    0.65
  -2  -4   2    1.95    1.41
  -2  -4   2   -0.24    1.05
   2  -4  -2    0.44    1.45
   2   4  -2    0.30    0.82
   2   4  -2    0.35    0.94
   0  -4  -2   16.02    1.65
   0  -4   2   13.33    2.40
   0  -4  -2   17.95    2.29
   0  -4   2   15.11    2.54
   0  -4   2   16.43    1.95
   0   4  -2   18.25    1.77
   0   4  -2   15.59    1.81
   2  -4   2   21.89    2.11
   2  -4   2   15.44    2.65
  -2  -4  -2   21.48    2.03
  -2  -4  -2   21.00    2.52
   2  -4   2   18.93    2.83
  -2   4  -2   22.97    2.22
  -2   4  -2   27.33    2.13
   4  -4   2    2.50    1.77
  -4  -4  -2   -0.06    1.27
   4  -4   2   -1.83    1.65
  -4  -4  -2   -0.08    1.06
  -4   4  -2    0.38    0.84
  -4   4  -2    0.95    1.07
   6  -4   2   21.46    3.44
  -6  -4  -2   21.27    2.56
  -6  -4  -2   24.01    2.55
  -6   4  -2   23.97    2.08
  -6   4  -2   21.52    2.40
  -8  -4  -2   39.83    3.57
  -8  -4  -2   31.99    3.17
   8  -4   2   35.88    4.50
  -8   4  -2   30.94    2.55
  -8   4  -2   33.91    3.19
 -10  -4  -2   75.59    5.25
 -10  -4  -2   68.61    4.52
  10  -4   2   61.08    6.23
 -10   4  -2   74.47    4.59
 -10   4  -2   70.93    3.91
 -12  -4  -2    2.29    1.92
  12  -4   2   -1.65    2.57
 -12   4  -2    0.17    1.07
 -14  -4  -2   31.76    3.83
  14  -4   2   33.40    5.32
 -14   4  -2   28.27    2.89
 -16  -4  -2   30.87    4.23
 -16   4  -2   27.65    2.94
 -18  -4  -2   16.91    3.53
 -18   4  -2   14.37    2.50
 -20  -4  -2    3.55    3.00
 -21  -5   2   -3.17    2.72
  21  -5  -2   -2.93    2.94
  19  -5  -2   55.96    6.59
 -19  -5   2   36.42    5.35
  17  -5  -2   -1.48    2.57
 -17  -5   2    6.45    3.05
  15  -5  -2    2.62    2.76
 -15  -5   2    2.60    2.58
  13  -5  -2   11.35    3.32
 -13  -5   2   10.25    1.77
 -13  -5   2    6.70    2.61
 -11  -5   2    0.66    2.01
  11  -5  -2    5.87    2.59
 -11  -5   2    3.37    1.40
 -11  -5   2    1.65    1.51
  -9  -5   2   13.68    2.11
   9  -5  -2   23.71    3.50
  -9  -5   2   18.13    2.34
  -9  -5   2   24.39    3.57
  -7  -5   2    2.41    2.11
  -7  -5   2    2.51    1.58
  -7  -5   2    2.82    1.65
   7  -5  -2    0.68    1.02
   7  -5  -2   -0.39    1.70
  -5  -5   2    5.96    2.23
  -5  -5   2    2.20    1.71
  -5  -5   2    7.77    1.85
   5  -5  -2    4.85    1.25
   5  -5  -2    4.47    1.80
   3  -5  -2   15.99    1.52
  -3  -5   2   10.05    2.60
   3  -5  -2   11.76    2.59
  -3  -5   2   15.73    2.25
  -3  -5   2   12.72    2.43
  -1  -5   2   16.41    2.99
  -1  -5   2   21.75    3.14
  -1  -5   2   27.34    2.67
   1  -5  -2   19.75    2.97
   1  -5  -2   25.97    2.44
  -1  -5  -2   -0.17    1.67
   1  -5   2    1.66    1.83
   1  -5   2   -0.07    1.85
  -1  -5  -2   -1.32    1.12
   3  -5   2   10.85    2.80
  -3  -5  -2   14.73    2.56
   3  -5   2   13.15    2.80
  -3  -5  -2   16.23    2.20
  -3   5  -2   16.17    1.88
  -5  -5  -2    2.07    1.84
   5  -5   2    2.37    2.29
  -5  -5  -2    1.29    1.51
  -5   5  -2    2.52    1.14
   7  -5   2   35.88    4.79
  -7  -5  -2   27.38    3.34
  -7   5  -2   27.13    2.53
  -9  -5  -2   25.44    3.37
   9  -5   2   17.76    3.96
  -9   5  -2   27.44    2.62
 -11  -5  -2    1.75    2.18
  11  -5   2   -1.22    2.82
 -11   5  -2    1.33    1.25
  13  -5   2    2.19    3.30
 -13  -5  -2    2.02    2.11
 -13   5  -2    5.10    1.61
 -15  -5  -2   12.85    3.21
  15  -5   2   13.10    4.01
 -15   5  -2   13.25    2.27
 -17  -5  -2   -0.53    2.48
 -17   5  -2    1.52    1.57
 -19  -5  -2    0.07    2.84
 -19   5  -2   -0.36    1.48
  18  -6  -2    8.89    3.75
 -18  -6   2    8.20    3.53
  16  -6  -2   12.99    3.73
 -16  -6   2    4.38    2.98
 -14  -6   2   -0.12    2.41
  14  -6  -2    3.87    2.85
 -12  -6   2    3.94    2.79
  12  -6  -2    4.88    2.66
  10  -6  -2   46.63    4.81
 -10  -6   2   40.73    4.98
  -8  -6   2   27.09    4.12
   8  -6  -2   21.92    3.25
  -8  -6   2   27.69    2.57
   6  -6  -2    1.10    1.18
  -6  -6   2    3.19    1.67
  -6  -6   2    2.68    2.30
   6  -6  -2    5.82    1.78
  -6  -6   2    4.63    1.86
  -4  -6   2    2.54    1.50
   4  -6  -2    0.79    0.93
  -4  -6   2    2.56    1.91
  -4  -6   2    2.47    2.11
  -2  -6   2   10.09    2.89
   2  -6  -2   11.84    2.82
  -2  -6   2    5.71    2.32
   0  -6  -2    7.39    2.61
   0  -6   2    9.50    2.96
   0  -6   2    9.96    2.77
   2  -6   2   53.31    5.56
  -2  -6  -2   57.07    5.14
   2  -6   2   65.84    5.95
  -4  -6  -2    9.79    2.64
   4  -6   2    1.66    2.13
   4  -6   2    4.20    2.69
  -6  -6  -2   10.10    2.80
   6  -6   2   11.89    3.50
  -8  -6  -2   39.37    4.52
   8  -6   2   35.90    5.31
 -10  -6  -2   -0.36    1.99
  10  -6   2    1.23    3.03
  12  -6   2    9.47    3.84
 -12  -6  -2   14.34    3.32
 -14  -6  -2    3.86    2.76
  14  -6   2   -5.60    2.75
 -16  -6  -2   12.42    3.64
  16  -6   2   10.30    4.40
 -15  -7   2    2.51    2.96
  15  -7  -2   -1.14    2.44
  13  -7  -2    4.54    2.78
 -13  -7   2    2.73    2.87
  11  -7  -2   -1.75    2.04
 -11  -7   2    1.89    2.85
  -9  -7   2   12.19    3.33
   9  -7  -2   13.60    2.68
   7  -7  -2    5.09    1.43
  -7  -7   2    4.30    2.61
   7  -7  -2    4.79    1.62
  -5  -7   2    2.46    2.57
  -5  -7   2    0.32    1.32
   3  -7  -2    5.27    2.75
  -3  -7   2   20.93    3.95
  -3  -7   2   17.08    2.86
   1  -7  -2    4.55    2.57
  -1  -7   2    3.58    2.78
  -1  -7   2    2.53    2.23
   1  -7   2    2.99    2.60
  -1  -7  -2   -0.56    2.08
   1  -7   2    1.51    2.52
   3  -7   2   -1.01    2.58
  -3  -7  -2    2.46    2.35
   3  -7   2   -1.76    2.11
   5  -7   2   -0.33    2.65
  -5  -7  -2    3.27    2.42
  -7  -7  -2    7.86    2.89
   7  -7   2    6.70    3.46
   9  -7   2   20.79    4.74
  -9  -7  -2   20.42    3.87
 -11  -7  -2    2.23    2.71
  11  -7   2    2.48    3.35
  13  -7   2    3.69    3.56
 -13  -7  -2    8.27    3.35
 -12  -8   2    9.15    3.75
  12  -8  -2   12.68    2.64
 -10  -8   2    3.00    2.97
  -8  -8   2   27.66    5.01
  -6  -8   2   -1.72    2.38
  -4  -8   2    0.28    2.82
  -2  -8   2    3.95    3.09
   0  -8   2    5.04    2.24
   0  -8   2   10.39    3.60
   0  -8  -2   -0.95    2.59
   2  -8   2    2.88    2.38
  -2  -8  -2    2.06    2.75
   2  -8   2    3.04    3.06
   4  -8   2   -1.80    2.41
  -4  -8  -2   -0.22    2.65
  -6  -8  -2    5.63    3.13
   6  -8   2    1.70    2.92
   8  -8   2    6.01    3.40
  -8  -8  -2    6.36    3.17
 -10  -8  -2    5.88    3.16
  10  -8   2   10.65    3.79
 -26   0   3   10.99    2.57
 -24   0   3    6.69    2.25
 -22   0   3    1.45    1.63
 -20   0   3   -0.60    1.30
 -20   0   3   -0.12    2.10
 -18   0   3   18.76    3.41
  18   0  -3   17.04    3.91
 -18   0   3   23.98    2.81
  16   0  -3    6.23    2.75
 -16   0   3    7.93    1.78
 -16   0   3    3.62    2.04
  14   0  -3  156.95    8.96
  14   0  -3  161.69    8.82
 -14   0   3  165.40    7.02
 -14   0   3  156.43    7.74
  12   0  -3    3.14    2.43
  12   0  -3    3.02    1.85
 -12   0   3    2.41    1.15
 -12   0   3    4.38    1.72
 -10   0   3    1.68    1.37
 -10   0   3    1.38    0.99
  10   0  -3    2.31    1.63
  10   0  -3    2.27    2.12
  -8   0   3    1.49    1.16
   8   0  -3    2.79    1.98
  -8   0   3   -1.62    0.65
   8   0  -3    0.19    1.23
   6   0  -3   92.84    5.48
  -6   0   3  108.17    4.47
  -6   0   3  101.78    4.20
   6   0  -3   99.64    4.66
   4   0  -3  156.04    6.00
   4   0  -3  160.31    6.79
   4   0  -3  168.76    6.12
  -4   0   3  156.17    5.84
  -4   0   3  169.14    6.14
   4   0  -3  162.95    5.75
  -2   0   3   30.65    1.67
  -2   0   3   29.86    1.88
   2   0  -3   30.84    1.52
   2   0  -3   27.38    2.14
   2   0  -3   28.73    1.85
   2   0  -3   30.21    1.45
   0   0  -3   36.36    1.97
   0   0  -3   37.70    1.93
  -2   0  -3   40.32    1.91
  -4   0  -3    5.64    0.61
  -4   0  -3    4.94    0.70
  -4   0  -3    4.93    0.85
  -6   0  -3  105.28    4.13
  -6   0  -3  102.83    3.90
  -6   0  -3  105.89    4.27
  -8   0  -3   83.23    3.84
  -8   0  -3   83.09    3.48
  -8   0  -3   86.92    3.98
 -10   0  -3  100.48    4.71
 -10   0  -3  102.77    5.04
 -10   0  -3  104.33    4.27
 -12   0  -3   65.74    3.31
 -12   0  -3   67.94    4.18
 -12   0  -3   68.21    3.92
 -14   0  -3    3.72    1.74
 -14   0  -3    5.49    1.24
 -14   0  -3    6.07    1.60
 -16   0  -3   12.48    1.95
 -16   0  -3    9.49    2.38
 -16   0  -3    8.49    1.47
 -18   0  -3    2.08    1.42
 -18   0  -3    2.58    2.13
 -18   0  -3    2.27    1.16
 -20   0  -3    2.35    2.26
 -20   0  -3   -1.15    1.09
 -22   0  -3    4.94    2.70
 -25   1   3   41.70    4.28
 -23  -1   3   62.12    6.55
 -23  -1   3   74.29    5.08
 -23   1   3   82.95    5.38
 -21  -1   3   18.07    3.62
 -21  -1   3   11.15    2.28
 -21   1   3    9.96    2.26
  19  -1  -3   51.53    6.04
 -19  -1   3   55.89    4.18
 -19  -1   3   56.42    5.47
 -19   1   3   48.41    4.00
 -19   1   3   48.91    4.90
 -17  -1   3   10.73    2.77
 -17  -1   3    9.35    2.11
  17  -1  -3   11.55    3.30
 -17   1   3   12.50    1.97
 -17   1   3    8.03    2.29
 -15  -1   3    6.76    2.25
  15  -1  -3   14.34    3.89
  15  -1  -3   13.46    3.19
 -15  -1   3   10.02    1.93
  15   1  -3    7.62    2.68
 -15   1   3    9.29    2.27
 -15   1   3   11.93    1.88
  13  -1  -3   13.19    3.62
 -13  -1   3   14.59    2.52
 -13  -1   3   14.53    2.02
 -13  -1   3   16.96    2.72
  13  -1  -3   11.38    2.80
 -13   1   3   13.83    2.39
  13   1  -3   16.31    3.23
  13   1  -3   18.23    3.11
 -13   1   3   16.01    1.93
  11  -1  -3    5.52    2.64
  11  -1  -3    6.69    2.11
 -11  -1   3    4.48    1.34
 -11  -1   3    4.84    1.75
 -11   1   3    7.57    1.29
  11   1  -3    3.18    1.72
 -11   1   3    6.86    1.73
  11   1  -3    4.56    2.22
  -9  -1   3  147.01    6.25
   9  -1  -3  141.07    6.87
  -9  -1   3  128.72    5.78
   9  -1  -3  138.98    7.66
   9   1  -3  140.31    6.97
   9   1  -3  145.41    6.54
  -9   1   3  139.18    6.06
  -9   1   3  131.22    5.48
  -7  -1   3  134.84    5.77
   7  -1  -3  128.30    6.95
   7  -1  -3  127.88    6.11
  -7  -1   3  134.32    5.59
   7  -1  -3  141.72    5.05
  -7   1   3  144.34    5.19
   7   1  -3  127.38    5.88
  -7   1   3  136.32    5.61
   7   1  -3  131.05    6.36
  -5  -1   3  136.65    5.69
   5  -1  -3  138.84    4.84
   5  -1  -3  137.13    5.50
   5  -1  -3  150.23    5.45
  -5  -1   3  136.34    5.51
  -5   1   3  138.13    4.97
  -5   1   3  135.94    5.35
   5   1  -3  127.23    5.96
   5   1  -3  129.95    5.59
  -3  -1   3   33.67    2.34
   3  -1  -3   32.64    1.62
  -3  -1   3   40.44    2.48
   3  -1  -3   34.55    1.87
   3  -1  -3   33.57    1.36
   3   1  -3   33.52    2.46
   3   1  -3   35.17    2.26
  -1  -1   3   94.31    4.05
   1  -1  -3   88.24    3.22
  -1  -1   3   95.26    3.96
   1   1  -3   87.67    3.45
   1   1  -3   88.62    3.81
   1   1  -3   90.23    3.90
   1  -1   3   77.34    3.65
   1  -1   3   83.01    3.78
  -1   1  -3   74.29    3.76
  -1   1  -3   77.93    3.37
  -1   1  -3   83.14    3.06
  -1   1  -3   74.05    3.53
   3  -1   3  143.35    5.94
  -3  -1  -3  152.66    5.50
  -3  -1  -3  146.93    5.02
  -3   1  -3  161.32    6.26
  -3   1  -3  142.76    5.22
  -3   1  -3  144.45    5.80
  -3   1  -3  142.59    5.62
  -5  -1  -3   29.18    1.67
   5  -1   3   29.36    2.57
  -5  -1  -3   39.60    3.03
  -5   1  -3   30.59    2.36
  -5   1  -3   29.78    2.09
  -5   1  -3   31.08    1.71
  -7  -1  -3    8.43    1.31
   7  -1   3    5.02    1.67
  -7   1  -3    9.54    1.09
  -7   1  -3    7.68    1.33
  -7   1  -3    8.90    1.59
   9  -1   3   98.16    5.86
  -9  -1  -3  104.96    4.82
  -9   1  -3  106.52    5.25
  -9   1  -3  102.90    4.80
  -9   1  -3   95.64    4.27
  11  -1   3   13.30    2.80
 -11  -1  -3   10.96    1.97
 -11   1  -3   16.36    1.75
 -11   1  -3   13.84    2.18
 -11   1  -3    9.65    1.93
 -13  -1  -3   -0.09    1.52
 -13   1  -3    2.74    1.70
 -13   1  -3    2.27    1.57
 -13   1  -3    1.57    1.11
 -15  -1  -3   41.34    3.90
 -15   1  -3   44.17    3.03
 -15   1  -3   37.64    3.93
 -17  -1  -3    1.15    1.88
 -17   1  -3    0.93    1.22
 -17   1  -3    2.14    1.94
 -19  -1  -3    8.38    2.52
 -19   1  -3    6.42    1.64
 -19   1  -3    9.93    2.70
 -21  -1  -3   -2.15    1.97
 -21   1  -3   -0.18    1.23
 -21   1  -3    1.80    2.40
 -23  -1  -3   11.22    3.17
 -23   1  -3   11.66    1.95
 -23   1  -3   12.72    3.37
 -26  -2   3   -0.03    1.62
 -26   2   3   -0.52    1.90
 -24  -2   3   25.90    3.18
 -24  -2   3   24.30    4.63
 -24   2   3   20.62    3.18
 -22  -2   3    3.52    1.87
 -22  -2   3    0.20    2.52
 -22   2   3    6.69    2.10
 -20  -2   3   -1.56    1.43
 -20  -2   3   -0.60    2.16
  20  -2  -3    2.55    2.92
 -20   2   3   -0.53    1.47
 -18  -2   3   -0.44    1.47
  18  -2  -3   -3.16    2.28
 -18  -2   3    3.16    2.37
 -18   2   3    1.26    1.43
 -16  -2   3   52.84    3.95
  16  -2  -3   48.39    6.29
  16  -2  -3   48.36    5.42
 -16  -2   3   50.77    4.90
 -16   2   3   57.55    3.72
 -16   2   3   46.15    4.38
  14  -2  -3   47.80    5.87
 -14  -2   3   50.65    4.56
  14  -2  -3   44.66    4.88
 -14  -2   3   48.23    4.48
 -14  -2   3   49.85    3.85
  14   2  -3   43.48    4.45
 -14   2   3   46.94    3.13
 -14   2   3   48.57    4.21
  12  -2  -3   48.34    4.64
 -12  -2   3   49.61    4.27
 -12  -2   3   52.00    3.68
 -12  -2   3   47.35    4.18
 -12   2   3   47.78    2.91
  12   2  -3   60.71    4.79
 -12   2   3   48.72    3.66
  12   2  -3   55.41    4.62
  10  -2  -3   12.63    1.35
 -10  -2   3    7.19    1.87
 -10  -2   3    8.50    1.69
 -10  -2   3   12.28    2.16
  10  -2  -3    8.42    2.32
  10   2  -3   17.17    2.37
 -10   2   3   12.81    2.06
 -10   2   3   10.60    1.35
  10   2  -3   11.29    2.32
  -8  -2   3   22.25    2.16
  -8  -2   3   18.58    2.30
  -8  -2   3   23.43    2.53
   8  -2  -3   16.74    2.42
   8  -2  -3   20.31    1.52
  -8   2   3   20.29    2.19
  -8   2   3   16.75    1.48
   8   2  -3   22.42    2.56
   8   2  -3   22.57    2.43
   6  -2  -3    8.71    0.90
  -6  -2   3    5.93    1.42
   6  -2  -3    4.15    1.41
  -6  -2   3    4.75    1.55
  -6  -2   3    8.41    1.43
   6  -2  -3    7.78    1.52
   6   2  -3    7.05    1.55
  -6   2   3    7.34    0.87
   6   2  -3    4.10    1.24
   4  -2  -3  297.99   10.39
  -4  -2   3  304.97   11.51
   4  -2  -3  307.09   10.06
   4  -2  -3  308.11   10.95
  -4  -2   3  297.59   11.03
   4   2  -3  312.00   10.94
   4   2  -3  311.06   11.22
  -2  -2   3   31.53    2.77
  -2  -2   3   35.75    2.68
   2  -2  -3   30.64    1.92
   2   2  -3   29.80    2.05
   2   2  -3   35.74    2.33
   0  -2  -3    8.06    0.87
   0  -2  -3    7.88    0.80
   0  -2   3    7.00    1.38
   0  -2   3    8.87    1.68
   0   2  -3    7.17    1.22
   0   2  -3    5.89    0.92
   2  -2   3   54.95    3.60
   2  -2   3   61.67    3.63
  -2   2  -3   55.12    2.95
  -2   2  -3   60.61    2.73
   4  -2   3    6.95    1.70
  -4  -2  -3    6.34    0.91
  -4  -2  -3    6.89    0.97
  -4   2  -3    8.17    1.35
  -4   2  -3    8.10    1.06
   6  -2   3    7.78    1.97
  -6  -2  -3    6.67    1.21
  -6  -2  -3    6.02    1.49
  -6   2  -3    6.00    1.61
  -6   2  -3    8.61    1.13
  -6   2  -3    6.41    1.38
   8  -2   3   -0.43    1.57
  -8  -2  -3   -0.56    1.74
  -8  -2  -3   -0.37    1.07
  -8   2  -3   -0.57    1.16
  -8   2  -3    1.02    0.81
  -8   2  -3    0.04    1.31
 -10  -2  -3   10.88    2.88
 -10  -2  -3    8.58    1.82
  10  -2   3    8.79    2.55
 -10   2  -3    8.42    1.41
 -10   2  -3   10.49    1.94
 -10   2  -3    7.66    2.00
 -12  -2  -3   63.71    4.00
  12  -2   3   62.01    5.94
 -12  -2  -3   75.60    6.28
 -12   2  -3   68.22    4.32
 -12   2  -3   55.82    3.36
 -14  -2  -3   22.73    2.90
 -14   2  -3   23.42    3.14
 -16  -2  -3    1.07    1.77
 -16   2  -3   -0.33    1.86
 -16   2  -3   -0.10    1.23
 -18  -2  -3   11.94    2.80
 -18   2  -3   11.80    2.97
 -18   2  -3   11.22    2.00
 -20  -2  -3   13.90    3.24
 -20   2  -3   10.99    2.18
 -20   2  -3   16.63    3.45
 -22  -2  -3    2.74    2.56
 -22   2  -3   -0.15    1.51
 -25  -3   3   22.14    2.51
 -25  -3   3   24.67    5.09
 -25   3   3   30.45    3.88
 -23  -3   3   56.73    6.53
 -23  -3   3   52.48    3.84
 -23   3   3   56.76    5.01
 -21  -3   3   10.63    2.23
  21  -3  -3   16.66    4.33
 -21  -3   3    7.73    3.30
 -21   3   3   16.80    2.82
 -19  -3   3   29.79    4.43
  19  -3  -3   42.44    5.55
 -19  -3   3   31.10    3.26
  17  -3  -3    7.08    3.08
 -17  -3   3    3.40    2.39
 -17  -3   3    2.08    1.65
 -17   3   3    6.82    1.70
  15  -3  -3   11.30    3.25
 -15  -3   3   10.18    2.64
 -15  -3   3    9.53    2.07
 -15   3   3   11.26    1.81
 -13  -3   3    9.34    2.55
 -13  -3   3   12.30    2.49
 -13  -3   3   10.93    2.09
  13  -3  -3   13.45    3.14
 -13   3   3   14.49    1.84
  11  -3  -3    0.78    1.95
 -11  -3   3    2.44    1.71
  11  -3  -3    2.04    0.89
 -11  -3   3    3.52    1.73
 -11  -3   3    0.82    1.32
  11   3  -3    1.71    1.52
 -11   3   3    3.15    1.04
 -11   3   3    3.09    1.64
   9  -3  -3   75.37    3.49
  -9  -3   3   69.32    4.51
  -9  -3   3   75.01    4.83
   9  -3  -3   75.06    5.20
  -9  -3   3   73.36    4.28
  -9   3   3   73.99    4.27
   9   3  -3   76.29    4.40
   9   3  -3   72.08    4.57
  -9   3   3   76.75    3.56
   7  -3  -3   98.32    4.96
  -7  -3   3   97.96    5.47
   7  -3  -3  108.31    5.57
   7  -3  -3  106.07    4.25
  -7  -3   3  113.65    5.27
  -7  -3   3  115.99    5.61
  -7   3   3  105.43    4.32
   7   3  -3  102.44    5.18
   7   3  -3  111.08    5.25
  -5  -3   3   91.78    4.84
   5  -3  -3   99.63    4.42
   5  -3  -3   95.20    4.46
  -5  -3   3   94.18    5.15
  -5  -3   3   95.90    4.95
   5  -3  -3   96.36    3.73
   5   3  -3   93.79    4.69
   5   3  -3   92.18    4.49
   3  -3  -3   17.88    1.66
  -3  -3   3   14.95    1.82
  -3  -3   3   17.01    2.44
  -3  -3   3   15.01    2.01
   3   3  -3   17.52    1.78
   3   3  -3   19.09    1.93
  -1  -3   3   36.70    3.40
  -1  -3   3   38.42    3.11
   1  -3  -3   45.37    2.74
   1  -3  -3   46.12    2.19
   1   3  -3   39.07    2.51
   1   3  -3   43.23    2.71
  -1  -3  -3   64.39    2.73
   1  -3   3   64.65    4.17
   1  -3   3   72.49    4.32
  -1  -3  -3   68.66    3.24
  -1   3  -3   58.67    3.13
  -1   3  -3   63.47    3.38
   3  -3   3   71.58    4.57
  -3  -3  -3   79.32    3.43
  -3  -3  -3   75.43    3.18
   3  -3   3   68.27    4.74
  -3   3  -3   74.12    3.45
  -3   3  -3   73.48    3.79
  -5  -3  -3   14.39    1.60
  -5  -3  -3   18.22    1.75
   5  -3   3   12.45    2.49
  -5   3  -3   14.57    1.52
  -5   3  -3   16.22    1.91
  -7  -3  -3   12.25    2.04
   7  -3   3   14.51    2.79
  -7  -3  -3   11.01    1.65
  -7   3  -3   11.41    1.46
  -7   3  -3    7.92    1.73
   9  -3   3   63.41    5.72
  -9  -3  -3   71.77    4.65
  -9  -3  -3   62.75    3.84
  -9   3  -3   67.81    3.56
  -9   3  -3   65.02    4.11
  11  -3   3    5.08    2.64
 -11  -3  -3    2.80    2.35
 -11  -3  -3    6.30    1.92
 -11   3  -3    2.43    1.73
 -11   3  -3    3.86    1.24
 -13  -3  -3   -0.30    1.71
 -13   3  -3   -0.42    1.70
 -13   3  -3   -0.22    1.01
 -15  -3  -3   24.62    3.42
 -15   3  -3   24.75    2.66
 -15   3  -3   27.65    3.55
 -17  -3  -3   -2.03    1.91
 -19  -3  -3   11.84    3.05
 -19   3  -3   10.84    2.33
 -21  -3  -3   -0.42    2.45
 -21   3  -3   -0.81    1.56
 -24  -4   3    0.24    3.12
  24  -4  -3    3.37    3.53
  22  -4  -3    1.29    3.12
 -22  -4   3   -1.61    2.48
 -20  -4   3   -0.96    2.43
 -20  -4   3   -1.36    1.25
  20  -4  -3   -2.71    2.74
 -18  -4   3   11.58    2.04
 -18  -4   3    9.00    3.10
  18  -4  -3    7.00    3.08
 -16  -4   3    3.73    2.50
  16  -4  -3    2.89    3.04
 -16  -4   3    1.10    1.49
 -14  -4   3  107.39    5.58
 -14  -4   3  104.71    6.74
  14  -4  -3  103.16    7.34
 -12  -4   3   -2.46    1.70
 -12  -4   3   -0.37    1.33
  12  -4  -3   -1.34    2.00
 -12  -4   3   -0.74    1.56
  10  -4  -3    0.61    1.68
  10  -4  -3    1.44    0.87
 -10  -4   3   -0.29    1.32
 -10  -4   3    0.61    1.72
 -10  -4   3    0.64    1.57
  -8  -4   3    1.03    1.67
  -8  -4   3   -0.03    1.43
   8  -4  -3    0.89    0.82
  -8  -4   3    0.47    1.31
   8  -4  -3   -0.44    1.52
   8   4  -3   -1.14    1.10
   6  -4  -3   46.42    3.43
  -6  -4   3   38.23    4.03
   6  -4  -3   48.84    3.18
  -6  -4   3   47.33    3.73
  -6  -4   3   44.25    3.60
   6  -4  -3   51.21    2.67
   6   4  -3   48.87    3.09
   6   4  -3   45.66    3.49
  -4  -4   3   53.99    4.08
  -4  -4   3   46.87    4.34
   4  -4  -3   58.29    3.21
  -4  -4   3   59.97    4.06
   4   4  -3   55.52    3.31
   4   4  -3   54.00    3.47
   2  -4  -3   11.88    2.00
  -2  -4   3    7.70    2.15
  -2  -4   3   15.89    2.36
  -2  -4   3   10.14    1.76
   2  -4  -3    8.81    1.37
   2   4  -3   10.98    1.53
   2   4  -3   11.07    1.65
   0  -4  -3    5.53    1.12
   0  -4   3    2.99    1.79
   0  -4  -3    3.29    1.46
   0  -4   3    1.98    1.23
   0  -4   3    2.65    1.65
   0   4  -3    3.69    1.35
   0   4  -3    4.81    1.13
   2  -4   3   18.52    2.92
   2  -4   3   16.43    2.75
  -2  -4  -3   24.13    1.96
  -2  -4  -3   19.86    2.31
  -2   4  -3   24.81    2.40
  -2   4  -3   24.03    2.07
   4  -4   3    8.56    2.39
  -4  -4  -3    9.58    1.49
   4  -4   3    2.46    1.81
  -4  -4  -3    7.35    1.65
  -4   4  -3    8.69    1.40
  -4   4  -3    9.74    1.71
  -6  -4  -3   49.89    3.36
  -6  -4  -3   48.76    3.31
   6  -4   3   51.95    5.05
  -6   4  -3   44.15    3.33
  -6   4  -3   51.18    3.10
  -8  -4  -3   39.51    3.63
   8  -4   3   50.48    5.35
  -8  -4  -3   36.37    3.24
  -8   4  -3   38.03    2.89
  -8   4  -3   43.01    3.62
  10  -4   3   48.26    5.58
 -10  -4  -3   51.32    3.72
 -10  -4  -3   50.05    4.57
 -10   4  -3   46.37    3.18
 -10   4  -3   44.84    4.01
  12  -4   3   56.93    6.51
 -12  -4  -3   34.85    3.75
 -12   4  -3   34.98    3.04
 -14  -4  -3    5.89    2.36
 -14   4  -3    2.32    1.41
 -16  -4  -3    8.71    2.75
 -16   4  -3    7.35    1.85
 -18  -4  -3   -1.01    2.39
 -18   4  -3    2.53    1.70
 -20  -4  -3   -0.49    2.57
 -20   4  -3   -0.55    1.56
 -21  -5   3    5.10    3.45
  21  -5  -3   11.24    4.02
 -19  -5   3   12.37    3.84
  19  -5  -3   16.17    4.28
  17  -5  -3    5.10    3.03
 -17  -5   3    2.25    1.65
 -17  -5   3    7.61    3.06
  15  -5  -3   -1.81    2.35
 -15  -5   3    4.07    1.95
 -15  -5   3    3.82    2.57
 -15  -5   3    2.41    1.44
 -13  -5   3    5.52    1.70
 -13  -5   3    6.31    2.51
  13  -5  -3    7.58    2.90
 -13  -5   3    5.69    1.94
 -11  -5   3    3.81    1.65
 -11  -5   3    2.39    1.68
  11  -5  -3    0.65    2.03
 -11  -5   3    3.13    2.21
  -9  -5   3   46.35    3.98
   9  -5  -3   41.20    4.03
  -9  -5   3   47.58    4.87
   9  -5  -3   45.91    3.00
  -9  -5   3   40.09    3.63
  -7  -5   3   42.45    3.75
  -7  -5   3   35.62    3.50
  -7  -5   3   33.13    4.12
   7  -5  -3   40.14    3.33
   7  -5  -3   37.00    2.70
  -5  -5   3   34.59    3.61
  -5  -5   3   29.49    3.16
   5  -5  -3   35.40    2.11
  -5  -5   3   28.96    3.88
  -3  -5   3    8.84    2.47
   3  -5  -3    8.93    2.43
  -3  -5   3   11.29    2.39
   1  -5  -3   18.43    2.06
  -1  -5   3   21.37    3.16
   1  -5  -3   18.08    2.86
  -1  -5   3   20.33    3.23
   1   5  -3   15.86    1.99
   1  -5   3   11.98    2.90
  -1  -5  -3   13.92    2.48
  -1  -5  -3   19.62    2.09
   1  -5   3    9.81    2.63
  -1   5  -3   14.05    1.87
   3  -5   3   57.18    5.53
   3  -5   3   67.13    5.73
  -3  -5  -3   61.49    4.35
  -3  -5  -3   67.61    3.92
  -3   5  -3   69.94    3.81
  -5  -5  -3   14.24    2.51
   5  -5   3   16.60    3.53
  -5  -5  -3   16.00    2.25
  -5   5  -3   12.24    1.74
  -7  -5  -3    3.44    1.67
  -7  -5  -3    2.47    1.80
   7  -5   3    2.00    2.52
  -7   5  -3    2.81    1.28
   9  -5   3   37.20    5.30
  -9  -5  -3   30.71    3.56
  -9   5  -3   43.76    3.20
  11  -5   3   11.38    3.89
 -11  -5  -3    9.62    2.45
 -11   5  -3    4.53    1.50
 -13  -5  -3    1.34    2.15
  13  -5   3   -2.06    2.92
 -13   5  -3   -0.68    1.19
 -15  -5  -3   20.76    3.69
 -15   5  -3   20.03    2.67
 -17  -5  -3   -2.07    2.35
 -17   5  -3    1.36    1.54
 -19  -5  -3    1.64    2.87
 -19   5  -3    3.23    1.91
  20  -6  -3   -2.70    2.88
 -20  -6   3   -2.08    2.68
  18  -6  -3   -0.26    2.84
 -18  -6   3    0.99    2.90
 -16  -6   3   21.21    4.26
  16  -6  -3   15.95    3.74
  14  -6  -3   16.52    3.57
 -14  -6   3   11.37    3.30
 -12  -6   3   16.70    2.35
  12  -6  -3   13.68    3.04
 -12  -6   3   15.91    3.70
 -10  -6   3    0.26    1.54
 -10  -6   3    1.50    2.30
  10  -6  -3   -1.32    1.70
 -10  -6   3   -1.31    1.51
   8  -6  -3    3.44    1.60
  -8  -6   3    0.72    2.40
  -8  -6   3    0.55    1.76
   8  -6  -3    5.26    1.33
  -6  -6   3    0.83    1.82
  -6  -6   3   -0.13    1.88
  -4  -6   3   98.12    6.78
  -4  -6   3  104.43    6.44
  -2  -6   3    4.88    2.45
  -2  -6   3    6.04    2.59
   2  -6  -3    7.96    2.50
   0  -6  -3    4.37    2.28
   0  -6   3    6.01    2.66
   0  -6   3    2.51    2.39
   2  -6   3   24.86    4.07
  -2  -6  -3   20.64    3.26
   2  -6   3   19.76    3.74
  -4  -6  -3    0.53    1.81
   4  -6   3    1.79    2.63
   4  -6   3   -0.69    2.08
  -6  -6  -3   -0.20    1.88
   6  -6   3   -1.14    2.72
  -8  -6  -3   -0.79    1.98
   8  -6   3   -3.99    2.40
  10  -6   3   11.85    3.98
 -10  -6  -3    5.56    2.64
  12  -6   3   13.32    4.38
 -12  -6  -3   19.66    3.56
 -14  -6  -3    8.02    2.99
  14  -6   3   15.62    4.88
 -16  -6  -3    0.61    2.45
  16  -6   3   -2.23    3.27
  17  -7  -3    1.99    2.81
  15  -7  -3    2.76    2.61
 -15  -7   3    1.17    3.13
  13  -7  -3    1.33    2.19
 -13  -7   3    1.43    2.91
  11  -7  -3    0.25    1.69
 -11  -7   3    0.74    2.72
  -9  -7   3   15.23    2.07
  -9  -7   3   12.81    3.67
  -7  -7   3   19.63    4.02
  -7  -7   3   14.22    2.60
  -5  -7   3   20.85    4.12
  -5  -7   3   15.71    2.96
  -3  -7   3    3.65    2.73
  -3  -7   3    2.08    2.20
  -1  -7   3    4.06    2.82
   1  -7  -3    4.63    2.62
  -1  -7   3    6.93    3.13
  -1  -7  -3    7.97    2.94
   1  -7   3    8.17    3.29
   1  -7   3   10.02    3.47
   3  -7   3   17.38    3.92
  -3  -7  -3   16.99    3.53
  -5  -7  -3    3.80    2.36
   5  -7   3    7.00    3.44
  -7  -7  -3    9.08    2.80
   7  -7   3   -3.91    2.71
  -9  -7  -3    9.10    3.06
   9  -7   3    6.51    3.88
  11  -7   3    1.36    3.29
 -11  -7  -3   -0.46    2.52
  13  -7   3   -1.77    3.25
 -13  -7  -3   -1.07    2.77
 -12  -8   3   -0.59    2.73
 -10  -8   3    0.26    2.78
  -8  -8   3    1.50    3.12
  -6  -8   3    8.90    3.55
  -4  -8   3    6.31    2.36
  -4  -8   3    8.98    3.62
  -2  -8   3    2.13    2.33
  -2  -8   3   -1.92    2.63
   0  -8   3   -1.24    2.61
   0  -8  -3    0.03    2.54
   0  -8   3    0.20    2.53
  -2  -8  -3    4.51    3.04
   2  -8   3    6.38    3.26
   2  -8   3    1.15    2.71
   4  -8   3   -1.16    2.88
  -4  -8  -3    5.86    3.03
   6  -8   3   14.38    4.23
  -6  -8  -3    8.55    3.20
  -8  -8  -3    6.29    3.17
   8  -8   3    5.69    3.69
 -26   0   4    9.67    2.58
 -24   0   4   -0.93    1.77
 -22   0   4    6.56    2.19
 -20   0   4  136.56    6.93
 -20   0   4  140.80    8.24
  18   0  -4   25.06    4.27
 -18   0   4   26.55    3.80
 -18   0   4   27.15    2.98
  16   0  -4  152.82    9.12
  16   0  -4  156.32    8.87
 -16   0   4  133.73    7.50
 -16   0   4  149.02    6.88
  14   0  -4   12.95    3.30
 -14   0   4   15.76    2.68
 -14   0   4   13.02    1.95
  14   0  -4    6.87    2.43
  12   0  -4    1.58    2.27
 -12   0   4    3.01    1.57
 -12   0   4    1.23    1.10
  12   0  -4   -1.24    1.57
 -10   0   4   25.47    2.24
  10   0  -4   19.25    3.42
  10   0  -4   28.02    2.91
 -10   0   4   25.72    2.64
  -8   0   4   51.08    3.16
   8   0  -4   58.08    4.80
   8   0  -4   59.38    3.67
  -8   0   4   55.44    3.07
   6   0  -4   80.89    4.03
  -6   0   4   86.40    3.80
  -6   0   4   83.99    3.99
   6   0  -4   87.67    5.00
   4   0  -4  180.96    6.80
   4   0  -4  184.13    7.85
  -4   0   4  192.79    6.82
  -4   0   4  191.61    7.16
   4   0  -4  195.87    7.20
   2   0  -4  271.34    9.38
   2   0  -4  254.43    9.54
   2   0  -4  259.68    8.60
   0   0  -4   12.06    1.36
   0   0  -4   12.93    1.34
  -2   0  -4  428.99   14.62
  -2   0  -4  435.72   14.95
  -4   0  -4   79.09    3.34
  -6   0  -4   50.52    2.65
  -8   0  -4   91.62    3.63
  -8   0  -4   89.54    3.43
  -8   0  -4   86.01    4.12
 -10   0  -4  119.14    4.57
 -10   0  -4  124.88    4.82
 -10   0  -4  117.63    5.53
 -12   0  -4   26.27    2.02
 -12   0  -4   28.74    1.91
 -12   0  -4   23.86    2.79
 -14   0  -4    0.25    1.52
 -14   0  -4   -0.57    0.93
 -16   0  -4    1.03    1.83
 -18   0  -4    6.96    2.47
 -20   0  -4    3.53    2.24
 -22   0  -4   14.48    3.31
 -27  -1   4   14.08    2.87
 -27   1   4    9.40    2.68
 -25  -1   4    4.92    2.23
 -25   1   4   -0.05    1.83
 -23  -1   4    3.95    2.03
 -23   1   4    2.35    1.85
  21  -1  -4    5.32    3.21
 -21  -1   4    0.83    1.81
 -21  -1   4   12.31    3.29
 -21   1   4    6.55    2.07
  19  -1  -4    0.25    2.85
 -19  -1   4    5.18    2.52
 -19  -1   4    3.87    1.74
 -19   1   4    0.81    1.38
  17  -1  -4   10.12    3.65
 -17  -1   4   10.44    2.73
 -17  -1   4    7.65    1.99
  17  -1  -4   10.45    3.42
 -17   1   4   10.41    1.95
 -17   1   4    6.64    2.38
  17   1  -4   10.49    3.04
  15  -1  -4    2.59    2.96
 -15  -1   4    5.03    1.67
 -15  -1   4    1.40    1.97
  15  -1  -4    6.61    2.64
 -15   1   4    5.28    1.54
  15   1  -4    7.26    2.92
 -15   1   4    5.97    2.17
  15   1  -4    6.86    2.49
 -13  -1   4    8.74    2.14
  13  -1  -4    5.63    3.18
  13  -1  -4    4.86    2.26
 -13  -1   4    6.97    1.62
 -13   1   4    8.52    1.59
 -13   1   4    6.39    1.97
  13   1  -4    4.96    2.08
  13   1  -4    6.85    2.69
  11  -1  -4  174.49    9.39
 -11  -1   4  149.88    6.77
 -11  -1   4  151.57    7.18
  11  -1  -4  163.58    7.83
 -11   1   4  152.47    7.10
  11   1  -4  163.04    7.57
 -11   1   4  164.11    6.48
  11   1  -4  155.89    8.15
  -9  -1   4   40.47    2.94
  -9  -1   4   38.45    2.86
   9  -1  -4   41.31    4.61
   9  -1  -4   33.94    3.09
   9  -1  -4   35.95    2.13
  -9   1   4   36.20    2.66
   9   1  -4   36.61    3.07
   9   1  -4   36.69    3.80
  -7  -1   4    2.13    1.23
   7  -1  -4    0.90    0.60
  -7  -1   4    0.56    0.89
   7  -1  -4    6.24    2.47
   7  -1  -4    1.23    1.02
   7  -1  -4   -0.37    0.93
   7   1  -4    2.44    1.68
  -7   1   4    2.07    1.12
  -7   1   4    0.59    0.67
   7   1  -4    0.04    1.02
   5  -1  -4   30.40    2.15
  -5  -1   4   36.69    2.56
   5  -1  -4   30.57    2.06
   5  -1  -4   31.82    1.55
  -5  -1   4   31.57    2.63
   5  -1  -4   31.21    3.32
   5   1  -4   36.26    2.97
   5   1  -4   36.03    2.43
  -3  -1   4  117.19    4.85
   3  -1  -4  114.04    4.47
  -3  -1   4  110.33    5.08
   3   1  -4  120.52    5.14
   3   1  -4  110.90    4.55
   3   1  -4  125.15    4.75
   1  -1  -4  269.29    9.21
  -1  -1   4  284.66   10.10
  -1  -1   4  268.17    9.73
   1   1  -4  275.80    9.56
   1   1  -4  255.45   10.11
   1   1  -4  271.12    9.91
   1   1  -4  283.97    9.26
   1  -1   4   44.06    2.83
   1  -1   4   51.09    3.03
  -1   1  -4   49.08    2.18
  -1   1  -4   55.77    3.17
  -1   1  -4   46.81    2.57
  -1   1  -4   47.60    2.67
   3  -1   4   43.26    2.84
  -3  -1  -4   40.64    1.78
  -3   1  -4   44.95    2.40
  -3   1  -4   41.85    2.01
  -3   1  -4   46.33    3.03
  -3   1  -4   47.40    2.72
  -5  -1  -4   30.23    1.71
   5  -1   4   34.80    2.78
  -5   1  -4   35.97    3.07
  -5   1  -4   32.00    1.82
  -5   1  -4   35.97    2.22
  -5   1  -4   35.56    2.57
   7  -1   4   17.53    2.33
  -7  -1  -4   17.90    1.61
  -7   1  -4   19.56    1.97
  -7   1  -4   21.71    2.05
  -7   1  -4   17.85    1.48
   9  -1   4    1.78    1.66
  -9  -1  -4    5.69    1.47
  -9   1  -4    7.98    1.63
  -9   1  -4    4.16    1.48
 -11  -1  -4    6.91    1.73
 -11   1  -4    6.54    1.75
 -11   1  -4    5.71    1.61
 -11   1  -4    4.75    1.23
 -13  -1  -4   15.37    2.49
 -13   1  -4   18.46    2.44
 -13   1  -4   19.26    1.90
 -13   1  -4   20.65    2.88
 -15  -1  -4   46.06    4.23
 -15   1  -4   52.93    3.21
 -15   1  -4   57.15    4.80
 -17  -1  -4   22.99    3.27
 -17   1  -4   26.77    2.42
 -17   1  -4   22.10    3.37
 -19  -1  -4   12.88    2.91
 -19   1  -4    5.64    1.45
 -19   1  -4   13.38    2.95
 -21  -1  -4    0.60    2.17
 -21   1  -4    0.75    1.21
 -21   1  -4    2.70    2.38
 -26  -2   4    9.99    2.52
 -26   2   4    7.86    2.74
 -24  -2   4   -1.18    1.61
 -24   2   4    1.46    1.92
 -22  -2   4   31.71    4.86
 -22  -2   4   27.62    3.40
  22  -2  -4   23.88    4.93
 -22   2   4   25.34    3.34
  20  -2  -4   27.77    4.91
 -20  -2   4   20.38    2.96
 -20  -2   4   23.57    4.21
 -20   2   4   24.32    3.03
 -18  -2   4  102.43    6.97
 -18  -2   4  115.17    6.25
  18  -2  -4  113.98    8.20
 -18   2   4  113.74    5.98
 -16  -2   4   73.04    4.81
  16  -2  -4   63.33    7.36
 -16  -2   4   72.52    5.38
 -16   2   4   77.69    4.38
  14  -2  -4   12.25    3.76
 -14  -2   4   10.54    2.58
  14  -2  -4    9.55    2.87
 -14  -2   4   15.30    2.40
  14   2  -4   12.27    2.69
 -14   2   4   13.23    1.87
 -14   2   4   11.70    2.47
 -12  -2   4   27.84    3.22
 -12  -2   4   27.95    3.23
  12  -2  -4   22.01    3.39
  12  -2  -4   32.08    2.31
 -12  -2   4   23.99    2.68
  12  -2  -4   36.32    4.90
 -12   2   4   26.42    2.96
 -12   2   4   29.22    2.38
  12   2  -4   31.28    3.36
  12   2  -4   34.09    3.80
  10  -2  -4  248.93    8.71
  10  -2  -4  241.22   10.26
 -10  -2   4  236.14   10.01
 -10  -2   4  242.25    9.57
  10   2  -4  238.20   10.35
  10   2  -4  246.66   10.00
 -10   2   4  240.91    9.64
 -10   2   4  242.89    8.92
  -8  -2   4   15.44    2.27
   8  -2  -4   18.53    1.39
   8  -2  -4   14.54    2.09
  -8  -2   4   17.14    2.00
   8  -2  -4   19.92    2.26
  -8   2   4   22.71    1.71
   8   2  -4   21.69    2.68
   8   2  -4   18.04    2.13
  -8   2   4   20.52    2.11
   6  -2  -4  158.58    6.27
   6  -2  -4  167.92    6.66
  -6  -2   4  157.47    6.82
  -6  -2   4  167.43    7.16
   6  -2  -4  159.56    5.69
   6   2  -4  167.01    7.09
   6   2  -4  166.32    6.74
   4  -2  -4  137.68    5.29
  -4  -2   4  140.83    6.23
  -4  -2   4  129.02    5.75
   4   2  -4  122.50    5.68
   4   2  -4  126.67    5.41
   2  -2  -4   88.88    3.71
  -2  -2   4  100.52    4.65
  -2  -2   4   97.70    4.82
   2   2  -4   93.72    4.40
   2   2  -4   99.12    4.04
   0  -2   4   84.34    4.69
   0  -2   4   94.14    4.61
   0   2  -4   95.28    4.22
   0   2  -4   93.80    3.86
   2  -2   4   49.76    3.38
   2  -2   4   38.66    3.08
  -2   2  -4   46.73    2.80
  -2   2  -4   49.75    3.25
  -2   2  -4   48.00    2.42
   4  -2   4    9.53    1.87
  -4  -2  -4    9.18    0.84
  -4  -2  -4    9.58    1.08
  -4   2  -4    7.49    1.05
  -4   2  -4   11.06    1.79
  -4   2  -4    8.67    1.44
   6  -2   4   81.72    4.99
  -6  -2  -4   77.08    3.38
  -6  -2  -4   73.82    4.03
  -6   2  -4   73.59    3.90
  -6   2  -4   68.96    3.34
  -6   2  -4   76.22    4.52
   8  -2   4   93.63    6.14
  -8  -2  -4  101.94    4.50
  -8  -2  -4   95.83    5.68
  -8   2  -4   99.28    4.89
  -8   2  -4   97.26    4.31
  -8   2  -4  100.40    5.45
 -10  -2  -4   14.68    2.14
  10  -2   4   16.30    3.08
 -10   2  -4   17.95    2.54
 -10   2  -4   18.18    1.89
 -10   2  -4   20.79    2.52
 -12  -2  -4  111.72    5.69
 -12   2  -4  114.02    5.23
 -12   2  -4  123.11    6.20
 -14  -2  -4   11.99    2.34
 -14   2  -4   10.19    1.74
 -14   2  -4    9.11    2.38
 -16  -2  -4    2.19    1.98
 -16   2  -4    3.18    1.39
 -16   2  -4    1.55    1.96
 -18  -2  -4    6.60    2.51
 -18   2  -4    6.40    1.72
 -18   2  -4    7.88    2.71
 -20  -2  -4    1.82    2.26
 -20   2  -4    2.66    1.54
 -20   2  -4    1.08    2.34
 -22  -2  -4    0.81    2.47
 -22   2  -4    0.97    1.40
 -25  -3   4    0.72    1.70
 -25   3   4    4.60    2.34
  23  -3  -4    1.55    3.32
 -23  -3   4    2.94    3.19
 -23  -3   4    6.02    2.03
 -21  -3   4   -0.29    2.48
  21  -3  -4    2.83    3.16
 -21  -3   4    4.48    2.02
 -19  -3   4    1.13    2.56
  19  -3  -4   -3.48    2.40
 -19  -3   4    0.63    1.73
 -17  -3   4   15.20    3.25
 -17  -3   4   11.10    2.42
  17  -3  -4   10.42    3.46
  17  -3  -4    6.17    3.95
 -17   3   4    8.82    1.90
 -15  -3   4    3.32    2.30
  15  -3  -4    2.20    2.44
 -15  -3   4    3.93    1.74
 -15   3   4    4.58    1.40
 -13  -3   4    2.35    1.66
 -13  -3   4    3.90    2.05
  13  -3  -4    6.71    2.48
 -13   3   4    2.43    1.14
  11  -3  -4  123.17    7.26
 -11  -3   4  136.71    6.68
 -11  -3   4  141.04    7.23
  11  -3  -4  145.52    5.63
 -11  -3   4  139.82    7.11
 -11   3   4  132.56    5.74
  11   3  -4  146.76    7.08
  -9  -3   4   27.92    2.99
   9  -3  -4   17.02    2.49
   9  -3  -4   18.92    2.43
   9  -3  -4   21.77    1.70
  -9  -3   4   18.80    2.75
  -9  -3   4   20.42    2.49
   9   3  -4   21.22    2.49
   9   3  -4   26.19    2.88
  -9   3   4   23.67    1.89
   7  -3  -4    6.88    1.42
   7  -3  -4    3.39    1.29
  -7  -3   4    6.01    1.67
  -7  -3   4    4.96    1.77
   7  -3  -4    5.67    0.86
  -7  -3   4    7.75    1.67
   7   3  -4    5.10    1.45
   7   3  -4    3.81    1.57
   5  -3  -4   18.29    1.88
  -5  -3   4   15.70    2.10
  -5  -3   4   16.27    2.53
   5   3  -4   19.26    2.19
   5   3  -4   14.99    1.84
  -3  -3   4   97.61    5.14
   3  -3  -4  106.48    4.29
  -3  -3   4  106.98    5.51
   3   3  -4   89.45    4.64
   3   3  -4   97.70    4.47
   1  -3  -4  137.45    5.16
   1  -3  -4  141.22    5.61
  -1  -3   4  123.15    6.51
  -1  -3   4  144.56    6.47
   1   3  -4  141.18    5.91
   1   3  -4  139.02    5.61
  -1  -3  -4   31.37    1.57
  -1  -3  -4   29.23    1.95
   1  -3   4   31.66    3.00
   1  -3   4   30.86    3.28
  -1   3  -4   32.79    2.24
  -1   3  -4   31.45    2.56
   3  -3   4   21.28    2.88
  -3  -3  -4   24.63    1.47
   3  -3   4   24.05    2.88
  -3  -3  -4   24.60    1.62
  -3   3  -4   22.57    1.90
  -3   3  -4   23.98    2.32
  -5  -3  -4   29.32    1.96
   5  -3   4   23.21    3.10
  -5  -3  -4   27.50    2.10
  -5   3  -4   31.38    2.25
  -5   3  -4   29.07    2.65
   7  -3   4    7.37    2.33
  -7  -3  -4    5.63    1.70
  -7  -3  -4    8.48    1.51
  -7   3  -4    6.43    1.24
  -7   3  -4    4.33    1.56
  -9  -3  -4    4.04    1.53
   9  -3   4    7.62    2.57
  -9  -3  -4    6.72    2.18
  -9   3  -4    2.32    1.44
  -9   3  -4    2.97    1.11
 -11  -3  -4    2.10    1.66
 -11  -3  -4    9.04    2.74
 -11   3  -4    0.42    1.57
 -11   3  -4    3.20    1.23
 -13  -3  -4   15.17    2.60
 -13   3  -4   20.01    3.01
 -13   3  -4   18.43    2.17
 -15  -3  -4   26.98    3.51
 -15   3  -4   36.49    3.23
 -15   3  -4   31.91    4.19
 -17  -3  -4   23.32    3.51
 -17   3  -4   17.64    3.41
 -17   3  -4   18.82    2.50
 -19  -3  -4    9.13    2.99
 -19   3  -4    5.19    1.94
 -21  -3  -4    5.28    2.78
 -21   3  -4    0.00    1.60
 -24  -4   4    0.76    1.42
 -24  -4   4    2.85    3.49
  24  -4  -4   -2.68    2.96
 -22  -4   4    2.89    1.70
 -22  -4   4    0.58    2.97
  22  -4  -4    4.23    3.63
  20  -4  -4   74.39    7.43
 -20  -4   4   67.92    7.12
 -20  -4   4   72.84    4.73
  18  -4  -4    7.77    3.47
 -18  -4   4   13.13    2.47
 -18  -4   4   19.36    3.84
  16  -4  -4   82.96    7.09
 -16  -4   4   69.54    6.43
 -16  -4   4   73.66    4.84
 -14  -4   4    5.76    1.93
  14  -4  -4   10.67    2.99
 -14  -4   4   10.42    2.90
  12  -4  -4   -1.96    1.66
 -12  -4   4   -0.31    1.85
 -12  -4   4    0.34    1.49
 -10  -4   4   17.61    2.97
  10  -4  -4   17.19    2.69
 -10  -4   4   14.42    2.43
  10  -4  -4   18.72    1.72
   8  -4  -4   27.29    2.07
  -8  -4   4   29.07    3.20
  -8  -4   4   22.03    3.28
  -8  -4   4   24.71    2.83
   8  -4  -4   24.40    2.57
   8   4  -4   33.99    3.20
  -6  -4   4   32.05    3.67
  -6  -4   4   24.77    2.75
   6  -4  -4   26.97    2.52
  -6  -4   4   21.20    2.76
   6   4  -4   24.67    2.53
   6   4  -4   27.51    2.75
  -4  -4   4   78.28    5.23
  -4  -4   4   83.81    4.79
   4  -4  -4   78.34    3.85
  -4  -4   4   80.56    5.02
   4   4  -4   75.10    4.16
   4   4  -4   72.16    4.20
  -2  -4   4   87.10    5.48
   2  -4  -4   95.76    4.81
   2  -4  -4   85.94    3.99
  -2  -4   4   91.02    5.42
   2   4  -4   89.51    4.49
   2   4  -4   92.23    4.40
   0  -4   4    1.93    1.87
   0  -4  -4    2.33    1.35
   0  -4   4    0.74    1.48
   0  -4  -4    2.12    0.87
   0   4  -4    1.63    1.18
   0   4  -4    3.90    1.12
  -2  -4  -4  175.31    7.09
   2  -4   4  180.53    8.54
  -2  -4  -4  172.14    6.50
   2  -4   4  142.13    8.16
  -2   4  -4  187.89    7.42
  -2   4  -4  172.23    6.90
  -4  -4  -4   43.32    2.96
   4  -4   4   46.02    4.61
  -4  -4  -4   48.22    2.75
  -4   4  -4   45.96    3.25
  -4   4  -4   46.77    2.99
   6  -4   4   33.42    4.24
  -6  -4  -4   32.17    2.70
  -6  -4  -4   30.48    2.58
  -6   4  -4   25.55    2.33
  -6   4  -4   27.28    2.91
  -8  -4  -4   43.93    3.21
   8  -4   4   41.19    5.03
  -8  -4  -4   49.59    4.00
  -8   4  -4   42.87    3.79
  -8   4  -4   48.83    3.13
 -10  -4  -4   71.98    4.95
 -10  -4  -4   60.68    4.15
  10  -4   4   67.35    6.68
 -10   4  -4   65.49    3.84
 -10   4  -4   61.70    4.48
 -12  -4  -4    9.15    2.39
 -12   4  -4   13.04    1.93
 -14  -4  -4    3.95    2.16
 -14   4  -4    0.22    1.30
 -16  -4  -4    0.78    2.31
 -16   4  -4    1.73    1.47
 -18  -4  -4    5.00    2.73
 -18   4  -4   -0.59    1.50
 -20  -4  -4   -0.15    2.49
 -20   4  -4    0.21    1.74
 -21  -5   4    0.34    3.05
  21  -5  -4    8.42    3.70
 -19  -5   4    1.52    1.48
 -19  -5   4   -0.67    2.62
  19  -5  -4   -1.25    2.77
  17  -5  -4   -2.48    2.32
 -17  -5   4    2.06    2.68
 -17  -5   4    0.92    1.55
 -15  -5   4    3.91    2.57
 -15  -5   4   -0.28    1.51
  15  -5  -4   -3.19    1.94
 -13  -5   4    5.46    1.96
  13  -5  -4    1.91    2.27
 -13  -5   4    7.43    2.80
  11  -5  -4   65.39    4.75
 -11  -5   4   55.26    4.51
 -11  -5   4   51.77    5.31
  -9  -5   4   18.29    2.79
   9  -5  -4   23.72    1.95
   9  -5  -4   17.41    2.37
  -9  -5   4   14.89    3.17
  -7  -5   4    2.04    2.06
  -7  -5   4   -0.25    1.52
  -5  -5   4   17.03    3.13
  -5  -5   4   12.66    2.55
  -3  -5   4   21.31    3.11
   3  -5  -4   22.00    2.26
  -3  -5   4   25.66    3.65
   3   5  -4   28.36    2.67
   1  -5  -4   94.37    5.58
  -1  -5   4   99.19    6.25
   1  -5  -4   99.89    4.57
  -1  -5   4   98.49    6.34
   1   5  -4   98.64    4.87
  -1  -5  -4   11.62    2.24
   1  -5   4   11.77    2.78
   1  -5   4   12.56    2.88
  -1  -5  -4   14.63    1.75
  -1   5  -4    9.95    1.74
   3  -5   4   23.55    3.76
  -3  -5  -4   24.15    2.84
  -3  -5  -4   29.01    2.58
   3  -5   4   30.45    4.04
  -3   5  -4   27.28    2.46
   5  -5   4   11.61    3.08
  -5  -5  -4    8.63    2.06
  -5  -5  -4   10.26    1.93
  -5   5  -4    6.77    1.46
  -7  -5  -4    3.78    1.82
  -7  -5  -4    2.49    1.65
   7  -5   4   10.07    3.05
  -7   5  -4    5.12    1.41
   9  -5   4    3.61    2.90
  -9  -5  -4    3.08    1.82
  -9   5  -4    1.54    1.28
 -11  -5  -4   -0.03    1.89
  11  -5   4   -3.21    2.56
 -11   5  -4    0.11    1.19
 -13  -5  -4    4.90    2.44
 -13   5  -4    5.53    1.72
 -15  -5  -4   24.71    3.78
 -15   5  -4   22.00    2.90
 -17  -5  -4    9.55    3.14
 -17   5  -4   14.57    2.48
  20  -6  -4    6.07    3.25
 -20  -6   4   11.11    4.05
 -18  -6   4   30.31    5.24
  18  -6  -4   40.75    5.23
  16  -6  -4   13.18    3.39
 -16  -6   4    9.51    3.65
 -14  -6   4    3.64    1.78
 -14  -6   4    5.25    3.00
  14  -6  -4   -1.57    2.12
 -12  -6   4    3.01    2.62
 -12  -6   4   -0.14    1.72
  12  -6  -4    4.03    1.98
 -10  -6   4   59.22    6.13
  10  -6  -4   59.18    3.32
 -10  -6   4   46.99    4.41
  10  -6  -4   50.04    3.57
  -8  -6   4    1.78    2.40
  -8  -6   4    0.38    1.83
  -6  -6   4   29.88    4.29
  -6  -6   4   36.54    4.07
  -4  -6   4   30.24    4.41
  -4  -6   4   31.08    4.04
   2  -6  -4   12.53    2.92
  -2  -6   4   18.22    3.57
  -2  -6   4   13.89    3.11
   0  -6   4   10.01    3.06
   0  -6   4   14.21    3.36
   0  -6  -4   17.42    3.04
   2  -6   4    9.50    3.09
  -2  -6  -4   14.19    2.67
   2  -6   4   13.08    3.21
  -4  -6  -4    1.63    1.82
   4  -6   4   -0.29    2.45
   6  -6   4   32.74    4.94
  -6  -6  -4   23.58    3.36
  -8  -6  -4   28.77    3.68
   8  -6   4   39.46    5.86
  10  -6   4    3.54    3.49
 -10  -6  -4    7.76    2.64
 -12  -6  -4   41.56    4.62
  12  -6   4   35.89    6.28
 -12   6  -4   38.25    3.63
 -14  -6  -4   -1.70    2.37
 -14   6  -4    2.96    1.72
 -16  -6  -4   -0.73    2.66
 -16   6  -4   -0.74    1.40
 -17  -7   4    0.40    3.24
  17  -7  -4    2.25    2.45
  15  -7  -4    0.18    1.95
 -15  -7   4    1.80    3.07
 -13  -7   4    1.54    2.87
  13  -7  -4   -1.04    1.49
 -11  -7   4   42.91    3.72
 -11  -7   4   35.24    5.35
  -9  -7   4    3.11    2.12
  -9  -7   4    0.08    2.43
  -7  -7   4    9.09    2.69
  -7  -7   4    1.98    2.65
  -5  -7   4    3.67    2.46
  -5  -7   4    6.18    2.99
  -3  -7   4   21.42    3.82
  -3  -7   4   16.67    3.89
  -1  -7   4   26.09    4.62
  -1  -7   4   22.80    4.15
   1  -7  -4   34.44    4.45
   1  -7   4    7.54    3.17
  -1  -7  -4    5.15    2.57
   1  -7   4    4.70    3.07
  -3  -7  -4    5.67    2.64
   3  -7   4    5.71    3.23
  -5  -7  -4    7.79    2.83
   5  -7   4   10.01    3.93
   7  -7   4   -2.42    2.91
  -7  -7  -4   -2.84    2.02
   9  -7   4   -2.18    3.16
  -9  -7  -4   -1.74    2.23
  11  -7   4   -4.73    3.15
 -11  -7  -4   -3.22    2.26
  13  -7   4    3.69    3.86
 -13  -7  -4    6.27    3.09
 -12  -8   4   -0.72    2.84
 -10  -8   4    3.49    3.22
  -8  -8   4    4.06    3.40
  -6  -8   4   -0.05    2.67
  -6  -8   4    3.10    2.32
  -4  -8   4   13.73    3.23
  -4  -8   4    9.28    3.80
  -2  -8   4    7.56    3.11
  -2  -8   4   11.32    3.96
   0  -8  -4   -0.41    2.49
   0  -8   4    0.45    2.66
  -2  -8  -4   19.32    3.96
   2  -8   4   21.49    4.48
   4  -8   4    2.77    3.38
  -4  -8  -4   10.14    3.42
   6  -8   4   10.04    4.03
  -6  -8  -4    7.59    3.11
   8  -8   4    7.71    4.32
  -8  -8  -4   12.37    3.56
 -26   0   5    2.61    2.18
 -24   0   5   -0.50    1.71
 -22   0   5   24.40    3.25
  20   0  -5   -3.87    2.19
 -20   0   5    1.06    1.58
 -18   0   5    0.44    2.05
  18   0  -5   -1.55    2.17
 -18   0   5    1.17    1.48
  16   0  -5    4.60    3.06
 -16   0   5    2.15    1.92
 -16   0   5   -0.26    1.35
  16   0  -5   -1.70    1.76
 -14   0   5   12.48    1.98
  14   0  -5   10.82    2.58
  14   0  -5    4.76    2.83
 -14   0   5    4.88    1.99
 -12   0   5    9.46    2.05
 -12   0   5    8.76    1.63
  12   0  -5    9.01    2.21
  12   0  -5   12.58    3.25
  10   0  -5   54.00    3.92
 -10   0   5   51.50    3.30
  10   0  -5   57.57    5.23
 -10   0   5   56.27    3.56
  -8   0   5    1.09    1.16
   8   0  -5    2.24    1.01
   8   0  -5    2.19    1.19
   8   0  -5    0.63    1.96
  -8   0   5    2.54    0.98
   6   0  -5    2.84    0.90
   6   0  -5   -0.28    1.60
   6   0  -5    2.24    0.97
  -6   0   5    1.27    0.83
   6   0  -5    2.73    1.19
  -6   0   5    2.05    1.04
   4   0  -5  307.91   10.98
   4   0  -5  300.92   11.55
   4   0  -5  301.53   10.24
   2   0  -5   73.53    3.87
   2   0  -5   76.81    2.78
   2   0  -5   83.70    2.90
   2   0  -5   74.36    3.63
   0   0  -5    2.51    1.05
   0   0  -5    2.08    0.99
  -2   0  -5   37.50    2.47
  -2   0  -5   35.32    2.08
  -4   0  -5  156.49    5.93
  -6   0  -5  125.34    5.10
  -8   0  -5   20.97    2.05
 -10   0  -5    6.44    1.62
 -12   0  -5    1.71    1.54
 -14   0  -5    5.74    2.00
 -16   0  -5   48.11    4.51
 -18   0  -5   -0.04    2.00
 -20   0  -5   33.19    4.34
 -22   0  -5   10.29    3.11
 -27  -1   5    3.93    2.31
 -27   1   5    6.70    2.50
 -25  -1   5    0.91    1.79
 -25   1   5    1.12    1.96
 -23  -1   5   13.80    2.77
 -23   1   5   13.04    2.73
 -21  -1   5   -0.55    1.65
  21  -1  -5    6.53    3.31
 -21   1   5   -0.52    1.43
 -19  -1   5    7.46    2.81
  19  -1  -5    9.76    3.30
 -19  -1   5    8.55    2.16
 -19   1   5   13.54    2.35
  17  -1  -5  132.59    8.22
  17  -1  -5  126.30    8.97
 -17  -1   5  135.79    6.70
 -17  -1   5  115.10    7.21
 -17   1   5  119.32    6.21
  17   1  -5  131.57    8.19
 -15  -1   5   59.92    5.13
 -15  -1   5   61.52    4.26
  15  -1  -5   61.96    6.70
  15  -1  -5   54.17    5.19
  15   1  -5   65.04    5.49
 -15   1   5   57.50    4.47
  15   1  -5   56.79    6.04
 -15   1   5   56.23    3.91
 -13  -1   5    6.61    1.74
 -13  -1   5    6.54    2.05
  13  -1  -5    5.96    2.16
  13  -1  -5    5.31    2.99
 -13   1   5    6.81    1.92
  13   1  -5    4.96    1.98
  13   1  -5    5.81    2.69
 -13   1   5    3.11    1.29
  11  -1  -5  177.69   10.07
 -11  -1   5  194.93    8.44
 -11  -1   5  197.63    8.04
  11  -1  -5  191.64    7.28
  11  -1  -5  193.02    8.60
  11   1  -5  203.27    8.66
  11   1  -5  192.67    9.51
 -11   1   5  202.72    8.31
 -11   1   5  187.98    7.65
   9  -1  -5   40.43    2.32
   9  -1  -5   38.28    4.66
  -9  -1   5   36.80    3.21
   9  -1  -5   47.68    3.39
  -9  -1   5   43.94    3.16
   9   1  -5   46.63    3.44
  -9   1   5   37.39    2.84
   9   1  -5   46.79    4.30
   7  -1  -5  174.87    6.24
   7  -1  -5  176.79    6.90
   7  -1  -5  182.50    7.01
  -7  -1   5  178.47    7.13
   7  -1  -5  163.76    8.61
  -7  -1   5  174.40    7.45
   7   1  -5  181.85    8.03
   7   1  -5  181.27    7.20
  -7   1   5  175.46    6.62
   5  -1  -5    4.72    0.76
  -5  -1   5    5.85    1.23
   5  -1  -5    3.70    1.10
  -5  -1   5    5.34    1.41
   5  -1  -5    5.57    0.57
   5  -1  -5    4.55    2.19
   5   1  -5    6.21    1.17
   5   1  -5    4.06    1.00
   5   1  -5    4.76    1.61
   3  -1  -5   29.59    1.93
  -3  -1   5   30.02    2.58
  -3  -1   5   35.81    2.42
   3  -1  -5   26.39    2.80
   3   1  -5   27.53    1.90
   3   1  -5   27.41    2.51
   3   1  -5   28.72    2.09
   1  -1  -5  187.86    6.57
  -1  -1   5  185.51    7.33
   1  -1  -5  179.81    6.91
  -1  -1   5  188.68    7.11
   1   1  -5  178.14    7.20
   1   1  -5  182.70    7.51
   1   1  -5  178.55    6.82
   1   1  -5  186.53    6.47
  -1  -1  -5  136.36    5.05
   1  -1   5  137.80    5.77
  -1   1  -5  143.17    5.04
  -1   1  -5  140.22    5.49
  -1   1  -5  140.53    5.66
  -1   1  -5  144.83    6.11
   3  -1   5    1.07    0.99
  -3  -1  -5   -0.05    0.56
  -3   1  -5   -0.12    1.01
  -3   1  -5    0.46    0.50
  -3   1  -5    0.78    0.90
  -3   1  -5    0.14    0.80
   5  -1   5   48.07    3.44
  -5  -1  -5   44.57    2.18
  -5   1  -5   46.89    2.85
  -5   1  -5   42.66    3.64
  -5   1  -5   47.58    2.23
  -5   1  -5   44.34    2.73
   7  -1   5   50.23    3.90
  -7  -1  -5   45.52    2.56
  -7   1  -5   48.01    3.03
  -7   1  -5   48.38    3.13
  -7   1  -5   47.79    2.43
  -9  -1  -5   34.03    2.51
  -9   1  -5   32.55    2.18
  -9   1  -5   36.98    2.99
  -9   1  -5   32.27    2.65
 -11  -1  -5   83.01    4.61
 -11   1  -5   98.69    4.76
 -11   1  -5   86.15    4.00
 -11   1  -5   94.04    4.97
 -13  -1  -5   16.97    2.58
 -13   1  -5   15.64    2.11
 -13   1  -5   14.92    2.54
 -13   1  -5   15.18    1.69
 -15  -1  -5   50.38    4.31
 -15   1  -5   46.81    2.86
 -15   1  -5   50.08    3.53
 -15   1  -5   47.13    4.42
 -17  -1  -5   42.27    4.26
 -17   1  -5   44.91    3.29
 -17   1  -5   37.11    4.31
 -17   1  -5   48.05    2.73
 -19  -1  -5   15.44    3.06
 -19   1  -5   11.84    2.91
 -19   1  -5    9.53    1.58
 -21  -1  -5    6.83    2.71
 -21   1  -5    5.94    2.93
 -26  -2   5    2.43    2.04
 -26   2   5   -1.02    1.95
 -24  -2   5    9.28    2.54
  24  -2  -5   12.25    4.27
 -24   2   5   12.68    2.80
 -22  -2   5    0.08    1.78
  22  -2  -5    2.11    3.07
 -22   2   5    0.07    1.63
  20  -2  -5    7.92    3.26
 -20  -2   5    4.64    2.11
 -20  -2   5    3.51    2.65
 -20   2   5    2.22    1.71
 -18  -2   5    7.21    2.06
  18  -2  -5    3.18    2.76
 -18  -2   5    6.36    2.74
  18  -2  -5    0.88    3.72
 -18   2   5    4.76    1.82
 -16  -2   5   24.91    3.65
  16  -2  -5   20.58    3.77
 -16  -2   5   30.65    3.38
  16  -2  -5   38.22    5.94
 -16   2   5   32.17    3.03
  16   2  -5   28.52    4.13
  14  -2  -5    7.43    3.54
 -14  -2   5    3.53    1.69
  14  -2  -5    4.09    2.22
 -14  -2   5    2.99    1.87
 -14   2   5   -0.95    0.97
  14   2  -5    6.62    2.20
 -12  -2   5   13.91    2.54
  12  -2  -5   18.01    1.69
 -12  -2   5   14.26    2.30
  12  -2  -5   16.03    2.70
  12  -2  -5   12.70    3.69
 -12   2   5   18.73    2.58
 -12   2   5   16.40    1.85
  12   2  -5   13.91    2.56
  12   2  -5   15.09    2.86
 -10  -2   5    0.43    1.22
  10  -2  -5    0.10    1.29
  10  -2  -5   -2.18    2.35
 -10  -2   5    1.15    1.52
  10  -2  -5    2.37    0.76
 -10   2   5    1.98    0.88
 -10   2   5    1.94    1.35
  10   2  -5   -0.27    1.20
  10   2  -5    2.49    1.77
   8  -2  -5    1.88    1.20
   8  -2  -5    1.14    0.58
  -8  -2   5    0.08    1.11
  -8  -2   5    0.57    1.33
   8  -2  -5    1.67    1.10
  -8   2   5    0.59    0.70
   8   2  -5    1.13    1.11
   8   2  -5    1.06    1.50
   6  -2  -5   14.37    1.04
   6  -2  -5   17.11    1.89
  -6  -2   5   16.37    2.32
  -6  -2   5   13.06    1.89
   6  -2  -5   16.75    1.23
   6   2  -5   15.64    2.21
   6   2  -5   15.47    1.83
  -4  -2   5   97.94    5.16
   4  -2  -5   98.33    4.19
  -4  -2   5  100.29    4.86
   4   2  -5   99.89    4.43
   4   2  -5  101.97    4.92
  -2  -2   5    7.34    1.68
  -2  -2   5    9.02    1.59
   2  -2  -5    6.92    0.93
   2   2  -5    9.67    1.66
   2   2  -5    8.66    1.18
   0  -2   5   66.00    4.02
   0  -2   5   76.24    4.23
   0   2  -5   72.26    3.26
   0   2  -5   70.66    3.89
   0   2  -5   74.48    3.72
   2  -2   5   14.28    1.97
   2  -2   5   11.68    2.05
  -2   2  -5   19.86    2.09
  -2   2  -5   14.73    1.76
  -2   2  -5   15.30    1.37
   4  -2   5   59.93    4.27
  -4   2  -5   70.34    4.12
  -4   2  -5   68.23    3.64
  -4   2  -5   68.61    3.16
  -6  -2  -5  241.94    8.73
   6  -2   5  241.31   10.38
  -6  -2  -5  243.31    9.73
  -6   2  -5  246.49    9.80
  -6   2  -5  250.97    8.87
  -6   2  -5  250.62    9.56
  -8  -2  -5   11.05    1.66
   8  -2   5   10.25    2.47
  -8   2  -5   11.78    1.47
  -8   2  -5   12.97    2.06
  -8   2  -5   15.93    2.21
 -10  -2  -5   23.42    2.37
 -10   2  -5   17.16    2.43
 -10   2  -5   18.78    1.90
 -12  -2  -5    5.12    1.78
 -12   2  -5    6.62    1.98
 -14  -2  -5    8.94    2.20
 -14   2  -5    8.72    1.66
 -14   2  -5    7.33    2.29
 -16  -2  -5   13.60    2.70
 -16   2  -5   10.09    1.79
 -16   2  -5   23.18    3.41
 -18  -2  -5   32.29    3.90
 -18   2  -5   29.67    4.18
 -18   2  -5   23.48    2.50
 -20  -2  -5    0.92    2.31
 -20   2  -5    2.23    2.56
 -20   2  -5    3.30    1.44
  25  -3  -5    7.04    3.55
 -25  -3   5    1.84    2.11
 -23  -3   5   12.23    2.71
  23  -3  -5    3.21    3.34
  21  -3  -5   -4.26    2.51
 -21  -3   5   -0.89    1.65
 -21  -3   5    2.17    2.76
 -19  -3   5    4.59    2.91
  19  -3  -5    2.94    2.92
 -19  -3   5    3.12    2.03
 -17  -3   5   87.19    6.31
  17  -3  -5   96.93    9.30
  17  -3  -5   79.82    7.00
 -17  -3   5   73.17    5.30
 -15  -3   5   31.49    3.49
  15  -3  -5   41.49    6.05
 -15  -3   5   33.40    4.13
  15  -3  -5   39.52    4.57
 -13  -3   5    6.10    1.96
  13  -3  -5    1.32    1.94
 -13  -3   5    4.34    2.14
  13   3  -5    8.96    2.20
 -11  -3   5  135.42    7.02
 -11  -3   5  135.61    6.74
  11  -3  -5  131.43    6.69
  11  -3  -5  132.25    5.28
  11   3  -5  125.38    6.76
  11   3  -5  128.06    6.72
   9  -3  -5   31.80    2.03
   9  -3  -5   37.53    3.26
  -9  -3   5   29.51    3.03
  -9  -3   5   30.68    3.46
   9  -3  -5   31.60    2.77
   9   3  -5   34.24    3.14
  -9   3   5   31.44    2.16
   9   3  -5   36.49    3.49
  -7  -3   5  149.35    6.91
   7  -3  -5  147.43    5.55
   7  -3  -5  145.74    5.20
   7  -3  -5  152.58    6.58
  -7  -3   5  151.66    7.33
   7   3  -5  144.51    6.63
   7   3  -5  146.84    6.91
  -5  -3   5    4.40    1.57
   5  -3  -5    8.97    1.59
  -5  -3   5    8.88    2.03
   5   3  -5    9.09    1.86
   5   3  -5    6.94    1.40
   3  -3  -5   11.69    1.50
  -3  -3   5   15.21    2.20
  -3  -3   5   11.79    2.20
   3   3  -5   12.38    1.90
   3   3  -5   10.69    1.48
  -1  -3   5  130.35    6.17
   1  -3  -5  126.30    4.70
   1  -3  -5  116.51    4.92
  -1  -3   5  128.90    6.45
   1   3  -5  120.20    5.16
   1   3  -5  117.51    5.53
   1  -3   5   64.56    4.40
   1  -3   5   58.87    4.29
  -1   3  -5   64.87    3.29
  -1   3  -5   64.20    3.63
   3  -3   5    0.52    1.52
   3  -3   5    2.55    1.57
  -3   3  -5    0.43    1.16
  -3   3  -5    1.20    0.86
  -5  -3  -5   33.91    1.99
   5  -3   5   32.46    3.73
  -5  -3  -5   31.45    2.20
  -5   3  -5   33.14    2.95
  -5   3  -5   31.43    2.34
   7  -3   5   16.93    3.08
  -7  -3  -5   16.98    2.28
  -7  -3  -5   20.19    1.89
  -7   3  -5   18.98    1.90
  -7   3  -5   22.10    2.55
  -9  -3  -5   24.32    3.39
   9  -3   5   15.95    3.29
  -9  -3  -5   21.01    2.23
  -9   3  -5   23.73    2.88
  -9   3  -5   18.91    2.00
 -11  -3  -5   80.65    4.43
 -11  -3  -5   76.32    5.91
 -11   3  -5   71.39    4.80
 -11   3  -5   76.26    4.08
 -13  -3  -5    6.60    2.06
 -13   3  -5    7.38    1.61
 -13   3  -5    7.42    2.40
 -15  -3  -5   34.04    3.81
 -15   3  -5   34.67    4.26
 -17  -3  -5   36.11    4.24
 -17   3  -5   39.98    3.59
 -17   3  -5   43.72    4.94
 -19  -3  -5    7.18    2.77
 -19   3  -5   13.02    2.29
  24  -4  -5   -0.46    3.02
 -24  -4   5   -0.79    1.65
 -22  -4   5   14.71    4.13
  22  -4  -5   22.47    4.76
 -22  -4   5   10.73    2.52
 -20  -4   5   -2.29    2.23
  20  -4  -5    0.31    2.82
 -20  -4   5   -1.10    1.72
 -18  -4   5    1.00    1.76
 -18  -4   5    0.18    2.40
  18  -4  -5    2.34    4.13
  18  -4  -5    4.15    2.77
 -16  -4   5    1.61    2.28
  16  -4  -5    2.44    2.39
 -16  -4   5    1.16    1.77
  14  -4  -5    3.29    2.25
 -14  -4   5    5.49    2.39
 -14  -4   5    6.24    2.15
  12  -4  -5    0.32    1.74
 -12  -4   5    3.84    2.21
 -12  -4   5    1.91    1.71
 -10  -4   5   21.65    3.36
  10  -4  -5   24.39    1.84
  10  -4  -5   27.09    2.74
 -10  -4   5   21.55    2.92
  10   4  -5   20.44    2.78
   8  -4  -5    5.07    1.11
  -8  -4   5    4.45    2.16
   8  -4  -5    4.06    0.83
  -8  -4   5    5.27    1.86
   8   4  -5    0.68    1.30
  -6  -4   5   -0.27    1.70
   6  -4  -5   -0.37    1.25
  -6  -4   5    0.37    1.41
   6   4  -5    1.65    1.24
   6   4  -5    0.21    1.37
   4  -4  -5  152.13    6.38
  -4  -4   5  153.80    7.55
   4   4  -5  161.99    6.72
   4   4  -5  159.57    6.97
   2  -4  -5   25.11    1.96
  -2  -4   5   23.08    2.97
  -2  -4   5   21.35    3.14
   2  -4  -5   24.80    2.56
   2   4  -5   23.40    2.56
   2   4  -5   23.60    2.28
   0  -4   5    0.31    1.58
   0  -4  -5   -0.67    1.13
   0  -4   5    0.36    1.53
   0  -4  -5    0.02    0.71
   0   4  -5   -0.09    1.23
   0   4  -5   -0.41    0.87
  -2  -4  -5   19.18    1.99
   2  -4   5   16.77    2.94
   2  -4   5   20.33    3.13
  -2  -4  -5   21.76    1.60
  -2   4  -5   17.43    1.93
  -2   4  -5   20.20    2.50
  -4  -4  -5   75.35    3.51
  -4  -4  -5   80.89    3.81
   4  -4   5   70.06    5.78
  -4   4  -5   77.00    3.92
  -4   4  -5   71.97    4.38
  -6  -4  -5   62.74    3.34
  -6  -4  -5   60.16    3.56
   6  -4   5   71.11    6.09
  -6   4  -5   55.01    3.90
  -6   4  -5   56.00    3.44
  -8  -4  -5   11.83    1.92
   8  -4   5   13.38    3.38
  -8  -4  -5   10.77    2.28
  -8   4  -5   10.06    2.35
  -8   4  -5   15.53    1.95
 -10  -4  -5    4.98    2.29
 -10  -4  -5    0.75    1.59
 -10   4  -5    0.19    1.08
 -10   4  -5   -0.62    1.57
 -12  -4  -5   -0.65    1.59
 -12   4  -5    0.59    1.23
 -14  -4  -5   -0.35    1.96
 -14   4  -5    2.80    1.54
 -16  -4  -5   29.02    3.91
 -16   4  -5   32.44    3.37
 -18  -4  -5    0.15    2.32
 -21  -5   5    3.56    3.30
  21  -5  -5   -2.55    2.55
 -21  -5   5    1.48    1.63
  19  -5  -5    3.11    3.00
 -19  -5   5    3.86    2.00
 -19  -5   5    1.97    2.93
  17  -5  -5   50.58    5.30
 -17  -5   5   50.32    4.41
 -17  -5   5   47.19    5.66
 -15  -5   5   26.32    4.21
 -15  -5   5   23.47    3.23
  15  -5  -5   24.89    3.62
  13  -5  -5    2.92    1.94
 -13  -5   5    2.48    2.45
 -13  -5   5    2.48    1.86
 -11  -5   5   66.93    4.95
 -11  -5   5   51.76    5.57
  11  -5  -5   61.88    4.00
  11  -5  -5   64.43    3.33
  -9  -5   5   10.44    2.78
  -9  -5   5    8.06    2.25
  -7  -5   5   55.74    5.42
  -7  -5   5   50.48    4.69
  -5  -5   5    0.36    1.74
  -5  -5   5    5.71    2.27
  -3  -5   5   14.69    2.75
   3  -5  -5   12.38    1.72
  -3  -5   5    8.92    2.64
   3   5  -5   13.37    1.92
   1  -5  -5   55.54    3.92
  -1  -5   5   57.43    5.37
  -1  -5   5   54.39    4.96
   1  -5  -5   51.37    3.00
   1   5  -5   49.67    3.44
   1  -5   5   33.01    4.33
  -1  -5  -5   40.60    2.61
  -1  -5  -5   41.17    3.52
   1  -5   5   30.97    4.02
  -1   5  -5   41.28    3.09
  -3  -5  -5    0.62    1.21
  -3  -5  -5   -0.34    1.33
   3  -5   5   -1.01    1.70
   3  -5   5   -0.42    2.05
  -3   5  -5    2.64    1.20
  -5  -5  -5   10.73    1.92
   5  -5   5    8.54    3.09
  -5  -5  -5   11.69    2.21
  -5   5  -5   13.84    1.89
   7  -5   5   19.92    4.06
  -7  -5  -5   19.17    2.68
  -7  -5  -5   18.27    2.53
  -7   5  -5   18.86    2.22
  -9  -5  -5   21.95    2.82
   9  -5   5   20.20    4.41
  -9   5  -5   16.04    2.20
 -11  -5  -5   30.21    3.45
 -11   5  -5   32.32    3.13
 -13  -5  -5   12.12    2.75
 -13   5  -5    9.04    2.05
 -15  -5  -5   19.18    3.53
 -15   5  -5   28.10    3.22
 -17  -5  -5   15.48    3.51
 -17   5  -5    9.53    2.22
 -20  -6   5   -0.61    2.65
  20  -6  -5   -3.14    2.28
  18  -6  -5    0.36    2.43
 -18  -6   5    2.43    1.75
 -18  -6   5    3.85    3.25
 -16  -6   5   16.13    3.98
  16  -6  -5   15.16    3.12
 -16  -6   5   14.08    2.55
 -14  -6   5    0.12    2.54
 -14  -6   5    1.92    1.84
  14  -6  -5    2.70    1.91
  12  -6  -5    7.12    1.35
 -12  -6   5    7.71    3.14
  12  -6  -5    3.07    1.41
 -12  -6   5    6.67    2.35
 -10  -6   5    2.02    2.03
 -10  -6   5    0.99    2.52
  -8  -6   5    0.65    2.17
  -8  -6   5   -0.42    2.00
  -6  -6   5    7.99    2.80
  -6  -6   5    5.19    2.43
  -4  -6   5   18.08    3.32
  -4  -6   5   12.12    3.34
  -2  -6   5    1.41    2.23
  -2  -6   5    5.49    2.65
   2  -6  -5    4.32    2.15
   0  -6   5   13.28    3.36
   0  -6  -5    6.36    2.36
   0  -6   5   12.59    3.13
  -2  -6  -5    3.44    2.07
   2  -6   5    4.56    2.68
   2  -6   5   15.10    3.62
   4  -6   5   14.66    3.70
  -4  -6  -5   14.60    2.67
   6  -6   5   67.63    7.11
  -6  -6  -5   80.39    5.19
  -6   6  -5   82.72    4.68
  -8  -6  -5    1.18    2.10
   8  -6   5    1.16    2.90
  -8   6  -5    0.26    1.35
 -10  -6  -5   -0.21    2.08
  10  -6   5    1.84    3.27
 -10   6  -5    5.37    1.72
 -12  -6  -5    1.56    2.38
 -12   6  -5    2.48    1.60
 -14  -6  -5   -1.78    2.29
 -14   6  -5    0.65    1.60
 -15  -7   5    4.26    3.27
 -13  -7   5   -0.76    2.94
 -13  -7   5    0.47    1.93
 -11  -7   5   23.10    3.44
  -9  -7   5   -0.30    2.55
  -9  -7   5    8.66    2.69
  -7  -7   5   30.55    4.27
  -7  -7   5   33.43    5.14
  -5  -7   5    0.91    2.76
  -5  -7   5   -0.48    2.40
  -3  -7   5   -0.31    2.32
  -3  -7   5    4.10    2.70
  -1  -7   5   20.51    4.46
  -1  -7   5   28.31    4.49
   1  -7   5    5.33    3.09
  -1  -7  -5    8.50    2.85
  -3  -7  -5    2.78    2.23
   3  -7   5    0.10    2.84
   5  -7   5    0.53    3.27
  -5  -7  -5    4.93    2.57
  -7  -7  -5   -0.22    2.05
   7  -7   5    4.25    3.40
   9  -7   5    2.99    3.81
  -9  -7  -5    5.51    2.72
 -11  -7  -5   21.14    3.73
  11  -7   5   14.91    5.04
 -10  -8   5    1.73    3.09
 -10  -8   5    3.36    2.08
  -8  -8   5    0.72    2.30
  -8  -8   5    6.87    3.52
  -6  -8   5   -3.67    2.52
  -6  -8   5    2.93    2.54
  -4  -8   5   22.87    4.10
  -2  -8   5    0.82    2.80
   0  -8   5    6.41    3.40
  -2  -8  -5    5.52    2.86
   2  -8   5    1.90    3.32
  -4  -8  -5   16.14    3.76
   4  -8   5   18.65    4.68
  -6  -8  -5    9.29    3.24
   6  -8   5   15.06    4.79
 -26   0   6   -0.99    1.84
 -24   0   6   29.50    3.82
  22   0  -6    2.20    2.98
 -22   0   6    3.36    2.00
 -20   0   6   50.36    4.44
  20   0  -6   49.72    5.86
 -18   0   6   -0.35    1.36
  18   0  -6   -1.34    2.16
 -16   0   6   10.04    2.62
  16   0  -6   15.02    3.10
  16   0  -6   10.18    3.53
 -16   0   6   13.90    2.26
 -14   0   6   56.77    4.35
  14   0  -6   77.60    7.01
  14   0  -6   62.76    5.05
 -14   0   6   64.84    4.24
  12   0  -6    7.42    2.02
  12   0  -6   17.23    3.63
 -12   0   6   12.11    1.89
 -12   0   6   10.96    2.15
  10   0  -6  231.89    8.41
  10   0  -6  212.38   10.57
 -10   0   6  220.41    9.16
  10   0  -6  226.89    9.14
 -10   0   6  225.05    8.80
  -8   0   6    8.77    1.64
   8   0  -6    7.65    1.46
   8   0  -6   11.13    1.41
   8   0  -6    5.84    2.46
  -8   0   6    8.47    1.39
   6   0  -6   91.29    3.85
   6   0  -6   93.68    4.49
   6   0  -6   92.67    4.11
  -6   0   6   97.92    4.29
   6   0  -6   95.10    5.37
   4   0  -6   33.42    2.43
   4   0  -6   29.91    1.64
   4   0  -6   30.16    2.89
   4   0  -6   30.57    1.69
   2   0  -6   14.11    1.73
   2   0  -6   16.16    1.92
   0   0  -6   39.71    2.58
   0   0  -6   39.48    2.45
  -2   0  -6   76.36    3.80
  -2   0  -6   68.91    3.35
  -4   0  -6   48.95    2.65
  -4   0  -6   53.53    3.40
  -6   0  -6    3.69    1.13
  -8   0  -6   17.86    2.03
 -10   0  -6   -0.80    1.14
 -12   0  -6    6.20    1.88
 -14   0  -6   26.73    3.29
 -16   0  -6    1.41    1.99
 -18   0  -6   62.65    5.43
 -20   0  -6    9.30    2.96
 -27  -1   6   -2.27    1.87
 -27   1   6    0.91    2.07
 -25  -1   6    0.15    2.00
 -25   1   6    3.44    2.14
 -23  -1   6    3.64    2.19
  23  -1  -6    3.68    3.14
 -23   1   6    2.90    2.17
  21  -1  -6   14.79    3.86
 -21  -1   6   12.77    2.65
 -21   1   6   12.46    2.59
 -19  -1   6    2.13    1.85
  19  -1  -6    0.06    2.36
 -19   1   6    5.10    1.88
  19   1  -6   -4.67    2.07
  17  -1  -6   16.00    3.35
 -17  -1   6   14.77    2.47
 -17  -1   6   16.72    3.15
  17  -1  -6   21.98    4.59
  17   1  -6   18.15    3.49
 -17   1   6   10.54    2.09
 -15  -1   6    2.07    1.51
  15  -1  -6    0.02    2.87
  15  -1  -6   -2.45    1.80
 -15  -1   6    0.26    1.77
 -15   1   6    0.76    1.23
  15   1  -6    0.82    1.93
  15   1  -6    0.92    2.75
  13  -1  -6   48.55    2.82
 -13  -1   6   37.67    3.40
  13  -1  -6   42.79    3.97
 -13  -1   6   40.08    3.93
  13  -1  -6   49.31    5.90
  13   1  -6   36.74    3.74
 -13   1   6   39.39    3.75
 -13   1   6   45.52    3.38
  13   1  -6   43.26    5.07
 -11  -1   6   28.56    2.86
  11  -1  -6   35.80    4.91
  11  -1  -6   35.76    2.25
  11  -1  -6   33.51    3.19
 -11  -1   6   30.66    3.26
 -11   1   6   31.24    2.65
  11   1  -6   32.92    4.12
 -11   1   6   32.50    3.06
  11   1  -6   32.85    3.14
   9  -1  -6   12.19    1.73
   9  -1  -6    8.66    2.93
  -9  -1   6    9.34    1.92
   9  -1  -6   11.77    1.22
   9  -1  -6    9.70    1.68
  -9  -1   6    7.67    1.58
  -9   1   6    9.98    1.41
   9   1  -6    6.47    2.37
   9   1  -6    8.94    1.69
   7  -1  -6   21.32    2.13
   7  -1  -6   20.57    1.40
  -7  -1   6   19.42    2.09
   7  -1  -6   16.00    3.23
   7  -1  -6   20.80    1.72
  -7  -1   6   20.38    2.40
   7   1  -6   22.34    1.92
   7   1  -6   18.93    2.02
   7   1  -6   20.83    2.82
   5  -1  -6    4.61    1.18
  -5  -1   6    5.76    1.26
   5  -1  -6    3.85    2.07
  -5  -1   6    5.94    1.57
   5   1  -6    6.31    1.79
   5   1  -6    4.27    1.03
   5   1  -6    4.91    1.06
  -3  -1   6    0.67    0.91
   3  -1  -6    0.11    0.86
  -3  -1   6    1.36    1.11
   3  -1  -6    3.84    1.59
   3   1  -6    1.69    1.40
   3   1  -6    1.44    1.28
   3   1  -6    1.91    0.81
   3   1  -6    0.24    0.66
   1  -1  -6   24.30    2.10
   1  -1  -6   25.25    1.82
  -1  -1   6   29.33    2.33
   1   1  -6   25.38    1.60
   1   1  -6   20.26    2.40
   1   1  -6   23.53    2.27
   1   1  -6   25.50    1.86
  -1  -1  -6   12.69    1.25
  -1  -1  -6   10.99    1.23
  -1   1  -6   12.74    1.98
  -1   1  -6   13.72    1.40
  -1   1  -6   13.57    1.07
  -1   1  -6   13.30    1.67
  -3  -1  -6   -0.19    0.63
  -3   1  -6    0.76    0.56
  -3   1  -6    0.12    0.80
  -3   1  -6   -0.51    0.89
  -3   1  -6   -0.47    1.19
  -5  -1  -6   29.32    1.89
  -5   1  -6   34.35    1.81
  -5   1  -6   34.35    2.33
  -5   1  -6   36.64    3.43
  -5   1  -6   31.37    2.36
  -7  -1  -6   21.59    1.86
  -7   1  -6   26.03    2.01
  -7   1  -6   21.76    3.01
  -7   1  -6   17.24    2.10
  -9  -1  -6   15.86    1.95
  -9   1  -6   19.55    1.59
  -9   1  -6   19.45    2.39
  -9   1  -6   21.07    1.97
 -11  -1  -6   81.20    4.69
 -11   1  -6   91.07    4.95
 -11   1  -6   87.06    3.74
 -11   1  -6   86.19    4.22
 -13  -1  -6   -0.01    1.47
 -13   1  -6    0.68    1.67
 -13   1  -6    0.65    0.83
 -13   1  -6   -0.62    0.99
 -15  -1  -6    8.77    2.41
 -15   1  -6    7.79    2.53
 -17  -1  -6    2.86    2.11
 -17   1  -6    0.94    2.16
 -19  -1  -6    8.06    2.56
 -19   1  -6    9.05    2.93
 -21  -1  -6   22.86    3.76
 -21   1  -6   14.97    3.65
 -26  -2   6    8.10    2.70
  26  -2  -6   11.29    4.17
  24  -2  -6   21.17    4.80
 -24  -2   6   14.51    2.96
  22  -2  -6   13.00    4.02
 -22  -2   6   16.88    3.01
  20  -2  -6    0.41    2.70
 -20  -2   6    4.02    2.05
 -20  -2   6    2.26    2.59
  18  -2  -6   47.01    5.30
 -18  -2   6   37.59    3.97
  18  -2  -6   47.98    6.88
 -18  -2   6   37.70    4.67
  16  -2  -6   -0.33    3.45
 -16  -2   6    0.87    1.61
  16  -2  -6    1.37    2.18
 -16  -2   6    0.01    1.94
  16   2  -6    0.67    2.09
 -16   2   6    1.70    1.36
  14  -2  -6   73.26    7.68
 -14  -2   6   67.70    4.74
  14  -2  -6   59.82    5.08
 -14  -2   6   61.85    4.75
  14   2  -6   69.68    5.35
  14   2  -6   71.19    6.17
  12  -2  -6    3.05    3.19
 -12  -2   6   -0.79    1.29
 -12  -2   6    1.37    1.79
  12  -2  -6    1.14    0.78
  12  -2  -6   -1.15    1.37
  12   2  -6    0.23    1.46
  12   2  -6   -2.65    1.77
 -12   2   6    2.55    1.14
  10  -2  -6   24.31    4.34
 -10  -2   6   18.47    2.45
  10  -2  -6   23.95    2.43
  10  -2  -6   24.66    2.65
 -10  -2   6   25.11    3.12
  10  -2  -6   23.06    1.75
 -10   2   6   27.76    2.18
  10   2  -6   25.27    2.76
  10   2  -6   21.66    3.21
   8  -2  -6   72.43    3.87
   8  -2  -6   64.05    5.83
   8  -2  -6   68.72    3.31
  -8  -2   6   74.78    4.32
  -8  -2   6   58.64    4.14
   8  -2  -6   65.00    2.75
   8   2  -6   61.23    4.04
   8   2  -6   71.97    4.57
   6  -2  -6    9.21    1.50
  -6  -2   6    5.83    1.54
  -6  -2   6    3.83    1.75
   6   2  -6    6.49    1.83
   6   2  -6    5.40    1.30
  -4  -2   6   10.69    2.08
   4  -2  -6    9.21    1.27
  -4  -2   6    8.85    1.62
   4   2  -6    9.54    1.35
   4   2  -6    8.03    1.77
  -2  -2   6    7.32    1.81
   2  -2  -6    6.54    0.97
  -2  -2   6    5.63    1.46
   2   2  -6    8.29    1.67
   2   2  -6    8.15    1.17
   2   2  -6    5.37    1.28
   0  -2   6  186.66    7.86
   0  -2   6  167.84    7.42
   0   2  -6  177.82    7.24
   0   2  -6  173.06    6.53
   0   2  -6  172.88    7.12
   2  -2   6    0.64    1.34
   2  -2   6    2.98    1.50
  -2   2  -6    4.88    1.34
  -2   2  -6    3.57    0.86
  -2   2  -6    5.17    1.32
   4  -2   6  150.27    7.00
  -4   2  -6  143.40    5.59
  -4   2  -6  138.69    6.29
  -4   2  -6  148.22    6.47
  -6  -2  -6   18.76    1.49
   6  -2   6   17.53    2.81
  -6   2  -6   20.84    1.78
  -6   2  -6   24.08    2.61
  -6   2  -6   20.65    2.35
  -8  -2  -6   21.90    2.01
  -8   2  -6   17.21    2.39
  -8   2  -6   20.98    2.53
  -8   2  -6   21.65    1.95
 -10  -2  -6    8.01    1.71
 -10   2  -6    7.41    1.93
 -10   2  -6    7.47    1.39
 -12  -2  -6    9.51    2.01
 -12   2  -6    7.26    2.23
 -14  -2  -6    4.21    1.84
 -14   2  -6    0.45    2.00
 -14   2  -6    1.62    1.16
 -16  -2  -6    1.94    1.91
 -16   2  -6    4.67    1.39
 -16   2  -6    5.07    2.57
 -18  -2  -6   39.52    4.28
 -18   2  -6   36.60    4.70
 -18   2  -6   39.69    2.83
 -20  -2  -6    7.89    2.73
 -20   2  -6    1.40    2.44
 -25  -3   6    0.81    2.08
  25  -3  -6    0.05    3.17
  23  -3  -6    2.17    3.19
 -23  -3   6    2.66    2.18
 -21  -3   6    4.84    2.41
  21  -3  -6    6.70    3.26
  19  -3  -6    0.21    2.47
 -19  -3   6   -1.98    2.16
 -19  -3   6   -2.74    1.62
  19  -3  -6    1.63    4.07
 -17  -3   6   11.25    2.58
  17  -3  -6    9.04    2.88
 -17  -3   6    5.51    2.61
  17  -3  -6    7.08    4.05
  15  -3  -6    2.29    3.49
  15  -3  -6    0.41    1.90
 -15  -3   6    0.33    1.74
 -15  -3   6   -0.08    1.96
 -13  -3   6   24.24    3.44
 -13  -3   6   22.16    3.15
  13  -3  -6   23.85    4.72
  13  -3  -6   26.38    3.18
  13   3  -6   28.02    3.46
 -11  -3   6   28.94    3.62
  11  -3  -6   33.53    2.18
 -11  -3   6   26.42    3.16
  11  -3  -6   30.05    2.88
  11   3  -6   43.23    4.19
  11   3  -6   35.16    3.52
  -9  -3   6   12.70    2.27
   9  -3  -6    6.98    0.90
   9  -3  -6    6.51    1.26
  -9  -3   6    4.04    2.03
   9  -3  -6    7.17    1.88
   9   3  -6    6.75    2.01
   9   3  -6    7.51    1.81
   7  -3  -6   20.65    2.41
  -7  -3   6   19.24    3.00
  -7  -3   6   20.70    2.62
   7   3  -6   21.57    2.36
   7   3  -6   17.86    2.69
   5  -3  -6    0.11    1.24
  -5  -3   6    3.48    1.53
  -5  -3   6    0.24    1.62
   5   3  -6    2.78    1.53
   5   3  -6    3.70    1.17
  -3  -3   6    1.68    1.39
  -3  -3   6    1.07    1.52
   3  -3  -6    1.32    1.04
   3   3  -6    0.12    1.27
   3   3  -6    1.20    0.96
  -1  -3   6    8.46    2.05
   1  -3  -6    3.84    0.95
  -1  -3   6    4.71    1.69
   1   3  -6    5.08    1.59
   1   3  -6    6.05    1.22
   1  -3   6    9.57    2.33
   1  -3   6   12.80    2.27
  -1   3  -6    8.88    1.38
  -1   3  -6   11.73    1.87
   3  -3   6   -2.23    1.30
  -3   3  -6    0.07    0.82
  -3   3  -6    2.42    1.35
  -5  -3  -6   31.55    1.82
   5  -3   6   32.50    3.82
  -5   3  -6   30.65    2.34
  -5   3  -6   31.80    3.03
  -7  -3  -6   20.46    2.63
  -7  -3  -6   15.07    1.70
  -7   3  -6   16.34    1.79
  -7   3  -6   15.41    2.30
  -9  -3  -6   15.25    1.97
  -9  -3  -6   15.11    2.97
  -9   3  -6   18.11    1.97
  -9   3  -6   12.84    2.46
 -11  -3  -6   61.25    3.78
 -11   3  -6   54.38    4.69
 -11   3  -6   55.61    3.50
 -13  -3  -6    1.29    1.70
 -13   3  -6   -0.21    1.84
 -13   3  -6    0.70    1.17
 -15  -3  -6    3.08    2.07
 -15   3  -6    3.47    2.43
 -17  -3  -6    5.50    2.29
 -17   3  -6    0.64    1.46
 -17   3  -6   -1.65    2.25
 -19  -3  -6   11.53    3.02
 -19   3  -6    7.40    1.90
  24  -4  -6   20.69    4.59
 -24  -4   6   13.20    2.77
  22  -4  -6    1.00    2.98
 -22  -4   6    1.55    1.97
  20  -4  -6   27.48    4.68
 -20  -4   6   26.80    3.61
 -20  -4   6   25.57    4.83
  18  -4  -6   -0.88    2.27
 -18  -4   6   -1.46    1.76
  18  -4  -6    2.55    4.43
 -18  -4   6   -2.37    2.23
 -16  -4   6    8.02    2.93
  16  -4  -6    5.95    2.42
  16  -4  -6    6.84    4.05
 -16  -4   6    5.63    2.19
 -14  -4   6   27.60    3.97
  14  -4  -6   26.92    3.40
 -14  -4   6   32.20    3.74
  12  -4  -6    2.08    0.90
  12  -4  -6   -1.26    1.29
 -12  -4   6    2.34    1.87
 -12  -4   6    1.33    1.94
  10  -4  -6   85.48    3.99
  10  -4  -6   88.94    3.59
 -10  -4   6   79.51    5.51
  10   4  -6   93.12    5.45
  -8  -4   6    0.51    1.55
  -8  -4   6    3.81    2.14
   8   4  -6    3.95    1.50
   6  -4  -6   50.23    3.25
  -6  -4   6   52.94    4.49
  -6  -4   6   42.96    4.52
   6   4  -6   49.29    3.67
   6   4  -6   51.60    3.79
  -4  -4   6   22.72    2.99
   4  -4  -6   23.80    2.20
  -4  -4   6   26.01    3.47
   4   4  -6   26.52    2.46
   4   4  -6   19.11    2.56
  -2  -4   6   12.20    2.63
  -2  -4   6   12.39    2.42
   2  -4  -6   12.16    1.45
   2   4  -6   12.30    2.10
   2   4  -6   11.68    1.73
   0  -4   6   17.66    2.83
   0  -4  -6   20.54    1.55
   0  -4   6   19.87    3.15
   0  -4  -6   19.40    2.04
   0   4  -6   22.53    2.20
   0   4  -6   20.51    2.57
  -2  -4  -6   39.92    2.43
  -2  -4  -6   36.55    1.95
   2  -4   6   43.54    4.44
   2  -4   6   21.91    3.47
  -2   4  -6   34.46    3.25
  -2   4  -6   36.30    2.69
  -4  -4  -6   16.61    1.71
   4  -4   6   18.90    3.26
  -4  -4  -6   15.74    1.53
  -4   4  -6   17.38    1.94
  -4   4  -6   17.61    2.47
  -6  -4  -6   -0.27    1.33
  -6  -4  -6    0.59    1.15
   6  -4   6    0.82    2.15
  -6   4  -6    1.28    1.00
  -6   4  -6    1.12    1.58
  -8  -4  -6    4.24    1.44
  -8  -4  -6    6.15    2.10
  -8   4  -6    6.26    1.53
  -8   4  -6    4.13    1.91
 -10  -4  -6    0.53    1.51
 -10  -4  -6    1.66    2.31
 -10   4  -6    0.86    1.68
 -10   4  -6   -0.23    1.11
 -12  -4  -6    0.92    1.87
 -12   4  -6    0.59    1.27
 -12   4  -6   -0.89    1.95
 -14  -4  -6   28.11    3.56
 -14   4  -6   17.97    2.54
 -16  -4  -6   -1.24    2.01
 -16   4  -6    0.70    1.53
 -18  -4  -6   40.25    4.66
 -18   4  -6   38.98    3.67
  21  -5  -6   10.74    3.49
 -21  -5   6    7.53    2.29
  19  -5  -6   -1.44    2.40
 -19  -5   6    0.61    2.87
 -19  -5   6    4.30    2.26
 -17  -5   6   11.46    2.73
  17  -5  -6   11.19    2.90
 -17  -5   6   13.42    3.69
  15  -5  -6    2.66    1.86
 -15  -5   6   -0.85    2.33
 -15  -5   6   -1.19    1.74
 -13  -5   6   12.87    3.30
  13  -5  -6   19.69    1.82
 -13  -5   6   25.26    3.54
  13  -5  -6   17.92    2.37
 -11  -5   6    9.92    2.95
 -11  -5   6   10.05    2.62
  -9  -5   6    5.61    2.27
  -9  -5   6    3.10    2.48
  -7  -5   6   11.37    2.52
  -7  -5   6    7.14    2.62
  -5  -5   6   -1.51    1.74
  -5  -5   6    0.54    1.75
   5   5  -6    1.28    1.28
   3  -5  -6    1.61    1.07
  -3  -5   6    0.04    1.97
  -3  -5   6   -0.22    1.79
   3   5  -6    1.71    1.25
   1  -5  -6    3.99    1.19
  -1  -5   6    3.69    2.30
   1  -5  -6    5.00    1.79
  -1  -5   6    8.00    2.46
   1   5  -6    4.08    1.43
   1  -5   6    6.86    2.56
  -1  -5  -6    7.85    1.33
   1  -5   6    7.87    2.58
  -1  -5  -6    6.18    1.80
  -1   5  -6    6.47    1.57
   3  -5   6   -0.45    1.96
  -3  -5  -6    1.39    1.16
  -3  -5  -6    1.45    1.40
  -3   5  -6    1.23    1.18
   5  -5   6   15.37    3.54
  -5  -5  -6   10.47    1.89
  -5  -5  -6   11.40    1.99
  -5   5  -6    7.91    1.67
  -7  -5  -6    6.45    2.11
   7  -5   6   16.18    3.74
  -7  -5  -6    6.49    1.87
  -7   5  -6    6.85    1.65
  -9  -5  -6   11.64    2.26
  -9   5  -6    8.60    1.80
 -11  -5  -6   36.03    3.61
 -11   5  -6   32.84    3.14
 -13  -5  -6    0.17    2.10
 -13   5  -6   -0.16    1.38
 -15  -5  -6    5.17    2.62
 -15   5  -6    6.72    1.94
 -20  -6   6    4.24    2.03
  20  -6  -6    0.96    2.41
  18  -6  -6    8.13    2.55
 -18  -6   6    7.04    3.82
 -18  -6   6   10.94    2.65
  16  -6  -6    1.61    1.73
 -16  -6   6   -0.99    1.94
 -16  -6   6   -0.87    2.82
 -14  -6   6   17.88    3.22
 -14  -6   6   24.89    4.60
  14  -6  -6   19.65    1.89
 -12  -6   6    2.76    2.63
 -12  -6   6   -0.06    2.00
 -10  -6   6    2.82    2.15
 -10  -6   6    6.30    2.92
  -8  -6   6   17.09    3.33
  -8  -6   6   19.58    3.80
  -6  -6   6    2.61    2.24
  -6  -6   6    0.68    2.24
  -4  -6   6    0.39    2.43
  -4  -6   6   -0.15    2.09
  -2  -6   6   -0.31    2.12
  -2  -6   6    3.02    2.49
   0  -6  -6   40.59    4.05
   0  -6   6   40.32    5.06
   2  -6   6    0.22    2.38
  -2  -6  -6    0.33    1.72
  -2   6  -6    0.45    1.27
  -4  -6  -6   42.44    3.89
   4  -6   6   37.59    5.45
  -4   6  -6   49.39    3.50
   6  -6   6   10.54    3.65
  -6  -6  -6    7.71    2.24
  -6   6  -6    9.95    2.04
   8  -6   6    0.91    3.03
  -8  -6  -6    3.61    2.12
  -8   6  -6    2.87    1.62
 -10  -6  -6    3.67    2.19
 -10   6  -6    2.57    1.55
 -12  -6  -6    7.51    2.63
 -12   6  -6    6.54    1.98
 -14  -6  -6    0.43    2.55
 -14   6  -6   -0.44    1.60
 -15  -7   6   -0.77    1.94
 -15  -7   6   -2.31    2.85
 -13  -7   6    7.17    2.55
 -13  -7   6    1.47    3.19
 -11  -7   6    8.42    2.75
 -11  -7   6    3.96    3.04
  -9  -7   6    5.99    2.75
  -9  -7   6    5.54    2.91
  -7  -7   6    9.96    3.14
  -7  -7   6    7.16    3.55
  -5  -7   6    0.96    2.41
  -3  -7   6    5.21    2.87
  -1  -7   6   -3.41    2.49
   1  -7   6   -1.96    2.72
  -1  -7  -6    0.92    2.27
   3  -7   6   -3.98    2.58
  -3  -7  -6    2.53    2.26
  -5  -7  -6    7.25    2.64
   5  -7   6    7.07    3.70
   7  -7   6    2.08    3.38
  -7  -7  -6    4.35    2.43
  -9  -7  -6    1.38    2.40
   9  -7   6   10.64    4.58
 -10  -8   6    4.41    2.67
  -8  -8   6   -0.98    2.45
  -6  -8   6    5.90    2.98
  -4  -8   6    3.66    3.19
  -2  -8   6    7.71    3.60
   0  -8   6    6.06    3.43
  -2  -8  -6    6.99    3.04
   2  -8   6   13.92    4.44
   4  -8   6   -1.75    3.42
  -4  -8  -6    2.78    2.59
 -26   0   7   25.14    3.80
 -24   0   7    4.88    2.25
 -22   0   7    3.08    1.99
  22   0  -7    9.16    3.51
  20   0  -7   23.62    4.31
 -20   0   7   23.40    3.14
  18   0  -7    4.14    2.49
  18   0  -7    8.18    3.67
 -18   0   7    4.15    1.87
  16   0  -7    0.96    1.97
 -16   0   7    1.79    1.53
  16   0  -7   -3.64    2.53
 -14   0   7    7.31    2.07
  14   0  -7    8.30    3.38
 -14   0   7    8.14    1.86
  14   0  -7    5.00    2.04
 -12   0   7   67.94    4.39
  12   0  -7   66.41    3.65
  12   0  -7   71.15    4.67
 -12   0   7   65.06    4.22
  12   0  -7   72.21    6.68
  10   0  -7  189.42    7.22
 -10   0   7  179.42    7.69
 -10   0   7  192.42    8.09
  10   0  -7  180.85    9.55
  10   0  -7  190.57    7.85
  -8   0   7  109.80    5.27
   8   0  -7  104.11    5.17
  -8   0   7  102.88    4.95
   8   0  -7  121.57    6.57
   8   0  -7  100.33    4.81
   8   0  -7  109.36    4.47
   6   0  -7   14.48    1.99
   6   0  -7   15.12    1.39
  -6   0   7   16.74    1.72
   6   0  -7   14.09    1.32
   6   0  -7   10.95    2.49
   4   0  -7   39.31    1.84
   4   0  -7   39.94    2.88
   4   0  -7   42.37    1.89
   4   0  -7   43.06    3.49
   2   0  -7   84.43    4.24
   2   0  -7   78.58    4.11
   0   0  -7   42.15    2.89
   0   0  -7   45.30    2.76
  -2   0  -7  112.51    4.73
  -2   0  -7  106.75    5.14
  -4   0  -7    0.78    0.94
  -4   0  -7    0.58    1.21
  -6   0  -7   10.25    1.56
  -6   0  -7   10.43    2.23
  -8   0  -7  140.36    6.07
 -10   0  -7   59.09    3.81
 -12   0  -7   35.00    3.48
 -14   0  -7   28.24    3.48
 -16   0  -7    1.79    2.07
 -18   0  -7    2.12    2.17
 -20   0  -7    5.48    2.71
 -27  -1   7   13.79    3.12
 -27   1   7   12.18    2.97
 -25  -1   7   34.61    4.31
  25  -1  -7   24.85    5.21
 -25   1   7   32.93    4.06
  23  -1  -7   33.97    5.56
 -23  -1   7   38.97    4.47
 -23   1   7   46.47    4.54
 -21  -1   7    6.13    2.35
  21  -1  -7    6.53    3.33
 -21   1   7    7.03    2.27
  21   1  -7   14.89    3.83
  19  -1  -7    5.65    2.61
 -19  -1   7    1.32    1.82
  19   1  -7    0.52    2.42
 -19   1   7   -1.74    1.37
  17  -1  -7    3.47    2.30
 -17  -1   7    1.78    1.68
  17  -1  -7   -0.27    3.17
  17   1  -7    4.91    2.55
 -17   1   7    7.62    1.94
 -15  -1   7  116.73    6.35
  15  -1  -7  116.86    6.91
 -15  -1   7  116.39    6.76
  15  -1  -7  129.64    9.03
  15   1  -7  122.50    8.17
  15   1  -7  109.17    6.89
 -15   1   7  127.78    6.10
 -13  -1   7   64.60    4.41
  13  -1  -7   59.03    4.50
  13  -1  -7   55.41    6.43
 -13  -1   7   60.62    4.39
  13  -1  -7   60.23    3.40
 -13   1   7   64.31    4.03
  13   1  -7   61.31    4.66
  13   1  -7   75.57    6.55
  11  -1  -7    5.44    1.09
 -11  -1   7    7.60    1.79
  11  -1  -7    8.07    3.34
  11  -1  -7    6.80    1.62
 -11  -1   7    7.25    2.03
 -11   1   7    7.40    1.82
  11   1  -7    6.18    1.73
 -11   1   7    6.75    1.44
  11   1  -7   10.98    2.83
   9  -1  -7   41.37    2.94
  -9  -1   7   44.43    3.42
   9  -1  -7   37.04    4.80
   9  -1  -7   43.69    2.29
   9  -1  -7   42.15    2.92
  -9  -1   7   44.43    3.77
   9   1  -7   46.18    3.37
   9   1  -7   45.81    4.48
  -9   1   7   41.57    2.98
   9   1  -7   39.24    2.90
   7  -1  -7   11.68    0.93
  -7  -1   7   14.32    2.23
   7  -1  -7   15.67    3.09
   7  -1  -7   15.77    1.23
  -7  -1   7   10.48    1.75
   7  -1  -7   14.47    1.88
   7   1  -7   13.18    1.67
   7   1  -7   14.15    1.59
   7   1  -7   13.62    2.44
  -5  -1   7   17.73    2.36
   5  -1  -7   17.00    2.74
  -5  -1   7   18.83    2.04
   5  -1  -7   21.09    2.05
   5   1  -7   16.49    2.46
   5   1  -7   18.11    1.71
   5   1  -7   17.46    1.61
  -3  -1   7   15.41    1.81
   3  -1  -7   15.03    2.19
   3  -1  -7   15.12    1.66
   3   1  -7   16.65    2.24
   3   1  -7   13.29    1.44
   3   1  -7   12.93    1.24
   3   1  -7   13.41    2.06
  -1  -1   7    4.27    1.21
   1  -1  -7    2.06    1.22
   1  -1  -7    2.52    1.10
   1   1  -7    3.41    0.70
   1   1  -7    4.11    1.54
   1   1  -7    3.98    1.36
   1   1  -7    4.30    0.95
  -1  -1  -7   33.43    2.23
  -1  -1  -7   34.40    2.13
  -1   1  -7   37.85    2.71
  -1   1  -7   37.12    3.19
  -1   1  -7   33.03    1.77
  -1   1  -7   34.77    2.20
  -3  -1  -7   20.30    1.58
  -3  -1  -7   18.81    1.95
  -3   1  -7   16.75    1.96
  -3   1  -7   19.93    1.60
  -3   1  -7   21.73    2.63
  -3   1  -7   21.67    1.35
  -5  -1  -7   37.21    2.17
  -5   1  -7   35.53    2.73
  -5   1  -7   38.19    1.92
  -5   1  -7   40.30    2.33
  -5   1  -7   33.33    3.51
  -7  -1  -7    7.49    1.34
  -7   1  -7    9.55    1.73
  -7   1  -7    7.02    1.10
  -7   1  -7    8.27    0.97
  -9  -1  -7    0.53    1.12
  -9   1  -7    1.12    1.43
 -11  -1  -7   -0.67    1.34
 -11   1  -7    0.82    1.47
 -13  -1  -7    8.04    2.12
 -13   1  -7    9.40    2.34
 -15  -1  -7    1.53    1.85
 -15   1  -7    2.92    2.26
 -17  -1  -7    2.32    2.22
 -17   1  -7    1.93    2.27
 -19  -1  -7    2.91    2.39
 -19   1  -7    3.05    2.57
  26  -2  -7    6.71    3.71
 -26  -2   7    7.85    2.75
 -24  -2   7   19.31    3.43
  24  -2  -7   14.93    4.23
 -22  -2   7   -1.02    1.78
  22  -2  -7    2.69    3.04
  20  -2  -7   55.86    6.00
 -20  -2   7   50.47    4.81
  18  -2  -7    8.77    2.96
  18  -2  -7    1.65    4.01
 -18  -2   7    6.23    2.20
  18   2  -7    4.31    2.57
  16  -2  -7   11.71    2.75
 -16  -2   7    8.32    2.31
 -16  -2   7   10.88    2.75
  16  -2  -7    9.31    4.42
  16   2  -7    8.40    2.61
 -14  -2   7    7.77    2.19
 -14  -2   7    3.33    2.20
  14  -2  -7    4.27    1.93
  14  -2  -7    5.46    3.72
  14   2  -7    6.73    2.74
  14   2  -7    4.37    1.92
  12  -2  -7   -0.29    0.74
  12  -2  -7    0.92    2.94
  12  -2  -7   -0.72    1.25
 -12  -2   7    1.13    1.70
 -12  -2   7    0.46    1.49
  12   2  -7    1.10    1.53
  12   2  -7   -0.91    1.95
  10  -2  -7   21.36    2.12
  10  -2  -7   32.97    4.77
  10  -2  -7   26.45    2.76
  10  -2  -7   25.29    1.74
 -10  -2   7   26.24    3.21
 -10  -2   7   28.76    3.00
  10   2  -7   24.34    3.41
  10   2  -7   28.50    2.84
   8  -2  -7  132.42    8.09
  -8  -2   7  133.17    6.43
   8  -2  -7  143.53    6.06
   8   2  -7  132.15    6.90
   8   2  -7  130.22    6.17
   6  -2  -7   40.23    4.41
  -6  -2   7   37.36    3.25
  -6  -2   7   40.06    3.72
   6  -2  -7   32.41    2.46
   6   2  -7   37.56    2.78
   6   2  -7   40.32    3.64
  -4  -2   7    2.13    1.43
  -4  -2   7    1.09    1.26
   4  -2  -7    3.86    2.21
   4  -2  -7    1.63    1.01
   4   2  -7    1.68    1.06
   4   2  -7    1.43    0.94
   4   2  -7    2.59    1.53
   2  -2  -7  281.03   10.93
   2  -2  -7  289.84   10.03
  -2  -2   7  273.47   11.01
  -2  -2   7  297.04   11.57
   2   2  -7  286.50   10.17
   2   2  -7  290.76   10.70
   2   2  -7  283.32   11.16
   0  -2   7  245.02    9.85
   0  -2   7  246.04   10.19
   0   2  -7  248.56    9.39
   0   2  -7  235.16    9.58
   0   2  -7  245.83    8.75
   2  -2   7   31.10    3.08
  -2   2  -7   34.95    2.65
  -2   2  -7   26.82    1.99
  -2   2  -7   25.61    2.41
  -4  -2  -7    5.51    0.79
   4  -2   7   10.45    2.11
  -4   2  -7    5.46    1.55
  -4   2  -7    5.34    1.02
  -4   2  -7    6.25    1.52
  -6  -2  -7   44.38    2.30
  -6   2  -7   42.30    3.36
  -6   2  -7   47.58    3.41
  -6   2  -7   46.77    2.61
  -8  -2  -7   23.40    2.09
  -8   2  -7   24.26    2.65
  -8   2  -7   24.53    2.83
  -8   2  -7   23.92    2.01
 -10  -2  -7    0.58    1.33
 -10   2  -7    0.34    1.31
 -10   2  -7   -0.05    0.93
 -10   2  -7    1.50    1.58
 -12  -2  -7    4.69    1.75
 -12   2  -7    6.20    2.06
 -12   2  -7    5.87    1.33
 -14  -2  -7   21.24    2.98
 -14   2  -7   23.67    2.07
 -14   2  -7   21.71    3.33
 -16  -2  -7   -0.65    1.79
 -16   2  -7    1.21    1.05
 -16   2  -7    3.48    2.65
 -18  -2  -7   15.72    2.99
 -18   2  -7   16.10    3.59
  25  -3  -7   23.05    4.88
 -25  -3   7   25.26    3.86
  23  -3  -7   29.36    4.81
 -23  -3   7   23.95    3.79
  21  -3  -7    5.78    3.04
 -21  -3   7    3.25    2.31
 -19  -3   7   -0.24    1.87
  19  -3  -7    3.32    4.02
  19  -3  -7    4.25    2.61
 -17  -3   7    3.06    2.56
 -17  -3   7    5.22    2.18
  17  -3  -7    4.36    4.16
  17  -3  -7    4.88    2.46
  15  -3  -7   75.14    5.33
 -15  -3   7   86.86    5.79
  15  -3  -7   86.27    8.88
  15   3  -7   90.89    6.24
 -13  -3   7   47.34    4.41
  13  -3  -7   51.26    2.84
 -13  -3   7   50.81    4.88
  13  -3  -7   53.59    3.94
  13  -3  -7   53.91    6.59
  13   3  -7   50.75    4.49
  11  -3  -7    6.17    3.26
 -11  -3   7    4.85    1.95
  11  -3  -7    3.18    0.83
 -11  -3   7    3.37    1.99
  11  -3  -7    3.40    1.26
  11   3  -7    6.92    2.45
  11   3  -7    2.94    1.63
  -9  -3   7   33.57    3.55
  -9  -3   7   42.98    4.27
   9  -3  -7   32.60    3.24
   9   3  -7   38.77    3.91
   9   3  -7   37.68    3.45
  -7  -3   7    4.37    1.72
   7  -3  -7    2.68    1.46
  -7  -3   7   -1.18    1.54
   7   3  -7    1.33    1.68
   7   3  -7    1.30    1.22
  -5  -3   7   12.53    2.53
   5  -3  -7   12.84    1.78
  -5  -3   7   11.58    2.17
   5   3  -7    7.33    1.98
   5   3  -7   12.51    1.72
  -3  -3   7   22.87    2.79
  -3  -3   7   12.93    2.54
   3  -3  -7   17.85    1.76
   3   3  -7   16.52    2.42
   3   3  -7   19.14    1.99
  -1  -3   7    8.38    2.19
   1  -3  -7    6.37    0.95
  -1  -3   7    4.28    1.73
   1   3  -7    9.33    1.88
   1   3  -7    5.42    1.23
   1  -3   7   23.56    2.97
   1  -3   7   15.75    2.76
  -1   3  -7   18.49    1.86
  -1   3  -7   21.76    2.50
   3  -3   7   33.23    3.67
  -3   3  -7   27.98    2.34
  -3   3  -7   34.90    3.19
  -5   3  -7   33.06    2.44
  -5   3  -7   33.23    3.24
  -7  -3  -7    3.70    1.21
  -7   3  -7    4.56    1.76
  -7   3  -7    1.32    1.02
  -9  -3  -7   -0.43    1.18
  -9   3  -7    0.52    1.55
  -9   3  -7    0.38    1.08
 -11  -3  -7    3.15    1.63
 -11   3  -7    1.15    1.16
 -11   3  -7    6.51    2.17
 -13  -3  -7    3.98    1.92
 -13   3  -7    3.48    1.45
 -13   3  -7    5.24    2.32
 -15  -3  -7    3.69    1.97
 -15   3  -7    5.68    1.65
 -15   3  -7    5.93    2.78
 -17  -3  -7   -1.24    1.97
 -17   3  -7    1.44    1.36
 -17   3  -7   -0.33    2.72
 -24  -4   7    6.41    2.52
  24  -4  -7   -0.51    2.91
  22  -4  -7    2.17    2.76
 -22  -4   7    0.65    2.11
  20  -4  -7   21.86    3.85
 -20  -4   7   17.40    3.39
 -18  -4   7    4.25    2.96
 -18  -4   7    3.41    2.25
  18  -4  -7    6.92    4.55
  18  -4  -7    3.53    2.30
  16  -4  -7    0.68    4.09
  16  -4  -7    2.17    1.87
 -16  -4   7    1.32    2.30
 -16  -4   7    2.31    2.13
 -14  -4   7    2.38    2.25
 -14  -4   7    1.90    2.05
  14  -4  -7    2.96    1.67
 -12  -4   7   36.96    4.53
  12  -4  -7   35.69    2.66
 -12  -4   7   39.48    4.18
  12  -4  -7   43.16    2.25
  12   4  -7   40.46    3.97
 -10  -4   7   76.03    5.39
 -10  -4   7   68.20    5.39
  10   4  -7   76.38    4.91
  -8  -4   7   61.78    4.92
  -8  -4   7   49.54    5.02
   8   4  -7   46.14    3.80
  -6  -4   7   10.12    2.59
   6  -4  -7    5.42    1.65
  -6  -4   7   10.11    2.44
   6   4  -7    7.81    1.72
   6   4  -7   10.02    2.15
  -4  -4   7   31.53    3.86
  -4  -4   7   32.66    3.55
   4  -4  -7   31.62    2.53
   4   4  -7   33.24    2.82
   4   4  -7   23.39    2.95
  -2  -4   7   48.86    4.74
  -2  -4   7   41.43    4.11
   2  -4  -7   37.68    2.36
   2   4  -7   42.21    3.06
   2   4  -7   41.73    3.67
   0  -4  -7   21.13    1.48
   0  -4   7   16.87    2.93
   0  -4  -7   21.90    1.98
   0   4  -7   18.02    2.48
   0   4  -7   24.35    2.33
   2  -4   7   34.88    4.14
  -2   4  -7   49.78    3.13
  -2   4  -7   50.34    3.79
   4  -4   7   -0.45    1.98
  -4   4  -7    1.11    1.06
  -4   4  -7   -0.78    1.36
  -6  -4  -7    5.60    1.63
  -6  -4  -7    3.27    1.15
  -6   4  -7    7.26    1.55
  -6   4  -7    4.78    1.84
  -8  -4  -7   68.35    4.87
  -8  -4  -7   71.41    3.72
  -8   4  -7   62.99    3.92
  -8   4  -7   74.84    4.86
 -10  -4  -7   26.94    2.77
 -10   4  -7   34.09    3.85
 -10   4  -7   21.99    2.45
 -12  -4  -7   18.01    2.69
 -12   4  -7   23.12    2.64
 -14  -4  -7   16.57    2.86
 -14   4  -7   15.41    2.36
 -16  -4  -7   -0.03    2.11
 -21  -5   7    4.88    2.46
  21  -5  -7    0.48    2.39
  19  -5  -7   -0.81    5.00
  19  -5  -7    5.05    2.42
 -19  -5   7   -1.70    1.90
 -17  -5   7    6.41    2.54
 -17  -5   7    4.66    2.90
  17  -5  -7   10.19    2.39
  17  -5  -7    3.92    4.34
 -15  -5   7   51.13    4.95
  15  -5  -7   38.90    3.36
 -15  -5   7   50.42    5.80
 -13  -5   7   17.62    3.73
 -13  -5   7   14.55    2.95
 -11  -5   7    5.31    2.65
 -11  -5   7    5.70    2.29
  -9  -5   7    7.07    2.77
  -9  -5   7    9.82    2.71
  -7  -5   7    1.35    2.23
  -7  -5   7    3.78    2.13
   7   5  -7    4.08    1.61
  -5  -5   7    4.22    2.44
  -5  -5   7    6.81    2.40
   5   5  -7    3.93    1.58
  -3  -5   7    2.26    2.19
  -3  -5   7   -0.06    1.86
   3  -5  -7    2.51    1.13
   3   5  -7    0.65    1.26
  -1  -5   7   -1.40    1.76
   1  -5  -7    3.45    1.07
   1   5  -7    1.65    1.23
  -1  -5  -7   21.36    2.40
  -1  -5  -7   23.09    1.88
   1  -5   7   19.71    3.72
  -1   5  -7   22.99    2.54
  -3  -5  -7    6.69    1.61
   3  -5   7    4.48    2.64
  -3  -5  -7    3.78    1.30
  -3   5  -7    7.06    1.57
   5  -5   7   16.60    3.76
  -5  -5  -7   18.74    2.11
  -5  -5  -7   15.88    2.09
  -5   5  -7   17.28    2.24
  -7  -5  -7    6.57    2.20
  -7  -5  -7    6.30    1.72
  -7   5  -7    9.70    1.87
  -9  -5  -7    1.09    1.67
  -9   5  -7    4.66    1.53
 -11  -5  -7   -1.16    1.68
 -11   5  -7   -0.09    1.28
 -13  -5  -7    6.79    2.31
 -13   5  -7    4.00    1.73
 -15  -5  -7    4.27    2.41
 -15   5  -7    2.23    1.75
 -18  -6   7    0.21    2.21
  18  -6  -7    0.69    1.67
 -16  -6   7   -0.36    1.99
 -14  -6   7    3.04    2.46
 -12  -6   7    5.88    2.50
 -12  -6   7   -1.98    2.47
 -10  -6   7   13.16    3.14
 -10  -6   7    2.86    2.81
  -8  -6   7   34.97    4.34
  -8  -6   7   21.88    4.11
  -6  -6   7   11.53    3.09
  -4  -6   7    0.48    2.20
  -2  -6   7   66.13    6.25
   0  -6   7   35.66    5.00
   0   6  -7   36.44    3.34
   2  -6   7    7.70    3.24
  -2  -6  -7    4.61    2.04
  -2   6  -7    3.31    1.51
   4  -6   7    2.46    2.97
  -4  -6  -7   -1.61    1.58
  -4   6  -7    0.83    1.29
  -6  -6  -7   16.12    2.49
   6  -6   7   19.97    4.66
  -6   6  -7   11.11    2.10
  -8  -6  -7    7.59    2.28
  -8   6  -7    4.05    1.69
 -10   6  -7   -0.90    1.32
 -12  -6  -7    5.12    2.39
 -12   6  -7    1.52    1.63
 -15  -7   7   15.47    3.32
 -13  -7   7   10.08    3.10
 -11  -7   7   -1.78    2.20
  -9  -7   7    6.79    2.96
  -7  -7   7    3.00    2.68
  -5  -7   7    3.24    2.90
  -3  -7   7    6.79    3.11
  -1  -7   7   -4.35    2.40
   1  -7   7    1.52    3.15
   3  -7   7    6.75    3.74
  -3  -7  -7    6.71    2.45
   5  -7   7   12.25    4.19
  -5  -7  -7    7.67    2.49
   7  -7   7    4.80    3.75
  -7  -7  -7    1.11    1.97
  -9  -7  -7    0.98    2.15
  -8  -8   7    7.55    3.38
  -6  -8   7   -1.33    2.89
  -4  -8   7    2.30    3.26
  -2  -8   7    4.98    3.62
   0  -8   7    5.73    3.91
   2  -8   7    2.37    3.54
 -26   0   8    2.50    2.39
  24   0  -8   16.96    4.33
 -24   0   8   13.79    3.06
  22   0  -8   49.22    5.97
 -22   0   8   36.80    4.30
 -20   0   8    2.17    1.76
  20   0  -8   -0.11    2.31
  18   0  -8  172.87    9.41
  18   0  -8  170.13   11.26
 -18   0   8  185.74    8.60
  16   0  -8   -0.16    2.99
  16   0  -8    3.19    1.94
 -16   0   8   -2.96    1.23
  14   0  -8    2.57    1.71
 -14   0   8    2.40    1.53
  14   0  -8    0.64    2.98
  12   0  -8   65.36    4.40
 -12   0   8   64.91    4.32
  12   0  -8   80.13    7.06
  12   0  -8   68.97    3.66
  10   0  -8   49.29    2.91
 -10   0   8   49.98    3.56
  10   0  -8   50.78    5.35
  10   0  -8   52.10    3.46
 -10   0   8   47.86    3.64
   8   0  -8  217.82   10.34
   8   0  -8  220.32    8.10
  -8   0   8  228.06    8.78
   8   0  -8  221.39    8.30
   8   0  -8  232.65    9.29
   6   0  -8   35.94    2.02
   6   0  -8   33.15    3.60
   6   0  -8   48.83    3.21
   6   0  -8   37.47    2.01
   4   0  -8    5.08    0.61
   4   0  -8    5.25    1.72
   4   0  -8    5.58    1.57
   2   0  -8    7.30    1.68
   2   0  -8    3.82    1.47
   0   0  -8    2.40    1.39
   0   0  -8    1.90    1.26
  -2   0  -8  231.21    9.23
  -2   0  -8  221.20    8.59
  -4   0  -8   24.50    2.19
  -4   0  -8   27.15    2.95
  -6   0  -8   59.39    3.40
  -6   0  -8   63.52    4.36
  -8   0  -8   16.17    2.03
 -10   0  -8   11.16    2.05
 -12   0  -8   -1.43    1.48
 -14   0  -8    7.29    2.47
 -16   0  -8    5.24    2.43
 -18   0  -8   23.60    3.76
  27  -1  -8    3.08    3.67
 -27  -1   8    4.28    2.52
  25  -1  -8    9.35    3.85
 -25  -1   8    7.87    2.79
  23  -1  -8   -0.73    2.71
 -23  -1   8   -2.22    1.72
  21  -1  -8   23.41    4.28
 -21  -1   8   13.83    3.01
  21   1  -8   27.24    4.61
  19  -1  -8   37.72    6.36
 -19  -1   8   33.39    3.94
  19  -1  -8   32.27    4.46
  19   1  -8   36.74    4.89
  17  -1  -8   10.37    2.70
 -17  -1   8   11.74    2.70
  17  -1  -8   12.73    4.39
  17   1  -8    6.07    2.50
  17   1  -8    7.49    3.69
  15  -1  -8   46.74    6.36
  15  -1  -8   50.26    4.38
 -15  -1   8   43.50    4.03
  15   1  -8   49.32    4.43
  15   1  -8   56.96    6.24
  13  -1  -8    5.36    3.39
 -13  -1   8    1.42    1.62
  13  -1  -8   -0.76    1.40
  13  -1  -8   -0.38    0.83
 -13  -1   8   -0.70    1.40
  13   1  -8   -1.22    2.30
  13   1  -8   -3.71    1.23
 -11  -1   8    5.34    1.70
 -11  -1   8    2.76    1.76
  11  -1  -8    3.02    1.41
  11  -1  -8    3.99    2.87
  11  -1  -8    4.32    1.00
 -11   1   8    2.50    1.26
  11   1  -8    2.98    2.44
  11   1  -8    5.63    1.67
  -9  -1   8   -1.36    1.26
   9  -1  -8   -0.35    0.82
   9  -1  -8    0.62    0.62
  -9  -1   8   -0.43    1.19
   9  -1  -8   -2.00    2.48
   9  -1  -8   -1.01    1.12
   9   1  -8   -0.04    0.91
   9   1  -8   -0.02    1.87
   9   1  -8   -0.73    1.06
   7  -1  -8    9.31    1.73
  -7  -1   8    9.45    1.73
   7  -1  -8   10.67    2.79
  -7  -1   8   11.63    2.14
   7   1  -8    7.55    1.38
   7   1  -8   13.67    2.52
   7   1  -8   11.40    1.47
   5  -1  -8  138.99    5.84
  -5  -1   8  130.81    6.01
   5  -1  -8  134.80    6.78
   5   1  -8  135.01    6.49
   5   1  -8  127.02    5.24
   5   1  -8  135.32    6.42
   5   1  -8  132.34    5.47
   3  -1  -8   32.31    3.01
   3  -1  -8   35.25    2.59
  -3  -1   8   42.42    3.12
   3   1  -8   33.45    2.01
   3   1  -8   36.38    3.23
   3   1  -8   41.31    3.51
   3   1  -8   32.80    2.34
   1  -1  -8  118.68    5.22
   1  -1  -8  114.63    5.20
   1   1  -8  124.42    4.83
   1   1  -8  111.87    5.64
   1   1  -8  132.66    6.20
   1   1  -8  119.81    4.45
  -1  -1  -8   46.79    2.66
  -1  -1  -8   47.16    2.88
  -1   1  -8   45.98    3.86
  -1   1  -8   44.71    2.10
  -1   1  -8   51.28    3.23
  -1   1  -8   46.83    2.45
  -3  -1  -8   -0.95    0.80
  -3  -1  -8    1.43    1.13
  -3   1  -8    2.51    1.58
  -3   1  -8   -0.05    0.59
  -3   1  -8    0.02    1.10
  -5  -1  -8   17.10    2.33
  -5  -1  -8   19.04    1.75
  -5   1  -8   20.63    2.30
  -7  -1  -8   56.68    3.14
  -7   1  -8   57.20    3.64
  -9  -1  -8   52.32    3.24
  -9   1  -8   56.90    3.81
 -11  -1  -8   15.15    2.30
 -11   1  -8   18.30    2.64
 -13  -1  -8   14.36    2.58
 -13   1  -8   15.85    2.72
 -15  -1  -8    2.32    2.02
 -15   1  -8   -1.54    1.97
 -17  -1  -8   -2.27    1.89
 -17   1  -8    0.99    2.18
 -26  -2   8   19.73    3.71
  26  -2  -8   25.96    5.05
 -24  -2   8    9.39    2.87
  24  -2  -8    8.01    3.59
 -22  -2   8   30.00    4.08
  22  -2  -8   23.15    4.38
  20  -2  -8   24.51    5.77
 -20  -2   8   19.33    3.28
  20  -2  -8   12.70    3.42
  20   2  -8   20.05    3.99
 -18  -2   8   33.96    3.98
  18  -2  -8   41.25    4.66
  18  -2  -8   40.79    6.91
  18   2  -8   40.59    4.72
  16  -2  -8   19.06    5.05
 -16  -2   8   23.28    3.30
  16  -2  -8   24.86    3.36
  16   2  -8   26.26    3.62
 -14  -2   8   17.26    2.92
  14  -2  -8    8.11    4.29
 -14  -2   8    9.81    2.61
  14  -2  -8   14.72    2.41
  14   2  -8   16.13    2.64
  14   2  -8   11.21    3.25
 -12  -2   8   57.18    4.44
  12  -2  -8   60.54    7.01
 -12  -2   8   50.42    4.35
  12  -2  -8   61.32    3.68
  12  -2  -8   53.73    2.78
  12   2  -8   54.07    4.29
  12   2  -8   66.79    5.84
 -10  -2   8    1.40    1.68
  10  -2  -8    5.68    1.68
  10  -2  -8    2.72    0.94
  10  -2  -8   -1.31    2.71
  10  -2  -8    2.10    0.63
 -10  -2   8    3.84    1.62
  10   2  -8    1.03    1.40
  10   2  -8    1.15    2.11
   8  -2  -8  456.51   19.68
   8  -2  -8  514.69   17.47
  -8  -2   8  478.18   17.76
  -8  -2   8  486.67   18.55
   8   2  -8  489.62   18.61
   8   2  -8  481.94   17.18
  -6  -2   8    2.08    1.39
   6  -2  -8   -1.21    2.24
  -6  -2   8    1.45    1.59
   6  -2  -8    0.53    1.06
   6   2  -8    0.60    1.03
   6   2  -8    1.15    1.64
   6   2  -8    2.55    1.10
   4  -2  -8    1.98    1.08
  -4  -2   8    0.91    1.32
   4  -2  -8    2.71    2.17
  -4  -2   8    0.89    1.44
   4   2  -8    0.21    0.89
   4   2  -8   -0.23    1.47
   4   2  -8    1.32    1.05
  -2  -2   8    2.68    1.64
   2  -2  -8   -0.75    1.45
  -2  -2   8    0.65    1.24
   2  -2  -8    0.34    0.90
   2   2  -8    0.63    1.00
   2   2  -8   -1.20    1.23
   2   2  -8   -0.47    0.75
   0  -2  -8    4.44    1.07
   0  -2  -8    3.16    1.19
   0  -2   8    4.71    1.62
   0   2  -8    5.96    1.41
   0   2  -8    6.00    1.11
   0   2  -8    5.53    1.64
  -2  -2  -8   57.76    2.70
  -2   2  -8   57.71    3.69
  -2   2  -8   48.10    3.46
  -2   2  -8   57.07    2.86
  -4  -2  -8    0.48    0.71
  -4   2  -8   -1.39    1.06
  -4   2  -8    0.23    0.79
  -4   2  -8   -0.95    1.14
  -6  -2  -8   13.25    1.39
  -6   2  -8   14.27    1.94
  -6   2  -8   15.38    1.55
  -6   2  -8   13.23    2.15
  -8  -2  -8   36.52    2.50
  -8   2  -8   37.16    2.38
  -8   2  -8   41.32    3.08
  -8   2  -8   34.97    3.38
 -10  -2  -8   14.35    2.07
 -10   2  -8   12.63    1.88
 -10   2  -8   14.61    2.62
 -10   2  -8   12.43    1.50
 -12  -2  -8   14.46    2.38
 -12   2  -8   21.11    3.20
 -12   2  -8   16.08    1.63
 -12   2  -8   19.52    2.06
 -14  -2  -8    2.17    1.96
 -14   2  -8   -1.61    1.85
 -16  -2  -8   20.10    3.16
 -16   2  -8   26.15    4.01
 -18  -2  -8    7.35    2.59
 -18   2  -8    8.36    3.06
  25  -3  -8    9.89    3.81
 -25  -3   8    3.42    2.66
  23  -3  -8   -2.65    2.48
 -23  -3   8   -0.11    2.22
  21  -3  -8   10.51    3.39
 -21  -3   8   19.34    3.46
  19  -3  -8   29.76    6.71
 -19  -3   8   22.85    3.52
  19  -3  -8   33.19    4.25
  17  -3  -8    9.96    2.52
  17  -3  -8   -0.15    3.69
 -17  -3   8    4.62    2.26
  17   3  -8    4.73    2.40
  15  -3  -8   46.00    3.88
 -15  -3   8   42.07    4.44
  15  -3  -8   46.98    6.97
  15   3  -8   43.84    4.51
  13  -3  -8    0.34    1.16
  13  -3  -8    0.77    0.73
  13  -3  -8   -4.30    3.07
 -13  -3   8    0.32    1.88
 -13  -3   8    2.26    1.87
  13   3  -8    1.43    1.63
 -11  -3   8    5.14    2.15
 -11  -3   8    4.22    2.08
  11  -3  -8    6.78    3.68
  11   3  -8    5.52    1.85
  11   3  -8    6.25    2.47
  -9  -3   8   -3.11    1.30
   9  -3  -8    2.71    2.85
  -9  -3   8    0.08    1.90
   9   3  -8    0.98    1.83
   9   3  -8    0.57    1.32
  -7  -3   8    6.46    1.96
   7  -3  -8    4.14    1.51
  -7  -3   8    5.56    2.17
   7   3  -8    4.02    1.39
   7   3  -8    6.08    2.15
   5  -3  -8   74.31    3.88
  -5  -3   8   67.32    4.94
  -5  -3   8   73.74    5.09
   5   3  -8   81.03    4.16
   5   3  -8   75.60    4.86
  -3  -3   8   27.23    3.21
  -3  -3   8   21.61    3.26
   3  -3  -8   25.59    2.04
   3   3  -8   31.32    2.53
   3   3  -8   22.20    2.87
   1  -3  -8   91.26    3.65
   1   3  -8   92.35    4.35
   1   3  -8   88.97    5.14
   1  -3   8   45.27    4.26
  -1   3  -8   36.71    2.63
  -1   3  -8   43.71    3.63
  -3   3  -8    0.51    0.93
  -3   3  -8    0.94    1.43
  -5   3  -8   18.49    1.90
  -5   3  -8   20.31    2.65
  -7  -3  -8   36.54    2.35
  -7   3  -8   36.62    3.64
  -7   3  -8   37.97    2.68
  -9  -3  -8   36.69    2.75
  -9   3  -8   39.72    3.99
  -9   3  -8   42.68    2.89
 -11  -3  -8   11.50    2.03
 -11   3  -8   14.16    2.82
 -11   3  -8   13.77    1.91
 -13  -3  -8   11.17    2.27
 -13   3  -8   16.12    3.19
 -15  -3  -8    2.22    1.92
 -15   3  -8    3.00    2.61
 -15   3  -8   -0.64    1.14
 -17  -3  -8    1.94    2.13
 -17   3  -8   -0.17    1.17
 -17   3  -8   -2.23    2.63
 -24  -4   8   13.87    3.20
  24  -4  -8    8.38    3.52
 -22  -4   8   14.25    3.26
  22  -4  -8   20.02    3.94
 -20  -4   8   -0.62    2.07
  20  -4  -8    4.62    5.05
  20  -4  -8   -1.52    2.06
 -18  -4   8   91.65    6.52
  18  -4  -8   73.03    9.38
  18  -4  -8   89.19    5.74
 -16  -4   8   -1.06    1.90
  16  -4  -8    0.38    4.11
  16  -4  -8   -1.61    1.39
  14  -4  -8   -0.84    3.46
 -14  -4   8    0.88    2.07
  14  -4  -8    1.44    0.79
  14  -4  -8    2.50    1.27
 -12  -4   8   34.02    4.43
 -12  -4   8   35.77    4.17
  12   4  -8   34.45    3.79
 -10  -4   8   25.00    3.39
 -10  -4   8   20.68    3.56
  10   4  -8   24.51    2.92
  -8  -4   8  105.31    6.82
  -8  -4   8  106.57    6.62
   8   4  -8  117.52    5.82
  -6  -4   8   23.67    3.38
   6  -4  -8   22.05    2.48
  -6  -4   8   23.44    3.57
   6   4  -8   21.64    2.51
   6   4  -8   25.39    3.20
  -4  -4   8    3.54    1.91
   4  -4  -8    5.33    1.44
   4   4  -8    6.15    2.00
   4   4  -8    8.08    1.61
   2  -4  -8    1.35    1.05
  -2  -4   8    1.87    1.96
   2   4  -8   -0.22    1.06
   2   4  -8    3.83    1.67
   0  -4   8    2.35    1.94
   0  -4  -8    1.68    0.70
   0   4  -8   -1.22    1.29
   0   4  -8   -0.80    0.99
   2  -4   8  120.74    7.37
  -2   4  -8  108.39    5.16
  -2   4  -8  116.04    6.12
  -4   4  -8   14.09    1.89
  -4   4  -8   14.15    2.48
  -6   4  -8   36.73    3.85
  -6   4  -8   34.29    2.87
  -8  -4  -8   14.08    1.87
  -8   4  -8   14.81    2.04
  -8   4  -8   20.99    3.12
 -10  -4  -8    7.23    1.82
 -10   4  -8   10.33    2.56
 -10   4  -8    4.72    1.62
 -12  -4  -8   -1.29    1.63
 -12   4  -8    0.63    1.35
 -14  -4  -8    7.51    2.35
 -14   4  -8    4.64    1.71
 -16  -4  -8    5.68    2.41
 -16   4  -8    1.73    1.64
  21  -5  -8   16.45    3.21
 -21  -5   8   17.53    3.50
  19  -5  -8    9.40    2.40
 -19  -5   8   16.38    3.40
  19  -5  -8   23.16    6.48
 -17  -5   8    6.27    2.67
  17  -5  -8    7.17    1.86
  17  -5  -8    7.34    5.03
 -15  -5   8   15.71    3.28
 -13  -5   8   -1.37    1.92
 -11  -5   8    0.45    2.10
  -9  -5   8   -1.16    1.90
   9   5  -8    2.48    1.59
  -7  -5   8    5.31    2.34
   7   5  -8    2.73    1.53
  -5  -5   8   59.98    5.41
   5   5  -8   50.30    4.03
  -3  -5   8   15.40    3.25
   3  -5  -8   15.20    1.77
   3   5  -8   13.79    2.16
   1  -5  -8   37.96    2.34
  -1  -5   8   40.21    4.73
   1   5  -8   39.44    3.31
  -1  -5  -8   27.03    1.92
   1  -5   8   29.75    4.39
  -1   5  -8   24.17    2.59
  -3  -5  -8    0.03    0.97
  -3   5  -8   -0.64    1.12
  -5   5  -8    5.21    1.60
  -7  -5  -8   20.71    2.27
  -7  -5  -8   22.71    2.87
  -7   5  -8   21.96    2.53
  -9  -5  -8   26.46    3.65
  -9  -5  -8   17.40    2.41
  -9   5  -8   18.56    2.39
 -11  -5  -8    8.24    2.17
 -11   5  -8   11.30    2.22
 -13  -5  -8   10.13    2.52
 -13   5  -8    7.92    2.09
  18  -6  -8   12.21    6.03
 -18  -6   8   11.80    3.11
 -16  -6   8   15.27    3.39
 -14  -6   8    6.98    2.84
 -12  -6   8   18.53    3.69
 -10  -6   8    5.15    2.84
  -8  -6   8  130.42    8.20
  -6  -6   8   -1.66    2.06
  -4  -6   8    1.17    2.37
  -2  -6   8    0.50    2.41
   2   6  -8    3.76    1.65
   0  -6   8    0.91    2.65
   0   6  -8    0.81    1.43
   2  -6   8   16.86    4.06
  -2  -6  -8   14.22    2.03
  -2  -6  -8   15.48    2.48
  -2   6  -8   19.13    2.57
  -4  -6  -8    3.08    1.59
  -4  -6  -8    1.79    1.63
   4  -6   8    2.26    3.01
  -4   6  -8    1.42    1.43
  -6  -6  -8    0.90    1.67
  -6   6  -8    0.75    1.40
  -8  -6  -8   17.13    2.54
  -8   6  -8   10.99    2.11
 -10  -6  -8    6.68    2.27
 -10   6  -8    6.52    1.91
 -15  -7   8   13.56    3.30
 -13  -7   8    0.12    2.47
 -11  -7   8   -4.92    2.18
  -9  -7   8    1.64    2.63
  -7  -7   8   -1.64    2.53
  -5  -7   8   10.64    3.59
  -3  -7   8   11.53    3.79
  -1  -7   8    9.83    3.80
   1  -7   8   17.44    4.50
  -3  -7  -8    0.19    2.00
   3  -7   8    0.91    3.28
   5  -7   8    7.21    4.07
  -5  -7  -8    8.53    2.42
  -7  -7  -8    8.54    2.48
  -7   7  -8    5.04    1.96
  -6  -8   8    4.37    3.31
  -4  -8   8    3.67    3.57
  -2  -8   8   -0.14    3.17
  26   0  -9    4.06    3.50
  24   0  -9   -1.94    2.63
  22   0  -9    5.53    3.11
  20   0  -9   16.08    3.63
  18   0  -9   32.49    5.98
  18   0  -9   58.08    5.44
  16   0  -9   11.20    2.46
  16   0  -9    5.64    3.92
  14   0  -9   18.74    2.72
  14   0  -9   21.12    4.64
  12   0  -9  105.48    5.46
  12   0  -9  103.64    4.80
  12   0  -9  107.45    7.60
  10   0  -9    3.51    1.08
  10   0  -9    4.27    2.55
  10   0  -9    3.56    1.25
  -8   0   9    0.55    1.11
   8   0  -9    2.10    1.51
   8   0  -9    2.19    2.02
   8   0  -9    0.72    0.82
   8   0  -9    1.66    0.81
   6   0  -9    0.40    0.56
   6   0  -9    1.37    1.86
   6   0  -9    0.10    0.54
   6   0  -9   -0.18    1.31
   4   0  -9   42.07    3.46
   4   0  -9   37.17    3.51
   2   0  -9    0.48    1.40
   2   0  -9    1.32    1.40
   0   0  -9  176.94    7.78
   0   0  -9  177.41    7.37
  -2   0  -9    5.20    1.42
  -2   0  -9    3.55    1.63
  -4   0  -9   53.22    3.14
  -4   0  -9   54.42    3.94
  -6   0  -9   44.96    3.05
  -8   0  -9   19.35    2.34
 -10   0  -9   10.32    2.10
 -12   0  -9   38.57    3.74
 -14   0  -9   73.34    5.23
 -16   0  -9    9.88    2.93
  25  -1  -9   -0.03    3.21
 -25  -1   9   -0.18    2.29
  23  -1  -9    3.87    3.25
 -23  -1   9    7.52    2.80
  23   1  -9   10.84    3.80
  21  -1  -9   42.64    5.16
 -21  -1   9   29.41    4.06
  21   1  -9   48.23    5.60
  19  -1  -9    3.00    2.40
 -19  -1   9    2.98    2.11
  19  -1  -9   -3.27    3.72
  19   1  -9    6.71    2.74
 -17  -1   9    0.74    1.70
  17  -1  -9    0.63    1.76
  17  -1  -9   -8.38    2.96
  17   1  -9    2.52    2.09
  17   1  -9    1.23    3.19
  15  -1  -9   89.51    8.58
 -15  -1   9   84.95    5.66
  15  -1  -9   86.34    5.26
  15   1  -9   81.66    5.56
  15   1  -9   82.21    7.66
  13  -1  -9    3.40    3.24
  13  -1  -9    6.49    1.22
 -13  -1   9   12.26    2.31
  13  -1  -9    6.32    1.73
  13   1  -9    3.53    2.86
  13   1  -9    6.91    1.95
 -11  -1   9    0.92    1.49
  11  -1  -9    3.28    1.17
  11  -1  -9   -0.89    2.80
  11  -1  -9    3.83    0.88
  11   1  -9    1.95    1.50
  11   1  -9    1.59    2.32
   9  -1  -9    3.39    1.49
   9  -1  -9    2.25    0.60
  -9  -1   9    2.78    1.50
   9  -1  -9    0.11    2.44
   9  -1  -9    1.50    0.74
   9   1  -9   -1.26    1.85
   9   1  -9    2.18    1.24
   9   1  -9    2.65    1.15
   7  -1  -9   37.55    3.14
   7  -1  -9   39.88    4.32
  -7  -1   9   37.61    3.26
   7   1  -9   29.98    3.61
   7   1  -9   33.67    2.57
   7   1  -9   33.09    2.45
   5  -1  -9  224.31    8.95
   5  -1  -9  229.06    9.78
  -5  -1   9  223.86    9.09
   5   1  -9  228.15    8.11
   5   1  -9  226.43    8.33
   5   1  -9  210.93    9.55
   5   1  -9  224.91    9.65
   3  -1  -9   22.64    2.43
   3  -1  -9   29.13    2.88
   3   1  -9   29.88    3.10
   3   1  -9   31.25    3.24
   3   1  -9   27.24    1.95
   3   1  -9   26.33    1.74
   1  -1  -9   18.11    2.10
   1  -1  -9   13.86    1.94
   1   1  -9   14.48    1.12
   1   1  -9   16.43    2.30
   1   1  -9   16.74    1.36
   1   1  -9   14.72    2.48
  -1  -1  -9    2.17    1.19
  -1  -1  -9    1.32    1.27
  -1   1  -9    0.83    1.56
  -1   1  -9    1.01    1.30
  -3  -1  -9    8.10    1.32
  -3  -1  -9    5.19    1.56
  -3   1  -9    4.86    1.50
  -5  -1  -9   38.15    2.36
  -5  -1  -9   33.93    3.20
  -5   1  -9   29.74    2.88
  -7  -1  -9   19.81    2.00
  -7  -1  -9   17.58    2.76
  -7   1  -9   18.84    2.45
  -9  -1  -9    3.10    1.44
  -9   1  -9    2.05    1.57
 -11  -1  -9    9.67    2.13
 -11   1  -9   12.31    2.43
 -13  -1  -9   15.11    2.70
 -13   1  -9   17.16    2.90
 -15  -1  -9    2.71    2.07
 -15   1  -9   -3.29    1.79
 -17  -1  -9    3.15    2.28
 -17   1  -9    0.80    2.31
  26  -2  -9    0.78    3.25
 -26  -2   9    0.28    2.27
 -24  -2   9    4.81    2.55
  24  -2  -9    6.22    3.38
 -22  -2   9   31.84    4.28
  22  -2  -9   33.36    4.80
 -20  -2   9    0.44    2.09
  20  -2  -9    1.35    2.26
  20  -2  -9    1.22    4.00
  20   2  -9    4.68    2.73
  18  -2  -9   19.89    5.44
 -18  -2   9   17.90    3.23
  18  -2  -9   22.04    3.35
  18   2  -9   23.72    3.89
 -16  -2   9   -1.02    1.67
  16  -2  -9    3.25    1.84
  16  -2  -9    4.63    4.04
  16   2  -9    2.12    1.99
  14  -2  -9   52.05    3.72
  14  -2  -9   55.37    2.98
  14  -2  -9   52.36    6.84
 -14  -2   9   56.16    4.85
  14   2  -9   63.18    4.69
  14   2  -9   53.12    5.92
 -12  -2   9   10.57    2.37
  12  -2  -9   12.22    4.19
  12  -2  -9   11.08    1.55
  12  -2  -9   10.27    1.11
  12   2  -9    7.01    2.00
  12   2  -9   12.39    3.08
 -10  -2   9   41.13    3.89
  10  -2  -9   51.09    5.90
  10   2  -9   50.70    4.92
  10   2  -9   46.68    3.63
  -8  -2   9   27.59    3.11
   8  -2  -9   33.47    4.69
   8  -2  -9   30.98    2.84
   8   2  -9   31.32    3.81
   8   2  -9   26.49    2.48
   6  -2  -9    1.80    1.29
   6  -2  -9    1.51    2.41
  -6  -2   9    0.13    1.34
   6   2  -9    0.42    1.73
   6   2  -9    1.36    1.10
   6   2  -9    1.47    1.06
   4  -2  -9    3.18    2.07
  -4  -2   9    5.04    1.77
   4  -2  -9    6.13    1.36
   4   2  -9    5.23    1.39
   4   2  -9    6.08    1.97
   4   2  -9    4.95    1.18
   2  -2  -9   50.53    2.78
   2  -2  -9   43.41    3.31
   2   2  -9   49.76    3.80
   2   2  -9   45.33    3.25
   2   2  -9   49.63    2.74
   0  -2  -9   13.77    1.62
   0  -2  -9   16.51    1.70
   0   2  -9   12.19    1.74
   0   2  -9   12.52    1.40
   0   2  -9   15.31    2.25
  -2  -2  -9   44.71    2.36
  -2  -2  -9   46.29    2.65
  -2   2  -9   47.85    3.28
  -2   2  -9   46.79    2.50
  -2   2  -9   42.45    3.24
  -4  -2  -9   44.03    2.90
  -4  -2  -9   50.49    2.43
  -4   2  -9   49.61    2.58
  -4   2  -9   50.47    3.32
  -4   2  -9   49.17    3.53
  -6  -2  -9   14.80    1.52
  -6   2  -9   14.65    1.81
  -6   2  -9   15.72    1.49
  -6   2  -9   17.09    2.47
  -8  -2  -9    0.29    1.05
  -8   2  -9   -1.42    1.32
  -8   2  -9    0.78    1.06
 -10  -2  -9   63.10    3.83
 -10   2  -9   65.61    3.21
 -10   2  -9   63.87    4.67
 -12  -2  -9    5.18    1.88
 -12   2  -9    5.05    2.26
 -14  -2  -9   72.15    4.88
 -14   2  -9   77.32    5.73
 -16  -2  -9   11.83    2.78
 -16   2  -9   16.01    3.54
 -25  -3   9    2.55    2.53
  25  -3  -9    2.99    3.01
 -23  -3   9    6.62    2.84
  23  -3  -9    5.38    3.10
  21  -3  -9   28.10    4.13
  21  -3  -9   25.17    6.72
 -21  -3   9   25.75    4.03
  19  -3  -9    4.37    4.61
 -19  -3   9    2.08    2.11
  19  -3  -9    2.06    2.15
 -17  -3   9   -1.61    1.80
  17  -3  -9   -1.72    1.49
  17  -3  -9    4.81    4.20
  17   3  -9    5.04    2.40
  15  -3  -9   50.34    2.81
  15  -3  -9   64.64    8.08
  15  -3  -9   45.62    3.35
  15   3  -9   56.98    4.96
 -13  -3   9    1.15    1.87
  13  -3  -9    0.66    3.76
  13   3  -9   -3.19    1.30
 -11  -3   9    2.49    1.79
  11  -3  -9   -0.92    3.19
  11   3  -9    1.24    2.06
  11   3  -9    3.11    1.54
  -9  -3   9   -1.05    1.51
   9  -3  -9    3.23    3.14
   9   3  -9   -0.32    1.80
   9   3  -9    2.65    1.42
   7  -3  -9   15.25    3.86
   7  -3  -9   15.50    2.19
  -7  -3   9   17.14    2.85
   7   3  -9   16.36    2.93
   7   3  -9   14.65    2.02
   5  -3  -9  168.38    6.97
   5  -3  -9  154.61    8.70
   5   3  -9  185.87    8.38
   5   3  -9  179.16    7.19
   3  -3  -9   35.66    3.71
   3  -3  -9   28.53    2.12
  -3  -3   9   26.71    3.31
   3   3  -9   31.88    3.41
   3   3  -9   31.35    2.59
   1  -3  -9    5.65    1.86
   1  -3  -9    6.58    1.06
   1   3  -9    3.32    1.74
   1   3  -9    6.57    1.33
  -1   3  -9    1.97    1.48
  -1   3  -9    2.58    1.07
  -3   3  -9   11.86    1.57
  -3   3  -9   12.35    2.34
  -5   3  -9   27.01    3.16
  -5   3  -9   25.37    2.23
  -7  -3  -9   10.36    1.52
  -7   3  -9   11.44    2.38
  -7   3  -9   12.54    1.72
  -9  -3  -9    3.93    1.49
  -9   3  -9    6.58    2.20
  -9   3  -9    5.44    1.35
 -11  -3  -9    7.09    1.82
 -11   3  -9    6.12    2.27
 -13  -3  -9   13.04    2.45
 -13   3  -9   16.80    3.26
 -13   3  -9   15.84    1.92
 -15  -3  -9    1.83    1.96
 -15   3  -9    0.18    2.27
  22  -4  -9    5.37    2.62
 -22  -4   9    1.85    2.47
 -20  -4   9    9.04    3.08
  20  -4  -9    1.23    4.50
  20  -4  -9    1.40    2.05
  18  -4  -9   21.94    2.88
  18  -4  -9   25.68    6.13
 -18  -4   9   28.13    4.27
 -16  -4   9    3.71    2.42
  16  -4  -9    7.93    4.78
  16  -4  -9    4.72    1.02
  16  -4  -9    3.32    1.38
 -14  -4   9    7.95    2.55
  14  -4  -9    4.99    4.24
  14   4  -9    8.52    2.34
 -12  -4   9   50.75    5.05
  12  -4  -9   58.85    7.27
  12   4  -9   57.40    4.62
 -10  -4   9    0.12    1.92
  10   4  -9   -0.68    1.32
  -8  -4   9    0.61    1.82
   8   4  -9    1.88    1.42
  -6  -4   9    0.65    1.90
   6  -4  -9   -0.32    1.36
   6   4  -9   -0.71    1.69
   6   4  -9   -0.22    1.20
   4  -4  -9   24.50    2.35
  -4  -4   9   25.74    3.50
   4   4  -9   19.74    2.97
   4   4  -9   25.81    2.59
   2  -4  -9   -0.94    1.02
  -2  -4   9   -1.38    1.72
   2   4  -9    3.73    1.85
   2   4  -9   -0.79    1.06
   0   4  -9   74.52    4.14
   0   4  -9   79.65    5.05
  -2   4  -9    2.90    1.84
  -2   4  -9    2.23    1.19
  -4   4  -9   38.05    2.86
  -4   4  -9   38.19    3.85
  -6   4  -9   20.86    3.16
  -6   4  -9   22.62    2.33
  -8  -4  -9    5.84    1.46
  -8   4  -9    8.42    2.53
  -8   4  -9   11.32    1.88
 -10  -4  -9    3.83    1.68
 -10   4  -9    4.32    1.53
 -10   4  -9    6.58    2.42
 -12  -4  -9   17.39    2.59
 -12   4  -9   17.84    2.39
 -14  -4  -9   38.80    3.85
  21  -5  -9    9.07    5.73
 -21  -5   9   17.08    3.74
  21  -5  -9   15.33    2.62
  19  -5  -9    7.30    5.37
 -19  -5   9    2.03    2.40
  19  -5  -9    2.31    1.43
 -17  -5   9   -2.34    1.99
  17  -5  -9   -1.81    4.42
  15  -5  -9   28.66    6.39
 -15  -5   9   28.64    4.24
 -13  -5   9    3.28    2.65
 -11  -5   9    1.57    2.36
  -9  -5   9    3.64    2.35
   9   5  -9   -0.35    1.40
  -7  -5   9   17.48    3.37
   7   5  -9   21.24    2.77
  -5  -5   9   80.79    6.72
   5   5  -9   93.15    5.02
  -3  -5   9    6.89    2.82
   3  -5  -9    9.63    1.48
   3   5  -9   13.34    2.15
  -1  -5   9    3.67    2.53
   1  -5  -9    6.65    1.22
   1   5  -9    6.94    1.77
  -1   5  -9    1.73    1.37
  -3   5  -9    1.73    1.32
  -5   5  -9   24.80    2.72
  -7   5  -9   15.11    2.26
  -9  -5  -9   -0.17    1.44
  -9   5  -9    2.09    1.52
 -11  -5  -9    6.13    1.97
 -11   5  -9    4.98    1.74
 -18  -6   9   13.05    3.42
  18  -6  -9   12.46    6.12
  16  -6  -9   -1.05    4.44
 -16  -6   9   -3.00    2.29
 -14  -6   9   19.94    3.96
 -12  -6   9    6.71    2.97
 -10  -6   9    7.77    3.09
  -8  -6   9    4.61    2.82
  -6  -6   9   -2.90    2.13
  -4  -6   9    0.60    2.42
   4   6  -9    1.41    1.55
  -2  -6   9   13.62    3.60
   2   6  -9   17.28    2.51
   0  -6   9    8.62    3.33
   0   6  -9    4.43    1.71
  -2  -6  -9   11.94    1.83
  -2   6  -9   14.81    2.31
  -4   6  -9   15.01    2.36
  -6   6  -9    3.46    1.65
  -8   6  -9   -0.06    1.45
 -13  -7   9    0.71    2.69
 -11  -7   9    4.94    3.07
  -9  -7   9   -2.36    2.44
  -7  -7   9    3.41    3.07
  -5  -7   9   38.50    5.45
  -3  -7   9   11.48    3.92
  -1  -7   9    0.60    2.76
   1  -7   9    2.78    3.46
  -3   7  -9    1.30    1.55
  -5   7  -9    6.61    1.92
  26   0 -10   23.57    4.86
  24   0 -10   18.39    4.36
  22   0 -10   -0.24    2.40
  20   0 -10    1.39    2.29
  18   0 -10   72.35    8.30
  18   0 -10   58.79    5.33
  16   0 -10   14.22    2.59
  16   0 -10   12.17    4.40
  14   0 -10    2.22    2.99
  14   0 -10    0.57    1.52
  12   0 -10   -0.10    0.91
  12   0 -10   -0.93    1.13
  12   0 -10    2.55    2.95
  10   0 -10   -0.12    0.88
  10   0 -10   -2.66    2.08
  10   0 -10    0.61    0.85
   8   0 -10   27.43    1.79
   8   0 -10   29.89    3.89
   8   0 -10   30.03    1.90
   6   0 -10   61.30    4.49
   6   0 -10   54.59    3.92
   4   0 -10   40.05    3.59
   4   0 -10   37.70    3.63
   2   0 -10   51.49    4.08
   2   0 -10   41.29    3.49
   0   0 -10   79.42    4.42
   0   0 -10   86.51    4.95
  -2   0 -10    1.58    1.66
  -2   0 -10    1.56    1.22
  -4   0 -10    0.88    1.19
  -6   0 -10    6.26    1.59
  -8   0 -10   19.07    2.43
 -10   0 -10   34.83    3.35
 -12   0 -10    0.42    1.78
 -14   0 -10    0.93    2.08
 -16   0 -10   13.91    3.07
  25  -1 -10    1.55    3.06
  25   1 -10    6.31    3.43
  23  -1 -10   14.72    3.66
  23   1 -10   11.63    3.68
  21  -1 -10   -1.78    2.13
  21   1 -10    0.44    2.35
  19  -1 -10    0.90    2.02
  19  -1 -10    5.65    4.29
  19   1 -10   -0.27    2.18
  17  -1 -10   29.47    3.48
  17  -1 -10   17.16    5.14
  17   1 -10   24.81    5.15
  17   1 -10   31.63    3.87
  15  -1 -10    1.45    1.48
  15  -1 -10   -5.74    2.58
  15   1 -10    0.95    1.66
  15   1 -10   -0.65    2.67
  13  -1 -10    6.10    1.56
  13  -1 -10    6.02    1.12
  13  -1 -10    5.25    3.79
  13   1 -10   11.41    3.40
  13   1 -10    6.73    1.92
  11  -1 -10   56.02    6.30
  11  -1 -10   51.62    2.80
  11  -1 -10   55.00    2.60
  11   1 -10   56.69    3.67
  11   1 -10   46.07    5.14
   9  -1 -10   14.98    3.57
   9   1 -10   16.42    1.92
   9   1 -10   16.37    1.82
   9   1 -10   17.02    3.25
   7  -1 -10   -2.37    1.32
   7  -1 -10   -0.97    2.09
   7   1 -10   -0.59    0.79
   7   1 -10   -1.63    0.80
   7   1 -10   -0.34    1.86
   5  -1 -10    0.17    1.74
   5  -1 -10    2.03    1.41
   5   1 -10    3.08    1.88
   5   1 -10    2.39    0.94
   5   1 -10    0.25    0.70
   3  -1 -10   12.46    2.00
   3  -1 -10    9.05    2.05
   3   1 -10   10.10    1.19
   3   1 -10   13.06    2.33
   3   1 -10   10.17    1.01
   1  -1 -10   38.50    2.95
   1  -1 -10   47.42    3.27
   1   1 -10   41.81    3.57
  -1  -1 -10   19.12    2.08
  -1  -1 -10   21.78    2.49
  -1   1 -10   18.49    2.43
  -3  -1 -10   -0.04    0.98
  -3  -1 -10    1.51    1.49
  -3   1 -10    2.20    1.43
  -5  -1 -10   10.66    1.60
  -5  -1 -10   12.79    2.29
  -5   1 -10   12.26    2.06
  -7  -1 -10   25.94    2.43
  -7   1 -10   27.23    2.94
  -9  -1 -10    1.25    1.37
  -9   1 -10    0.54    1.52
 -11  -1 -10   -1.04    1.49
 -11   1 -10   -2.06    1.49
 -13  -1 -10    3.98    2.21
 -13   1 -10    6.63    2.36
 -15  -1 -10   28.69    3.77
 -15   1 -10   20.01    3.56
 -24  -2  10    9.49    3.21
  24  -2 -10    7.11    3.39
  22  -2 -10    6.52    2.74
 -22  -2  10    1.43    2.26
  22   2 -10    2.18    2.82
  20  -2 -10   24.16    5.96
  20  -2 -10   14.02    3.06
 -20  -2  10   16.08    3.32
  20   2 -10   20.57    3.72
  18  -2 -10    5.73    4.60
 -18  -2  10   12.97    3.07
  18  -2 -10    2.72    1.93
  18   2 -10    2.81    2.34
  16  -2 -10   60.55    4.02
  16  -2 -10   53.47    7.27
 -16  -2  10   60.39    5.45
  16   2 -10   57.37    5.08
  14  -2 -10   18.68    2.05
 -14  -2  10   18.33    3.14
  14  -2 -10   16.96    1.51
  14  -2 -10   14.56    4.74
  14   2 -10   13.54    3.63
  14   2 -10   21.66    2.96
  12  -2 -10    4.29    3.70
 -12  -2  10    4.42    1.99
  12   2 -10    1.76    1.49
  12   2 -10    7.86    2.80
  10  -2 -10   11.84    3.72
  10   2 -10    6.31    2.59
  10   2 -10    4.39    1.52
   8  -2 -10    1.04    1.41
   8  -2 -10    3.76    2.87
   8   2 -10    0.99    1.20
   8   2 -10    2.69    2.11
   6  -2 -10    2.95    2.38
   6  -2 -10    3.88    1.49
   6   2 -10    4.05    1.18
   6   2 -10    5.58    2.17
   4  -2 -10   -0.25    1.22
   4  -2 -10    4.13    2.03
   4   2 -10    4.27    1.32
   4   2 -10    2.91    1.90
   4   2 -10    2.85    1.07
   2  -2 -10   10.45    1.98
   2  -2 -10   10.96    1.65
   2   2 -10    8.59    1.27
   2   2 -10   13.50    1.80
   2   2 -10   10.34    2.24
   0  -2 -10   65.28    3.46
   0  -2 -10   65.57    3.45
   0   2 -10   69.53    4.25
   0   2 -10   67.10    3.12
   0   2 -10   61.29    3.63
  -2  -2 -10   29.64    2.51
  -2  -2 -10   30.56    2.04
  -2   2 -10   27.53    3.00
  -2   2 -10   32.00    2.00
  -2   2 -10   32.90    2.44
  -4  -2 -10   24.30    1.79
  -4  -2 -10   21.30    2.33
  -4   2 -10   22.18    1.70
  -4   2 -10   23.80    2.93
  -4   2 -10   28.14    2.12
  -6  -2 -10   33.41    2.19
  -6  -2 -10   29.50    3.01
  -6   2 -10   33.52    2.17
  -6   2 -10   32.93    3.42
  -8  -2 -10   52.37    3.04
  -8   2 -10   50.94    4.31
 -10  -2 -10   18.93    2.49
 -10   2 -10   22.22    3.19
 -12  -2 -10   -1.48    1.51
 -12   2 -10    5.58    2.37
 -14  -2 -10    5.90    2.25
 -14   2 -10    5.22    2.50
 -23  -3  10    7.46    3.08
  23  -3 -10    9.03    3.08
  21  -3 -10   -0.16    4.58
  21  -3 -10    0.54    2.07
 -21  -3  10    2.39    2.52
  19  -3 -10   -0.66    1.66
 -19  -3  10    0.33    2.15
  19  -3 -10    0.70    3.88
  19   3 -10   -1.58    2.00
 -17  -3  10   14.46    3.26
  17  -3 -10   15.81    2.25
  17  -3 -10   18.13    5.57
  17   3 -10   17.01    3.21
  15  -3 -10   -0.02    0.97
  15  -3 -10   -0.34    0.65
 -15  -3  10   -0.74    1.95
  15  -3 -10   -3.59    3.45
  15   3 -10    5.70    2.07
  13  -3 -10   -0.47    3.81
 -13  -3  10    5.04    2.28
  13   3 -10    5.06    1.88
  11  -3 -10   38.88    6.17
 -11  -3  10   28.27    3.82
  11   3 -10   36.28    4.49
  11   3 -10   39.99    3.59
   9  -3 -10   10.52    4.05
  -9  -3  10   14.10    2.77
   9   3 -10   11.56    2.01
   9   3 -10    8.55    2.62
   7  -3 -10   -0.68    2.77
   7  -3 -10   -0.03    1.24
   7   3 -10    2.65    1.94
   7   3 -10   -0.18    1.10
   5  -3 -10    0.15    2.54
   5  -3 -10    0.71    1.20
   5   3 -10    0.58    1.79
   5   3 -10    1.13    1.13
   3  -3 -10    9.49    2.45
   3  -3 -10    8.67    1.47
   3   3 -10   10.09    1.60
   3   3 -10    5.72    2.19
   1  -3 -10   31.31    2.02
   1  -3 -10   29.08    2.62
   1   3 -10   34.66    2.52
   1   3 -10   37.51    3.76
  -1   3 -10   18.32    1.92
  -1   3 -10   16.31    2.55
  -3   3 -10   -1.00    1.38
  -3   3 -10   -0.10    0.83
  -5  -3 -10    6.92    1.39
  -5   3 -10    6.88    2.12
  -5   3 -10    7.35    1.40
  -7  -3 -10   24.95    2.08
  -7   3 -10   25.65    2.27
  -7   3 -10   27.62    3.39
  -9  -3 -10    0.32    1.32
  -9   3 -10    0.86    1.05
  -9   3 -10    0.01    1.70
 -11  -3 -10    0.69    1.55
 -11   3 -10    4.42    2.23
 -11   3 -10    1.19    1.05
 -13  -3 -10    0.91    1.74
 -13   3 -10    0.92    2.27
 -22  -4  10    0.59    2.45
  22  -4 -10   -1.55    1.79
  20  -4 -10    0.50    4.75
  20  -4 -10    4.91    1.84
 -20  -4  10   -1.95    2.23
 -18  -4  10   31.47    4.54
  18  -4 -10   52.89    8.38
  16  -4 -10    0.24    4.48
 -16  -4  10    6.82    2.79
  16   4 -10    8.20    2.56
 -14  -4  10   -1.59    2.05
  14  -4 -10   -2.40    3.73
  14   4 -10   -1.16    1.47
 -12  -4  10    0.48    1.94
  12  -4 -10    6.02    4.36
  12   4 -10    0.16    1.56
 -10  -4  10    1.87    2.21
  10  -4 -10    5.42    3.86
  10   4 -10    0.95    1.50
  -8  -4  10    2.34    2.17
   8  -4 -10    6.14    3.63
   8   4 -10   11.87    2.03
   6  -4 -10   39.93    5.32
   6  -4 -10   42.45    3.19
  -6  -4  10   44.18    4.80
   6   4 -10   43.08    3.50
   6   4 -10   45.02    4.57
   4  -4 -10   19.51    2.18
   4  -4 -10   15.65    3.54
   4   4 -10   22.28    3.17
   4   4 -10   22.41    2.52
   2  -4 -10   25.52    2.08
   2  -4 -10   24.46    3.42
   2   4 -10   25.12    2.55
   2   4 -10   28.65    3.44
   0   4 -10   55.37    3.40
   0   4 -10   50.47    4.59
  -2   4 -10    0.78    1.16
  -2   4 -10    0.91    1.72
  -4   4 -10   -1.11    1.65
  -4   4 -10    0.09    1.11
  -6   4 -10    2.28    1.25
  -6   4 -10    1.87    2.02
  -8   4 -10   15.28    3.02
  -8   4 -10   15.96    2.21
 -10  -4 -10   21.01    2.43
 -10   4 -10   23.67    3.71
 -10   4 -10   19.37    2.38
 -12  -4 -10    0.21    1.69
 -12   4 -10    0.06    1.31
  21  -5 -10    0.95    4.87
 -21  -5  10    0.51    2.52
  19  -5 -10  -12.42    4.05
 -19  -5  10    4.78    2.86
  17  -5 -10    4.93    5.18
 -17  -5  10   10.16    3.27
  15  -5 -10    1.33    4.30
 -15  -5  10   -0.76    2.40
 -13  -5  10    6.13    2.70
  13  -5 -10    2.29    4.26
 -11  -5  10   23.87    4.00
  11  -5 -10   29.09    5.82
  11   5 -10   26.54    3.21
  -9  -5  10    9.57    3.02
   9   5 -10    8.92    2.15
  -7  -5  10   -0.84    2.06
   7   5 -10    1.01    1.53
  -5  -5  10   -2.45    2.08
   5   5 -10   -1.81    1.22
   3  -5 -10    2.87    1.17
   3   5 -10    1.09    1.45
   1  -5 -10   18.37    1.57
   1   5 -10   21.71    2.52
  -1   5 -10    6.28    1.60
  -3   5 -10    0.25    1.27
  -5   5 -10    6.01    1.75
  -7   5 -10   14.26    2.29
  -9   5 -10    0.33    1.41
 -18  -6  10   -0.86    2.45
 -16  -6  10   22.50    4.23
  16  -6 -10   27.71    6.79
  14  -6 -10    7.43    4.93
 -14  -6  10    7.62    3.12
 -12  -6  10    0.26    2.54
 -10  -6  10    3.51    2.81
  -8  -6  10   -0.74    2.59
  -6  -6  10    3.55    2.77
   6   6 -10    0.08    1.48
  -4  -6  10   -2.47    2.40
   4   6 -10    1.79    1.60
   2   6 -10    7.29    1.92
   0  -6 -10   20.79    2.06
   0   6 -10   17.83    2.56
  -2   6 -10    4.23    1.70
  -4   6 -10   10.51    2.16
  -6   6 -10    6.01    1.88
 -11  -7  10   18.63    4.16
  -9  -7  10    8.29    3.44
  -7  -7  10   -1.16    2.81
  -5  -7  10   -0.80    2.88
  -3  -7  10   -2.92    2.93
  -1  -7  10    4.92    3.49
  -1   7 -10    4.36    1.90
  26   0 -11   11.57    3.73
  24   0 -11   46.61    5.86
  22   0 -11    1.41    2.47
  20   0 -11    4.62    2.50
  18   0 -11   11.34    2.62
  18   0 -11   11.11    4.78
  16   0 -11   31.44    3.43
  16   0 -11   33.14    5.85
  14   0 -11    0.96    3.14
  14   0 -11    8.61    1.91
  12   0 -11   97.65    4.59
  12   0 -11   91.00    4.30
  12   0 -11   99.82    7.56
  10   0 -11    3.18    0.97
  10   0 -11    4.49    0.96
  10   0 -11    6.22    2.69
   8   0 -11   28.96    1.62
   8   0 -11   29.58    3.93
   6   0 -11   16.52    2.86
   4   0 -11    0.21    1.58
   2   0 -11    5.08    1.83
   0   0 -11   13.67    2.12
  -2   0 -11   23.24    2.50
  -4   0 -11   49.87    3.28
  -6   0 -11    8.60    1.81
  -8   0 -11    1.10    1.50
 -10   0 -11   16.28    2.50
 -12   0 -11   14.96    2.76
 -14   0 -11   -0.67    2.16
  25  -1 -11    2.10    2.81
  25   1 -11    9.42    3.69
  23  -1 -11    2.94    2.60
  23   1 -11   -1.04    2.68
  21  -1 -11    1.78    2.17
  21   1 -11    3.64    2.56
  19  -1 -11   16.13    5.31
  19  -1 -11    3.01    1.94
  19   1 -11    4.74    2.27
  17  -1 -11   14.23    4.87
  17  -1 -11   11.86    2.38
  17   1 -11    4.52    3.56
  17   1 -11   13.12    2.72
  15  -1 -11   17.85    2.31
  15  -1 -11   27.35    5.71
  15   1 -11   20.42    2.89
  15   1 -11   26.22    4.97
  13  -1 -11   55.05    3.08
  13  -1 -11   57.23    2.86
  13  -1 -11   61.45    7.16
  13   1 -11   50.07    3.76
  13   1 -11   55.37    6.08
  11  -1 -11   -2.24    2.61
  11   1 -11    1.65    1.22
  11   1 -11    1.21    2.50
   9  -1 -11    4.57    2.98
   9   1 -11    2.43    1.05
   9   1 -11    1.16    2.12
   7  -1 -11    3.98    2.41
   7   1 -11    6.99    2.45
   7   1 -11    4.48    1.01
   5  -1 -11   29.86    3.42
   5  -1 -11   27.57    2.87
   5   1 -11   27.55    3.36
   5   1 -11   28.86    1.78
   3  -1 -11   13.07    2.28
   3  -1 -11   15.56    2.26
   3   1 -11   15.71    2.66
   1  -1 -11    7.98    1.89
   1  -1 -11   10.62    1.93
   1   1 -11    8.05    1.99
  -1  -1 -11    4.34    1.32
  -1  -1 -11    2.97    1.68
  -1   1 -11    2.36    1.52
  -3  -1 -11    3.01    1.25
  -3  -1 -11    3.16    1.67
  -3   1 -11    7.91    1.80
  -5  -1 -11    2.14    1.26
  -5   1 -11    2.79    1.57
  -7  -1 -11    4.13    1.38
  -7   1 -11    0.71    1.57
  -9  -1 -11    2.51    1.48
  -9   1 -11    1.30    1.65
 -11  -1 -11   11.33    2.33
 -11   1 -11   10.68    2.62
 -13  -1 -11    2.41    2.15
 -13   1 -11    4.23    2.30
  24  -2 -11   15.49    3.50
  24   2 -11   24.46    4.66
  22  -2 -11   21.75    3.68
  22   2 -11   31.70    4.71
  20  -2 -11    8.19    2.44
  20  -2 -11    8.07    4.82
  20   2 -11    9.19    2.95
  18  -2 -11    2.16    4.31
  18  -2 -11    0.20    1.47
  18   2 -11    1.04    1.99
  16  -2 -11   26.17    5.89
  16  -2 -11   24.12    2.43
  16   2 -11   24.85    3.39
  14  -2 -11   35.12    6.02
  14  -2 -11   23.47    1.65
  14   2 -11   29.45    3.18
  14   2 -11   27.46    4.65
  12  -2 -11   18.79    4.61
  12   2 -11   19.12    3.77
  12   2 -11   16.94    2.37
  10  -2 -11   27.55    4.69
  10   2 -11   23.44    3.98
  10   2 -11   26.85    2.67
   8  -2 -11    2.57    2.73
   8   2 -11   -2.84    1.67
   8   2 -11   -0.27    1.07
   6  -2 -11   24.41    2.59
   6  -2 -11   21.35    3.45
   6   2 -11   27.76    2.31
   6   2 -11   25.59    3.50
   4  -2 -11    8.85    2.32
   4  -2 -11    6.41    1.67
   4   2 -11    8.97    1.58
   4   2 -11    7.78    2.28
   4   2 -11    4.97    1.18
   2  -2 -11   41.77    2.85
   2  -2 -11   40.23    3.07
   2   2 -11   45.11    3.01
   2   2 -11   35.18    2.31
   2   2 -11   47.53    4.15
   0  -2 -11   11.82    1.82
   0  -2 -11    7.99    1.57
   0   2 -11   10.16    1.17
   0   2 -11   12.10    2.31
   0   2 -11   12.28    1.58
  -2  -2 -11   86.50    4.41
  -2  -2 -11   86.60    3.85
  -2   2 -11   80.70    3.77
  -2   2 -11   85.14    5.01
  -2   2 -11   82.54    3.47
  -4  -2 -11   32.32    2.19
  -4  -2 -11   31.14    2.90
  -4   2 -11   38.44    3.64
  -6  -2 -11    2.31    1.66
  -6  -2 -11    2.03    1.12
  -6   2 -11    0.41    1.69
  -8  -2 -11    2.21    1.32
  -8   2 -11    1.40    1.69
 -10  -2 -11   -0.57    1.53
 -10   2 -11    0.53    1.84
 -12  -2 -11   -0.41    1.64
 -12   2 -11    3.55    2.31
 -14  -2 -11   -2.14    1.77
 -14   2 -11   -1.36    2.26
 -23  -3  11   -2.59    2.35
  23  -3 -11    2.86    2.21
  21  -3 -11    9.87    5.29
  21  -3 -11    3.08    1.90
 -21  -3  11    8.51    3.09
  21   3 -11    5.29    2.93
  19  -3 -11    0.48    1.44
 -19  -3  11    0.66    2.38
  19  -3 -11    2.30    4.88
  19   3 -11    6.16    2.62
  17  -3 -11   18.01    5.69
  17  -3 -11   13.88    1.33
  17  -3 -11   13.18    1.63
 -17  -3  11   11.64    3.15
  17   3 -11   16.15    3.09
  15  -3 -11   18.79    5.39
  15   3 -11    9.18    2.46
  13  -3 -11   39.47    6.52
  13   3 -11   29.67    3.33
  11  -3 -11   -1.08    3.46
  11   3 -11   -1.32    1.24
  11   3 -11    0.40    2.31
   9  -3 -11    7.47    3.72
   9   3 -11   11.06    2.90
   9   3 -11    8.10    1.76
   7  -3 -11    1.70    2.86
   7   3 -11    4.00    2.20
   7   3 -11    1.38    1.26
   5  -3 -11   22.69    3.51
   5  -3 -11   23.96    2.43
   5   3 -11   25.78    2.46
   5   3 -11   26.92    3.48
   3  -3 -11   14.30    1.75
   3  -3 -11   10.49    2.41
   3   3 -11   14.11    1.79
   3   3 -11   15.88    2.80
   1  -3 -11    9.70    1.43
   1  -3 -11    8.60    1.70
   1   3 -11    7.18    2.29
   1   3 -11    9.61    1.47
  -1   3 -11    5.03    1.98
  -1   3 -11    2.63    1.12
  -3   3 -11    0.98    0.97
  -3   3 -11    0.18    1.64
  -5  -3 -11    1.33    1.21
  -5   3 -11    1.66    1.04
  -5   3 -11   -1.52    1.56
  -7  -3 -11    5.35    1.74
  -7  -3 -11    2.69    1.27
  -7   3 -11    3.58    1.11
  -7   3 -11    3.83    2.08
  -9  -3 -11    0.85    1.36
  -9   3 -11   -3.48    1.54
 -11  -3 -11   15.81    2.39
 -11   3 -11    7.37    2.69
 -13  -3 -11    8.68    2.18
 -13   3 -11    3.55    2.61
  22  -4 -11    1.64    5.31
  22  -4 -11    3.98    1.71
 -22  -4  11    5.28    3.02
 -20  -4  11    4.86    2.94
  20  -4 -11    2.24    4.91
 -18  -4  11    6.20    2.99
  18  -4 -11    1.17    4.79
  16  -4 -11    7.70    5.23
 -16  -4  11   15.67    3.45
  16   4 -11   16.44    3.00
 -14  -4  11   -1.88    2.03
  14  -4 -11    1.66    4.63
  14   4 -11    2.03    1.89
 -12  -4  11   55.85    5.59
  12  -4 -11   45.97    7.23
  12   4 -11   53.00    4.49
  10  -4 -11    5.69    4.04
  10   4 -11    3.11    1.62
   8  -4 -11   15.30    4.43
   8   4 -11   19.12    2.61
   6  -4 -11   13.38    3.94
   6   4 -11   12.32    2.10
   6   4 -11   14.20    3.06
   4  -4 -11    0.03    2.54
   4  -4 -11   -1.25    1.29
   4   4 -11   -0.33    1.14
   4   4 -11    0.64    1.88
   2  -4 -11    2.81    1.22
   2  -4 -11    3.27    1.86
   2   4 -11    1.40    1.24
   2   4 -11    0.90    1.86
   0   4 -11    5.67    1.52
   0   4 -11   10.37    2.47
  -2   4 -11   14.66    2.02
  -2   4 -11   13.09    2.89
  -4   4 -11   34.74    4.02
  -4   4 -11   31.32    2.71
  -6   4 -11    3.34    2.06
  -6   4 -11    4.21    1.44
  -8   4 -11    1.45    1.32
  -8   4 -11    3.10    2.27
 -10  -4 -11    7.54    1.79
 -10   4 -11   16.97    3.35
 -10   4 -11    8.83    1.70
 -19  -5  11    2.63    2.97
  19  -5 -11    7.18    5.90
  17  -5 -11    7.09    5.31
 -17  -5  11    3.38    2.85
  15  -5 -11   10.06    5.50
 -15  -5  11   13.44    3.49
 -13  -5  11   28.22    4.58
  13  -5 -11   25.82    6.12
  13   5 -11   22.45    3.29
  11  -5 -11    4.25    4.39
 -11  -5  11    1.63    2.49
  11   5 -11    1.49    1.78
   9  -5 -11    2.15    4.01
  -9  -5  11    0.72    2.29
   9   5 -11    1.53    1.63
   7  -5 -11    5.69    3.69
   7   5 -11    6.67    1.88
   5  -5 -11   16.92    4.12
   5   5 -11   14.16    2.27
   3  -5 -11    6.56    1.35
   3  -5 -11    4.86    3.04
   3   5 -11    6.83    1.81
   1  -5 -11    1.55    2.19
   1   5 -11    1.51    1.44
  -1   5 -11    1.00    1.41
  -3   5 -11    2.74    1.52
  -5   5 -11    2.65    1.45
  -7   5 -11    1.52    1.45
  -9   5 -11   -0.56    1.40
 -16  -6  11    2.84    2.96
  16  -6 -11    3.99    5.47
  14  -6 -11    0.82    4.97
 -14  -6  11   14.82    3.88
 -12  -6  11    4.57    3.09
  12  -6 -11    5.51    4.91
 -10  -6  11    5.61    3.14
  10  -6 -11    0.58    4.22
  -8  -6  11   -4.68    2.39
   8   6 -11    2.21    1.70
   6   6 -11   11.68    2.40
   4   6 -11    1.62    1.61
   2   6 -11   11.71    2.27
   0   6 -11    4.01    1.70
  -2   6 -11   29.45    3.17
  -4   6 -11   11.87    2.32
  -9  -7  11   -1.31    2.77
  -7  -7  11   -2.65    2.66
  -5  -7  11    4.39    3.60
   3   7 -11    6.76    2.15
  24   0 -12   18.10    3.96
  22   0 -12    4.81    2.51
  20   0 -12    1.34    1.97
  18   0 -12   18.11    5.27
  18   0 -12   12.24    2.52
  16   0 -12    0.74    1.44
  16   0 -12    3.79    3.61
  14   0 -12   27.40    5.07
  14   0 -12   31.36    2.73
  12   0 -12    6.61    1.14
  12   0 -12    5.35    1.20
  12   0 -12    0.95    2.94
  10   0 -12   43.94    2.22
  10   0 -12   46.34    5.19
  10   0 -12   41.05    2.18
   8   0 -12    8.15    2.71
   6   0 -12    4.49    2.26
   4   0 -12   28.28    3.37
   2   0 -12   58.75    4.05
   0   0 -12   16.73    2.39
  -2   0 -12    1.66    1.50
  -4   0 -12   21.67    2.52
  -6   0 -12   43.49    3.24
  -8   0 -12    0.94    1.55
 -10   0 -12    2.38    1.91
 -12   0 -12    6.13    2.24
  25  -1 -12   19.47    4.06
  25   1 -12   15.82    3.92
  23  -1 -12    4.15    2.53
  23   1 -12   -2.26    2.36
  21  -1 -12   14.82    3.00
  21   1 -12   17.93    3.49
  19  -1 -12   79.68    9.55
  19  -1 -12   77.35    5.11
  19   1 -12   83.61    5.78
  17  -1 -12    9.25    1.94
  17  -1 -12    9.05    4.86
  17   1 -12   18.21    4.54
  17   1 -12    8.76    2.30
  15  -1 -12   25.02    2.27
  15  -1 -12   22.65    5.18
  15   1 -12   20.43    4.58
  15   1 -12   24.27    2.86
  13  -1 -12    3.97    0.86
  13  -1 -12    3.91    0.75
  13  -1 -12    5.37    3.68
  13   1 -12    1.97    1.33
  13   1 -12    3.36    2.83
  11  -1 -12   59.00    6.54
  11   1 -12   70.74    6.37
  11   1 -12   63.59    3.57
   9  -1 -12  163.51    9.11
   9   1 -12  167.70    6.64
   9   1 -12  166.91    6.52
   9   1 -12  176.33    8.94
   7  -1 -12    3.83    2.38
   7   1 -12    3.57    0.96
   7   1 -12    4.56    2.33
   7   1 -12    3.66    0.86
   5  -1 -12   -0.04    1.77
   5   1 -12    1.64    2.01
   3  -1 -12   60.89    4.12
   3   1 -12   53.79    4.66
   1  -1 -12    2.59    1.55
   1   1 -12    1.68    1.64
  -1  -1 -12   11.91    1.87
  -1   1 -12    9.83    2.20
  -3  -1 -12   -0.28    1.15
  -3   1 -12    1.12    1.60
  -5  -1 -12   15.69    2.01
  -5   1 -12   14.46    2.47
  -7  -1 -12   60.45    3.68
  -7   1 -12   60.65    4.24
  -9  -1 -12   17.04    2.45
  -9   1 -12   13.79    2.60
 -11  -1 -12   -2.05    1.64
 -11   1 -12    0.72    1.96
 -13  -1 -12    2.19    2.29
 -13   1 -12   -2.71    1.82
  24  -2 -12   18.72    3.48
  24   2 -12   19.71    4.25
  22  -2 -12    1.27    1.88
  22   2 -12    0.91    2.54
  20  -2 -12   -3.75    4.41
  20  -2 -12   -0.89    1.54
  20   2 -12   -0.54    2.19
  18  -2 -12    0.37    1.27
  18  -2 -12    2.89    4.25
  18   2 -12    0.54    1.92
  16  -2 -12   16.91    5.43
  16  -2 -12   14.20    1.29
  16   2 -12   15.88    2.65
  14  -2 -12    6.99    4.38
  14   2 -12    7.63    1.99
  14   2 -12    6.07    3.06
  12  -2 -12   19.61    4.75
  12   2 -12   17.65    2.41
  12   2 -12   19.36    4.04
  10  -2 -12   39.54    5.70
  10   2 -12   46.97    5.10
  10   2 -12   47.18    3.25
   8  -2 -12   -4.60    2.33
   8   2 -12    1.84    1.17
   8   2 -12    0.03    2.10
   6  -2 -12   29.39    3.70
   6   2 -12   32.04    2.35
   6   2 -12   29.00    3.85
   4  -2 -12   86.40    4.47
   4  -2 -12   71.91    4.81
   4   2 -12   72.71    5.30
   4   2 -12   79.96    3.59
   4   2 -12   79.60    4.07
   2  -2 -12   15.86    2.16
   2  -2 -12   11.44    2.10
   2   2 -12   10.67    1.26
   2   2 -12   12.10    1.53
   2   2 -12   11.57    2.50
   0  -2 -12   27.66    2.55
   0  -2 -12   32.53    2.91
   0   2 -12   26.13    1.93
   0   2 -12   29.05    3.41
  -2  -2 -12   10.41    2.05
  -2  -2 -12   11.05    1.59
  -2   2 -12   11.99    2.36
  -4  -2 -12    3.15    1.77
  -4  -2 -12    1.54    1.12
  -4   2 -12   -1.61    1.55
  -6  -2 -12    7.96    1.51
  -6   2 -12    7.52    2.20
  -8  -2 -12    3.21    1.46
  -8   2 -12    3.92    2.06
 -10  -2 -12    0.91    1.61
 -10   2 -12   -2.97    2.06
 -12  -2 -12   -1.43    1.75
 -12   2 -12   -0.45    2.17
  23  -3 -12    2.41    1.93
  21  -3 -12   15.12    6.09
  21  -3 -12   12.53    2.08
  21   3 -12   12.93    3.34
  19  -3 -12   68.51    9.24
  19   3 -12   62.42    5.76
  17  -3 -12    3.93    4.99
  17   3 -12    5.19    2.20
  15  -3 -12   19.21    5.57
  15   3 -12   12.91    2.61
  13  -3 -12    5.13    4.14
  13   3 -12    4.36    1.81
  11  -3 -12   36.15    5.75
  11   3 -12   40.72    3.62
  11   3 -12   45.02    5.22
   9  -3 -12  104.06    7.74
   9   3 -12  114.14    5.56
   9   3 -12  116.85    7.29
   7  -3 -12    4.28    2.87
   7   3 -12    0.55    2.12
   7   3 -12    2.91    1.41
   5  -3 -12    2.81    1.50
   5  -3 -12    4.41    2.39
   5   3 -12    3.30    2.03
   5   3 -12    2.02    1.22
   3  -3 -12   39.50    2.76
   3  -3 -12   37.78    3.38
   3   3 -12   36.46    2.61
   3   3 -12   32.95    3.98
   1  -3 -12    2.40    1.39
   1  -3 -12    1.37    1.15
   1   3 -12   -0.07    0.92
   1   3 -12    1.49    1.84
  -1  -3 -12   10.62    1.38
  -1  -3 -12   11.11    1.55
  -1   3 -12   11.45    1.49
  -1   3 -12   10.73    2.53
  -3   3 -12   -0.73    0.87
  -3   3 -12    0.40    1.83
  -5  -3 -12   11.22    1.33
  -5  -3 -12    9.97    1.83
  -5   3 -12    7.49    1.23
  -5   3 -12   11.03    2.60
  -7  -3 -12   59.45    3.26
  -7   3 -12   56.66    5.11
  -9  -3 -12    8.38    1.86
  -9   3 -12    8.87    2.57
 -11  -3 -12    2.30    1.78
 -11   3 -12    1.50    2.13
  20  -4 -12    4.07    5.05
 -20  -4  12    6.93    3.16
  18  -4 -12   11.21    5.74
 -18  -4  12    7.71    3.26
  18   4 -12   13.69    3.02
  16  -4 -12    3.93    4.94
  16   4 -12   -0.41    1.81
  14  -4 -12   19.97    5.94
  14   4 -12   15.11    2.77
  12  -4 -12   -0.64    3.75
  12   4 -12    2.85    1.79
  10  -4 -12   11.72    4.62
  10   4 -12   23.58    2.88
   8  -4 -12    6.72    3.58
   8   4 -12    1.61    1.45
   6  -4 -12   -1.28    2.72
   6   4 -12   -0.55    1.26
   6   4 -12   -1.74    1.91
   4  -4 -12   16.15    3.07
   4  -4 -12   15.09    2.05
   4   4 -12   17.32    2.25
   4   4 -12   17.31    3.14
   2  -4 -12   32.51    2.37
   2  -4 -12   30.97    2.99
   2   4 -12   36.43    2.97
   2   4 -12   35.08    4.08
   0   4 -12   11.54    2.80
   0   4 -12   12.64    1.86
  -2   4 -12    2.60    1.32
  -2   4 -12    3.62    2.22
  -4   4 -12   10.90    1.84
  -4   4 -12   13.23    2.85
  -6   4 -12   20.56    3.56
  -6   4 -12   21.21    2.28
  -8   4 -12   -0.47    1.10
  -8   4 -12   -0.83    2.00
 -19  -5  12   36.41    5.32
  19  -5 -12   42.65    8.23
  17  -5 -12    6.91    5.40
 -17  -5  12    2.86    2.95
  15  -5 -12    7.93    5.52
 -15  -5  12    3.53    2.98
  15   5 -12    4.18    2.24
  13  -5 -12   -0.67    4.58
  13   5 -12    1.21    1.73
  11  -5 -12   21.28    6.04
  11   5 -12   30.41    3.42
   9  -5 -12   66.93    7.74
   9   5 -12   72.35    4.73
   7  -5 -12   -1.66    3.51
   7   5 -12    1.08    1.46
   5  -5 -12    2.51    3.18
   5   5 -12    0.79    1.46
   3  -5 -12   23.55    3.52
   3  -5 -12   25.03    2.07
   3   5 -12   24.51    2.83
   1   5 -12    2.00    1.38
  -1   5 -12    1.69    1.46
  -3   5 -12   -0.02    1.35
  -5   5 -12    9.74    1.94
  14  -6 -12   -6.52    4.45
 -14  -6  12    1.26    2.88
  12  -6 -12   14.15    5.56
 -12  -6  12   11.48    3.79
  10  -6 -12   16.99    5.43
  10   6 -12   16.18    2.80
   8  -6 -12   -0.88    3.79
   8   6 -12   -1.11    1.56
   6  -6 -12    9.39    4.39
   6   6 -12    5.54    1.99
   4  -6 -12   32.07    5.05
   4   6 -12   26.43    3.21
   2  -6 -12    9.52    3.10
   2   6 -12    9.40    2.22
   0   6 -12   11.71    2.25
  -2   6 -12    5.41    1.90
  24   0 -13    8.61    3.02
  22   0 -13    1.18    2.22
  20   0 -13    8.85    2.40
  18   0 -13   -0.64    3.68
  18   0 -13    0.94    1.50
  16   0 -13   51.05    3.45
  16   0 -13   44.21    6.57
  14   0 -13    5.96    1.31
  14   0 -13    0.15    3.19
  12   0 -13    4.82    0.98
  12   0 -13    6.67    1.01
  12   0 -13    9.44    3.39
  10   0 -13    4.18    2.84
   8   0 -13   70.16    5.45
   6   0 -13   42.68    4.44
   4   0 -13   28.31    3.47
   2   0 -13   56.80    4.18
   0   0 -13    4.83    1.86
  -2   0 -13   16.01    2.34
  -4   0 -13   14.60    2.30
  -6   0 -13    2.98    1.67
  -8   0 -13   10.67    2.23
 -10   0 -13   27.80    3.40
  23  -1 -13   16.41    3.17
  23   1 -13   22.68    3.80
  21  -1 -13    2.83    4.75
  21  -1 -13    0.83    1.76
  21   1 -13    3.10    2.17
  19  -1 -13   11.53    2.10
  19  -1 -13    8.56    4.90
  19   1 -13    6.90    2.39
  17  -1 -13    2.57    1.24
  17  -1 -13    1.21    4.19
  17   1 -13    3.02    1.74
  17   1 -13    2.44    3.51
  15  -1 -13   28.23    1.93
  15  -1 -13   28.49    1.95
  15  -1 -13   39.00    6.35
  15   1 -13   38.36    3.20
  15   1 -13   21.63    4.79
  13  -1 -13    6.22    3.62
  13   1 -13    1.99    1.24
  13   1 -13    7.50    3.19
  11  -1 -13    2.92    3.00
  11   1 -13    2.34    2.51
  11   1 -13    0.33    0.97
   9  -1 -13   25.35    4.04
   9   1 -13   30.50    4.35
   9   1 -13   27.77    1.96
   9   1 -13   28.50    2.04
   7  -1 -13    5.13    2.45
   7   1 -13    6.01    2.49
   5  -1 -13    6.81    2.22
   5   1 -13    1.26    2.00
   3  -1 -13    4.21    1.92
   3   1 -13    4.36    2.11
   1  -1 -13    2.45    1.65
   1   1 -13   -0.34    1.64
  -1  -1 -13   22.22    2.44
  -1   1 -13   21.44    2.80
  -3  -1 -13   44.31    2.94
  -3   1 -13   40.40    3.71
  -5  -1 -13   10.39    1.92
  -5   1 -13   12.12    2.42
  -7  -1 -13    2.37    1.61
  -7   1 -13    3.64    1.96
  -9  -1 -13    1.88    1.69
  -9   1 -13    3.03    2.11
 -11  -1 -13    9.43    2.43
 -11   1 -13   18.24    3.32
  22  -2 -13    8.06    2.13
  22  -2 -13   15.55    6.23
  22   2 -13   14.35    3.35
  20  -2 -13    1.79    5.01
  20  -2 -13    2.60    1.38
  20   2 -13    4.87    2.43
  18  -2 -13   17.84    5.78
  18   2 -13   12.44    2.67
  16  -2 -13   35.31    6.73
  16   2 -13   31.75    3.38
  14  -2 -13   -0.45    3.65
  14   2 -13   -1.11    1.27
  14   2 -13   -0.03    2.80
  12  -2 -13   30.81    5.43
  12   2 -13   27.90    2.74
  12   2 -13   38.90    5.20
  10  -2 -13    9.61    3.63
  10   2 -13   13.99    3.35
  10   2 -13   15.44    1.94
   8  -2 -13    6.15    2.87
   8   2 -13    4.31    1.24
   8   2 -13    6.04    2.56
   6  -2 -13   69.35    4.98
   6   2 -13   67.65    5.83
   6   2 -13   63.25    3.24
   4  -2 -13   34.33    3.56
   4   2 -13   31.87    2.00
   4   2 -13   35.85    2.53
   4   2 -13   33.26    4.03
   2  -2 -13   15.89    2.44
   2   2 -13   26.26    3.40
   0  -2 -13    7.47    1.64
   0   2 -13    7.29    2.31
  -2  -2 -13   -0.74    1.12
  -2   2 -13    2.14    1.80
  -4  -2 -13    4.56    1.35
  -4   2 -13    1.64    1.90
  -6  -2 -13    2.23    1.35
  -6   2 -13    2.13    1.95
  -8  -2 -13   14.42    2.10
  -8   2 -13   12.24    2.65
 -10  -2 -13    8.28    2.18
 -10   2 -13    5.54    2.38
  21  -3 -13    1.52    5.16
  21   3 -13   -1.55    2.03
  19  -3 -13   13.29    6.15
  19   3 -13   11.64    2.79
  17  -3 -13   -0.90    4.04
  17   3 -13    1.43    1.84
  15  -3 -13   22.22    5.72
  15   3 -13   22.44    3.06
  13  -3 -13    1.03    3.57
  13   3 -13    0.64    1.45
  11  -3 -13    5.74    3.76
  11   3 -13   -1.32    1.27
  11   3 -13    0.00    2.31
   9  -3 -13   21.31    4.25
   9   3 -13   26.23    4.13
   9   3 -13   18.39    2.33
   7  -3 -13    4.49    2.87
   7   3 -13   10.14    3.04
   7   3 -13    6.13    1.55
   5  -3 -13   -0.68    1.98
   5   3 -13    0.52    2.10
   5   3 -13    0.30    1.06
   3  -3 -13    2.44    1.75
   3  -3 -13    2.28    1.42
   3   3 -13    2.65    1.10
   3   3 -13    3.62    2.16
   1  -3 -13    1.20    1.35
   1  -3 -13    0.08    1.27
   1   3 -13    0.03    0.91
   1   3 -13   -2.83    1.62
  -1  -3 -13   21.84    2.12
  -1  -3 -13   21.43    1.84
  -1   3 -13   24.63    3.38
  -1   3 -13   20.35    1.83
  -3  -3 -13   30.43    2.60
  -3   3 -13   32.86    4.03
  -5  -3 -13   11.36    2.03
  -5  -3 -13    8.08    1.35
  -5   3 -13   11.26    2.84
  -7  -3 -13    1.47    1.39
  -7   3 -13    0.89    1.94
  -9  -3 -13    0.28    1.47
  -9   3 -13    2.54    2.32
  20  -4 -13    9.98    5.70
  20   4 -13    6.17    2.73
  18  -4 -13    0.00    4.61
  18   4 -13   -0.58    1.97
  16  -4 -13   44.31    7.70
  16   4 -13   32.57    3.85
  14  -4 -13   -0.11    4.34
  14   4 -13    5.61    2.08
  12  -4 -13    5.82    4.15
  12   4 -13    3.08    1.72
  10  -4 -13    3.04    3.72
  10   4 -13   -0.32    1.39
   8  -4 -13   27.89    4.87
   8   4 -13   34.04    3.23
   6  -4 -13   35.06    4.33
   6   4 -13   35.04    4.43
   6   4 -13   24.18    2.73
   4  -4 -13   12.99    2.77
   4   4 -13   14.47    3.20
   4   4 -13   21.81    2.41
   2  -4 -13   33.94    2.51
   2  -4 -13   38.77    2.88
   2   4 -13   45.90    4.74
   2   4 -13   29.87    2.79
   0   4 -13    4.33    2.28
   0   4 -13    1.50    1.30
  -2   4 -13   12.85    3.08
  -2   4 -13    9.23    1.64
  -4   4 -13    5.11    2.65
  -4   4 -13   10.56    1.73
  -6   4 -13    1.09    1.08
  -6   4 -13    0.16    1.94
  17  -5 -13    4.26    5.37
  17   5 -13    3.59    2.23
  15  -5 -13   24.13    6.62
  15   5 -13   14.02    2.87
  13  -5 -13    0.35    4.36
  13   5 -13    4.43    1.97
  11  -5 -13   -1.00    4.10
  11   5 -13    0.89    1.72
   9  -5 -13   10.69    4.33
   9   5 -13   15.48    2.52
   7  -5 -13    2.38    3.40
   7   5 -13   -0.05    1.51
   5  -5 -13    2.08    2.65
   5   5 -13    0.46    1.49
   3  -5 -13    0.96    2.09
   3   5 -13    3.40    1.54
   1   5 -13   -0.97    1.34
  -1   5 -13   15.13    2.28
  -3   5 -13   25.07    2.67
  12  -6 -13   10.99    5.47
  12   6 -13   14.76    2.76
  10  -6 -13    4.36    4.72
  10   6 -13    3.28    2.03
   8  -6 -13   -2.14    3.89
   8   6 -13    3.11    1.84
   6  -6 -13   31.72    5.25
   6   6 -13   31.01    3.50
   4  -6 -13   15.47    3.60
   4   6 -13   12.88    2.44
   2   6 -13    4.27    1.84
  22   0 -14   35.50    3.93
  20   0 -14    1.58    4.28
  20   0 -14    1.13    1.63
  18   0 -14   -1.64    3.75
  18   0 -14    1.51    1.40
  16   0 -14   17.54    5.12
  16   0 -14   16.27    1.90
  14   0 -14    0.05    0.75
  14   0 -14    2.21    3.25
  14   0 -14    0.38    0.77
  12   0 -14   23.91    4.43
  10   0 -14    6.80    2.95
   8   0 -14    8.84    2.67
   6   0 -14    3.14    2.19
   4   0 -14   34.23    3.84
   2   0 -14   34.40    3.61
   0   0 -14    4.96    1.84
  -2   0 -14    8.30    2.03
  -4   0 -14   12.83    2.32
  -6   0 -14   14.28    2.44
  -8   0 -14    0.92    1.78
  23  -1 -14    8.18    2.36
  23   1 -14    8.58    2.94
  21  -1 -14    6.09    1.79
  21  -1 -14    2.20    4.73
  21   1 -14    1.43    2.02
  19  -1 -14   16.81    5.43
  19  -1 -14   13.67    1.87
  19   1 -14   15.37    2.72
  17  -1 -14    9.66    4.98
  17   1 -14    8.79    1.95
  17   1 -14    6.14    4.13
  15  -1 -14   -2.39    3.46
  15   1 -14    2.39    1.40
  15   1 -14    0.58    3.27
  13  -1 -14   -1.47    3.02
  13   1 -14   -0.46    1.05
  13   1 -14    0.69    2.73
  11  -1 -14   17.60    4.03
  11   1 -14   14.95    3.59
  11   1 -14   11.12    1.39
   9  -1 -14    1.20    2.52
   9   1 -14    1.39    2.41
   7  -1 -14    4.47    2.39
   7   1 -14    0.25    2.13
   5  -1 -14   -0.03    1.85
   5   1 -14   -1.02    1.90
   3  -1 -14   20.19    2.80
   3   1 -14   16.74    3.06
   1  -1 -14   50.96    3.71
   1   1 -14   54.45    4.20
  -1  -1 -14    4.06    1.62
  -1   1 -14    5.55    1.98
  -3  -1 -14   11.77    2.01
  -3   1 -14   13.11    2.56
  -5  -1 -14   -1.90    1.22
  -5   1 -14   -0.65    1.60
  -7  -1 -14    4.87    1.82
  -7   1 -14    1.93    1.80
  -9  -1 -14    1.90    1.79
  -9   1 -14   -1.94    1.78
  22  -2 -14    9.07    5.79
  22  -2 -14   14.23    1.93
  22   2 -14   11.08    2.90
  20  -2 -14   -5.10    4.45
  20   2 -14    0.50    1.98
  18  -2 -14    2.96    4.90
  18   2 -14    8.72    2.25
  16  -2 -14   -3.32    3.83
  16   2 -14   -0.32    1.41
  14  -2 -14   13.19    4.79
  14   2 -14   13.19    3.78
  14   2 -14    8.76    1.91
  12  -2 -14   45.14    6.26
  12   2 -14   48.82    3.27
  12   2 -14   54.82    6.05
  10  -2 -14    1.22    2.79
  10   2 -14   -0.64    2.21
  10   2 -14   -0.91    0.95
   8  -2 -14    1.58    2.47
   8   2 -14    4.56    2.43
   8   2 -14   -0.43    0.84
   6  -2 -14    4.43    2.39
   6   2 -14    3.46    2.50
   6   2 -14    2.28    0.85
   4  -2 -14    6.16    2.18
   4   2 -14    4.33    2.34
   2  -2 -14    0.79    1.65
   2   2 -14    2.52    2.09
   0  -2 -14   -0.49    1.23
   0   2 -14    0.14    1.80
  -2  -2 -14    5.32    1.45
  -2   2 -14    1.79    1.97
  -4  -2 -14   -0.05    1.29
  -4   2 -14    3.46    2.09
  -6  -2 -14   36.08    2.77
  -6   2 -14   36.75    4.11
  -8  -2 -14    0.69    1.43
  -8   2 -14    0.72    2.09
  21  -3 -14    7.08    5.70
  21   3 -14    5.45    2.61
  19  -3 -14    7.42    5.55
  19   3 -14   14.24    2.88
  17  -3 -14    5.63    4.92
  17   3 -14    4.75    2.05
  15  -3 -14    1.47    4.21
  15   3 -14    0.31    1.64
  13  -3 -14    0.81    3.99
  13   3 -14    2.33    1.62
  11  -3 -14    6.51    4.01
  11   3 -14    7.18    1.78
  11   3 -14    6.71    3.24
   9  -3 -14    1.73    2.88
   9   3 -14   -2.57    2.15
   9   3 -14    1.56    1.27
   7  -3 -14   -1.80    2.36
   7   3 -14    1.08    1.16
   7   3 -14    4.52    2.39
   5  -3 -14   -2.29    1.84
   5   3 -14   -2.39    1.78
   5   3 -14   -0.27    0.95
   3  -3 -14   14.91    2.33
   3   3 -14    8.42    1.41
   3   3 -14   13.94    2.88
   1  -3 -14   40.08    2.90
   1   3 -14   42.33    2.44
   1   3 -14   49.19    4.81
  -1  -3 -14    1.51    1.12
  -1  -3 -14    2.12    1.48
  -1   3 -14    5.36    2.34
  -3  -3 -14   12.39    1.49
  -3   3 -14   13.33    2.86
  -5  -3 -14   -0.28    1.03
  -5   3 -14    2.64    2.19
  -7  -3 -14    2.56    1.52
  -7   3 -14    3.63    2.40
  18  -4 -14   -0.82    4.70
  18   4 -14    1.08    1.91
  16  -4 -14   15.53    5.58
  16   4 -14    6.27    2.34
  14  -4 -14    3.72    4.35
  14   4 -14   -0.17    1.59
  12  -4 -14   10.73    4.61
  12   4 -14    9.87    2.16
  10  -4 -14    1.21    3.40
  10   4 -14    3.00    1.68
   8  -4 -14    9.72    3.54
   8   4 -14    4.83    1.69
   6  -4 -14    0.78    2.50
   6   4 -14    1.13    1.36
   4  -4 -14   22.56    2.99
   4   4 -14   24.50    3.91
   4   4 -14   22.57    2.43
   2  -4 -14   16.25    1.94
   2  -4 -14   18.27    2.22
   2   4 -14   23.19    3.71
   2   4 -14   16.34    2.03
   0   4 -14    1.81    1.20
   0   4 -14    4.38    2.45
  -2   4 -14    3.59    1.26
  -2   4 -14    2.99    2.52
  -4   4 -14    3.34    2.56
  15  -5 -14   -4.80    4.48
  15   5 -14   -0.01    1.80
  13  -5 -14   -1.47    4.23
  13   5 -14   -0.13    1.66
  11  -5 -14   -1.40    3.55
  11   5 -14    2.26    1.78
   9  -5 -14   -5.63    3.10
   9   5 -14   -1.06    1.45
   7  -5 -14   -1.50    2.80
   7   5 -14   -1.13    1.41
   5  -5 -14   -1.69    2.16
   5   5 -14   -1.59    1.31
   3   5 -14   12.03    2.17
   1   5 -14   27.19    2.83
  -1   5 -14    2.19    1.46
  22   0 -15   -2.61    1.51
  20   0 -15    6.48    4.80
  20   0 -15    1.54    1.39
  18   0 -15    8.57    1.56
  18   0 -15   13.99    4.82
  16   0 -15   39.39    2.28
  16   0 -15   47.65    6.80
  14   0 -15   23.91    5.08
  12   0 -15   -0.38    2.66
  10   0 -15   28.17    4.35
   8   0 -15   28.78    4.21
   6   0 -15    4.89    2.29
   4   0 -15    3.50    2.22
   2   0 -15    4.09    2.04
   0   0 -15   14.33    2.50
  -2   0 -15    1.61    1.75
  -4   0 -15    4.09    1.88
  -6   0 -15   10.92    2.39
  21  -1 -15    2.95    4.90
  21  -1 -15    0.15    1.10
  21   1 -15    2.67    1.89
  19  -1 -15    3.13    4.81
  19   1 -15    0.72    1.53
  17  -1 -15   10.07    4.61
  17   1 -15    3.35    1.51
  17   1 -15    0.61    3.49
  15  -1 -15    2.89    3.89
  15   1 -15   -1.34    2.77
  15   1 -15   -0.66    1.03
  13  -1 -15    7.43    3.76
  13   1 -15    3.22    1.02
  13   1 -15    9.43    3.43
  11  -1 -15    5.07    3.02
  11   1 -15    2.09    2.90
   9  -1 -15    3.98    2.68
   9   1 -15    7.04    2.93
   7  -1 -15   31.28    4.05
   7   1 -15   30.54    4.33
   5  -1 -15   -0.25    1.91
   5   1 -15   -0.33    2.21
   3  -1 -15   -1.39    1.77
   3   1 -15   -0.24    1.86
   1  -1 -15    2.09    1.62
   1   1 -15    1.61    1.80
  -1  -1 -15   12.58    2.20
  -1   1 -15   11.83    2.56
  -3  -1 -15    6.61    1.91
  -3   1 -15    6.38    2.21
  -5  -1 -15   -0.53    1.43
  -5   1 -15   -1.18    1.71
  20  -2 -15    1.89    4.69
  20   2 -15    3.71    2.03
  18  -2 -15   36.78    7.43
  18   2 -15   45.48    3.99
  16  -2 -15   28.49    6.41
  16   2 -15   21.26    2.61
  14  -2 -15   18.57    5.08
  14   2 -15   13.20    2.03
  14   2 -15   14.79    4.02
  12  -2 -15    3.29    3.47
  12   2 -15    3.09    1.28
  12   2 -15   -0.36    2.66
  10  -2 -15    6.09    3.06
  10   2 -15    1.49    0.99
  10   2 -15    2.26    2.78
   8  -2 -15    0.71    2.37
   8   2 -15    2.26    0.83
   8   2 -15   -3.29    2.18
   6  -2 -15   11.11    2.76
   6   2 -15   11.30    3.09
   4  -2 -15   -0.31    1.76
   4   2 -15   -1.23    2.00
   2  -2 -15    0.87    1.71
   2   2 -15   -1.38    1.93
   0  -2 -15   39.96    3.00
   0   2 -15   41.41    4.27
  -2  -2 -15    7.36    1.64
  -2   2 -15    9.77    2.51
  -4  -2 -15   20.58    2.29
  -4   2 -15   17.82    3.08
  -6  -2 -15    8.62    1.81
  -6   2 -15    7.25    2.52
  19  -3 -15    2.40    4.96
  19   3 -15    0.54    1.73
  17  -3 -15    5.21    5.11
  17   3 -15    3.13    1.84
  15  -3 -15   -3.57    4.08
  15   3 -15   -1.86    1.35
  13  -3 -15    0.24    3.75
  13   3 -15    4.13    1.58
  11  -3 -15    6.78    3.59
  11   3 -15    1.49    1.36
  11   3 -15    5.40    3.12
   9  -3 -15    0.36    2.73
   9   3 -15    1.91    1.26
   9   3 -15    3.34    2.84
   7  -3 -15   20.06    3.63
   7   3 -15   37.12    4.71
   7   3 -15   25.20    2.23
   5  -3 -15    1.84    2.01
   5   3 -15   -1.36    2.05
   5   3 -15   -0.15    0.88
   3  -3 -15    1.72    1.65
   3   3 -15    1.39    2.31
   1  -3 -15   -0.24    1.30
   1   3 -15   -1.80    1.80
  -1  -3 -15    8.38    1.48
  -1   3 -15    8.70    2.73
  -3  -3 -15    3.90    1.23
  -3   3 -15    4.15    2.44
  16  -4 -15   20.25    6.25
  16   4 -15   30.88    3.55
  14  -4 -15   13.28    4.98
  14   4 -15   11.61    2.38
  12  -4 -15   -3.38    3.70
  12   4 -15   -1.19    1.36
  10  -4 -15    9.09    3.73
  10   4 -15   14.36    2.30
   8  -4 -15   24.39    4.12
   8   4 -15   17.84    2.32
   6  -4 -15    2.17    2.31
   6   4 -15    3.34    1.38
   4  -4 -15    0.29    1.81
   4   4 -15    0.20    1.16
   2   4 -15    2.53    2.21
   2   4 -15    2.86    1.18
   0   4 -15    6.45    2.75
   0   4 -15    7.07    1.38
   9  -5 -15    5.01    3.61
   9   5 -15    4.73    1.85
   7  -5 -15   14.62    3.45
   7   5 -15   16.55    2.45
   5  -5 -15    0.07    2.11
   5   5 -15    2.05    1.50
  20   0 -16   25.42    6.33
  20   0 -16   21.07    2.07
  18   0 -16    4.96    4.21
  16   0 -16   29.94    5.74
  14   0 -16    2.70    3.30
  12   0 -16    5.01    3.03
  10   0 -16   23.35    4.11
   8   0 -16   -0.96    2.12
   6   0 -16   12.76    3.02
   4   0 -16   11.22    2.82
   2   0 -16   -0.94    1.73
   0   0 -16    7.21    2.05
  -2   0 -16    2.96    1.84
  -4   0 -16   11.42    2.37
  19  -1 -16    6.27    4.87
  19   1 -16    0.97    1.33
  17  -1 -16    2.34    4.21
  17   1 -16    6.10    4.03
  17   1 -16    1.43    1.15
  15  -1 -16   16.09    4.73
  15   1 -16   16.36    4.53
  15   1 -16    7.22    1.24
  13  -1 -16   56.46    6.56
  13   1 -16   51.04    6.42
  11  -1 -16   17.37    3.97
  11   1 -16   15.52    3.96
   9  -1 -16   16.32    3.54
   9   1 -16   20.98    3.94
   7  -1 -16   19.82    3.45
   7   1 -16   17.46    3.65
   5  -1 -16    6.56    2.37
   5   1 -16    5.04    2.53
   3  -1 -16   14.91    2.74
   3   1 -16   17.29    3.23
   1  -1 -16    2.17    1.76
   1   1 -16    4.26    2.12
  -1  -1 -16   14.49    2.32
  -1   1 -16   12.59    2.70
  -3  -1 -16    4.31    1.76
  -3   1 -16    4.71    2.13
  18  -2 -16   -1.64    4.22
  18   2 -16    3.80    1.69
  16  -2 -16   -2.27    3.80
  16   2 -16    3.13    1.52
  14  -2 -16    9.91    4.23
  14   2 -16    7.45    3.68
  14   2 -16    2.96    1.32
  12  -2 -16   11.16    3.64
  12   2 -16    8.82    3.31
  12   2 -16    7.59    1.33
  10  -2 -16   -0.37    2.61
  10   2 -16    6.09    3.08
   8  -2 -16   -1.97    2.18
   8   2 -16    1.99    2.60
   6  -2 -16   24.83    3.58
   6   2 -16   29.27    4.17
   4  -2 -16    1.03    1.89
   4   2 -16    1.50    2.19
   2  -2 -16   16.42    2.48
   2   2 -16   14.65    3.14
   0  -2 -16   -1.42    1.33
   0   2 -16   -1.65    1.91
  -2  -2 -16    0.11    1.45
  -2   2 -16   -0.22    1.97
  17  -3 -16   -7.97    3.75
  17   3 -16    2.69    1.75
  15  -3 -16    8.18    4.68
  15   3 -16    6.43    1.82
  13  -3 -16   43.59    6.31
  13   3 -16   41.23    3.39
  11  -3 -16    5.59    3.53
  11   3 -16   12.28    3.70
  11   3 -16    7.90    1.66
   9  -3 -16   21.02    3.74
   9   3 -16   12.74    3.63
   9   3 -16   16.05    1.83
   7  -3 -16    8.30    2.75
   7   3 -16   11.28    3.33
   7   3 -16    8.44    1.30
   5  -3 -16    3.50    2.11
   5   3 -16    5.81    2.80
   3  -3 -16    9.57    2.21
   3   3 -16    7.79    2.89
   1  -3 -16    3.02    1.48
   1   3 -16    2.04    2.26
  12  -4 -16   -0.20    3.40
  12   4 -16    0.07    1.42
  10  -4 -16    9.18    3.60
  10   4 -16    7.23    1.81
   8  -4 -16    0.94    2.57
   8   4 -16   -0.67    1.15
   6  -4 -16    7.22    2.59
   6   4 -16    5.95    1.53
   4  -4 -16    8.88    2.23
   4   4 -16    6.81    1.41
  18   0 -17    4.57    4.53
  16   0 -17   11.05    4.27
  14   0 -17    7.18    3.48
  12   0 -17   -2.20    2.60
  10   0 -17   21.65    4.06
   8   0 -17    9.00    3.06
   6   0 -17   11.10    3.14
   4   0 -17   17.02    3.11
   2   0 -17    2.85    2.04
   0   0 -17    3.35    2.07
  17  -1 -17   -0.64    3.72
  17   1 -17    6.01    3.88
  15  -1 -17    3.74    3.88
  15   1 -17   12.32    4.47
  13  -1 -17   17.11    4.39
  13   1 -17   34.89    5.28
  11  -1 -17    1.78    2.52
  11   1 -17    0.54    2.80
   9  -1 -17    0.20    2.45
   9   1 -17    4.45    2.84
   7  -1 -17    3.41    2.36
   7   1 -17    0.63    2.35
   5  -1 -17    9.69    2.79
   5   1 -17   12.95    2.98
   3  -1 -17    8.13    2.43
   3   1 -17    8.53    2.66
   1  -1 -17    3.86    1.92
   1   1 -17   -0.51    1.98
  16  -2 -17    1.47    4.14
  16   2 -17    1.59    1.24
  14  -2 -17    5.56    3.84
  14   2 -17    1.56    3.33
  14   2 -17    0.59    0.96
  12  -2 -17    6.43    3.42
  12   2 -17    4.23    3.40
  10  -2 -17    5.54    2.94
  10   2 -17    9.06    3.26
   8  -2 -17   39.47    4.72
   8   2 -17   49.33    5.47
   6  -2 -17    2.81    2.26
   6   2 -17    3.22    2.69
   4  -2 -17   20.49    3.12
   4   2 -17   23.43    3.83
   2  -2 -17    4.03    1.97
   2   2 -17   -0.86    2.14
  11  -3 -17    7.49    3.32
   9  -3 -17   -3.86    2.20
   9   3 -17    5.39    2.88
   7  -3 -17    4.56    2.33
   7   3 -17   -3.34    2.06
   5  -3 -17    3.42    2.21
   5   3 -17    7.23    2.95
  12   0 -18   -3.15    2.38
  10   0 -18    3.64    2.91
   8   0 -18   11.63    3.32
   6   0 -18    2.01    2.40
  11  -1 -18    5.49    2.98
  11   1 -18    6.69    3.19
   9  -1 -18    2.28    2.46
   9   1 -18    0.36    2.76
   7  -1 -18    3.01    2.38
   7   1 -18    2.76    2.64
   0   0   0    0.00    0.00
;
_shelx_hkl_checksum              42682
loop_
_space_group_symop_operation_xyz
'x, y, z'
'-x, y, -z'
'x+1/2, y+1/2, z'
'-x+1/2, y+1/2, -z'
'-x, -y, -z'
'x, -y, z'
'-x+1/2, -y+1/2, -z'
'x+1/2, -y+1/2, z'
loop_
_atom_site_label
_atom_site_type_symbol
_atom_site_fract_x
_atom_site_fract_y
_atom_site_fract_z
_atom_site_U_iso_or_equiv
_atom_site_adp_type
_atom_site_occupancy
_atom_site_site_symmetry_order
_atom_site_calc_flag
_atom_site_refinement_flags_posn
_atom_site_refinement_flags_adp
_atom_site_refinement_flags_occupancy
Pb1 Pb 0.71498(2) 1.000000 0.33393(4) 0.01556(12) Uani 1 2 d S T P
Se1 Se 0.32474(6) 0.500000 -0.15617(8) 0.0119(2) Uani 1 2 d S T P
Se2 Se 0.59671(6) 1.000000 0.73241(8) 0.0117(2) Uani 1 2 d S T P
Br1 Br 0.70414(6) 1.000000 0.57105(9) 0.0205(3) Uani 1 2 d S T P
Br2 Br 0.59980(7) 0.500000 0.44869(10) 0.0264(3) Uani 1 2 d S T P
Br3 Br 0.500000 0.000000 0.000000 0.0317(5) Uani 1 4 d S T P
Br4 Br 0.27772(7) 0.500000 0.12952(11) 0.0333(4) Uani 1 2 d S T P
Cu1 Cu 0.57107(7) 1.000000 0.46021(10) 0.0154(3) Uani 1 2 d S T P
Cu2 Cu 0.54663(5) 0.75625(16) 0.22707(8) 0.0147(2) Uani 1 1 d . . .
Cu3 Cu 0.500000 0.500000 0.000000 0.0164(4) Uani 1 4 d S T P
Cu4 Cu 0.40277(8) 0.500000 0.13963(12) 0.0202(3) Uani 1 2 d S T P
Cu5 Cu 0.500000 0.500000 0.500000 0.0502(8) Uani 1 4 d S T P
O1 O 0.5053(4) 0.500000 0.1515(6) 0.0125(16) Uani 1 2 d S T P
O2 O 0.5885(4) 1.000000 0.3205(6) 0.0149(17) Uani 1 2 d S T P
O3 O 0.5590(3) 0.7894(9) 0.7750(5) 0.0225(14) Uani 1 1 d . . .
O4 O 0.3530(3) 0.2908(9) -0.2176(4) 0.0166(12) Uani 1 1 d . . .
O5 O 0.3909(4) 0.500000 -0.0276(6) 0.0192(19) Uani 1 2 d S T P
O6 O 0.5410(4) 1.000000 0.5942(6) 0.0207(19) Uani 1 2 d S T P
loop_
_atom_site_aniso_label
_atom_site_aniso_U_11
_atom_site_aniso_U_22
_atom_site_aniso_U_33
_atom_site_aniso_U_23
_atom_site_aniso_U_13
_atom_site_aniso_U_12
Pb1 0.0125(2) 0.0185(3) 0.0151(2) 0.000 0.00399(16) 0.000
Se1 0.0094(5) 0.0161(6) 0.0105(5) 0.000 0.0038(4) 0.000
Se2 0.0096(5) 0.0146(6) 0.0114(5) 0.000 0.0040(4) 0.000
Br1 0.0142(6) 0.0302(8) 0.0153(5) 0.000 0.0028(4) 0.000
Br2 0.0268(7) 0.0278(8) 0.0256(6) 0.000 0.0104(5) 0.000
Br3 0.0430(12) 0.0244(11) 0.0296(10) 0.000 0.0146(9) 0.000
Br4 0.0182(7) 0.0501(10) 0.0376(8) 0.000 0.0172(6) 0.000
Cu1 0.0128(7) 0.0249(9) 0.0091(6) 0.000 0.0045(5) 0.000
Cu2 0.0128(5) 0.0149(6) 0.0170(5) -0.0049(4) 0.0057(4) -0.0018(4)
Cu3 0.0133(10) 0.0283(13) 0.0080(9) 0.000 0.0042(7) 0.000
Cu4 0.0121(7) 0.0283(9) 0.0220(7) 0.000 0.0080(6) 0.000
Cu5 0.0424(17) 0.056(2) 0.065(2) 0.000 0.0344(15) 0.000
O1 0.012(4) 0.014(4) 0.011(3) 0.000 0.003(3) 0.000
O2 0.017(4) 0.017(5) 0.009(4) 0.000 0.002(3) 0.000
O3 0.021(3) 0.017(3) 0.033(3) 0.015(3) 0.013(3) 0.000(3)
O4 0.013(3) 0.019(3) 0.018(3) -0.003(2) 0.005(2) 0.000(2)
O5 0.009(4) 0.035(5) 0.013(4) 0.000 0.002(3) 0.000
O6 0.017(4) 0.041(6) 0.009(4) 0.000 0.010(3) 0.000
loop_
_atom_type_symbol
_atom_type_description
_atom_type_scat_dispersion_real
_atom_type_scat_dispersion_imag
_atom_type_scat_source
O O 0.0106 0.0060 'International Tables Vol C Tables 4.2.6.8 and 6.1.1.4'
Cu Cu 0.3201 1.2651 'International Tables Vol C Tables 4.2.6.8 and 6.1.1.4'
Se Se -0.0929 2.2259 'International Tables Vol C Tables 4.2.6.8 and 6.1.1.4'
Pb Pb -3.3944 10.1111 'International Tables Vol C Tables 4.2.6.8 and 6.1.1.4'
Br Br -0.2901 2.4595 'International Tables Vol C Tables 4.2.6.8 and 6.1.1.4'
loop_
_geom_angle_atom_site_label_1
_geom_angle_atom_site_label_2
_geom_angle_atom_site_label_3
_geom_angle
_geom_angle_site_symmetry_1
_geom_angle_site_symmetry_3
O2 Pb1 O4 68.54(16) . 5_665
O2 Pb1 O4 68.54(16) . 2_665
O4 Pb1 O4 97.0(3) 5_665 2_665
O2 Pb1 Br1 70.46(17) . .
O4 Pb1 Br1 113.48(13) 5_665 .
O4 Pb1 Br1 113.48(13) 2_665 .
O2 Pb1 Br4 126.44(17) . 3
O4 Pb1 Br4 76.87(13) 5_665 3
O4 Pb1 Br4 76.87(13) 2_665 3
Br1 Pb1 Br4 163.10(4) . 3
O2 Pb1 Cu2 33.47(10) . 6_575
O4 Pb1 Cu2 81.52(13) 5_665 6_575
O4 Pb1 Cu2 35.08(12) 2_665 6_575
Br1 Pb1 Cu2 91.38(3) . 6_575
Br4 Pb1 Cu2 103.70(4) 3 6_575
O2 Pb1 Cu2 33.47(10) . .
O4 Pb1 Cu2 35.08(12) 5_665 .
O4 Pb1 Cu2 81.52(13) 2_665 .
Br1 Pb1 Cu2 91.38(3) . .
Br4 Pb1 Cu2 103.70(4) 3 .
Cu2 Pb1 Cu2 53.23(5) 6_575 .
O2 Pb1 Br1 110.13(6) . 7_676
O4 Pb1 Br1 163.45(13) 5_665 7_676
O4 Pb1 Br1 68.11(13) 2_665 7_676
Br1 Pb1 Br1 80.23(3) . 7_676
Br4 Pb1 Br1 92.21(3) 3 7_676
Cu2 Pb1 Br1 89.20(4) 6_575 7_676
Cu2 Pb1 Br1 141.49(3) . 7_676
O2 Pb1 Br1 110.13(6) . 7_666
O4 Pb1 Br1 68.11(13) 5_665 7_666
O4 Pb1 Br1 163.45(13) 2_665 7_666
Br1 Pb1 Br1 80.23(3) . 7_666
Br4 Pb1 Br1 92.21(3) 3 7_666
Cu2 Pb1 Br1 141.49(3) 6_575 7_666
Cu2 Pb1 Br1 89.20(4) . 7_666
Br1 Pb1 Br1 125.49(5) 7_676 7_666
O2 Pb1 Cu1 28.60(17) . .
O4 Pb1 Cu1 86.75(12) 5_665 .
O4 Pb1 Cu1 86.75(12) 2_665 .
Br1 Pb1 Cu1 41.86(3) . .
Br4 Pb1 Cu1 155.04(3) 3 .
Cu2 Pb1 Cu1 54.66(4) 6_575 .
Cu2 Pb1 Cu1 54.66(4) . .
Br1 Pb1 Cu1 99.06(3) 7_676 .
Br1 Pb1 Cu1 99.06(3) 7_666 .
O2 Pb1 Br2 138.76(17) . 7_666
O4 Pb1 Br2 129.75(12) 5_665 7_666
O4 Pb1 Br2 129.75(12) 2_665 7_666
Br1 Pb1 Br2 68.30(4) . 7_666
Br4 Pb1 Br2 94.80(5) 3 7_666
Cu2 Pb1 Br2 147.06(3) 6_575 7_666
Cu2 Pb1 Br2 147.06(3) . 7_666
Br1 Pb1 Br2 62.75(2) 7_676 7_666
Br1 Pb1 Br2 62.75(2) 7_666 7_666
Cu1 Pb1 Br2 110.16(5) . 7_666
O2 Pb1 Br2 53.33(8) . .
O4 Pb1 Br2 56.08(13) 5_665 .
O4 Pb1 Br2 121.12(13) 2_665 .
Br1 Pb1 Br2 57.50(2) . .
Br4 Pb1 Br2 130.01(2) 3 .
Cu2 Pb1 Br2 86.48(4) 6_575 .
Cu2 Pb1 Br2 45.21(3) . .
Br1 Pb1 Br2 137.33(4) 7_676 .
Br1 Pb1 Br2 57.27(4) 7_666 .
Cu1 Pb1 Br2 45.91(2) . .
Br2 Pb1 Br2 102.29(4) 7_666 .
O5 Se1 O4 101.4(2) . 6_565
O5 Se1 O4 101.4(2) . .
O4 Se1 O4 100.2(4) 6_565 .
O5 Se1 Br1 174.3(3) . 3_444
O4 Se1 Br1 75.15(17) 6_565 3_444
O4 Se1 Br1 75.15(17) . 3_444
O3 Se2 O3 103.4(4) . 6_575
O3 Se2 O6 98.5(2) . .
O3 Se2 O6 98.5(2) 6_575 .
O3 Se2 Br1 128.1(2) . .
O3 Se2 Br1 128.1(2) 6_575 .
O6 Se2 Br1 70.6(2) . .
Cu1 Br1 Pb1 80.61(5) . .
Cu1 Br1 Se2 67.98(6) . .
Pb1 Br1 Se2 148.59(4) . .
Cu1 Br1 Se1 141.75(6) . 3_556
Pb1 Br1 Se1 137.64(5) . 3_556
Se2 Br1 Se1 73.77(5) . 3_556
Cu1 Br1 Pb1 116.57(2) . 7_676
Pb1 Br1 Pb1 99.77(3) . 7_676
Se2 Br1 Pb1 94.41(3) . 7_676
Se1 Br1 Pb1 65.67(2) 3_556 7_676
Cu1 Br1 Pb1 116.57(2) . 7_666
Pb1 Br1 Pb1 99.77(3) . 7_666
Se2 Br1 Pb1 94.41(3) . 7_666
Se1 Br1 Pb1 65.67(2) 3_556 7_666
Pb1 Br1 Pb1 125.49(5) 7_676 7_666
Cu1 Br1 Br2 57.28(3) . .
Pb1 Br1 Br2 78.21(3) . .
Se2 Br1 Br2 84.63(4) . .
Se1 Br1 Br2 119.83(3) 3_556 .
Pb1 Br1 Br2 173.66(3) 7_676 .
Pb1 Br1 Br2 60.85(4) 7_666 .
Cu1 Br1 Br2 57.27(3) . 1_565
Pb1 Br1 Br2 78.21(3) . 1_565
Se2 Br1 Br2 84.63(4) . 1_565
Se1 Br1 Br2 119.83(3) 3_556 1_565
Pb1 Br1 Br2 60.85(4) 7_676 1_565
Pb1 Br1 Br2 173.66(3) 7_666 1_565
Br2 Br1 Br2 112.82(5) . 1_565
Cu1 Br1 Br2 143.63(6) . 7_666
Pb1 Br1 Br2 63.02(3) . 7_666
Se2 Br1 Br2 148.39(5) . 7_666
Se1 Br1 Br2 74.62(5) 3_556 7_666
Pb1 Br1 Br2 72.41(3) 7_676 7_666
Pb1 Br1 Br2 72.41(3) 7_666 7_666
Br2 Br1 Br2 111.44(3) . 7_666
Br2 Br1 Br2 111.44(3) 1_565 7_666
Cu1 Br1 Br1 104.42(5) . 7_676
Pb1 Br1 Br1 54.08(3) . 7_676
Se2 Br1 Br1 133.07(3) . 7_676
Se1 Br1 Br1 101.42(4) 3_556 7_676
Pb1 Br1 Br1 45.69(3) 7_676 7_676
Pb1 Br1 Br1 126.89(5) 7_666 7_676
Br2 Br1 Br1 131.94(5) . 7_676
Br2 Br1 Br1 56.72(4) 1_565 7_676
Br2 Br1 Br1 54.71(3) 7_666 7_676
Cu1 Br1 Br1 104.42(5) . 7_666
Pb1 Br1 Br1 54.08(3) . 7_666
Se2 Br1 Br1 133.07(3) . 7_666
Se1 Br1 Br1 101.42(5) 3_556 7_666
Pb1 Br1 Br1 126.89(5) 7_676 7_666
Pb1 Br1 Br1 45.69(3) 7_666 7_666
Br2 Br1 Br1 56.72(4) . 7_666
Br2 Br1 Br1 131.94(5) 1_565 7_666
Br2 Br1 Br1 54.71(3) 7_666 7_666
Br1 Br1 Br1 93.86(6) 7_676 7_666
Cu5 Br2 Cu2 102.76(5) . .
Cu5 Br2 Cu2 102.76(5) . 6_565
Cu2 Br2 Cu2 62.03(6) . 6_565
Cu5 Br2 Cu1 78.88(3) . .
Cu2 Br2 Cu1 61.86(4) . .
Cu2 Br2 Cu1 122.65(5) 6_565 .
Cu5 Br2 Cu1 78.88(3) . 1_545
Cu2 Br2 Cu1 122.64(5) . 1_545
Cu2 Br2 Cu1 61.85(4) 6_565 1_545
Cu1 Br2 Cu1 157.72(7) . 1_545
Cu5 Br2 Pb1 118.72(6) . 7_666
Cu2 Br2 Pb1 128.32(4) . 7_666
Cu2 Br2 Pb1 128.32(4) 6_565 7_666
Cu1 Br2 Pb1 95.85(3) . 7_666
Cu1 Br2 Pb1 95.85(3) 1_545 7_666
Cu5 Br2 Br1 105.43(4) . 1_545
Cu2 Br2 Br1 140.54(4) . 1_545
Cu2 Br2 Br1 85.04(4) 6_565 1_545
Cu1 Br2 Br1 150.90(5) . 1_545
Cu1 Br2 Br1 40.46(4) 1_545 1_545
Pb1 Br2 Br1 56.41(3) 7_666 1_545
Cu5 Br2 Br1 105.43(4) . .
Cu2 Br2 Br1 85.05(4) . .
Cu2 Br2 Br1 140.54(4) 6_565 .
Cu1 Br2 Br1 40.46(4) . .
Cu1 Br2 Br1 150.90(5) 1_545 .
Pb1 Br2 Br1 56.41(3) 7_666 .
Br1 Br2 Br1 112.82(5) 1_545 .
Cu5 Br2 Br1 167.40(5) . 7_666
Cu2 Br2 Br1 87.99(4) . 7_666
Cu2 Br2 Br1 87.99(4) 6_565 7_666
Cu1 Br2 Br1 100.98(3) . 7_666
Cu1 Br2 Br1 100.98(3) 1_545 7_666
Pb1 Br2 Br1 48.68(4) 7_666 7_666
Br1 Br2 Br1 68.56(3) 1_545 7_666
Br1 Br2 Br1 68.56(3) . 7_666
Cu5 Br2 Pb1 133.14(2) . 1_545
Cu2 Br2 Pb1 96.29(5) . 1_545
Cu2 Br2 Pb1 50.94(3) 6_565 1_545
Cu1 Br2 Pb1 146.58(4) . 1_545
Cu1 Br2 Pb1 54.99(4) 1_545 1_545
Pb1 Br2 Pb1 77.71(4) 7_666 1_545
Br1 Br2 Pb1 44.29(3) 1_545 1_545
Br1 Br2 Pb1 118.68(5) . 1_545
Br1 Br2 Pb1 50.32(2) 7_666 1_545
Cu5 Br2 Pb1 133.14(2) . .
Cu2 Br2 Pb1 50.94(3) . .
Cu2 Br2 Pb1 96.29(5) 6_565 .
Cu1 Br2 Pb1 54.99(4) . .
Cu1 Br2 Pb1 146.58(4) 1_545 .
Pb1 Br2 Pb1 77.71(4) 7_666 .
Br1 Br2 Pb1 118.68(5) 1_545 .
Br1 Br2 Pb1 44.29(3) . .
Br1 Br2 Pb1 50.32(2) 7_666 .
Pb1 Br2 Pb1 91.73(5) 1_545 .
Cu5 Br2 Br2 0.001(1) . 5_666
Cu2 Br2 Br2 102.76(5) . 5_666
Cu2 Br2 Br2 102.77(5) 6_565 5_666
Cu1 Br2 Br2 78.88(3) . 5_666
Cu1 Br2 Br2 78.88(3) 1_545 5_666
Pb1 Br2 Br2 118.72(6) 7_666 5_666
Br1 Br2 Br2 105.43(4) 1_545 5_666
Br1 Br2 Br2 105.43(4) . 5_666
Br1 Br2 Br2 167.40(5) 7_666 5_666
Pb1 Br2 Br2 133.14(2) 1_545 5_666
Pb1 Br2 Br2 133.14(2) . 5_666
Cu3 Br3 Cu3 180.0 1_545 .
Cu3 Br3 Cu2 119.16(3) 1_545 6_565
Cu3 Br3 Cu2 60.84(3) . 6_565
Cu3 Br3 Cu2 60.84(3) 1_545 2_645
Cu3 Br3 Cu2 119.16(3) . 2_645
Cu2 Br3 Cu2 180.00(2) 6_565 2_645
Cu3 Br3 Cu2 60.84(3) 1_545 1_545
Cu3 Br3 Cu2 119.16(3) . 1_545
Cu2 Br3 Cu2 58.32(5) 6_565 1_545
Cu2 Br3 Cu2 121.68(5) 2_645 1_545
Cu3 Br3 Cu2 119.16(3) 1_545 5_665
Cu3 Br3 Cu2 60.84(3) . 5_665
Cu2 Br3 Cu2 121.68(5) 6_565 5_665
Cu2 Br3 Cu2 58.32(5) 2_645 5_665
Cu2 Br3 Cu2 180.0 1_545 5_665
Cu4 Br4 Pb1 127.38(6) . 3_445
Cu4 Br4 Br4 91.27(5) . 7
Pb1 Br4 Br4 123.17(4) 3_445 7
Cu4 Br4 Br4 91.27(5) . 7_565
Pb1 Br4 Br4 123.17(4) 3_445 7_565
Br4 Br4 Br4 90.21(7) 7 7_565
O2 Cu1 O6 173.5(3) . .
O2 Cu1 O6 100.3(3) . 5_676
O6 Cu1 O6 73.3(3) . 5_676
O2 Cu1 Br1 93.6(2) . .
O6 Cu1 Br1 92.9(2) . .
O6 Cu1 Br1 166.1(2) 5_676 .
O2 Cu1 Br2 82.54(5) . 1_565
O6 Cu1 Br2 98.34(4) . 1_565
O6 Cu1 Br2 99.43(4) 5_676 1_565
Br1 Cu1 Br2 82.27(3) . 1_565
O2 Cu1 Br2 82.54(5) . .
O6 Cu1 Br2 98.34(4) . .
O6 Cu1 Br2 99.43(4) 5_676 .
Br1 Cu1 Br2 82.27(3) . .
Br2 Cu1 Br2 157.73(7) 1_565 .
O2 Cu1 Pb1 36.1(2) . .
O6 Cu1 Pb1 150.4(2) . .
O6 Cu1 Pb1 136.4(2) 5_676 .
Br1 Cu1 Pb1 57.53(5) . .
Br2 Cu1 Pb1 79.10(3) 1_565 .
Br2 Cu1 Pb1 79.10(3) . .
O1 Cu2 O2 172.9(3) . .
O1 Cu2 O4 95.1(3) . 5_665
O2 Cu2 O4 87.0(3) . 5_665
O1 Cu2 O3 80.7(3) . 2_656
O2 Cu2 O3 97.4(3) . 2_656
O4 Cu2 O3 175.2(2) 5_665 2_656
O1 Cu2 Cu2 147.53(17) . 6_575
O2 Cu2 Cu2 38.00(16) . 6_575
O4 Cu2 Cu2 98.50(16) 5_665 6_575
O3 Cu2 Cu2 84.12(17) 2_656 6_575
O1 Cu2 Cu4 37.1(2) . .
O2 Cu2 Cu4 140.6(2) . .
O4 Cu2 Cu4 132.12(16) 5_665 .
O3 Cu2 Cu4 43.59(16) 2_656 .
Cu2 Cu2 Cu4 121.69(3) 6_575 .
O1 Cu2 Br2 88.82(19) . .
O2 Cu2 Br2 84.53(17) . .
O4 Cu2 Br2 87.44(16) 5_665 .
O3 Cu2 Br2 94.65(18) 2_656 .
Cu2 Cu2 Br2 121.02(3) 6_575 .
Cu4 Cu2 Br2 92.21(5) . .
O1 Cu2 Br3 90.06(19) . 1_565
O2 Cu2 Br3 96.72(17) . 1_565
O4 Cu2 Br3 89.57(15) 5_665 1_565
O3 Cu2 Br3 88.22(18) 2_656 1_565
Cu2 Cu2 Br3 60.84(3) 6_575 1_565
Cu4 Cu2 Br3 88.76(4) . 1_565
Br2 Cu2 Br3 176.71(4) . 1_565
O1 Cu2 Pb1 139.1(2) . .
O2 Cu2 Pb1 42.5(2) . .
O4 Cu2 Pb1 44.59(15) 5_665 .
O3 Cu2 Pb1 139.89(16) 2_656 .
Cu2 Cu2 Pb1 63.39(2) 6_575 .
Cu4 Cu2 Pb1 174.84(4) . .
Br2 Cu2 Pb1 83.84(4) . .
Br3 Cu2 Pb1 95.00(3) 1_565 .
O1 Cu3 O1 180.0 . 5_665
O1 Cu3 O5 97.4(3) . 5_665
O1 Cu3 O5 82.6(3) 5_665 5_665
O1 Cu3 O5 82.6(3) . .
O1 Cu3 O5 97.4(3) 5_665 .
O5 Cu3 O5 180.0 5_665 .
O1 Cu3 Cu4 141.2(2) . 5_665
O1 Cu3 Cu4 38.8(2) 5_665 5_665
O5 Cu3 Cu4 43.8(2) 5_665 5_665
O5 Cu3 Cu4 136.2(2) . 5_665
O1 Cu3 Cu4 38.8(2) . .
O1 Cu3 Cu4 141.2(2) 5_665 .
O5 Cu3 Cu4 136.2(2) 5_665 .
O5 Cu3 Cu4 43.8(2) . .
Cu4 Cu3 Cu4 180.0 5_665 .
O1 Cu3 Br3 90.0 . .
O1 Cu3 Br3 90.0 5_665 .
O5 Cu3 Br3 90.0 5_665 .
O5 Cu3 Br3 90.0 . .
Cu4 Cu3 Br3 90.0 5_665 .
Cu4 Cu3 Br3 90.0 . .
O1 Cu3 Br3 90.0 . 1_565
O1 Cu3 Br3 90.0 5_665 1_565
O5 Cu3 Br3 90.0 5_665 1_565
O5 Cu3 Br3 90.0 . 1_565
Cu4 Cu3 Br3 90.0 5_665 1_565
Cu4 Cu3 Br3 90.0 . 1_565
Br3 Cu3 Br3 180.0 . 1_565
O1 Cu4 O5 80.4(3) . .
O1 Cu4 O3 78.08(18) . 2_656
O5 Cu4 O3 115.53(18) . 2_656
O1 Cu4 O3 78.08(18) . 5_666
O5 Cu4 O3 115.53(18) . 5_666
O3 Cu4 O3 118.0(3) 2_656 5_666
O1 Cu4 Br4 178.7(2) . .
O5 Cu4 Br4 100.9(2) . .
O3 Cu4 Br4 101.28(15) 2_656 .
O3 Cu4 Br4 101.28(15) 5_666 .
O1 Cu4 Cu3 38.5(2) . .
O5 Cu4 Cu3 41.9(2) . .
O3 Cu4 Cu3 97.62(16) 2_656 .
O3 Cu4 Cu3 97.62(16) 5_666 .
Br4 Cu4 Cu3 142.79(7) . .
O1 Cu4 Cu2 36.72(10) . .
O5 Cu4 Cu2 98.49(18) . .
O3 Cu4 Cu2 41.37(15) 2_656 .
O3 Cu4 Cu2 98.62(16) 5_666 .
Br4 Cu4 Cu2 142.63(5) . .
Cu3 Cu4 Cu2 63.31(4) . .
O1 Cu4 Cu2 36.72(10) . 6_565
O5 Cu4 Cu2 98.49(18) . 6_565
O3 Cu4 Cu2 98.62(16) 2_656 6_565
O3 Cu4 Cu2 41.37(15) 5_666 6_565
Br4 Cu4 Cu2 142.63(5) . 6_565
Cu3 Cu4 Cu2 63.31(4) . 6_565
Cu2 Cu4 Cu2 63.38(6) . 6_565
Br2 Cu5 Br2 180.0 5_666 .
Cu2 O1 Cu2 115.1(3) . 6_565
Cu2 O1 Cu3 112.7(2) . .
Cu2 O1 Cu3 112.7(2) 6_565 .
Cu2 O1 Cu4 106.2(3) . .
Cu2 O1 Cu4 106.2(3) 6_565 .
Cu3 O1 Cu4 102.7(3) . .
Cu1 O2 Cu2 114.0(3) . 6_575
Cu1 O2 Cu2 114.0(3) . .
Cu2 O2 Cu2 104.0(3) 6_575 .
Cu1 O2 Pb1 115.3(3) . .
Cu2 O2 Pb1 104.1(3) 6_575 .
Cu2 O2 Pb1 104.1(3) . .
Se2 O3 Cu2 127.8(3) . 2_656
Se2 O3 Cu4 136.8(3) . 5_666
Cu2 O3 Cu4 95.0(2) 2_656 5_666
Se1 O4 Cu2 127.2(3) . 5_665
Se1 O4 Pb1 132.0(3) . 5_665
Cu2 O4 Pb1 100.3(2) 5_665 5_665
Se1 O5 Cu3 124.2(4) . .
Se1 O5 Cu4 141.5(4) . .
Cu3 O5 Cu4 94.3(3) . .
Se2 O6 Cu1 128.6(4) . .
Se2 O6 Cu1 124.7(4) . 5_676
Cu1 O6 Cu1 106.7(3) . 5_676
loop_
_geom_bond_atom_site_label_1
_geom_bond_atom_site_label_2
_geom_bond_distance
_geom_bond_site_symmetry_2
Pb1 O2 2.358(8) .
Pb1 O4 2.417(5) 5_665
Pb1 O4 2.417(5) 2_665
Pb1 Br1 3.094(2) .
Pb1 Br4 3.2101(19) 3
Pb1 Cu2 3.3874(18) 6_575
Pb1 Cu2 3.3874(18) .
Pb1 Br1 3.5015(16) 7_676
Pb1 Br1 3.5015(16) 7_666
Pb1 Cu1 3.618(2) .
Pb1 Br2 3.671(2) 7_666
Pb1 Br2 4.3371(18) .
Se1 O5 1.692(7) .
Se1 O4 1.697(5) 6_565
Se1 O4 1.697(5) .
Se1 Br1 3.452(2) 3_444
Se2 O3 1.671(5) .
Se2 O3 1.671(5) 6_575
Se2 O6 1.718(7) .
Se2 Br1 3.355(2) .
Br1 Cu1 2.447(2) .
Br1 Br2 3.7367(17) .
Br1 Br2 3.7368(17) 1_565
Br1 Br2 3.827(3) 7_666
Br1 Br1 4.261(2) 7_676
Br1 Br1 4.261(2) 7_666
Br2 Cu5 2.2099(16) .
Br2 Cu2 3.0960(19) .
Br2 Cu2 3.0960(19) 6_565
Br2 Cu1 3.1725(17) .
Br2 Cu1 3.1725(17) 1_545
Br2 Br2 4.420(3) 5_666
Br3 Cu3 3.1128(17) 1_545
Br3 Cu3 3.1128(17) .
Br3 Cu2 3.1142(17) 6_565
Br3 Cu2 3.1142(17) 2_645
Br3 Cu2 3.1142(17) 1_545
Br3 Cu2 3.1142(17) 5_665
Br4 Cu4 2.342(2) .
Br4 Br4 4.394(3) 7
Br4 Br4 4.394(3) 7_565
Cu1 O2 1.915(7) .
Cu1 O6 1.975(7) .
Cu1 O6 2.008(8) 5_676
Cu2 O1 1.891(4) .
Cu2 O2 1.926(4) .
Cu2 O4 1.979(5) 5_665
Cu2 O3 2.015(5) 2_656
Cu2 Cu2 3.035(3) 6_575
Cu2 Cu4 3.0369(19) .
Cu3 O1 1.896(7) .
Cu3 O1 1.896(7) 5_665
Cu3 O5 1.987(7) 5_665
Cu3 O5 1.987(7) .
Cu3 Cu4 2.9701(18) 5_665
Cu3 Cu4 2.9702(18) .
Cu4 O1 1.907(7) .
Cu4 O5 2.063(7) .
Cu4 O3 2.102(6) 2_656
Cu4 O3 2.102(6) 5_666

_cod_database_fobs_code 2108345
