#------------------------------------------------------------------------------
#$Date: 2022-01-01 06:19:30 +0200 (Sat, 01 Jan 2022) $
#$Revision: 271667 $
#$URL: file:///home/coder/svn-repositories/cod/cif/2/10/89/2108917.cif $
#------------------------------------------------------------------------------
#
# This file is available in the Crystallography Open Database (COD),
# http://www.crystallography.net/. The original data for this entry
# were provided by IUCr Journals, http://journals.iucr.org/.
#
# The file may be used within the scientific community so long as
# proper attribution is given to the journal article from which the
# data were obtained.
#
data_2108917
loop_
_publ_author_name
'Rejnhardt, Piotr'
'Drozd, Marek'
'Daszkiewicz, Marek'
_publ_section_title
;
 Low-temperature phase transition and high-pressure phase stability of
 1<i>H</i>-pyrazole-1-carboxamidine nitrate
;
_journal_issue                   6
_journal_name_full               'Acta Crystallographica Section B'
_journal_page_first              996
_journal_page_last               1002
_journal_paper_doi               10.1107/S2052520621010970
_journal_volume                  77
_journal_year                    2021
_chemical_formula_moiety         'C4 H7 N4, N O3'
_chemical_formula_sum            'C4 H7 N5 O3'
_chemical_formula_weight         173.15
_space_group_crystal_system      monoclinic
_space_group_IT_number           14
_space_group_name_Hall           '-P 2ybc'
_space_group_name_H-M_alt        'P 1 21/c 1'
_atom_sites_solution_hydrogens   geom
_atom_sites_solution_primary     dual
_audit_creation_date             2021-05-04
_audit_creation_method
;
Olex2 1.2
(compiled 2018.05.29 svn.r3508 for OlexSys, GUI svn.r5506)
;
_cell_angle_alpha                90
_cell_angle_beta                 98.65(6)
_cell_angle_gamma                90
_cell_formula_units_Z            4
_cell_length_a                   5.099(4)
_cell_length_b                   10.193(19)
_cell_length_c                   13.666(7)
_cell_measurement_reflns_used    239
_cell_measurement_temperature    293(2)
_cell_measurement_theta_max      23.3850
_cell_measurement_theta_min      2.9810
_cell_volume                     702.2(15)
_computing_cell_refinement       'CrysAlisPro 1.171.39.46 (Rigaku OD, 2018)'
_computing_data_collection       'CrysAlisPro 1.171.39.46 (Rigaku OD, 2018)'
_computing_data_reduction        'CrysAlisPro 1.171.39.46 (Rigaku OD, 2018)'
_computing_molecular_graphics    'Olex2 (Dolomanov et al., 2009)'
_computing_publication_material  'Olex2 (Dolomanov et al., 2009)'
_computing_structure_refinement  'ShelXL (Sheldrick, 2015)'
_computing_structure_solution    'ShelXT (Sheldrick, 2015)'
_diffrn_ambient_temperature      293(2)
_diffrn_detector                 'CCD plate'
_diffrn_detector_area_resol_mean 8.2214
_diffrn_detector_type            'Sapphire2, large Be window'
_diffrn_measured_fraction_theta_full 0.411
_diffrn_measured_fraction_theta_max 0.411
_diffrn_measurement_details
;
List of Runs (angles in degrees, time in seconds):

  # Type    Start    End  Width  t~exp~   \w     \q     \k     \f   Frames
--------------------------------------------------------------------------
  1  \w    -20.00  32.00   0.50   40.00    --   25.00   0.00   0.00  104
  2  \w    -20.00  36.00   0.50   40.00    --   25.00   0.00 180.00  112
  3  \w     -3.00  47.00   0.50   40.00    --   25.00 -40.00-170.00  100
  4  \w     -3.00  47.00   0.50   40.00    --   25.00 -40.00  10.00  100
  5  \w      8.00  65.00   0.50   40.00    --   25.00 -82.00  30.00  114
  6  \w      8.00  65.00   0.50   40.00    --   25.00 -82.00-150.00  114
  7  \w     32.50  89.00   0.50   40.00    --   25.00-135.00-122.00  113
  8  \w     32.00  89.00   0.50   40.00    --   25.00-135.00  58.00  114
  9  \w     25.00  47.00   0.50   40.00    --  -25.00-135.00  58.00   44
 10  \w     25.00  47.00   0.50   40.00    --  -25.00-135.00-122.00   44
 11  \w      0.00  23.00   0.50   40.00    --  -25.00 -82.00-150.00   46
 12  \w      0.00  23.00   0.50   40.00    --  -25.00 -82.00  30.00   46
 13  \w    -19.00  17.00   0.50   40.00    --  -25.00 -40.00  10.00   72
 14  \w    -19.00  17.00   0.50   40.00    --  -25.00 -40.00-170.00   72
 15  \w    -33.00  22.00   0.50   40.00    --  -25.00   0.00 180.00  110
 16  \w    -33.00  22.00   0.50   40.00    --  -25.00   0.00   0.00  110
;
_diffrn_measurement_device       'four-circle diffractometer'
_diffrn_measurement_device_type  'Xcalibur, Sapphire2, large Be window'
_diffrn_measurement_method       '\w scans'
_diffrn_orient_matrix_type
'CrysAlisPro convention (1999,Acta A55,543-557)'
_diffrn_orient_matrix_UB_11      0.0636265672
_diffrn_orient_matrix_UB_12      -0.0606603859
_diffrn_orient_matrix_UB_13      -0.0056843049
_diffrn_orient_matrix_UB_21      0.0008244570
_diffrn_orient_matrix_UB_22      -0.0138551314
_diffrn_orient_matrix_UB_23      0.0509353267
_diffrn_orient_matrix_UB_31      -0.1255063002
_diffrn_orient_matrix_UB_32      -0.0311724692
_diffrn_orient_matrix_UB_33      -0.0112904091
_diffrn_radiation_monochromator  graphite
_diffrn_radiation_probe          x-ray
_diffrn_radiation_type           MoK\a
_diffrn_radiation_wavelength     0.71073
_diffrn_reflns_av_R_equivalents  0.0839
_diffrn_reflns_av_unetI/netI     0.0459
_diffrn_reflns_Laue_measured_fraction_full 0.411
_diffrn_reflns_Laue_measured_fraction_max 0.411
_diffrn_reflns_limit_h_max       5
_diffrn_reflns_limit_h_min       -5
_diffrn_reflns_limit_k_max       6
_diffrn_reflns_limit_k_min       -6
_diffrn_reflns_limit_l_max       16
_diffrn_reflns_limit_l_min       -16
_diffrn_reflns_number            3755
_diffrn_reflns_point_group_measured_fraction_full 0.411
_diffrn_reflns_point_group_measured_fraction_max 0.411
_diffrn_reflns_theta_full        24.979
_diffrn_reflns_theta_max         24.979
_diffrn_reflns_theta_min         3.015
_diffrn_source                   'fine-focus sealed X-ray tube'
_diffrn_source_type              'Enhance (Mo) X-ray Source'
_exptl_absorpt_coefficient_mu    0.140
_exptl_absorpt_correction_T_max  1.00000
_exptl_absorpt_correction_T_min  0.25882
_exptl_absorpt_correction_type   multi-scan
_exptl_absorpt_process_details
;
CrysAlisPro 1.171.39.46 (Rigaku Oxford Diffraction, 2018)
Empirical absorption correction using spherical harmonics,
 implemented in SCALE3 ABSPACK scaling algorithm.
;
_exptl_crystal_colour            colourless
_exptl_crystal_density_diffrn    1.638
_exptl_crystal_description       prism
_exptl_crystal_F_000             360
_refine_diff_density_max         0.163
_refine_diff_density_min         -0.165
_refine_diff_density_rms         0.044
_refine_ls_extinction_method     none
_refine_ls_goodness_of_fit_ref   1.045
_refine_ls_hydrogen_treatment    constr
_refine_ls_matrix_type           full
_refine_ls_number_parameters     109
_refine_ls_number_reflns         508
_refine_ls_number_restraints     0
_refine_ls_restrained_S_all      1.045
_refine_ls_R_factor_all          0.1512
_refine_ls_R_factor_gt           0.0661
_refine_ls_shift/su_max          0.000
_refine_ls_shift/su_mean         0.000
_refine_ls_structure_factor_coef Fsqd
_refine_ls_weighting_details
'w=1/[\s^2^(Fo^2^)+(0.1044P)^2^+1.3001P] where P=(Fo^2^+2Fc^2^)/3'
_refine_ls_weighting_scheme      calc
_refine_ls_wR_factor_gt          0.1645
_refine_ls_wR_factor_ref         0.2292
_reflns_Friedel_coverage         0.000
_reflns_number_gt                254
_reflns_number_total             508
_reflns_threshold_expression     'I > 2\s(I)'
_cod_data_source_file            xk5086sup1.cif
_cod_data_source_block           0.58GPa
_cod_database_code               2108917
_shelx_shelxl_version_number     2018/3
_chemical_oxdiff_formula         C4N4NO3H7
_shelx_space_group_comment
;
The symmetry employed for this shelxl refinement is uniquely defined
by the following loop, which should always be used as a source of
symmetry information in preference to the above space-group names.
They are only intended as comments.
;
_reflns_odcompleteness_completeness 41.27
_reflns_odcompleteness_iscentric 1
_reflns_odcompleteness_theta     24.92
_olex2_refinement_description
;
1. Fixed Uiso
 At 1.2 times of:
  All C(H) groups, All N(H,H) groups
2.a Aromatic/amide H refined with riding coordinates:
 C1(H1), C2(H2), C3(H3)
2.b X=CH2 refined with riding coordinates:
 N3(H3A,H3B), N4(H4A,H4B)
;
_shelx_res_file
;
TITL monoclinic_a.res in P2(1)/c
    monoclinic.res
    created by SHELXL-2018/3 at 16:44:15 on 04-May-2021
REM Old TITL monoclinic in P2(1)/c
REM SHELXT solution in P2(1)/c: R1 0.296, Rweak 0.041, Alpha 0.062
REM <I/s> 0.540 for 28 systematic absences, Orientation as input
REM Formula found by SHELXT: C6 N2 O4
CELL 0.71073 5.0987 10.1928 13.666 90 98.646 90
ZERR 4 0.0037 0.0194 0.0068 0 0.059 0
LATT 1
SYMM -X,0.5+Y,0.5-Z
SFAC C H N O
UNIT 16 28 20 12

L.S. 99
PLAN  20
BOND
list 4
htab
fmap 2 53
acta
OMIT -1 2 16
OMIT 3 3 6
OMIT 3 4 5
OMIT 0 0 4
OMIT 3 0 8
OMIT -1 1 3
OMIT 1 0 0
OMIT 2 0 2
OMIT 2 4 4
REM <olex2.extras>
REM <HklSrc "%.\\monoclinic.hkl">
REM </olex2.extras>

WGHT    0.104400    1.300100
FVAR       0.51357
C1    1    0.104662    0.783954    0.540116    11.00000    0.03249    0.17131 =
         0.08330   -0.03761   -0.01629    0.01715
AFIX  43
H1    2   -0.052389    0.820560    0.508287    11.00000   -1.20000
AFIX   0
C2    1    0.321836    0.864670    0.585382    11.00000    0.06726    0.05362 =
         0.08318    0.00425   -0.01059    0.00114
AFIX  43
H2    2    0.340664    0.955430    0.585716    11.00000   -1.20000
AFIX   0
C3    1    0.488624    0.771966    0.626778    11.00000    0.05933    0.02387 =
         0.08699   -0.00436   -0.00327   -0.01601
AFIX  43
H3    2    0.653307    0.788618    0.664068    11.00000   -1.20000
AFIX   0
C4    1    0.471846    0.520872    0.628068    11.00000    0.04487    0.04826 =
         0.07326   -0.00070    0.00288    0.00890
N1    3    0.382092    0.646576    0.606452    11.00000    0.04697    0.01231 =
         0.08033   -0.00070   -0.00651   -0.00567
N2    3    0.138214    0.659351    0.545801    11.00000    0.03793    0.09972 =
         0.09802   -0.00471   -0.01080    0.00237
N3    3    0.335440    0.422061    0.591943    11.00000    0.05907    0.07315 =
         0.09589   -0.00142   -0.03146    0.00125
AFIX  93
H3A   2    0.395577    0.343877    0.603544    11.00000   -1.20000
H3B   2    0.183661    0.433859    0.556072    11.00000   -1.20000
AFIX   0
N4    3    0.705394    0.509652    0.683510    11.00000    0.05575    0.06518 =
         0.09249   -0.00662   -0.02621   -0.00280
AFIX  93
H4A   2    0.772945    0.433262    0.696947    11.00000   -1.20000
H4B   2    0.790378    0.578715    0.706283    11.00000   -1.20000
AFIX   0
N5    3    0.246893    0.645691    0.825648    11.00000    0.03163    0.14062 =
         0.08457   -0.02205    0.00362    0.00002
O1    4    0.482728    0.674130    0.856539    11.00000    0.03601    0.07167 =
         0.11070   -0.00702   -0.01307   -0.00404
O2    4    0.159711    0.534842    0.824887    11.00000    0.06329    0.12379 =
         0.13760    0.01245   -0.02924   -0.02336
O3    4    0.084244    0.737457    0.793070    11.00000    0.04245    0.06821 =
         0.10350    0.01066   -0.01113    0.00816
HKLF 4




REM  monoclinic_a.res in P2(1)/c
REM wR2 = 0.2292, GooF = S = 1.045, Restrained GooF = 1.045 for all data
REM R1 = 0.0661 for 254 Fo > 4sig(Fo) and 0.1512 for all 508 data
REM 109 parameters refined using 0 restraints

END

WGHT      0.1015      1.3862

REM Instructions for potential hydrogen bonds
EQIV $1 -x+1, y+1/2, -z+3/2
HTAB C2 O1_$1
EQIV $2 x+1, y, z
HTAB C3 O3_$2
EQIV $3 -x+1, y-1/2, -z+3/2
HTAB N3 O1_$3
EQIV $4 -x, -y+1, -z+1
HTAB N3 N2_$4
HTAB N4 O3_$3
HTAB N4 O2_$2
HTAB N4 O3_$2

REM Highest difference peak  0.163,  deepest hole -0.165,  1-sigma level  0.044
Q1    1  -0.0362  0.8723  0.4356  11.00000  0.05    0.16
Q2    1   0.1964  0.6408  0.7014  11.00000  0.05    0.16
Q3    1   0.3805  0.6650  0.7341  11.00000  0.05    0.15
Q4    1   0.2671  0.5961  0.7168  11.00000  0.05    0.15
Q5    1   0.2262  0.7203  0.4519  11.00000  0.05    0.14
Q6    1   0.7188  0.3369  0.6073  11.00000  0.05    0.13
Q7    1   0.2963  0.6499  0.9403  11.00000  0.05    0.13
Q8    1   0.1662  0.5458  0.9571  11.00000  0.05    0.13
Q9    1  -0.0107  0.8043  0.7213  11.00000  0.05    0.13
Q10   1   0.5589  0.4383  0.7626  11.00000  0.05    0.13
Q11   1   0.2786  0.7903  0.7300  11.00000  0.05    0.13
Q12   1   0.1361  0.8158  0.6584  11.00000  0.05    0.12
Q13   1   0.1022  0.7832  0.4216  11.00000  0.05    0.12
Q14   1   0.4019  0.7448  0.8973  11.00000  0.05    0.11
Q15   1   0.2642  0.4358  0.7430  11.00000  0.05    0.11
Q16   1   0.4201  1.0003  0.6334  11.00000  0.05    0.11
Q17   1   0.4652  0.4859  0.5096  11.00000  0.05    0.10
Q18   1   0.0534  0.5366  0.9163  11.00000  0.05    0.10
Q19   1   0.2574  0.4971  0.8343  11.00000  0.05    0.10
Q20   1  -0.0084  0.7172  0.4225  11.00000  0.05    0.10
;
_shelx_res_checksum              20909
_shelx_hkl_file
;
   0   0  -2   58.29    3.39
   0   0   2   62.01    2.55
   0   0  -2   60.60    2.52
   0   0   2   58.10    2.86
   0   0   2   58.99    3.23
   0   0  -2   59.81    3.33
   0   0   3    0.02    0.63
   0   0   3    0.17    0.42
   0   0  -3    0.90    0.82
   0   0  -3    0.20    0.42
   0   0  -3   -0.09    0.63
   0   0  -3    0.05    0.64
   0   0   3    0.32    0.50
   0   0  -4 1233.30   21.32
   0   0  -4 1242.84   15.93
   0   0  -4 1189.83   11.63
   0   0   4 1207.01   18.57
   0   0   4 1238.21   19.99
   0   0   4 1251.31   21.25
   0   0  -5    0.43    1.15
   0   0   5    1.03    1.10
   0   0  -5    0.57    0.92
   0   0   5   -1.24    1.10
   0   0   5    0.91    0.86
   0   0   5   -0.52    0.83
   0   0  -5   -1.30    1.14
   0   0  -5    0.55    1.04
   0   0  -5   -0.47    0.75
   0   0   6   46.21    5.51
   0   0   6   50.35    5.00
   0   0  -6   55.91    2.24
   0   0  -6   50.79    2.83
   0   0  -6   50.51    4.79
   0   0   6   47.40    2.17
   0   0   6   51.21    6.05
   0   0  -6   52.56    4.18
   0   0  -6   48.63    5.58
   0   0  -6   47.42    5.43
   0   0  -6   49.21    6.90
   0   0   6   47.63    4.99
   0   0   7   -2.69    1.54
   0   0  -7   -2.45    2.11
   0   0  -7    1.45    1.82
   0   0   7   -1.60    1.40
   0   0  -7   -1.44    2.26
   0   0  -7   -1.14    1.56
   0   0  -7   -2.36    0.82
   0   0   7   -0.87    1.25
   0   0   7   -5.97    2.49
   0   0   7   -0.88    1.37
   0   0  -7   -0.66    1.37
   0   0  -8   42.18    7.47
   0   0   8   48.41    6.14
   0   0  -8   40.86    6.05
   0   0  -8   39.61    5.66
   0   0   8   40.46    4.35
   0   0  -8   47.29    6.63
   0   0  -8   46.66    5.04
   0   0   8   42.68    5.48
   0   0   8   35.95    6.01
   0   0   8   43.02    5.83
   0   0  -9    1.80    2.46
   0   0   9   -0.48    1.52
   0   0   9    0.50    1.55
   0   0   9   -0.83    2.28
   0   0  -9    2.32    1.63
   0   0  -9    0.47    2.01
   0   0   9   -1.04    2.08
   0   0  -9   -0.32    2.23
   0   0  -9   -1.72    2.09
   0   0   9    1.71    2.21
   0   0  10    4.98    2.75
   0   0  10   -1.91    1.92
   0   0  10    7.00    2.88
   0   0  10    5.24    3.49
   0   0 -10    7.75    3.53
   0   0 -10    2.69    2.44
   0   0  10   10.80    4.62
   0   0 -10    8.37    3.56
   0   0 -10    8.43    4.52
   0   0 -10    8.91    3.86
   0   0 -11    1.94    3.30
   0   0 -11    0.94    2.50
   0   0  11   -2.06    3.70
   0   0  11   -0.04    2.63
   0   0  11   -0.15    3.44
   0   0 -11    1.06    2.60
   0   0  11    0.66    2.11
   0   0 -11   -2.68    3.19
   0   0  12    1.31    3.78
   0   0 -12    1.28    3.91
   0   0  12   -0.30    4.87
   0   0  12    1.05    2.60
   0   0 -12    1.72    3.84
   0   0 -12    6.65    4.84
   0   0  12    3.58    3.41
   0   0 -12    2.94    3.95
   0   0 -13    0.46    3.85
   0   0  13    0.33    3.96
   0   0  13   -0.46    3.00
   0   0 -13    0.35    3.78
   0   0  13   -3.58    3.52
   0   0 -13   -0.95    3.69
   0   0 -13   -7.44    5.96
   0   0  14   13.02    5.92
   0   0 -14   -0.34    4.86
   0   0  14    4.33    5.27
   0   0 -14   -2.30    4.47
   0   0 -14    7.36    6.16
   0   0  14    2.63    3.88
   0   0  15    0.71    5.11
   0   0 -15    1.70    5.64
   0   0  15    2.42    5.51
   0   0  15    1.60    4.05
   0   0 -15  -13.08    8.20
   0   0  16   -1.27    5.44
   0   0 -16    6.13    7.58
   0   0  16  -12.85    9.60
   0   0 -16    7.57    9.64
   0   0  16   -0.63    6.59
   0   1  -2   12.80    1.83
   0  -1   2   10.95    1.69
   0  -1   2   14.86    2.16
   0   1  -3   15.93    2.58
   0   1  -3   16.70    2.45
   0   1  -3   17.98    2.41
   0  -1   3   19.19    2.62
   0  -1   3   20.29    2.41
   0  -1   3   19.17    2.61
   0   1  -3   16.90    3.26
   0   1   4 1383.47   25.54
   0   1   4 1385.71   25.97
   0  -1  -4 1242.30   32.25
   0  -1  -4 1315.33   29.97
   0  -1  -4 1323.23   25.69
   0  -1   4 1282.65   22.31
   0  -1   4 1356.69   16.28
   0   1  -4 1370.01   22.01
   0  -1   4 1415.45   26.26
   0   1  -4 1360.51   22.71
   0  -1   4 1375.19   23.77
   0  -1   4 1341.12   21.68
   0   1  -4 1354.26   24.07
   0   1  -4 1357.05   15.82
   0  -1   5  110.53    7.26
   0   1  -5  123.04    7.80
   0  -1  -5  162.08   10.95
   0   1   5  121.00    8.15
   0   1   5  133.00    8.44
   0   1  -5  113.59    7.86
   0  -1  -5  121.08    9.74
   0  -1  -5  136.49    9.03
   0  -1   5  120.61    5.15
   0  -1   5  118.46    7.25
   0  -1   5  115.81    7.81
   0   1  -5  119.11    5.39
   0   1  -5  105.69    6.85
   0  -1   6    3.87    2.42
   0   1  -6    5.35    2.71
   0  -1   6    8.81    1.80
   0   1   6    3.44    1.69
   0  -1  -6    1.45    0.76
   0  -1  -6    6.04    2.76
   0   1  -6    5.14    2.33
   0  -1  -6    9.35    2.96
   0  -1   6    8.72    2.69
   0   1  -6    7.34    2.16
   0  -1   6    8.00    2.36
   0  -1  -6   10.72    3.44
   0  -1   6    6.88    2.07
   0   1   6    4.06    1.94
   0   1  -6   10.38    1.97
   0   1  -6    7.06    2.22
   0  -1  -7   12.54    4.43
   0  -1   7   11.93    1.84
   0  -1   7   13.31    2.39
   0   1  -7   13.37    3.37
   0  -1   7   13.81    3.82
   0   1  -7    9.54    3.87
   0  -1  -7   14.20    3.76
   0   1   7   15.37    3.67
   0  -1   7   10.52    3.88
   0  -1  -7   18.59    4.62
   0  -1   7   13.66    3.15
   0   1  -7   12.09    3.40
   0  -1  -7   17.55    2.25
   0   1  -7   14.00    2.52
   0   1  -7   13.87    3.14
   0  -1   7   12.80    3.11
   0   1   7   12.31    2.91
   0  -1  -8    1.25    0.99
   0   1  -8    0.90    1.94
   0   1   8    1.85    2.33
   0  -1   8    0.19    0.95
   0  -1  -8   -0.25    2.20
   0   1  -8    1.19    2.20
   0   1  -8    2.20    2.14
   0  -1   8   -1.04    1.77
   0   1  -8    2.39    1.63
   0  -1  -8    1.81    2.84
   0  -1   8    1.49    2.46
   0  -1  -8   -0.73    1.66
   0   1   8   -0.91    1.86
   0   1  -8    0.84    2.81
   0  -1   8    0.71    1.74
   0  -1   8    5.41    2.33
   0  -1   8   -3.88    1.90
   0  -1  -9   34.28    7.40
   0  -1   9   31.41    5.74
   0   1  -9   24.03    5.12
   0  -1  -9   29.23    7.32
   0   1  -9   21.56    5.19
   0   1   9   20.29    4.12
   0  -1   9   22.96    6.03
   0   1  -9   23.28    6.35
   0   1   9   21.61    5.12
   0  -1  -9   26.29    6.11
   0  -1  -9   24.14    2.56
   0  -1   9   23.37    3.85
   0  -1   9   26.27    5.08
   0  -1   9   25.21    4.74
   0   1  -9   22.39    5.03
   0   1  -9   21.45    3.69
   0   1   9   23.03    5.49
   0  -1  10   11.69    3.78
   0  -1  10    7.04    3.17
   0   1  10   18.24    5.18
   0   1 -10   14.26    4.48
   0  -1 -10    9.81    3.49
   0  -1 -10   17.68    6.21
   0  -1 -10   14.36    4.88
   0   1 -10   18.51    3.39
   0   1  10   16.28    4.32
   0   1 -10   12.74    5.99
   0   1 -10   14.28    4.47
   0  -1  10   14.18    3.96
   0   1 -10   13.61    4.70
   0  -1 -10   12.22    5.18
   0  -1  10   12.25    4.80
   0   1  10    9.02    4.29
   0  -1  11    0.24    2.47
   0   1  11    0.54    2.42
   0  -1 -11   -2.10    4.45
   0   1 -11    1.43    2.17
   0   1  11   -0.46    2.89
   0   1  11    5.03    3.46
   0  -1  11   -0.28    2.60
   0   1  11   -2.45    3.87
   0   1 -11   -1.60    2.96
   0  -1 -11   12.10    5.66
   0   1 -11   -8.23    4.54
   0  -1  11   -2.06    3.88
   0  -1 -11   14.03    6.65
   0   1 -11   -0.22    3.01
   0  -1  11   -1.25    2.87
   0   1 -11   -0.26    2.66
   0  -1 -11   -5.05    4.01
   0  -1  12    1.68    3.44
   0  -1 -12   -7.00    6.37
   0   1 -12   -1.35    3.11
   0   1  12    0.60    3.64
   0   1 -12   -4.72    3.60
   0  -1  12    5.53    3.59
   0   1  12   -3.52    3.91
   0   1  12   -0.17    3.97
   0  -1 -12    5.21    5.07
   0  -1  12   -7.00    4.31
   0   1 -12   -1.51    3.95
   0  -1 -12    2.96    4.45
   0   1 -12    3.31    4.21
   0  -1  12   -0.28    3.18
   0   1  12   -1.32    3.74
   0  -1  13    3.17    3.10
   0   1  13    1.55    3.49
   0  -1  13    0.72    3.70
   0   1 -13    5.73    4.20
   0  -1  13    1.42    4.78
   0   1 -13    3.20    4.72
   0   1 -13    0.52    3.51
   0  -1  13   10.62    5.52
   0  -1 -13   14.69    9.01
   0   1 -13    2.84    3.45
   0   1  13    5.14    6.87
   0  -1  14    3.38    3.65
   0  -1  14    1.87    3.43
   0  -1  14    0.80    3.51
   0   1 -14   -4.53    5.53
   0   1 -14    1.42    3.93
   0   1 -14    7.91    5.60
   0   1 -14   -3.15    4.25
   0   1 -15    0.92    4.88
   0  -1  15   -0.95    5.15
   0  -1  15   -0.16    3.15
   0   1 -15   -1.97    5.92
   0   1 -15   -2.08    4.76
   0  -1  15   -1.21    4.22
   0  -1  16    5.96    5.84
   0   1 -16    1.37    6.99
   0  -1  16    1.25    6.27
   0   1 -16   -7.76    4.53
   0   1 -16    5.29    6.55
   0  -1  16   -2.83    5.19
   0  -2   4   49.84    7.31
   0   2  -4   39.49    5.62
   0  -2   4   43.14    5.95
   0   2  -4   50.55    7.42
   0  -2   4   44.65    6.52
   0   2  -5  193.61   10.79
   0  -2   5  187.02   10.94
   0  -2   5  209.77   12.51
   0  -2   5  198.36   12.63
   0  -2   5  202.64   11.61
   0   2  -5  194.99   13.88
   0   2  -5  179.24   11.12
   0   2  -5  170.82    9.85
   0   2  -6   11.58    3.26
   0  -2   6   16.24    4.04
   0   2  -6    7.68    3.81
   0  -2   6   16.14    2.94
   0  -2   6   11.47    3.90
   0  -2   6   12.62    4.67
   0   2  -6    8.18    3.57
   0  -2   6   15.17    3.62
   0   2  -6    9.74    3.09
   0   2  -6   12.68    2.46
   0  -2   7   73.91    5.56
   0  -2   7   62.77    8.42
   0   2  -7   71.99    5.06
   0   2  -7   67.07    7.27
   0   2  -7   69.89    9.34
   0  -2   7   68.98    7.45
   0  -2   7   72.67    7.39
   0  -2   7   74.96    7.37
   0   2  -7   71.48    7.75
   0   2  -7   59.88    6.89
   0  -2   8    6.33    2.96
   0   2  -8    7.71    3.05
   0   2  -8    4.29    2.54
   0  -2   8    1.71    1.24
   0   2  -8    4.47    1.61
   0   2  -8    6.81    3.01
   0  -2   8    7.27    2.79
   0   2  -8    8.64    3.93
   0  -2   8    6.58    2.83
   0  -2   8    4.18    2.60
   0   2  -9   17.15    3.23
   0  -2   9   10.76    3.74
   0   2  -9    7.72    4.82
   0   2  -9   16.06    4.32
   0  -2   9   13.43    2.56
   0   2  -9   14.49    4.54
   0  -2   9    8.62    4.66
   0   2  -9   12.78    4.24
   0  -2   9   12.81    3.81
   0  -2   9    9.17    3.43
   0  -2  10    6.50    3.32
   0  -2  10    6.00    3.93
   0   2 -10   10.51    4.19
   0   2 -10    8.21    2.71
   0   2 -10    3.78    3.60
   0   2 -10    2.08    2.30
   0  -2  10    9.52    4.34
   0  -2  10    0.71    2.32
   0   2 -10    6.30    4.63
   0  -2  11    1.59    4.51
   0   2 -11    4.15    4.09
   0  -2  11    0.38    2.90
   0   2 -11    0.25    2.46
   0   2 -11   -0.66    2.71
   0   2 -11    3.81    3.75
   0   2 -12   14.57    6.75
   0  -2  12    3.91    5.26
   0  -2  12    8.56    4.17
   0  -2  12   21.22    5.46
   0   2 -12    4.43    5.45
   0  -2  12    6.24    6.38
   0   2 -12    3.77    4.94
   0   2 -12    5.62    5.42
   0  -2  13   -3.38    5.01
   0   2 -13    3.20    4.56
   0  -2  13    5.75    3.74
   0   2 -13    0.79    3.39
   0   2 -13    1.77    4.16
   0  -2  13    0.91    5.45
   0   2 -13   -2.47    4.03
   0  -2  13   -3.22    3.47
   0   2 -14    2.49    6.29
   0  -2  14   -1.06    4.56
   0   2 -14    1.48    4.20
   0   2 -14    3.18    4.33
   0  -2  14   -1.98    3.45
   0  -2  14   -2.16    4.94
   0   2 -14   -1.14    3.46
   0  -2  15    4.01    4.00
   0   2 -15    2.90    5.79
   0  -2  15   -1.30    5.46
   0   2 -15    7.14    5.72
   0  -2  15   -4.41    5.89
   0   2 -15   -1.65    4.06
   0  -3   7   34.22    9.07
   0  -3   8   28.03    6.90
   0  -3   8   28.20    6.85
   0  -3   8   23.92    7.68
   0   3  -8   30.81    6.86
   0   3  -8   30.20    6.26
   0  -3   8   20.44    5.28
   0   3  -8   31.48    8.75
   0   3  -9   -1.35    3.39
   0   3  -9   -0.17    2.76
   0   3  -9    0.70    1.52
   0  -3   9    8.64    4.13
   0   3  -9    3.06    2.63
   0  -3   9   -1.39    3.44
   0  -3   9    1.57    2.25
   0  -3   9    1.28    3.49
   0   3 -10    3.86    3.77
   0  -3  10   -1.93    3.17
   0  -3  10   -1.28    4.26
   0  -3  10    1.59    3.44
   0   3 -10    5.54    4.38
   0   3 -10   -1.82    3.61
   0   3 -10   -0.19    2.24
   0   3 -11   -0.80    3.59
   0  -3  11   -7.06    6.79
   0   3 -11   -8.40    5.99
   0   3 -11   -0.14    3.81
   0  -3  11   -4.73    3.96
   0  -3  11   -3.79    3.95
   0  -3  12    5.96    5.29
   0   3 -12   -0.61    4.37
   0  -3  12   -0.29    5.26
   0   3 -12   -0.91    4.03
   0  -3  12    5.55    5.28
   0   3 -12    6.43    5.64
   0   3 -13    2.71    5.01
   0  -3  13   -4.25    5.56
   0   3 -13    0.61    3.88
   0  -3  13    2.11    4.44
   0   3 -13    5.56    5.82
   0  -3  13   -1.88    5.18
   0  -3  14    3.34    6.55
   0   3 -14   -9.52    7.06
   0   3 -14    1.92    4.87
   0  -3  14  -11.47    7.16
   0   3 -14    0.58    4.44
   0   3 -15  -13.51   11.28
   0  -3  15    0.78    6.78
   0   3 -15    1.79    4.87
   0  -3  15   -4.64    5.85
  -1   0  13    1.39    5.84
  -1   0  13   -3.01    4.43
   1   0 -13    2.12    5.61
   1   0 -13    3.84    8.19
  -1   0  13   -0.81    5.91
   1   0 -13   -5.31    7.70
   1   0 -12    1.32    4.24
  -1   0  12    4.19    4.62
   1   0 -12    4.08    8.52
  -1   0  12   -2.17    4.73
  -1   0  12    2.27    5.05
   1   0 -12    2.43    5.67
   1   0 -11    0.79    4.84
  -1   0  11    3.00    3.47
  -1   0  11    2.39    3.11
   1   0 -11    0.10    4.24
   1   0 -11   -2.50    5.45
  -1   0  11    3.38    5.03
   1   0 -10   11.60    5.33
  -1   0  10    9.55    4.13
  -1   0  10   14.18    3.94
  -1   0  10    7.05    4.49
   1   0 -10   16.17    7.06
   1   0 -10   15.39    4.99
  -1   0   9   -1.84    2.67
   1   0  -9   -3.24    3.60
  -1   0   9   -0.63    2.04
   1   0  -9   -0.71    3.15
   1   0  -9   -2.47    2.92
  -1   0   8  441.73   22.19
  -1   0   8  424.36   22.89
   1   0  -8  476.53   26.17
  -1   0   8  417.74   18.69
  -1   0   7   -0.46    1.70
  -1   0   7   -0.31    1.29
   1   0  -7   -2.17    2.22
  -1   0   7    0.47    2.16
   1   0  -7   -0.55    1.84
  -1   0   6   14.80    3.87
  -1   0   6   20.45    4.26
  -1   0   6   13.83    3.20
   1   0  -6   11.52    4.10
   1   0  -6   15.14    4.78
  -1   0   5    0.30    1.41
  -1   0   5    0.25    1.29
   1   0  -5   -0.99    2.04
  -1   0   5   -0.39    1.12
   1   0  -5    1.52    1.78
  -1   0   4 9999.00   79.56
  -1   0   4 9797.00   73.72
   1   0  -4 9791.45   82.25
  -1   0   3   -0.12    0.86
  -1   0   3   -0.69    1.49
   1   0  -3   -0.77    1.08
  -1   0   0  367.33   10.00
  -1   0   0  350.09    9.58
  -1   0  -1    1.99    0.86
  -1   0  -1    0.24    0.48
  -1   0  -1    0.62    0.63
   1   0   1   -0.52    0.81
   1   0   1    1.11    0.58
   1   0   2    9.23    1.80
  -1   0  -2    8.41    1.53
  -1   0  -2    9.67    1.59
   1   0   2    8.93    1.65
   1   0   2   10.51    1.64
  -1   0  -2    8.78    1.93
  -1   0  -2    9.12    1.69
  -1   0  -2    8.17    1.34
   1   0   3    0.34    0.77
  -1   0  -3    0.04    0.64
  -1   0  -3    0.31    0.66
   1   0   3    1.24    1.19
  -1   0  -3    0.88    0.81
   1   0   3    0.08    0.55
   1   0   3   -0.27    0.81
  -1   0  -3   -1.84    1.01
  -1   0  -3   -0.12    0.88
   1   0   3    0.25    0.58
  -1   0  -3   -0.55    0.85
  -1   0  -4  154.85    7.93
  -1   0  -4  160.63    6.78
   1   0   4  153.62    5.35
   1   0   4  161.53    8.85
  -1   0  -4  155.83    6.59
   1   0   4  146.76    3.87
  -1   0  -4  155.32    9.56
   1   0   4  163.90    6.90
  -1   0  -4  156.28    7.88
   1   0   4  160.51    7.90
   1   0   4  163.35    8.26
   1   0   4  143.44    8.42
  -1   0  -4  165.44    9.27
   1   0   5    0.81    1.12
   1   0   5    0.14    1.14
  -1   0  -5    0.20    1.28
  -1   0  -5   -0.72    1.01
  -1   0  -5   -2.03    1.19
  -1   0  -5    0.84    1.15
   1   0   5    0.50    1.00
   1   0   5   -0.46    1.61
  -1   0  -5   -2.16    1.44
   1   0   5   -1.91    1.42
   1   0   5   -3.94    1.43
  -1   0  -5   -0.13    1.21
  -1   0  -6  203.13   10.25
   1   0   6  178.53   10.52
  -1   0  -6  201.23    9.70
  -1   0  -6  209.67    8.34
   1   0   6  188.44   10.26
   1   0   6  203.89   11.86
  -1   0  -6  191.28   11.02
  -1   0  -6  211.86   12.29
   1   0   6  183.66    7.75
  -1   0  -6  208.54   13.47
  -1   0  -7   -1.68    2.24
  -1   0  -7    0.10    1.01
  -1   0  -7    0.84    2.43
   1   0   7   -1.70    1.42
  -1   0  -7   -0.07    1.41
   1   0   7   -1.93    2.18
   1   0   7   -1.02    1.61
  -1   0  -7    0.18    1.62
   1   0   7   -0.11    1.39
   1   0   7    1.09    1.80
   1   0   7    0.41    1.09
  -1   0  -7   -6.43    2.08
   1   0   8   41.42    4.92
   1   0   8   45.05    6.53
   1   0   8   50.12    6.10
  -1   0  -8   48.51    7.11
  -1   0  -8   50.06    5.66
  -1   0  -8   43.52    6.54
  -1   0  -8   49.24    5.79
   1   0   8   31.60    6.69
   1   0   8   52.22    6.77
  -1   0  -8   38.36    7.45
   1   0   8   55.02    4.53
  -1   0  -8   49.45    4.37
  -1   0  -9    3.64    2.82
  -1   0  -9   -2.95    2.46
   1   0   9   -2.67    2.38
  -1   0  -9   -2.07    3.31
  -1   0  -9   -2.00    2.35
   1   0   9   -1.80    2.21
  -1   0  -9    1.84    2.68
   1   0   9   -4.24    2.36
   1   0   9   -0.67    2.29
   1   0   9    1.46    2.03
  -1   0 -10   37.83    7.32
  -1   0 -10   39.37    5.98
  -1   0 -10   32.86    6.87
   1   0  10   33.24    5.87
   1   0  10   31.93    6.18
  -1   0 -10   37.66    6.14
   1   0  10   27.11    7.42
  -1   0 -10   31.64    7.75
   1   0  10   30.57    5.96
  -1   0 -11   -1.86    3.94
  -1   0 -11   -5.47    4.05
  -1   0 -11   -3.11    3.08
  -1   0 -11   -5.08    3.83
   1   0  11   -1.10    2.82
   1   0  11   -0.98    2.43
   1   0  11   -3.47    4.68
   1   0  11   -1.18    2.61
  -1   0 -12    1.35    3.06
  -1   0 -12   -0.41    2.74
   1   0  12   -0.20    4.52
   1   0  12   -1.58    3.97
  -1   0 -12    2.06    4.61
  -1   0 -12   -0.79    3.02
   1   0  12    1.95    3.34
   1   0  12   -3.14    3.30
  -1   0 -13    4.48    3.93
  -1   0 -13   -0.86    3.52
   1   0  13   -0.26    4.90
   1   0  13    0.84    3.27
   1   0  13   -6.80    4.32
  -1   0 -13    1.38    3.65
  -1   0 -13   -3.98    3.02
  -1   0 -14   -1.77    4.47
  -1   0 -14   12.73    7.57
   1   0  14   -1.50    3.22
   1   0  14    1.49    3.49
  -1   0 -14    1.09    3.32
   1   0  14    7.93    6.24
  -1   0 -15    0.16    4.86
  -1   0 -15   -5.52    5.95
  -1   0 -15   -0.04    3.68
   1   0  15    1.41    4.44
   1   0  15    3.52    6.12
   1   0  15   -0.83    4.08
   1   1 -16    3.52    7.43
  -1  -1  16    8.45    6.29
   1   1 -16  -18.38   13.03
  -1  -1  16   11.64   10.08
  -1  -1  15   -2.70    5.94
   1   1 -15   -0.46    7.16
   1   1 -15    1.90    6.01
  -1  -1  15   -0.97    4.66
   1   1 -15    0.07    5.68
   1   1 -14    0.36    4.90
   1   1 -14    4.41    6.90
  -1  -1  14   -0.31    4.83
  -1  -1  14    3.90    4.10
  -1  -1  13    4.61    4.84
  -1  -1  13   -2.46    3.57
   1   1 -13    0.15    3.97
   1   1 -13    0.81    5.19
   1   1 -13    0.61    3.88
  -1  -1  13    0.83    3.78
   1   1 -12   -4.36    4.43
   1   1 -12    1.21    4.34
  -1  -1  12    1.74    3.93
   1   1 -12    1.20    3.95
   1   1 -12    0.86    3.38
  -1  -1  12   -2.10    3.38
  -1  -1  12   -0.01    2.35
  -1  -1  12    3.44    4.13
   1   1 -11   -0.30    3.06
  -1  -1  11   -1.99    3.59
  -1  -1  11    0.27    2.70
   1   1 -11    2.10    4.35
   1   1 -11   -3.08    2.72
  -1  -1  11    5.75    3.55
   1   1 -11    0.51    3.66
   1   1 -11   -0.34    3.32
  -1  -1  11    4.23    3.46
  -1  -1  10    4.00    2.75
  -1  -1  10    0.04    2.03
   1   1 -10    1.16    2.12
   1   1 -10    1.72    2.65
   1   1 -10    2.66    1.74
  -1  -1  10    0.87    2.60
   1   1 -10    4.60    3.14
  -1  -1  10   -2.08    2.58
   1   1 -10    4.15    3.93
   1   1  -9    3.88    2.76
  -1  -1   9    4.53    1.68
   1   1  -9    1.34    1.41
  -1  -1   9    4.20    3.29
   1   1  -9    4.78    3.71
  -1  -1   9    3.53    2.70
   1   1  -9    2.94    2.32
   1   1  -9    6.97    3.50
  -1  -1   9    3.35    2.12
  -1  -1   9    3.07    2.00
   1   1  -8  219.27   13.12
   1   1  -8  233.19   14.66
  -1  -1   8  200.57    7.28
  -1  -1   8  234.76   14.23
   1   1  -8  204.88    9.69
  -1  -1   8  204.11   11.43
  -1  -1   8  234.06   12.14
   1   1  -8  216.42   12.32
  -1  -1   8  210.73   14.69
  -1  -1   8  197.21   12.45
   1   1  -8  226.19   17.02
   1   1  -7   -0.57    1.55
   1   1  -7    1.17    2.28
   1   1  -7    2.51    2.15
  -1  -1   7    0.62    1.20
  -1  -1   7    1.26    1.51
   1   1  -7    2.71    1.40
   1   1  -7    1.17    1.38
  -1  -1   7    5.54    2.51
  -1  -1   7    0.72    0.67
  -1  -1   7   -1.16    1.95
  -1  -1   7    0.77    1.35
  -1  -1   6    0.06    1.11
  -1  -1   6    1.80    1.73
   1   1  -6    2.00    1.79
  -1  -1   6   -0.78    1.30
   1   1  -6    0.04    1.65
   1   1  -6    2.20    1.19
  -1  -1   6    0.47    0.52
  -1  -1   6    0.77    1.43
   1   1  -6   -0.08    0.67
   1   1  -6    0.39    1.63
  -1  -1   6    0.97    1.25
  -1  -1   6    0.32    0.55
   1   1  -5    1.61    1.62
  -1  -1   5    3.74    1.91
   1   1  -5    1.93    1.06
   1   1  -5    0.42    1.29
  -1  -1   5    2.86    1.61
  -1  -1   5    3.78    1.53
  -1  -1   5    2.11    1.37
  -1  -1   5    2.77    1.05
   1   1  -5    2.52    1.74
  -1  -1   5    4.19    0.92
   1   1  -4  146.24    8.28
  -1  -1   4  157.88    5.35
  -1  -1   4  137.40    8.02
  -1  -1   4  134.43    5.46
  -1  -1   4  135.30    7.21
   1   1  -4  141.08    5.97
   1   1  -4  143.71    5.11
  -1  -1   4  153.55    5.36
  -1  -1   4  149.91    7.51
   1   1  -4  141.93    9.07
  -1  -1   3  433.13    9.01
  -1  -1   3  398.60   10.81
   1   1  -3  422.03   12.80
   1   1  -3  420.69    9.00
  -1  -1   3  416.63   11.87
  -1  -1   3  426.25    9.14
  -1  -1   3  426.61   12.90
   1   1  -3  424.14   11.73
   1   1  -2   49.13    4.01
  -1  -1   2   47.58    3.99
   1   1  -2   54.03    3.39
   1   1  -2   48.73    4.08
  -1  -1   2   50.22    3.94
  -1  -1   2   47.98    2.12
  -1  -1   2   47.48    3.55
  -1  -1   2   52.27    3.32
   1   1  -2   50.20    3.42
  -1  -1   2   46.01    3.07
   1   1  -2   46.17    2.12
  -1  -1   2   52.01    3.37
  -1  -1   1    4.10    0.82
  -1  -1   1    5.07    1.16
  -1  -1   1    4.12    1.25
   1   1  -1    3.99    1.19
  -1  -1   1    3.63    0.65
   1   1  -1    4.61    0.91
  -1  -1   1    4.56    1.11
   1   1  -1    3.64    0.74
   1   1  -1    3.68    0.83
   1   1  -1    3.29    0.64
  -1  -1   1    3.73    1.05
  -1  -1   1    5.31    1.00
  -1  -1   1    3.74    0.74
  -1  -1   0 1647.29   20.00
  -1  -1   0 1624.85   16.33
   1   1   0 1612.30   14.90
  -1  -1   0 1600.79   13.84
   1   1   0 1611.97   13.97
   1   1   0 1624.16   16.77
  -1  -1   0 1580.89   19.21
  -1  -1   0 1600.77   17.64
  -1  -1   0 1627.52   19.88
   1   1   1  493.22    7.31
  -1  -1  -1  483.51   11.03
  -1  -1  -1  515.48   10.53
  -1  -1  -1  524.05   10.51
  -1  -1  -1  496.19   11.13
   1   1   1  501.11   10.49
  -1  -1  -1  506.92    6.82
   1   1   1  507.83   10.12
   1   1   2   24.75    2.20
   1   1   2   25.96    2.75
  -1  -1  -2   27.59    2.32
  -1  -1  -2   26.67    2.93
   1   1   2   24.05    1.89
   1   1   2   26.43    2.33
  -1  -1  -2   24.89    2.80
  -1  -1  -2   23.24    2.75
  -1  -1  -2   27.86    2.18
  -1  -1  -2   25.19    2.68
  -1  -1  -2   27.43    2.57
  -1  -1  -3   -0.83    0.70
   1   1   3    0.66    0.86
  -1  -1  -3   -0.91    0.81
  -1  -1  -3    1.62    1.05
   1   1   3    0.51    0.52
  -1  -1  -3    0.99    0.91
  -1  -1  -3    0.59    0.63
  -1  -1  -3   -0.21    0.65
  -1  -1  -3   -0.69    0.39
   1   1   3    0.11    0.48
   1   1   3   -0.15    0.80
   1   1   3    0.69    0.70
   1   1   4  106.41    5.62
   1  -1   4   99.75    8.27
   1   1   4  106.78    7.08
  -1  -1  -4  104.43    7.32
  -1   1  -4   90.33    6.51
  -1  -1  -4  110.25    6.03
   1   1   4  108.44    6.77
  -1  -1  -4  104.33    5.70
  -1  -1  -4  107.67    7.60
  -1  -1  -4  108.06    6.80
   1  -1   4  121.63    8.83
  -1  -1  -4   85.72    3.04
  -1  -1  -4  108.70    6.41
  -1  -1  -4   94.17    3.54
  -1  -1  -4   96.08    3.35
   1   1   4   98.21    5.65
  -1   1  -4  104.30    8.01
  -1   1  -4   94.04    8.24
  -1   1  -5   13.08    2.16
  -1  -1  -5   21.16    3.32
  -1  -1  -5   17.33    3.60
  -1   1  -5   12.19    3.45
   1  -1   5   23.62    4.14
   1   1   5   21.02    3.63
  -1   1  -5   15.47    2.73
   1   1   5   18.15    2.43
  -1  -1  -5   16.28    1.85
   1  -1   5   20.26    5.20
  -1  -1  -5   18.71    2.48
  -1   1  -5   18.10    3.52
   1  -1   5   17.34    2.94
  -1  -1  -5   18.85    3.16
   1   1   5   17.92    3.15
  -1  -1  -5   21.00    4.00
  -1   1  -5   18.54    5.14
   1   1   5   17.77    2.78
  -1  -1  -5   20.70    2.74
   1  -1   5   15.54    3.38
  -1  -1  -6   15.15    2.12
   1   1   6   14.86    3.51
  -1   1  -6   18.71    4.75
  -1  -1  -6   15.90    2.57
   1  -1   6   19.39    3.98
  -1  -1  -6   18.43    3.29
   1   1   6   19.39    3.73
   1   1   6   16.68    3.18
  -1   1  -6   18.99    3.26
  -1   1  -6   18.46    2.51
  -1  -1  -6   17.23    3.77
   1  -1   6   21.39    4.00
   1  -1   6   17.99    3.00
   1   1   6   19.82    2.81
  -1   1  -6   13.77    3.73
  -1   1  -6   16.06    3.75
  -1  -1  -6   17.33    2.44
   1   1   6   19.78    3.35
  -1  -1  -6   18.57    4.17
  -1  -1  -6   16.04    3.25
   1  -1   6   15.49    4.37
   1   1   7    0.37    1.77
  -1  -1  -7   -0.44    1.18
  -1   1  -7   -2.29    1.61
   1  -1   7    0.83    1.40
   1  -1   7   -0.92    2.60
  -1  -1  -7   -0.61    1.45
  -1   1  -7    0.18    0.88
   1   1   7    0.57    1.45
  -1  -1  -7    0.76    1.86
   1  -1   7    2.00    1.99
   1   1   7   -0.18    1.49
  -1   1  -7    0.19    1.72
  -1  -1  -7   -0.21    1.78
   1   1   7   -1.62    1.52
   1  -1   7   -0.72    1.60
  -1  -1  -7   -1.23    1.34
   1   1   7    0.70    0.99
  -1  -1  -7    1.08    1.79
  -1   1  -7   -1.76    1.82
   1   1   7    0.92    1.46
  -1   1  -7   -0.66    1.88
  -1  -1  -7    1.00    1.19
  -1  -1  -8   24.67    5.81
  -1   1  -8   19.02    5.72
   1   1   8   23.48    4.35
  -1   1  -8   18.05    4.45
   1  -1   8   22.49    4.80
  -1  -1  -8   25.92    5.22
   1  -1   8   20.94    3.66
  -1   1  -8   16.48    3.50
   1   1   8   15.92    4.19
  -1  -1  -8   28.36    5.58
  -1  -1  -8   25.81    3.44
   1   1   8   20.26    4.04
   1   1   8   18.21    4.20
  -1  -1  -8   21.62    3.24
   1   1   8   22.24    3.23
  -1   1  -8   21.42    4.87
  -1   1  -8   22.00    2.85
   1  -1   8   18.16    4.13
  -1  -1  -8   26.13    4.55
   1  -1   8   18.79    5.24
   1   1   9   19.66    3.84
   1   1   9    7.69    3.02
  -1  -1  -9   12.33    3.54
  -1  -1  -9    6.13    3.50
  -1  -1  -9   12.00    3.00
   1   1   9   11.11    3.48
   1   1   9    7.76    2.70
   1  -1   9   11.12    3.60
  -1   1  -9    8.15    4.19
   1   1   9    8.78    4.10
  -1   1  -9   10.74    3.29
  -1   1  -9   12.27    4.02
   1  -1   9   10.86    3.82
  -1  -1  -9    7.02    3.62
  -1   1  -9   10.12    3.83
   1  -1   9    7.86    4.24
   1  -1   9   10.78    3.12
  -1  -1  -9   14.23    3.18
  -1  -1  -9   12.59    4.44
  -1   1 -10   -2.12    3.45
   1   1  10    0.57    2.35
  -1   1 -10    2.20    2.26
  -1  -1 -10    3.85    2.63
   1  -1  10   -0.54    2.26
  -1  -1 -10   -2.48    3.85
   1  -1  10    0.07    2.49
   1   1  10   -2.62    2.36
  -1   1 -10    0.07    2.17
   1   1  10    1.81    2.44
  -1  -1 -10   -0.92    3.10
   1   1  10    0.47    2.14
   1  -1  10   -0.61    3.11
  -1  -1 -10   -0.75    2.73
  -1   1 -10   -2.75    3.74
   1  -1  10    1.40    1.99
  -1  -1 -11    1.44    3.28
  -1  -1 -11    0.06    3.77
   1   1  11   -2.76    3.60
   1  -1  11   -1.11    3.74
  -1  -1 -11   -1.83    3.01
  -1   1 -11   -0.20    2.96
   1   1  11   -1.18    3.64
  -1   1 -11   -0.45    3.49
  -1   1 -11    2.11    2.56
   1   1  11   -0.13    2.69
  -1   1 -11    1.83    2.61
  -1  -1 -11   -1.87    2.99
   1   1  11    0.91    2.49
   1  -1  11    3.08    2.76
   1  -1  11    1.04    2.88
   1  -1  12    0.46    3.65
   1   1  12    3.14    4.53
  -1   1 -12    6.48    4.94
   1   1  12    0.81    4.36
  -1  -1 -12    4.73    4.19
  -1  -1 -12   12.11    6.28
   1   1  12   11.14    4.79
  -1   1 -12    6.07    3.59
  -1  -1 -12   -1.95    3.50
   1   1  12   -0.11    3.06
   1  -1  12    2.07    3.03
  -1   1 -12    6.65    4.44
  -1  -1 -12    8.78    5.29
   1  -1  12    3.39    4.44
  -1   1 -12    0.81    3.73
  -1   1 -13    0.20    3.68
   1  -1  13   -0.51    3.07
   1  -1  13    1.79    4.83
   1   1  13   -3.65    3.64
  -1   1 -13   -3.86    4.90
   1   1  13    2.64    3.87
  -1  -1 -13    4.71    5.62
  -1  -1 -13    0.40    3.30
  -1   1 -13   -0.40    3.13
  -1  -1 -13    0.62    6.61
   1   1  13   -0.54    5.27
   1   1  13    1.44    3.67
   1  -1  13   -3.94    3.64
  -1   1 -14    4.46    5.53
   1   1  14    4.34    8.88
   1   1  14   -0.82    5.42
   1   1  14   -4.76    5.18
   1  -1  14    3.97    5.73
   1   1  14    0.55    4.84
  -1   1 -14    0.26    3.46
  -1  -1 -14    5.04    5.06
   1  -1  14   -1.32    3.40
   1  -1  14   16.09    5.79
  -1   1 -14    0.08    4.14
  -1  -1 -14   -3.36    7.70
  -1  -1 -14   -3.84    9.71
  -1   1 -15  -15.96    8.54
   1   1  15    2.23    5.09
  -1  -1 -15   -4.97    8.12
   1   1  15    4.46    5.02
   1  -1  15   -3.52    6.62
  -1   1 -15    5.34    6.47
   1  -1  15    2.36    4.39
  -1  -1 -15    4.68    7.91
   1  -1  15    1.15    3.85
  -1   1 -15    1.22    4.89
   1   2 -16  218.82   23.59
   1   2 -14   -2.71    5.33
   1   2 -14   -2.89    5.26
  -1  -2  14   -1.17   11.13
   1   2 -14   -9.67    7.30
  -1  -2  14   -6.65    6.24
  -1  -2  14   -3.57    5.24
  -1  -2  14   -4.71    5.03
  -1  -2  13   -0.99    3.47
   1   2 -13    2.12    4.17
   1   2 -13  -15.00    7.39
   1   2 -13    4.43    4.51
  -1  -2  13    1.07    4.36
   1   2 -13    3.36    5.15
  -1  -2  13    3.29    4.29
  -1  -2  13    3.60    3.40
  -1  -2  12    1.02    3.25
   1   2 -12    0.76    3.81
  -1  -2  12    1.43    2.70
  -1  -2  12    0.68    2.90
   1   2 -12    0.57    3.88
  -1  -2  12    1.70    4.39
   1   2 -12   -0.49    2.74
   1   2 -12   -1.06    2.92
  -1  -2  11    5.16    3.67
  -1  -2  11    0.53    2.65
   1   2 -11    5.10    3.70
   1   2 -11    2.03    3.23
   1   2 -11    2.57    3.93
  -1  -2  11    0.92    3.81
  -1  -2  11    5.21    3.28
   1   2 -11    9.35    4.85
   1   2 -10   -5.76    4.61
   1   2 -10    0.06    2.24
  -1  -2  10   -0.62    3.20
   1   2 -10    1.08    3.22
  -1  -2  10    1.56    2.58
  -1  -2  10   -0.82    1.92
   1   2 -10   -3.42    4.05
  -1  -2  10   11.34    6.49
  -1  -2  10    0.73    2.32
   1   2  -9   29.20    6.18
   1   2  -9   37.94    5.81
   1   2  -9   36.33    5.08
  -1  -2   9   29.83    6.56
  -1  -2   9   36.97    5.11
  -1  -2   9   30.57    5.17
   1   2  -9   37.14    7.84
   1   2  -9   37.38    6.85
  -1  -2   9   40.70    7.00
  -1  -2   9   33.70    6.01
   1   2  -8   -0.11    2.15
   1   2  -8   -2.92    2.78
  -1  -2   8   -0.62    1.94
   1   2  -8   -1.49    2.40
  -1  -2   8   -5.59    2.94
   1   2  -8   -0.96    1.16
  -1  -2   8    1.23    2.48
  -1  -2   8    0.93    1.56
   1   2  -8    3.07    1.99
  -1  -2   8   -2.41    2.04
  -1  -2   7   -3.07    2.17
  -1  -2   7    1.61    1.90
  -1  -2   7   -2.72    1.50
  -1  -2   7   -1.37    2.15
   1   2  -7   -0.14    1.07
   1   2  -7    1.24    1.91
   1   2  -7   -0.90    1.42
   1   2  -7    1.12    2.16
  -1  -2   7    2.36    1.69
   1   2  -7    2.79    2.36
   1   2  -6   -0.32    1.96
  -1  -2   6    1.65    2.17
   1   2  -6    1.12    1.13
  -1  -2   6   -0.62    1.43
   1   2  -6    0.79    0.67
   1   2  -6    0.99    2.27
   1   2  -6    1.49    1.44
   1   2  -6    0.66    1.46
  -1  -2   6    0.91    1.95
  -1  -2   6    0.14    1.19
  -1  -2   6    0.23    1.10
  -1  -2   6    0.74    0.90
  -1  -2   5  114.28    6.17
  -1  -2   5  121.65    7.66
   1   2  -5  108.51    6.16
  -1  -2   5  104.70    8.82
   1   2  -5  126.10    7.59
  -1  -2   5  124.29    5.14
  -1  -2   5  106.83    8.73
   1   2  -5  124.60    8.76
   1   2  -5  114.54    8.55
  -1  -2   4   64.72    4.70
  -1  -2   4   76.55    6.77
   1   2  -4   66.53    4.04
   1   2  -4   72.85    6.01
   1   2  -4   73.01    5.61
   1   2  -4   61.28    6.03
  -1  -2   4   72.40    5.96
  -1  -2   4   65.96    6.32
  -1  -2   4   64.38    5.45
  -1  -2   4   66.59    3.85
  -1  -2   3  186.19    8.04
  -1  -2   3  215.62    9.60
   1   2  -3  198.16    9.88
   1   2  -3  193.21    5.73
   1   2  -3  193.68    4.30
   1   2  -3  202.98    8.97
  -1  -2   3  177.79    8.97
  -1  -2   3  222.84    7.52
  -1  -2   3  200.90    6.81
  -1  -2   3  219.24   10.67
   1   2  -3  213.55    8.96
   1   2  -3  208.80   10.93
  -1  -2   2   98.43    5.12
  -1  -2   2  104.65    6.92
   1   2  -2  106.74    6.75
   1   2  -2  100.98    6.12
   1   2  -2  106.97    5.14
  -1  -2   2   97.73    6.15
   1   2  -2   97.00    5.48
   1   2  -2  110.28    7.18
  -1  -2   2   98.06    4.95
  -1  -2   2  108.25    6.93
  -1  -2   2  111.31    5.52
   1   2  -1   77.12    5.42
  -1  -2   1   76.21    4.66
   1   2  -1   72.87    5.05
  -1  -2   1   71.77    4.45
  -1  -2   1   77.83    5.27
   1   2  -1   74.14    4.35
  -1  -2   1   67.28    4.98
  -1  -2   0   86.74    4.90
   1   2   0   94.97    5.67
  -1  -2   0   95.26    5.67
   1   2   0   92.02    4.97
  -1  -2   0   90.50    5.17
  -1  -2   0   95.28    5.34
  -1  -2  -1  196.58    7.92
  -1  -2  -1  198.25    7.89
   1   2   1  189.64    7.31
  -1  -2  -1  204.50    7.99
  -1  -2  -1  187.07    7.69
  -1  -2  -2   28.29    3.25
  -1  -2  -2   31.76    3.06
  -1  -2  -2   29.61    3.24
   1   2   2   28.01    2.91
  -1  -2  -2   27.81    3.10
  -1  -2  -3  192.06    9.54
   1   2   3  172.81    7.17
  -1  -2  -3  174.30    8.61
  -1  -2  -3  179.02    8.41
  -1  -2  -3  189.58    7.46
   1   2   3  165.72    7.59
  -1  -2  -3  207.68    9.55
  -1  -2  -3  165.52    7.78
  -1  -2  -4  336.96   12.69
  -1  -2  -4  326.23   12.45
  -1  -2  -4  361.08   14.17
  -1  -2  -4  350.44    9.57
  -1  -2  -4  369.67   14.28
   1   2   4  333.69   11.34
   1   2   4  362.45   12.29
  -1  -2  -4  342.13   11.71
   1   2   5   58.55    5.67
  -1  -2  -5   68.40    6.44
  -1  -2  -5   71.67    7.11
  -1  -2  -5   71.83    7.47
  -1  -2  -5   68.69    4.11
  -1  -2  -5   70.31    5.68
  -1  -2  -6   85.95    7.59
   1   2   6   70.58    6.83
  -1  -2  -6   81.37    8.79
  -1  -2  -6   79.48    4.21
  -1  -2  -6   88.28    8.52
  -1  -2  -6   81.84    6.10
  -1  -2  -7   24.17    5.58
   1   2   7   15.81    3.60
  -1  -2  -7   19.38    4.58
  -1  -2  -7   25.29    4.60
   1   2   7   17.65    4.02
  -1  -2  -7   22.87    3.45
  -1  -2  -7   15.00    1.46
  -1  -2  -8  104.89   12.36
   1   2   8   70.25    8.79
  -1   2  -8   65.76    7.54
   1  -2   8   76.96   10.23
  -1  -2  -8   96.60    9.31
  -1  -2  -8   85.12   10.13
   1   2   8   81.08    8.45
  -1   2  -8   64.08    9.30
   1  -2   8   83.91   10.93
  -1  -2  -8   81.24    6.12
  -1  -2  -8   93.95    6.88
   1  -2   8   77.78    9.29
  -1   2  -8   80.70   10.31
  -1  -2  -9    1.59    1.85
   1  -2   9    4.76    5.10
   1  -2   9    7.84    3.90
  -1  -2  -9    6.91    4.08
  -1  -2  -9    2.52    1.80
  -1   2  -9   -5.18    3.06
  -1  -2  -9   -0.99    2.97
   1  -2   9    0.77    2.26
   1  -2   9    1.33    2.82
  -1   2  -9    2.11    2.85
  -1   2  -9   -2.58    3.61
  -1  -2  -9   -3.62    2.90
   1   2   9   -0.43    1.95
   1   2   9    2.55    3.01
  -1  -2 -10    0.24    2.41
   1   2  10   10.10    4.63
   1  -2  10   13.00    4.01
   1  -2  10   13.49    5.39
  -1  -2 -10    7.24    4.20
   1   2  10   10.85    4.28
  -1  -2 -10    3.32    3.22
   1  -2  10   24.49    8.66
  -1   2 -10    9.03    3.87
   1  -2  10    7.62    5.92
  -1   2 -10   27.84    9.10
   1   2  10    0.46    3.97
   1   2  10    7.60    2.91
  -1   2 -10   12.48    4.53
  -1  -2 -10   12.05    5.77
  -1   2 -10    8.22    4.18
   1   2  11   18.16    7.06
   1  -2  11   21.06    5.79
   1  -2  11    4.29    7.02
   1   2  11    4.88    6.64
  -1   2 -11   20.89    5.61
  -1  -2 -11   21.43    7.99
  -1   2 -11   21.09    8.81
   1   2  11    1.82    5.07
  -1   2 -11    9.36    6.48
   1  -2  11   30.56    7.92
  -1   2 -11   18.10    6.31
  -1  -2 -11   16.39    7.67
   1  -2  11    6.29    8.53
  -1  -2 -12    5.35    5.85
  -1   2 -12    0.63    4.76
  -1   2 -12   17.27    5.71
   1   2  12   -6.09    4.35
   1  -2  12    0.32    4.95
   1   2  12    7.03    6.84
   1  -2  12   20.32    7.00
   1   2  12    2.05    5.56
  -1  -2 -12    8.65    6.02
  -1   2 -12    6.37    6.69
  -1   2 -12    4.34    6.27
   1  -2  12    9.17    8.85
   1  -2  13   -0.21    4.58
   1   2  13   -2.05    4.62
  -1   2 -13    2.37    5.37
   1  -2  13    0.38    6.10
  -1   2 -13   -2.06    4.24
   1  -2  13   -1.92    5.23
   1  -2  14    1.37    5.18
  -1   2 -14   -2.53    7.09
  -1   2 -14   -1.98    5.76
   1  -2  14    5.74    5.22
  -1  -3  15   -2.76    5.15
   1   3 -15    0.96    4.08
  -1  -3  15   -6.59    7.14
   1   3 -15    1.26    4.11
  -1  -3  15    6.02    5.47
  -1  -3  15    4.16    7.62
  -1  -3  14   -5.33    6.24
  -1  -3  14    0.26    3.43
   1   3 -14    0.65    4.29
   1   3 -14   -3.11    4.61
   1   3 -14   -2.40    3.98
   1   3 -14    1.27    3.00
  -1  -3  14   -1.95    6.74
  -1  -3  14   -4.39    4.43
  -1  -3  13   -0.01    3.37
  -1  -3  13   -1.55    3.87
  -1  -3  13    0.92    4.41
   1   3 -13    0.87    2.98
  -1  -3  13    0.87    3.51
   1   3 -13   -1.87    3.40
   1   3 -13   -0.03    4.28
   1   3 -13   -2.31    5.17
   1   3 -12    1.77    4.77
   1   3 -12    0.72    3.29
   1   3 -12    2.00    3.77
   1   3 -12    1.86    2.46
  -1  -3  12    1.27    3.19
  -1  -3  12    0.91    4.31
  -1  -3  12   -0.09    2.72
  -1  -3  12    2.72    3.82
  -1  -3  11   -1.43    3.15
  -1  -3  11   -0.12    2.57
   1   3 -11   -0.07    3.85
  -1  -3  11   -0.22    3.30
   1   3 -11    0.34    2.94
   1   3 -11    0.85    2.65
   1   3 -11   10.08    5.78
  -1  -3  11   -8.91    4.81
   1   3 -10    1.82    3.61
  -1  -3  10    0.58    2.69
   1   3 -10    1.22    3.17
  -1  -3  10    3.32    3.40
  -1  -3  10    2.22    3.53
   1   3 -10    1.87    3.66
   1   3 -10    1.90    3.26
  -1  -3  10   -0.01    2.64
  -1  -3  10    1.03    1.83
  -1  -3   9   31.53    7.27
   1   3  -9   15.60    5.34
   1   3  -9   21.31    4.51
   1   3  -9   25.08    5.80
   1   3  -9   17.60    6.27
  -1  -3   9   34.88    7.50
  -1  -3   8   11.54    4.02
  -1  -3   8   21.11    5.08
  -1  -3   8   16.69    4.84
   1   3  -8   15.79    4.41
  -1  -3   8   13.86    4.40
   1   3  -8   18.86    4.82
   1   3  -8   16.30    3.76
   1   3  -8   14.49    5.11
  -1  -3   8   14.35    3.39
  -1  -3   8   14.26    1.75
   1   3  -7   98.73    7.70
   1   3  -7   94.50    3.66
   1   3  -7   98.84   10.29
   1   3  -7  104.24   11.24
  -1  -3   7  116.70   10.31
  -1  -3   7  102.20   10.80
  -1  -3   7  109.24    5.21
  -1  -3   7  128.33   11.48
   1   3  -7  111.01    9.92
  -1  -3   7  116.79    8.95
  -1  -3   6    7.85    1.78
  -1  -3   6    7.14    2.85
   1   3  -6    7.24    4.46
  -1  -3   6   10.08    3.93
  -1  -3   6    6.03    4.10
   1   3  -6    3.68    2.79
   1   3  -6   10.13    3.40
   1   3  -6    5.38    2.00
  -1  -3   6    9.46    2.90
   1   3  -5   30.18    5.15
  -1  -3   5   21.21    5.64
   1   3  -5   22.84    3.51
   1   3  -5   14.65    5.13
  -1  -3   5   21.46    4.13
  -1  -3   5   21.36    4.62
  -1  -3   5   21.39    2.71
  -1  -3   5   21.41    5.75
   1   3  -5   25.04    4.78
   1   3  -4    4.42    4.93
  -1  -3   4   21.84    5.12
  -1  -3   3  216.36   13.02
   1   3  -3  281.29   14.15
  -1  -3   3  219.45   10.84
  -1  -3   3  254.15   13.79
   1   3  -3  223.78   12.98
  -1  -3   2    8.41    2.31
   1   4 -15    1.44    5.45
   1   4 -15    1.54    6.65
  -1  -4  15   -2.35    6.68
  -1  -4  15    2.57    8.49
  -1  -4  14  -12.68    8.45
   1   4 -14    0.82    6.03
  -1  -4  14    0.89    5.53
  -1  -4  14  -23.00    9.20
   1   4 -14   -2.38    6.39
  -1  -4  13   -2.31    5.18
   1   4 -13    2.37    4.56
  -1  -4  13   -5.78    6.37
   1   4 -13   -2.89    3.25
   1   4 -13   -0.20    6.20
  -1  -4  13   -4.85    4.83
   1   4 -12    7.69    6.26
  -1  -4  12    0.63    4.18
   1   4 -12   -0.32    3.63
   1   4 -12   -0.83    4.03
  -1  -4  12   -2.26    5.15
   1   4 -12   -1.72    3.77
  -1  -4  12   -2.91    7.19
   1   4 -11    0.23    3.59
  -1  -4  11   -2.14    5.59
   1   4 -11   -0.84    3.51
  -1  -4  11   -0.25    4.04
   1   4 -11    1.08    3.65
   1   4 -11    0.68    3.00
  -1  -4  11    3.42    4.57
   1   4 -10   27.40    9.45
  -1  -4  10   28.55    8.25
  -1  -4  10   14.83    5.72
  -1  -4  10    9.97    9.30
   1   4 -10    3.58    6.69
   1   4 -10   22.00    6.96
   1   4 -10    6.93    5.09
  -1  -4  10   20.95    5.52
  -1  -4   9   -1.75    3.77
   1   4  -9    2.44    3.73
   1   4  -9   -0.52    3.08
  -1  -4   9   -3.38    4.01
  -1  -4   9    5.22    4.86
   1   4  -9   -1.57    3.20
   1   4  -9   -2.44    2.22
  -1  -4   9   -3.23    3.05
  -1  -4   8    3.22    3.89
   1   4  -8    5.55    3.42
  -1  -4   8   -0.50    3.33
   1   4  -8    5.65    3.87
   1   4  -8    3.31    2.46
  -1  -4   8    1.50    2.60
  -1  -4   7   -2.25    4.04
   1   4  -7    4.80    3.65
   1   4  -7    1.02    2.12
   1   4  -7    1.96    2.89
  -1  -4   7    4.96    3.14
  -1  -4   7    0.21    3.08
  -2   0  -2  472.33   16.28
  -2   0  -2  438.02   16.11
  -2   0  -3    6.58    2.68
  -2   0  -3   10.07    3.13
  -2   0  -3    8.78    3.21
  -2   0  -3    8.30    2.99
  -2   0  -4  201.78   10.57
   2   0   4  243.77   14.69
  -2   0  -4  206.78   11.35
   2   0   4  208.62   11.87
  -2   0  -4  214.57   13.02
   2   0   4  231.80   10.68
  -2   0  -4  211.85   10.18
   2   0   5   -0.43    1.89
  -2   0  -5    0.58    1.52
   2   0   5    0.84    1.68
  -2   0  -5   -0.51    1.57
  -2   0  -5   -0.02    1.26
  -2   0  -5    2.26    2.26
   2   0   5    0.77    0.79
   2   0   5   -0.05    1.44
   2   0   6   89.62    7.54
  -2   0  -6   86.04    7.04
  -2   0  -6   92.84    9.29
   2   0   6   96.30    8.96
   2   0   6   76.37    3.90
  -2   0  -6   94.65    8.51
   2   0   6   88.76    8.96
  -2   0  -6   87.00    7.68
  -2   0  -7    0.83    1.77
  -2   0  -7    1.86    2.05
  -2   0  -7    1.68    2.14
   2   0   7    7.94    3.32
  -2   0  -7    3.43    2.59
   2   0   7    1.29    2.01
   2   0   7   -1.35    2.09
   2   0   8    3.13    4.42
  -2   0  -8    0.73    1.98
   2   0   8    3.66    2.70
  -2   0  -8    0.97    2.22
   2   0   8   -1.03    2.32
  -2   0  -8   -1.94    2.75
   2   0   8   -1.11    2.46
  -2   0  -8    0.12    2.17
  -2   0  -9   -1.67    4.53
   2   0   9   -3.90    3.49
  -2   0  -9    1.22    1.99
   2   0   9   -0.91    3.64
  -2   0  -9   -1.87    2.55
  -2   0  -9    3.56    3.13
   2   0   9    0.21    2.45
  -2   0  -9    0.56    2.92
   2   0   9   -2.12    2.90
   2   0   9   -0.29    2.42
   2   0  10    2.70    6.76
  -2   0 -10   18.07    7.01
   2   0  10   22.47    8.50
  -2   0 -10   33.63    6.98
  -2   0 -10   24.45    6.22
   2   0  10   29.76    6.03
  -2   0 -10   27.50    7.30
   2   0  11   -5.23    3.72
   2   0  11   -1.45    4.52
  -2   0 -11    1.14    3.28
  -2   0 -11   -3.34    3.61
   2   0  11    2.36    4.75
  -2   0 -11   -3.50    4.39
  -2   0 -11   -5.81    5.20
   2   0  12    4.07    5.79
  -2   0 -12   15.94    5.31
  -2   0 -12    2.74    3.83
  -2   0 -12    8.97    9.75
  -2   0 -12    4.90    4.88
   2   0  12   11.56    4.66
   2   0  12    5.45    4.00
  -2   0 -13    2.94    5.15
  -2   0 -13    2.20    3.98
   2   0  13   10.11    7.29
   2   0  13   -0.04    3.87
  -2   0 -13    2.28    3.53
   2   0  13   -2.36    3.76
  -2   0 -14   26.88    8.17
  -2   0 -14   29.81    9.51
   2   0  14    5.11    7.62
  -2   0 -14   17.01    7.82
   2   0  14   33.02    8.26
   2   1 -13    9.51   11.62
  -2  -1  13   -4.86   10.91
   2   1 -13    4.07   11.76
   2   1 -12   15.34   11.92
  -2  -1  12    6.01   10.26
   2   1 -12   16.29   12.32
  -2  -1  12    2.13    7.62
  -2  -1  12    5.29    4.76
   2   1 -12    6.71    7.67
   2   1 -11    1.47    5.30
   2   1 -11    4.71    5.26
  -2  -1  11    1.90    7.62
  -2  -1  11    5.58    4.63
  -2  -1  11    0.32    4.24
   2   1 -11    7.96    7.30
   2   1 -11    4.23    4.44
   2   1 -10   -1.87    4.69
   2   1 -10   14.21    7.24
  -2  -1  10    3.76    4.95
  -2  -1  10    0.35    3.42
   2   1 -10    8.83    5.40
  -2  -1  10    5.97    3.41
  -2  -1  10   10.80    5.06
  -2  -1   9    0.24    3.80
  -2  -1   9    5.69    2.80
  -2  -1   9    0.20    1.60
  -2  -1   9    0.83    2.18
   2   1  -9   -7.77    4.36
   2   1  -9    5.17    4.78
   2   1  -9    1.95    3.82
  -2  -1   9   -0.47    2.77
   2   1  -8   61.72   11.25
  -2  -1   8   75.23    6.05
   2   1  -8   73.06    9.53
  -2  -1   8   62.98    9.80
   2   1  -8   73.19   10.76
  -2  -1   8   61.84    8.57
  -2  -1   8   58.51    9.39
   2   1  -7  116.09   12.49
  -2  -1   7  126.91    7.67
  -2  -1   7  110.11   10.23
   2   1  -7  127.58   13.84
  -2  -1   7  111.61   10.77
  -2  -1   7   98.07   10.23
  -2  -1   6   25.03    5.14
  -2  -1   6   27.90    5.00
   2   1  -6   27.52    5.96
  -2  -1   6   29.02    4.01
  -2  -1   6   27.36    5.84
  -2  -1   6   18.71    4.65
   2   1  -6   18.21    5.60
   2   1  -5    2.96    2.07
  -2  -1   5    4.22    2.00
  -2  -1   5    2.27    2.07
  -2  -1   5    6.39    1.73
  -2  -1   5    2.53    0.78
  -2  -1   5    1.26    1.48
   2   1  -4  112.94    9.14
  -2  -1   4  114.32    8.48
  -2  -1   4  112.90    4.86
  -2  -1   4  112.64    7.15
  -2  -1   4  102.03    8.31
  -2  -1   4  105.68    9.30
  -2  -1   3   61.66    6.15
  -2  -1   3   61.29    3.96
  -2  -1   3   66.70    5.60
   2   1  -3   71.91    5.93
  -2  -1   3   57.11    5.42
  -2  -1   3   61.41    6.37
  -2  -1   3   64.91    5.68
   2   1  -3   69.80    6.39
   2   1  -2    1.63    0.88
  -2  -1   2    1.47    1.02
  -2  -1   2    1.31    1.06
  -2  -1   2    2.85    1.21
  -2  -1   2    0.46    0.94
   2   1  -2    0.19    1.02
  -2  -1   2   -0.04    1.11
  -2  -1   2   -0.91    1.13
  -2  -1   1   25.22    3.73
  -2  -1   1   28.97    3.34
  -2  -1   1   27.80    4.11
   2   1  -1   30.03    3.82
  -2  -1   1   25.98    3.69
  -2  -1   0  198.69    9.82
  -2  -1   0  190.20    8.79
  -2  -1   0  197.93    8.04
  -2  -1   0  195.57    9.99
   2   1   0  204.97    9.43
   2   1   0  195.57    9.39
  -2  -1   0  187.06    9.30
  -2  -1  -1   35.87    4.30
   2   1   1   35.01    4.09
  -2  -1  -1   30.15    3.89
  -2  -1  -1   34.11    3.99
  -2  -1  -1   36.82    3.90
  -2  -1  -1   40.67    4.47
   2   1   1   38.67    4.41
  -2  -1  -1   41.05    2.19
   2   1   2   -1.35    0.77
  -2  -1  -2    0.08    1.24
   2   1   2   -0.29    1.20
   2   1   2   -1.70    0.91
   2   1   2    0.85    1.19
  -2  -1  -2   -1.96    1.52
   2   1   2   -1.85    1.80
  -2  -1  -2   -2.33    1.05
  -2  -1  -2   -1.97    1.75
  -2  -1  -2    0.21    1.48
  -2  -1  -2    1.00    1.08
   2   1   3   48.39    3.60
  -2  -1  -3   34.14    4.74
   2   1   3   46.44    5.17
  -2  -1  -3   44.09    5.24
  -2  -1  -3   51.18    5.63
   2   1   3   50.75    5.59
   2   1   3   47.23    5.19
  -2  -1  -3   45.73    5.28
  -2  -1  -3   42.26    4.77
  -2  -1  -3   47.74    3.67
   2   1   4  191.18   11.27
   2   1   4  174.02    7.81
  -2  -1  -4  193.65   10.97
  -2  -1  -4  202.74   11.62
   2   1   4  176.94    9.67
  -2  -1  -4  173.24    9.57
  -2  -1  -4  203.60    8.72
  -2  -1  -4  195.85   10.74
   2   1   4  180.49   10.55
   2   1   4  205.79    8.50
  -2  -1  -5    4.23    2.62
   2   1   5    1.01    1.59
   2   1   5    3.18    1.26
  -2  -1  -5    1.25    1.44
  -2  -1  -5    1.59    1.96
   2   1   5    2.44    2.24
   2   1   5    2.54    2.14
   2   1   5    4.26    2.05
  -2  -1  -5    2.91    1.80
  -2  -1  -5    6.30    2.96
   2   1   5    2.11    1.32
  -2  -1  -5    0.74    1.51
  -2  -1  -6   -3.59    2.39
  -2  -1  -6    2.73    1.82
  -2  -1  -6   -0.19    1.38
   2   1   6    1.19    1.68
  -2  -1  -6    0.49    1.79
   2   1   6    4.17    2.54
   2   1   6    1.13    1.93
   2   1   6    1.89    1.35
  -2  -1  -6    2.13    2.34
   2   1   6    3.73    2.18
  -2  -1  -6    1.35    1.55
  -2  -1  -7   59.87    7.88
  -2  -1  -7   62.43    6.25
   2  -1   7   50.54    8.34
   2   1   7   60.38    7.32
  -2  -1  -7   64.78    8.31
  -2  -1  -7   70.83    7.77
   2   1   7   59.83    7.58
   2   1   7   59.68    7.24
   2   1   7   61.88    6.33
   2   1   7   64.71    6.12
  -2  -1  -7   65.31    7.12
  -2  -1  -7   63.98    6.49
   2  -1   7   51.60    5.92
  -2   1  -7   42.09    7.26
   2   1   7   62.27    6.45
  -2  -1  -8   26.04    6.39
   2  -1   8   28.16    7.33
  -2  -1  -8   20.74    3.73
   2   1   8   19.46    4.74
  -2   1  -8   21.82    4.47
   2   1   8   30.24    6.29
  -2  -1  -8   28.38    5.41
  -2  -1  -8   25.13    5.14
  -2   1  -8   20.97    5.47
   2   1   8   24.90    5.32
  -2  -1  -8   27.10    6.56
  -2   1  -8   26.14    5.86
   2   1   8   28.27    4.75
   2   1   8   42.17    5.76
  -2   1  -8   21.92    6.98
   2  -1   8   27.59    6.33
   2   1   8   30.80    5.36
  -2  -1  -9    3.77    3.34
   2  -1   9   -1.68    3.53
  -2  -1  -9   -4.56    2.54
  -2  -1  -9   -2.62    2.71
   2   1   9    6.58    3.64
  -2  -1  -9   -0.57    2.82
  -2   1  -9    3.16    3.43
   2  -1   9  -10.22    5.79
   2   1   9   -0.89    3.01
  -2  -1  -9   -3.00    3.46
  -2   1  -9   -4.62    3.80
  -2   1  -9    0.37    3.41
   2   1   9   -0.37    2.32
   2   1   9   -2.89    2.77
   2   1   9    2.38    3.46
   2   1  10    4.04    3.85
   2   1  10    1.38    3.71
   2  -1  10    1.22    4.63
  -2  -1 -10    2.96    3.32
  -2   1 -10    2.88    3.55
  -2  -1 -10    1.43    3.42
   2  -1  10    6.27    4.34
  -2   1 -10    4.14    3.48
   2   1  10   -0.79    2.84
  -2  -1 -10   11.16    4.35
  -2   1 -10    9.51    4.77
   2   1  10    2.97    2.62
  -2  -1 -10    2.08    2.99
  -2  -1 -11   -4.54    3.70
   2   1  11    0.90    3.06
   2  -1  11    1.13    4.06
  -2  -1 -11   -4.95    3.61
  -2  -1 -11   -9.97    5.90
  -2   1 -11   -0.56    3.80
   2  -1  11   -9.02    4.39
   2   1  11   -0.48    3.55
  -2   1 -11   -0.80    3.33
  -2  -1 -11    3.20    3.45
   2   1  11   -1.48    2.60
   2   1  11   -0.74    3.10
  -2   1 -11    5.86    5.76
  -2  -1 -12    5.76    4.97
  -2  -1 -12    3.17    3.28
   2  -1  12    1.33    4.67
  -2   1 -12    0.08    3.95
  -2   1 -12    7.21    5.20
   2   1  12   -1.72    2.92
  -2  -1 -12    2.74    3.75
  -2   1 -12   -1.06    4.33
  -2  -1 -12   -3.78    4.83
   2  -1  12   -0.74    3.82
  -2  -1 -13    7.28    5.95
   2   1  13    9.65    5.02
   2  -1  13   -0.94    3.89
  -2   1 -13    6.64    5.68
  -2  -1 -13   -7.31    6.24
  -2  -1 -13    2.63    5.35
  -2  -1 -14   -1.59    3.82
  -2  -1 -14   -2.13    4.78
   2   1  14  -11.99    6.82
   2   1  14  -10.90    7.94
  -2  -1 -14    9.40    6.90
   2   1  14    0.59    4.56
  -2  -1 -14    2.55    9.43
   2   2 -15   -6.83   12.54
   2   2 -15   15.04   10.22
  -2  -2  15    5.69    9.65
   2   2 -15   -7.68    9.62
  -2  -2  15  -12.22    6.96
  -2  -2  14    0.76    6.12
  -2  -2  14    7.06    5.20
   2   2 -14    3.53    8.48
   2   2 -14   15.20   11.19
   2   2 -14   -4.86    5.97
  -2  -2  14    3.92    6.38
   2   2 -13   -1.18    6.47
   2   2 -13    1.74    5.63
  -2  -2  13   -1.90    6.65
  -2  -2  13    3.05    4.47
  -2  -2  13    4.73    4.58
   2   2 -13    2.66    4.47
  -2  -2  13    3.31    4.75
   2   2 -12    0.03    3.61
  -2  -2  12    1.09    5.05
   2   2 -12   -0.32    4.22
  -2  -2  12    2.71    3.66
   2   2 -12    3.67    2.68
   2   2 -12    4.92    5.31
  -2  -2  12   -1.26    4.14
  -2  -2  12   -2.66    3.92
  -2  -2  11   -0.21    3.45
   2   2 -11    0.12    3.43
   2   2 -11    1.26    3.48
   2   2 -11    2.39    3.83
  -2  -2  11   -3.09    3.15
  -2  -2  11   -0.85    3.25
  -2  -2  11    0.10    5.58
   2   2 -11   -0.12    2.14
  -2  -2  10    0.45    2.67
   2   2 -10    2.11    3.57
  -2  -2  10    1.35    4.72
   2   2 -10   -0.70    2.95
   2   2 -10    1.36    2.30
   2   2 -10    0.63    2.79
  -2  -2  10    0.29    2.36
  -2  -2  10    4.83    3.07
  -2  -2  10   -0.34    2.45
   2   2  -9    2.85    3.16
   2   2  -9    5.91    3.51
  -2  -2   9    6.63    2.55
   2   2  -9    4.89    3.99
   2   2  -9    2.72    2.23
  -2  -2   9    3.53    3.19
  -2  -2   9    6.14    3.07
  -2  -2   9   15.79    5.08
  -2  -2   9    5.39    2.73
  -2  -2   8    6.13    3.35
  -2  -2   8    5.99    1.77
  -2  -2   8    8.13    3.70
   2   2  -8    9.26    3.05
   2   2  -8   10.76    3.79
   2   2  -8    6.43    3.58
  -2  -2   8   11.73    3.66
   2   2  -8   12.61    4.95
  -2  -2   8    8.88    3.21
   2   2  -8    2.44    2.17
  -2  -2   8   10.36    2.61
  -2  -2   7   11.17    3.78
  -2  -2   7   10.00    2.46
  -2  -2   7    9.46    2.08
   2   2  -7    5.15    3.66
  -2  -2   7    3.00    2.77
   2   2  -7    9.63    2.97
   2   2  -7    3.81    2.96
  -2  -2   7    4.80    2.59
   2   2  -7   10.40    3.24
   2   2  -7    1.76    1.76
  -2  -2   7    4.60    2.36
   2   2  -6    6.46    3.29
  -2  -2   6    6.19    2.93
  -2  -2   6   10.16    3.48
   2   2  -6    7.17    2.48
   2   2  -6    7.92    3.48
   2   2  -6    7.54    2.67
  -2  -2   6    6.11    1.82
  -2  -2   6    6.57    2.51
   2   2  -6    6.69    2.23
   2   2  -6    2.46    1.82
  -2  -2   6    7.93    1.66
  -2  -2   6    5.71    2.23
  -2  -2   6    9.70    2.35
  -2  -2   5    8.37    2.92
  -2  -2   5   11.05    2.53
   2   2  -5   11.48    2.85
  -2  -2   5   10.69    1.62
   2   2  -5   12.42    3.41
   2   2  -5   11.44    3.15
   2   2  -5    7.52    3.13
   2   2  -5   11.38    2.85
  -2  -2   5   12.04    3.15
  -2  -2   5    7.23    2.19
  -2  -2   5   11.40    2.52
  -2  -2   5    7.05    3.00
  -2  -2   4   33.27    4.05
   2   2  -4   32.81    4.99
  -2  -2   4   31.02    4.30
   2   2  -4   37.82    4.32
  -2  -2   4   29.34    2.20
   2   2  -4   34.58    5.38
  -2  -2   4   31.52    4.72
   2   2  -4   34.99    4.08
  -2  -2   4   34.38    4.08
  -2  -2   4   32.29    5.17
  -2  -2   4   26.36    3.38
  -2  -2   3    7.04    1.96
   2   2  -3    2.66    1.24
  -2  -2   3    2.37    1.62
  -2  -2   3    4.92    1.69
  -2  -2   3    5.56    1.85
   2   2  -3    5.43    2.28
  -2  -2   3    5.86    1.42
  -2  -2   3    3.16    1.35
   2   2  -3    4.87    1.87
   2   2  -3    2.72    1.24
  -2  -2   3    3.49    1.97
  -2  -2   2    3.42    1.71
  -2  -2   2    1.51    1.20
  -2  -2   2    3.35    1.04
   2   2  -2    3.36    1.79
   2   2  -2    4.07    1.41
  -2  -2   2    2.61    1.04
   2   2  -2    4.07    1.44
   2   2  -2    4.64    1.82
  -2  -2   2    3.75    1.72
  -2  -2   2    8.69    2.39
   2   2  -2    4.46    2.05
  -2  -2   1   13.03    2.73
  -2  -2   1   11.16    2.39
  -2  -2   1   11.21    2.68
  -2  -2   1   10.86    1.34
   2   2  -1   11.35    2.34
   2   2  -1   11.19    2.66
   2   2  -1   11.47    2.26
  -2  -2   1    9.23    2.01
   2   2  -1   12.04    2.53
  -2  -2   1   11.18    2.68
   2   2  -1    8.30    1.75
  -2  -2   0  503.89   16.45
  -2  -2   0  465.26   13.67
  -2  -2   0  469.33   10.73
   2   2   0  471.04   11.31
   2   2   0  465.15   13.19
   2   2   0  475.13   15.72
   2   2   0  488.60   14.44
  -2  -2   0  509.42   16.38
  -2  -2   0  476.09   13.03
  -2  -2   0  476.48   15.11
  -2  -2  -1   75.21    6.42
  -2  -2  -1   63.11    4.73
   2   2   1   66.23    4.83
   2   2   1   62.93    4.40
   2   2   1   68.43    5.91
   2   2   1   68.03    5.75
  -2  -2  -1   68.07    5.85
  -2  -2  -1   65.09    5.42
  -2  -2  -1   63.97    4.12
  -2  -2  -1   61.61    5.50
  -2  -2  -2  241.23   11.58
   2   2   2  231.90    9.96
  -2  -2  -2  228.93   10.86
  -2  -2  -2  239.48   10.24
   2   2   2  239.38   10.70
   2   2   2  232.18   11.34
  -2  -2  -2  231.75   10.38
   2   2   2  222.93   10.58
  -2  -2  -2  267.33    8.16
  -2  -2  -2  234.41   11.12
  -2  -2  -3  208.19    8.75
  -2  -2  -3  217.34   11.11
   2   2   3  211.77    7.74
  -2  -2  -3  222.09   11.24
   2   2   3  210.69    9.51
  -2  -2  -3  230.04   10.98
   2   2   3  210.60   11.38
  -2  -2  -3  218.95    9.72
   2   2   3  208.15   10.34
   2   2   3  212.56   10.31
  -2  -2  -3  217.30   10.90
  -2  -2  -4  126.10    7.60
   2   2   4  133.68    8.95
  -2  -2  -4  133.59    8.96
   2   2   4  127.42    7.10
  -2  -2  -4  134.63    9.39
  -2  -2  -4  140.12    9.46
   2   2   4  129.72    7.41
  -2  -2  -4  121.44    6.84
   2   2   4  126.59    9.31
   2   2   4  134.77    8.53
  -2  -2  -4  132.15    8.64
  -2  -2  -5   17.11    3.38
  -2  -2  -5   18.13    3.50
   2   2   5   15.96    2.98
  -2  -2  -5   14.25    3.31
   2   2   5   15.97    3.65
  -2  -2  -5   18.90    4.09
   2   2   5   16.07    3.68
  -2  -2  -5   19.26    4.10
   2   2   5   19.85    3.66
  -2  -2  -5   16.05    2.62
   2   2   5   14.07    3.07
   2   2   5   21.30    3.61
  -2  -2  -5   17.47    5.79
  -2  -2  -6   30.34    4.98
   2   2   6   30.56    4.45
  -2  -2  -6   25.28    4.08
   2   2   6   30.42    5.12
  -2  -2  -6   30.49    5.59
  -2  -2  -6   27.43    4.82
   2   2   6   31.47    5.38
   2   2   6   28.62    4.28
   2   2   6   27.81    4.23
   2   2   6   35.11    4.80
  -2  -2  -6   28.44    4.35
  -2  -2  -6   28.80    6.42
  -2  -2  -7   81.66    8.93
  -2  -2  -7   86.95    7.82
   2   2   7   88.49    9.21
   2   2   7   77.48    7.68
  -2  -2  -7   88.79    8.88
  -2  -2  -7   89.97    9.65
   2   2   7   87.28    8.95
   2   2   7   74.60    6.74
   2   2   7   90.03    7.76
  -2  -2  -7   93.89   11.96
   2   2   7   90.63    8.30
  -2  -2  -7   81.37    7.18
  -2  -2  -8   84.85    8.35
   2   2   8   62.28    7.71
  -2  -2  -8   68.08    8.27
  -2  -2  -8   75.86    9.55
   2   2   8   68.12    8.68
  -2  -2  -8   64.17    9.15
   2   2   8   60.66    7.95
   2   2   8   56.62    6.18
   2   2   8   87.96    8.41
  -2  -2  -8   61.39   11.06
   2   2   8   79.46    8.77
  -2  -2  -8   72.80    7.03
   2   2   9    1.48    3.01
   2   2   9    2.63    2.56
   2   2   9    7.58    3.96
  -2  -2  -9    4.46    3.72
  -2  -2  -9   11.55    4.44
   2   2   9    6.35    2.99
  -2  -2  -9    2.42    2.44
   2   2   9    5.88    2.60
  -2  -2  -9   12.01    3.66
  -2  -2  -9   16.12    7.14
   2   2  10    6.68    4.42
   2   2  10    4.14    3.73
   2   2  10    1.77    2.67
   2   2  10    0.13    3.05
   2   2  10   -1.10    2.87
  -2  -2 -10   -0.90    3.56
  -2  -2 -10    3.45    4.02
  -2  -2 -10    2.92    3.40
  -2  -2 -10    6.19    3.72
  -2  -2 -11    2.73    3.92
   2   2  11    0.30    3.07
   2   2  11   -1.44    3.48
  -2  -2 -11    3.95    4.17
  -2  -2 -11    3.58    4.79
   2   2  11    1.21    3.61
   2   2  12    0.75    4.12
  -2  -2 -12   -2.25    3.53
  -2  -2 -12    3.21    5.65
  -2  -2 -12   -9.05    6.33
   2   2  12    0.60    4.24
   2   2  12   -0.91    3.27
  -2  -2 -13    1.80    4.68
   2   2  13    0.93    3.95
  -2  -2 -13   -2.41    3.75
  -2  -2 -13   -4.48    5.02
   2   2  13   -0.81    4.92
   2   2  14    1.19    5.76
  -2  -2 -14   -2.87    4.26
   2   2  14   -1.19    4.84
   2   3 -15  -11.68    8.21
   2   3 -15   -3.29    6.37
  -2  -3  15   -1.20    5.50
   2   3 -15   -1.57    6.41
  -2  -3  15    7.24    4.86
  -2  -3  15    5.30    6.25
   2   3 -14   -2.47    5.82
   2   3 -14    3.21    5.05
   2   3 -14    7.22    6.68
  -2  -3  14   -0.38    5.97
  -2  -3  14   -1.14    3.61
  -2  -3  14   10.18    5.66
  -2  -3  13    0.50    3.55
   2   3 -13    5.57    5.37
  -2  -3  13   -0.33    4.81
   2   3 -13    1.09    3.69
  -2  -3  13   -1.02    3.21
   2   3 -13   -0.28    3.53
  -2  -3  12   -1.05    3.52
  -2  -3  12   -5.63    5.22
   2   3 -12    0.51    3.68
   2   3 -12    0.82    3.93
  -2  -3  12    3.63    3.37
  -2  -3  12   -4.50    3.93
  -2  -3  11   11.90    4.30
  -2  -3  11   16.26    5.77
   2   3 -11    8.22    6.87
   2   3 -11    3.42    5.49
  -2  -3  11    4.06    5.53
   2   3 -11    9.35    4.88
   2   3 -11   10.95    3.86
  -2  -3  11   17.24    4.72
   2   3 -10    0.15    3.22
  -2  -3  10    2.37    3.45
  -2  -3  10    2.71    5.05
  -2  -3  10   -0.85    2.04
   2   3 -10    1.78    2.54
   2   3 -10   -0.04    3.06
   2   3 -10    2.61    2.20
  -2  -3  10    2.62    2.76
  -2  -3  10    1.60    2.73
  -2  -3   9   -1.46    3.26
  -2  -3   9   -1.58    2.33
  -2  -3   9    6.18    2.83
   2   3  -9    8.86    3.91
   2   3  -9    1.24    3.01
   2   3  -9    4.17    2.46
  -2  -3   9   10.00    4.33
  -2  -3   9    6.55    3.03
   2   3  -9    7.80    4.67
   2   3  -8    2.39    2.76
  -2  -3   8   -1.51    2.46
  -2  -3   8   -0.52    2.76
  -2  -3   8    2.30    3.13
   2   3  -8   -1.27    2.45
   2   3  -8    0.01    2.21
  -2  -3   8   -1.67    2.01
   2   3  -8   -0.78    2.04
   2   3  -8   -3.25    1.99
  -2  -3   8    1.29    2.08
  -2  -3   8   -1.36    1.78
   2   3  -7   43.85    7.49
  -2  -3   7   36.84    6.70
   2   3  -7   32.68    6.29
   2   3  -7   39.72    5.82
  -2  -3   7   40.50    6.20
   2   3  -7   36.77    4.08
   2   3  -7   45.98    6.39
  -2  -3   7   39.76    4.13
  -2  -3   7   28.90    6.58
  -2  -3   7   34.73    5.17
  -2  -3   6    1.41    1.64
   2   3  -6    2.63    2.42
  -2  -3   6    1.70    1.82
  -2  -3   6   -0.93    2.09
  -2  -3   6    0.75    1.77
   2   3  -6   -0.69    2.40
   2   3  -6   -1.54    1.80
   2   3  -6    0.73    1.83
   2   3  -6    2.78    1.71
  -2  -3   6    3.44    2.41
  -2  -3   6    0.29    1.38
   2   3  -6    0.57    1.91
  -2  -3   5  116.38    7.15
  -2  -3   5  125.33    9.71
   2   3  -5  136.09   10.53
   2   3  -5  126.75    9.77
   2   3  -5  138.37   11.10
  -2  -3   5  132.73   10.23
   2   3  -5  127.25    8.78
  -2  -3   5  139.57    8.32
  -2  -3   5  115.83    9.97
  -2  -3   5  117.31    7.94
  -2  -3   4    0.18    1.03
   2   3  -4    0.57    1.52
  -2  -3   4    2.02    1.60
  -2  -3   4   -0.05    1.37
  -2  -3   4    2.75    1.75
   2   3  -4    1.86    2.25
   2   3  -4    0.87    1.63
   2   3  -4    2.70    1.73
   2   3  -4   -0.22    0.77
  -2  -3   4   -1.54    1.65
  -2  -3   4    0.00    1.30
   2   3  -4    0.20    1.22
  -2  -3   3    5.51    1.84
   2   3  -3    9.14    3.07
  -2  -3   3    4.73    1.82
  -2  -3   3    5.91    1.54
   2   3  -3    3.43    2.20
   2   3  -3    4.92    2.03
   2   3  -3    4.01    1.09
   2   3  -3    7.82    1.89
   2   3  -3    5.70    1.83
  -2  -3   3    6.75    2.35
  -2  -3   3    3.69    1.69
  -2  -3   2    3.31    1.54
  -2  -3   2    5.85    2.28
  -2  -3   2    5.36    1.34
  -2  -3   2    0.86    1.22
   2   3  -2    8.74    2.91
   2   3  -2    3.61    1.94
   2   3  -2    6.51    1.57
  -2  -3   2    3.24    1.53
   2   3  -2    5.44    1.84
  -2  -3   2    2.47    1.74
  -2  -3   1  159.68    9.13
   2   3  -1  140.39    4.78
  -2  -3   1  160.59    7.88
   2   3  -1  143.77    9.56
   2   3  -1  152.37    9.76
  -2  -3   1  154.47    9.52
   2   3  -1  153.38    8.69
   2   3  -1  158.75    5.15
  -2  -3   1  144.38    8.41
  -2  -3   1  164.37    9.06
  -2  -3   1  146.75    4.69
  -2  -3   0   17.34    3.15
  -2  -3   0   18.29    3.30
   2   3   0   18.13    2.30
  -2  -3   0   22.57    3.30
   2   3   0   22.39    4.04
  -2  -3   0   19.54    3.46
   2   3   0   18.31    3.34
  -2  -3   0   25.31    3.66
  -2  -3  -1    4.34    1.69
  -2  -3  -1    6.99    2.31
  -2  -3  -1    1.73    1.05
  -2  -3  -1    4.16    1.71
   2   3   1    4.56    1.72
   2   3   1    1.54    0.87
   2   3   1    2.03    1.29
  -2  -3  -1    4.11    1.61
   2   3   2   21.10    1.70
  -2  -3  -2   22.21    3.66
   2   3   2   22.02    3.15
  -2  -3  -2   27.15    4.03
   2   3   2   27.77    4.23
  -2  -3  -2   26.26    3.75
   2   3   2   23.31    3.53
  -2  -3  -2   22.94    3.55
  -2  -3  -2   25.51    2.74
  -2  -3  -3    0.90    1.40
   2   3   3    1.31    0.91
  -2  -3  -3    1.32    1.36
  -2  -3  -3   -0.31    0.79
   2   3   3    1.80    1.37
  -2  -3  -3    0.31    1.53
  -2  -3  -3    1.93    1.94
  -2  -3  -3    1.17    0.79
   2   3   3    1.40    1.56
  -2  -3  -3    0.72    1.12
  -2  -3  -4   93.49    6.55
  -2  -3  -4   90.03    7.92
   2   3   4   83.20    5.49
   2   3   4   85.54    7.26
  -2  -3  -4  102.59    9.06
  -2  -3  -4   87.34    7.85
  -2  -3  -4   88.86    6.66
   2   3   4   92.01    7.52
  -2  -3  -4   88.71    7.54
  -2  -3  -5    7.46    2.94
  -2  -3  -5   10.67    3.32
   2   3   5    9.00    2.29
  -2  -3  -5   10.24    3.05
  -2  -3  -5   12.08    3.67
   2   3   5   -0.46    1.76
  -2  -3  -5    5.84    1.92
   2   3   5    7.32    2.39
  -2  -3  -5   10.56    2.88
  -2  -3  -6   10.77    3.65
  -2  -3  -6    8.07    3.21
  -2  -3  -6    8.60    3.27
   2   3   6    9.53    2.73
   2   3   6    8.88    2.85
  -2  -3  -6    9.49    3.38
  -2  -3  -6    8.67    3.56
  -2  -3  -6   10.15    2.51
   2   3   6    9.26    3.20
  -2  -3  -7   27.50    5.62
   2   3   7   27.84    4.69
   2   3   7   27.18    5.43
  -2  -3  -7   37.08    7.16
  -2  -3  -7   30.85    6.04
  -2  -3  -7   39.39    6.09
  -2  -3  -8    0.79    2.83
  -2  -3  -8   -2.93    3.21
   2   3   8    3.49    2.93
  -2  -3  -8   -1.84    3.04
  -2  -3  -8    0.68    2.46
   2   3   8   -2.96    2.71
  -2  -3  -9    3.18    2.88
  -2  -3  -9   11.07    5.26
   2   3   9    7.49    3.75
   2   3   9    1.97    2.98
  -2  -3  -9   10.71    4.75
  -2  -3  -9    8.72    4.72
   2   3   9    7.52    4.29
   2   3   9    8.52    3.64
  -2  -3 -10    2.92    4.49
   2   3  10    3.00    3.16
   2   3  10   -0.66    3.84
  -2  -3 -10    0.39    3.44
  -2  -3 -10    1.29    3.18
   2   3  10   -0.16    3.13
   2   3  10   -3.92    3.60
  -2  -3 -10   -6.66    5.54
   2   3  11   22.62   11.48
  -2  -3 -11    9.01    6.39
  -2  -3 -11   39.99   11.34
   2   3  12    1.65    5.77
  -2  -4  15   -9.57    7.84
   2   4 -15  -15.38    9.14
   2   4 -15    1.72    5.00
  -2  -4  15   -6.49    9.41
   2   4 -15   -0.84    4.61
  -2  -4  15   -6.91    5.34
   2   4 -14    0.39    6.05
   2   4 -14    1.44    5.27
   2   4 -14    1.37    4.77
  -2  -4  14   -0.99    5.67
  -2  -4  14    1.59    3.92
  -2  -4  14    7.19    6.59
  -2  -4  13   -0.77    4.33
  -2  -4  13    1.94    3.39
   2   4 -13    1.16    5.08
   2   4 -13   -3.98    5.16
   2   4 -13   -1.22    4.28
  -2  -4  13   -4.45    5.52
  -2  -4  12   -6.01    5.77
   2   4 -12   -0.67    4.30
  -2  -4  12   -0.90    4.50
  -2  -4  12    5.45    3.95
   2   4 -12    1.49    4.72
   2   4 -12    0.95    4.56
  -2  -4  12   -0.61    3.54
   2   4 -11   -1.90    4.18
  -2  -4  11   -2.36    4.09
   2   4 -11   -1.76    3.04
   2   4 -11    1.69    4.29
  -2  -4  11   -0.84    2.78
  -2  -4  11   -6.41    3.91
  -2  -4  11   -0.71    3.88
   2   4 -10    4.77    4.29
  -2  -4  10   -0.47    3.18
  -2  -4  10   -0.06    3.27
   2   4 -10    3.04    3.73
   2   4 -10   -2.79    3.02
  -2  -4  10   -0.62    2.58
  -2  -4  10    3.71    2.97
   2   4  -9    2.54    2.95
   2   4  -9    7.18    4.62
  -2  -4   9    8.22    4.31
   2   4  -9   13.05    5.01
  -2  -4   9    7.75    3.54
  -2  -4   9    3.14    2.63
  -2  -4   8    4.34    2.05
   2   4  -8    0.78    2.78
  -2  -4   8   -1.28    2.62
  -2  -4   8    3.09    2.70
   2   4  -8    0.89    3.53
   2   4  -8   -0.21    2.39
   2   4  -8   -4.86    1.68
  -2  -4   8    0.08    2.90
  -2  -4   8    3.97    3.14
  -2  -4   7   -3.73    2.40
   2   4  -7    1.07    2.51
  -2  -4   7    3.64    2.52
  -2  -4   7   -1.53    3.09
   2   4  -7    3.15    3.15
   2   4  -7    3.49    2.86
  -2  -4   7   -0.67    2.03
   2   4  -7   -1.66    1.92
  -2  -4   7    0.02    1.92
  -2  -4   6   38.43    5.69
   2   4  -6   37.83    3.70
   2   4  -6   40.84    7.20
   2   4  -6   40.28    6.24
  -2  -4   6   37.01    6.13
   2   4  -6   36.78    8.25
   2   4  -6   36.01    5.58
  -2  -4   6   45.56    5.39
  -2  -4   6   28.26    6.41
   2   4  -5   19.33    2.09
  -2  -4   5   21.66    3.90
  -2  -4   5   29.57    5.89
  -2  -4   5   26.07    3.95
   2   4  -5   23.39    4.50
  -2  -4   4    5.56    2.26
  -2  -4   4    2.66    2.51
   2   4  -4    4.90    3.18
   2   4  -4    6.78    2.70
   2   4  -4    7.62    2.42
  -2  -4   4    3.86    2.26
  -2  -4   4    4.72    1.76
  -2  -4   3    6.34    2.23
  -2  -4   3    2.93    2.09
  -2  -4   3    5.57    2.64
   2   4  -3    9.05    3.48
   2   4  -3    6.44    2.63
  -2  -4   3    5.67    1.87
   2   4  -3    5.39    1.70
  -2  -4   3    6.58    2.83
  -2  -4   2   17.49    3.71
  -2  -4   2   17.80    3.94
  -2  -4   2   18.98    4.11
   2   4  -2   19.12    4.13
  -2  -4   2   16.51    4.03
  -2  -4   2   15.79    2.46
   2   4  -2   21.08    4.10
   2   4  -2   18.10    2.79
  -2  -4   1    9.29    2.83
  -2  -4   1    6.22    2.30
  -2  -4   1    9.87    2.99
  -2  -4   1    3.71    1.25
  -2  -4   1   10.75    3.31
   2   4  -1   10.67    3.24
  -2  -4   0   78.21    7.93
  -2  -4   0   88.85    9.19
   2   4   0   79.34    7.65
  -2  -4   0   80.89    7.97
  -2  -4   0   69.80    6.88
  -2  -4  -1    1.26    2.16
  -2  -4  -1   -1.44    2.02
  -2  -4  -1   -3.72    2.54
  -2  -4  -1    1.24    2.18
   2   4   1    2.00    2.18
  -2  -4  -2    1.45    2.37
  -2  -4  -2    2.76    2.44
  -2  -4  -2    5.06    2.46
   2   4   2    3.12    2.35
  -2  -4  -3   15.59    4.17
  -2  -4  -3   13.26    3.44
  -2  -4  -3   21.11    4.61
  -2  -4  -4   61.07    7.26
  -2  -4  -4   54.56    7.33
  -2  -4  -5    1.06    1.81
  -2  -4  -5   -0.84    2.16
  -2  -4  -5   -0.99    1.90
  -2  -4  -5   -2.46    2.73
  -2  -4  -6   -2.61    2.95
  -2  -4  -6    1.88    2.31
   2   4   6    0.14    2.23
   2   4   6    1.87    2.27
  -2  -4  -6    0.77    1.95
  -2  -5  14    3.47    7.73
  -2  -5  14   -4.51    6.70
   2   5 -14   -3.82    8.09
   2   5 -14    1.13    3.73
  -2  -5  13   -6.20    8.84
   2   5 -13    1.86    6.20
  -2  -5  13    1.90    4.50
   2   5 -13    0.55    4.46
  -2  -5  12   -3.69    6.37
   2   5 -12   -3.28    5.26
   2   5 -12    3.47    6.27
  -2  -5  12    3.10    4.41
  -2  -5  12    4.43    5.58
  -2  -5  11   -1.47    5.49
   2   5 -11   -0.29    4.29
   2   5 -11    0.08    3.82
  -2  -5  11   -8.88    5.86
  -2  -5  11    3.54    3.73
  -2  -5  10    2.05    4.59
  -2  -5  10   -9.72    4.82
   2   5 -10   -6.25    4.60
   2   5 -10    4.50    4.89
  -2  -5  10   -2.15    4.60
  -2  -5   9    7.63    5.47
   2   5  -9    2.42    4.70
  -2  -5   9    0.73    3.00
   2   5  -9    6.97    4.11
  -2  -5   9    7.74    4.54
  -2  -5   8   -8.00    4.01
  -2  -5   8   -3.01    4.40
   2   5  -8    3.08    3.88
   2   5  -8    4.54    3.27
  -2  -5   8    0.99    2.99
  -2  -5   7    0.17    1.90
  -2  -5   7    4.66    3.59
   2   5  -7    1.62    2.72
  -2  -5   7    1.26    2.74
   2   5  -7    1.76    2.85
  -2  -5   6    6.58    2.56
  -2  -5   6   10.50    3.69
  -2  -5   6   15.30    5.11
   2   5  -6   20.65    4.63
  -2  -5   6    9.05    4.11
  -2  -5   5   -0.16    2.16
  -2  -5   5    0.29    2.03
  -3   0  -7    1.82    3.02
  -3   0  -8    6.93    3.53
  -3   0  -8   16.46    5.80
  -3  -1   2   -0.98    2.03
  -3  -1   1   60.29    7.43
  -3  -1   1   57.43    6.39
  -3  -1   1   55.03    7.18
  -3  -1   0  141.19   11.05
  -3  -1   0  140.66   10.23
   3   1   0  156.58   11.32
  -3  -1   0  133.76   10.78
  -3  -1  -1   -0.48    1.75
  -3  -1  -1    6.11    2.96
   3   1   1   -0.41    2.21
  -3  -1  -1    0.22    1.80
  -3  -1  -1   -0.19    1.83
   3   1   2   15.93    2.12
  -3  -1  -2   18.50    4.33
  -3  -1  -2   15.88    3.87
   3   1   2   18.34    4.27
  -3  -1  -2   15.32    3.65
  -3  -1  -2   17.93    2.28
  -3  -1  -2    8.51    3.07
   3   1   3  189.19    7.60
  -3  -1  -3  185.38   12.65
  -3  -1  -3  184.32   12.63
  -3  -1  -3  184.47   12.22
   3   1   3  183.06   12.45
  -3  -1  -3  157.35   11.81
  -3  -1  -3  194.47    7.90
  -3  -1  -4   18.22    4.35
  -3  -1  -4   18.27    4.61
  -3  -1  -4   13.40    2.15
   3   1   4   14.75    4.25
   3   1   4   16.44    4.02
   3   1   4   17.69    2.75
  -3  -1  -4   15.33    4.07
  -3  -1  -4   14.82    3.97
  -3  -1  -5   15.70    4.35
   3   1   5   13.45    5.64
  -3  -1  -5    8.82    3.47
  -3  -1  -5   15.89    3.30
   3   1   5   14.73    4.60
   3   1   5   11.61    3.70
  -3  -1  -5   10.48    3.51
  -3  -1  -5    8.99    3.22
  -3  -1  -6   29.77    5.55
   3   1   6   29.76    6.98
  -3  -1  -6   26.68    4.45
   3   1   6   27.35    5.96
  -3  -1  -6   21.05    4.77
  -3  -1  -6   22.84    5.51
  -3  -1  -7    5.99    3.45
   3   1   7    2.46    3.22
  -3  -1  -7    7.04    2.99
  -3  -1  -7    3.77    3.17
   3   1   7    5.78    4.15
  -3  -1  -7    4.38    3.72
  -3  -1  -8   -4.74    3.43
   3   1   8   -1.94    2.94
  -3  -1  -8    0.21    3.23
   3   1   8   -3.08    3.36
  -3  -1  -8   -1.56    2.84
   3   1   8   -1.29    2.78
  -3  -1  -9   -0.05    2.86
   3   1   9    0.10    3.07
  -3  -1  -9   -0.30    2.98
  -3  -1  -9   -4.41    4.36
   3   1   9    6.52    3.61
   3   1  10    0.92    4.18
  -3  -1 -10    0.26    3.10
  -3  -1 -10   -1.53    3.92
   3   1  11    3.53    6.25
  -3  -1 -11    2.11    4.18
  -3  -1 -11    3.14    4.74
   3   1  12    1.03    4.36
  -3  -1 -12    0.71    4.22
  -3  -1 -12    5.25    4.08
   3   2 -12    1.40    8.06
   3   2 -11    6.28    5.71
  -3  -2  11    4.45    4.83
   3   2 -11   -3.03    5.80
  -3  -2  11   -0.02    4.02
  -3  -2  10   -2.75    6.44
   3   2 -10    2.82    4.78
   3   2 -10    7.13    5.15
  -3  -2  10   -1.34    3.79
   3   2  -9    0.53    3.30
  -3  -2   9    8.18    4.84
  -3  -2   9    8.44    4.46
   3   2  -9    5.32    4.41
   3   2  -9    7.25    4.48
  -3  -2   9   11.13    4.99
   3   2  -9    0.12    4.47
  -3  -2   9    5.09    4.89
   3   2  -8   13.04    5.34
  -3  -2   8    9.84    4.76
  -3  -2   8   10.90    4.98
   3   2  -8   12.19    5.21
  -3  -2   8   -0.95    3.25
  -3  -2   8   14.91    5.19
   3   2  -7    4.63    3.22
  -3  -2   7   -2.02    2.90
   3   2  -7   -1.16    2.86
  -3  -2   7   -0.43    2.32
  -3  -2   7   -5.11    3.73
  -3  -2   6   -0.26    1.92
   3   2  -6    0.15    1.78
  -3  -2   6   -0.67    2.05
   3   2  -6   -0.92    2.89
  -3  -2   6    2.37    1.99
  -3  -2   6    3.09    3.00
  -3  -2   6    1.74    2.51
   3   2  -5   -1.29    1.95
  -3  -2   5    0.27    1.91
   3   2  -5    1.67    2.17
  -3  -2   5    3.30    1.60
  -3  -2   5    1.65    2.20
  -3  -2   5    0.82    1.97
  -3  -2   5    3.82    2.35
  -3  -2   5   -1.01    2.14
   3   2  -4   72.18    7.00
  -3  -2   4   87.97    8.20
  -3  -2   4   67.83    6.33
  -3  -2   4   87.97    6.18
   3   2  -4   71.35    8.02
  -3  -2   4   78.61    8.83
   3   2  -4   89.27    8.24
  -3  -2   4   86.67   10.09
  -3  -2   4   94.64    8.77
   3   2  -3   11.68    2.59
  -3  -2   3   11.60    2.47
  -3  -2   3   14.80    3.66
   3   2  -3   11.47    3.43
  -3  -2   3   14.78    2.89
  -3  -2   3   14.25    4.01
   3   2  -3   11.60    3.46
  -3  -2   3    4.91    2.24
  -3  -2   3   16.22    4.41
   3   2  -2   28.46    3.31
  -3  -2   2   33.38    5.28
  -3  -2   2   24.88    2.91
  -3  -2   2   32.04    4.18
  -3  -2   2   24.48    2.24
   3   2  -2   30.50    4.78
  -3  -2   2   29.03    5.55
   3   2  -2   31.30    5.15
  -3  -2   2   30.34    5.76
  -3  -2   2   30.12    5.01
  -3  -2   1  148.29   10.70
  -3  -2   1  144.91    9.11
  -3  -2   1  135.70    6.30
   3   2  -1  137.14    9.56
  -3  -2   1  158.84   11.77
   3   2  -1  158.51   10.93
  -3  -2   1  152.61   10.71
  -3  -2   0   31.66    5.36
  -3  -2   0   27.73    4.49
  -3  -2   0   30.76    3.59
   3   2   0   24.72    4.07
  -3  -2   0   28.29    4.96
   3   2   0   34.49    5.34
   3   2   0   32.99    5.18
  -3  -2   0   28.64    4.99
  -3  -2  -1   15.41    4.12
   3   2   1    8.49    2.28
  -3  -2  -1   13.19    3.51
   3   2   1   10.16    3.12
  -3  -2  -1    9.56    3.11
   3   2   1   11.46    3.32
  -3  -2  -1   10.94    2.63
  -3  -2  -1    8.91    3.12
  -3  -2  -2   -3.06    2.65
   3   2   2   -0.38    2.15
   3   2   2    0.97    1.74
  -3  -2  -2   -2.11    2.73
   3   2   2   -2.65    2.38
  -3  -2  -2    1.37    2.05
  -3  -2  -2    1.27    1.51
   3   2   2   -0.15    1.94
  -3  -2  -2    0.06    1.96
  -3  -2  -3   90.26    9.22
   3   2   3  109.52   10.28
  -3  -2  -3   84.41    8.29
  -3  -2  -3   91.88    8.03
   3   2   3   89.63    7.91
  -3  -2  -3   78.65    7.92
   3   2   3   90.94    8.93
   3   2   3   86.22    8.49
  -3  -2  -3   86.06    8.46
  -3  -2  -4   69.13    8.16
   3   2   4   65.10    7.53
  -3  -2  -4   61.46    7.68
  -3  -2  -4   69.99    7.64
   3   2   4   60.46    6.25
   3   2   4   63.10    7.70
   3   2   4   65.42    7.42
  -3  -2  -4   64.76    7.54
  -3  -2  -5   -0.08    2.06
   3   2   5    0.74    2.39
  -3  -2  -5    2.20    2.83
   3   2   5    0.42    1.64
   3   2   5    1.35    2.55
  -3  -2  -5    2.97    2.50
   3   2   5    1.91    2.50
   3   2   5   -0.04    2.41
  -3  -2  -5   -1.99    2.19
  -3  -2  -6    0.71    2.38
   3   2   6    1.17    2.30
  -3  -2  -6    3.61    2.76
   3   2   6   -2.15    3.37
  -3  -2  -6    2.36    2.64
   3   2   6    1.51    2.38
   3   2   6   -4.27    3.09
  -3  -2  -6    0.93    2.30
  -3  -2  -7    6.20    3.23
   3   2   7    4.04    3.14
  -3  -2  -7   -1.51    2.93
  -3  -2  -7    0.17    2.99
   3   2   7   -5.93    3.71
   3   2   7   -3.22    2.68
   3   2   7    2.85    2.32
  -3  -2  -7   -2.98    2.80
  -3  -2  -8    6.67    3.11
   3   2   8   -0.11    3.54
  -3  -2  -8    6.72    4.12
  -3  -2  -8    4.34    3.10
   3   2   8    4.20    4.16
   3   2   8    3.76    2.94
   3   2   8   13.28    4.16
  -3  -2  -8    2.58    2.95
  -3  -2  -9   -0.12    2.23
   3   2   9   -0.03    3.43
  -3  -2  -9    3.01    3.55
  -3  -2  -9    1.12    2.78
   3   2   9    0.01    2.79
   3   2   9    5.75    3.26
   3   2   9   -1.69    2.91
  -3  -2  -9    6.10    3.89
   3   2  10   -1.26    2.98
  -3  -2 -10    1.72    3.12
  -3  -2 -10    5.11    4.07
   3   2  10    0.14    3.35
   3   2  11    1.89    4.90
  -3  -2 -11    1.96    3.30
  -3  -2 -11   10.51    5.71
   3   2  11    0.66    6.72
   3   2  12    0.42    4.36
  -3  -2 -12    2.73    3.34
  -3  -2 -12    2.17    3.68
   3   2  12    1.44    5.50
   3   3 -14   -3.90    7.05
  -3  -3  14   -2.01    6.85
   3   3 -14   10.21   11.44
  -3  -3  14   -0.27    6.62
   3   3 -13   -0.99    5.45
  -3  -3  13   -5.40    9.92
   3   3 -13   -2.60    6.28
  -3  -3  13   -4.89    5.24
   3   3 -13   -4.20    6.69
   3   3 -12    1.18    5.45
   3   3 -12    5.01    5.74
  -3  -3  12   -5.04    3.82
  -3  -3  12    1.74    5.42
   3   3 -12    3.88    4.55
  -3  -3  12   -0.81    4.26
   3   3 -11    0.69    4.76
   3   3 -11    5.53    4.98
  -3  -3  11    3.25    4.65
  -3  -3  11    5.24    3.99
   3   3 -11    7.95    5.65
   3   3 -11    0.08    3.51
  -3  -3  11    2.65    3.20
  -3  -3  11    5.48    4.66
  -3  -3  10    1.92    3.42
   3   3 -10    0.17    3.16
   3   3 -10    0.02    3.03
  -3  -3  10    0.42    3.10
  -3  -3  10   -6.90    3.98
   3   3 -10    1.26    3.71
   3   3 -10    1.96    2.89
  -3  -3  10   -1.73    3.43
  -3  -3   9    8.05    4.72
   3   3  -9    4.71    3.24
   3   3  -9    9.44    4.44
  -3  -3   9    8.41    4.15
  -3  -3   9    7.69    4.18
   3   3  -9    9.52    4.51
   3   3  -9    7.90    4.26
  -3  -3   9    0.50    2.76
  -3  -3   8    1.56    3.03
   3   3  -8   -3.79    3.39
   3   3  -8    0.64    2.48
  -3  -3   8    1.99    2.20
  -3  -3   8   -1.30    2.78
  -3  -3   8    0.92    2.42
   3   3  -8    4.92    4.19
   3   3  -8    3.44    2.95
  -3  -3   8    2.80    3.11
   3   3  -8   -1.07    2.33
   3   3  -7    8.41    3.93
  -3  -3   7   14.53    5.63
   3   3  -7    3.55    3.51
  -3  -3   7    6.12    3.78
  -3  -3   7    2.00    3.24
   3   3  -7   12.61    5.18
   3   3  -7    0.38    2.97
  -3  -3   7   11.46    4.52
   3   3  -7    4.39    2.90
   3   3  -6    4.06    3.08
  -3  -3   6    2.02    2.37
   3   3  -6   -3.45    3.23
  -3  -3   6    2.68    2.58
  -3  -3   6   -6.14    3.25
  -3  -3   6    0.36    2.03
   3   3  -6    0.25    2.90
   3   3  -6    0.59    2.18
  -3  -3   6   -8.86    4.16
   3   3  -6    1.86    2.03
   3   3  -6    0.19    2.45
  -3  -3   6   -5.76    3.05
  -3  -3   5    7.05    3.07
   3   3  -5    7.25    3.19
  -3  -3   5   13.83    3.60
  -3  -3   5    3.05    3.01
   3   3  -5    1.45    2.34
   3   3  -5    9.37    3.46
   3   3  -5    1.65    2.02
  -3  -3   5    7.23    3.39
   3   3  -5    2.07    2.26
   3   3  -5    9.26    4.79
  -3  -3   5    6.55    2.66
  -3  -3   4   -0.66    1.83
   3   3  -4    0.14    2.46
  -3  -3   4    1.07    1.52
  -3  -3   4    1.78    2.41
  -3  -3   4    3.84    1.94
   3   3  -4    4.83    3.35
   3   3  -4    3.98    2.80
   3   3  -4   -0.93    1.96
  -3  -3   4    4.64    2.82
   3   3  -4   -0.08    1.72
  -3  -3   4    4.13    2.49
  -3  -3   3    0.82    1.69
   3   3  -3   -4.62    2.05
  -3  -3   3    2.49    2.20
   3   3  -3   -1.87    2.29
  -3  -3   3   -1.27    1.43
   3   3  -3    3.33    2.33
   3   3  -3   -0.12    1.95
  -3  -3   3    2.30    2.48
   3   3  -3    0.22    1.86
  -3  -3   3    5.80    2.59
  -3  -3   2   -2.64    2.10
  -3  -3   2    0.97    2.16
   3   3  -2   -1.19    2.06
  -3  -3   2    2.42    1.79
   3   3  -2    1.55    2.19
   3   3  -2   -0.75    1.80
   3   3  -2    0.63    2.13
  -3  -3   2    1.28    1.88
   3   3  -2   -2.07    2.12
  -3  -3   2    2.10    1.98
  -3  -3   1    0.24    2.00
  -3  -3   1    2.26    1.84
  -3  -3   1   -0.74    2.10
   3   3  -1   -0.64    1.98
  -3  -3   1    1.73    1.74
   3   3  -1    0.29    1.74
   3   3  -1    2.11    1.74
   3   3  -1    1.76    1.94
  -3  -3   1    0.83    1.93
   3   3  -1    1.77    1.86
  -3  -3   0   35.25    5.57
  -3  -3   0   46.85    6.64
  -3  -3   0   35.96    4.86
   3   3   0   30.78    4.87
   3   3   0   33.82    5.41
  -3  -3   0   39.62    6.04
   3   3   0   37.74    5.42
   3   3   0   39.74    5.86
   3   3   0   34.04    5.07
  -3  -3   0   36.78    4.79
  -3  -3   0   33.50    5.17
  -3  -3  -1    6.63    3.09
  -3  -3  -1    6.28    2.89
   3   3   1    5.96    2.53
  -3  -3  -1    1.57    1.85
   3   3   1    4.05    2.80
  -3  -3  -1   -0.01    1.38
   3   3   1    0.97    1.88
   3   3   1    3.45    2.57
   3   3   1    4.11    2.63
  -3  -3  -1    0.70    2.03
   3   3   1    5.96    2.75
  -3  -3  -1    7.51    3.00
  -3  -3  -2   14.94    3.63
  -3  -3  -2   17.20    4.22
  -3  -3  -2   23.86    4.09
   3   3   2   23.59    4.05
  -3  -3  -2   25.13    4.71
   3   3   2   20.10    4.11
   3   3   2   24.77    4.86
   3   3   2   20.08    4.39
  -3  -3  -2   20.90    4.38
   3   3   2   21.42    4.60
  -3  -3  -3   38.43    5.53
   3   3   3   41.50    5.39
  -3  -3  -3   43.25    5.62
  -3  -3  -3   41.74    5.92
   3   3   3   43.46    5.69
  -3  -3  -3   38.89    5.69
   3   3   3   34.03    5.67
   3   3   3   35.43    5.75
   3   3   3   42.35    6.13
  -3  -3  -3   39.62    5.75
  -3  -3  -4   20.29    4.60
  -3  -3  -4   26.84    5.31
   3   3   4   22.25    4.36
  -3  -3  -4   21.63    4.66
   3   3   4   26.53    4.53
  -3  -3  -4   26.38    4.82
  -3  -3  -4   28.13    4.82
   3   3   4   26.31    5.17
   3   3   4   26.76    5.11
   3   3   4   21.94    4.33
  -3  -3  -5   87.96    8.94
   3   3   5   95.60    9.20
  -3  -3  -5   82.79    9.01
  -3  -3  -5   82.82    8.89
  -3  -3  -5   84.17    8.23
   3   3   5   94.96    9.88
   3   3   5   77.31    8.34
   3   3   5   90.68    8.76
  -3  -3  -5   89.01    8.91
  -3  -3  -6    3.66    2.88
   3   3   6    5.43    3.53
  -3  -3  -6    7.74    3.98
  -3  -3  -6    8.64    3.57
   3   3   6   11.24    4.40
   3   3   6    6.07    3.44
   3   3   6   10.73    4.28
  -3  -3  -6   10.89    5.02
  -3  -3  -7  108.52   10.34
   3   3   7  109.22   11.10
  -3  -3  -7  102.99   11.28
  -3  -3  -7  111.71   12.10
   3   3   7  120.94   12.08
   3   3   7   95.02    9.34
   3   3   7  113.89   10.22
  -3  -3  -7  123.96   11.06
  -3  -3  -8   17.91    4.69
   3   3   8   18.29    5.40
  -3  -3  -8    9.87    4.93
  -3  -3  -8   14.97    5.31
   3   3   8   20.27    5.74
   3   3   8   15.73    4.43
   3   3   8   17.22    4.74
  -3  -3  -8   14.09    4.58
  -3  -3  -9    1.80    2.49
   3   3   9    2.02    5.56
  -3  -3  -9    8.05    4.44
  -3  -3  -9   11.41    5.64
   3   3   9   10.61    5.03
   3   3   9    9.78    4.05
   3   3   9    5.38    3.47
  -3  -3  -9   23.03    6.11
   3   3  10   -3.25    4.11
  -3  -3 -10   -1.01    4.14
  -3  -3 -10   -2.79    3.54
   3   3  10   -0.16    4.37
   3   3  10   -1.65    3.10
  -3  -3 -10   -0.55    4.08
   3   3  11    3.71    4.66
  -3  -3 -11    2.87    4.64
  -3  -3 -11   16.39    6.73
   3   3  11    0.32    5.74
   3   3  12    0.41    4.10
  -3  -3 -12    2.15    4.88
  -3  -3 -12    4.56    5.34
   3   3  12    1.00    6.75
   3   4 -14   -0.80    5.20
   3   4 -14   -5.82    6.75
  -3  -4  14   -0.98    7.36
  -3  -4  14   -2.45    4.50
   3   4 -14    5.87    6.83
  -3  -4  14   -9.69    7.62
  -3  -4  13   -7.46    6.53
   3   4 -13   -1.55    5.44
   3   4 -13    1.25    4.18
  -3  -4  13    0.76    5.05
  -3  -4  13    9.91    5.15
   3   4 -13   -7.48    5.65
  -3  -4  13   -0.54    3.82
  -3  -4  12   -2.59    4.53
   3   4 -12    9.01    6.45
   3   4 -12   -2.08    4.14
  -3  -4  12    1.28    5.27
   3   4 -12   -2.01    5.38
  -3  -4  12   -2.82    3.82
   3   4 -12    6.37    4.38
  -3  -4  12   -9.83    5.03
  -3  -4  11    7.63    5.27
   3   4 -11    4.12    4.37
   3   4 -11   -2.61    3.42
  -3  -4  11    0.94    3.90
   3   4 -11   -1.12    4.44
   3   4 -11    7.86    4.20
  -3  -4  11   -0.23    2.74
  -3  -4  11    6.61    4.61
  -3  -4  10   -0.77    3.20
   3   4 -10   -3.08    3.80
   3   4 -10   -0.79    3.49
  -3  -4  10    4.04    3.11
   3   4 -10    0.99    3.80
   3   4 -10   -0.21    2.45
  -3  -4  10   -2.65    2.69
  -3  -4  10   -3.81    3.99
  -3  -4   9    5.40    4.49
   3   4  -9    3.86    4.97
   3   4  -9    3.57    5.39
   3   4  -9    2.28    5.06
   3   4  -9    2.85    3.18
  -3  -4   9   -4.12    2.97
  -3  -4   9   -2.99    3.87
  -3  -4   8    0.02    3.05
   3   4  -8    0.36    2.50
  -3  -4   8    0.24    2.43
   3   4  -8   -1.99    2.60
  -3  -4   8   -6.08    4.39
   3   4  -8   -3.29    4.60
   3   4  -8   -3.80    2.84
  -3  -4   8    2.65    2.30
   3   4  -8   -2.84    2.94
  -3  -4   8    1.16    2.89
  -3  -4   8   -2.52    2.89
   3   4  -7   -2.11    3.05
  -3  -4   7    1.02    2.51
  -3  -4   7    2.69    2.33
  -3  -4   7   -2.27    3.56
   3   4  -7   10.75    3.48
   3   4  -7    6.55    4.47
   3   4  -7    3.87    2.71
  -3  -4   7    0.49    1.74
   3   4  -7    1.62    2.23
  -3  -4   7    5.04    3.37
   3   4  -7   -0.13    2.04
  -3  -4   7    0.31    2.20
   3   4  -6    9.12    4.18
  -3  -4   6    0.75    2.49
  -3  -4   6    0.65    1.92
   3   4  -6   -3.65    2.35
  -3  -4   6   -2.70    2.89
   3   4  -6   -1.77    2.84
   3   4  -6    4.90    3.31
  -3  -4   6    8.15    2.74
   3   4  -6   -0.11    2.16
  -3  -4   6    2.94    3.16
   3   4  -6   -0.04    1.92
  -3  -4   6    0.36    2.14
  -3  -4   5   -1.32    2.47
  -3  -4   5   -0.45    2.02
   3   4  -5   -2.02    2.08
   3   4  -5    0.45    2.58
   3   4  -5   -2.37    2.55
  -3  -4   5    2.10    1.54
   3   4  -5   -0.02    2.09
  -3  -4   5   -2.09    2.39
   3   4  -5    0.19    2.09
   3   4  -4   63.71    8.71
   3   4  -4   66.04    8.31
  -3  -4   4   55.82    8.14
   3   4  -4   76.92    6.61
   3   4  -4   70.16    7.87
   3   4  -4   69.18    6.19
  -3  -4   4   50.67    5.29
  -3  -4   4   72.87    7.52
  -3  -4   4   59.88    7.50
  -3  -4   3   -2.60    2.37
  -3  -4   3    1.70    1.89
  -3  -4   3   -1.82    2.35
   3   4  -3    1.85    2.44
   3   4  -3    1.11    2.01
   3   4  -3    6.16    2.42
   3   4  -3   -0.11    2.36
  -3  -4   3    0.75    1.96
   3   4  -3    0.40    2.46
  -3  -4   2   15.69    3.81
  -3  -4   2   11.14    3.15
  -3  -4   2   11.46    3.36
  -3  -4   2   11.05    3.25
   3   4  -2   11.88    4.07
   3   4  -2   18.84    4.77
   3   4  -2   13.33    3.33
  -3  -4   2   17.40    4.30
   3   4  -2   18.64    4.12
  -3  -4   1    2.76    2.26
  -3  -4   1    5.30    2.37
  -3  -4   1    4.26    2.37
  -3  -4   1    6.31    2.75
   3   4  -1    1.95    2.39
   3   4  -1    4.34    2.52
   3   4  -1    1.84    2.03
  -3  -4   1    3.50    2.26
   3   4  -1    5.09    2.52
  -3  -4   0   41.60    5.94
  -3  -4   0   59.61    6.81
   3   4   0   45.23    6.73
   3   4   0   46.26    6.02
  -3  -4   0   44.43    6.32
   3   4   0   48.46    6.12
  -3  -4   0   53.12    5.83
  -3  -4   0   40.65    5.88
  -3  -4  -1    7.89    3.21
  -3  -4  -1    3.65    1.62
  -3  -4  -1    4.67    2.83
   3   4   1    3.46    1.67
  -3  -4  -1    4.07    2.64
   3   4   1    8.71    3.49
   3   4   1    8.91    3.37
  -3  -4  -1    2.99    2.53
   3   4   1    2.34    2.13
  -3  -4  -2    1.80    2.16
  -3  -4  -2   -0.02    1.48
  -3  -4  -2    4.79    2.87
   3   4   2    2.00    1.80
  -3  -4  -2    2.87    2.46
   3   4   2   -1.54    1.85
   3   4   2    3.25    2.80
  -3  -4  -2    4.29    2.38
   3   4   2   -1.63    2.71
  -3  -4  -3    3.72    2.76
  -3  -4  -3   11.53    4.12
   3   4   3    9.10    3.25
  -3  -4  -3    8.92    3.66
   3   4   3    3.03    2.67
  -3  -4  -3    3.50    2.59
   3   4   3    9.28    3.54
  -3  -4  -4   18.36    4.72
  -3  -4  -4   20.86    4.83
   3   4   4    5.15    2.55
  -3  -4  -4   10.51    4.07
   3   4   4   15.08    4.33
  -3  -4  -4   21.50    4.72
   3   4   4   10.10    3.46
  -3  -4  -5    9.60    3.95
  -3  -4  -5   15.02    4.94
   3   4   5   10.85    4.43
  -3  -4  -5    4.88    3.53
   3   4   5   10.73    4.46
  -3  -4  -5   14.50    4.57
   3   4   5   13.07    5.08
  -3  -4  -6   24.72    5.83
  -3  -4  -6   23.35    5.98
   3   4   6   21.17    5.23
  -3  -4  -6   18.03    4.91
   3   4   6   18.21    5.31
   3   4   6   20.43    5.09
   3   4   6   15.49    4.45
  -3  -4  -7   25.77    6.31
  -3  -4  -7    9.24    4.51
   3   4   7   18.45    5.68
  -3  -4  -7   11.91    5.20
   3   4   7    8.55    4.21
   3   4   7   16.73    4.93
  -3  -4  -8   24.55    7.29
   3   4   8   24.53    6.31
  -3  -4  -8   33.81    8.26
   3   4   8   22.92    6.05
   3   4   8   23.45    6.08
   3   4   9    6.50    3.97
  -3  -4  -9    8.28    4.95
   3   4   9   -1.45    3.94
   3   4   9   -3.51    5.16
  -3  -4  -9   -3.34    6.17
   3   4  10    7.37   12.43
  -3  -4 -10    7.55    5.92
   3   4  10   -2.03    4.33
  -3  -5  13   -2.51    6.41
   3   5 -13    2.37    4.99
   3   5 -13   -0.05    4.46
  -3  -5  13   -0.86    7.76
   3   5 -13    0.64    6.83
  -3  -5  13   -0.03    3.34
  -3  -5  13  -11.69    7.62
  -3  -5  12    0.75    4.26
   3   5 -12   -9.29    6.78
   3   5 -12   -1.97    3.36
  -3  -5  12    0.74    5.20
   3   5 -12    1.16    5.08
  -3  -5  12  -13.36    7.02
  -3  -5  12   -1.67    2.94
  -3  -5  11   -6.97    6.24
   3   5 -11    8.64    6.05
   3   5 -11    3.66    3.63
   3   5 -11    1.53    4.21
  -3  -5  11   16.66    6.78
  -3  -5  11    8.01    4.15
  -3  -5  10    1.84    4.27
   3   5 -10   -3.46    3.13
   3   5 -10    2.97    4.40
  -3  -5  10    3.05    3.55
  -3  -5  10    9.02    4.18
  -3  -5   9    4.50    3.02
  -3  -5   9    4.38    4.11
   3   5  -9    6.33    4.27
   3   5  -9    2.95    4.82
  -3  -5   9   -5.80    4.66
  -3  -5   8   20.73    6.20
  -3  -5   8   20.10    5.13
   3   5  -8   16.58    4.89
   3   5  -8   26.27    7.17
   3   5  -8   28.27    6.33
  -3  -5   8   19.40    6.30
  -3  -5   7    6.40    3.58
  -3  -5   7    4.48    3.31
  -3  -5   7    1.65    2.46
   3   5  -7   -3.40    2.90
   3   5  -7   -5.78    4.52
   3   5  -7    1.07    2.68
   3   5  -7    4.28    3.07
  -3  -5   7    0.42    2.55
  -3  -5   6   19.35    4.74
  -3  -5   6   24.22    6.11
  -3  -5   6   24.14    5.14
   3   5  -6   21.87    5.14
   3   5  -6   15.65    5.66
   3   5  -6   15.09    4.81
   3   5  -6   16.33    4.67
  -3  -5   6   19.22    5.48
  -3  -5   5    1.22    2.43
  -3  -5   5   -4.29    3.10
  -3  -5   5   -3.54    2.76
   3   5  -5   -3.17    4.25
   3   5  -5   -2.52    2.79
  -3  -5   5   -3.11    3.46
  -3  -5   4   17.13    4.31
  -3  -5   4    0.61    3.10
  -3  -5   4    9.83    4.24
   3   5  -4   20.58    5.89
   3   5  -4    9.87    4.01
  -3  -5   4   20.34    5.16
  -3  -5   3   25.69    5.24
  -3  -5   3   15.14    6.02
  -3  -5   3   30.57    5.93
   3   5  -3   24.79    5.56
   3   5  -3   26.17    4.29
   3   5  -3   10.30    6.46
  -3  -5   3   22.16    5.19
  -3  -5   2    0.27    2.65
  -3  -5   2    5.39    3.17
  -3  -5   2    4.29    2.78
  -3  -5   2   -0.48    2.19
   3   5  -2    5.00    3.03
  -3  -5   1   19.86    5.08
  -3  -5   1   20.43    4.98
  -3  -5   1   21.18    4.61
  -3  -5   1   14.57    4.56
   3   5  -1   15.04    4.45
  -3  -5   0   21.78    5.51
  -3  -5   0   17.25    4.82
  -3  -5   0   15.66    3.71
  -3  -5   0   22.00    5.35
   3   5   0   19.86    5.22
  -3  -5  -1   -0.66    2.91
  -3  -5  -1   -5.14    3.95
  -3  -5  -1    2.41    2.18
  -3  -5  -1    2.75    2.41
   3   5   1    7.09    3.78
  -3  -5  -2  144.26   13.28
   3   5   2  166.96   12.36
  -3  -5  -2  115.74   11.35
   3   5   2  170.61   13.91
  -3  -5  -2  129.97   12.48
  -3  -5  -3    1.31    3.22
  -3  -5  -3   -1.63    3.82
   3   5   3    7.24    3.85
  -3  -5  -3    6.94    3.52
  -3  -5  -4   -0.76    3.09
   3   5   4   -3.90    3.12
  -3  -5  -4    0.64    2.45
  -3  -5  -5    6.05    4.18
  -3  -6  12   14.20    8.32
   3   6 -12    0.67    5.16
  -3  -6  11    8.00    7.29
   3   6 -11    6.41    8.00
  -3  -6  10    1.91    4.04
   3   6 -10   -1.12    3.77
  -3  -6  10    2.82    4.54
  -3  -6   9    0.74    4.25
   3   6  -9   -0.90    4.28
  -3  -6   9    5.91    5.01
  -3  -6   8    8.62    4.70
  -3  -6   8   -3.41    3.94
  -3  -6   7   -1.72    2.75
  -3  -6   7   -5.88    4.01
  -3  -6   7   -1.60    3.27
  -3  -6   6   -3.72    4.01
  -3  -6   6    1.16    3.05
  -3  -6   5    0.27    3.05
  -3  -6   5    2.63    2.81
  -4  -2   3    0.88    2.91
   4   2  -3    1.09    2.63
  -4  -2   2   -7.22    4.11
   4   2  -2   -3.18    3.51
  -4  -2   2  -11.09    4.27
  -4  -2   1   23.33    6.15
   4   2  -1    6.45    4.00
  -4  -2   1   14.53    3.97
  -4  -2   1   33.70    6.93
  -4  -2   0   -2.17    3.86
  -4  -2   0   -2.75    3.36
   4   2   0   10.17    4.24
  -4  -2   0   10.10    4.36
  -4  -2  -1   -2.66    3.87
  -4  -2  -1   -3.33    2.50
   4   2   1   -7.30    4.33
  -4  -2  -1   -8.97    4.69
  -4  -2  -2    4.29    3.82
   4   2   2    2.24    2.69
  -4  -2  -2    6.53    3.93
  -4  -2  -2   12.86    4.10
   4   2   2    9.51    4.65
  -4  -2  -2    9.22    4.26
  -4  -2  -3    1.72    3.26
  -4  -2  -3    6.15    3.97
   4   2   3    1.28    2.98
  -4  -2  -3    6.63    3.52
   4   2   3   -0.08    2.92
  -4  -2  -3    5.75    3.73
  -4  -2  -4   21.00    6.04
  -4  -2  -4   25.21    6.54
   4   2   4   23.43    5.40
  -4  -2  -4   24.61    5.87
   4   2   4   29.36    6.87
  -4  -2  -4   16.36    4.94
  -4  -2  -5   -2.53    3.38
  -4  -2  -5    2.16    3.42
  -4  -2  -5   -2.22    3.59
   4   2   5   -7.72    4.75
  -4  -2  -6    6.15    4.04
  -4  -2  -6    3.79    4.18
  -4  -2  -6   11.96    5.43
   4   2   6    5.33    3.80
  -4  -2  -7   13.77    5.45
  -4  -2  -7   16.43    6.40
  -4  -2  -7   14.64    5.67
   4   2   7   14.98    5.00
  -4  -2  -8    7.68    5.12
  -4  -2  -8    1.12    3.61
  -4  -2  -8   -5.08    5.23
   4   2   8   -2.50    4.00
  -4  -2  -9   -5.98    4.37
  -4  -2  -9    4.37    4.40
  -4  -2  -9   -2.61    4.90
   4   2   9    3.15    4.77
  -4  -2 -10   -2.76    4.76
  -4  -2 -10   -4.55    5.62
   4   3 -10    1.21    4.89
   4   3  -9  -12.26    7.47
   4   3  -9   -6.26    6.67
  -4  -3   9   -1.23    3.59
  -4  -3   8   -1.80    4.64
   4   3  -8    5.10    5.48
   4   3  -8    4.75    4.07
  -4  -3   8  -13.38    6.08
   4   3  -8    4.06    5.14
  -4  -3   7   -1.82    3.51
   4   3  -7   -4.10    4.65
   4   3  -7    2.37    3.08
  -4  -3   7   -1.27    3.29
   4   3  -7   -1.49    4.64
  -4  -3   7    1.31    3.74
  -4  -3   6    1.23    3.83
   4   3  -6    3.92    3.48
   4   3  -6    8.07    4.08
  -4  -3   6   -7.84    4.95
   4   3  -6    0.49    3.75
  -4  -3   5    0.46    3.44
   4   3  -5   -2.35    3.70
   4   3  -5    1.64    2.63
  -4  -3   5    2.73    3.23
  -4  -3   5    7.52    4.09
  -4  -3   4    0.72    3.18
   4   3  -4    7.32    4.27
  -4  -3   4    7.84    3.53
   4   3  -4    3.71    3.25
  -4  -3   4    5.37    4.06
   4   3  -4    0.62    3.05
  -4  -3   4    6.23    3.57
  -4  -3   3   20.85    5.53
   4   3  -3   24.86    6.10
  -4  -3   3   25.14    5.18
   4   3  -3   20.51    5.51
  -4  -3   3   23.92    6.14
   4   3  -3   29.97    6.55
  -4  -3   3   29.78    6.43
  -4  -3   2    8.58    4.20
   4   3  -2    5.35    3.39
  -4  -3   2   12.22    4.06
   4   3  -2    2.85    2.54
  -4  -3   2   15.44    5.15
   4   3  -2   10.52    4.52
  -4  -3   2    9.79    4.12
  -4  -3   1   25.24    5.98
   4   3  -1   18.41    4.47
  -4  -3   1   30.94    5.71
   4   3  -1   29.68    6.28
  -4  -3   1   23.74    6.00
   4   3  -1   30.19    6.09
  -4  -3   1   28.34    6.28
  -4  -3   0   32.01    6.77
  -4  -3   0   42.07    7.33
   4   3   0   36.89    6.81
  -4  -3   0   31.57    6.86
   4   3   0   35.25    6.78
  -4  -3   0   34.60    6.99
  -4  -3  -1   98.24   11.06
  -4  -3  -1   94.52    9.68
   4   3   1  100.34   10.68
  -4  -3  -1   98.58   11.21
   4   3   1  111.49   11.31
   4   3   1  104.69   10.71
   4   3   1   93.03    9.87
  -4  -3  -1   98.45   10.50
  -4  -3  -2   -1.04    2.91
  -4  -3  -2   -4.13    3.43
   4   3   2    2.29    2.28
  -4  -3  -2   -4.68    3.36
   4   3   2   -0.69    3.53
   4   3   2    1.22    2.79
   4   3   2   -1.29    2.92
  -4  -3  -2    3.12    3.11
  -4  -3  -3  115.74   11.77
  -4  -3  -3  108.72   10.89
  -4  -3  -3  112.24   10.02
   4   3   3  114.34   10.84
   4   3   3  121.57   12.11
   4   3   3  116.20   11.90
   4   3   3  106.04   10.81
  -4  -3  -3  110.16   11.68
  -4  -3  -4    2.14    2.96
  -4  -3  -4    1.90    2.98
   4   3   4    2.31    2.36
  -4  -3  -4    2.76    2.71
   4   3   4   -2.23    3.35
   4   3   4    1.33    2.90
   4   3   4    6.60    4.05
  -4  -3  -4   -0.33    2.77
  -4  -3  -5    9.20    4.08
  -4  -3  -5   13.06    4.82
  -4  -3  -5    9.08    3.93
   4   3   5   13.27    5.46
   4   3   5   12.82    4.36
   4   3   5   11.18    5.23
  -4  -3  -5    4.52    3.37
  -4  -3  -6   -0.03    2.84
   4   3   6   -2.38    4.12
  -4  -3  -6   -2.57    3.69
  -4  -3  -6   -4.51    3.85
   4   3   6   -1.51    3.47
   4   3   6    6.54    3.92
   4   3   6   -6.22    4.10
  -4  -3  -6   -1.88    3.33
  -4  -3  -7   14.45    4.98
   4   3   7   15.92    6.46
  -4  -3  -7   12.65    5.59
  -4  -3  -7   15.13    5.55
   4   3   7   18.84    6.30
   4   3   7   24.97    6.11
   4   3   7   18.82    5.54
  -4  -3  -7   13.29    5.03
  -4  -3  -8    0.99    4.06
   4   3   8   19.54    7.72
  -4  -3  -8    4.25    4.21
  -4  -3  -8    4.45    4.79
   4   3   8   14.55    6.31
   4   3   8   14.04    5.29
  -4  -3  -8    4.10    3.42
  -4  -3  -9    2.93    4.33
   4   3   9   -2.39    5.57
  -4  -3  -9    4.27    3.55
  -4  -3  -9    3.10    4.17
   4   3   9    1.63    4.52
   4   3   9    2.62    3.88
  -4  -3  -9    6.78    5.05
   4   4 -12    2.97    6.24
   4   4 -12    9.13    9.34
  -4  -4  12   -4.62    6.61
   4   4 -11   -1.00    4.76
   4   4 -11   13.27    7.43
  -4  -4  11    3.52    5.02
  -4  -4  11    5.07    5.32
   4   4 -10   -3.33    4.74
   4   4 -10    1.45    3.98
  -4  -4  10    0.38    3.91
  -4  -4  10   -6.11    5.11
   4   4  -9    0.59    3.75
   4   4  -9   -4.00    4.20
  -4  -4   9   -1.03    3.67
  -4  -4   9   -1.07    4.09
  -4  -4   8    3.87    6.47
   4   4  -8   16.84    6.68
   4   4  -8   13.56    5.21
  -4  -4   8    7.30    4.39
   4   4  -8    4.99    4.57
  -4  -4   8   10.35    4.78
  -4  -4   7    0.94    3.09
   4   4  -7   -0.31    3.41
   4   4  -7    4.96    3.73
  -4  -4   7    1.92    3.59
   4   4  -7    8.99    4.37
   4   4  -7   -1.51    5.38
  -4  -4   7    3.64    3.82
  -4  -4   7    4.76    3.58
  -4  -4   6    4.82    4.01
   4   4  -6   -0.34    3.87
   4   4  -6    6.03    3.75
  -4  -4   6    6.28    4.09
   4   4  -6    3.62    3.94
   4   4  -6    0.61    3.10
  -4  -4   6   11.06    4.83
  -4  -4   6   10.62    4.28
  -4  -4   5    1.66    3.80
   4   4  -5    3.24    3.79
   4   4  -5    5.48    3.62
  -4  -4   5    3.04    3.12
   4   4  -5    3.52    3.26
   4   4  -5   -0.03    2.41
  -4  -4   5   -0.11    2.63
  -4  -4   5    1.23    2.58
  -4  -4   4    0.56    3.40
   4   4  -4    1.60    2.87
   4   4  -4    7.72    4.03
  -4  -4   4    2.70    2.82
   4   4  -4    1.43    3.12
   4   4  -4    0.23    2.43
  -4  -4   4   10.71    4.21
  -4  -4   4    7.56    3.86
  -4  -4   3   -5.95    3.74
  -4  -4   3   -0.33    3.64
   4   4  -3  -10.08    5.43
   4   4  -3   -7.62    3.86
   4   4  -3   -0.45    3.43
  -4  -4   3   -4.15    4.00
   4   4  -3    0.22    2.90
  -4  -4   3   -0.23    2.54
  -4  -4   2    2.38    3.01
  -4  -4   2   -1.63    2.72
   4   4  -2    0.42    2.63
   4   4  -2   -1.23    2.77
   4   4  -2   -5.51    3.99
  -4  -4   2    2.59    2.31
   4   4  -2    0.44    2.80
  -4  -4   2   -3.27    3.47
  -4  -4   2   -0.33    2.39
  -4  -4   1   -2.41    3.17
  -4  -4   1   -1.67    2.31
   4   4  -1   -1.27    2.72
   4   4  -1   -3.61    3.54
   4   4  -1   -4.40    3.36
  -4  -4   1    0.69    2.82
   4   4  -1   -1.77    2.80
  -4  -4   1    6.15    5.70
  -4  -4   1    0.98    2.64
  -4  -4   0    3.17    3.17
  -4  -4   0    6.03    3.39
   4   4   0    5.35    3.23
   4   4   0    0.04    2.76
   4   4   0    3.91    3.50
  -4  -4   0    1.13    2.65
   4   4   0    1.80    2.73
  -4  -4   0    2.79    2.93
  -4  -4  -1   -0.36    2.60
  -4  -4  -1    5.77    3.27
   4   4   1    2.81    3.05
   4   4   1   -3.42    3.20
  -4  -4  -1    3.85    3.20
   4   4   1    1.31    2.82
   4   4   1    0.17    2.75
  -4  -4  -1    5.21    3.46
  -4  -4  -2   48.21    7.84
  -4  -4  -2   40.50    6.85
   4   4   2   47.50    7.59
  -4  -4  -2   44.70    8.01
   4   4   2   52.33    8.14
   4   4   2   43.91    7.44
   4   4   2   48.50    7.51
  -4  -4  -2   42.05    7.21
  -4  -4  -3   16.65    5.07
  -4  -4  -3   16.62    4.49
   4   4   3   15.93    4.82
   4   4   3   29.49    6.50
  -4  -4  -3   12.95    4.65
   4   4   3   12.90    4.36
   4   4   3   17.77    5.79
  -4  -4  -3   20.35    5.44
  -4  -4  -4   27.15    6.23
  -4  -4  -4   31.56    6.84
   4   4   4   27.58    6.39
  -4  -4  -4   28.59    6.97
   4   4   4   24.57    5.89
   4   4   4   25.18    6.03
  -4  -4  -4   27.21    6.31
  -4  -4  -5   22.70    5.97
  -4  -4  -5   29.82    6.85
   4   4   5   15.90    5.18
   4   4   5   14.12    4.66
   4   4   5   21.38    5.26
  -4  -4  -5   32.35    7.11
  -4  -4  -6    8.51    4.36
  -4  -4  -6   12.44    5.52
  -4  -4  -6   11.23    5.19
   4   4   6   12.44    5.27
   4   4   6    3.56    3.22
   4   4   6    8.72    4.51
  -4  -4  -6    4.00    3.42
  -4  -4  -7   20.88    6.35
   4   4   7   15.01    6.13
  -4  -4  -7   19.60    6.27
  -4  -4  -7   18.44    7.55
   4   4   7   17.48    6.01
   4   4   7   23.46    5.81
   4   4   7   41.92    9.11
  -4  -4  -7   14.76    5.68
  -4  -4  -8   -1.05    3.66
   4   4   8    8.30    7.02
  -4  -4  -8   -5.78    5.03
   4   4   8  -12.13    6.44
   4   4   8   -3.17    3.59
   4   4   8   -7.00    5.13
  -4  -4  -8    1.56    4.96
   4   4   9    9.18    7.01
  -4  -4  -9    3.42    4.67
   4   4   9   -0.03    5.71
   4   4   9   -2.53    4.02
  -4  -4  -9   16.25    8.71
  -4  -5  11    4.91    5.41
   4   5 -11   -6.40    5.93
   4   5 -11    0.61    4.64
  -4  -5  11    0.51    4.22
  -4  -5  10    1.64    4.09
   4   5 -10   -5.16    6.00
   4   5 -10   -0.52    4.50
  -4  -5  10    5.03    3.87
  -4  -5   9    7.45    5.12
   4   5  -9   -0.77    3.89
   4   5  -9   -1.88    3.18
  -4  -5   9   -6.67    5.44
  -4  -5   8   -0.40    3.24
  -4  -5   8   -4.70    5.06
   4   5  -8    0.94    3.92
   4   5  -8   -1.22    3.33
  -4  -5   8    7.22    4.59
  -4  -5   7   -4.29    3.81
  -4  -5   7    0.38    4.34
   4   5  -7    2.40    3.89
   4   5  -7    1.34    2.75
  -4  -5   7   -5.09    4.69
   4   5  -7   -4.08    4.21
   4   5  -7    1.74    4.56
  -4  -5   7   -6.56    4.70
  -4  -5   6    3.54    3.73
  -4  -5   6    3.53    4.18
   4   5  -6    6.95    4.93
   4   5  -6    8.00    4.19
   4   5  -6   11.54    4.92
  -4  -5   6    6.33    4.33
   4   5  -6    0.88    3.13
  -4  -5   6    9.62    4.44
  -4  -5   5   -4.31    3.46
  -4  -5   5   -1.33    2.72
   4   5  -5    4.29    4.15
   4   5  -5    1.47    2.74
   4   5  -5    5.71    3.79
  -4  -5   5   -0.69    2.91
   4   5  -5    1.14    2.94
  -4  -5   5   -3.18    3.78
  -4  -5   4    7.91    3.97
  -4  -5   4    3.43    4.14
   4   5  -4   12.50    5.17
   4   5  -4    8.41    4.32
   4   5  -4   14.68    4.61
  -4  -5   4   10.52    4.59
   4   5  -4    1.05    3.22
  -4  -5   4   17.90    4.89
  -4  -5   3   -9.00    4.35
  -4  -5   3   -1.52    2.93
   4   5  -3    1.89    3.04
   4   5  -3   -2.03    2.90
   4   5  -3    0.69    3.33
  -4  -5   3   -3.32    3.67
   4   5  -3   -0.34    3.28
  -4  -5   3   -4.88    3.44
  -4  -5   2  103.84   11.20
   4   5  -2   97.72   11.60
  -4  -5   2  113.13   12.47
   4   5  -2  101.14   10.05
   4   5  -2  111.61   11.88
  -4  -5   2   94.26   10.44
  -4  -5   2  100.77   10.73
  -4  -5   1    5.38    3.91
  -4  -5   1    5.40    3.10
  -4  -5   1   -7.02    5.06
   4   5  -1   -1.93    3.57
   4   5  -1    4.21    3.30
   4   5  -1    0.12    2.94
  -4  -5   1    2.26    2.83
   4   5  -1    5.82    3.68
  -4  -5   0    0.39    3.51
  -4  -5   0    6.13    3.42
  -4  -5   0   -7.37    4.82
   4   5   0    1.11    2.84
   4   5   0   -7.94    3.68
   4   5   0    1.50    2.93
  -4  -5   0    3.52    3.51
   4   5   0   -0.11    2.72
  -4  -5  -1   21.76    5.82
  -4  -5  -1   18.29    5.51
  -4  -5  -1    8.92    3.58
   4   5   1   19.00    5.36
   4   5   1   20.04    5.83
  -4  -5  -1   18.33    5.18
   4   5   1    2.29    3.44
  -4  -5  -2   89.13   11.02
  -4  -5  -2   85.59   10.86
  -4  -5  -2   93.30   11.42
   4   5   2   97.36   11.44
   4   5   2   85.20   10.72
   4   5   2   65.90    8.62
  -4  -5  -2   89.15   10.78
  -4  -5  -3   -9.24    4.35
  -4  -5  -3   -4.67    4.67
  -4  -5  -3   -4.70    4.34
   4   5   3    7.50    5.08
   4   5   3   -5.09    3.68
  -4  -5  -3   -4.84    4.50
   4   5   3   -8.71    5.50
  -4  -5  -4    0.24    3.21
  -4  -5  -4    0.61    3.04
   4   5   4   -6.53    4.87
   4   5   4   -7.30    4.98
  -4  -5  -4  -11.00    6.06
   4   5   4    4.97    3.99
  -4  -5  -4   -6.10    4.84
  -4  -5  -5   -5.99    5.15
  -4  -5  -5    7.30    5.28
   4   5   5   -3.21    4.31
   4   5   5   -2.62    3.98
   4   5   5   -0.46    3.78
  -4  -5  -5    8.45    4.77
  -4  -5  -6    8.00    5.10
  -4  -5  -6   -0.46    3.53
   4   5   6    2.51    4.58
   4   5   6    2.63    4.39
  -4  -5  -6   -4.13    3.95
  -4  -5  -7    6.73    4.79
   4   5   7   -0.83    4.20
   4   5   7  -10.46    5.34
  -4  -5  -7   -1.64    5.29
  -4  -5  -8    1.27    3.57
   4   5   8   -5.16    3.99
  -4  -6  10    0.63    3.94
   4   6 -10    0.37    5.44
  -4  -6  10   -5.12    5.42
  -4  -6   9    1.64    4.33
   4   6  -9    5.80    6.67
  -4  -6   9   16.62    7.08
  -4  -6   8   -0.68    3.80
  -4  -6   8    0.12    3.43
  -4  -6   7    3.91    4.45
   4   6  -7   -3.56    6.64
   4   6  -7   -1.70    3.85
  -4  -6   7   -4.81    4.04
  -4  -6   7    3.07    3.87
  -4  -6   6    7.77    5.24
   4   6  -6   14.23    4.14
  -4  -6   6    2.48    3.67
  -4  -6   6   14.51    5.37
  -4  -6   5    3.29    4.68
   4   6  -5   -5.34    4.18
  -4  -6   5    4.58    4.07
  -4  -6   5   -5.62    3.53
  -4  -6   4    6.81    4.41
  -4  -6   4    6.95    4.58
   4   6  -4    9.43    4.43
  -4  -6   4    3.21    3.78
  -4  -6   3   10.06    4.60
  -4  -6   3    2.41    2.97
  -4  -6   3    5.86    4.00
   4   6  -3    4.34    4.04
  -4  -6   3   10.04    4.86
  -4  -6   2    9.36    4.78
  -4  -6   2   16.19    6.72
  -4  -6   2   12.63    5.22
   4   6  -2   24.36    7.58
  -4  -6   2   11.53    5.79
  -4  -6   1    1.74    3.88
  -4  -6   1   -1.08    3.65
   4   6  -1    4.52    3.74
   4   6  -1    4.38    5.38
  -4  -6   1    0.34    3.50
   4   6  -1    4.50    3.95
  -4  -6   0   -2.76    4.33
  -4  -6   0    0.48    3.19
   4   6   0    3.91    3.80
   4   6   0    4.72    5.41
  -4  -6   0   -0.01    3.97
   4   6   0    1.71    3.49
  -4  -6  -1    3.45    4.80
  -4  -6  -1  -11.57    5.42
   4   6   1  -10.95    6.37
   4   6   1    4.16    4.88
  -4  -6  -1    4.00    4.57
  -4  -6  -2   -0.54    4.44
  -4  -6  -2    0.43    3.52
   4   6   2    2.86    5.74
   4   6   2   -6.34    6.35
  -4  -6  -3    2.33    4.24
   4   6   3    0.30    6.58
   4   6   3   -4.69    6.02
  -5  -3  -1    3.25    4.17
   5   3   1    4.62    4.70
  -5  -3  -2    3.26    5.60
   5   3   2    8.04    5.32
  -5  -3  -3   12.77    5.80
   5   3   3   -1.65    4.38
  -5  -3  -4    7.16    5.65
   5   3   4   11.40    6.35
  -5  -3  -5   -1.73    3.80
   5   3   5   -5.98    5.54
   5   4  -7   -0.82    3.85
  -5  -4   7   -3.24    4.67
   5   4  -6   20.06    7.17
  -5  -4   6    0.28    3.52
  -5  -4   5    0.69    4.61
   5   4  -5    6.91    4.81
  -5  -4   5   -4.92    4.70
   5   4  -5    1.07    4.81
  -5  -4   4    0.99    4.04
   5   4  -4   -8.89    5.22
  -5  -4   4   -5.16    4.30
   5   4  -4   -0.23    3.73
  -5  -4   3   -4.44    4.71
   5   4  -3    3.86    3.45
  -5  -4   3    6.15    4.68
   5   4  -3   16.25    6.31
   5   4  -3    1.89    3.50
  -5  -4   3   13.85    5.83
  -5  -4   2   36.15    8.36
   5   4  -2   27.01    7.47
  -5  -4   2   28.77    8.27
   5   4  -2   56.16    9.82
   5   4  -2   24.96    6.91
  -5  -4   2   30.32    7.70
  -5  -4   1   17.24    6.36
  -5  -4   1    0.02    3.58
   5   4  -1   15.36    5.96
  -5  -4   1    6.89    4.58
   5   4  -1   10.61    5.34
   5   4  -1   13.03    5.28
  -5  -4   1   12.41    5.51
  -5  -4   0   11.15    5.67
  -5  -4   0    6.97    4.54
   5   4   0   20.10    6.69
  -5  -4   0    3.14    4.73
   5   4   0   10.37    5.18
   5   4   0   12.88    5.15
  -5  -4   0    7.50    4.68
  -5  -4  -1   13.37    5.92
  -5  -4  -1   13.94    5.43
   5   4   1   19.83    6.51
   5   4   1   19.91    6.49
   5   4   1   19.01    6.08
  -5  -4  -1    6.83    4.43
  -5  -4  -2    9.13    5.23
  -5  -4  -2    3.54    3.69
   5   4   2    2.39    3.48
   5   4   2    4.24    4.39
   5   4   2    4.27    4.31
  -5  -4  -2    5.46    4.23
  -5  -4  -3   11.96    5.69
  -5  -4  -3    9.72    5.37
   5   4   3   13.50    5.84
   5   4   3    9.80    4.96
  -5  -4  -3   17.54    6.29
  -5  -4  -4   -1.40    3.65
  -5  -4  -4   -1.36    4.22
   5   4   4   -3.32    4.44
   5   4   4    0.67    3.93
  -5  -4  -4   -8.77    5.48
  -5  -4  -5    1.04    5.23
  -5  -4  -5   -2.18    5.49
   5   4   5    1.74    3.86
   5   4   5   -7.43    5.63
  -5  -4  -5    2.49    4.43
   5   5  -8   -2.54    6.37
   5   5  -8    8.23    5.31
  -5  -5   8    4.29    5.38
  -5  -5   7   -0.45    6.94
   5   5  -7    1.19    5.52
   5   5  -7   -0.12    3.72
  -5  -5   7   -2.58    4.52
   5   5  -7   -0.17    5.65
  -5  -5   6    6.87    9.02
   5   5  -6   21.17    8.81
   5   5  -6   25.95    8.10
  -5  -5   6   15.40    6.35
   5   5  -6   39.08    9.17
   5   5  -6    4.38    8.75
  -5  -5   6   31.53    8.45
  -5  -5   5   -4.77    4.58
   5   5  -5    9.54    4.97
  -5  -5   5   -1.98    3.44
   5   5  -5   -1.24    4.28
   5   5  -5    0.55    4.59
  -5  -5   5   -1.63    3.91
  -5  -5   4   -1.27    3.32
   5   5  -4   -3.19    4.08
  -5  -5   4   -3.74    3.76
   5   5  -4    4.82    4.91
   5   5  -4    0.71    4.36
  -5  -5   4   -0.13    4.15
  -5  -5   3    2.64    3.44
   5   5  -3   -5.61    4.57
  -5  -5   3    9.25    5.49
   5   5  -3   -2.54    3.64
   5   5  -3    7.35    4.66
  -5  -5   3   -3.46    4.21
  -5  -5   2   18.63    6.27
   5   5  -2   15.15    5.85
  -5  -5   2   18.60    6.80
   5   5  -2   13.87    5.62
   5   5  -2   17.78    5.59
  -5  -5   2   22.50    6.35
  -5  -5   1    5.72    4.90
   5   5  -1   -1.12    3.67
  -5  -5   1   -3.11    3.55
   5   5  -1    3.57    4.61
   5   5  -1    6.93    4.52
  -5  -5   1    6.01    4.40
  -5  -5   0    3.67    3.91
  -5  -5   0   14.47    6.62
   5   5   0    7.65    4.98
  -5  -5   0    7.54    5.45
   5   5   0   -2.51    4.93
   5   5   0    8.67    5.17
  -5  -5   0   -2.10    4.40
  -5  -5  -1   -7.39    5.10
  -5  -5  -1   -9.59    5.79
   5   5   1  -10.79    5.95
  -5  -5  -1   -8.73    5.22
   5   5   1   -5.79    4.80
   5   5   1  -12.82    6.97
  -5  -5  -1   -8.34    5.61
  -5  -5  -2   -0.65    3.89
  -5  -5  -2   12.90    6.06
  -5  -5  -2   -3.71    5.64
   5   5   2    0.29    3.96
   5   5   2   -7.65    5.44
   5   5   2  -16.83    8.22
  -5  -5  -2    0.31    4.36
  -5  -5  -3   -1.90    3.57
  -5  -5  -3   -0.71    3.65
   5   5   3   -4.39    5.83
   5   5   3    1.51    4.33
   5   5   3    5.36    3.94
  -5  -5  -3    2.86    3.88
  -5  -5  -4   -5.85    6.01
  -5  -5  -4  -14.70    8.20
   5   5   4  -15.57    6.99
   5   5   4  -11.59    5.84
  -5  -5  -4   -2.43    4.78
  -5  -6   6    3.26    6.63
   5   6  -6   15.77    6.66
  -5  -6   6    2.15    4.28
   5   6  -6    5.02    4.74
  -5  -6   6    2.73    4.46
  -5  -6   6    3.60    6.95
  -5  -6   5   -7.33    5.41
   5   6  -5    6.79    4.96
  -5  -6   5   -2.71    4.38
   5   6  -5    0.73    3.58
   5   6  -5    0.34    5.07
  -5  -6   5   -6.78    4.63
  -5  -6   4   -4.98    4.94
   5   6  -4    1.76    3.53
  -5  -6   4   -0.81    3.53
   5   6  -4    3.81    4.26
   5   6  -4   -0.43    3.85
  -5  -6   4   -6.05    4.51
  -5  -6   3    2.62    4.29
   5   6  -3    1.27    3.51
  -5  -6   3   -2.99    4.98
   5   6  -3   -5.72    4.86
   5   6  -3    5.29    3.58
  -5  -6   3    6.10    4.24
  -5  -6   2   -8.00    5.35
  -5  -6   2   10.87    6.03
   5   6  -2   17.78    7.05
   5   6  -2   -4.74    4.72
  -5  -6   2    2.47    3.59
  -5  -6   1    7.20    4.34
  -5  -6   1    7.86    5.46
   5   6  -1    4.89    4.64
   5   6  -1    1.42    4.11
  -5  -6   1    5.67    4.50
  -5  -6   0    8.14    5.55
  -5  -6   0    0.43    4.50
   5   6   0   18.40    7.42
   5   6   0    3.05    4.98
  -5  -6   0    9.77    6.37
  -5  -6  -1   -6.72    5.17
   5   6   1    4.47    5.14
  -5  -6  -1    2.76    4.18
   5   6   1   -8.90    6.21
   5   6   1    4.76    4.05
  -5  -6  -1    1.85    4.53
  -5  -6  -2   15.31    6.48
   5   6   2    7.24    5.52
   5   6   2  -17.52    7.92
   5   6   2    4.05    5.23
  -5  -6  -2  -14.41    6.81
   0   0   0    0.00    0.00


TITL monoclinic in P2(1)/c
REM P2(1)/c (#14 with fixed user cell (not necessary: std = user cell)!)
CELL 0.71073   5.098693  10.192786  13.666035  90.0000  98.6455  90.0000
ZERR    4.00   0.003717   0.019369   0.006795   0.0000   0.0590   0.0000
LATT  1
SYMM -x, y+1/2,-z+1/2
SFAC C H N O
UNIT 16.00 28.00 20.00 12.00
TREF
HKLF 4
END
_computing_structure_solution     'SHELXT 2018/2 (Sheldrick, 2018)'
;
_shelx_hkl_checksum              82428
_olex2_submission_special_instructions 'No special instructions were received'
_oxdiff_exptl_absorpt_empirical_details
;
Empirical correction (ABSPACK) includes:
- Absorption correction using spherical harmonics
- Frame scaling
;
_oxdiff_exptl_absorpt_empirical_full_max 4.214
_oxdiff_exptl_absorpt_empirical_full_min 0.633
loop_
_space_group_symop_operation_xyz
'x, y, z'
'-x, y+1/2, -z+1/2'
'-x, -y, -z'
'x, -y-1/2, z-1/2'
loop_
_atom_site_label
_atom_site_type_symbol
_atom_site_fract_x
_atom_site_fract_y
_atom_site_fract_z
_atom_site_U_iso_or_equiv
_atom_site_adp_type
_atom_site_occupancy
_atom_site_site_symmetry_order
_atom_site_calc_flag
_atom_site_refinement_flags_posn
_atom_site_refinement_flags_adp
_atom_site_refinement_flags_occupancy
_atom_site_disorder_assembly
_atom_site_disorder_group
C1 C 0.105(2) 0.784(2) 0.5401(10) 0.098(11) Uani 1 1 d . . . . .
H1 H -0.052389 0.820560 0.508287 0.118 Uiso 1 1 calc R . . . .
C2 C 0.322(2) 0.8647(18) 0.5854(7) 0.070(8) Uani 1 1 d . . . . .
H2 H 0.340664 0.955430 0.585716 0.084 Uiso 1 1 calc R . . . .
C3 C 0.489(2) 0.772(2) 0.6268(8) 0.058(7) Uani 1 1 d . . . . .
H3 H 0.653307 0.788618 0.664068 0.070 Uiso 1 1 calc R . . . .
C4 C 0.472(2) 0.521(2) 0.6281(7) 0.056(8) Uani 1 1 d . . . . .
N1 N 0.382(2) 0.6466(17) 0.6065(6) 0.048(7) Uani 1 1 d . . . . .
N2 N 0.1382(19) 0.6594(17) 0.5458(9) 0.081(8) Uani 1 1 d . . . . .
N3 N 0.3354(18) 0.4221(15) 0.5919(6) 0.080(6) Uani 1 1 d . . . . .
H3A H 0.395577 0.343877 0.603544 0.097 Uiso 1 1 calc R . . . .
H3B H 0.183661 0.433859 0.556072 0.097 Uiso 1 1 calc R . . . .
N4 N 0.7054(13) 0.5097(11) 0.6835(5) 0.075(5) Uani 1 1 d . . . . .
H4A H 0.772945 0.433262 0.696947 0.090 Uiso 1 1 calc R . . . .
H4B H 0.790378 0.578715 0.706283 0.090 Uiso 1 1 calc R . . . .
N5 N 0.247(2) 0.646(3) 0.8256(8) 0.086(8) Uani 1 1 d . . . . .
O1 O 0.4827(11) 0.6741(9) 0.8565(5) 0.075(4) Uani 1 1 d . . . . .
O2 O 0.160(2) 0.535(2) 0.8249(8) 0.113(8) Uani 1 1 d . . . . .
O3 O 0.0842(14) 0.7375(11) 0.7931(5) 0.074(5) Uani 1 1 d . . . . .
loop_
_atom_site_aniso_label
_atom_site_aniso_U_11
_atom_site_aniso_U_22
_atom_site_aniso_U_33
_atom_site_aniso_U_23
_atom_site_aniso_U_13
_atom_site_aniso_U_12
C1 0.032(8) 0.17(4) 0.083(8) -0.038(14) -0.016(5) 0.017(10)
C2 0.067(11) 0.05(3) 0.083(6) 0.004(9) -0.011(6) 0.001(7)
C3 0.059(9) 0.02(3) 0.087(7) -0.004(9) -0.003(6) -0.016(7)
C4 0.045(9) 0.05(3) 0.073(7) -0.001(10) 0.003(5) 0.009(7)
N1 0.047(8) 0.01(3) 0.080(5) -0.001(9) -0.007(4) -0.006(6)
N2 0.038(7) 0.10(3) 0.098(7) -0.005(10) -0.011(5) 0.002(7)
N3 0.059(7) 0.07(2) 0.096(6) -0.001(7) -0.031(5) 0.001(5)
N4 0.056(7) 0.065(18) 0.092(5) -0.007(6) -0.026(4) -0.003(4)
N5 0.032(9) 0.14(3) 0.085(6) -0.022(9) 0.004(5) 0.000(7)
O1 0.036(5) 0.072(15) 0.111(5) -0.007(5) -0.013(3) -0.004(3)
O2 0.063(7) 0.12(3) 0.138(8) 0.012(10) -0.029(5) -0.023(7)
O3 0.042(5) 0.068(18) 0.103(5) 0.011(6) -0.011(3) 0.008(4)
loop_
_atom_type_symbol
_atom_type_description
_atom_type_scat_dispersion_real
_atom_type_scat_dispersion_imag
_atom_type_scat_source
C C 0.0033 0.0016 'International Tables Vol C Tables 4.2.6.8 and 6.1.1.4'
H H 0.0000 0.0000 'International Tables Vol C Tables 4.2.6.8 and 6.1.1.4'
N N 0.0061 0.0033 'International Tables Vol C Tables 4.2.6.8 and 6.1.1.4'
O O 0.0106 0.0060 'International Tables Vol C Tables 4.2.6.8 and 6.1.1.4'
loop_
_geom_angle_atom_site_label_1
_geom_angle_atom_site_label_2
_geom_angle_atom_site_label_3
_geom_angle
_geom_angle_site_symmetry_1
_geom_angle_site_symmetry_3
_geom_angle_publ_flag
N2 C1 C2 116.9(12) . . ?
C3 C2 C1 100.2(18) . . ?
C2 C3 N1 111.0(12) . . ?
N3 C4 N1 120.4(13) . . ?
N3 C4 N4 123.1(19) . . ?
N4 C4 N1 116.5(19) . . ?
C4 N1 C3 134.4(17) . . ?
C4 N1 N2 116.9(15) . . ?
N2 N1 C3 108.5(16) . . ?
C1 N2 N1 103.2(15) . . ?
O1 N5 O3 119(2) . . ?
O2 N5 O1 124(3) . . ?
O2 N5 O3 117.3(14) . . ?
loop_
_geom_bond_atom_site_label_1
_geom_bond_atom_site_label_2
_geom_bond_distance
_geom_bond_site_symmetry_2
_geom_bond_publ_flag
C1 C2 1.44(3) . ?
C1 N2 1.28(3) . ?
C2 C3 1.34(2) . ?
C3 N1 1.40(2) . ?
C4 N1 1.38(2) . ?
C4 N3 1.28(2) . ?
C4 N4 1.317(12) . ?
N1 N2 1.393(15) . ?
N5 O1 1.247(11) . ?
N5 O2 1.21(3) . ?
N5 O3 1.28(3) . ?

_cod_database_fobs_code 2108917
