#------------------------------------------------------------------------------
#$Date: 2021-09-22 04:47:00 +0300 (Wed, 22 Sep 2021) $
#$Revision: 269240 $
#$URL: file:///home/coder/svn-repositories/cod/cif/2/10/88/2108887.cif $
#------------------------------------------------------------------------------
#
# This file is available in the Crystallography Open Database (COD),
# http://www.crystallography.net/. The original data for this entry
# were provided by IUCr Journals, http://journals.iucr.org/.
#
# The file may be used within the scientific community so long as
# proper attribution is given to the journal article from which the
# data were obtained.
#
data_2108887
loop_
_publ_author_name
'Novelli, Giulia'
'McMonagle, Charles J.'
'Kleemiss, Florian'
'Probert, Michael'
'Puschmann, Horst'
'Grabowsky, Simon'
'Maynard-Casely, Helen E.'
'McIntyre, Garry J.'
'Parsons, Simon'
_publ_section_title
;
 Accurate H-atom parameters for the two polymorphs of
 <small>L</small>-histidine at 5, 105 and 295K
;
_journal_issue                   5
_journal_name_full               'Acta Crystallographica Section B'
_journal_page_first
;
;
_journal_paper_doi               10.1107/S205252062100740X
_journal_volume                  77
_journal_year                    2021
_chemical_absolute_configuration syn
_chemical_formula_moiety         'C6 H9 N3 O2'
_chemical_formula_sum            'C6 H9 N3 O2'
_chemical_formula_weight         155.157
_space_group_crystal_system      orthorhombic
_space_group_IT_number           19
_space_group_name_Hall           'P 2ac 2ab'
_space_group_name_H-M_alt        'P 21 21 21'
_symmetry_Int_Tables_number      19
_audit_creation_date             2021-01-19
_audit_creation_method
;
Olex2 1.3
(compiled 2020.11.12 svn.r5f609507 for OlexSys, GUI svn.r6226)
;
_cell_angle_alpha                90
_cell_angle_beta                 90
_cell_angle_gamma                90
_cell_formula_units_Z            4
_cell_length_a                   5.1690(3)
_cell_length_b                   7.3430(5)
_cell_length_c                   18.8317(13)
_cell_measurement_reflns_used    4787
_cell_measurement_temperature    295
_cell_measurement_theta_max      32.28
_cell_measurement_theta_min      2.98
_cell_volume                     714.78(8)
_computing_cell_refinement       'SAINT V8.38A (?, 2016)'
_computing_data_reduction        'SAINT V8.38A (?, 2016)'
_computing_molecular_graphics    'Olex2 (Dolomanov et al., 2009)'
_computing_publication_material  'Olex2 (Dolomanov et al., 2009)'
_computing_structure_refinement  'ShelXL (Sheldrick, 2015)'
_computing_structure_solution    'ShelXT (Sheldrick, 2015)'
_diffrn_ambient_temperature      295
_diffrn_measured_fraction_theta_full 0.9610
_diffrn_measured_fraction_theta_max 0.8524
_diffrn_measurement_device       'XIPHOS four-circle diffractometer'
_diffrn_measurement_device_type  'Bruker APEX-II CCD'
_diffrn_measurement_method       '\f scans'
_diffrn_radiation_collimation    focused
_diffrn_radiation_monochromator  'multilayer optics'
_diffrn_radiation_probe          x-ray
_diffrn_radiation_type           'Mo K\a'
_diffrn_radiation_wavelength     0.71073
_diffrn_reflns_av_R_equivalents  0.0327
_diffrn_reflns_av_unetI/netI     0.0289
_diffrn_reflns_Laue_measured_fraction_full 0.9610
_diffrn_reflns_Laue_measured_fraction_max 0.8524
_diffrn_reflns_limit_h_max       8
_diffrn_reflns_limit_h_min       -8
_diffrn_reflns_limit_k_max       11
_diffrn_reflns_limit_k_min       -11
_diffrn_reflns_limit_l_max       28
_diffrn_reflns_limit_l_min       -28
_diffrn_reflns_number            14091
_diffrn_reflns_point_group_measured_fraction_full 0.9715
_diffrn_reflns_point_group_measured_fraction_max 0.8676
_diffrn_reflns_theta_full        25.2417
_diffrn_reflns_theta_max         36.28
_diffrn_reflns_theta_min         2.98
_diffrn_source                   'rotating anode'
_diffrn_source_target            Mo
_diffrn_source_type              'Bruker TXS with Helios Optics'
_exptl_absorpt_coefficient_mu    0.111
_exptl_absorpt_correction_T_max  0.7471
_exptl_absorpt_correction_T_min  0.6480
_exptl_absorpt_correction_type   multi-scan
_exptl_absorpt_process_details
;
 SADABS 2016/2: Krause, L., Herbst-Irmer, R., Sheldrick G.M. & Stalke D.,
 J. Appl. Cryst. 48 (2015) 3-10
;
_exptl_crystal_colour            colourless
_exptl_crystal_density_diffrn    1.442
_exptl_crystal_description       needle
_exptl_crystal_F_000             328.073
_exptl_crystal_size_max          0.2
_exptl_crystal_size_mid          0.1
_exptl_crystal_size_min          0.1
_refine_diff_density_max         0.1637
_refine_diff_density_min         -0.1697
_refine_diff_density_rms         0.0414
_refine_ls_abs_structure_details
'Flack, H. D. (1983). Acta Cryst. A39, 876-881.'
_refine_ls_abs_structure_Flack   0.1(11)
_refine_ls_d_res_high            0.6006
_refine_ls_d_res_low             6.8413
_refine_ls_goodness_of_fit_ref   1.1144
_refine_ls_hydrogen_treatment    refall
_refine_ls_matrix_type           full
_refine_ls_number_constraints    0
_refine_ls_number_parameters     181
_refine_ls_number_reflns         3008
_refine_ls_number_restraints     0
_refine_ls_restrained_S_all      1.1144
_refine_ls_R_factor_all          0.0388
_refine_ls_R_factor_gt           0.0287
_refine_ls_shift/su_max          0.0005
_refine_ls_shift/su_mean         0.0000
_refine_ls_structure_factor_coef Fsqd
_refine_ls_weighting_details
'w=1/[\s^2^(Fo^2^)+(0.0206P)^2^+0.0062P] where P=(Fo^2^+2Fc^2^)/3'
_refine_ls_weighting_scheme      calc
_refine_ls_wR_factor_gt          0.0518
_refine_ls_wR_factor_ref         0.0539
_reflns_Friedel_coverage         0.889
_reflns_limit_h_max              8
_reflns_limit_h_min              -8
_reflns_limit_k_max              11
_reflns_limit_k_min              -11
_reflns_limit_l_max              28
_reflns_limit_l_min              -28
_reflns_number_gt                2569
_reflns_number_total             3008
_reflns_threshold_expression     I>=2u(I)
_iucr_refine_instructions_details
;
TITL cmm190030_af_0m_a.res in P2(1)2(1)2(1)
REM Old TITL CMM190030_af_0m in P2(1)2(1)2(1)
REM SHELXT solution in P2(1)2(1)2(1): R1 0.118, Rweak 0.027, Alpha 0.001
REM <I/s> 2.473 for 15 systematic absences, Orientation as input
REM Flack x = -1.229 ( 0.618 ) from 545 Parsons' quotients
REM Formula found by SHELXT: C8 N2 O
CELL 0.71073 5.169 7.343 18.8317 90 90 90
ZERR 4 0.0003 0.0005 0.0013 0 0 0
LATT -1
SYMM 0.5-X,-Y,0.5+Z
SYMM -X,0.5+Y,0.5-Z
SYMM 0.5+X,0.5-Y,-Z
SFAC C H N O
DISP C 0.0021 0.0016 11.5003
DISP H 0 0 0.624
DISP N 0.0041 0.0033 19.5955
DISP O 0.0079 0.0061 32.4922
UNIT 24 36 12 8
EQIV $1 1+X,+Y,+Z
EQIV $2 1-X,-0.5+Y,0.5-Z
EQIV $3 1.5-X,1-Y,0.5+Z

L.S. 99
PLAN  1
TEMP 20.97
CONF
HTAB N1 O2_$1
HTAB N1 O2_$2
HTAB N1 N2
HTAB N3 O1_$3
BOND 
MORE -1
BOND $H
fmap 2 53
acta 
LIST -6
OMIT 2 0 0
OMIT 0 1 4
OMIT 3 3 0
WGHT 0.020558 0.006182
FVAR 0.724973
REM <olex2.extras>
REM <HklSrc "%.\\HOTX23.hkl">
REM </olex2.extras>

O2    4     0.32399  0.50882  0.24194  11.00000  0.02204  0.04252  0.03633 =
 0.01377 -0.00462  0.00183 
O1    4     0.72486  0.50473  0.19836  11.00000  0.02826  0.06259  0.01803 =
 0.00955 -0.00110 -0.00292 
N1    3     0.91181  0.32105  0.31064  11.00000  0.02380  0.02527  0.01981 =
 -0.00053 -0.00008  0.00402 
H1B   2     1.03085  0.38612  0.27667  11.00000  0.03228  0.05291  0.04284 =
 0.02502  0.01766  0.00814 
H1C   2     0.86724  0.19490  0.29446  11.00000  0.04406  0.01399  0.05230 =
 -0.01558  0.00023  0.00301 
H1A   2     1.00532  0.31537  0.35751  11.00000  0.02608  0.04806  0.02178 =
 0.00287 -0.00082  0.00959 
N3    3     0.87440  0.49977  0.55355  11.00000  0.03666  0.03615  0.01675 =
 -0.00133 -0.00052 -0.00304 
H3    2     0.85190  0.50062  0.60660  11.00000  0.07826  0.04186  0.02746 =
 0.00255 -0.00025 -0.00756 
N2    3     1.03303  0.43961  0.44716  11.00000  0.03024  0.03830  0.01961 =
 -0.00044 -0.00142  0.00791 
C4    1     0.80827  0.54010  0.43947  11.00000  0.02864  0.02474  0.01741 =
 -0.00200 -0.00266  0.00248 
C1    1     0.56258  0.48232  0.24645  11.00000  0.02116  0.02589  0.01870 =
 0.00283 -0.00357 -0.00201 
C2    1     0.66536  0.42348  0.31972  11.00000  0.02056  0.02258  0.01624 =
 0.00214 -0.00109  0.00038 
H2    2     0.52616  0.33251  0.34275  11.00000  0.03162  0.02055  0.05438 =
 0.01250 -0.00191 -0.01068 
C6    1     0.70825  0.57763  0.50522  11.00000  0.03055  0.03291  0.02141 =
 -0.00574  0.00081  0.00281 
H6    2     0.54570  0.65342  0.52158  11.00000  0.05537  0.07162  0.05672 =
 -0.01987  0.01020  0.02187 
C5    1     1.06397  0.41825  0.51634  11.00000  0.03244  0.04007  0.02083 =
 0.00214 -0.00571  0.00421 
H5    2     1.21339  0.34489  0.54108  11.00000  0.05612  0.09640  0.03471 =
 0.01599 -0.00070  0.03014 
C3    1     0.70836  0.59061  0.36742  11.00000  0.03846  0.02393  0.02087 =
 -0.00143 -0.00504  0.00730 
H3A   2     0.83542  0.68201  0.34091  11.00000  0.07885  0.04137  0.03489 =
 0.00676 -0.00558 -0.01796 
H3B   2     0.52558  0.65767  0.37194  11.00000  0.06642  0.07186  0.05081 =
 -0.01601 -0.02182  0.04894 
HKLF 4

END
Q1 1 0.916667 0.46875 0.4625 11 0.05 0.16

  REM The information below was added by Olex2.
  REM
  REM R1 = 0.0287 for 2569 Fo > 4sig(Fo) and 0.0388 for all 3008 data
  REM 181 parameters refined using 0 restraints
  REM Highest difference peak 0.1637, deepest hole -0.1697
  REM Mean Shift 0.0000, Max Shift 0.0005.

  REM +++ Tabular Listing of Refinement Information +++
  REM R1_all = 0.0388
  REM R1_gt = 0.0287
  REM wR_ref = 0.0539
  REM GOOF = 1.1144
  REM Shift_max = 0.0005
  REM Shift_mean = 0.0000
  REM Reflections_all = 3008
  REM Reflections_gt = 2569
  REM Parameters = 181
  REM Hole = -0.1697
  REM Peak = 0.1637
  REM Flack = 0.1(11)

  
;
_cod_data_source_file            um5050sup1.cif
_cod_data_source_block           HOTX23
_cod_original_sg_symbol_Hall     ' P 2ac 2ab'
_cod_database_code               2108887
_shelx_shelxl_version_number     2017/1
_olex2_refinement_description
;
1. Fixed Uiso
 At 1.2 times of:
  All C(H) groups, All C(H,H) groups, All N(H) groups, All N(H,H,H) groups
;
_olex2_submission_special_instructions 'No special instructions were received'
loop_
_space_group_symop_id
_space_group_symop_operation_xyz
1 x,y,z
2 x+1/2,-y+1/2,-z
3 -x,y+1/2,-z+1/2
4 -x+1/2,-y,z+1/2
loop_
_atom_site_label
_atom_site_type_symbol
_atom_site_fract_x
_atom_site_fract_y
_atom_site_fract_z
_atom_site_U_iso_or_equiv
_atom_site_adp_type
_atom_site_occupancy
_atom_site_refinement_flags_posn
O2 O 0.32399(8) 0.50882(8) 0.24194(3) 0.03363(13) Uani 1.000000 .
O1 O 0.72486(9) 0.50473(10) 0.19836(3) 0.03629(14) Uani 1.000000 .
N1 N 0.91181(11) 0.32105(9) 0.31064(3) 0.02296(11) Uani 1.000000 .
H1B H 1.031(2) 0.3861(17) 0.2767(6) 0.043(3) Uani 1.000000 .
H1C H 0.867(2) 0.1949(15) 0.2945(6) 0.037(3) Uani 1.000000 .
H1A H 1.0053(18) 0.3154(16) 0.3575(6) 0.032(2) Uani 1.000000 .
N3 N 0.87440(11) 0.49977(9) 0.55355(3) 0.02985(13) Uani 1.000000 .
H3 H 0.852(3) 0.5006(17) 0.6066(7) 0.049(3) Uani 1.000000 .
N2 N 1.03303(11) 0.43961(9) 0.44716(3) 0.02938(13) Uani 1.000000 .
C4 C 0.80827(12) 0.54010(9) 0.43947(3) 0.02360(12) Uani 1.000000 .
C1 C 0.56258(10) 0.48232(9) 0.24645(3) 0.02192(12) Uani 1.000000 .
C2 C 0.66536(10) 0.42348(9) 0.31972(3) 0.01979(11) Uani 1.000000 .
H2 H 0.5262(18) 0.3325(13) 0.3427(6) 0.036(2) Uani 1.000000 .
C6 C 0.70825(14) 0.57763(11) 0.50522(4) 0.02829(14) Uani 1.000000 .
H6 H 0.546(2) 0.6534(18) 0.5216(6) 0.061(4) Uani 1.000000 .
C5 C 1.06397(14) 0.41825(12) 0.51634(4) 0.03111(15) Uani 1.000000 .
H5 H 1.213(2) 0.3449(19) 0.5411(5) 0.062(4) Uani 1.000000 .
C3 C 0.70836(15) 0.59061(11) 0.36742(4) 0.02776(14) Uani 1.000000 .
H3A H 0.835(3) 0.6820(17) 0.3409(6) 0.052(3) Uani 1.000000 .
H3B H 0.526(2) 0.6577(17) 0.3719(6) 0.063(4) Uani 1.000000 .
loop_
_atom_site_aniso_label
_atom_site_aniso_U_11
_atom_site_aniso_U_22
_atom_site_aniso_U_33
_atom_site_aniso_U_12
_atom_site_aniso_U_13
_atom_site_aniso_U_23
O2 0.02204(18) 0.0425(3) 0.0363(3) 0.0018(2) -0.00462(18) 0.0138(2)
O1 0.02826(19) 0.0626(4) 0.0180(2) -0.0029(2) -0.00110(17) 0.0095(2)
N1 0.0238(2) 0.0253(3) 0.0198(3) 0.0040(2) -0.0001(2) -0.0005(2)
H1B 0.032(6) 0.053(9) 0.043(8) 0.008(6) 0.018(5) 0.025(6)
H1C 0.044(6) 0.014(6) 0.052(7) 0.003(5) 0.000(6) -0.016(6)
H1A 0.026(5) 0.048(7) 0.022(6) 0.010(5) -0.001(4) 0.003(5)
N3 0.0367(2) 0.0362(4) 0.0167(3) -0.0030(3) -0.0005(2) -0.0013(2)
H3 0.078(9) 0.042(9) 0.027(7) -0.008(9) -0.000(6) 0.003(6)
N2 0.0302(2) 0.0383(3) 0.0196(3) 0.0079(2) -0.0014(2) -0.0004(2)
C4 0.0286(2) 0.0247(3) 0.0174(3) 0.0025(2) -0.0027(2) -0.0020(2)
C1 0.0212(2) 0.0259(3) 0.0187(3) -0.0020(2) -0.0036(2) 0.0028(2)
C2 0.0206(2) 0.0226(3) 0.0162(3) 0.0004(2) -0.00109(19) 0.0021(2)
H2 0.032(5) 0.021(5) 0.054(7) -0.011(5) -0.002(5) 0.013(5)
C6 0.0306(3) 0.0329(4) 0.0214(3) 0.0028(3) 0.0008(2) -0.0057(3)
H6 0.055(7) 0.072(9) 0.057(8) 0.022(7) 0.010(6) -0.020(7)
C5 0.0324(3) 0.0401(4) 0.0208(3) 0.0042(3) -0.0057(3) 0.0021(3)
H5 0.056(6) 0.096(10) 0.035(7) 0.030(7) -0.001(6) 0.016(7)
C3 0.0385(3) 0.0239(4) 0.0209(3) 0.0073(3) -0.0050(3) -0.0014(3)
H3A 0.079(8) 0.041(7) 0.035(6) -0.018(8) -0.006(6) 0.007(6)
H3B 0.066(8) 0.072(9) 0.051(8) 0.049(7) -0.022(6) -0.016(7)
loop_
_atom_type_symbol
_atom_type_scat_dispersion_real
_atom_type_scat_dispersion_imag
_atom_type_scat_source
_atom_type_scat_dispersion_source
H 0.00000 0.00000 'NoSpherA2: Chem.Sci. 2021, DOI:10.1039/D0SC05526C' custom
C 0.00211 0.00161 'NoSpherA2: Chem.Sci. 2021, DOI:10.1039/D0SC05526C' custom
O 0.00792 0.00611 'NoSpherA2: Chem.Sci. 2021, DOI:10.1039/D0SC05526C' custom
N 0.00411 0.00331 'NoSpherA2: Chem.Sci. 2021, DOI:10.1039/D0SC05526C' custom
loop_
_diffrn_refln_index_h
_diffrn_refln_index_k
_diffrn_refln_index_l
_diffrn_refln_intensity_net
_diffrn_refln_intensity_u
1 0 0 0.3 0.3
1 0 0 0 0.4
-1 0 0 0 0.4
-1 0 0 -0.2 0.3
2 0 0 406.16 12.6
-2 0 0 407.76 12.5
2 0 0 396.26 13.2
-2 0 0 416.46 13
-3 0 0 -0.3 0.7
3 0 0 0.1 0.4
-3 0 0 0.2 0.2
3 0 0 -0.2 0.9
3 0 0 0.3 0.6
-3 0 0 0 0.2
-3 0 0 -0.2 0.6
3 0 0 0.2 0.2
-4 0 0 1.2 0.3
-4 0 0 0.8 0.3
4 0 0 1.8 0.5
4 0 0 0.8 0.3
-5 0 0 0.3 0.3
5 0 0 0.5 0.4
-5 0 0 0.2 0.3
5 0 0 0.1 0.6
6 0 0 2 0.7
-6 0 0 1.6 0.4
-6 0 0 1.5 0.5
6 0 0 1 0.5
-7 0 0 0.3 0.9
7 0 0 2.2 1.1
7 0 0 1.8 1.1
-7 0 0 0.5 0.4
-8 0 0 27.5 1.8
8 0 0 29.2 3.2
8 0 0 27.3 2.4
-8 0 0 32.5 2.2
0 -1 0 0.2 0.6
0 -1 0 0 0.1
0 1 0 -0.1 0.3
0 1 0 -0.1 0.1
-1 -1 0 3936.41 110.49
-1 1 0 4058.09 110.69
1 1 0 3926.21 110.89
1 1 0 4020.3 110.89
1 -1 0 4015.9 110.59
-1 -1 0 4015.7 111.09
-1 1 0 4055.09 111.09
1 -1 0 4059.99 110.99
2 -1 0 5.1 0.9
-2 1 0 7.7 1.1
-2 -1 0 5.1 1
-2 1 0 6.2 1.4
-2 -1 0 7 1.2
2 1 0 7.3 1.3
2 -1 0 7.2 1.6
2 1 0 7.3 1.2
-3 1 0 102.19 3.2
-3 1 0 109.69 5.6
3 -1 0 103.39 4.9
3 1 0 107.09 3.3
-3 1 0 106.59 3.1
-3 1 0 107.09 4.7
3 -1 0 99.49 5.7
3 1 0 105.09 3.1
3 1 0 101.79 5.4
3 1 0 105.79 5.1
-3 -1 0 109.69 5.1
-3 -1 0 103.69 3.1
3 -1 0 109.29 3.4
-3 -1 0 106.39 3.1
3 -1 0 100.89 3.1
-3 -1 0 109.39 4.8
4 1 0 0.1 0.2
4 -1 0 0.5 0.3
4 1 0 0.4 0.4
-4 1 0 0.1 0.3
-4 1 0 0.5 0.3
-4 -1 0 0.3 0.2
4 -1 0 0.3 0.5
-4 -1 0 0.8 0.3
-5 1 0 -0.1 0.3
-5 1 0 0.1 0.3
-5 -1 0 -0.2 0.3
-5 -1 0 -0.1 0.3
5 1 0 0.6 0.6
5 -1 0 -1.4 0.4
5 -1 0 0.4 0.4
5 1 0 0 0.3
6 -1 0 0.4 0.5
-6 -1 0 0.3 0.4
-6 -1 0 0.2 0.3
-6 1 0 0.1 0.5
6 1 0 0.6 0.6
6 -1 0 1 0.7
6 1 0 0.3 0.5
-6 1 0 0.3 0.3
-7 -1 0 4.8 0.7
-7 1 0 3.9 1.1
7 -1 0 6.5 1.5
-7 -1 0 5.4 1
-7 1 0 5.6 0.8
7 1 0 5.8 1.4
7 -1 0 4.4 1.1
7 1 0 3.8 1.3
8 -1 0 9 1.7
8 1 0 9 1.7
8 -1 0 9 2.4
-8 -1 0 8.7 1.3
-8 -1 0 8.7 1.1
-8 1 0 7.8 1.4
8 1 0 4.6 2.1
-8 1 0 8.5 1.1
0 -2 0 8495.25 255.07
0 2 0 9871.21 256.77
0 -2 0 9999 290.67
0 2 0 8860.11 282.17
1 2 0 831.02 23.7
-1 -2 0 831.92 23.6
-1 2 0 840.52 24.9
-1 -2 0 843.72 24.3
1 2 0 860.41 25
1 -2 0 831.62 23.7
1 -2 0 853.71 25.2
-2 2 0 587.44 16.2
2 -2 0 606.14 17.7
-2 -2 0 586.44 17.8
2 2 0 568.74 17.8
-2 2 0 631.04 19.1
2 2 0 599.64 18.4
2 -2 0 570.24 19.1
-2 2 0 584.94 17.5
2 -2 0 581.94 16.4
-2 -2 0 602.24 17.6
-2 2 0 577.24 16.1
3 2 0 41.1 3.2
3 2 0 33.3 2.9
3 -2 0 40.2 1.7
3 -2 0 37.1 1.3
-3 -2 0 38.5 1.3
-3 2 0 38 1.3
3 2 0 39 1.5
-3 -2 0 37.9 1.3
-3 -2 0 40.3 2.8
-3 2 0 37.6 1.4
-3 -2 0 37.1 2.6
3 2 0 39.7 1.4
4 2 0 9.7 0.9
4 -2 0 9.6 0.6
4 2 0 11 0.8
4 -2 0 9.7 1
-4 -2 0 9.7 0.6
-4 -2 0 9.1 0.6
-4 2 0 9.2 0.6
-4 2 0 8.3 0.7
5 -2 0 0.3 0.6
-5 -2 0 0.6 0.3
-5 2 0 0.3 0.3
-5 2 0 0.8 0.4
5 2 0 1 0.6
-5 -2 0 0.5 0.3
5 -2 0 0 0.3
5 2 0 0.4 0.4
-6 -2 0 12.2 0.8
6 2 0 11.4 1.2
-6 2 0 9.9 1
6 -2 0 10.3 1.4
-6 -2 0 11.4 0.8
6 2 0 12.3 1.1
-6 2 0 10.6 0.9
6 -2 0 10.3 1
-7 -2 0 14.4 1.1
7 -2 0 13.5 2
7 2 0 16.4 1.9
7 2 0 16.2 1.7
7 -2 0 16 1.5
-7 -2 0 17.4 1.3
-7 2 0 19.9 1.6
-7 2 0 15.2 1.1
-8 2 0 11.9 1.2
-8 2 0 12 1.7
-8 -2 0 13.1 1.3
-8 -2 0 14.7 1.5
8 -2 0 9.8 1.7
8 2 0 12.2 2
8 -2 0 10.3 2.4
8 2 0 15.2 2.4
0 3 0 0.5 0.3
0 -3 0 0.3 1.2
0 -3 0 0.2 0.3
0 3 0 -0.1 0.9
-1 -3 0 137.89 5.8
-1 3 0 135.99 4.8
1 3 0 135.09 4.8
-1 -3 0 135.09 4.6
1 3 0 135.69 6.6
1 -3 0 145.09 6.8
1 -3 0 141.19 4.8
-1 3 0 139.99 6.3
-2 3 0 260.07 7.1
2 3 0 251.67 10.1
2 3 0 247.68 8.8
-2 -3 0 254.67 9
2 -3 0 256.17 8.7
2 -3 0 244.28 10.5
-2 3 0 247.58 7.2
-2 -3 0 265.67 8.5
-2 3 0 281.27 10.4
2 -3 0 264.07 7.6
3 3 0 74.59 2.2
3 3 0 60.69 4
-3 -3 0 57.79 3.5
-3 -3 0 61.09 2
3 3 0 72.89 2.2
3 3 0 79.59 5
3 -3 0 63.99 2.1
-3 3 0 73.19 2.2
-3 3 0 61.19 2.1
-3 -3 0 69.19 2.1
-3 -3 0 58.09 3.6
4 -3 0 51.59 2.4
-4 -3 0 50.39 1.8
-4 -3 0 47.8 1.7
-4 3 0 50.19 1.7
4 3 0 47.2 1.9
-4 3 0 53.29 1.9
4 3 0 49.8 1.9
4 -3 0 53.69 1.8
5 3 0 2.3 0.6
-5 3 0 2.6 0.5
5 3 0 1.9 0.5
5 -3 0 2.6 0.5
-5 -3 0 2 0.4
-5 3 0 2.8 0.6
5 -3 0 2.3 0.8
-5 -3 0 2.5 0.4
6 3 0 0.1 0.6
6 3 0 -0.1 0.7
-6 -3 0 0.8 0.4
6 -3 0 0.3 0.7
-6 3 0 0.3 0.3
-6 -3 0 0.8 0.4
-6 3 0 0 0.7
6 -3 0 0.9 0.8
-7 -3 0 1.8 0.6
7 -3 0 1.8 1.2
-7 -3 0 1.4 0.8
7 3 0 1.9 1.2
7 -3 0 0 1.6
7 3 0 2.6 1.2
-7 3 0 1.8 0.7
-7 3 0 0.2 1.2
-8 3 0 8.1 1.1
-8 -3 0 9.3 1.2
-8 3 0 7.5 1.6
-8 -3 0 7.7 1.1
8 3 0 6 2
8 -3 0 5.9 2.4
8 -3 0 8 1.7
8 3 0 8.7 1.9
0 -4 0 490.35 14.1
0 4 0 481.45 16.7
0 4 0 467.35 14.1
0 -4 0 477.65 17.2
1 -4 0 4.2 0.8
1 -4 0 3.7 1.7
-1 -4 0 4.6 1.5
1 4 0 3.2 1.7
1 4 0 4 0.8
1 -4 0 4.1 0.3
-1 -4 0 4.1 0.7
-1 4 0 4.7 1.6
-1 4 0 4.9 0.5
-1 4 0 5.6 0.9
-2 4 0 78.19 5
2 -4 0 67.39 5.2
-2 -4 0 67.29 2
2 4 0 68.59 2.3
-2 -4 0 70.79 3.9
-2 -4 0 67.69 2.2
2 4 0 68.29 2.1
2 4 0 72.89 3.6
-2 4 0 69.09 2.3
2 4 0 59.19 5
-2 -4 0 67.79 3.2
-2 4 0 69.19 2.1
2 -4 0 69.99 2.7
2 -4 0 67.59 3.5
-3 -4 0 26.3 1.1
3 4 0 26.6 1.1
3 -4 0 25.7 1
-3 4 0 28.4 1.2
3 -4 0 23.2 1.6
-3 -4 0 27.5 1
3 4 0 26.9 1.3
-3 4 0 26.8 1
4 4 0 7.2 0.8
-4 4 0 8.6 0.7
4 -4 0 10.1 0.7
4 -4 0 10.4 1.2
-4 4 0 9.3 0.6
-4 -4 0 8.4 0.5
4 4 0 8.5 0.8
-4 -4 0 9.6 0.7
-5 4 0 21.6 1.2
5 4 0 16 1.2
5 -4 0 18.5 1
-5 -4 0 20.7 0.9
-5 -4 0 20.9 1
5 4 0 18.9 1.3
-5 4 0 17.1 0.9
5 -4 0 15.3 1.7
6 -4 0 0.6 0.8
-6 4 0 0.3 0.4
-6 -4 0 -0.6 0.3
6 4 0 0.4 0.6
6 -4 0 0 0.9
-6 4 0 -0.8 0.9
6 4 0 0.9 0.9
-6 -4 0 -0.4 0.3
-7 4 0 1.3 0.7
-7 4 0 1 1.3
7 -4 0 1.2 1.2
7 -4 0 -0.7 1.8
-8 4 0 0.5 1.3
8 -4 0 0.4 2.9
-8 4 0 0.6 1.6
8 -4 0 -0.6 1.5
0 -5 0 4.3 2
0 5 0 6.6 1.8
-1 5 0 0.2 0.4
-1 -5 0 0.7 0.5
1 -5 0 0.5 1.5
-1 5 0 0.3 0.3
1 5 0 0 0.3
1 5 0 -0.2 1.3
-1 5 0 -0.3 1
-1 -5 0 -1.6 0.8
1 5 0 0.1 0.4
-1 -5 0 0.2 0.1
1 5 0 0.2 0.2
1 -5 0 0 0.6
-1 -5 0 0.1 0.4
1 -5 0 0.2 0.2
-2 -5 0 144.19 3.9
2 -5 0 131.39 4.8
-2 -5 0 145.19 4.2
2 5 0 136.29 4.1
-2 5 0 144.29 4.2
2 5 0 136.29 4.4
3 5 0 157.28 4.9
3 -5 0 155.98 5.4
-3 -5 0 151.78 4.5
-3 -5 0 159.88 4.7
-3 5 0 155.88 4.6
3 5 0 154.58 4.7
-3 5 0 165.28 4.8
-4 5 0 14.4 0.8
4 -5 0 14.9 0.8
4 -5 0 15.6 1.6
-4 5 0 15 1
-5 5 0 47.2 2
5 -5 0 45.7 1.8
-5 5 0 44.2 1.7
5 -5 0 43.4 2.7
6 -5 0 5 1.5
-6 5 0 4.3 0.7
-6 5 0 2.6 1.2
6 -5 0 4.1 1
-7 5 0 10.1 1.1
7 -5 0 15.5 1.7
7 -5 0 10.3 2.5
-7 5 0 10.1 1.6
0 6 0 30.2 1.2
0 -6 0 40.8 1.2
-1 6 0 1.8 0.4
-1 6 0 1.6 0.3
1 -6 0 1.6 0.2
1 -6 0 0.3 0.7
2 -6 0 2.8 1
-2 6 0 3.2 0.5
-3 6 0 9.4 0.8
3 -6 0 10.3 1.4
-4 6 0 16.4 1.1
4 -6 0 14.4 1.7
-4 6 0 15.3 0.8
4 -6 0 17.8 0.9
5 -6 0 2.5 0.7
5 -6 0 2.9 1.3
-5 6 0 3.3 0.5
-5 6 0 1.7 0.9
-6 6 0 14.3 1.6
6 -6 0 11.1 1.3
-6 6 0 10.2 1
6 -6 0 15.4 2.3
-7 6 0 -0.5 0.7
-7 6 0 0.3 1.4
7 -6 0 0 1.2
7 -6 0 -3.4 2.5
-2 7 0 3.7 0.6
2 -7 0 2.5 1
3 -7 0 54.89 3
-3 7 0 56.89 2.2
-4 7 0 16.8 1.3
4 -7 0 14.2 1.9
4 -7 0 16.7 1
5 -7 0 37.8 2.9
-5 7 0 33 1.5
-5 7 0 38.7 2.2
5 -7 0 32.5 1.7
6 -7 0 6.8 2.5
-6 7 0 10.3 1
-6 7 0 13.3 1.7
6 -7 0 10.2 1.3
7 -7 0 5.4 1.5
-7 7 0 3.2 1.5
7 -7 0 5.8 3
-7 7 0 3.3 1
-5 8 0 4.5 1.3
5 -8 0 3.9 0.9
5 -8 0 2 1.6
6 -8 0 -0.4 0.9
-6 8 0 1.7 1.3
6 -8 0 0 2.5
0 0 1 0 0.1
0 0 -1 0 0.1
0 0 -1 0 0.1
0 0 1 0 0.1
1 0 -1 312.87 9.5
-1 0 -1 328.37 9.8
-1 0 1 311.67 9.6
1 0 1 314.17 9.8
-1 0 1 328.27 9.5
1 0 -1 326.07 9.7
1 0 1 320.27 9.4
-1 0 -1 316.67 9.3
2 0 -1 5.8 1.1
2 0 -1 2.4 0.9
-2 0 -1 1.7 0.9
2 0 1 5.9 1
2 0 1 2.2 0.9
-2 0 1 2.1 0.8
-2 0 -1 4.2 0.8
-2 0 1 4.3 0.8
3 0 1 517.75 17.8
3 0 -1 534.85 17.1
-3 0 -1 552.54 17.5
-3 0 1 559.14 17.4
-3 0 -1 535.95 16.5
3 0 1 532.15 14.8
3 0 -1 544.35 14.6
-3 0 1 520.55 14.6
3 0 -1 542.55 14.8
3 0 1 526.55 16.7
-3 0 1 524.05 14.6
-3 0 -1 514.55 14.6
-3 0 -1 531.25 14.6
3 0 1 542.35 14.6
3 0 -1 501.65 17.6
-3 0 1 525.35 16.6
4 0 -1 16.9 1.1
4 0 -1 18.4 0.9
4 0 1 17.4 0.8
-4 0 -1 17.3 0.8
-4 0 -1 16.7 0.9
-4 0 1 17.4 0.9
4 0 1 17 1.1
-4 0 1 17.2 0.8
-5 0 1 73.69 2.4
-5 0 -1 69.69 2.4
5 0 -1 69.49 2.8
-5 0 1 72.59 2.4
5 0 1 70.29 2.9
5 0 -1 68.79 2.4
-5 0 -1 73.89 2.4
5 0 1 70.19 2.4
-6 0 -1 36.4 1.6
-6 0 1 37.2 1.6
6 0 -1 36.2 1.7
-6 0 -1 36.4 1.5
-6 0 1 36.3 1.5
6 0 -1 33.8 2
6 0 1 35.4 2.1
6 0 1 37.1 1.7
-7 0 1 0.4 0.5
-7 0 1 1.4 1
7 0 1 2.4 1.2
7 0 -1 1.6 1.2
7 0 -1 1.4 1.2
7 0 1 1.6 1.1
-7 0 -1 0.8 0.5
-7 0 -1 1.3 0.9
-8 0 -1 1.8 1.1
-8 0 1 2.5 1.2
8 0 1 3.4 1.5
-8 0 -1 2.5 0.9
8 0 -1 3.4 1.6
8 0 1 5.2 2.2
8 0 -1 4.6 2.1
-8 0 1 3.3 1
0 -1 1 62.19 2.1
0 -1 -1 72.09 2.5
0 1 -1 61.79 2.1
0 -1 1 74.09 3.3
0 1 -1 57.09 3
1 -1 1 1441.16 40.3
1 1 -1 1460.85 40.9
-1 1 1 1446.76 40.7
1 -1 1 1487.55 41.4
-1 -1 -1 1445.46 40.5
-1 1 1 1517.15 40.9
-1 -1 -1 1449.95 40.2
1 1 -1 1462.15 40.8
1 1 1 1446.16 40.4
1 -1 -1 1440.16 40.4
-1 1 -1 1447.76 40.7
1 1 1 1398.26 40.3
-1 -1 1 1428.76 40.1
1 -1 -1 1453.55 39.8
-1 -1 1 1487.05 40.2
-2 -1 -1 347.87 11
-2 1 1 343.07 10.8
2 -1 1 356.66 10.9
2 1 -1 324.17 11.1
2 -1 1 327.47 11.9
-2 -1 -1 340.27 10.7
-2 1 1 349.37 11.6
2 1 -1 354.66 11.3
2 1 1 334.67 11.2
-2 1 -1 345.07 11.8
2 1 1 335.87 10.9
2 -1 -1 355.96 10.9
-2 -1 1 339.57 10.9
2 -1 -1 334.07 11.7
-2 1 -1 352.56 10.8
-2 -1 1 352.26 11.1
-3 -1 -1 109.99 5.2
3 1 -1 105.39 5.4
3 -1 1 105.69 4.9
3 1 -1 109.19 3.2
-3 -1 -1 109.79 4.7
-3 1 1 108.59 3.2
-3 -1 -1 104.09 3.1
3 -1 1 102.59 3.1
-3 -1 -1 105.79 3.1
3 1 -1 104.49 3.3
3 -1 1 102.39 5.9
3 -1 1 108.19 3.5
-3 1 1 101.49 3.2
-3 1 1 108.39 4.8
3 1 -1 101.69 5.2
-3 1 1 111.39 5.6
3 -1 -1 103.49 4.9
3 -1 -1 103.89 3.1
-3 -1 1 103.49 4.8
-3 1 -1 100.89 5.6
3 1 1 108.79 3.3
3 1 1 103.49 5
3 -1 -1 104.99 5.8
-3 1 -1 109.49 3.1
-3 -1 1 105.39 3.1
-3 -1 1 111.59 5.2
3 1 1 107.99 5.5
3 -1 -1 110.69 3.4
-3 1 -1 109.09 4.7
-3 1 -1 102.69 3.2
3 1 1 104.29 3.1
-3 -1 1 103.99 3.2
4 1 -1 12.6 0.8
-4 -1 -1 12.7 0.7
4 -1 1 14.8 1.2
4 1 -1 13.3 0.9
-4 1 1 13.6 0.8
4 -1 1 13.4 0.7
-4 1 1 13.3 0.7
-4 -1 -1 13.2 0.7
4 -1 -1 11.2 1
-4 -1 1 13.9 0.7
-4 1 -1 12.7 0.7
-4 1 -1 13.4 0.8
4 1 1 12.6 0.7
4 -1 -1 11.7 0.7
4 1 1 11.6 1
-4 -1 1 12.6 0.7
5 -1 1 6.7 1
-5 1 1 5 0.6
5 -1 1 6.5 0.6
5 1 -1 8.7 0.8
-5 -1 -1 6.9 0.7
5 1 -1 7.3 1
-5 -1 -1 6.9 0.6
-5 1 1 8.3 0.7
-5 -1 1 7.4 0.7
-5 1 -1 6.7 0.6
5 -1 -1 6.4 0.6
5 -1 -1 7.9 1.1
5 1 1 6.8 0.7
-5 -1 1 8.5 0.7
5 1 1 7.3 1
-5 1 -1 7.9 0.7
6 1 -1 6.8 1.1
-6 -1 -1 8.4 0.8
6 1 -1 10 1
6 -1 1 5.5 1.1
-6 1 1 8.1 0.9
-6 1 1 6.2 0.7
-6 -1 -1 8.8 0.8
6 -1 1 5.9 0.8
-6 1 -1 8.9 0.8
6 -1 -1 6.7 1.1
-6 -1 1 8 0.8
6 1 1 7.4 1.1
-6 1 -1 7.9 0.8
6 1 1 8.7 0.9
6 -1 -1 9 0.9
-6 -1 1 9.3 0.9
7 1 -1 -0.9 1.1
7 1 -1 1.3 1.1
-7 1 1 1 0.9
-7 -1 -1 0.4 0.4
7 -1 1 -0.4 1.1
-7 1 1 0.6 0.5
-7 -1 -1 1 0.8
7 -1 1 0.4 0.9
7 -1 -1 -0.8 1
-7 1 -1 0.1 0.5
7 1 1 1.6 1
-7 -1 1 -0.4 0.4
-7 1 -1 0.4 1
-7 -1 1 1.4 0.9
7 -1 -1 -0.4 1
7 1 1 -0.1 0.9
-8 1 1 0.6 1.3
-8 -1 -1 -0.3 1
8 1 -1 -1.4 1.5
8 -1 1 0.6 1.4
8 1 -1 1.3 2
8 -1 1 0.8 1.9
-8 1 1 0.3 0.7
-8 -1 -1 0.3 0.8
-8 1 -1 -0.9 0.7
-8 -1 1 -0.2 1.1
8 -1 -1 -1.2 1.9
-8 -1 1 -0.1 0.8
8 -1 -1 0.9 1.4
8 1 1 1 1.5
8 1 1 -1.6 1.8
-8 1 -1 -0.1 1.3
0 2 -1 172.58 7.1
0 -2 -1 171.08 5.2
0 2 1 172.08 5.2
0 2 1 177.18 6.3
0 -2 1 174.68 5.4
0 -2 1 184.68 7.3
0 -2 -1 175.88 6.5
0 2 -1 175.08 5.4
1 2 -1 1553.24 45.6
-1 -2 -1 1603.14 44.1
-1 -2 -1 1596.94 43.9
1 2 -1 1583.44 44.8
1 -2 1 1578.14 45.8
-1 2 1 1635.34 45
-1 2 -1 1726.23 46.7
1 2 1 1586.94 45.1
1 -2 -1 1646.04 46.2
1 -2 -1 1605.54 44.9
-1 -2 1 1645.44 46
1 2 1 1620.74 45.7
-1 -2 1 1580.94 45.2
2 2 -1 185.48 7.5
-2 2 1 196.98 5.3
-2 -2 -1 181.38 6.5
-2 -2 -1 184.38 6.6
-2 2 1 194.78 6.6
2 -2 1 180.58 8
2 -2 1 190.28 5.6
2 2 -1 176.58 6.8
-2 2 1 192.58 7.6
2 -2 -1 172.48 7.6
2 2 1 184.78 6.8
2 -2 -1 186.98 5.6
2 2 1 184.48 7
-2 -2 1 181.68 6.6
-2 2 -1 180.78 5.2
2 -2 -1 190.98 6.7
-2 2 -1 196.98 7.9
-2 -2 1 191.18 6.9
3 -2 1 318.07 9.1
3 2 -1 315.97 8.7
-3 2 1 312.47 8.7
3 2 -1 292.67 11.1
-3 2 1 312.67 8.6
-3 -2 -1 308.87 10.4
-3 -2 -1 307.87 8.6
3 2 -1 292.87 11.5
3 -2 1 307.17 8.6
3 2 -1 308.37 8.8
-3 -2 -1 309.07 8.6
-3 -2 -1 308.37 10.7
-3 -2 1 309.57 10.6
3 2 1 298.17 11
-3 -2 1 306.97 8.5
-3 -2 1 314.47 10.8
3 -2 -1 308.17 8.9
3 2 1 302.77 8.6
-3 -2 1 307.87 8.6
3 2 1 304.47 8.5
-3 2 -1 296.87 8.6
3 -2 -1 305.47 8.5
3 2 1 305.47 11.2
-3 2 -1 300.97 8.5
-4 -2 -1 41.9 1.5
-4 2 1 41.6 1.6
4 2 -1 44.2 1.7
-4 -2 -1 40.6 1.5
4 -2 1 41.4 2
4 -2 1 41.2 1.5
-4 2 1 40.7 1.5
4 2 -1 41.8 1.6
4 -2 -1 42.5 1.5
-4 2 -1 41.5 1.6
4 2 1 42.9 1.7
-4 -2 1 39.2 1.5
-4 2 -1 40.4 1.5
4 2 1 38.3 1.5
-4 -2 1 42.4 1.5
4 -2 -1 38.8 1.9
-5 -2 -1 28.6 1.2
5 2 -1 26.5 1.5
5 2 -1 26.5 1.3
5 -2 1 29.4 1.3
5 -2 1 29 1.9
-5 -2 -1 28.6 1.2
-5 2 1 29.1 1.3
-5 2 1 27.1 1.2
5 2 1 27.1 1.3
5 -2 -1 27.5 1.2
5 2 1 26.4 1.5
-5 -2 1 27.3 1.2
-5 2 -1 28.3 1.2
-5 -2 1 26.3 1.2
5 -2 -1 24.9 1.7
-5 2 -1 25.9 1.3
-6 -2 -1 10.8 0.9
6 -2 1 10.5 1.5
6 -2 1 8.8 0.9
-6 2 1 11 1.1
-6 2 1 10.5 0.8
6 2 -1 7.7 1.1
-6 -2 -1 9.1 0.8
6 2 -1 9 1.1
6 2 1 11.5 1.3
-6 2 -1 11.1 0.9
6 2 1 9.6 1
-6 -2 1 10.7 0.9
6 -2 -1 8.8 1
-6 2 -1 9 1
-6 -2 1 9.7 0.9
6 -2 -1 10.3 1.3
7 2 -1 13.7 1.8
-7 -2 -1 13.6 1.2
-7 2 1 11.9 1.1
7 2 -1 10.4 1.5
-7 2 1 11.1 1.4
7 -2 1 10.9 1.4
7 -2 1 9.8 1.9
-7 -2 -1 12.9 1
-7 -2 1 10.6 1.1
7 2 1 13.9 1.7
7 -2 -1 12.3 1.5
-7 2 -1 12.6 1.1
7 -2 -1 8.6 1.8
-7 2 -1 13.9 1.6
7 2 1 14.5 1.6
-7 -2 1 12.3 1.1
8 2 -1 0.7 1.9
-8 -2 -1 1.4 0.8
-8 2 1 1.5 0.9
8 -2 1 -0.8 2.2
8 -2 1 1 1.4
8 2 -1 1.7 1.6
-8 -2 -1 0.8 1
-8 2 1 1.3 1.3
8 -2 -1 0.2 1.4
8 2 1 -2.4 1.4
-8 -2 1 0.3 0.9
-8 2 -1 -1.5 1.2
8 2 1 -3 1.7
8 -2 -1 3.1 2.2
-8 -2 1 1 1
-8 2 -1 0.7 0.8
0 3 -1 0.2 1.2
0 3 -1 0.3 0.3
0 3 1 0.2 0.8
0 -3 -1 0 0.3
0 3 1 0 0.2
0 -3 1 0.1 0.3
0 -3 1 0.5 1.3
0 -3 -1 -0.5 1
1 -3 1 155.88 7.5
-1 -3 -1 154.68 5
1 3 -1 149.69 5.4
1 3 -1 157.98 7.5
-1 -3 -1 157.08 5.9
-1 3 1 154.38 6.5
-1 -3 1 156.28 6.6
1 -3 -1 151.58 5.2
1 -3 -1 153.18 6.8
-1 3 -1 152.28 5.2
-1 -3 1 154.88 5.1
-1 3 -1 157.58 6.9
1 3 1 148.49 5.1
1 3 1 139.29 6.6
-2 3 1 560.74 18.1
-2 -3 -1 553.94 16.7
2 3 -1 536.95 15.1
2 3 -1 535.45 16.8
2 -3 1 562.74 15.5
2 3 -1 535.65 18.6
-2 -3 -1 561.54 16.4
2 -3 1 538.65 19
2 -3 1 564.44 16.7
-2 3 1 547.15 15
2 3 -1 538.05 15.2
-2 3 1 543.35 15.1
-2 3 -1 573.94 18.7
-2 -3 1 538.85 15
-2 -3 1 545.55 16.5
2 3 1 543.45 16.8
-2 3 -1 557.94 15.1
2 -3 -1 549.25 18.6
-2 -3 1 555.34 17.3
2 -3 -1 573.64 15.5
2 -3 -1 544.85 16.7
-2 -3 1 547.55 15.2
-2 3 -1 550.24 15.2
2 3 1 528.35 17.9
-3 3 1 31.6 1.1
3 3 -1 32.5 1.3
3 -3 1 31.2 1.6
3 3 -1 30.1 1.2
3 -3 1 31 1.1
-3 -3 -1 27.3 2.3
-3 -3 -1 31.8 1.2
-3 3 1 32.4 1.3
-3 -3 -1 28.2 2.3
-3 -3 -1 31.2 1.1
3 -3 -1 32.1 1.1
-3 3 -1 31.9 1.1
3 3 1 28 2.6
-3 -3 1 31.1 1.1
3 3 1 33.1 1.3
-3 3 -1 29.5 1.2
-3 -3 1 31.5 1.2
3 3 1 34.9 3.2
3 3 1 32.7 1.2
3 -3 -1 31.8 1.6
4 3 -1 88.39 3
4 -3 1 92.49 2.8
-4 -3 -1 91.09 2.7
-4 3 1 89.89 2.8
-4 3 1 89.59 2.9
4 3 -1 89.39 3
4 -3 1 88.49 3.4
-4 -3 -1 89.59 2.8
4 -3 -1 94.69 3.5
-4 3 -1 97.79 3.1
-4 -3 1 94.89 2.9
-4 -3 1 93.09 3
-4 3 -1 93.99 2.9
4 3 1 89.89 3
4 -3 -1 92.29 2.9
4 3 1 87.59 3.1
5 -3 1 13 0.8
5 3 -1 14.6 1.1
5 -3 1 12 1.4
5 3 -1 10.6 1
-5 -3 -1 12.1 0.7
-5 3 1 12.3 0.8
-5 -3 -1 11.5 0.8
-5 3 1 10.8 0.9
-5 -3 1 10.6 0.8
5 3 1 14.5 1.2
5 -3 -1 12.6 0.8
-5 3 -1 11.5 0.7
5 -3 -1 11.4 1.3
5 3 1 12 1
-5 3 -1 11.5 0.9
-5 -3 1 12.2 0.7
6 -3 1 0.6 0.7
-6 -3 -1 0.5 0.4
6 3 -1 0.9 0.7
-6 -3 -1 1.4 0.4
6 3 -1 1.8 0.8
6 -3 1 0.7 0.9
-6 3 1 0.5 0.4
-6 3 1 0.9 0.7
6 3 1 1.4 0.7
-6 3 -1 0.5 0.4
6 3 1 0.8 0.7
-6 -3 1 1.6 0.5
-6 3 -1 1.1 0.8
6 -3 -1 0.9 0.9
6 -3 -1 1 0.7
-6 -3 1 1.3 0.4
7 -3 1 2.2 1.6
7 -3 1 2 1.1
-7 -3 -1 1.5 0.5
-7 3 1 2.5 1.3
7 3 -1 2.6 1.3
7 3 -1 3.1 1.4
-7 3 1 1.6 0.7
-7 -3 -1 2.1 0.8
7 -3 -1 2.6 1.7
-7 -3 1 2.2 0.6
7 -3 -1 2.8 1.2
7 3 1 0.9 1.1
7 3 1 1.6 1.2
-7 3 -1 2.1 1.1
-7 -3 1 2.1 0.8
-7 3 -1 1.1 0.6
8 3 -1 5.7 2
-8 3 1 3.8 1.5
8 -3 1 4.1 2.5
8 -3 1 3.8 1.4
8 3 -1 2.8 1.8
-8 3 1 4.7 1
-8 -3 1 4.9 1
8 -3 -1 6.4 1.6
-8 -3 1 4.2 1
-8 3 -1 5.1 1
-8 3 -1 6.2 1.4
8 -3 -1 6.4 2.6
0 4 1 33.4 3
0 -4 -1 33.6 3.9
0 4 -1 32 1.8
0 4 1 31.8 1.7
0 4 -1 33.1 3.9
0 -4 1 30.3 4.2
0 -4 1 30.8 1.8
-1 4 1 393.06 11.9
1 4 -1 367.86 15
1 -4 1 382.36 15.3
-1 -4 -1 411.66 11.7
1 4 -1 401.96 12.2
-1 -4 -1 402.16 13.3
1 -4 1 400.96 11.5
1 -4 1 384.56 10.8
-1 4 1 396.36 13.9
-1 4 -1 396.96 14.4
1 -4 -1 407.06 12
-1 4 -1 393.06 12
-1 -4 1 394.56 14.1
1 4 1 381.16 11.9
1 4 1 375.06 14.3
1 -4 -1 378.26 14.5
-1 4 -1 392.36 10.9
-1 -4 1 396.96 11.8
-2 -4 -1 151.28 4.3
-2 4 1 156.38 4.6
2 4 -1 151.58 4.5
2 4 -1 149.69 6.2
-2 -4 -1 153.88 4.5
-2 -4 -1 156.88 5.6
2 4 -1 152.78 8.5
2 4 -1 163.68 4.7
-2 -4 -1 155.98 6.2
-2 4 1 168.48 7.6
-2 4 1 157.08 4.4
2 -4 1 152.78 5.1
2 4 1 154.58 4.6
-2 -4 1 156.88 4.3
-2 -4 1 164.88 4.6
-2 -4 1 150.18 5.7
2 4 1 148.89 6
2 -4 -1 141.19 7.8
2 4 1 158.68 8
2 4 1 148.29 4.4
2 -4 -1 151.78 6
-2 4 -1 157.08 4.4
2 -4 -1 162.08 5
-2 4 -1 153.08 4.6
-2 -4 1 151.08 6.7
3 4 -1 21.2 1.2
3 -4 1 22.1 1.6
-3 -4 -1 21.9 0.8
3 4 -1 21.7 1
-3 4 1 22.8 0.9
-3 4 1 21.1 1
-3 -4 -1 24.2 1
-3 4 -1 21.3 0.9
-3 -4 1 23.4 1
-3 4 -1 23.8 1.1
3 -4 -1 22.4 1.5
-3 -4 1 20.9 0.8
3 -4 -1 21.6 0.9
3 4 1 22 1.1
3 4 1 21.9 1
4 4 -1 10.3 0.9
4 -4 1 11.1 0.7
-4 4 1 11.2 0.9
4 -4 1 10.4 1.3
-4 4 1 9.6 0.6
-4 -4 -1 10.2 0.6
-4 -4 -1 9.9 0.7
4 4 -1 9.4 0.8
-4 4 -1 10 0.8
-4 -4 1 9.8 0.6
-4 -4 1 10 0.7
-4 4 -1 10.7 0.6
4 4 1 10.8 0.9
4 -4 -1 9.8 0.7
4 -4 -1 10.9 1.3
4 4 1 10.4 0.9
-5 4 1 26.8 1.2
5 4 -1 26.2 1.5
-5 -4 -1 26 1.1
5 -4 1 27.7 1.3
-5 -4 -1 28.1 1.2
5 -4 1 27.2 2
5 4 -1 29 1.5
-5 4 1 29.7 1.4
-5 4 -1 28.9 1.4
5 -4 -1 26.3 1.3
-5 -4 1 29.3 1.2
5 4 1 27.5 1.5
5 -4 -1 25.7 1.9
5 4 1 23.1 1.4
-5 -4 1 27 1.3
-5 4 -1 27.3 1.2
6 -4 1 4.8 1.2
6 4 -1 9.3 1.3
6 4 -1 8.9 1.2
6 -4 1 8.9 1.1
-6 4 1 8.6 0.8
-6 4 1 7.5 1.1
-6 4 -1 11.6 1.4
-6 -4 1 9.6 0.8
-6 4 -1 6.7 0.7
6 -4 -1 10.1 1.6
6 -4 -1 8.7 1.1
-6 -4 1 8.3 0.8
7 -4 1 6.2 1.4
-7 4 1 6 1.3
7 4 -1 6.4 1.7
7 -4 1 8.1 2.1
-7 4 1 6.8 0.9
7 4 -1 6.8 1.5
7 -4 -1 7.4 2.3
-7 -4 1 6.8 0.9
7 -4 -1 5.3 1.3
-7 -4 1 7.1 0.9
-7 4 -1 5.9 1.5
-7 4 -1 6 0.9
-8 4 1 -0.2 0.9
-8 4 1 1.4 1.6
8 -4 1 1.3 2.7
8 -4 1 1.5 1.5
-8 4 -1 -0.1 1.3
8 -4 -1 -0.4 1.5
-8 4 -1 0 0.8
8 -4 -1 1.5 2.8
0 5 -1 0.4 1.3
0 5 -1 1 0.2
0 -5 1 1.2 1.8
0 5 -1 1.4 0.6
0 5 -1 1.4 0.4
0 5 1 1.1 0.5
0 -5 -1 0.4 1.4
0 5 1 -0.2 1
0 -5 1 0.7 0.5
0 -5 1 1.1 0.2
0 -5 1 1 0.7
1 5 -1 15.8 1.5
1 -5 1 15.6 3.6
1 -5 1 15.6 0.6
-1 5 1 18.2 2.9
1 5 -1 15.5 0.7
-1 5 1 18.2 0.8
-1 5 1 16.4 1.4
-1 -5 -1 16.2 1.3
1 5 -1 15.7 1
-1 -5 -1 16.9 2.6
1 5 -1 18.1 3.6
1 -5 1 19.4 1.6
1 -5 -1 11.9 2.9
1 -5 -1 17 1.5
1 5 1 17.3 3.2
-1 5 -1 15.8 1.4
-1 -5 1 17.7 3.1
-1 5 -1 16.3 0.9
1 5 1 18.4 1.5
-1 5 -1 19.9 3.3
-1 -5 1 16.8 1.4
1 -5 -1 15.9 0.6
-1 -5 1 16 0.6
1 -5 -1 16.1 1.3
-1 -5 1 16.3 1.1
2 -5 1 134.29 4.7
2 5 -1 132.19 5.9
-2 5 1 139.09 4.1
-2 5 1 141.89 3.9
2 5 -1 115.09 8.1
2 5 -1 135.19 4
2 5 -1 126.69 4.2
2 -5 -1 137.39 4.7
-2 -5 1 131.69 6.7
-2 5 -1 143.99 4.3
-2 -5 1 144.29 5.5
-2 -5 1 137.49 3.9
-2 -5 1 136.09 4.3
-3 5 1 108.19 3.4
3 5 -1 105.89 3.3
3 5 -1 103.19 3.5
-3 5 1 104.29 3.1
3 -5 1 102.19 4.1
-3 -5 1 108.09 3.3
-3 5 -1 103.99 3.4
3 -5 -1 105.19 3.2
-3 -5 1 103.89 3.1
-3 5 -1 105.79 3.2
3 -5 -1 103.59 3.9
4 5 -1 28.5 1.6
-4 5 1 32.4 1.2
4 -5 1 32.4 1.3
4 5 -1 29.9 1.4
4 -5 1 30.9 2.2
-4 5 1 32.7 1.4
4 -5 -1 33.4 1.3
-4 5 -1 31.3 1.5
-4 -5 1 32.9 1.2
-4 -5 1 32.9 1.4
-4 5 -1 30.7 1.3
4 -5 -1 32.5 2.1
-5 5 1 7.1 0.6
5 5 -1 6.6 1
5 -5 1 8.8 1.4
5 5 -1 8.5 1
-5 5 1 9.1 1
5 -5 1 6.1 0.7
5 -5 -1 10.1 1.5
-5 -5 1 6.9 0.6
5 -5 -1 8.3 0.8
-5 5 -1 7.3 0.9
-5 5 -1 7.3 0.7
-5 -5 1 7.8 0.8
-6 5 1 0.4 1.1
6 -5 1 -0.5 1.2
6 -5 1 -0.2 0.8
-6 5 1 -0.1 0.4
6 -5 -1 0.6 1.1
-6 5 -1 0.6 1
6 -5 -1 1.5 0.9
-6 5 -1 -0.5 0.4
7 -5 1 3.4 2.4
-7 5 1 1.8 1.3
7 -5 1 2.2 1.2
-7 5 1 1.9 0.8
7 -5 -1 0.4 2.2
-7 5 -1 2.5 1.4
7 -5 -1 2 1.2
-7 5 -1 2 0.8
0 -6 1 6.7 1.1
0 6 -1 8.5 0.5
0 -6 1 8.1 0.4
0 6 -1 10 0.8
1 -6 1 13 1.5
1 6 -1 10.2 0.9
-1 6 1 12.4 0.7
1 -6 1 12.1 0.6
1 -6 -1 14 0.6
-1 -6 1 16.4 1.2
-1 6 -1 12.1 0.8
-1 6 -1 13.8 0.7
1 -6 -1 14.4 1.4
-1 -6 1 13.3 0.5
2 -6 1 136.69 5.1
-2 6 1 145.89 4.3
-2 6 -1 145.49 4.4
2 -6 -1 136.59 5
-3 6 1 0.5 0.4
3 -6 1 2.8 0.9
-3 6 1 1 0.3
-3 6 -1 1.1 0.4
3 -6 -1 0.9 0.3
3 -6 -1 -0.1 0.8
-4 6 1 0.5 0.3
4 -6 1 1.2 0.4
4 -6 1 2.4 1
-4 6 1 1.4 0.5
-4 6 -1 0.9 0.3
4 -6 -1 1.1 0.4
-4 6 -1 1.1 0.5
4 -6 -1 -0.3 0.8
-5 6 1 2 0.4
-5 6 1 1.8 0.8
5 -6 1 1.9 0.7
5 -6 1 2.2 1.2
5 -6 -1 1.6 0.6
-5 6 -1 3.9 1
-5 6 -1 1.8 0.4
5 -6 -1 2.2 1.2
6 -6 1 9.8 1.1
6 -6 1 8.8 2.2
-6 6 1 9.7 1.4
-6 6 1 9.9 0.9
6 -6 -1 10.7 1.2
-6 6 -1 10.1 1
6 -6 -1 9.4 2.2
-6 6 -1 12.6 1.6
-7 6 1 3.4 0.8
7 -6 1 -1 2.5
7 -6 1 3.1 1.3
-7 6 1 2.9 1.5
7 -6 -1 3.1 1.2
-7 6 -1 2.2 1.4
7 -6 -1 2.9 2.3
-7 6 -1 3.4 0.9
1 -7 1 8.3 0.5
1 -7 1 13.5 1.6
-1 7 -1 9.8 0.9
-1 7 -1 10.5 0.6
2 -7 1 7.2 1.4
-2 7 -1 8.5 0.8
3 -7 1 48.1 3
-3 7 1 59.79 2.2
-3 7 -1 61.39 2.3
3 -7 -1 56.69 3.1
4 -7 1 26 2.6
4 -7 1 22.3 1.1
-4 7 1 25.1 1.4
4 -7 -1 24.8 1.2
4 -7 -1 22.6 2.3
-4 7 -1 26.4 1.6
-5 7 1 4.3 1.1
5 -7 1 5.6 0.8
5 -7 1 2.9 1.5
-5 7 1 5 0.6
5 -7 -1 4.3 0.8
-5 7 -1 7.1 1.3
5 -7 -1 1.3 1.3
6 -7 1 0.7 2.2
-6 7 1 2.7 0.7
6 -7 1 2.2 1
-6 7 1 3.1 1.3
6 -7 -1 5.6 2.3
-6 7 -1 4.4 1.4
-6 7 -1 2.8 0.7
6 -7 -1 3.1 1
7 -7 1 -1 3.2
-7 7 1 0 1.4
-7 7 1 0.6 0.8
7 -7 1 1.7 1.8
-7 7 -1 0.9 1.6
7 -7 -1 1.9 1.2
7 -7 -1 3.2 2.9
4 -8 1 1.2 1.3
4 -8 1 0.7 0.6
-4 8 -1 1.3 0.9
5 -8 1 2.6 1.8
5 -8 1 4.6 1
-5 8 -1 3.6 1.3
6 -8 1 9.7 3.1
6 -8 1 8.3 1.3
-6 8 -1 7.2 1.6
-1 0 -2 426.56 12.4
1 0 -2 435.16 12.8
1 0 -2 440.86 12.9
1 0 2 440.46 12.5
1 0 2 444.56 13.2
-1 0 2 441.36 12.8
-1 0 2 421.46 12.8
-1 0 -2 439.66 13.1
-2 0 -2 200.88 6.9
-2 0 -2 214.08 7.7
2 0 -2 204.38 7.4
-2 0 2 209.48 7.2
2 0 -2 207.18 7.6
2 0 2 203.28 7.8
2 0 2 207.78 7
-3 0 2 -0.2 0.7
-3 0 2 -0.1 0.2
3 0 2 -0.3 0.4
-3 0 -2 0.2 0.6
3 0 -2 0 0.2
3 0 -2 0 0.9
3 0 -2 -0.1 0.3
3 0 -2 0.4 0.7
-3 0 -2 0.1 0.2
-3 0 2 0.8 0.7
-3 0 -2 1 0.9
3 0 2 0.3 0.6
-3 0 -2 -0.1 0.2
-3 0 2 0.2 0.2
3 0 2 0.1 0.2
3 0 2 0.3 1
4 0 -2 11.6 0.7
-4 0 2 10.3 0.7
4 0 -2 10.9 1
4 0 2 9.7 0.6
-4 0 2 11.7 0.7
-4 0 -2 10.1 0.6
-4 0 -2 10.1 0.7
4 0 2 10.1 1
-5 0 2 11.4 0.8
5 0 2 8.5 0.7
5 0 -2 10.7 0.9
5 0 2 10.3 1.1
-5 0 -2 10 0.7
5 0 -2 10.3 1.1
-5 0 -2 9 0.7
-5 0 2 9.7 0.7
6 0 -2 -0.3 0.6
6 0 -2 0.5 0.6
6 0 2 -0.2 0.4
-6 0 -2 0.8 0.3
6 0 2 0.9 0.7
-6 0 2 -0.1 0.3
-6 0 -2 -0.2 0.4
-6 0 2 0 0.5
-7 0 2 4.2 0.7
-7 0 2 5 1.1
-7 0 -2 4.1 0.7
7 0 -2 3.6 1.3
-7 0 -2 5.5 1.1
7 0 2 4.7 1.4
7 0 -2 2.7 1.1
7 0 2 3.4 1.1
-8 0 -2 4.4 1.3
8 0 -2 4.7 1.5
-8 0 -2 3.3 0.9
8 0 2 1.9 2
8 0 -2 0.8 2
8 0 2 4.6 1.6
-8 0 2 3.2 1.3
-8 0 2 2.7 0.9
0 -1 2 496.15 14.5
0 1 -2 488.35 14.5
0 -1 -2 453.65 12.6
0 -1 2 430.66 12.8
0 1 -2 430.86 12.8
1 -1 2 211.18 7.7
-1 1 2 212.08 6.6
1 -1 2 213.18 6.6
-1 -1 -2 211.38 6.5
-1 1 2 215.58 7
1 1 -2 213.38 7.5
1 1 -2 208.68 6.8
-1 -1 -2 209.48 6.3
1 1 2 208.98 6.5
-1 -1 2 217.88 7.3
1 -1 -2 217.28 7.1
1 1 2 209.58 6.7
1 -1 -2 217.18 6.7
-1 -1 2 216.98 6.8
-1 1 -2 219.78 7.7
2 1 -2 62.49 3.5
2 -1 2 68.19 4.1
-2 -1 -2 69.09 3.3
-2 1 2 67.69 3.1
2 -1 2 67.59 3.1
-2 1 2 65.09 3.5
2 1 -2 62.19 3.4
-2 -1 -2 70.89 3
2 1 2 62.19 3
-2 -1 2 64.59 3.2
2 -1 -2 61.39 3.1
2 -1 -2 71.89 3.8
2 1 2 60.59 3.3
-2 1 -2 69.69 3.9
-2 1 -2 65.49 3
-2 -1 2 69.89 3.4
3 -1 2 149.39 7.8
-3 1 2 163.18 4.7
-3 -1 -2 163.58 6.8
3 1 -2 158.68 7.1
-3 -1 -2 157.48 4.6
-3 -1 -2 168.28 6.3
-3 -1 -2 155.48 4.6
3 -1 2 167.08 5
3 -1 2 162.68 4.6
-3 1 2 161.88 4.7
3 1 -2 164.18 4.7
-3 1 2 165.48 7.4
3 1 -2 165.38 7.1
3 1 -2 164.28 4.8
-3 1 2 162.28 6.9
3 -1 2 158.28 6.6
3 -1 -2 155.48 8.2
-3 1 -2 163.98 4.7
-3 1 -2 165.08 7.8
3 1 2 164.58 4.9
-3 -1 2 162.98 6.8
3 -1 -2 168.68 5
3 1 2 162.28 4.6
-3 -1 2 162.38 4.7
3 -1 -2 175.58 7.8
3 -1 -2 166.68 4.7
-3 -1 2 161.18 4.7
-3 1 -2 162.48 4.7
3 1 2 157.28 6.6
3 1 2 158.68 7.2
-3 -1 2 159.38 6.6
-3 1 -2 156.98 6.3
-4 -1 -2 43.4 1.5
-4 1 2 43.8 1.6
4 1 -2 42.4 1.6
4 -1 2 43.4 1.5
4 -1 2 44.2 2
4 1 -2 44.9 1.8
-4 1 2 42 1.6
-4 -1 -2 45.2 1.5
-4 1 -2 43.8 1.6
-4 -1 2 45.1 1.6
4 1 2 45.7 1.9
4 -1 -2 44.5 1.6
4 -1 -2 41.6 1.9
-4 1 -2 45 1.7
4 1 2 43.5 1.6
-4 -1 2 45.2 1.6
-5 1 2 147.69 4.4
-5 -1 -2 146.39 4.4
5 1 -2 140.39 4.8
5 1 -2 141.59 4.5
-5 -1 -2 149.49 4.4
5 -1 2 140.29 5
5 -1 2 143.39 4.4
-5 1 2 149.39 4.5
-5 1 -2 146.79 4.4
-5 -1 2 144.79 4.4
5 -1 -2 152.18 4.5
5 -1 -2 140.69 4.9
-5 1 -2 152.78 4.5
-5 -1 2 145.59 4.5
5 1 2 143.49 4.9
5 1 2 148.39 4.5
6 -1 2 12.2 1.5
-6 1 2 10.9 0.9
-6 1 2 9.8 1
-6 -1 -2 11.6 0.9
-6 -1 -2 10.2 0.7
6 -1 2 9.2 0.9
6 1 -2 9.9 1.2
6 1 -2 10 1
-6 1 -2 10.8 0.9
6 1 2 10.7 1
6 -1 -2 8.5 1.2
-6 1 -2 10.1 0.9
-6 -1 2 9.6 0.8
6 1 2 7.4 1.1
-6 -1 2 8.4 0.8
6 -1 -2 10.5 1
-7 1 2 2 0.6
-7 1 2 2.7 1.1
-7 -1 -2 3 0.6
7 -1 2 2.7 1.4
7 1 -2 3.5 1.3
7 1 -2 3.4 1.2
-7 -1 -2 1.8 0.9
7 -1 2 2.6 1
-7 1 -2 3.7 1.1
7 1 2 3.5 1.2
7 1 2 2.2 1.1
7 -1 -2 0.7 1.1
-7 -1 2 2.5 0.9
-7 1 -2 2.6 0.6
-7 -1 2 2.8 0.6
7 -1 -2 2.5 1.2
-8 1 2 4.4 1.4
-8 1 2 4.2 0.9
8 1 -2 6.1 1.7
8 1 -2 7.4 2.2
8 -1 2 7.8 2.6
-8 -1 -2 5.9 1
-8 -1 -2 6 1.2
8 -1 2 3.4 1.4
8 1 2 5.3 2.1
8 -1 -2 4.4 1.6
-8 -1 2 3.8 1.1
-8 -1 2 3.4 1
8 -1 -2 4.4 2
-8 1 -2 5.3 1
8 1 2 3.9 1.5
-8 1 -2 3.5 1.2
0 -2 -2 2.7 0.9
0 2 -2 1.2 0.4
0 -2 2 4.6 1.5
0 -2 2 1.1 0.4
0 2 2 1.1 0.2
0 2 -2 3.3 1.5
0 2 2 1.5 0.6
1 2 -2 288.57 9
-1 -2 -2 295.17 8.7
1 -2 2 302.87 10.9
-1 2 2 281.07 8.7
-1 2 2 292.37 9.5
1 2 -2 284.67 10.7
-1 -2 -2 292.67 8.5
-1 -2 2 297.87 10.2
1 2 2 279.47 8.6
-1 2 -2 303.17 10.6
1 -2 -2 292.47 8.8
1 -2 -2 284.07 9.7
1 2 2 282.37 9.2
-1 -2 2 294.27 8.9
-2 2 2 270.47 9.5
-2 -2 -2 252.17 8.3
2 -2 2 257.87 7.4
2 2 -2 250.17 8.8
2 2 -2 255.77 9.8
-2 2 2 247.48 8.3
2 -2 2 247.88 8.4
2 -2 2 247.18 10.1
-2 -2 -2 243.08 8.2
-2 -2 2 251.17 8.8
-2 2 -2 250.67 6.9
-2 -2 2 254.07 8.4
-2 2 -2 244.18 7
2 2 2 243.68 8.4
2 2 2 239.18 8.5
-2 2 -2 252.67 9.8
2 -2 -2 243.68 9.4
2 -2 -2 248.18 8.3
-3 2 2 49.9 1.7
3 2 -2 52.09 1.8
-3 2 2 47.7 1.6
-3 -2 -2 52.79 1.6
3 2 -2 51.69 1.8
-3 -2 -2 47.5 3.1
-3 -2 -2 50.19 1.6
-3 -2 -2 51.89 2.9
3 -2 2 49 2.1
3 -2 2 51.49 1.6
-3 2 -2 49.99 1.6
-3 -2 2 48.8 1.7
3 2 2 52.69 1.7
3 -2 -2 52.49 2
3 2 2 53.49 1.8
-3 -2 2 50.29 1.6
3 -2 -2 51.29 1.7
3 2 2 49.4 3.3
-3 2 -2 49.9 1.8
3 2 2 46.2 3.4
4 2 -2 14 0.8
4 -2 2 13.5 0.7
-4 2 2 13.5 0.8
4 -2 2 11.9 1.2
-4 2 2 14.6 0.8
-4 -2 -2 13.5 0.7
-4 -2 -2 12.2 0.7
4 2 -2 14.3 0.9
4 -2 -2 15.6 1.3
4 2 2 13.4 0.7
-4 2 -2 12.6 0.7
4 2 2 12.9 0.9
-4 2 -2 12.6 0.8
-4 -2 2 14.6 0.7
4 -2 -2 14.7 0.7
-4 -2 2 13.3 0.8
-5 -2 -2 19.3 1
5 2 -2 18.6 1.3
5 -2 2 16.5 1.5
-5 -2 -2 17.1 0.9
5 2 -2 19.6 1.1
-5 2 2 19.4 1.1
5 -2 2 20.5 1
-5 2 2 19.2 1
-5 2 -2 18.4 1.1
-5 -2 2 20.1 1
-5 -2 2 18.4 1
5 2 2 19.5 1.3
5 -2 -2 16.6 1.5
-5 2 -2 19.9 1
5 -2 -2 22 1.1
5 2 2 18.4 1
-6 2 2 2.5 0.8
6 2 -2 3.2 0.8
-6 -2 -2 2.7 0.5
-6 2 2 2.4 0.5
6 2 -2 1.6 0.8
-6 -2 -2 3.3 0.5
6 -2 2 3 0.7
6 -2 2 2.1 1
6 2 2 3.6 0.8
-6 -2 2 4 0.6
6 2 2 1.5 0.6
-6 2 -2 3 0.5
6 -2 -2 4 0.8
-6 -2 2 2.7 0.5
-6 2 -2 2.4 0.8
6 -2 -2 2.7 0.9
-7 2 2 7.7 0.9
7 2 -2 8.3 1.6
7 2 -2 5.1 1.3
7 -2 2 9.4 1.9
-7 2 2 7.3 1.3
-7 -2 -2 7.6 1
-7 -2 -2 8.6 0.9
7 -2 2 6.9 1.2
-7 2 -2 7.6 0.9
7 2 2 8 1.4
-7 2 -2 9.3 1.4
7 -2 -2 6.7 1.7
7 2 2 6.8 1.4
7 -2 -2 9.1 1.4
-7 -2 2 8.5 0.9
-7 -2 2 8.6 1.1
8 -2 2 9.5 1.7
8 -2 2 7.3 2.6
-8 -2 -2 6 1
8 2 -2 6.9 2.1
-8 2 2 9 1.7
8 2 -2 9.3 1.9
-8 -2 -2 7.6 1.1
-8 2 2 9.3 1.2
-8 -2 2 7.5 1.2
-8 -2 2 6.6 1.1
8 2 2 8.1 1.7
8 2 2 7.5 2.1
-8 2 -2 6.8 1.1
8 -2 -2 7.7 1.7
8 -2 -2 3.1 2.4
-8 2 -2 7.1 1.6
0 -3 2 550.04 16.1
0 3 2 542.35 15.6
0 3 2 570.14 17.1
0 -3 -2 566.34 17.5
0 3 -2 540.55 16.1
0 3 -2 562.14 18.9
0 -3 2 577.94 19.3
-1 3 2 177.18 6.8
-1 -3 -2 172.18 5.3
1 3 -2 173.38 6
1 3 -2 169.88 8.2
-1 -3 -2 170.58 6
1 -3 2 160.58 8.1
-1 -3 2 172.08 5.8
1 3 2 173.98 5.7
1 -3 -2 175.18 5.8
-1 3 -2 175.78 5.9
-1 -3 2 185.58 7.7
-1 3 -2 177.28 7.9
1 3 2 168.48 7
1 -3 -2 170.18 7.1
2 -3 2 4.5 2
-2 3 2 8.1 0.5
-2 -3 -2 11.8 1.5
2 3 -2 10.9 0.8
2 -3 2 9.4 1.4
-2 -3 -2 8.2 1.1
-2 3 2 7.5 1.6
2 3 -2 8.5 0.5
2 3 -2 8.7 1.4
-2 3 2 9.1 0.5
2 -3 2 9.1 1
2 3 -2 11.2 2.6
-2 -3 2 8.6 0.6
-2 -3 2 8.3 0.4
2 -3 -2 9 1.4
-2 3 -2 9 0.7
2 -3 -2 8.3 0.5
2 -3 -2 9.5 0.8
2 3 2 8 1.3
-2 3 -2 9.3 0.5
-2 -3 2 9.7 1.4
2 3 2 10 1.8
-2 3 -2 7 1.9
-2 -3 2 11.6 1.9
2 -3 -2 8.2 1.9
-3 -3 -2 41.5 2.7
3 3 -2 40.8 1.6
-3 -3 -2 38.5 1.4
3 3 -2 38.1 1.5
-3 3 2 39.5 1.4
3 -3 2 39.8 1.9
-3 3 2 38.9 1.4
-3 -3 -2 40.4 1.3
-3 -3 -2 37.2 2.5
-3 3 -2 39.2 1.3
3 3 2 39.5 1.4
3 3 2 40.6 3
3 3 2 39.7 3.3
-3 3 -2 38.8 1.5
3 -3 -2 40.5 1.8
-3 -3 2 39.7 1.3
3 -3 -2 39.2 1.4
-3 -3 2 39.6 1.5
3 3 2 38.9 1.5
-4 -3 -2 41.6 1.4
-4 -3 -2 41.5 1.5
4 3 -2 39.9 1.7
-4 3 2 42.2 1.6
4 -3 2 39.2 2.1
4 3 -2 43.3 1.7
4 -3 2 43.8 1.5
-4 3 2 40.3 1.5
-4 -3 2 41 1.6
4 -3 -2 42.2 2
-4 3 -2 43.3 1.5
4 3 2 44.1 1.6
4 3 2 43.2 1.7
-4 3 -2 42 1.7
4 -3 -2 43.6 1.5
-4 -3 2 41.9 1.5
-5 -3 -2 63.59 2.1
5 3 -2 64.99 2.5
5 -3 2 61.99 2.2
5 3 -2 60.99 2.4
-5 3 2 65.99 2.3
5 -3 2 62.49 3
-5 -3 -2 60.19 2.1
-5 3 2 62.69 2.2
-5 3 -2 63.59 2.2
-5 3 -2 61.19 2.3
5 3 2 60.39 2.5
5 -3 -2 63.69 2.8
-5 -3 2 62.49 2.1
5 3 2 62.39 2.3
5 -3 -2 61.99 2.2
-5 -3 2 64.09 2.3
6 3 -2 11.5 1.3
6 3 -2 13.6 1.3
-6 -3 -2 11 0.8
6 -3 2 10.4 1
-6 3 2 11.5 1.1
-6 -3 -2 12.7 0.9
6 -3 2 7.8 1.4
-6 3 2 12.9 0.9
6 3 2 11.6 1.1
6 -3 -2 8.7 1.3
6 -3 -2 12.3 1.1
6 3 2 14.1 1.4
-6 -3 2 13 1
-6 3 -2 10.4 1.1
-6 -3 2 11.5 0.9
-6 3 -2 11.4 0.8
-7 3 2 0.4 1
7 3 -2 2 1.1
7 3 -2 0.3 1.3
-7 -3 -2 0.5 0.4
7 -3 2 0 1.7
7 -3 2 1.1 1
-7 -3 -2 0.2 0.7
-7 3 2 0.9 0.7
-7 -3 2 0.4 0.5
7 -3 -2 -0.1 1
-7 -3 2 0.5 0.7
7 3 2 2.2 1.2
7 -3 -2 -0.2 1.5
-7 3 -2 1 0.6
7 3 2 -0.3 1
-7 3 -2 2 1.1
8 -3 2 1 2.4
8 3 -2 2.8 1.8
8 -3 2 2.1 1.4
-8 3 2 0.6 1.4
-8 3 2 1 0.9
8 3 -2 1.7 1.8
-8 3 -2 1.6 0.8
-8 -3 2 1.5 0.9
8 -3 -2 1.2 1.5
8 -3 -2 1.2 2.3
-8 3 -2 1.5 1.4
-8 -3 2 1.5 1
0 4 -2 249.78 11
0 -4 2 253.17 11.4
0 4 -2 260.57 8.2
0 -4 2 233.68 7.6
0 -4 2 241.38 6.9
0 4 2 257.77 7.7
0 -4 -2 248.48 10
0 4 2 249.88 9.4
0 4 -2 251.77 7
0 -4 2 264.67 8.1
0 4 -2 256.17 7.2
-1 4 2 497.45 16
1 -4 2 471.55 13.1
1 -4 2 481.65 18.3
1 4 -2 445.76 17.8
-1 -4 -2 491.45 15.2
1 4 -2 459.85 13.5
-1 4 2 477.65 14.2
1 -4 2 503.25 13.9
-1 -4 -2 501.55 13.9
1 4 -2 475.55 13.2
1 4 -2 477.35 14.6
-1 -4 2 469.55 13.6
-1 4 -2 493.65 13.4
1 4 2 457.55 16.3
-1 4 -2 483.05 17.3
-1 -4 2 472.05 13.1
-1 -4 2 491.15 14.4
1 -4 -2 464.75 16.7
1 -4 -2 499.95 14.4
1 4 2 479.35 14.2
-1 -4 2 494.65 17.1
-1 4 -2 488.15 14.5
-2 4 2 97.59 2.8
-2 -4 -2 95.79 4.3
2 4 -2 97.19 4.6
2 4 -2 99.09 3.2
-2 4 2 95.39 2.9
2 -4 2 88.79 3.5
2 4 -2 83.19 6.4
2 4 -2 97.49 2.9
-2 -4 -2 99.19 3.9
-2 4 2 102.79 5.5
2 -4 -2 94.89 4.3
-2 -4 2 99.49 5.3
2 4 2 89.39 4.2
-2 -4 2 96.59 3.1
-2 -4 2 95.49 4.1
2 -4 -2 100.99 3.3
-2 4 -2 95.29 3
-2 4 -2 98.39 2.8
-2 -4 2 97.89 2.8
2 -4 -2 83.39 5.7
2 4 2 91.19 5.7
-3 -4 -2 15 0.6
3 -4 2 17.3 1.5
3 4 -2 15.2 1
-3 4 2 14.5 0.7
-3 -4 -2 15.2 0.7
3 4 -2 13.1 0.8
-3 4 2 14.9 0.8
-3 4 -2 14.4 0.7
3 -4 -2 16.3 1.3
3 4 2 16.1 0.8
-3 -4 2 14.6 0.6
-3 -4 2 14.2 0.8
-3 4 -2 14.7 0.9
3 4 2 15.4 0.9
3 -4 -2 14 0.7
4 4 -2 21.4 1.3
-4 -4 -2 21.5 1
4 4 -2 21 1.2
4 -4 2 21.4 1
-4 -4 -2 20.5 0.9
-4 4 2 21.8 0.9
4 -4 2 20.8 1.8
-4 4 2 18.8 1.1
4 4 2 22.7 1.1
4 4 2 20.9 1.1
-4 -4 2 20.2 0.9
4 -4 -2 22.8 1
-4 4 -2 20.9 1
-4 4 -2 22.2 1.2
4 -4 -2 20 1.5
-4 -4 2 22.5 1.1
5 -4 2 3.5 1.1
5 4 -2 4.8 0.8
-5 4 2 6.5 0.6
5 4 -2 4.9 0.8
5 -4 2 5 0.6
-5 4 2 4.5 0.7
-5 4 -2 5.5 0.8
-5 4 -2 5.8 0.6
5 -4 -2 5.4 1
-5 -4 2 6.3 0.7
5 -4 -2 5.6 0.6
-5 -4 2 6.3 0.6
6 -4 2 0.1 1
6 4 -2 1 1
-6 4 2 -0.3 0.8
6 -4 2 1 0.8
-6 4 2 0.9 0.4
6 4 -2 0.6 0.7
-6 -4 2 1 0.5
-6 4 -2 1.3 0.9
6 -4 -2 0.6 0.8
-6 4 -2 1.8 0.4
-6 -4 2 1.6 0.5
6 -4 -2 0.5 1
7 4 -2 6.7 1.7
-7 4 2 5.8 1.4
7 -4 2 5.4 2.2
-7 4 2 5.9 0.9
7 -4 2 5.2 1.3
7 4 -2 3.7 1.3
7 -4 -2 6.2 2.1
-7 -4 2 4.6 0.9
-7 4 -2 6.3 1.5
7 -4 -2 7.6 1.4
-7 4 -2 4.1 0.8
-7 -4 2 5.1 0.8
8 -4 2 4.4 4.5
-8 4 2 4.9 1.7
8 -4 2 3.3 1.9
-8 4 2 5.2 1.5
-8 4 -2 4.9 1.4
8 -4 -2 2.7 2.1
-8 4 -2 4.2 1.9
8 -4 -2 4.8 3
0 -5 -2 140.29 7.3
0 -5 2 121.89 4.5
0 5 2 134.39 4.7
0 5 2 135.09 6.5
0 -5 2 143.69 5.2
0 5 -2 129.39 7.8
0 5 -2 136.69 3.9
0 5 -2 133.69 5.1
0 -5 2 133.69 3.8
0 5 -2 135.39 4.1
0 -5 2 127.09 8.2
-1 5 2 10 0.6
1 -5 2 11 1.3
1 5 -2 14.2 1.7
1 5 -2 10.1 0.5
1 -5 2 9.4 0.5
1 5 -2 11.9 1
1 5 -2 13.2 3.2
-1 5 2 11.2 2.1
-1 5 2 12.5 1.3
1 -5 -2 9.7 2.5
1 -5 -2 11.1 1.1
-1 -5 2 10.4 0.5
-1 -5 2 11.1 1.1
-1 -5 2 9.9 1.3
1 -5 -2 11.3 1.4
-1 5 -2 11.8 0.8
-1 -5 2 10.5 2.5
2 5 -2 62.39 2.1
-2 5 2 62.99 2.1
2 5 -2 61.19 2.4
-2 5 2 65.89 1.9
2 -5 2 63.09 2.8
-2 -5 2 64.09 1.9
2 -5 -2 63.69 2.6
-2 5 -2 62.79 2.2
-2 -5 2 60.79 2.3
3 5 -2 23.6 1.4
3 5 -2 26.1 1.2
3 -5 2 24.5 2
-3 5 2 26.4 1.2
-3 5 2 25.6 1
3 -5 -2 23.8 1.7
-3 5 -2 25.2 1
-3 -5 2 27.8 1.2
-3 -5 2 26.2 1
3 -5 -2 25.8 1
-3 5 -2 26 1.3
4 5 -2 3.4 0.6
4 -5 2 3.8 1.2
-4 5 2 3.6 0.4
4 -5 2 2.4 0.4
-4 5 2 4.9 0.6
4 5 -2 1.9 0.6
4 -5 -2 2.8 0.9
-4 5 -2 2.9 0.4
-4 -5 2 3 0.5
-4 -5 2 3.1 0.4
4 -5 -2 3.3 0.5
-4 5 -2 2.4 0.6
5 5 -2 35 1.9
5 5 -2 34.6 1.7
-5 5 2 34 1.6
5 -5 2 32.8 2.5
-5 5 2 32.4 1.4
5 -5 2 33.4 1.5
-5 -5 2 37.5 1.4
-5 5 -2 37.5 1.5
-5 -5 2 35.9 1.6
5 -5 -2 39.5 1.6
-5 5 -2 35.4 1.8
5 -5 -2 33.8 2.3
-6 5 2 4 1.1
-6 5 2 5.2 0.7
6 5 -2 3.2 1.9
6 -5 2 6.9 1.1
6 5 -2 3.6 1
6 -5 2 5 1.6
-6 -5 2 5.7 0.8
-6 5 -2 5.2 0.7
6 -5 -2 4.7 1
-6 -5 2 5.8 1
-6 5 -2 4.4 1.3
6 -5 -2 5.3 1.3
-7 5 2 8.3 1
-7 5 2 7.7 1.5
7 -5 2 9.9 2.8
7 -5 2 7.9 1.4
-7 5 -2 8 1
-7 5 -2 7.8 1.6
7 -5 -2 4.2 2.2
7 -5 -2 6.8 1.4
0 6 -2 271.77 7.5
0 6 -2 275.67 7.8
0 -6 2 266.87 7.4
0 -6 2 254.17 8.3
1 -6 2 59.79 1.9
1 6 -2 62.99 2.3
1 -6 2 60.69 2.9
1 6 -2 58.99 1.9
-1 -6 2 60.29 1.9
-1 6 -2 61.29 2.2
-1 6 -2 63.79 2
-1 -6 2 60.69 2.5
2 -6 2 7.3 1.3
-2 6 2 7.2 0.6
2 6 -2 7.2 0.9
2 6 -2 6.2 0.6
-2 -6 2 6.7 0.8
2 -6 -2 6.3 1.1
-2 6 -2 6.9 0.7
-2 -6 2 5.8 0.4
-3 6 2 35.4 1.3
3 6 -2 34.8 1.6
-3 6 2 33 1.4
3 -6 2 36.9 2.4
3 6 -2 33.2 1.9
-3 -6 2 36.1 1.3
-3 6 -2 34.1 1.6
3 -6 -2 37.9 2.2
-3 -6 2 33.2 1.6
3 -6 -2 36.2 1.3
-4 6 2 23.3 1.2
4 -6 2 23 2.3
-4 6 2 23.7 1
4 -6 2 21.9 1.1
-4 6 -2 23.5 1.3
-4 6 -2 23.5 1.1
4 -6 -2 21.2 2
4 -6 -2 25.1 1.1
-5 6 2 6.3 0.6
5 -6 2 5.6 1.5
-5 6 2 7.4 1.1
5 -6 2 6.2 0.8
-5 6 -2 5.4 0.6
5 -6 -2 8.8 1.5
-5 6 -2 6.6 1.2
5 -6 -2 6.8 0.8
-6 6 2 10.1 1.4
6 -6 2 9.1 2.3
-6 6 2 13.7 1.1
6 -6 2 11.3 1.3
-6 6 -2 10.4 1
6 -6 -2 8.6 1.9
-6 6 -2 10.4 1.6
6 -6 -2 10.5 1.2
7 -6 2 0.6 1.2
7 -6 2 -1.1 2.7
-7 6 2 0.5 0.8
-7 6 2 0.7 1.3
7 -6 -2 3.2 2.5
7 -6 -2 -0.8 1.1
-7 6 -2 -1.2 1.3
-7 6 -2 -0.1 0.8
0 -7 2 90.99 3.7
0 7 -2 89.39 3.2
0 -7 2 88.09 2.7
0 7 -2 91.49 2.8
1 -7 2 8.6 1.4
1 -7 2 7.8 0.5
-1 7 -2 8.3 0.8
-1 7 -2 8 0.5
2 -7 2 10.9 1.6
-2 7 -2 15 1
3 -7 2 20.4 2.2
-3 7 -2 25.2 1.4
4 -7 2 3.8 0.6
4 -7 2 4.6 1.4
-4 7 2 4.8 0.7
-4 7 -2 3.2 0.8
4 -7 -2 3.5 1.2
4 -7 -2 4.7 0.6
5 -7 2 16.6 2.3
-5 7 2 21.4 1.1
5 -7 2 20 1.4
-5 7 2 21.1 1.7
-5 7 -2 22.1 1.8
5 -7 -2 21.9 1.4
5 -7 -2 22.2 2.4
6 -7 2 4.7 1.1
6 -7 2 4.3 2.6
-6 7 2 3 0.7
-6 7 2 5.3 1.3
6 -7 -2 4.7 1.1
6 -7 -2 3 2.1
-6 7 -2 3.5 1.5
-7 7 2 1.6 0.8
-7 7 2 1.4 1.4
7 -7 2 4.1 5.1
7 -7 -2 3.6 2.9
-7 7 -2 0.3 2.1
7 -7 -2 -0.6 1.1
3 -8 2 16 2.1
-3 8 -2 17.8 1.4
4 -8 2 18.8 1.2
4 -8 2 17.4 2.3
-4 8 -2 21.2 1.7
5 -8 2 6.4 1
5 -8 2 6.2 2.2
-5 8 -2 12.2 1.6
6 -8 2 2.6 1.1
6 -8 2 3.4 2.7
-6 8 -2 3.5 1.5
0 0 -3 -0.4 0.6
0 0 3 -0.1 0.5
0 0 -3 0.1 0.2
0 0 3 0 0.1
1 0 3 325.77 10.4
1 0 -3 322.77 9.9
-1 0 3 323.17 9.9
1 0 -3 322.07 10.1
1 0 3 322.47 9.5
-1 0 3 324.57 9.8
-1 0 -3 332.37 10.3
-2 0 3 57.29 3.1
-2 0 3 64.79 3.1
2 0 3 53.29 3.4
2 0 -3 62.89 3.4
-2 0 -3 57.59 2.7
2 0 -3 65.29 3.3
2 0 3 62.79 2.9
-2 0 -3 55.39 3.3
3 0 3 26.4 1
-3 0 -3 27.8 1
-3 0 3 28.3 2.6
3 0 -3 30.8 1.2
-3 0 3 27.7 3
3 0 -3 26 3
-3 0 -3 26.5 3
3 0 -3 27.1 1.1
-3 0 -3 26.3 1.1
-3 0 3 27.4 1
3 0 3 27.9 3.4
-3 0 -3 25.6 2
3 0 -3 25.1 3
3 0 3 28.6 2.2
-3 0 3 27.1 1.1
3 0 3 30.6 1.4
-4 0 3 130.99 3.9
-4 0 -3 127.09 3.8
-4 0 3 128.69 3.9
4 0 -3 130.09 4.1
4 0 3 126.79 3.8
4 0 3 124.09 4.2
4 0 -3 127.49 3.9
-4 0 -3 132.19 3.9
-5 0 -3 90.19 3
5 0 3 99.49 3.1
5 0 3 92.69 3.6
-5 0 -3 96.59 3.1
5 0 -3 96.09 3.5
-5 0 3 99.89 3.1
5 0 -3 93.79 3.1
-5 0 3 94.49 3.1
6 0 -3 21.7 1.8
6 0 -3 21.6 1.4
-6 0 3 21.6 1.2
6 0 3 22.3 1.3
6 0 3 23.2 1.8
-6 0 -3 21.1 1.1
-6 0 -3 22.1 1.2
-6 0 3 20.6 1.2
7 0 3 3.8 1.4
-7 0 3 4.8 0.7
-7 0 -3 6.1 1.1
7 0 3 5.3 1.2
7 0 -3 7.4 1.4
-7 0 -3 5 0.7
-7 0 3 6.9 1.2
7 0 -3 4.9 1.3
8 0 3 9.3 2.4
8 0 -3 10.2 2.4
-8 0 3 12.2 1.3
8 0 3 10.7 1.7
-8 0 -3 11.8 1.2
-8 0 3 12.3 1.6
8 0 -3 17 2.1
-8 0 -3 11.1 1.5
0 1 -3 264.57 9.2
0 1 3 246.88 6.9
0 1 3 252.77 6.9
0 -1 -3 250.17 6.9
0 -1 3 249.48 9.1
0 -1 -3 249.78 7.1
0 1 -3 239.58 7.3
0 -1 3 247.78 7.3
1 1 -3 522.65 15.6
-1 1 3 542.15 15.6
1 1 -3 533.95 16.6
1 -1 3 525.25 16.9
-1 -1 -3 535.45 15.3
-1 1 3 534.35 15.3
-1 -1 -3 537.75 15
-1 -1 3 537.25 15.7
1 -1 -3 536.45 15.9
1 1 3 529.15 15.6
-1 1 -3 558.84 16.9
1 -1 -3 540.15 15.6
1 1 3 531.75 15.2
-1 -1 3 548.15 16.4
-2 -1 -3 137.39 5.3
2 -1 3 135.29 5.1
2 -1 3 127.49 6.3
-2 -1 -3 140.59 4.9
-2 1 3 140.39 5.6
2 1 -3 136.59 5.9
2 1 -3 131.09 5.5
-2 1 3 134.69 5.1
2 -1 -3 147.59 5.5
2 1 3 130.59 5.5
-2 1 -3 139.39 6.2
-2 -1 3 140.79 5.6
-2 -1 3 135.09 5.4
2 -1 -3 131.09 5.8
2 1 3 135.39 5
-3 1 3 8.6 0.5
-3 -1 -3 8.4 1.6
-3 -1 -3 8.7 0.5
3 1 -3 9.1 0.7
-3 1 3 9 0.6
3 -1 3 10.9 1
3 1 -3 8.6 0.6
-3 -1 -3 9.1 1.4
3 -1 3 9 0.5
-3 -1 -3 8.5 0.5
-3 -1 3 8.6 0.6
3 1 3 10.8 0.8
-3 1 -3 8.8 0.6
3 1 3 6.3 1.6
3 1 3 8.3 0.5
-3 -1 3 8.6 0.5
3 -1 -3 8.9 0.5
3 1 3 6.6 1.3
-3 1 -3 9.1 0.5
3 -1 -3 8.3 0.7
4 1 -3 21 1
-4 -1 -3 22 0.9
-4 1 3 21.3 1
4 -1 3 21 1
-4 1 3 23.5 1
-4 -1 -3 23.7 1
4 1 -3 22.8 1.2
4 -1 3 24 1.4
4 -1 -3 23.5 1
-4 -1 3 24.2 1.1
4 1 3 22.1 1
4 -1 -3 23.7 1.3
4 1 3 24.4 1.3
-4 1 -3 22 1.1
-4 1 -3 21 0.9
-4 -1 3 21.9 1
5 -1 3 2.1 0.8
-5 -1 -3 1.1 0.3
5 1 -3 1.5 0.5
5 -1 3 1.3 0.4
5 1 -3 1.9 0.6
-5 1 3 0.7 0.3
-5 1 3 1.5 0.4
-5 -1 -3 0.8 0.4
-5 -1 3 1.8 0.4
-5 1 -3 1.4 0.4
-5 1 -3 1.5 0.5
5 1 3 1.8 0.6
5 -1 -3 1.1 0.4
5 1 3 1.1 0.4
-5 -1 3 1.4 0.4
5 -1 -3 0.4 0.5
-6 -1 -3 7.3 0.7
6 1 -3 7.7 1.1
-6 1 3 7.9 0.9
6 -1 3 7.6 0.9
6 1 -3 9.8 1.1
-6 -1 -3 8.1 0.8
-6 1 3 7.5 0.7
6 -1 3 7.2 1.3
6 -1 -3 9 1.2
-6 -1 3 8.1 0.8
-6 1 -3 7.3 0.9
6 -1 -3 7.1 0.9
-6 -1 3 6.9 0.7
6 1 3 7.7 0.8
-6 1 -3 8.7 0.7
6 1 3 8.2 1.1
-7 -1 -3 7.4 0.8
7 1 -3 4.9 1.3
-7 1 3 7.4 1.3
7 -1 3 4.4 1.2
-7 -1 -3 7.6 1.1
7 1 -3 8.4 1.5
7 -1 3 7.6 1.7
-7 1 3 6 0.8
-7 -1 3 5.1 0.8
7 1 3 9 1.6
7 1 3 6.8 1.3
7 -1 -3 6.9 1.4
-7 1 -3 5.8 1.2
-7 -1 3 7 1.1
7 -1 -3 6.2 1.3
-7 1 -3 6.6 0.8
8 -1 3 3 2.3
-8 1 3 3.3 1.4
8 -1 3 3.9 1.4
-8 1 3 3.7 1
-8 -1 -3 3.3 0.9
8 1 -3 3.6 2.1
8 1 -3 1.9 1.7
-8 -1 -3 2.6 1.1
8 1 3 4.6 1.5
-8 -1 3 3.3 1
-8 1 -3 2.9 0.8
-8 -1 3 3.7 1.2
-8 1 -3 3.1 1.4
8 -1 -3 1.4 2
8 -1 -3 2.7 1.6
8 1 3 3.9 2.1
0 2 -3 210.08 8.8
0 2 3 211.48 6.3
0 2 3 207.78 5.9
0 -2 3 207.88 6.5
0 -2 -3 210.58 6
0 -2 -3 212.78 6.6
0 -2 3 212.78 8.9
0 2 -3 207.88 6.5
-1 2 3 918.31 25.3
-1 -2 -3 923.71 25.1
-1 -2 -3 924.51 25
-1 2 3 925.71 26
1 2 -3 877.11 25.7
1 2 -3 849.91 27.9
1 -2 3 910.11 28.1
-1 -2 3 900.61 25.7
-1 2 -3 895.11 25.7
1 2 3 892.71 25.3
-1 2 -3 946.41 27.9
1 -2 -3 910.91 25.6
1 -2 -3 912.31 26.4
1 2 3 917.61 25.6
-1 -2 3 917.91 27.4
2 2 -3 153.68 6
-2 2 3 151.98 5.6
-2 -2 -3 153.08 5.5
2 -2 3 148.29 5.6
2 2 -3 148.99 4.4
2 2 -3 152.58 7.1
2 -2 3 153.68 7.5
2 2 -3 147.69 4.3
-2 2 3 141.29 6.2
2 -2 3 149.29 4.7
-2 -2 -3 151.78 5.3
-2 2 -3 146.49 4.3
2 -2 -3 141.69 6.4
-2 -2 3 150.78 4.4
-2 2 -3 150.38 4.2
2 -2 -3 142.29 5.6
2 2 3 149.69 5.6
-2 2 -3 158.68 7.2
-2 -2 3 155.58 6.3
-2 -2 3 152.18 5.7
2 2 3 144.09 5.7
-2 -2 3 148.69 4.2
-3 -2 -3 118.49 3.4
-3 -2 -3 120.49 3.4
3 2 -3 118.79 3.6
3 -2 3 121.49 4
-3 2 3 116.09 3.5
3 2 -3 116.49 3.6
-3 -2 -3 114.59 4.9
-3 2 3 116.09 3.5
-3 -2 -3 121.79 5.3
-3 2 -3 114.49 3.5
3 2 3 121.89 3.6
3 2 3 115.39 5.4
-3 2 -3 122.29 3.6
3 -2 -3 117.49 3.8
3 -2 -3 121.09 3.5
3 2 3 109.29 5.6
3 2 3 120.49 3.5
-3 -2 3 119.49 3.6
-4 2 3 7.8 0.6
-4 -2 -3 8.9 0.6
4 2 -3 9.2 0.8
-4 -2 -3 8.2 0.6
4 2 -3 8.3 0.8
4 -2 3 7.6 0.5
-4 2 3 8.7 0.6
4 -2 3 9.7 1.1
-4 -2 3 9.4 0.6
-4 -2 3 9.5 0.7
-4 2 -3 10.6 0.8
4 -2 -3 8.8 0.6
4 -2 -3 8.6 1
4 2 3 7.7 0.6
-4 2 -3 9.3 0.6
4 2 3 8.7 0.8
5 -2 3 42.4 1.7
-5 2 3 44.6 1.7
-5 -2 -3 44.6 1.6
5 2 -3 43.9 2
-5 2 3 45.6 1.8
5 2 -3 43.2 1.8
5 -2 3 47.2 2.3
-5 -2 -3 43.4 1.6
5 -2 -3 43.3 2.2
-5 2 -3 43 1.7
-5 -2 3 45.9 1.7
5 2 3 43.6 2
-5 -2 3 45.8 1.8
-5 2 -3 47.2 1.9
5 2 3 45.9 1.7
5 -2 -3 46.5 1.8
6 2 -3 17.3 1.6
6 -2 3 19.2 1.9
-6 2 3 19.6 1.4
-6 -2 -3 17.1 1
-6 -2 -3 16.4 1
-6 2 3 18.5 1
6 -2 3 17.7 1.3
6 2 -3 19.4 1.5
-6 2 -3 17.6 1
6 2 3 20 1.2
6 -2 -3 14.1 1.5
-6 2 -3 16.2 1.3
6 2 3 18.2 1.6
6 -2 -3 18.4 1.3
-6 -2 3 20.2 1.1
-6 -2 3 19.6 1.1
-7 -2 -3 15.5 1.2
-7 2 3 15.4 1.2
-7 -2 -3 15.7 1
7 -2 3 14.5 2.3
-7 2 3 13.4 1.4
7 2 -3 15.2 1.9
7 2 -3 18.2 2
7 -2 3 17.4 1.5
-7 2 -3 17.4 1.2
7 2 3 14.5 1.8
-7 -2 3 17.6 1.2
-7 -2 3 15.4 1.4
7 -2 -3 18.2 2.2
7 2 3 16.8 1.6
7 -2 -3 15 1.6
-7 2 -3 15.8 1.5
-8 2 3 1 0.9
-8 2 3 1.4 1.4
8 2 -3 2.8 1.8
-8 -2 -3 2.8 0.8
8 2 -3 2.9 1.9
-8 -2 -3 2.8 1
8 -2 3 0.8 1.3
8 -2 3 3.2 2.5
8 -2 -3 4.6 2.2
-8 2 -3 1.8 0.9
8 2 3 2.2 1.4
-8 -2 3 0.9 1.1
8 -2 -3 2.8 1.6
-8 -2 3 2.2 1
-8 2 -3 3.3 1.4
8 2 3 1.6 1.9
0 3 3 10.1 0.6
0 3 -3 9 1.1
0 -3 3 6.3 2.2
0 3 -3 7.6 2.1
0 3 3 9.2 1.2
0 -3 -3 9 1.5
0 -3 3 9.5 1.1
1 -3 3 316.07 8.8
-1 -3 -3 328.67 9.3
-1 3 3 325.27 10.7
1 -3 3 324.87 13.1
1 3 -3 323.17 10.2
1 -3 3 316.07 9.5
-1 -3 -3 323.37 9.7
1 3 -3 327.37 13.1
1 3 3 311.27 10.8
1 -3 -3 325.67 9.9
-1 -3 3 334.27 10.1
1 3 3 321.07 9.6
1 -3 -3 323.47 11.2
-1 3 -3 322.17 9.1
-1 3 -3 322.07 10.1
-1 3 -3 338.07 12.6
-1 -3 3 332.47 12.3
2 3 -3 232.38 10.6
-2 -3 -3 238.38 7.6
2 -3 3 228.08 8.1
2 3 -3 232.58 6.7
-2 3 3 220.38 6.5
2 -3 3 232.18 10.6
2 -3 3 240.58 7.1
-2 3 3 239.08 7.9
2 3 -3 229.68 6.6
2 3 -3 230.28 8.4
-2 -3 -3 231.58 7.6
-2 3 3 232.18 6.5
-2 3 3 231.78 8.9
-2 3 -3 244.38 10.2
-2 -3 3 223.38 7.9
-2 3 -3 223.88 6.6
2 -3 -3 227.38 6.4
2 3 3 222.18 7.8
-2 -3 3 227.18 6.4
2 -3 -3 234.98 6.7
2 -3 -3 228.28 9.3
-2 -3 3 237.68 6.6
2 -3 -3 229.18 7.9
-2 -3 3 232.38 9
-2 3 -3 233.08 6.4
2 3 3 215.68 8.4
-3 -3 -3 4.2 1
-3 -3 -3 5.4 1.1
3 3 3 5.3 1.3
3 3 3 6.8 1.5
4 3 -3 26.4 1.3
4 3 -3 25.7 1.3
-4 -3 -3 26.6 1
-4 3 3 27.7 1.1
4 -3 3 27.7 1.8
4 -3 3 28.7 1.1
-4 -3 -3 27.2 1.1
-4 3 3 25.9 1.2
4 3 3 26.2 1.3
4 -3 -3 28.2 1.1
4 3 3 26.7 1.2
-4 3 -3 26.6 1.3
-4 -3 3 28.1 1.1
-4 -3 3 28 1.2
4 -3 -3 27.9 1.6
-4 3 -3 27.8 1.1
-5 3 3 19.3 1.1
5 -3 3 21.6 1.9
5 3 -3 22.1 1.3
-5 -3 -3 20.9 1
5 -3 3 23.1 1.1
-5 3 3 21.2 1
-5 -3 -3 22 1
5 3 -3 20.9 1.3
5 3 3 21 1.3
5 3 3 20.9 1.1
5 -3 -3 22.3 1.6
-5 3 -3 22.5 1
5 -3 -3 21.4 1.1
-5 -3 3 20 1
-5 3 -3 20.3 1.2
-5 -3 3 21.7 1.1
-6 3 3 24.1 1.2
-6 3 3 25.8 1.7
-6 -3 -3 26 1.2
6 -3 3 26.6 1.5
6 -3 3 22.8 2.2
6 3 -3 27.5 1.7
6 3 -3 29 1.9
-6 -3 -3 27.5 1.2
-6 3 -3 27.1 1.8
6 -3 -3 29.3 2
-6 -3 3 28.3 1.4
-6 3 -3 28.6 1.3
6 3 3 24.3 1.4
6 -3 -3 25.1 1.6
6 3 3 23.1 1.6
-6 -3 3 25.9 1.3
-7 3 3 6.3 0.9
7 -3 3 7.1 2.1
7 3 -3 8.1 1.8
7 -3 3 6.2 1.3
-7 3 3 9.4 1.5
7 3 -3 7.1 1.5
-7 3 -3 6.1 1.4
7 -3 -3 6 1.7
7 -3 -3 11.1 1.5
-7 -3 3 7 0.9
-7 -3 3 7.9 1.1
-7 3 -3 7.8 0.9
8 -3 3 4.4 2.6
-8 3 3 3 1
-8 3 3 5.7 1.5
8 -3 3 2.9 1.3
8 3 -3 5.6 2
8 3 -3 3.8 1.9
8 -3 -3 4.4 1.6
-8 3 -3 3.4 0.9
-8 -3 3 5.2 1.1
8 -3 -3 5.7 2.5
-8 3 -3 4.3 1.6
-8 -3 3 6.8 1.2
0 -4 3 2.3 1.9
0 4 -3 1.9 0.6
0 4 3 1.6 0.4
0 4 -3 1.8 0.2
0 -4 3 0.8 0.5
0 -4 3 1.3 0.8
0 -4 -3 2.3 1.2
0 -4 3 1.6 0.2
0 4 -3 1.5 0.4
0 4 3 2.2 0.9
0 4 -3 0 1.5
-1 -4 -3 157.98 4.9
1 -4 3 161.48 5.2
-1 -4 -3 154.48 5.7
1 4 -3 149.09 4.4
-1 4 3 158.88 5.3
-1 4 3 154.48 6.5
1 -4 3 155.28 4.4
1 4 -3 157.68 4.8
1 -4 3 145.59 8.6
1 4 -3 156.68 5.9
1 4 -3 146.79 8.6
1 4 3 143.09 6.8
-1 -4 3 160.08 5
1 -4 -3 162.98 5.5
-1 4 -3 154.98 5.7
-1 4 -3 161.48 4.7
-1 4 -3 156.78 8.1
-1 -4 3 156.48 4.4
1 4 3 159.88 5.3
-1 -4 3 163.28 5.7
-1 -4 3 169.28 8.3
1 -4 -3 145.49 7.1
2 4 -3 54.29 3.3
2 4 -3 60.19 2.2
-2 -4 -3 57.69 2.6
-2 4 3 61.59 4
2 -4 3 60.49 2.6
2 4 -3 55.89 5.4
-2 -4 -3 55.59 3
2 4 -3 54.89 1.9
-2 4 3 56.99 1.9
-2 4 3 57.39 1.8
-2 4 -3 58.89 2
-2 -4 3 59.19 2.1
-2 -4 3 54.09 4
2 -4 -3 55.29 4.3
2 4 3 46.5 4
2 -4 -3 59.39 3.2
-2 -4 3 58.49 3.1
2 -4 -3 55.49 2.2
2 4 3 55.89 3
2 -4 -3 55.39 1.7
-2 -4 3 56.99 1.7
-3 4 3 21.2 1
3 4 -3 19 1
3 4 -3 19 1.2
3 -4 3 21.8 1.6
-3 4 3 20 0.8
-3 4 -3 18.8 1.1
-3 4 -3 20.3 0.8
3 -4 -3 20.1 0.9
-3 -4 3 20.5 1
-3 -4 3 19 0.8
3 -4 -3 23.4 1.4
4 -4 3 5.3 1.1
-4 4 3 6.8 0.6
-4 4 3 7.2 0.7
4 4 -3 7.9 0.9
4 -4 3 6.8 0.6
4 4 -3 6 0.7
-4 4 -3 9.2 0.8
4 -4 -3 8.2 0.6
-4 -4 3 7.5 0.6
4 -4 -3 9.9 1.2
-4 -4 3 5.9 0.6
-4 4 -3 6.7 0.5
5 -4 3 22.7 2.1
-5 4 3 22.4 1.2
5 4 -3 23.9 1.5
5 4 -3 21.9 1.3
-5 4 3 23.1 1.1
5 -4 3 23 1.1
-5 4 -3 22.9 1.3
5 -4 -3 24.1 1.2
5 -4 -3 25.6 2
-5 4 -3 23.2 1.1
-5 -4 3 25.1 1.3
-5 -4 3 23.5 1.1
6 4 -3 0.5 1.2
6 4 -3 1.2 0.7
6 -4 3 0.4 0.7
6 -4 3 0.7 1
-6 4 3 1 0.9
-6 4 3 0.7 0.4
-6 4 -3 1.1 0.4
-6 4 -3 1.1 1.1
6 -4 -3 0 0.9
-6 -4 3 1.4 0.5
6 -4 -3 0.9 0.8
-6 -4 3 1.7 0.5
-7 4 3 28.6 1.6
7 -4 3 27.7 2
7 4 -3 30.3 2.5
7 4 -3 22.6 2.5
-7 4 3 25.6 2
7 -4 3 26.2 3.3
7 -4 -3 19.3 2.6
7 -4 -3 25.1 1.9
-7 -4 3 26.9 1.6
-7 -4 3 26.7 1.6
-7 4 -3 25.3 1.6
-7 4 -3 29.8 2.2
8 4 -3 0.7 2
8 4 -3 3.6 1.9
-8 4 3 1.8 1.6
8 -4 -3 1.5 3
-8 -4 3 2.2 0.9
-8 -4 3 2.4 1
0 5 -3 1.7 0.5
0 5 -3 2.4 0.3
0 5 -3 0.4 1.6
0 -5 3 1.3 0.8
0 5 -3 2.5 0.7
0 -5 3 1.4 2.1
0 -5 3 2.2 0.2
0 -5 3 2.8 0.8
1 5 -3 120.69 4
1 5 -3 128.39 3.7
1 -5 3 120.59 4.5
-1 5 3 140.99 7.2
-1 5 3 130.49 3.7
1 5 -3 98.79 6.4
1 -5 3 127.89 3.6
-1 5 3 125.39 4.9
1 5 -3 102.79 8.6
1 -5 -3 126.29 4.3
1 -5 -3 134.09 5.1
-1 -5 3 135.09 4.4
1 -5 -3 117.09 7.8
-1 -5 3 114.99 8.6
-1 5 -3 132.29 4
-1 -5 3 128.99 3.7
-2 5 3 145.89 4.2
2 5 -3 141.99 4.2
-2 5 3 145.99 4.1
2 5 -3 137.79 4.6
2 -5 3 144.49 5.1
-2 -5 3 140.29 4
2 -5 -3 138.69 4.6
-2 5 -3 136.49 4.3
-2 -5 3 142.19 4.4
-3 5 3 4.5 0.4
-3 5 3 2.6 0.4
3 5 -3 3.9 0.5
3 -5 3 3.8 1
3 5 -3 4.9 0.8
-3 5 -3 3.7 0.4
3 -5 -3 4.2 0.4
-3 5 -3 4.4 0.6
3 -5 -3 2.9 0.8
-3 -5 3 3.2 0.5
-3 -5 3 3.6 0.3
-4 5 3 7.6 0.7
4 5 -3 7.9 0.8
4 5 -3 5.4 0.9
-4 5 3 5.8 0.5
4 -5 3 5.6 1.3
4 -5 3 6.9 0.6
-4 5 -3 7.5 0.8
4 -5 -3 8.3 0.7
-4 -5 3 6.8 0.5
4 -5 -3 5.6 1.1
-4 5 -3 8.3 0.6
-4 -5 3 7.3 0.7
5 -5 3 -0.8 0.8
-5 5 3 0.5 0.5
5 -5 3 -0.2 0.5
5 5 -3 -0.3 0.6
5 5 -3 0.6 0.5
-5 5 3 -0.1 0.2
-5 5 -3 0.2 0.3
5 -5 -3 0.2 0.4
5 -5 -3 -0.3 0.8
-5 -5 3 0.5 0.3
-5 -5 3 1 0.4
-5 5 -3 0.3 0.7
-6 5 3 19.3 1.1
6 -5 3 18.3 2.3
6 -5 3 20.5 1.6
6 5 -3 18 1.5
6 5 -3 20.8 2.2
-6 5 3 22 1.7
-6 5 -3 19.2 1.1
6 -5 -3 23.8 1.6
6 -5 -3 20.8 2.2
-6 -5 3 20.1 1.2
-6 -5 3 20.8 1.2
-6 5 -3 22.2 1.8
7 -5 3 9.6 2.9
-7 5 3 11.3 1.6
7 -5 3 8.2 1.5
-7 5 3 10.6 1.1
-7 5 -3 9.7 1.1
7 -5 -3 9 1.3
-7 5 -3 8.7 1.6
7 -5 -3 9 2.5
0 -6 3 2.4 0.3
0 6 -3 2 0.3
0 6 -3 4.1 0.6
0 -6 3 3.4 1
1 -6 3 31.4 1.1
1 6 -3 30.8 1.2
1 6 -3 30.2 1.5
1 -6 3 27.8 2.1
-1 -6 3 31.2 1.1
-1 6 -3 33.1 1.2
-1 -6 3 32.5 1.8
-1 6 -3 33.8 1.5
2 6 -3 5.3 0.5
2 6 -3 3.8 0.7
2 -6 3 2.9 1
-2 -6 3 5.1 0.4
-2 6 -3 5.5 0.7
-2 -6 3 6.1 0.8
-3 6 3 8.3 0.6
-3 6 3 12.8 0.8
-3 -6 3 7.3 0.5
-3 -6 3 14.2 1
-3 6 -3 15 1
3 -6 -3 10.9 0.6
4 -6 3 10.9 1.7
-4 6 3 8.8 0.6
4 6 -3 8.4 0.9
4 6 -3 8 1.1
-4 6 3 10.5 0.9
4 -6 -3 7.7 1.3
-4 6 -3 9.1 1
-4 -6 3 9.3 0.9
4 -6 -3 9.3 0.7
-4 -6 3 10.6 0.6
5 -6 3 11 1.9
5 -6 3 8.4 1
-5 6 3 9.7 1.1
-5 6 3 8.9 0.8
5 -6 -3 8.6 0.9
-5 6 -3 8.4 1.3
-5 6 -3 6.8 0.7
5 -6 -3 8.8 1.5
-6 6 3 1.2 0.6
6 -6 3 0.1 2
-6 6 3 2.6 1.1
6 -6 3 1.6 1
-6 6 -3 2 1.3
6 -6 -3 4 1.6
-6 6 -3 1.1 0.6
6 -6 -3 1.6 0.9
-7 6 3 4 1.4
7 -6 3 6.2 1.4
7 -6 3 6.9 3
-7 6 3 5.6 1
7 -6 -3 6.5 1.3
7 -6 -3 1.4 2.4
-7 6 -3 5.2 1.7
-7 6 -3 4.9 0.9
0 7 -3 34.1 1.6
0 7 -3 33.2 1.2
0 -7 3 30.4 2.1
0 -7 3 32 1.1
1 -7 3 32 1.2
1 7 -3 34.3 1.7
1 -7 3 30 2.2
1 7 -3 31.3 1.3
-1 7 -3 33.9 1.3
-1 -7 3 32 1.1
-1 7 -3 33.7 1.5
-1 -7 3 29.6 1.8
2 -7 3 7.4 1.5
-2 7 -3 9 0.9
3 -7 3 15 2
-3 7 -3 16.1 1.1
4 -7 3 15.3 2
-4 7 -3 14.7 1.4
-5 7 3 3.8 0.6
5 -7 3 5.7 1.7
5 -7 3 5.1 0.9
-5 7 3 5.4 1.1
5 -7 -3 4.4 1.3
-5 7 -3 4.3 1.3
5 -7 -3 3.7 0.8
-6 7 3 6 0.8
6 -7 3 7.2 1.2
6 -7 3 2.6 2.6
-6 7 3 6.6 1.4
6 -7 -3 5.8 1.1
6 -7 -3 6 2.1
-6 7 -3 4.4 1.5
-7 7 3 3.1 1.3
-7 7 3 2.5 0.9
7 -7 -3 1.3 2.6
7 -7 -3 -1.1 1.2
2 -8 3 11.7 1.9
-2 8 -3 8.9 1
-2 8 -3 11.3 0.7
3 -8 3 0.9 1.2
-3 8 -3 1.1 0.7
4 -8 3 10 1.9
-4 8 -3 11.4 1.4
5 -8 3 1 0.9
5 -8 3 -3.9 1.8
-5 8 -3 -0.6 1.3
6 -8 3 -0.3 1
6 -8 3 0.3 2.8
-6 8 -3 1 1.5
5 -9 3 3.8 1.6
0 0 4 3469.55 95.39
0 0 4 3378.56 112.19
0 0 -4 3438.96 94.99
0 0 -4 3344.57 119.99
1 0 4 99.59 3.4
-1 0 4 100.29 4
-1 0 -4 103.29 4.3
1 0 4 103.59 4.5
1 0 -4 100.59 3.8
-1 0 4 104.49 3.8
1 0 -4 104.69 4.3
-2 0 -4 0.4 0.8
2 0 -4 2.1 0.9
2 0 4 1 0.5
-2 0 4 0.5 0.6
2 0 -4 2.1 1
-2 0 -4 1.9 0.6
-2 0 4 2 0.9
2 0 4 1.1 0.9
-3 0 -4 661.83 18.2
3 0 4 671.93 20.2
-3 0 -4 661.53 19.9
3 0 4 685.83 18.5
-3 0 -4 640.34 18.1
3 0 -4 667.13 18.4
3 0 4 672.33 18.1
3 0 4 617.74 21.6
-3 0 4 657.53 18.2
-3 0 4 657.93 18.2
3 0 -4 664.93 18.2
-3 0 -4 697.13 21.4
-4 0 -4 0.8 0.3
-4 0 4 0.7 0.3
-4 0 -4 0.6 0.3
4 0 -4 0.1 0.3
4 0 -4 0.5 0.4
4 0 4 1.2 0.3
4 0 4 0.8 0.6
-4 0 4 0.6 0.3
5 0 -4 21.5 1.1
-5 0 -4 20.5 1.1
-5 0 4 19.3 1
-5 0 -4 20.9 1
5 0 4 19.3 1
5 0 -4 20.7 1.4
-5 0 4 19.7 1
5 0 4 18.5 1.4
6 0 -4 1.5 0.7
-6 0 4 1.6 0.4
-6 0 -4 1.1 0.4
-6 0 -4 1.2 0.4
6 0 4 4 1
-6 0 4 1.7 0.6
6 0 -4 1.5 0.7
6 0 4 1.2 0.5
-7 0 -4 0.9 0.9
7 0 -4 -0.5 1.1
7 0 4 2 1.2
-7 0 4 1.8 0.9
7 0 -4 0.2 1
-7 0 -4 1.7 0.5
-7 0 4 0.8 0.6
7 0 4 -0.4 0.9
8 0 -4 11.5 2
-8 0 4 11.4 1.6
-8 0 -4 10.7 1.4
8 0 4 12.6 1.7
-8 0 -4 11.7 1.2
8 0 -4 10.3 2.3
8 0 4 11.3 2.6
-8 0 4 9.8 1.3
0 1 -4 31.4 2.8
0 -1 4 34.6 2.9
0 -1 4 21 1.2
0 1 4 26.4 1.1
0 1 -4 21.5 1.2
0 -1 -4 21.9 0.9
0 1 4 21.5 0.8
1 -1 4 215.88 8.5
-1 -1 -4 212.28 6.7
-1 -1 -4 207.18 6.2
-1 1 4 210.68 6.7
1 1 -4 214.98 8.2
1 1 -4 208.48 6.9
-1 1 4 214.88 6.9
-1 -1 4 217.58 6.8
-1 -1 4 205.98 7.7
-1 1 -4 209.98 8.1
1 -1 -4 204.38 6.8
1 1 4 209.48 6.3
1 1 4 203.78 6.8
1 -1 -4 211.88 6.9
-1 1 -4 208.08 6.6
2 -1 4 107.89 5.7
2 1 -4 108.69 3.2
2 -1 4 111.89 3.7
-2 -1 -4 107.89 4.6
2 1 -4 109.59 5.4
2 1 -4 109.29 3.2
-2 -1 -4 111.39 4.1
-2 1 4 109.09 4.8
-2 1 4 104.49 4.4
2 1 -4 111.69 4.8
2 -1 4 105.49 4.3
-2 1 -4 121.29 5.6
2 1 4 109.59 4.2
-2 -1 4 108.39 4.9
-2 -1 4 106.39 3.2
-2 -1 4 112.19 4.7
2 1 4 101.49 4.7
-2 -1 4 105.19 3.1
2 -1 -4 102.29 4.9
2 -1 -4 109.09 4.7
3 -1 4 1.7 0.5
3 1 -4 1.7 0.3
-3 1 4 2.2 0.3
3 -1 4 2 0.3
-3 -1 -4 2.6 0.3
-3 -1 -4 1.8 0.7
3 1 -4 1.9 0.4
-3 -1 -4 3 1.1
-3 -1 -4 1.5 0.2
-3 1 4 2.1 0.3
-3 -1 4 2.6 0.4
-3 1 -4 1.2 0.3
3 -1 -4 2.7 0.4
3 1 4 1.8 0.4
3 1 4 2.5 0.3
3 -1 -4 2.7 0.4
-3 1 -4 1.9 0.3
3 1 4 1.7 1
3 1 4 2.6 0.9
-3 -1 4 1.9 0.3
4 1 -4 193.18 5.7
-4 -1 -4 189.68 5.5
4 1 -4 187.08 5.8
-4 1 4 192.38 5.6
-4 1 4 205.38 5.6
4 -1 4 187.38 5.5
4 -1 4 197.38 6.1
-4 -1 -4 190.68 5.6
-4 -1 4 197.18 5.7
-4 -1 4 192.08 5.6
-4 1 -4 192.28 5.7
-4 1 -4 193.08 5.6
4 -1 -4 204.38 5.7
4 1 4 187.38 5.9
4 -1 -4 199.18 6
4 1 4 187.08 5.6
5 1 -4 27.5 1.6
-5 1 4 29.4 1.3
-5 -1 -4 30.1 1.2
-5 -1 -4 27.4 1.2
5 1 -4 29.2 1.4
-5 1 4 30.2 1.3
5 -1 4 29.2 1.8
5 -1 4 26 1.2
-5 1 -4 28.2 1.2
-5 1 -4 27.7 1.3
5 -1 -4 27.6 1.6
5 1 4 28.6 1.6
5 1 4 28.2 1.2
-5 -1 4 29.4 1.3
-5 -1 4 29.4 1.3
5 -1 -4 30.3 1.3
-6 -1 -4 0.8 0.4
-6 -1 -4 0.5 0.4
6 1 -4 0.6 0.8
-6 1 4 0.2 0.6
6 -1 4 0.6 0.5
6 -1 4 -0.1 0.8
-6 1 4 0.3 0.4
6 1 -4 -0.6 0.6
6 -1 -4 0.9 0.7
-6 -1 4 2.4 0.6
-6 1 -4 1.1 0.4
6 1 4 1.5 0.5
-6 1 -4 1 0.5
6 -1 -4 1.9 0.8
6 1 4 1.9 0.7
-6 -1 4 0.7 0.4
7 1 -4 12.9 1.7
7 -1 4 13.3 1.5
7 -1 4 11.1 1.9
-7 1 4 12.1 1.4
7 1 -4 11.9 1.6
-7 1 4 11.1 1
-7 -1 -4 11.9 0.9
-7 -1 -4 12.7 1.2
-7 -1 4 12.9 1.1
-7 1 -4 16.2 1.5
7 1 4 12.4 1.4
7 -1 -4 15.3 1.7
-7 1 -4 13.5 1.1
-7 -1 4 13.9 1.3
7 -1 -4 10 1.6
7 1 4 10.6 1.7
-8 1 4 0.5 1.2
8 1 -4 0.9 1.9
8 -1 4 -0.1 1.3
8 -1 4 -2.6 2.2
-8 1 4 0.7 0.9
-8 -1 -4 0.6 1
8 1 -4 2 1.8
-8 -1 -4 1.1 0.7
8 -1 -4 -0.4 1.9
-8 -1 4 1.5 0.9
8 1 4 0.9 1.3
-8 1 -4 -0.1 1.2
8 1 4 2.2 2
8 -1 -4 -0.4 1.5
-8 1 -4 0.5 0.8
-8 -1 4 0.9 1.2
0 -2 4 1913.21 55.69
0 2 4 1931.01 51.99
0 2 -4 1850.21 55.39
0 2 -4 1881.51 53.59
0 -2 -4 1957.8 51.99
0 -2 -4 1934.51 51.89
0 2 4 1888.41 51.89
0 -2 4 1894.81 52.39
1 2 -4 178.18 8.4
-1 -2 -4 188.48 5.5
-1 -2 -4 187.78 5.5
-1 2 4 186.18 6.3
1 -2 4 180.98 8.4
1 2 -4 184.58 6.4
-1 2 4 185.38 5.9
-1 -2 4 190.28 6.2
1 -2 -4 184.88 6.5
1 2 4 179.48 5.7
-1 2 -4 179.48 6.1
-1 -2 4 189.78 7.8
-1 2 -4 188.38 8.1
1 2 4 180.08 5.7
1 -2 -4 184.38 6
-2 2 4 14.3 1.8
2 2 -4 14.6 2.7
-2 2 4 14 1.4
2 2 -4 15.4 0.9
2 -2 4 16.1 1.1
2 -2 4 16.4 1.7
-2 -2 -4 16.3 1.4
2 2 -4 15.1 0.7
2 2 -4 15.9 1.9
-2 -2 -4 14 1.2
2 -2 4 11.7 2.4
-2 -2 4 15.8 0.8
-2 2 -4 15.3 0.8
-2 2 -4 14.3 0.6
-2 -2 4 17.2 2.3
-2 2 -4 18.1 2.8
2 -2 -4 18.3 1.6
2 2 4 14.7 1.8
-2 -2 4 15.4 0.6
-2 -2 4 17.6 1.9
2 -2 -4 13.4 2
2 2 4 16 1.4
3 -2 4 87.49 3.2
-3 2 4 86.49 2.6
3 2 -4 86.09 2.8
-3 -2 -4 88.49 4.3
-3 -2 -4 87.89 3.9
-3 -2 -4 84.19 2.5
-3 2 4 85.69 2.6
3 2 -4 83.59 2.8
-3 -2 -4 83.99 2.5
3 2 4 82.69 4.3
3 -2 -4 86.09 2.6
3 2 4 84.69 2.7
3 2 4 82.29 4.7
3 -2 -4 88.89 2.9
-3 2 -4 85.89 2.7
-3 -2 4 83.89 2.6
-3 2 -4 83.59 2.6
-3 -2 4 84.79 2.7
3 2 4 84.19 2.5
-4 2 4 21.5 1
-4 2 4 23.5 1.1
-4 -2 -4 22.1 0.9
4 -2 4 23.2 1
4 -2 4 23.5 1.6
4 2 -4 23.5 1.2
-4 -2 -4 22.2 0.9
4 2 -4 24 1.2
4 -2 -4 22.9 1.3
4 2 4 21 1
-4 2 -4 24.5 1
4 -2 -4 23.6 1
4 2 4 24.2 1.2
-4 -2 4 23.1 1
-4 2 -4 22 1.1
-4 -2 4 23.6 1.1
5 -2 4 30.5 2
5 -2 4 29.5 1.3
5 2 -4 27.1 1.5
-5 2 4 28.6 1.3
-5 -2 -4 27.9 1.2
-5 -2 -4 30.2 1.2
-5 2 4 25.6 1.2
5 2 -4 28.1 1.5
-5 2 -4 29.5 1.2
5 2 4 28 1.3
-5 -2 4 29.3 1.3
5 -2 -4 29.2 1.8
5 2 4 28.5 1.6
5 -2 -4 29.5 1.3
-5 2 -4 29.3 1.4
-5 -2 4 29.2 1.2
6 2 -4 2.7 0.7
-6 2 4 3.2 0.5
-6 -2 -4 3.3 0.5
6 -2 4 3.8 1.1
6 2 -4 2.3 1
-6 -2 -4 2.5 0.5
-6 2 4 3.3 0.7
6 -2 4 3.2 0.7
-6 -2 4 2.6 0.6
-6 2 -4 3.2 0.5
-6 -2 4 3.7 0.7
6 2 4 4.1 0.9
6 -2 -4 3 0.9
-6 2 -4 2.6 0.7
6 -2 -4 3.5 0.7
6 2 4 4 0.7
-7 2 4 5.3 1.3
7 -2 4 5.4 1.2
7 -2 4 5.5 1.9
-7 -2 -4 6 0.7
7 2 -4 6.1 1.5
-7 -2 -4 5.5 0.9
7 2 -4 5.5 1.6
-7 2 4 4.2 0.8
-7 -2 4 5.9 1.1
7 2 4 5.2 1.2
7 2 4 4.7 1.3
7 -2 -4 5.6 1.4
-7 2 -4 4.2 0.7
-7 -2 4 5.4 0.8
-7 2 -4 3.6 1.2
7 -2 -4 3.4 1.5
8 -2 4 7.6 2.6
8 -2 4 9.4 1.5
8 2 -4 9.3 2.2
-8 2 4 10.6 1.3
8 2 -4 9.9 2.1
-8 2 4 13.6 1.7
-8 -2 4 12.5 1.4
-8 2 -4 11.1 1.1
-8 -2 4 11.1 1.3
8 -2 -4 9.6 1.7
8 -2 -4 10.6 2.6
-8 2 -4 7.4 1.6
0 3 -4 785.52 26.3
0 -3 4 813.32 26.8
0 -3 4 800.22 22.8
0 -3 -4 814.22 23.2
0 -3 -4 802.82 22
0 3 4 789.72 21.9
0 3 4 787.02 22.5
1 -3 4 83.79 6
1 -3 4 82.99 3.1
1 3 -4 83.69 3.6
1 -3 4 78.59 2.4
1 3 -4 80.59 2.4
-1 3 4 82.69 3.7
1 3 -4 75.59 5.7
1 3 -4 87.09 2.8
-1 -3 -4 81.79 2.9
-1 -3 -4 83.19 2.6
-1 3 -4 89.69 3.6
1 3 4 80.19 3.8
1 -3 -4 79.89 4.1
1 3 4 82.19 3
-1 -3 4 86.79 3.5
-1 3 -4 84.29 2.7
-1 -3 4 82.79 2.4
-1 -3 4 86.09 3
-1 3 -4 88.99 5.7
1 -3 -4 86.89 3.3
-1 -3 4 88.79 5.5
2 3 -4 69.99 5.5
2 -3 4 67.59 3.4
2 3 -4 67.79 2.2
2 3 -4 68.29 2.4
-2 3 4 66.89 2
-2 3 4 69.99 3.2
-2 3 4 66.59 2.1
-2 3 4 65.79 3.9
-2 -3 -4 68.99 2.9
-2 -3 -4 70.69 3
2 3 -4 67.99 3.7
2 -3 4 66.29 2.7
2 -3 4 63.49 5.2
2 -3 -4 71.49 2.4
2 -3 -4 67.59 2
-2 -3 4 68.59 2.4
2 -3 -4 66.59 3.3
-2 -3 4 66.69 4.3
-2 -3 4 71.89 3.4
2 3 4 61.89 3.2
-2 -3 4 68.79 2
2 -3 -4 65.69 4.2
-2 3 -4 68.59 2.1
-2 3 -4 72.49 5
-2 3 -4 68.09 2.3
2 3 4 64.19 3.5
-3 -3 -4 11.1 0.5
-3 3 4 10.2 0.6
-3 -3 -4 13.5 1.6
3 3 -4 10 0.9
-3 -3 -4 11 0.5
3 -3 4 11 1.2
-3 -3 -4 12.3 1.7
-3 3 4 10.6 0.6
3 3 -4 10.8 0.7
-3 3 -4 10.1 0.5
-3 3 -4 10.3 0.7
3 3 4 10.7 0.7
3 3 4 9.8 0.6
3 3 4 12.2 2
-3 -3 4 10.2 0.5
3 -3 -4 11.3 1
3 3 4 11.1 1.9
-3 -3 4 11.3 0.7
3 -3 -4 10.3 0.6
4 3 -4 54.29 2.1
-4 -3 -4 55.39 1.8
4 -3 4 51.39 2.6
-4 3 4 52.19 1.9
-4 -3 -4 53.29 1.7
4 -3 4 54.39 1.8
4 3 -4 51.99 2.1
-4 3 4 52.39 1.8
4 3 4 52.19 1.9
-4 -3 4 55.59 2
4 -3 -4 56.69 1.9
4 -3 -4 52.49 2.3
-4 3 -4 53.99 2
-4 -3 4 53.39 1.8
4 3 4 52.89 2
-4 3 -4 54.79 1.8
5 -3 4 25.6 1.9
5 -3 4 25.8 1.2
-5 3 4 27.1 1.2
5 3 -4 25.3 1.4
-5 3 4 24.5 1.2
-5 -3 -4 25 1.1
-5 -3 -4 23.9 1.1
5 3 -4 24 1.4
-5 3 -4 23.1 1.3
-5 -3 4 23.5 1.2
5 -3 -4 24 1.7
5 3 4 24 1.2
-5 3 -4 24.6 1.1
5 3 4 25.3 1.5
5 -3 -4 25.3 1.2
-5 -3 4 25.8 1.1
6 3 -4 9 1.4
6 -3 4 9.9 1.5
6 -3 4 9.2 1.1
6 3 -4 10.6 1.2
-6 3 4 9.6 0.8
-6 3 4 9.5 1.1
6 -3 -4 9.2 1.1
-6 3 -4 9.5 1.3
-6 -3 4 10.6 0.9
-6 -3 4 11.4 1
6 -3 -4 9.6 1.4
-6 3 -4 9.1 0.8
7 -3 4 8.4 1.4
7 -3 4 4 2.1
-7 3 4 7.8 1
-7 3 4 7.1 1.3
7 3 -4 7.3 1.6
7 3 -4 5 1.7
7 -3 -4 7 1.4
-7 3 -4 7.5 1.5
-7 3 -4 6.7 0.9
7 -3 -4 9.3 2
-7 -3 4 5.9 1
-7 -3 4 6.8 1
8 -3 4 2.6 2.4
-8 3 4 2.5 0.9
8 -3 4 2.4 1.4
-8 3 4 1.3 1.2
8 3 -4 4.4 1.8
8 3 -4 7.4 2.1
-8 3 -4 0.9 0.8
8 -3 -4 2.7 2.3
8 -3 -4 4.5 1.6
-8 3 -4 2.8 1.5
-8 -3 4 2.4 1
-8 -3 4 2.2 1
0 4 -4 325.07 14
0 -4 4 336.37 10.5
0 -4 4 324.67 9.9
0 4 -4 329.27 10.6
0 -4 4 345.57 14.7
0 4 4 332.47 10.7
0 -4 4 333.27 9.1
0 -4 -4 329.37 11.5
0 4 -4 340.07 9.2
0 4 4 335.67 9.7
0 4 -4 336.47 9.5
0 -4 -4 334.57 9.7
1 4 -4 58.79 5.4
1 -4 4 63.49 1.9
1 4 -4 61.19 3.2
-1 4 4 65.89 3.5
1 4 -4 62.69 2.3
-1 -4 -4 62.09 2.7
1 4 -4 63.09 2
1 -4 4 64.09 2.8
-1 -4 -4 65.89 2.3
1 -4 4 67.39 6
1 4 4 61.69 3.6
-1 -4 4 62.19 5
-1 -4 4 67.59 3.1
1 4 4 63.59 2.6
-1 -4 4 64.39 1.9
1 -4 -4 63.19 2.8
-1 4 -4 65.99 5.2
-1 -4 4 67.39 2.5
-1 4 -4 64.39 3.1
-1 4 -4 62.59 2.2
1 -4 -4 63.09 4.1
-2 4 4 46 1.5
2 4 -4 46.2 1.6
-2 4 4 49.8 3.5
2 4 -4 43.4 1.9
2 -4 4 45.3 1.5
-2 4 4 47.4 1.5
2 -4 4 46.8 2.4
2 -4 -4 47.1 2.7
2 -4 -4 42.1 3.6
-2 -4 4 45.7 1.4
-2 -4 4 43.3 1.8
2 -4 -4 45.5 1.9
-2 4 -4 46.8 1.8
2 -4 -4 46.6 1.5
-3 4 4 57.99 2
3 4 -4 57.29 2
3 -4 4 58.59 2.8
3 4 -4 56.49 2.3
-3 4 4 58.39 1.9
-3 -4 4 60.69 2.1
3 -4 -4 57.59 1.9
3 -4 -4 60.29 2.4
-3 4 -4 59.69 1.9
-3 4 -4 61.39 2.2
-3 -4 4 59.39 1.9
-4 4 4 3.6 0.5
4 4 -4 3.4 0.7
4 -4 4 2.6 0.4
4 -4 4 3.8 1.1
4 4 -4 3 0.5
-4 4 4 3.1 0.4
4 -4 -4 4.2 0.9
-4 4 -4 2.3 0.5
-4 4 -4 2.7 0.4
-4 -4 4 2.3 0.4
-4 -4 4 2.2 0.5
4 -4 -4 3.4 0.5
-5 4 4 10.4 0.7
5 4 -4 10.7 1.1
-5 4 4 11.6 0.9
5 -4 4 10.9 1.5
5 -4 4 11.3 0.9
5 4 -4 9 1.1
-5 4 -4 10.5 1
-5 -4 4 10.5 0.7
5 -4 -4 9.7 0.8
-5 -4 4 10.4 0.9
-5 4 -4 10.6 0.7
5 -4 -4 11.9 1.4
6 4 -4 9.1 1.1
6 -4 4 11.6 1.9
-6 4 4 9.9 0.9
-6 4 4 10 1.3
6 4 -4 9.4 1.5
6 -4 4 10 1.2
6 -4 -4 10.5 1.2
-6 -4 4 9.1 0.8
-6 4 -4 11.2 0.9
6 -4 -4 9 1.5
-6 -4 4 8.3 0.9
-6 4 -4 12.8 1.5
7 4 -4 1.9 1.8
7 -4 4 1.1 1
7 -4 4 -0.4 2.1
-7 4 4 -0.4 1.1
7 4 -4 -1 1.2
-7 4 4 0.2 0.7
-7 -4 4 -0.3 0.8
7 -4 -4 -1.4 1.7
-7 4 -4 0.5 1.4
-7 4 -4 -0.1 0.7
7 -4 -4 -0.1 1
-7 -4 4 1.4 0.7
8 4 -4 1.6 1.8
8 4 -4 2.4 2.2
-8 -4 4 4.2 1
-8 -4 4 3.2 1
0 5 -4 8.2 0.5
0 -5 4 7.1 1.1
0 5 -4 10 0.9
0 -5 4 7.8 0.4
1 5 -4 44.7 1.5
1 -5 4 43.7 1.4
1 5 -4 42.7 1.8
1 -5 4 44.3 2.3
-1 5 -4 45.8 1.8
-1 -5 4 46.1 2.2
-1 -5 4 45.6 1.4
2 5 -4 114.79 3.5
-2 5 4 117.19 3.3
2 -5 4 108.19 4.3
-2 5 4 115.29 3.4
2 -5 4 109.59 3.3
2 5 -4 112.39 3.8
2 -5 -4 111.59 3.9
-2 5 -4 114.29 3.7
-2 -5 4 110.99 3.8
-2 -5 4 115.79 3.3
2 -5 -4 113.89 3.3
3 5 -4 29 1.6
-3 5 4 30.1 1.1
3 5 -4 29.2 1.3
3 -5 4 25.9 2
-3 5 4 28.5 1.2
3 -5 -4 30.6 1.7
-3 -5 4 29.8 1.4
-3 5 -4 27.7 1.4
-3 -5 4 29.1 1.1
3 -5 -4 31.2 1.1
4 5 -4 30.3 1.7
4 5 -4 28.5 1.4
-4 5 4 29.8 1.3
4 -5 4 27.3 2.4
-4 5 4 30.2 1.2
-4 5 -4 30.6 1.5
4 -5 -4 28.4 1.9
-4 -5 4 32.1 1.4
4 -5 -4 30.3 1.3
-4 -5 4 29.5 1.2
-4 5 -4 31.9 1.3
5 5 -4 20.6 1.7
-5 5 4 22.3 1.3
-5 5 4 21.7 1
5 -5 4 19.5 1.2
5 -5 4 22.4 2.4
5 5 -4 24.5 1.4
-5 5 -4 24.5 1.7
-5 5 -4 21.7 1.1
-5 -5 4 23.1 1
-5 -5 4 23.4 1.3
5 -5 -4 24.4 2.1
5 -5 -4 22.9 1.2
-6 5 4 3.7 0.6
6 5 -4 4 1.6
6 5 -4 3.5 0.9
6 -5 4 2.8 1
-6 5 4 5.2 1
6 -5 4 2 1.6
-6 -5 4 4 0.7
-6 5 -4 1.9 1.3
6 -5 -4 2.8 1.2
-6 5 -4 3.7 0.6
6 -5 -4 4.9 1
-6 -5 4 3 0.7
7 5 -4 -0.9 1.3
-7 5 4 1.1 0.7
7 -5 4 2.4 1.2
-7 5 4 -0.6 1.2
7 5 -4 0.3 2
7 -5 4 4.3 2.8
-7 5 -4 0.7 0.8
7 -5 -4 1 1.1
-7 5 -4 0.7 1.5
7 -5 -4 0.8 2.1
-7 -5 4 0.2 0.8
-7 -5 4 1.4 0.8
0 6 -4 36.9 1.6
0 6 -4 34.2 1.2
0 -6 4 34 1.1
0 -6 4 30.5 2
1 6 -4 3.4 0.4
1 6 -4 3 0.6
1 -6 4 3.3 0.3
1 -6 4 2.3 1
-1 6 -4 3.6 0.4
-1 6 -4 2.7 0.5
-1 -6 4 3.4 0.9
-1 -6 4 4 0.3
2 6 -4 31.3 1.3
2 -6 4 27.7 2.1
2 -6 4 29.9 1.1
2 6 -4 27.8 1.6
-2 -6 4 29.9 1.6
-2 6 -4 28.7 1.4
-2 -6 4 29 1
3 -6 4 54.69 3.1
3 6 -4 62.19 2.2
3 6 -4 57.69 2.5
-3 -6 4 59.39 1.9
-3 6 -4 59.29 2.3
-3 -6 4 63.69 2.4
4 -6 4 3.3 1.2
4 6 -4 2.3 0.6
4 6 -4 4 0.9
-4 6 4 2.3 0.5
-4 6 4 2.9 0.4
4 -6 -4 2.9 0.5
4 -6 -4 0.5 0.8
-4 6 -4 3.5 0.7
-4 -6 4 2.9 0.6
-4 -6 4 3.1 0.4
5 -6 4 3.3 0.7
5 6 -4 3.6 0.8
5 6 -4 2.3 1.2
-5 6 4 3.4 0.5
-5 6 4 2.6 0.8
5 -6 4 4.4 1.5
5 -6 -4 3.2 0.6
-5 6 -4 3.9 0.5
-5 -6 4 3.1 0.6
-5 -6 4 2.3 0.4
5 -6 -4 3.3 1.2
-5 6 -4 3.8 1.1
6 -6 4 3 1.1
-6 6 4 3 1.1
6 -6 4 4.9 2.4
-6 6 4 3.4 0.7
6 -6 -4 3.8 1
6 -6 -4 1.4 1.4
-6 6 -4 4.7 1.5
-6 6 -4 3.7 0.8
7 -6 4 3.3 1.3
-7 6 4 3.7 1.4
7 -6 4 3 2.8
-7 6 4 3.5 0.9
7 -6 -4 2.5 1.2
-7 6 -4 5.7 1.7
-7 6 -4 3 0.8
7 -6 -4 5.5 2.5
0 -7 4 1.7 0.3
0 7 -4 1 0.3
0 7 -4 1.2 0.5
0 -7 4 0.5 0.9
1 -7 4 7.3 0.5
1 7 -4 7.8 0.6
1 7 -4 7 0.9
1 -7 4 7.6 1.4
-1 7 -4 9.4 0.9
-1 7 -4 8.7 0.6
-1 -7 4 7.4 0.5
-1 -7 4 6.9 1.1
2 -7 4 26.1 2.4
2 7 -4 26.8 1.2
2 7 -4 29 1.7
-2 -7 4 28.6 1
-2 -7 4 27.1 1.6
-2 7 -4 29.5 1.5
3 -7 4 22 2.3
-3 7 -4 28.5 1.5
4 -7 4 0.4 1.2
-4 7 -4 0.9 0.8
5 -7 4 7 1.1
5 -7 4 7.7 2
-5 7 -4 5.9 1.4
6 -7 4 -0.5 1
6 -7 4 -1.6 2.4
-6 7 -4 0.9 1.4
1 -8 4 9.6 0.6
1 -8 4 9.3 1.6
-1 8 -4 9.1 1
-1 8 -4 8.7 0.6
2 -8 4 18.5 2.1
-2 8 -4 15.8 1.3
-2 8 -4 16.3 0.9
3 -8 4 3.5 1.4
-3 8 -4 6.2 1
4 -8 4 3.7 1.5
-4 8 -4 2 1.1
5 -8 4 3.3 2.2
5 -8 4 4.8 1
-5 8 -4 5 1.5
6 -8 4 0.4 3
6 -8 4 -0.1 1
-6 8 -4 0.7 1.5
4 -9 4 -1.3 1.6
-4 9 -4 0.4 1.1
5 -9 4 4.6 1.1
5 -9 4 3.4 2.7
-5 9 -4 6.8 1.6
0 0 5 0.2 0.2
0 0 5 -0.7 0.7
0 0 -5 -0.6 0.9
0 0 -5 0 0.2
1 0 -5 106.29 4
1 0 -5 99.99 4.6
-1 0 5 101.39 3.8
1 0 5 105.89 4.9
-1 0 -5 101.49 4.5
-1 0 5 100.69 4.3
-2 0 5 26.4 1
2 0 -5 25.7 1
2 0 -5 28.7 2.2
2 0 5 26.6 2.6
-2 0 5 29.8 2.2
2 0 -5 26.5 2.4
2 0 5 26.5 1.7
-2 0 -5 28.7 2.5
2 0 -5 27.4 1
-2 0 5 25.7 2
-2 0 5 26 0.9
3 0 5 36.3 4
3 0 -5 34.1 1.3
3 0 5 33.5 1.5
-3 0 -5 31.4 2.2
-3 0 -5 34.8 1.2
-3 0 5 33.8 1.2
-3 0 -5 34 1.2
3 0 5 34 1.2
3 0 -5 33.7 1.4
3 0 5 35 2.5
-3 0 -5 36 3.1
-3 0 5 32.5 1.3
-4 0 5 24.2 1.1
4 0 -5 22.5 1.1
-4 0 5 24.4 1
-4 0 -5 25.2 1
4 0 -5 24.4 1.3
4 0 5 24.7 1
4 0 5 25.4 1.4
-4 0 -5 23.1 1.1
-5 0 5 73.59 2.5
5 0 -5 70.69 2.8
-5 0 -5 76.19 2.5
-5 0 5 76.99 2.5
5 0 5 72.39 3
5 0 -5 76.59 2.6
5 0 5 74.99 2.5
-5 0 -5 71.89 2.4
6 0 -5 0.6 0.6
6 0 5 1.5 0.9
-6 0 5 1 0.6
6 0 -5 1 0.7
-6 0 5 0.1 0.3
-6 0 -5 0.2 0.3
-6 0 -5 0.4 0.4
6 0 5 0 0.5
-7 0 5 0.1 1
7 0 5 0.4 1
7 0 -5 0.6 1.3
7 0 5 -0.4 1.3
-7 0 -5 0.3 0.4
7 0 -5 0.1 1
-7 0 -5 1.1 0.9
-7 0 5 0.3 0.6
-8 0 5 8.2 1.2
-8 0 -5 9.5 1.1
8 0 5 7.2 1.5
8 0 5 10 2.6
-8 0 -5 7.4 1.3
-8 0 5 8.1 1.5
8 0 -5 10.1 2.3
8 0 -5 10.8 2.1
0 -1 -5 590.94 16.5
0 1 5 593.14 16.9
0 -1 5 594.64 19.4
0 -1 5 610.14 16.9
0 1 -5 610.94 19.5
0 1 -5 573.54 16.9
0 1 5 594.14 16.4
0 -1 -5 606.64 17.4
-1 1 5 77.39 3.2
1 1 -5 79.29 3.3
1 1 -5 81.69 4.7
-1 1 5 81.99 3.2
-1 -1 -5 80.79 3.2
1 -1 5 76.99 4.7
-1 1 -5 76.29 4.4
1 1 5 79.49 3.5
-1 -1 5 75.49 4.2
1 1 5 75.99 2.7
1 -1 -5 81.09 3.4
-1 1 -5 80.19 3
1 -1 -5 80.99 3.3
-1 -1 5 80.69 3.2
2 -1 5 52.39 2.1
-2 1 5 52.99 2.8
2 1 -5 51.79 3.1
-2 -1 -5 48.8 2.9
2 1 -5 59.59 4
-2 -1 -5 50.59 2.4
2 -1 5 52.09 4
2 -1 5 53.49 2.7
2 1 -5 51.79 1.7
-2 1 5 53.19 3
2 1 -5 58.29 1.8
-2 -1 5 53.89 3
2 1 5 49 3.1
-2 1 -5 51.29 1.7
-2 1 -5 48.9 3.7
-2 -1 5 50.89 1.6
-2 1 -5 51.49 1.6
2 1 5 48.9 2.5
-2 -1 5 54.59 3.3
2 -1 -5 58.09 3.2
-2 -1 5 54.99 1.8
2 -1 -5 58.39 3.3
3 -1 5 27.1 1.4
3 1 -5 24.2 1.1
-3 -1 -5 25.1 1.9
-3 -1 -5 24 2.3
3 1 -5 25.4 1.1
-3 -1 -5 24.3 0.9
-3 -1 -5 24.7 0.9
-3 1 5 24.9 1
-3 1 5 23.9 1
3 -1 -5 24.8 1.1
3 1 5 25.5 0.9
3 1 5 26.7 1.2
3 1 5 18 2.6
-3 1 -5 24 0.9
3 1 5 24.5 2.1
-3 -1 5 24.8 1
-3 -1 5 24.3 0.9
-3 1 -5 23.9 1
3 -1 -5 25.4 1
4 1 -5 389.36 11
4 -1 5 396.96 11.4
-4 1 5 381.06 10.9
-4 -1 -5 388.36 10.8
-4 -1 -5 389.16 10.8
4 -1 5 378.06 10.8
4 1 -5 393.06 11.1
-4 1 5 379.76 10.8
-4 -1 5 393.66 10.9
-4 1 -5 392.36 10.8
-4 -1 5 383.46 11
4 -1 -5 383.76 11.2
4 1 5 389.56 10.8
-4 1 -5 389.26 11
4 -1 -5 391.36 10.9
4 1 5 384.56 11.2
-5 -1 -5 3.9 0.5
5 1 -5 3.3 0.7
5 1 -5 4.3 0.6
5 -1 5 4.5 0.9
-5 1 5 4.5 0.6
5 -1 5 2.8 0.5
-5 -1 -5 5.3 0.6
-5 1 5 4.1 0.6
5 1 5 3.3 0.5
5 1 5 5.4 0.9
-5 -1 5 2.9 0.5
-5 -1 5 3.5 0.5
5 -1 -5 4.4 0.9
5 -1 -5 5.3 0.7
-5 1 -5 5 0.6
-5 1 -5 3.7 0.5
-6 1 5 9.9 0.9
-6 -1 -5 10.2 0.8
-6 1 5 10.9 1
6 1 -5 9.2 1.1
-6 -1 -5 11.9 0.9
6 1 -5 11.5 1.3
6 -1 5 10 1.4
6 -1 5 8.8 0.9
6 -1 -5 11.7 1.2
-6 -1 5 10 0.9
6 -1 -5 13 1.4
-6 1 -5 11.5 0.8
6 1 5 12.5 1
-6 -1 5 10.5 0.9
-6 1 -5 11.7 1
6 1 5 11.3 1.4
7 -1 5 9.9 1.3
-7 1 5 9 1
-7 1 5 8.9 1.2
-7 -1 -5 7.8 1
7 1 -5 6.8 1.6
7 -1 5 8.4 1.8
-7 -1 -5 9.7 0.9
7 1 -5 8.9 1.5
7 -1 -5 9.8 1.7
7 1 5 10.2 1.7
-7 1 -5 9.1 0.9
-7 1 -5 8.3 1.2
7 1 5 8.4 1.2
7 -1 -5 7.4 1.4
-7 -1 5 8.5 0.9
-7 -1 5 10 1.2
8 -1 5 0.2 1.3
-8 -1 -5 1.4 1
-8 1 5 1.1 0.9
-8 -1 -5 -0.5 0.6
-8 1 5 0.6 1.1
8 1 -5 1.4 1.7
8 1 -5 0.8 1.7
8 -1 5 1.7 2.3
8 -1 -5 1.9 1.5
-8 1 -5 0.6 0.8
-8 1 -5 0.3 1.2
-8 -1 5 0.7 0.9
8 1 5 -0.1 1.9
-8 -1 5 0.8 1.2
8 1 5 1 1.3
8 -1 -5 -0.7 2
0 -2 5 1.4 1.5
0 -2 5 2.1 0.5
0 2 -5 2.7 1.7
0 2 -5 1.9 0.5
1 2 -5 103.89 4.2
-1 2 5 107.39 4
-1 -2 -5 104.69 3.3
1 -2 5 107.09 6.3
-1 -2 -5 103.89 3.2
1 2 -5 95.69 6.1
-1 2 5 102.99 3.7
-1 2 -5 100.49 3.9
1 -2 -5 101.59 4.2
1 -2 -5 109.69 4
-1 2 -5 103.99 5.8
1 2 5 104.69 3.4
-1 -2 5 109.29 5.8
-1 -2 5 107.39 4.1
1 2 5 100.09 3.6
2 -2 5 187.38 9.3
2 -2 5 204.78 7.2
-2 2 5 200.68 5.7
2 2 -5 207.48 9.4
2 2 -5 202.08 7.6
-2 2 5 200.78 5.7
-2 2 5 203.98 7.6
2 -2 5 202.58 6.3
2 2 -5 202.18 5.8
-2 2 5 198.18 7
2 2 -5 206.58 5.9
-2 -2 -5 201.68 6.5
-2 -2 -5 200.88 6.9
-2 2 -5 205.08 9
2 -2 -5 202.98 5.6
2 -2 -5 204.58 7.3
2 -2 -5 192.48 7.8
-2 -2 5 197.58 8.1
-2 2 -5 204.58 5.6
2 -2 -5 194.48 5.9
-2 -2 5 198.88 5.6
-2 2 -5 200.48 5.8
-2 -2 5 199.08 7.2
2 2 5 188.18 7.1
-2 -2 5 198.68 5.8
2 2 5 193.78 6.7
-3 2 5 30.5 1.1
-3 -2 -5 31 1.1
-3 -2 -5 30.1 1.1
-3 -2 -5 29.5 2.1
3 -2 5 32.5 1.8
3 2 -5 33.2 1.3
3 2 -5 29.7 1.3
-3 -2 -5 28.6 2.4
-3 2 5 30.6 1.1
3 2 5 29.6 1.1
-3 -2 5 30 1.1
3 -2 -5 30.2 1.1
-3 2 -5 30.3 1.3
3 -2 -5 32.1 1.4
-3 2 -5 31.7 1.1
3 2 5 31.9 2.8
3 2 5 27.5 1.2
-3 -2 5 31.2 1.2
3 2 5 27.8 2.3
-4 -2 -5 22.4 1
-4 2 5 23.2 1.1
4 2 -5 22.9 1.2
4 -2 5 24.7 1.7
-4 2 5 24.9 1
4 2 -5 22.7 1.2
-4 -2 -5 22.8 0.9
4 -2 5 23.6 1
-4 2 -5 23.7 1.1
-4 -2 5 24.6 1
4 2 5 23.8 1
-4 2 -5 21.6 1
-4 -2 5 24.2 1.2
4 2 5 24.7 1.3
4 -2 -5 24.1 1.3
4 -2 -5 23.1 1.1
5 -2 5 26.8 1.9
-5 -2 -5 27.7 1.2
5 2 -5 31.7 1.5
-5 2 5 28.7 1.3
-5 -2 -5 26.4 1.2
-5 2 5 28 1.2
5 2 -5 24.6 1.4
5 -2 5 28 1.2
5 -2 -5 27.8 1.3
-5 -2 5 28.5 1.2
-5 2 -5 26.7 1.3
5 2 5 24.6 1.2
-5 2 -5 24.8 1.1
5 2 5 27.1 1.6
-5 -2 5 28.2 1.3
5 -2 -5 28 1.7
-6 -2 -5 1.3 0.4
6 -2 5 2.8 1.1
-6 2 5 2.2 0.7
6 -2 5 2.7 0.7
6 2 -5 1.2 0.6
6 2 -5 1.9 0.9
-6 -2 -5 2.5 0.5
-6 2 5 2.6 0.5
6 -2 -5 1 0.7
6 2 5 1.4 0.8
-6 2 -5 2 0.5
-6 2 -5 1.2 0.7
6 2 5 1.4 0.5
-6 -2 5 1.2 0.5
6 -2 -5 0.7 0.7
-6 -2 5 1.8 0.5
7 2 -5 1.8 1.5
-7 -2 -5 0.3 0.4
7 -2 5 1.9 1.5
7 -2 5 -0.5 1
-7 -2 -5 0.7 0.7
-7 2 5 -0.6 0.6
-7 2 5 -0.4 1.1
7 2 -5 1.7 1.2
7 2 5 -0.2 1.1
7 2 5 -0.7 1
7 -2 -5 -0.3 1.3
7 -2 -5 -0.2 1.2
-7 2 -5 0 0.5
-7 2 -5 -0.6 1.1
-7 -2 5 1.1 0.9
-7 -2 5 1.1 0.7
8 -2 5 0 1.3
8 -2 5 0.2 2.5
-8 2 5 2.3 1.2
8 2 -5 0.8 1.9
8 2 -5 2.4 1.8
-8 2 5 -0.9 0.8
-8 -2 5 1.7 1
-8 2 -5 0.1 1.4
-8 2 -5 0.9 0.8
-8 -2 5 1 0.9
8 -2 -5 0.4 2
8 -2 -5 1.3 1.6
0 -3 -5 91.49 3.4
0 3 5 90.49 2.9
0 3 -5 88.09 2.8
0 -3 -5 86.19 2.7
0 -3 5 84.19 3.2
0 -3 5 85.59 3.5
0 3 -5 82.69 5.9
0 3 -5 85.59 3.5
0 -3 5 80.69 6
0 3 5 88.69 2.6
0 3 -5 84.69 2.5
0 -3 5 82.69 2.5
1 3 -5 48.8 5.5
-1 -3 -5 43.5 1.5
1 -3 5 49.99 5.6
1 3 -5 43 2.5
1 -3 5 47.4 2.1
1 3 -5 43 1.4
-1 -3 -5 43.7 1.5
-1 3 5 46.4 2.4
1 -3 5 41.8 1.3
1 3 -5 42.8 1.8
-1 3 5 44.1 2
-1 3 -5 43.6 2.3
1 3 5 37.9 2.1
-1 3 -5 44.4 4.2
-1 -3 5 45.1 2.4
1 -3 -5 44.8 2.1
-1 -3 5 47.2 1.9
-1 3 -5 45.3 1.7
1 -3 -5 40.5 2.7
-1 -3 5 48.9 4.3
-1 -3 5 43 1.3
1 3 5 41.9 1.7
2 -3 5 1.5 0.8
2 -3 5 1.8 0.2
-2 -3 -5 1.7 0.5
-2 3 5 1.7 0.2
2 3 -5 1.9 0.9
-2 3 5 1.6 0.3
2 3 -5 0.8 1.8
-2 3 5 0.8 0.7
-2 3 5 1.3 0.6
2 3 -5 2.5 0.5
-2 -3 -5 2.5 0.6
2 3 -5 1.4 0.3
-2 -3 5 1.4 0.7
-2 3 -5 1.7 0.2
2 -3 -5 1.3 0.4
2 3 5 1.6 0.7
-2 -3 5 1.7 0.2
-2 -3 5 2 1.2
2 3 5 2.6 0.9
2 -3 -5 0.4 0.9
-2 3 -5 2 0.4
2 -3 -5 2.1 0.3
2 -3 -5 2.2 0.8
-2 -3 5 2 0.5
3 3 -5 3.2 0.6
3 3 -5 3.1 0.5
-3 3 5 2.9 0.4
-3 3 5 2.5 0.3
-3 -3 -5 2.7 0.3
3 -3 5 2.6 0.8
-3 -3 -5 2.8 0.3
-3 -3 5 2.6 0.3
3 -3 -5 3 0.6
3 -3 -5 2 0.3
-3 -3 5 3.3 0.5
3 3 5 3.4 0.5
-3 3 -5 2.8 0.3
-3 3 -5 3.1 0.5
3 3 5 3.4 0.4
-4 3 5 116.39 3.5
4 -3 5 115.09 3.5
-4 3 5 118.29 3.6
4 3 -5 111.69 3.8
-4 -3 -5 114.09 3.5
4 3 -5 113.59 3.8
4 -3 5 118.09 4.4
-4 -3 5 118.29 3.7
4 -3 -5 112.39 4
-4 -3 5 116.89 3.5
-4 3 -5 123.09 3.8
4 3 5 114.09 4.5
4 -3 -5 115.59 3.6
-4 3 -5 119.79 3.6
5 3 -5 15.5 1.2
5 3 -5 18.3 1.3
5 -3 5 17.9 1
5 -3 5 14.9 1.7
-5 3 5 16.6 0.9
-5 3 5 15.9 1
5 -3 -5 16.7 1
-5 -3 5 15.7 1
-5 3 -5 16.8 0.9
-5 3 -5 18.2 1.1
5 -3 -5 16.5 1.5
-5 -3 5 17 0.9
6 -3 5 3.9 1.2
-6 3 5 3.6 0.8
6 3 -5 7.2 1.4
6 -3 5 4.1 0.9
-6 3 5 4.7 0.6
6 3 -5 4 0.9
6 -3 -5 2.6 0.9
-6 -3 5 4.9 0.8
6 -3 -5 2.4 0.8
-6 -3 5 3.1 0.6
-6 3 -5 4.8 1.1
-6 3 -5 4.7 0.6
7 3 -5 4.9 1.7
7 -3 5 4.3 1.1
-7 3 5 3.6 0.8
7 3 -5 6.1 1.5
7 -3 5 3.5 2
-7 3 5 4.8 1.2
-7 3 -5 4.3 1.4
-7 -3 5 4.5 0.9
7 -3 -5 3.5 1.3
7 -3 -5 3.4 1.6
-7 -3 5 3.8 0.9
-7 3 -5 2.7 0.7
-8 3 5 0.7 0.9
8 3 -5 1.7 1.8
-8 3 5 1 1.3
8 -3 5 -0.2 2.7
8 -3 5 1 1.3
8 3 -5 2.6 2.1
-8 -3 5 1.3 0.9
8 -3 -5 0.7 1.6
8 -3 -5 5 2.4
-8 3 -5 1.6 1.5
-8 3 -5 1.5 0.9
-8 -3 5 1.5 1
0 4 5 20.5 1
0 -4 5 20.8 0.7
0 4 5 21.9 1.4
0 -4 -5 22.2 1.1
0 -4 5 22.7 1.7
0 -4 5 26.2 4.6
0 -4 -5 21.2 2.2
0 4 -5 21.6 1.1
0 -4 5 22.9 1.7
0 4 -5 22.3 0.8
0 4 -5 20.9 1.7
0 4 -5 25.3 4.2
1 -4 5 153.08 5.3
1 4 -5 153.58 4.5
-1 4 5 166.98 6.2
1 4 -5 162.88 6.2
1 4 -5 160.78 9.4
1 -4 5 150.68 4.4
1 4 -5 154.78 4.9
1 -4 -5 163.48 7
-1 4 -5 161.78 4.9
-1 -4 5 161.78 5.9
-1 -4 5 163.28 4.6
-1 -4 5 158.68 5.2
1 -4 -5 164.58 5.6
-1 -4 5 162.58 8.7
-2 4 5 81.09 2.5
2 -4 5 77.89 2.4
-2 4 5 83.49 2.4
2 4 -5 78.39 2.5
2 -4 5 77.79 3.3
-2 4 5 82.69 4.5
2 4 -5 82.89 2.9
2 -4 -5 91.49 4
2 -4 -5 83.89 2.5
2 -4 -5 80.29 5
-2 -4 5 83.39 2.9
2 -4 -5 86.89 2.9
-2 -4 5 81.69 2.5
-2 4 -5 80.59 2.8
3 4 -5 71.79 2.7
3 -4 5 71.69 3.2
-3 4 5 74.19 2.4
3 4 -5 74.29 2.5
-3 4 5 74.69 2.3
-3 4 -5 76.09 2.4
3 -4 -5 78.39 2.8
-3 -4 5 78.19 2.6
-3 -4 5 75.79 2.3
3 -4 -5 71.29 2.3
-3 4 -5 75.19 2.6
4 4 -5 11.4 0.9
4 -4 5 11.9 1.5
-4 4 5 11.9 0.7
4 4 -5 12.1 1.2
-4 4 5 11.5 0.8
-4 -4 5 11.6 0.9
4 -4 -5 10.1 1.1
-4 -4 5 10.3 0.6
-4 4 -5 11.4 0.7
-4 4 -5 10.7 0.9
4 -4 -5 12 0.7
5 4 -5 19 1.6
5 -4 5 18.8 2
5 -4 5 21.6 1.1
-5 4 5 20.3 1
-5 4 5 21.7 1.2
5 4 -5 21.8 1.3
-5 4 -5 21.1 1.3
-5 -4 5 21.7 1.2
5 -4 -5 20.8 1.8
-5 4 -5 20.1 1
5 -4 -5 21 1.1
-5 -4 5 20.9 1
-6 4 5 9.9 0.9
6 4 -5 9.6 1.2
6 -4 5 9.9 1.7
6 -4 5 10.1 1.1
6 4 -5 10.9 1.8
-6 4 5 8.2 1.1
6 -4 -5 7.7 1.1
-6 -4 5 10.4 0.9
-6 4 -5 9.4 1.4
-6 -4 5 9.1 0.9
-6 4 -5 10.6 0.9
6 -4 -5 12.2 1.5
7 4 -5 6.1 1.6
-7 4 5 6 0.9
7 -4 5 5 1.3
7 4 -5 2.8 2
-7 4 5 5.1 1.3
7 -4 5 2.7 2.1
-7 4 -5 5 0.8
7 -4 -5 7.2 1.4
-7 -4 5 5.7 0.9
-7 4 -5 6.4 1.6
-7 -4 5 5.1 1
7 -4 -5 2.4 1.8
8 4 -5 0.1 2.4
8 4 -5 0.3 1.9
-8 -4 5 -0.7 1
-8 -4 5 0.2 1
0 -5 5 0.3 0.2
0 5 -5 1.1 0.5
0 5 -5 0.3 0.2
0 -5 5 0.1 0.8
1 5 -5 15.6 0.7
1 5 -5 13.2 1.1
1 -5 5 13.6 1.5
1 -5 5 13.5 0.6
-1 5 -5 14.3 0.7
-1 -5 5 17.6 1.5
-1 -5 5 14.3 0.6
-1 5 -5 13.8 0.9
2 5 -5 51.39 1.8
2 5 -5 51.89 2.2
2 -5 5 52.99 1.7
2 -5 5 52.89 2.8
2 -5 -5 51.89 2.7
-2 -5 5 54.29 2.2
-2 5 -5 50.19 2
-2 -5 5 52.29 1.6
3 5 -5 32.6 1.7
-3 5 5 33.6 1.3
3 -5 5 28.9 2.2
-3 5 5 32.9 1.2
3 5 -5 33.8 1.4
3 -5 -5 34.1 1.3
-3 -5 5 33.8 1.2
-3 -5 5 36.7 1.6
-3 5 -5 32 1.5
3 -5 -5 34 1.8
-4 5 5 19.7 0.9
4 -5 5 17.9 2
4 5 -5 20.9 1.2
4 5 -5 19.6 1.4
-4 5 5 18.9 1
4 -5 -5 19.6 1
-4 5 -5 18.8 0.9
-4 5 -5 18.4 1.2
-4 -5 5 18.1 0.8
4 -5 -5 20.6 1.6
-4 -5 5 19.3 1.1
5 5 -5 2.5 1
-5 5 5 2.5 0.6
5 -5 5 1.9 1.2
-5 5 5 1.7 0.4
5 -5 5 2 0.6
5 5 -5 2.6 0.7
-5 5 -5 2.1 0.4
-5 -5 5 2.1 0.4
-5 -5 5 1.6 0.5
-5 5 -5 3.3 1
5 -5 -5 2.4 1
5 -5 -5 2.5 0.5
6 5 -5 4.3 1
-6 5 5 4.5 0.6
6 5 -5 5.2 1.8
-6 5 5 5.6 1.2
6 -5 5 2.9 1.8
6 -5 5 5.4 1.1
6 -5 -5 3.7 1
-6 5 -5 6.3 0.8
-6 -5 5 5 0.8
6 -5 -5 3.9 1.3
-6 -5 5 4.8 0.8
-6 5 -5 4.3 1.4
7 5 -5 0.9 2.1
-7 5 5 3 0.8
7 -5 5 1.5 2.7
7 5 -5 5 1.6
-7 5 5 2.7 1.3
7 -5 5 1.2 1.2
-7 -5 5 3.9 0.9
7 -5 -5 4.7 2.1
7 -5 -5 1.3 1.2
-7 -5 5 2.8 0.8
-7 5 -5 3.6 0.9
-7 5 -5 2.8 1.5
0 6 -5 5.4 0.8
0 -6 5 5.9 1.1
0 6 -5 6 0.5
0 -6 5 5.7 0.4
1 -6 5 123.69 3.6
1 6 -5 119.19 4.1
1 6 -5 123.49 3.7
1 -6 5 119.79 4.7
-1 -6 5 122.69 4.5
-1 -6 5 129.39 3.6
-1 6 -5 119.19 4.1
-1 6 -5 130.49 3.8
2 6 -5 86.09 3.4
2 -6 5 95.79 2.8
2 6 -5 95.49 3
2 -6 5 88.09 4
-2 6 -5 95.39 3.3
-2 -6 5 96.69 3.5
-2 -6 5 97.09 2.9
3 6 -5 34 1.9
3 -6 5 34.7 2.6
3 6 -5 38.7 1.6
-3 -6 5 38.6 1.7
-3 -6 5 36.7 1.3
-3 6 -5 34.5 1.7
-4 6 5 1.1 0.4
4 6 -5 1.4 0.5
4 -6 5 3.3 1.3
4 6 -5 -0.1 0.6
-4 6 5 1.6 0.5
4 -6 -5 1.8 1
4 -6 -5 2.3 0.5
-4 -6 5 1.8 0.3
-4 6 -5 2.9 0.7
-4 -6 5 1 0.5
-5 6 5 4.8 0.8
5 6 -5 5.5 1.6
-5 6 5 4.7 0.6
5 -6 5 5.8 0.9
5 6 -5 3.7 0.8
5 -6 5 5.1 1.5
5 -6 -5 4.8 1.2
-5 -6 5 4.6 0.7
5 -6 -5 3.4 0.6
-5 6 -5 5.7 1.3
-5 -6 5 4.8 0.6
-6 6 5 5.2 0.7
6 -6 5 3.4 2.5
6 -6 5 4.4 1.2
6 6 -5 5.3 1.4
6 6 -5 2.6 2.3
-6 6 5 5.1 1.2
6 -6 -5 6.4 1.6
6 -6 -5 4.7 1
-6 -6 5 5.8 1.1
-6 6 -5 4.4 1.5
-6 -6 5 4 0.8
7 -6 5 -4.3 2.7
7 -6 5 0.1 1.2
-7 6 5 -0.5 1.2
-7 6 5 0.9 0.8
7 -6 -5 0 2.2
7 -6 -5 1 1.1
-7 6 -5 -1.1 1.4
0 -7 5 6.1 1.3
0 7 -5 5.8 0.6
0 7 -5 7.3 0.9
0 -7 5 6.2 0.5
1 -7 5 12.5 0.6
1 -7 5 8.9 1.6
1 7 -5 13.7 1.2
1 7 -5 12.5 0.7
-1 7 -5 12.6 0.7
-1 7 -5 11.2 1
-1 -7 5 12.7 1.4
-1 -7 5 12.4 0.6
2 7 -5 20 1
2 -7 5 17.9 2.1
2 7 -5 19.5 1.6
2 -7 5 20.2 0.9
-2 -7 5 22 1.5
-2 7 -5 19.6 1.3
-2 7 -5 19.4 0.9
-2 -7 5 20.4 0.8
3 -7 5 17.8 2.1
3 7 -5 18.7 1.7
3 7 -5 19.7 1.1
-3 -7 5 19 0.8
-3 -7 5 19.2 1.3
-3 7 -5 22.2 1.3
4 -7 5 -0.3 1.2
-4 7 -5 1.7 1
5 -7 5 10.7 1.2
5 -7 5 11.3 2.4
-5 7 -5 12.3 1.7
6 -7 5 2.2 1.1
6 -7 5 1.5 2.7
-6 7 -5 2.1 1.5
0 -8 5 4.9 0.4
0 8 -5 5 0.6
0 -8 5 4 1.2
0 8 -5 3.6 0.7
1 -8 5 33.6 1.2
1 -8 5 27.5 2.6
-1 8 -5 32.6 1.3
-1 8 -5 32.9 1.7
2 -8 5 16.9 2.1
-2 8 -5 26.4 1.5
-2 8 -5 25.1 1.2
3 -8 5 8.3 1.8
-3 8 -5 12.5 1.3
4 -8 5 7.7 1.9
-4 8 -5 9.8 1.5
5 -8 5 6.3 2.7
5 -8 5 7.2 1.2
-5 8 -5 9.4 1.7
6 -8 5 -0.1 2.9
6 -8 5 2.9 1.2
-6 8 -5 2.5 1.5
2 -9 5 0 2
3 -9 5 11.6 2.2
-3 9 -5 9.5 0.9
-3 9 -5 12.5 1.6
4 -9 5 4.3 2.2
-4 9 -5 3.1 1.4
5 -9 5 4 3
5 -9 5 7.1 1.2
-5 9 -5 7.2 1.6
0 0 6 57.69 2.2
0 0 -6 62.29 3.8
0 0 -6 58.39 2.3
0 0 6 62.39 3.7
-1 0 -6 172.68 5.6
-1 0 6 181.48 6.6
1 0 -6 173.18 6.1
-1 0 -6 180.78 6.9
1 0 6 174.18 7.3
-1 0 6 176.48 6
1 0 -6 182.68 7.2
-2 0 6 37.5 2.4
2 0 -6 33.7 1.2
-2 0 6 36.7 2.5
-2 0 6 33.1 1.1
2 0 6 34.3 3.1
2 0 -6 34 2.8
-2 0 -6 30.7 2.7
-2 0 6 34.6 1.2
2 0 -6 34.9 1.2
2 0 6 33.2 2
2 0 -6 36.2 2.5
3 0 6 62.49 3.5
-3 0 -6 64.49 2
-3 0 6 66.39 2.2
3 0 -6 64.99 2.2
3 0 6 67.99 2.1
-3 0 -6 64.29 2.1
3 0 -6 71.29 2.3
3 0 6 72.09 2.5
3 0 6 62.49 4.7
-3 0 6 66.49 2.1
-3 0 -6 72.59 4.5
-4 0 6 6.5 0.6
4 0 -6 6.4 0.7
4 0 6 5.4 0.5
-4 0 -6 6.9 0.5
4 0 -6 7.7 0.7
-4 0 -6 5.2 0.6
-4 0 6 6.6 0.6
4 0 6 8.4 1
5 0 6 23 1.6
5 0 -6 24.8 1.5
-5 0 -6 23.3 1.1
-5 0 6 21.8 1.1
-5 0 -6 22.7 1
-5 0 6 23.2 1.2
5 0 -6 23.4 1.2
5 0 6 23.7 1.1
-6 0 6 12 1
-6 0 -6 10.2 0.9
6 0 6 11.3 1.5
-6 0 6 10.2 0.9
6 0 -6 8.8 1.2
6 0 -6 11.6 1.2
6 0 6 11.2 0.9
-6 0 -6 11 0.8
7 0 6 1.7 1.4
-7 0 6 2.4 0.9
7 0 -6 3.2 1.4
-7 0 6 1.9 0.7
7 0 6 0.5 1
-7 0 -6 2.9 1
7 0 -6 3.2 1.4
-7 0 -6 1.4 0.4
8 0 6 4 2.3
8 0 -6 0.9 1.8
-8 0 6 1.2 0.9
-8 0 -6 1.2 0.7
8 0 6 1 1.3
-8 0 6 3 1.3
8 0 -6 1.8 1.8
-8 0 -6 3.5 1.1
0 1 6 606.44 16.8
0 1 6 609.84 17.5
0 -1 -6 609.14 18.1
0 1 -6 575.34 17.3
0 -1 6 641.24 20.3
0 -1 6 590.04 17.3
0 1 -6 617.84 20.1
0 -1 -6 611.14 16.9
-1 -1 -6 575.94 17
1 1 -6 576.94 17.1
-1 1 6 581.64 16.8
1 1 -6 561.04 19.3
-1 1 6 578.04 17
1 -1 6 594.84 19.6
-1 -1 -6 586.44 16.2
1 1 6 583.54 16.6
1 1 6 588.24 17.8
-1 -1 6 590.84 17.2
-1 1 -6 576.64 17
-1 1 -6 589.94 19.2
1 -1 -6 597.34 17.7
-1 -1 6 602.84 18.9
1 -1 -6 592.14 17.3
2 -1 6 357.76 13.8
-2 1 6 353.36 10
2 1 -6 355.96 10.2
-2 1 6 376.36 12
2 -1 6 383.06 10.6
2 1 -6 354.96 10.2
2 1 -6 374.66 13.5
2 1 -6 364.86 12.1
2 -1 6 369.56 11.5
-2 1 6 362.26 10.1
-2 -1 -6 367.46 11.9
-2 1 6 365.36 11.8
-2 -1 6 359.86 12.4
2 1 6 355.26 12.3
2 -1 -6 364.46 10.1
2 -1 -6 363.76 12.1
-2 -1 6 375.76 11.8
2 -1 -6 358.66 10
-2 -1 6 364.76 10.1
-2 -1 6 347.97 9.9
-2 1 -6 363.46 9.9
-2 1 -6 373.86 13.2
2 1 6 362.16 11.1
-2 1 -6 357.46 10.1
2 -1 -6 354.46 12
-3 1 6 199.18 5.6
-3 -1 -6 198.68 5.5
-3 -1 -6 183.08 5.5
3 -1 6 197.28 6.1
-3 1 6 188.48 5.5
3 1 -6 186.48 5.7
-3 -1 -6 199.58 6.9
-3 -1 -6 207.88 8
3 1 -6 193.08 5.7
3 1 6 197.18 5.8
-3 -1 6 197.28 5.7
3 1 6 197.98 5.5
-3 1 -6 191.38 5.5
-3 -1 6 192.48 5.5
-3 1 -6 191.18 5.6
3 -1 -6 198.08 5.8
3 -1 -6 196.78 5.6
3 1 6 187.88 8.5
3 1 6 196.68 7.3
4 1 -6 0.7 0.5
4 1 -6 2.4 0.5
-4 1 6 1.8 0.4
-4 -1 -6 2.5 0.3
-4 -1 -6 0.3 0.3
-4 1 6 1.1 0.3
4 -1 6 1.4 0.7
4 -1 -6 2.3 0.4
4 -1 -6 0.8 0.4
4 1 6 1.3 0.5
-4 1 -6 1.2 0.4
-4 1 -6 2.3 0.3
-4 -1 6 0.9 0.3
-5 1 6 32 1.4
5 1 -6 27.6 1.5
5 -1 6 29.9 1.3
-5 1 6 30.6 1.3
-5 -1 -6 30.2 1.2
-5 -1 -6 32.2 1.3
5 1 -6 31.1 1.7
5 -1 6 30.8 2
5 -1 -6 27 1.6
-5 -1 6 32.4 1.3
5 1 6 31 1.8
-5 1 -6 30.1 1.2
-5 1 -6 31.2 1.4
5 1 6 30.4 1.3
5 -1 -6 32.2 1.4
-5 -1 6 29.3 1.4
-6 -1 -6 8.5 0.8
-6 1 6 8.5 0.9
-6 -1 -6 10.5 0.7
6 -1 6 8.6 0.9
-6 1 6 9.6 0.9
6 1 -6 9.2 1.2
6 1 -6 8.2 1.1
6 -1 6 8.3 1.3
6 -1 -6 9.7 1.1
6 1 6 9.7 1.3
-6 1 -6 9.9 0.7
-6 -1 6 10.1 0.9
6 1 6 8.5 0.8
-6 -1 6 8.2 0.8
-6 1 -6 8.8 1
6 -1 -6 9.6 1.3
7 -1 6 5.3 1.2
7 1 -6 7.9 1.7
-7 -1 -6 5.6 0.7
7 -1 6 4.3 1.7
7 1 -6 5.9 1.5
-7 1 6 2.9 0.8
-7 -1 -6 3.7 0.9
-7 1 6 5 1.2
-7 1 -6 5.9 1.2
7 -1 -6 5.4 1.5
7 1 6 4.1 1.4
-7 -1 6 5.9 1.1
7 -1 -6 7.6 1.5
7 1 6 5.6 1.2
-7 -1 6 3.8 0.8
-7 1 -6 4.9 0.7
8 1 -6 5 2
-8 1 6 0.9 1.2
8 -1 6 0.9 2.2
-8 -1 -6 2.4 1.1
-8 -1 -6 3.6 1.1
-8 1 6 2.3 0.9
8 -1 6 3.5 1.4
8 1 -6 2.3 1.9
8 1 6 3 1.5
-8 1 -6 5.2 1.3
-8 -1 6 3.7 1
-8 1 -6 3.5 0.9
8 1 6 0.1 1.9
8 -1 -6 4.4 2
-8 -1 6 4.1 1.3
8 -1 -6 1.7 1.7
0 -2 6 668.63 22.7
0 2 6 649.83 18
0 2 -6 660.53 22.6
0 -2 -6 659.03 18.2
0 -2 6 650.83 19
0 -2 -6 673.53 18.5
0 2 6 662.13 18.1
0 2 -6 663.03 19.1
-1 2 6 327.97 9.8
1 2 -6 311.37 13
1 2 -6 315.67 9
1 -2 6 322.47 13.2
-1 -2 -6 321.77 9
1 -2 6 300.27 8.6
1 -2 6 336.87 9.4
1 2 -6 306.27 10.1
1 2 -6 304.77 8.7
-1 2 6 316.17 9.6
-1 -2 6 331.77 12.4
1 2 6 312.27 9.7
1 -2 -6 328.87 10
-1 -2 6 316.17 9.3
-1 2 -6 329.87 10
-1 -2 6 317.07 8.8
1 -2 -6 311.87 10.2
-1 2 -6 332.07 12.7
-1 2 -6 329.17 9.1
1 2 6 321.37 9.2
2 2 -6 66.19 3.7
-2 -2 -6 63.69 2.7
-2 -2 -6 68.59 3.1
-2 2 6 66.79 2
-2 2 6 63.89 2
2 2 -6 68.09 2.1
2 -2 6 65.79 2
-2 2 6 68.29 3.3
2 -2 6 64.49 2.6
-2 2 6 68.89 3.6
2 2 -6 67.49 2.3
2 -2 6 69.09 3.3
2 2 -6 68.99 5.2
2 -2 6 57.59 4.9
-2 2 -6 66.49 3.2
2 -2 -6 68.09 2
-2 -2 6 68.79 2.3
-2 -2 6 63.49 3.4
2 -2 -6 67.69 3.6
-2 2 -6 66.99 2
2 -2 -6 67.89 3.9
-2 2 -6 70.49 4.9
2 2 6 68.09 3
-2 2 -6 69.49 2.3
2 2 6 68.19 3.5
-2 -2 6 62.89 4.1
2 -2 -6 66.99 2.2
-2 -2 6 67.99 2
3 -2 6 3.8 0.9
-3 2 6 5.4 0.4
3 2 -6 4 0.6
-3 -2 -6 5.8 1.3
-3 -2 -6 4 0.9
-3 2 6 4.4 0.4
-3 -2 -6 5.8 0.4
-3 -2 -6 4.7 0.4
3 2 -6 4.5 0.5
3 -2 -6 5.9 0.7
-3 -2 6 4.8 0.5
3 2 6 5.5 1.2
3 -2 -6 5.1 0.5
-3 2 -6 5.3 0.4
3 2 6 2.6 1.2
3 2 6 4.9 0.4
-3 -2 6 5.1 0.4
3 2 6 5.1 0.6
-3 2 -6 4.8 0.6
4 -2 6 71.89 3
-4 -2 -6 71.99 2.2
4 2 -6 69.39 2.5
4 2 -6 65.39 2.5
-4 2 6 70.09 2.3
-4 -2 -6 68.39 2.2
4 -2 6 70.69 2.3
-4 2 6 67.89 2.3
4 -2 -6 72.29 2.3
-4 -2 6 69.39 2.4
-4 2 -6 72.19 2.3
-4 -2 6 70.39 2.3
4 -2 -6 70.99 2.7
-4 2 -6 69.09 2.4
4 2 6 69.19 2.2
4 2 6 64.99 2.5
-5 -2 -6 20.2 1
-5 2 6 20.6 1.1
5 -2 6 18.5 1.8
5 2 -6 20.2 1.3
-5 2 6 19.8 1
5 2 -6 19 1.3
5 -2 6 21.6 1
-5 -2 -6 21.5 1
-5 -2 6 22.3 1.1
5 -2 -6 22.2 1.1
-5 -2 6 20.4 1.2
5 2 6 20.5 1.4
-5 2 -6 21.2 1.2
5 2 6 22.7 1
5 -2 -6 19.1 1.5
-5 2 -6 20.9 1
6 2 -6 8.3 1.4
-6 2 6 8.4 0.8
-6 -2 -6 9.4 0.8
-6 2 6 10.2 1.1
6 2 -6 8.4 1.1
6 -2 6 7.8 0.9
-6 -2 -6 10.5 0.8
6 -2 6 8.8 1.5
6 -2 -6 11.2 1.2
-6 2 -6 9.3 1.1
6 -2 -6 7.6 1.2
-6 2 -6 8.4 0.7
6 2 6 8.3 1.2
-6 -2 6 10.4 0.9
6 2 6 7.9 0.8
-6 -2 6 10.6 1
7 2 -6 27 2.5
7 -2 6 21 1.7
-7 2 6 23.1 1.8
7 -2 6 27.2 2.8
7 2 -6 21.2 2.1
-7 2 6 23.7 1.5
-7 -2 6 21.7 1.4
-7 2 -6 22.9 1.4
7 -2 -6 24.1 2
-7 -2 6 25.3 1.8
-7 2 -6 25.6 1.9
7 -2 -6 23.3 2.4
8 -2 6 6.7 2.8
8 -2 6 5.7 1.5
-8 2 6 6.4 1.4
8 2 -6 5 2
8 2 -6 3.3 2.1
-8 2 6 6.1 1.1
-8 -2 6 7.2 1.3
-8 2 -6 4.8 1.5
8 -2 -6 4.5 1.8
-8 -2 6 5.7 1.1
-8 2 -6 6.1 1
8 -2 -6 5.5 2.1
0 3 -6 302.77 8.6
0 3 -6 295.17 13
0 -3 6 312.67 13.5
0 -3 6 293.47 9
0 3 -6 298.17 9.6
0 -3 6 299.17 9.5
0 -3 6 294.47 8.2
0 3 -6 298.57 8.3
1 3 -6 12.1 1
-1 3 6 11.2 0.9
1 -3 6 11.1 0.5
1 3 -6 8.1 2.8
-1 3 6 10 1.2
1 -3 6 11.4 1.2
1 -3 6 7.9 2.7
1 3 -6 10.5 0.6
1 3 -6 11.3 1.5
1 -3 -6 12.8 1.7
-1 3 -6 12 2.6
1 -3 -6 12.4 1.1
-1 -3 6 11.3 0.5
-1 3 -6 11.9 0.8
-1 -3 6 10.7 1.1
-1 -3 6 11.6 1.4
-1 3 -6 12 1.4
-1 -3 6 10.4 2.7
-2 3 6 25.9 1
-2 3 6 28.1 1.9
-2 3 6 29.5 2.3
2 3 -6 27.7 1.1
-2 -3 -6 27.5 1.5
-2 3 6 26 0.9
-2 -3 -6 25.5 1.6
2 -3 6 26.4 1.7
2 3 -6 30.3 1.4
2 -3 6 25.5 0.9
2 -3 -6 27 1
2 -3 -6 25.3 2.9
2 3 6 27.2 2
2 3 6 24.9 1.9
2 -3 -6 26.2 2.1
-2 -3 6 27.6 0.9
-2 3 -6 28.4 1.2
2 -3 -6 27.9 1.2
-2 -3 6 27.2 1.3
3 3 -6 249.58 7.2
3 3 -6 245.38 7.3
3 -3 6 241.18 7.8
-3 3 6 245.08 7
-3 3 6 248.68 7
-3 -3 6 252.27 7.1
3 -3 -6 252.07 7.2
3 -3 -6 259.07 7.5
-3 3 -6 250.67 7.2
-3 -3 6 258.17 7.4
-3 3 -6 254.37 7.4
4 3 -6 23.4 1.4
-4 3 6 22.6 1.1
4 -3 6 27.9 1.9
4 3 -6 22.9 1.3
-4 3 6 24.7 1
-4 3 -6 23.5 1.3
-4 3 -6 25.4 1
-4 -3 6 24.5 1
-4 -3 6 26.1 1.3
4 -3 -6 23.4 1.5
4 -3 -6 27.3 1.1
5 3 -6 16.4 1.2
5 -3 6 15.1 1.8
-5 3 6 16.3 1
-5 3 6 16.2 0.9
5 -3 6 14.8 0.9
5 3 -6 14.1 1.3
-5 3 -6 16.7 0.9
5 -3 -6 14.3 1.4
-5 -3 6 16.2 1.1
5 -3 -6 15.2 1
-5 -3 6 15.3 0.9
-5 3 -6 18.7 1.1
6 -3 6 19.4 2.2
-6 3 6 19.3 1.4
-6 3 6 19.6 1.1
6 -3 6 17.8 1.3
6 3 -6 19.4 2
6 3 -6 20.4 1.5
6 -3 -6 21.8 2
6 -3 -6 20.9 1.5
-6 3 -6 19.6 1.1
-6 -3 6 19.3 1.3
-6 -3 6 17.1 1.1
-6 3 -6 20.6 1.6
7 3 -6 6.2 1.6
7 -3 6 6.7 1.3
-7 3 6 9.2 1.3
7 -3 6 6.3 2.4
7 3 -6 9.7 2.1
-7 3 6 7.6 1
7 -3 -6 8.3 1.4
7 -3 -6 7.5 1.9
-7 -3 6 7.8 1.1
-7 3 -6 5.5 1.5
-7 3 -6 8 1
-7 -3 6 7.6 1.1
-8 3 6 -0.3 1.2
8 3 -6 -0.9 1.7
8 -3 6 -0.3 1.3
8 -3 6 1.7 2.7
8 3 -6 1.8 2
-8 3 6 1.1 0.9
-8 -3 6 2.6 1
8 -3 -6 1.4 2.3
-8 -3 6 1.5 0.9
-8 3 -6 1.3 0.8
-8 3 -6 0.7 1.4
8 -3 -6 1.6 1.5
0 4 -6 600.54 17.2
0 4 -6 629.34 16.9
0 -4 6 620.24 16.8
0 -4 6 613.14 17.7
-1 4 6 24.4 1.9
1 -4 6 25.8 1.8
1 -4 6 26 0.9
1 4 -6 26.5 1.4
1 4 -6 26.5 1
1 -4 -6 24.1 1.6
-1 4 -6 28.4 1.3
-1 -4 6 27.3 1.7
1 -4 -6 25.6 2.4
-1 -4 6 26.8 0.9
-2 4 6 115.99 5.3
2 -4 6 108.09 4.2
-2 4 6 112.59 3.2
2 4 -6 104.69 3.7
-2 4 6 110.79 3.2
2 4 -6 109.79 3.4
2 -4 6 107.19 3.2
2 -4 -6 113.59 6
2 -4 -6 115.89 3.6
2 -4 -6 118.59 4.9
-2 4 -6 110.39 3.6
-2 -4 6 106.39 3.7
-2 -4 6 112.99 3.3
2 -4 -6 111.59 3.3
-3 4 6 8.2 0.6
3 4 -6 9.6 0.8
3 -4 6 7.1 1.3
-3 4 6 9.3 0.5
3 4 -6 11.3 1.1
3 -4 -6 8.8 0.6
-3 4 -6 9.6 0.8
-3 -4 6 10.2 0.5
3 -4 -6 10.3 1
-3 -4 6 10.4 0.9
-4 4 6 18.6 1
4 4 -6 17.6 1.4
-4 4 6 17.5 0.9
4 -4 6 20.6 1.9
4 4 -6 19.2 1.1
4 -4 -6 17.4 0.9
4 -4 -6 18.3 1.4
-4 -4 6 19.4 1.1
-4 4 -6 18.6 0.9
-4 4 -6 19 1.2
-4 -4 6 17.4 0.8
5 4 -6 7.6 1
5 4 -6 7.4 1.1
5 -4 6 5.7 1.3
-5 4 6 4.7 0.6
5 -4 6 6.9 0.7
-5 4 6 4.7 0.6
-5 -4 6 6.6 0.8
5 -4 -6 5.3 1.1
-5 4 -6 5.9 0.6
-5 4 -6 6.4 0.9
-5 -4 6 6.3 0.6
5 -4 -6 5.7 0.7
-6 4 6 9.5 0.9
6 -4 6 11.6 1.8
-6 4 6 12.4 1.3
6 4 -6 10.5 2
6 4 -6 10.1 1.2
6 -4 6 11.7 1.2
-6 -4 6 10.7 1
-6 4 -6 9.5 0.8
6 -4 -6 10.3 1.2
-6 4 -6 10.9 1.4
-6 -4 6 9.5 0.9
6 -4 -6 9.9 1.5
7 -4 6 9.7 2.9
7 4 -6 13.3 2.5
-7 4 6 10.5 1.1
7 4 -6 11.5 1.8
-7 4 6 14.4 1.6
7 -4 6 12 1.4
7 -4 -6 9.8 2.1
-7 -4 6 13.7 1.3
-7 4 -6 11.5 1.1
7 -4 -6 11.7 1.5
-7 4 -6 9.2 1.6
-7 -4 6 10.6 1.2
0 5 -6 22.8 0.9
0 -5 6 22.5 0.8
0 -5 6 21.9 1.9
0 5 -6 22.5 1.2
1 -5 6 3.7 1.1
1 5 -6 4 0.7
1 5 -6 3.3 0.4
1 -5 6 3.5 0.3
-1 -5 6 4.5 1
-1 5 -6 4.4 0.4
-1 -5 6 3.6 0.3
-1 5 -6 4.5 0.6
2 5 -6 5.6 0.6
2 -5 6 2.9 1.1
2 -5 6 6.1 0.4
2 5 -6 6.4 0.9
-2 -5 6 5.5 0.4
-2 -5 6 7 0.9
-2 5 -6 6.8 0.7
-3 5 6 43.2 1.4
3 5 -6 40.2 1.6
3 -5 6 39.7 2.6
-3 5 6 42.4 1.5
3 5 -6 41.2 2
-3 -5 6 44.1 1.9
3 -5 -6 41.2 2
3 -5 -6 42.4 1.5
-3 -5 6 42.9 1.4
-3 5 -6 41.4 1.8
4 -5 6 7.4 1.5
-4 5 6 7.7 0.6
4 5 -6 5.2 1
4 5 -6 6.8 0.8
-4 5 6 6.9 0.7
-4 5 -6 5.7 0.8
-4 -5 6 6.5 0.8
-4 -5 6 7.1 0.6
4 -5 -6 5.5 1
4 -5 -6 6.9 0.6
5 -5 6 1.3 0.7
5 5 -6 1.2 0.6
-5 5 6 1 0.5
-5 5 6 0.7 0.4
5 -5 6 1.8 1.1
5 5 -6 1.3 1.1
5 -5 -6 1.8 0.5
-5 -5 6 0.9 0.4
-5 5 -6 1.7 0.9
-5 -5 6 -0.1 0.5
5 -5 -6 0.1 0.7
-5 5 -6 1.2 0.4
6 5 -6 12.7 2
6 5 -6 12.9 1.5
-6 5 6 13.8 1.4
-6 5 6 11.9 1
6 -5 6 13.8 1.3
6 -5 6 10.2 2.3
6 -5 -6 10.7 1.2
-6 5 -6 11.4 1
-6 5 -6 12.5 1.7
-6 -5 6 12.1 1
-6 -5 6 15.3 1.2
6 -5 -6 13.1 1.7
7 5 -6 4.4 1.5
7 -5 6 4.8 1.3
7 5 -6 2.3 2.1
-7 5 6 3.7 1.3
7 -5 6 3.7 2.6
-7 5 6 2 0.8
-7 5 -6 1.9 1.6
-7 -5 6 2.6 0.8
-7 -5 6 2.4 0.9
7 -5 -6 1.5 1.1
-7 5 -6 2.6 0.8
7 -5 -6 -0.1 1.9
0 6 -6 172.38 5.2
0 -6 6 147.79 5.6
0 -6 6 158.38 4.6
0 6 -6 161.78 4.7
1 -6 6 5.1 1.2
1 -6 6 5 0.4
1 6 -6 5.3 0.8
1 6 -6 5.1 0.5
-1 -6 6 5.5 1.1
-1 -6 6 5.6 0.4
-1 6 -6 6.4 0.5
-1 6 -6 6.3 0.8
2 6 -6 19.1 1
2 -6 6 21.3 2.2
2 -6 6 21.1 0.9
2 6 -6 21.4 1.5
-2 -6 6 20.7 0.8
-2 -6 6 17.6 1.5
-2 6 -6 21.1 1.3
3 -6 6 3 1.2
3 6 -6 3.9 0.8
3 6 -6 1.5 0.4
-3 6 -6 2.3 0.6
-3 -6 6 1.9 0.6
-3 -6 6 1.3 0.3
4 -6 6 5.7 1.4
4 6 -6 5.6 0.7
4 6 -6 4.9 1
-4 6 -6 5.5 0.9
-4 -6 6 5.5 0.8
-4 -6 6 5.2 0.5
5 6 -6 1 0.6
5 -6 6 4.8 1.6
5 -6 6 1 0.7
5 6 -6 4 1.6
-5 -6 6 1.1 0.4
5 -6 -6 3.6 1.8
-5 6 -6 3.1 1.1
-5 -6 6 2.7 0.6
6 -6 6 6.7 2.7
6 -6 6 8.3 1.2
6 6 -6 9.2 1.4
-6 6 6 9.1 0.9
-6 6 6 10.3 1.3
6 6 -6 10.2 2.3
-6 -6 6 10.2 1.1
-6 -6 6 8.7 0.9
6 -6 -6 8.6 1.7
-6 6 -6 10.8 1.7
6 -6 -6 7.9 1.1
-7 6 6 3.1 0.9
7 -6 6 2.2 1.3
7 -6 6 2.3 3.1
-7 6 6 1 1.2
7 -6 -6 3.1 1.2
7 -6 -6 3.6 2.2
-7 6 -6 4.3 1.7
0 7 -6 39.1 1.5
0 -7 6 39.3 1.3
0 -7 6 35.4 2.4
0 7 -6 39.6 1.9
1 7 -6 19.4 1
1 -7 6 21.6 2.2
1 7 -6 19.4 1.4
1 -7 6 19.6 0.9
-1 -7 6 20.1 1.9
-1 7 -6 19.9 0.9
-1 -7 6 19.3 0.8
-1 7 -6 22.4 1.3
2 7 -6 34.5 1.9
2 -7 6 36.2 1.3
2 7 -6 33.5 1.5
2 -7 6 29.6 2.7
-2 7 -6 33.3 1.4
-2 -7 6 33.8 2
-2 -7 6 34.4 1.2
-2 7 -6 36.6 1.7
3 7 -6 0.9 0.8
3 7 -6 2.2 0.5
3 -7 6 1.1 1.1
-3 -7 6 2.3 0.3
-3 7 -6 2.1 0.6
-3 -7 6 1.7 0.7
4 7 -6 3.8 1.3
4 -7 6 6.1 1.7
4 7 -6 4.7 0.7
-4 -7 6 4.3 0.7
-4 7 -6 4.2 1.2
-4 -7 6 3.5 0.4
5 -7 6 3.4 1
5 -7 6 3.1 2
-5 7 -6 3.5 1.4
6 -7 6 2 2.9
6 -7 6 1.5 1.1
-6 7 -6 3.1 1.5
0 8 -6 64.89 2.2
0 8 -6 61.39 2.6
0 -8 6 66.59 3.3
0 -8 6 62.69 2
1 -8 6 10.8 1.8
1 8 -6 14 0.9
1 8 -6 13.8 1.3
1 -8 6 13.3 0.7
-1 8 -6 16.6 1.4
-1 8 -6 15.8 0.9
-1 -8 6 12.2 1.6
-1 -8 6 15.3 0.7
2 -8 6 0.7 0.3
2 -8 6 2.9 1.3
-2 8 -6 1.5 0.4
-2 8 -6 0.6 0.6
-2 -8 6 1.1 1.3
3 -8 6 1.2 1.4
-3 8 -6 2.4 1
4 -8 6 5 1.7
-4 8 -6 5.5 1.4
5 -8 6 -0.2 2.3
5 -8 6 1.2 1
-5 8 -6 3.5 1.6
6 -8 6 0.2 1.1
6 -8 6 0.2 3.2
-6 8 -6 0.7 1.5
1 -9 6 0.5 1.2
2 -9 6 4.1 1.5
-2 9 -6 8 0.8
-2 9 -6 7 1.3
3 -9 6 11.9 2.2
-3 9 -6 10.8 1
-3 9 -6 11.2 1.6
4 -9 6 -1.9 2.1
-4 9 -6 -0.1 0.6
-4 9 -6 -1.8 1.2
5 -9 6 2.4 1
5 -9 6 1.3 3
-5 9 -6 1.1 1.5
0 0 -7 2.5 1.4
0 0 7 0.9 0.3
0 0 -7 0.4 0.3
0 0 7 1.6 1.2
-1 0 -7 391.36 13
-1 0 -7 384.26 11.3
1 0 7 391.96 13.7
1 0 -7 373.76 11.9
-1 0 7 394.36 11.7
-1 0 7 392.26 12.6
1 0 -7 367.26 13.3
2 0 -7 579.64 17.8
2 0 7 540.05 18.9
2 0 -7 587.74 15.7
-2 0 7 578.24 15.7
-2 0 7 569.64 17.8
-2 0 7 586.34 17.5
-2 0 -7 572.74 18.3
2 0 7 552.24 16.8
2 0 -7 567.94 18.7
-2 0 7 552.14 15.5
2 0 -7 565.74 15.7
3 0 7 10.1 0.9
-3 0 7 8.4 0.5
3 0 7 8.8 2.1
-3 0 -7 8 0.6
3 0 7 8.4 0.5
3 0 -7 8.4 0.6
3 0 -7 8.4 0.7
-3 0 7 8.2 0.6
-3 0 -7 7.6 0.4
3 0 7 7.9 1.4
-3 0 -7 9.6 2.1
4 0 -7 36.1 1.5
-4 0 -7 36 1.4
4 0 7 34.7 1.3
-4 0 7 34.9 1.3
-4 0 7 34.7 1.4
-4 0 -7 36.3 1.3
4 0 -7 36.2 1.6
4 0 7 36.1 1.8
5 0 7 0.8 0.7
-5 0 -7 1.5 0.3
-5 0 7 1.8 0.4
5 0 -7 2 0.5
5 0 -7 1.3 0.6
5 0 7 1.8 0.4
-5 0 -7 1.6 0.4
-5 0 7 1.2 0.4
6 0 -7 15.7 1.5
-6 0 -7 15.7 0.9
-6 0 -7 15.8 1
6 0 -7 16.5 1.5
-6 0 7 13.7 1.1
-6 0 7 15.2 1
6 0 7 16.4 1.7
6 0 7 14.8 1.1
-7 0 7 14.6 1.4
7 0 7 13.4 1.4
-7 0 -7 13.5 1
-7 0 -7 15 1.4
7 0 -7 15.3 1.9
7 0 7 16.5 2.2
7 0 -7 11.5 1.7
-7 0 7 10.9 1.1
-8 0 -7 16.4 1.3
-8 0 7 14.5 1.5
8 0 7 15.1 2.8
8 0 -7 20.2 2.7
-8 0 -7 20.2 1.7
8 0 -7 16.8 2.2
-8 0 7 16.9 1.6
8 0 7 16.5 1.8
0 1 -7 258.77 8.2
0 -1 -7 264.07 7.8
0 1 -7 255.07 10.8
0 -1 7 274.57 11.1
0 1 7 262.27 7.7
0 -1 -7 264.37 9.2
0 1 7 267.47 8.6
0 -1 7 265.87 8.2
-1 1 7 684.83 19.5
-1 1 7 662.03 19.7
-1 -1 -7 671.53 18.8
1 1 -7 668.73 19.9
-1 -1 -7 673.93 19.9
1 -1 7 694.53 22.8
1 1 -7 677.53 22.5
1 -1 -7 673.13 20.7
-1 1 -7 698.73 22.2
1 -1 -7 686.63 20
-1 -1 7 666.43 21.7
1 1 7 698.93 20.9
1 1 7 681.33 19.2
-1 1 -7 671.03 19.6
-1 -1 7 705.83 20
2 -1 7 90.59 3.9
2 1 -7 93.89 5.7
2 -1 7 92.59 5.8
2 1 -7 90.59 2.8
-2 1 7 88.79 2.7
2 -1 7 89.79 3.2
-2 1 7 92.39 2.8
-2 -1 -7 93.19 4.4
2 1 -7 86.79 4.4
-2 1 7 97.39 4.3
-2 1 7 97.69 4.3
2 1 -7 94.19 2.9
2 -1 -7 87.49 4.4
-2 1 -7 86.49 2.6
-2 1 -7 94.79 5.4
2 -1 -7 97.59 2.7
-2 1 -7 87.19 2.8
-2 -1 7 99.59 2.9
2 -1 -7 88.29 2.8
2 -1 -7 102.59 4.9
2 1 7 85.79 4.7
-2 -1 7 88.59 2.7
2 1 7 85.29 3.6
-2 -1 7 92.79 4.2
-2 -1 7 92.99 4.8
-3 -1 -7 244.38 6.8
-3 -1 -7 242.68 6.8
3 1 -7 238.28 7
-3 1 7 230.68 6.9
3 1 -7 244.98 7
3 -1 7 252.87 7.5
-3 -1 -7 250.87 9.5
-3 1 7 239.28 6.8
-3 1 -7 233.98 6.9
3 -1 -7 242.68 6.9
3 1 7 228.98 9.9
3 1 7 245.28 8.6
3 1 7 240.98 7.1
-3 -1 7 243.08 7
-3 1 -7 244.48 6.8
3 -1 -7 240.58 7
3 1 7 246.88 6.7
-3 -1 7 238.38 6.8
4 -1 7 130.49 4.6
-4 1 7 127.89 3.9
-4 -1 -7 130.39 3.8
4 1 -7 125.19 4.1
-4 1 7 129.39 3.9
4 1 -7 135.69 4.2
4 -1 7 126.99 3.8
-4 -1 -7 128.19 3.9
-4 -1 7 128.79 4
4 -1 -7 130.79 4
-4 -1 7 127.99 3.9
4 1 7 132.39 3.9
4 -1 -7 127.99 4.2
-4 1 -7 132.89 3.9
-4 1 -7 129.29 4
4 1 7 131.79 4.3
-5 -1 -7 65.89 2.2
5 -1 7 65.49 3
-5 1 7 61.99 2.2
-5 -1 -7 59.69 2.1
5 1 -7 59.79 2.5
5 1 -7 63.69 2.4
-5 1 7 65.99 2.3
5 -1 7 64.69 2.2
5 1 7 62.89 2.7
-5 -1 7 65.09 2.2
5 -1 -7 60.69 2.6
-5 1 -7 62.29 2.3
5 -1 -7 60.89 2.3
-5 1 -7 62.49 2.1
-5 -1 7 65.39 2.3
5 1 7 65.19 2.2
-6 1 7 2.3 0.5
6 1 -7 3 0.8
-6 1 7 4.1 0.8
6 -1 7 2.3 0.9
6 -1 7 3.5 0.7
-6 -1 -7 2.7 0.5
-6 -1 -7 2.9 0.5
6 1 -7 3.7 1
-6 -1 7 3.4 0.6
6 -1 -7 2.3 0.9
-6 1 -7 1.9 0.7
6 1 7 1.9 0.6
6 1 7 1.9 0.9
-6 1 -7 2.3 0.4
-6 -1 7 2 0.6
6 -1 -7 1.9 0.8
-7 1 7 6.9 1.2
7 1 -7 4.7 1.5
7 1 -7 4.5 1.4
-7 -1 -7 6.3 1
-7 1 7 6.2 0.9
7 -1 7 6.6 1.9
-7 -1 -7 5.7 0.7
7 -1 7 7.3 1.2
7 -1 -7 7.4 1.7
-7 -1 7 5.9 0.9
-7 1 -7 7.9 1.3
7 1 7 7.6 1.2
7 -1 -7 9.9 1.7
-7 1 -7 6.7 0.8
7 1 7 4.9 1.5
-7 -1 7 6.8 1.2
8 -1 7 4.8 2.4
8 -1 7 7.6 1.5
8 1 -7 6.1 2
8 1 -7 7 2.2
-8 1 7 8.1 1.4
-8 1 7 6 1.1
-8 -1 7 7.5 1.2
8 -1 -7 6.9 2
-8 1 -7 7.5 1
-8 -1 7 7.8 1.4
-8 1 -7 9.3 1.5
8 -1 -7 3.2 1.9
0 2 -7 348.47 14
0 -2 7 334.97 9.4
0 2 -7 339.37 9.5
0 -2 7 334.77 10.1
0 2 -7 332.97 9.8
0 -2 7 352.26 10.6
0 -2 7 357.06 14.2
0 -2 -7 353.96 9.8
0 -2 -7 337.07 10.3
0 2 7 345.17 9.7
0 2 -7 336.77 10.6
0 2 7 354.36 9.6
1 2 -7 197.38 9.9
-1 2 7 199.98 6.4
1 -2 7 208.78 6.2
1 -2 7 192.98 5.5
-1 2 7 196.48 6.5
1 2 -7 190.58 5.6
1 -2 7 210.58 10.2
-1 -2 -7 196.08 5.9
-1 -2 -7 197.58 5.7
1 2 -7 198.68 5.9
1 2 -7 194.68 7
1 2 7 198.98 5.8
-1 -2 7 201.78 6.8
1 -2 -7 190.28 6.8
-1 -2 7 194.08 9
-1 2 -7 194.98 9.2
-1 -2 7 192.18 5.4
-1 2 -7 197.98 5.7
1 2 7 191.18 6.5
1 -2 -7 193.68 6.8
-1 -2 7 194.38 5.9
-1 2 -7 205.88 6.7
2 2 -7 83.69 2.6
2 2 -7 85.19 2.8
-2 -2 -7 85.39 3.6
-2 2 7 82.59 2.5
2 -2 7 77.69 3.1
2 2 -7 86.19 4.4
2 2 -7 82.29 6.2
-2 2 7 86.89 4.1
-2 2 7 81.59 2.5
-2 2 7 85.09 3.8
2 -2 7 82.29 2.4
2 -2 7 85.19 6.3
-2 -2 7 83.59 2.8
-2 -2 7 85.69 4.1
-2 2 -7 81.39 5.5
-2 2 -7 88.79 2.7
-2 -2 7 85.99 2.5
-2 -2 7 78.79 5
2 2 7 82.19 4.1
2 -2 -7 80.69 4.1
-2 2 -7 86.39 3.8
2 2 7 82.89 3.4
2 -2 -7 85.79 4.4
2 -2 -7 85.39 2.5
2 -2 -7 85.69 2.7
-3 -2 -7 9.4 1.6
-3 -2 -7 8.3 0.4
3 2 -7 8.4 0.8
-3 -2 -7 8.2 0.5
3 -2 7 7.5 1
3 2 -7 9.4 0.7
-3 2 7 6.8 0.5
-3 2 7 7.2 0.5
-3 -2 -7 8.7 1.2
3 2 7 6.4 1.3
-3 2 -7 7.3 0.5
3 2 7 9.2 0.8
-3 2 -7 9.2 0.8
-3 -2 7 7.4 0.5
3 -2 -7 9.7 0.8
3 2 7 7.6 0.4
3 2 7 7.5 1.8
3 -2 -7 8 0.6
-3 -2 7 9.3 0.8
4 2 -7 44.6 1.9
-4 2 7 44.8 1.6
4 2 -7 43.2 1.9
4 -2 7 46.1 2.4
-4 -2 -7 45.6 1.5
-4 -2 -7 43.5 1.5
4 -2 7 47.3 1.6
-4 2 7 44.5 1.6
-4 2 -7 45.6 1.6
4 -2 -7 49.3 1.7
4 2 7 46.9 1.6
4 -2 -7 43.5 1.9
4 2 7 42.9 1.9
-4 -2 7 45.8 1.8
-4 -2 7 47.1 1.6
-4 2 -7 45.1 1.8
5 -2 7 26.1 1.2
5 2 -7 23.2 1.5
5 -2 7 22.4 2
5 2 -7 24.2 1.5
-5 2 7 27.3 1.2
-5 -2 -7 23.7 1.1
-5 -2 -7 26.5 1.1
-5 2 7 26.6 1.2
5 2 7 25.8 1.6
-5 -2 7 26.6 1.2
-5 2 -7 26.4 1.1
5 -2 -7 27.6 1.3
5 2 7 26.7 1.2
5 -2 -7 26.2 1.7
-5 -2 7 28.6 1.4
-5 2 -7 28.4 1.4
-6 2 7 8.7 1
6 -2 7 11.3 1.7
-6 2 7 10 0.9
6 2 -7 9.6 1.2
6 2 -7 9.1 1.4
6 -2 7 8.5 1
-6 -2 7 9.7 0.9
6 -2 -7 7.4 1.2
6 -2 -7 10.5 1.2
-6 2 -7 9.2 0.8
-6 -2 7 8.7 0.9
-6 2 -7 8.5 1.1
7 2 -7 2.9 1.5
7 -2 7 1.2 1.9
7 -2 7 2.1 1.1
-7 2 7 1.7 1.1
7 2 -7 1.1 1.6
-7 2 7 3.1 0.8
-7 -2 7 2.9 1.1
-7 -2 7 2.3 0.8
-7 2 -7 4.1 0.7
7 -2 -7 2.7 1.5
7 -2 -7 4.5 1.5
-7 2 -7 1.2 1.1
-8 2 7 5.6 1.3
8 -2 7 6 2.7
-8 2 7 2.4 1
8 -2 7 4.5 1.4
8 2 -7 1.7 2.1
8 2 -7 4.1 1.8
-8 2 -7 5.7 1.5
-8 -2 7 5.2 1.3
8 -2 -7 4.3 1.7
8 -2 -7 7.8 2.1
-8 -2 7 4.1 1.1
-8 2 -7 4.5 0.9
0 -3 7 100.69 7.3
0 -3 7 93.19 3.6
0 3 -7 99.79 4.1
0 -3 7 98.69 4.1
0 3 -7 97.39 2.9
0 3 -7 101.89 3.2
0 -3 7 96.49 2.8
0 3 -7 89.89 6.6
-1 3 7 84.39 3.1
1 3 -7 80.69 2.5
1 -3 7 75.89 6.4
-1 3 7 85.89 3.4
1 3 -7 77.99 2.8
1 -3 7 80.69 3.2
1 3 -7 86.09 4
1 3 -7 74.79 6.2
-1 -3 7 90.59 3.8
1 -3 -7 84.99 3.8
-1 -3 7 86.89 6.1
-1 3 -7 84.79 6
1 -3 -7 83.09 3.4
-1 3 -7 79.29 2.7
-1 -3 7 83.49 3.1
-1 -3 7 79.79 2.4
-1 3 -7 84.39 3.7
-2 3 7 236.68 8
-2 3 7 228.08 6.5
2 3 -7 227.98 6.6
2 3 -7 240.98 7
2 -3 7 225.28 7.4
-2 3 7 231.18 6.5
2 -3 7 227.48 6.5
-2 3 7 242.68 8.5
-2 -3 7 235.88 6.5
2 -3 -7 238.78 6.8
2 -3 -7 243.38 8.5
2 -3 -7 226.08 9
-2 3 -7 234.48 6.8
-2 -3 7 226.38 7
2 -3 -7 231.38 6.5
-3 3 7 77.49 2.4
3 3 -7 77.99 2.6
3 -3 7 74.39 3.2
3 3 -7 71.39 2.7
-3 3 7 76.79 2.4
3 -3 -7 79.49 2.8
3 -3 -7 76.29 2.4
-3 3 -7 78.99 2.4
-3 -3 7 77.19 2.4
-3 -3 7 80.49 2.7
-3 3 -7 78.39 2.7
4 3 -7 44.7 1.8
-4 3 7 41.8 1.6
-4 3 7 45.5 1.6
4 3 -7 39.5 1.9
4 -3 7 41.4 2.5
-4 3 -7 45.5 1.8
4 -3 -7 45 1.7
-4 -3 7 44.1 1.6
-4 3 -7 45.6 1.6
4 -3 -7 45.6 2.1
-4 -3 7 44.3 1.8
5 -3 7 21.3 1.1
5 -3 7 21.8 2.1
-5 3 7 20.9 1.1
5 3 -7 23.8 1.4
5 3 -7 21.3 1.5
-5 3 7 20.1 1
-5 -3 7 25.5 1.3
-5 3 -7 22.3 1
-5 -3 7 23.6 1.1
-5 3 -7 21.1 1.3
5 -3 -7 20.8 1.2
5 -3 -7 21.9 1.6
6 -3 7 1.9 0.9
6 3 -7 3 0.8
6 3 -7 2 1.3
-6 3 7 2 0.8
-6 3 7 2.4 0.5
6 -3 7 2.9 1.3
-6 -3 7 1 0.6
-6 3 -7 2.5 0.5
6 -3 -7 1 0.8
6 -3 -7 2 0.9
-6 -3 7 2.4 0.6
-6 3 -7 0.7 1
-7 3 7 0.4 0.8
7 3 -7 1.2 1.9
7 3 -7 0.6 1.3
7 -3 7 1.1 2.3
-7 3 7 0.7 1
7 -3 7 0.6 1.1
-7 -3 7 0.9 0.8
7 -3 -7 0.2 1.2
-7 3 -7 0.5 0.6
-7 3 -7 0.6 1.3
7 -3 -7 1.3 1.6
-7 -3 7 1.1 0.9
8 -3 7 -0.6 1.4
8 -3 7 2.4 3.3
8 3 -7 -0.8 2.2
-8 3 7 0 1.2
8 3 -7 0.2 1.9
-8 3 7 -0.3 1
8 -3 -7 -0.7 1.7
-8 -3 7 0.8 1.1
-8 3 -7 0.4 1.5
-8 3 -7 0.5 0.9
-8 -3 7 -0.4 1
8 -3 -7 -3.3 2.1
0 4 -7 1.7 0.5
0 -4 7 1.9 0.9
0 4 -7 1.7 0.3
0 -4 7 1.4 0.2
1 -4 7 36.8 2.2
1 -4 7 39.6 1.3
1 4 -7 39.8 1.4
1 4 -7 34.8 1.7
-1 -4 7 39 1.3
-1 4 -7 41.2 1.4
-1 4 -7 41.8 1.7
-1 -4 7 40.8 2.1
2 4 -7 38.6 1.9
2 -4 7 40 1.3
2 4 -7 40.9 1.5
-2 4 7 41.4 1.3
-2 4 7 40.3 1.3
2 -4 7 35.7 2.2
-2 4 -7 41.8 1.7
-2 -4 7 41.4 1.4
2 -4 -7 42.5 1.4
-2 -4 7 42.5 1.9
2 -4 -7 38.4 1.6
-3 4 7 21.9 0.9
3 4 -7 23.8 1.1
3 -4 7 17.4 1.9
-3 4 7 22.3 0.9
3 4 -7 21.6 1.4
3 -4 -7 21.4 0.9
-3 4 -7 18.6 1.2
-3 -4 7 21.2 0.9
3 -4 -7 20.8 1.2
-3 -4 7 22 1.2
4 4 -7 3.7 0.6
4 4 -7 3.8 0.8
-4 4 7 3.6 0.5
4 -4 7 4.4 1.3
-4 4 7 4.1 0.5
-4 -4 7 3.8 0.6
4 -4 -7 3.2 0.7
-4 -4 7 3.8 0.4
-4 4 -7 4.5 0.5
-4 4 -7 2.6 0.6
4 -4 -7 4.9 0.5
-5 4 7 2.5 0.5
5 -4 7 2.9 0.6
5 4 -7 2 0.6
5 -4 7 2.3 1.2
-5 4 7 2 0.5
5 4 -7 1.3 0.9
-5 4 -7 1.7 0.4
5 -4 -7 3 0.9
-5 4 -7 1.1 0.7
-5 -4 7 2.5 0.5
-5 -4 7 1.6 0.5
5 -4 -7 2.7 0.5
6 4 -7 30.2 2.6
6 -4 7 26.3 2.7
6 -4 7 34.3 1.9
-6 4 7 32.3 1.5
-6 4 7 34.2 1.9
6 4 -7 30.3 1.9
-6 4 -7 36.5 2.4
-6 -4 7 33 1.7
-6 4 -7 35.8 1.5
6 -4 -7 33.1 1.9
-6 -4 7 34.3 1.7
6 -4 -7 29 2.2
-7 4 7 -0.2 0.7
7 -4 7 0.7 2.5
7 4 -7 -1.4 2
7 4 -7 0.7 1.4
-7 4 7 2.5 1.1
7 -4 7 0.4 1.1
7 -4 -7 0.6 1.1
-7 4 -7 2.8 1.5
7 -4 -7 2.7 1.7
-7 -4 7 0 0.8
-7 4 -7 0.4 0.7
-7 -4 7 0.4 0.8
0 -5 7 0.1 0.1
0 5 -7 -0.3 0.4
0 5 -7 0.1 0.2
0 -5 7 -0.1 0.8
1 -5 7 32.1 1.1
1 5 -7 32.3 1.2
1 -5 7 31.5 2.2
1 5 -7 30.6 1.6
-1 5 -7 34.6 1.3
-1 5 -7 34 1.6
-1 -5 7 34.4 2
-1 -5 7 34.4 1.2
2 5 -7 1.2 0.7
2 5 -7 0.5 0.3
2 -5 7 0.6 0.2
2 -5 7 -0.6 0.9
-2 -5 7 0.4 0.2
-2 -5 7 1.1 0.6
-2 5 -7 1.3 0.4
3 -5 7 22.4 2.2
3 5 -7 17.6 1.5
3 5 -7 20.5 1.1
-3 -5 7 21.1 0.9
-3 5 -7 18.4 1.2
-3 -5 7 20.9 1.2
4 5 -7 30.3 1.9
4 5 -7 33.6 1.6
4 -5 7 34.6 2.9
-4 5 7 36.3 1.3
-4 5 7 36.1 1.4
4 -5 -7 35.9 2
-4 5 -7 37.7 1.8
-4 -5 7 34.7 1.3
-4 -5 7 38.7 1.7
4 -5 -7 35 1.4
5 -5 7 21.5 1.3
-5 5 7 20.4 1
-5 5 7 21.9 1.2
5 -5 7 16.4 2.1
5 5 -7 20 1.3
5 5 -7 20 2
-5 5 -7 21.7 1.1
5 -5 -7 21.9 1.2
5 -5 -7 22.1 1.9
-5 5 -7 23.6 1.7
-5 -5 7 21.4 1.1
-5 -5 7 21 1.3
-6 5 7 0.9 0.8
-6 5 7 1 0.5
6 -5 7 2.3 1
6 5 -7 0.4 0.9
6 5 -7 -2 1.7
6 -5 7 1.9 2
6 -5 -7 0.5 0.9
-6 5 -7 1.4 0.6
-6 -5 7 1.1 0.6
-6 5 -7 0.5 1.3
-6 -5 7 0.4 0.7
6 -5 -7 1.4 0.8
-7 5 7 0.6 1.1
7 5 -7 0.3 1.4
-7 5 7 1 0.8
7 -5 7 -0.2 1.2
7 -5 7 2.8 2.9
7 5 -7 -0.7 2.2
-7 5 -7 0.3 0.8
7 -5 -7 0.5 1.1
-7 5 -7 -2 1.5
-7 -5 7 2 1
7 -5 -7 2.8 2
-7 -5 7 -0.1 0.8
0 -6 7 1.1 1
0 -6 7 1.9 0.3
0 6 -7 2.1 0.4
0 6 -7 2.7 0.7
1 6 -7 43.7 2
1 6 -7 45.1 1.6
1 -6 7 44.4 1.5
1 -6 7 40.4 2.7
-1 -6 7 49.1 1.5
-1 6 -7 46.9 1.6
-1 -6 7 41.1 2.3
-1 6 -7 45.5 2
2 -6 7 0.5 0.2
2 6 -7 -0.9 0.5
2 -6 7 -0.5 0.8
2 6 -7 0.3 0.3
-2 -6 7 0.4 0.7
-2 -6 7 0.3 0.2
-2 6 -7 -0.1 0.4
3 6 -7 6.4 1.1
3 6 -7 5.8 0.7
3 -6 7 3.3 1.1
-3 -6 7 5 0.4
-3 6 -7 5.3 0.8
-3 -6 7 4.6 0.8
4 6 -7 12.4 1.1
4 6 -7 10.6 1.4
4 -6 7 13.8 2
-4 6 -7 16.5 1.5
-4 -6 7 12.9 0.7
-4 -6 7 14.7 1.3
5 6 -7 2.8 1.7
5 -6 7 2.8 1.5
5 6 -7 1.5 0.7
5 -6 7 2.4 0.9
-5 6 -7 3.4 1.3
-5 -6 7 3.9 0.7
-5 -6 7 2.3 0.5
6 6 -7 5 1.3
6 -6 7 7.6 1.3
6 6 -7 4.5 2.2
6 -6 7 4.2 2.4
-6 6 -7 3.9 1.6
-6 -6 7 5.7 0.8
-6 -6 7 6.1 1
7 6 -7 4.8 2.5
7 -6 7 4.5 3.3
7 -6 7 4.5 1.4
7 6 -7 2.2 1.6
-7 -6 7 2 0.8
-7 6 -7 2.1 1.7
-7 -6 7 3.4 1.1
0 7 -7 5 0.5
0 -7 7 6 0.5
0 7 -7 7.1 1
0 -7 7 5.9 1.3
1 -7 7 14 0.7
1 7 -7 15.3 1.4
1 -7 7 18.3 2.1
1 7 -7 14.7 0.9
-1 -7 7 16.7 1.7
-1 7 -7 14.2 0.8
-1 7 -7 14 1.2
-1 -7 7 14.2 0.7
2 7 -7 23.5 1.2
2 -7 7 27.2 2.7
2 7 -7 23.2 1.6
2 -7 7 25.9 1.1
-2 7 -7 23.5 1.4
-2 7 -7 24.2 1.1
-2 -7 7 27.7 1
-2 -7 7 23.9 1.7
3 7 -7 1.1 0.5
3 -7 7 4 1.4
3 7 -7 1.4 0.8
-3 -7 7 1.7 0.3
-3 -7 7 1.6 0.7
-3 7 -7 1.2 0.8
4 -7 7 9.5 1.9
4 7 -7 10.3 1
4 7 -7 5.9 1.6
-4 7 -7 7.6 1.3
-4 -7 7 8.6 0.7
-4 -7 7 8 1
5 -7 7 7.9 1.1
5 7 -7 9.2 2
5 -7 7 8.3 2.5
5 7 -7 9.6 1.2
-5 -7 7 9.5 1
-5 7 -7 10.8 1.6
-5 -7 7 7.3 0.7
6 -7 7 3.6 3.1
6 -7 7 0.9 1.1
-6 7 -7 1.7 1.5
0 -8 7 8.6 0.6
0 8 -7 8.4 1
0 8 -7 8.7 0.8
0 -8 7 10.3 1.6
1 -8 7 27.4 1.1
1 8 -7 27.5 1.7
1 8 -7 29.5 1.3
1 -8 7 22.7 2.5
-1 -8 7 21.9 2.1
-1 -8 7 27.5 1.1
-1 8 -7 26.8 1.6
-1 8 -7 26.4 1.2
2 -8 7 6.4 0.6
2 8 -7 7.7 0.8
2 8 -7 6.3 1.1
2 -8 7 5.9 1.5
-2 8 -7 5.1 1
-2 -8 7 8 1.2
-2 -8 7 6 0.5
-2 8 -7 7.9 0.7
3 -8 7 3 1.4
-3 8 -7 3 0.5
-3 8 -7 4.4 1.2
4 -8 7 2.6 1.8
-4 8 -7 5.2 1.5
5 -8 7 1.3 1
5 -8 7 1.7 2.7
-5 8 -7 4.2 1.5
6 -8 7 2.3 2.9
6 -8 7 1.3 1.2
-6 8 -7 0.9 1.6
0 -9 7 18.4 2.1
0 9 -7 18.8 2.2
0 -9 7 20.6 1.3
0 9 -7 18.9 1.3
1 -9 7 33.6 1.4
1 -9 7 25.2 2.7
-1 9 -7 34.3 2.1
-1 9 -7 31.3 1.4
2 -9 7 11.2 2.1
-2 9 -7 15.2 1
-2 9 -7 13.9 1.7
3 -9 7 2.5 1.6
-3 9 -7 3.9 0.7
-3 9 -7 3.9 1.3
4 -9 7 2.9 2.6
-4 9 -7 1.8 1.5
-4 9 -7 2.4 0.8
5 -9 7 -1 0.9
5 -9 7 -0.9 2.9
-5 9 -7 2.1 1.5
4 -10 7 1.7 3.3
-4 10 -7 1.9 2.2
-4 10 -7 1 1.1
0 0 8 328.47 9.8
0 0 8 342.27 12.2
0 0 -8 340.67 12.3
0 0 -8 312.17 9.8
-1 0 8 73.49 3.9
-1 0 -8 71.69 4.2
1 0 -8 70.49 3.3
1 0 8 73.09 4.9
1 0 -8 64.69 4.5
-1 0 -8 65.49 2.7
-1 0 8 70.99 3.1
-2 0 8 0.6 0.6
-2 0 8 0.8 0.3
2 0 8 2.2 1.3
2 0 -8 2.1 1.2
-2 0 8 1.7 1
-2 0 8 0.7 0.2
-2 0 -8 0.9 0.2
-2 0 -8 0.2 0.3
-2 0 -8 0.5 0.9
2 0 -8 0.5 0.3
2 0 -8 1.6 0.3
2 0 -8 1.6 0.9
2 0 8 1.3 0.6
2 0 8 1.4 0.6
3 0 8 17.5 1.3
-3 0 8 19.6 0.9
3 0 -8 18.9 1
-3 0 -8 19.1 0.7
-3 0 8 19.4 0.8
-3 0 -8 19.3 0.9
3 0 -8 19 0.9
-4 0 -8 15.3 0.7
4 0 -8 14.5 1
4 0 8 16 0.8
4 0 8 17.4 1.5
-4 0 -8 15.2 0.9
-4 0 8 16 0.9
-4 0 8 16 0.8
4 0 -8 16.8 1
5 0 -8 10 1
5 0 8 10.9 0.7
-5 0 -8 10.7 0.7
-5 0 8 10.6 0.8
5 0 8 12.4 1.4
-5 0 -8 8.8 0.8
5 0 -8 10.8 1.1
-5 0 8 11.1 0.8
-6 0 -8 0 0.3
6 0 -8 -0.3 0.8
-6 0 8 1 0.5
6 0 -8 0.4 0.7
6 0 8 1.3 0.9
6 0 8 -0.2 0.5
-6 0 -8 -0.2 0.4
-6 0 8 -0.4 0.6
7 0 -8 0.1 1.1
7 0 -8 -0.1 1.5
-7 0 8 -0.1 0.6
-7 0 -8 0.2 0.4
7 0 8 0.6 1.5
-7 0 -8 0.8 0.9
7 0 8 -0.1 0.9
-7 0 8 0.3 1
-8 0 8 5.6 1.2
8 0 8 8.6 1.5
-8 0 -8 6.6 1.3
-8 0 8 7.4 1.4
8 0 -8 4.1 1.9
-8 0 -8 7.3 1
8 0 8 6.9 2.5
8 0 -8 10.7 2.3
0 -1 -8 180.18 7.2
0 1 -8 175.48 6
0 1 -8 172.58 8.5
0 -1 8 179.88 8.7
0 -1 8 177.98 5.9
0 -1 -8 176.18 5.6
0 1 8 180.88 5.4
0 1 8 179.28 6.6
-1 -1 -8 787.82 22.2
-1 -1 -8 839.72 23.5
1 1 -8 796.32 23.3
-1 1 8 806.72 22.8
1 1 -8 766.72 26.1
1 1 -8 765.42 21.7
1 -1 8 810.32 26.7
-1 1 8 807.32 23.3
-1 1 -8 796.52 23
1 1 8 801.42 24.6
-1 1 -8 822.72 25.9
-1 -1 8 790.52 21.8
1 -1 -8 791.32 24.4
1 -1 -8 791.32 23.3
-1 -1 8 816.42 25.4
-1 -1 8 828.32 23.3
2 -1 8 76.19 5.5
2 1 -8 76.59 2.6
2 1 -8 77.09 4.1
-2 -1 -8 84.59 4.1
2 -1 8 73.59 3.5
-2 1 8 82.99 4
2 -1 8 76.19 2.3
2 -1 8 76.09 2.9
2 1 -8 78.59 2.4
-2 1 8 76.59 2.3
2 1 -8 72.39 5.4
-2 1 8 75.09 2.4
-2 1 8 79.99 3.8
-2 1 -8 75.19 3.4
2 -1 -8 77.99 2.4
-2 -1 8 76.69 2.5
-2 1 -8 76.49 2.2
2 -1 -8 77.29 4
2 1 8 75.49 3.2
2 1 8 72.19 4.5
2 -1 -8 78.99 2.4
-2 -1 8 77.29 3.8
2 -1 -8 73.19 4.4
-2 -1 8 72.69 4.4
-2 1 -8 76.89 2.4
-2 1 -8 73.89 4.9
-2 -1 8 76.89 2.3
3 1 -8 6.1 0.7
-3 -1 -8 6.6 0.5
3 1 -8 5.8 0.7
-3 1 8 7 0.5
3 -1 8 6.9 1
-3 1 8 6.9 0.5
-3 -1 -8 6.6 0.4
-3 -1 -8 6.5 1.6
3 1 8 8.2 0.8
3 -1 -8 6.7 0.7
3 1 8 7.7 1.4
-3 -1 8 6.6 0.5
-3 1 -8 7.2 0.4
3 1 8 6.7 0.4
-3 -1 8 6.7 0.7
3 -1 -8 6.7 0.6
3 1 8 7.7 2
-3 1 -8 5.3 0.5
-4 1 8 74.49 2.5
-4 1 8 74.69 2.4
-4 -1 -8 73.79 2.3
4 1 -8 71.89 2.7
4 1 -8 78.69 2.7
4 -1 8 72.99 3.1
4 -1 8 73.09 2.4
-4 -1 -8 76.09 2.4
4 -1 -8 76.29 2.7
-4 1 -8 73.99 2.4
-4 -1 8 75.49 2.6
4 -1 -8 78.59 2.6
-4 1 -8 72.59 2.5
-4 -1 8 76.69 2.4
4 1 8 74.49 2.9
4 1 8 74.49 2.4
-5 -1 -8 70.89 2.2
-5 1 8 68.19 2.4
5 -1 8 63.09 2.3
-5 -1 -8 67.59 2.3
5 1 -8 68.99 2.6
5 -1 8 64.69 3.1
-5 1 8 66.89 2.3
5 1 -8 67.49 2.7
5 1 8 66.79 2.3
-5 1 -8 73.39 2.5
-5 -1 8 68.09 2.5
5 -1 -8 68.39 2.8
-5 1 -8 67.79 2.3
-5 -1 8 70.99 2.4
5 1 8 68.89 2.9
5 -1 -8 64.79 2.5
-6 1 8 7.9 0.8
-6 -1 -8 9.3 0.7
-6 1 8 8.7 0.9
6 1 -8 7.3 1.3
6 -1 8 6.9 1.3
-6 -1 -8 8.5 0.8
6 -1 8 7.3 0.9
6 1 -8 6 1
-6 1 -8 9.3 0.7
6 1 8 8.4 0.8
-6 -1 8 7 0.9
6 1 8 8.2 1.4
-6 1 -8 10.4 1
6 -1 -8 6.9 1
6 -1 -8 8.4 1.2
-6 -1 8 8.4 0.8
-7 1 8 0.8 1
7 -1 8 0.1 1
-7 1 8 -0.1 0.7
7 1 -8 -0.7 1.2
7 1 -8 0.4 1.6
7 -1 8 0 1.6
-7 -1 8 -0.8 1
-7 1 -8 0 0.5
-7 1 -8 0.2 1
-7 -1 8 0.3 0.7
7 -1 -8 1.1 1.4
7 -1 -8 0.9 1.5
8 1 -8 1 1.9
8 -1 8 0.7 1.2
-8 1 8 2.3 0.9
8 1 -8 1.4 2.1
-8 1 8 3.1 1.2
8 -1 8 1.9 2.5
8 -1 -8 1.7 1.8
8 -1 -8 3.4 1.8
-8 -1 8 1.1 1.2
-8 1 -8 0.9 1.2
-8 1 -8 2.5 0.8
-8 -1 8 0.9 1
0 2 -8 20.4 3.7
0 -2 8 26 4.1
0 -2 8 9.3 1.1
0 -2 8 9.4 0.4
0 -2 -8 8.3 0.7
0 2 -8 9.4 0.5
0 2 8 8.8 0.5
0 2 -8 9.6 1.2
0 2 8 12.2 0.8
0 2 -8 15.2 1
-1 2 8 6 0.9
1 2 -8 7.4 0.8
-1 -2 -8 7.6 0.8
1 -2 8 5.7 0.3
1 -2 8 6.2 2.5
1 2 -8 5.5 1.1
-1 2 8 8 1
1 2 -8 6 0.4
-1 -2 -8 5.8 0.4
1 2 -8 10 3
1 -2 8 7.9 1.1
-1 -2 8 7.1 2.1
-1 -2 8 6.9 1.1
-1 2 -8 6.6 2.1
-1 2 -8 6.2 1
1 2 8 5.5 0.5
-1 2 -8 5.8 0.6
1 -2 -8 7.5 1.3
-1 -2 8 5.7 0.8
1 -2 -8 7.2 1.1
1 2 8 7.7 1.2
-1 -2 8 6.1 0.3
-2 2 8 37 1.2
2 2 -8 35.5 1.6
-2 2 8 39 2.5
2 -2 8 37.2 1.2
2 2 -8 37.9 1.4
-2 -2 -8 38.5 2.3
2 -2 8 34.2 1.9
-2 2 8 36.9 2.3
-2 2 8 36.5 1.2
-2 -2 8 38.1 1.2
2 -2 -8 37 2.8
-2 2 -8 40.8 1.5
2 -2 -8 37.5 1.3
2 2 8 36 2
-2 -2 8 38.5 1.6
2 -2 -8 37.5 2.8
2 -2 -8 36.9 1.4
2 2 8 36.3 2.7
-3 2 8 153.38 4.4
-3 2 8 149.79 4.5
3 2 -8 155.68 4.8
3 -2 8 147.99 5.2
-3 -2 -8 154.28 4.4
3 2 -8 154.08 4.6
3 -2 -8 159.68 4.6
-3 -2 8 155.58 4.5
-3 2 -8 155.28 4.5
-3 2 -8 156.78 4.8
3 -2 -8 159.98 4.8
-3 -2 8 157.98 4.8
4 -2 8 6.4 1.2
-4 2 8 6.7 0.6
-4 2 8 6.8 0.6
4 2 -8 4.8 0.7
4 2 -8 6.1 0.8
4 -2 -8 5.6 0.8
-4 2 -8 5 0.6
4 -2 -8 5.7 0.6
-4 2 -8 6.8 0.5
-4 -2 8 5 0.5
-4 -2 8 5.3 0.7
5 -2 8 52.29 2.8
5 2 -8 51.69 2.3
-5 2 8 50.39 1.9
-5 2 8 49 1.9
5 2 -8 49.9 2.2
5 -2 8 48.4 1.8
-5 -2 8 52.09 1.9
-5 2 -8 51.09 1.9
5 -2 -8 53.59 2.4
5 -2 -8 54.29 2.1
-5 -2 8 52.29 2.1
-5 2 -8 52.69 2.1
6 -2 8 4.7 0.9
6 2 -8 6.6 1.6
6 2 -8 7 1.1
-6 2 8 6.2 0.7
-6 2 8 6.3 0.9
6 -2 8 6.2 1.4
6 -2 -8 4.7 1
6 -2 -8 6 1
-6 -2 8 6.7 0.8
-6 2 -8 8.3 1.1
-6 -2 8 5.8 0.9
-6 2 -8 5.9 0.6
7 2 -8 0.6 1.3
-7 2 8 2.5 1.1
7 2 -8 -0.4 1.7
-7 2 8 0.3 0.7
7 -2 8 1.4 1
7 -2 8 0.1 2
-7 2 -8 1.1 1.1
-7 2 -8 1.1 0.6
7 -2 -8 0.2 1.5
7 -2 -8 1.7 1.4
-7 -2 8 0.5 1
-7 -2 8 1.6 0.8
8 2 -8 5 1.9
8 -2 8 9 3
-8 2 8 10.6 1.5
-8 2 8 7.6 1.2
8 -2 8 6.9 1.4
8 2 -8 9.1 2.5
8 -2 -8 8.3 2
-8 2 -8 8.9 1.6
-8 2 -8 8.9 1.1
8 -2 -8 9.5 2.5
-8 -2 8 7.1 1.2
-8 -2 8 8 1.4
0 3 -8 57.19 5.4
0 3 -8 63.79 3.1
0 -3 8 61.49 1.9
0 3 -8 62.69 2.3
0 -3 8 66.69 6.2
0 -3 8 62.09 3.1
0 -3 8 61.49 2.8
0 3 -8 62.99 1.9
1 3 -8 330.67 9.6
-1 3 8 339.77 10
-1 3 8 346.57 10.2
1 -3 8 327.17 10
1 -3 8 314.47 9.1
1 3 -8 328.27 9.2
-1 3 -8 343.07 9.7
1 -3 -8 339.17 10.7
-1 3 -8 341.07 9.4
1 -3 -8 327.57 10.9
-1 -3 8 335.47 10
-1 -3 8 349.57 9.4
-2 3 8 110.69 3.1
-2 3 8 108.39 4.5
2 3 -8 107.09 3.3
-2 3 8 108.99 4.9
-2 3 8 111.59 3.1
2 -3 8 103.89 4.1
2 -3 8 103.49 3.2
2 -3 -8 109.69 3.3
2 -3 -8 115.99 3.5
-2 -3 8 111.49 3.8
2 -3 -8 115.69 5.1
-2 3 -8 111.19 3.6
2 -3 -8 110.69 5.5
3 3 -8 153.58 4.7
3 -3 8 151.48 5.5
3 3 -8 150.78 5
-3 3 8 159.58 4.6
-3 3 8 163.28 4.6
-3 3 -8 162.58 5
-3 -3 8 163.48 4.7
3 -3 -8 162.08 5
3 -3 -8 160.38 4.7
-3 -3 8 163.48 5
4 3 -8 77.99 2.8
-4 3 8 80.29 2.6
-4 3 8 79.59 2.6
4 3 -8 82.19 3
4 -3 8 77.49 3.5
-4 -3 8 81.39 2.6
-4 -3 8 84.79 2.9
-4 3 -8 80.99 2.9
4 -3 -8 83.29 3.1
-4 3 -8 80.79 2.6
4 -3 -8 84.39 2.7
5 3 -8 38.2 2
5 -3 8 34.9 1.5
5 3 -8 35.3 1.8
5 -3 8 36.2 2.5
-5 3 8 37.3 1.5
-5 3 8 36.8 1.5
5 -3 -8 38.1 1.6
-5 -3 8 38 1.5
-5 -3 8 37.6 1.7
-5 3 -8 40.1 1.8
5 -3 -8 39 2.1
-5 3 -8 37.3 1.5
6 3 -8 11.9 1.3
-6 3 8 11.3 1.1
6 3 -8 10.1 1.9
-6 3 8 10.1 0.9
6 -3 8 8.8 1.6
6 -3 8 11.6 1.2
6 -3 -8 15.4 1.7
-6 -3 8 11.6 1.1
-6 -3 8 11.2 1.1
-6 3 -8 10.7 0.8
-6 3 -8 10.3 1.3
6 -3 -8 10.6 1.2
7 3 -8 2.7 2.1
7 3 -8 2.5 1.3
7 -3 8 0.7 2.4
7 -3 8 1.7 1.1
-7 3 8 2 1.1
-7 3 8 0.2 0.8
-7 3 -8 1.9 0.7
7 -3 -8 1.1 1.3
-7 -3 8 0.9 1
-7 3 -8 0.5 1.3
-7 -3 8 1.2 0.8
7 -3 -8 3.7 1.7
0 4 -8 50.89 1.7
0 -4 8 52.69 1.6
0 -4 8 49 2.5
0 4 -8 53.29 2.1
1 -4 8 43.2 2.4
1 4 -8 42.8 2
1 4 -8 47.2 1.6
1 -4 8 44.5 1.4
-1 -4 8 44.8 2.2
-1 4 -8 47.1 1.9
-1 4 -8 48.2 1.6
-1 -4 8 45.6 1.5
2 -4 8 57.49 1.8
2 4 -8 56.09 2
2 4 -8 61.79 2.4
2 -4 8 57.09 2.9
-2 4 -8 59.89 2.2
-2 -4 8 62.09 1.9
-2 -4 8 57.89 2.4
3 -4 8 184.38 6.7
3 4 -8 192.18 6.1
3 4 -8 186.18 5.7
-3 4 8 199.28 5.5
-3 4 8 194.38 5.5
-3 -4 8 202.28 5.7
-3 -4 8 201.78 6.2
-3 4 -8 203.18 6.1
3 -4 -8 206.28 6.2
3 -4 -8 194.18 5.8
4 4 -8 7.6 1
4 4 -8 5.8 0.8
4 -4 8 5.5 1.3
-4 4 8 8.6 0.6
-4 4 8 8 0.7
4 -4 -8 9.3 0.7
4 -4 -8 11 1.1
-4 4 -8 8.4 0.9
-4 -4 8 6.6 0.8
-4 -4 8 8.4 0.6
-4 4 -8 8.3 0.6
5 -4 8 6.2 1.4
-5 4 8 10.3 0.9
5 4 -8 11.7 1.5
-5 4 8 9.7 0.7
5 4 -8 10.6 1.1
5 -4 8 10.8 0.9
-5 4 -8 10.2 1.2
5 -4 -8 9.6 1.2
-5 -4 8 12 0.8
-5 -4 8 11.2 1.1
5 -4 -8 10.3 0.9
-5 4 -8 11.2 0.8
-6 4 8 4.1 1
-6 4 8 2.9 0.6
6 -4 8 2.3 1.6
6 4 -8 2.8 1.8
6 -4 8 2.9 1
6 4 -8 3 0.9
6 -4 -8 3.6 1
-6 4 -8 2.7 0.5
-6 4 -8 2.8 1.3
-6 -4 8 3 0.8
6 -4 -8 3.9 1.1
-6 -4 8 4.1 0.7
7 4 -8 3.8 2.2
-7 4 8 4.1 1.2
-7 4 8 4.9 0.9
7 -4 8 2.9 1.2
7 -4 8 2.4 2.7
7 4 -8 4.3 1.5
-7 -4 8 5.3 1
7 -4 -8 3.8 1.9
-7 4 -8 4.4 1.6
-7 4 -8 4.9 0.8
7 -4 -8 2.8 1.3
-7 -4 8 5.1 1
0 5 -8 19.2 0.9
0 5 -8 18.6 1.3
0 -5 8 21.8 2
0 -5 8 18.9 0.8
1 -5 8 223.18 6.1
1 -5 8 206.78 7.3
1 5 -8 219.28 6.2
1 5 -8 208.48 6.7
-1 5 -8 229.38 7.1
-1 -5 8 235.88 7.6
-1 5 -8 241.38 6.7
-1 -5 8 234.88 6.6
2 5 -8 36.2 1.9
2 -5 8 35.2 1.3
2 5 -8 32.7 1.4
2 -5 8 36.3 2.5
-2 -5 8 36.6 1.3
-2 5 -8 38 1.7
-2 -5 8 37.2 1.9
3 5 -8 34.5 1.5
3 5 -8 30.3 1.8
3 -5 8 32.8 2.4
-3 -5 8 35.5 1.2
-3 -5 8 31.8 1.7
-3 5 -8 34.7 1.7
4 5 -8 18.5 1.2
4 -5 8 18.6 2.2
4 5 -8 21.9 1.8
-4 -5 8 18.4 1.2
-4 5 -8 18.6 1.2
-4 -5 8 17.3 0.9
5 -5 8 1.5 0.7
5 5 -8 -0.2 0.6
-5 5 8 1.1 0.6
5 5 -8 0.2 1.2
-5 5 8 0.6 0.3
5 -5 8 -0.3 1
-5 -5 8 0.3 0.5
-5 5 -8 0.7 1.1
-5 -5 8 0.7 0.4
5 -5 -8 0.9 0.8
5 -5 -8 1.2 0.5
6 5 -8 5.1 2.1
-6 5 8 5.6 0.8
-6 5 8 5.9 1
6 -5 8 4.9 1.1
6 -5 8 1.1 2.3
6 5 -8 5.6 1.3
-6 -5 8 5.5 0.8
-6 5 -8 4.8 1.4
6 -5 -8 5.8 1.3
-6 -5 8 5.5 1
6 -5 -8 5.8 1
7 5 -8 1.1 2.3
-7 5 8 2.1 0.8
7 -5 8 2.7 1.3
7 -5 8 1.8 3
7 5 -8 -0.2 1.4
-7 5 8 1.1 1.1
7 -5 -8 0.8 1.2
7 -5 -8 0.3 1.8
-7 -5 8 1.7 0.9
-7 5 -8 0.5 1.6
-7 -5 8 2.1 0.9
0 6 -8 40.2 1.5
0 -6 8 38 2.4
0 6 -8 42.9 2
0 -6 8 40.6 1.4
1 6 -8 16.1 0.8
1 6 -8 14.8 1.3
1 -6 8 11.7 1.7
1 -6 8 16.3 0.7
-1 6 -8 14.9 1.2
-1 -6 8 18.6 1.8
-1 6 -8 14.7 0.8
-1 -6 8 15.7 0.7
2 -6 8 22.4 0.9
2 6 -8 22 1.1
2 -6 8 18 2.1
2 6 -8 19.1 1.6
-2 6 -8 21.2 1
-2 6 -8 22.2 1.3
-2 -6 8 21.3 1.6
-2 -6 8 20.5 0.9
3 6 -8 33.7 2
3 -6 8 28.4 2.7
3 6 -8 33.4 1.5
-3 -6 8 37.3 1.4
-3 -6 8 37.6 1.9
-3 6 -8 39.3 1.9
4 -6 8 0.9 1.2
4 6 -8 -0.1 1
4 6 -8 1 0.5
-4 -6 8 0.4 0.5
-4 6 -8 0.5 0.8
-4 -6 8 0.6 0.3
5 6 -8 11.5 2.2
5 -6 8 14.7 1.2
5 -6 8 13 2.1
5 6 -8 13.4 1.3
-5 6 -8 13.3 1.6
-5 -6 8 12.4 0.9
-5 -6 8 13.7 1.2
6 -6 8 19.2 3.4
6 6 -8 18.6 2.8
6 -6 8 21.3 1.7
6 6 -8 22.2 2
-6 -6 8 21.8 1.4
-6 -6 8 22 1.7
-6 6 -8 19.8 2.1
7 -6 8 1.4 1.4
7 6 -8 4.8 2.4
7 -6 8 2.6 3.2
7 6 -8 0.5 1.5
-7 6 -8 4.6 1.8
-7 -6 8 1.6 1
-7 -6 8 0.7 0.8
0 -7 8 -0.3 1
0 7 -8 0.9 0.3
0 7 -8 1.1 0.6
0 -7 8 0.5 0.2
1 7 -8 29.8 1.8
1 -7 8 30.5 2.8
1 7 -8 30.6 1.3
1 -7 8 28.3 1.1
-1 -7 8 27.9 2.1
-1 -7 8 28.8 1.1
-1 7 -8 29.4 1.2
-1 7 -8 26.7 1.6
2 7 -8 14.6 0.9
2 -7 8 11.5 1.8
2 7 -8 14.4 1.5
2 -7 8 13.6 0.8
-2 -7 8 15.2 1.5
-2 -7 8 14.8 0.7
-2 7 -8 15.8 0.9
-2 7 -8 14.5 1.3
3 -7 8 12.4 2
3 7 -8 15.2 1
3 7 -8 13.5 1.6
-3 7 -8 15.1 1.4
-3 -7 8 17.7 0.8
-3 -7 8 18.6 1.4
4 7 -8 2.6 0.7
4 7 -8 1.6 1.5
4 -7 8 2.9 1.3
-4 -7 8 1.6 0.7
-4 -7 8 2.9 0.5
-4 7 -8 2.4 1.3
5 -7 8 1.1 2.2
5 7 -8 -0.6 0.8
5 -7 8 1 0.9
5 7 -8 0.3 2
-5 7 -8 0.4 1.4
-5 -7 8 0.6 0.6
-5 -7 8 0.1 0.5
6 -7 8 -2.1 3
6 -7 8 0.4 1.1
-6 7 -8 2 1.7
0 -8 8 26 2.4
0 8 -8 20.8 1.5
0 8 -8 23.3 1.1
0 -8 8 20.5 0.9
1 -8 8 16.4 2.2
1 8 -8 18.3 1.6
1 -8 8 17.4 0.9
1 8 -8 19.3 1.1
-1 8 -8 20.1 1.5
-1 8 -8 19.1 1
-1 -8 8 16.7 1.9
-1 -8 8 18 0.8
2 8 -8 9.1 1.4
2 -8 8 9.2 0.8
2 8 -8 7.8 0.8
2 -8 8 8 1.8
-2 8 -8 8.6 1.2
-2 -8 8 11.1 1.5
-2 8 -8 8.7 0.8
-2 -8 8 9.3 0.6
3 8 -8 1.2 0.5
3 8 -8 0.7 1.4
3 -8 8 2.8 1.6
-3 -8 8 1.5 0.7
-3 8 -8 0.7 0.4
-3 8 -8 -0.7 1.1
-3 -8 8 0.4 0.4
4 -8 8 2.8 2
-4 8 -8 1.1 1.4
5 -8 8 0.5 2.8
5 -8 8 3.5 1
-5 8 -8 2.2 1.6
6 -8 8 1.8 3.7
6 -8 8 2 1.6
-6 8 -8 0.9 1.7
0 -9 8 -0.3 1.1
0 9 -8 0 0.4
0 -9 8 -0.3 0.3
0 9 -8 2 1.1
1 9 -8 0.5 0.5
1 -9 8 0.9 1.2
1 9 -8 -1.2 1.3
1 -9 8 0.5 0.5
-1 -9 8 0 1
-1 -9 8 0.5 0.5
-1 9 -8 1.2 0.4
-1 9 -8 -0.3 1.1
2 -9 8 9.8 2.1
2 -9 8 6.2 0.8
-2 9 -8 5.4 1.4
-2 9 -8 5.9 0.7
3 -9 8 -0.4 1.7
-3 9 -8 0.3 0.6
-3 9 -8 1.1 1.4
4 -9 8 7 2.8
-4 9 -8 7 1.7
-4 9 -8 7.6 1
5 -9 8 1.9 1
5 -9 8 1.5 3.2
-5 9 -8 0.2 1.4
3 -10 8 0.8 2.4
-3 10 -8 1.2 1.5
-3 10 -8 1.9 0.8
4 -10 8 4.1 3.1
-4 10 -8 2.5 1.6
-4 10 -8 2.4 0.8
0 0 -9 0.7 0.4
0 0 9 1 0.4
0 0 -9 1.4 1.3
0 0 9 0.1 1.2
-1 0 9 495.45 14.9
1 0 9 491.35 17.7
-1 0 -9 531.85 16.9
-1 0 -9 492.15 14.5
-1 0 9 509.65 16.3
1 0 -9 460.85 17.3
1 0 -9 505.45 15.3
-2 0 9 233.18 8.4
-2 0 -9 231.18 7.7
2 0 9 228.78 7.1
-2 0 -9 232.18 6.6
2 0 9 236.58 10.4
-2 0 -9 251.37 9.6
-2 0 9 233.78 6.5
-2 0 9 238.48 9
-2 0 9 235.68 6.7
2 0 -9 231.58 8.8
2 0 9 240.58 7.9
2 0 -9 234.98 6.8
2 0 -9 219.28 9.9
2 0 -9 237.68 6.7
-3 0 -9 2.8 0.4
-3 0 9 2.6 0.4
-3 0 -9 2.3 0.3
3 0 -9 2.8 0.5
-3 0 9 2 0.3
3 0 -9 3 0.5
3 0 9 5.1 0.8
-4 0 9 40.4 1.5
-4 0 9 39.6 1.6
-4 0 -9 39.7 1.5
4 0 -9 40.6 1.7
4 0 -9 41.6 1.8
-4 0 -9 40.4 1.4
4 0 9 40 1.4
4 0 9 39 2
-5 0 -9 15.2 0.8
5 0 -9 14.9 1.3
-5 0 9 14.9 0.9
5 0 -9 15 1.1
5 0 9 14 0.8
-5 0 -9 13.2 0.9
5 0 9 12.5 1.4
-5 0 9 14.5 0.9
6 0 9 1.7 0.9
6 0 9 0.7 0.5
-6 0 9 -0.7 0.6
6 0 -9 0.8 1
-6 0 9 0.5 0.4
-6 0 -9 0.6 0.5
6 0 -9 -1.3 0.5
-6 0 -9 0.1 0.3
7 0 -9 9.4 1.8
7 0 -9 10.7 1.8
7 0 9 12.7 2.2
-7 0 -9 12.1 1
-7 0 -9 14.1 1.4
-7 0 9 12.2 1.4
7 0 9 12.3 1.4
-7 0 9 13.4 1.3
-8 0 9 6.1 1.1
8 0 -9 6.4 2.2
8 0 -9 3 1.9
-8 0 9 5.6 1.4
0 1 -9 111.19 4.3
0 1 9 116.39 3.8
0 -1 -9 112.89 4
0 1 -9 118.89 7
0 -1 9 121.09 4.3
0 -1 9 112.59 6.8
0 -1 -9 114.99 5.6
0 1 9 114.59 5
1 1 -9 166.88 6.3
-1 1 9 166.38 6.3
-1 1 9 171.68 5.8
1 -1 9 170.08 5.4
1 1 -9 170.98 5.1
-1 -1 -9 177.88 6.7
1 1 -9 166.18 4.8
-1 -1 -9 169.28 5.3
1 -1 9 162.78 4.7
1 -1 9 176.88 9.1
1 1 -9 176.78 9
1 1 9 170.08 7.5
1 -1 -9 165.88 6.1
-1 -1 9 166.68 7.9
1 -1 -9 167.88 7.4
-1 -1 9 175.18 5.2
-1 -1 9 169.08 4.8
-1 1 -9 168.68 8.2
-1 1 -9 167.18 5.9
-1 1 -9 172.98 5
-1 -1 9 182.28 6.2
2 -1 9 31.8 2.1
-2 -1 -9 32.1 2.5
2 -1 9 36.3 4.8
-2 1 9 28.9 1
2 1 -9 27.6 1.2
-2 -1 -9 28.1 1.6
2 -1 9 29.3 1
-2 1 9 32.1 2.3
-2 1 9 30.1 1.1
2 -1 9 29 1.7
2 1 -9 31.7 1.4
-2 1 9 29.5 2.3
-2 -1 9 30.2 1.3
2 -1 -9 29.3 1.2
2 -1 -9 31.7 2.5
-2 -1 9 29.7 1
2 1 9 32.5 3.6
2 -1 -9 34.4 3.1
-2 1 -9 30.4 1.2
2 1 9 31.4 1.9
2 -1 -9 31.6 1.2
-2 1 -9 32 3.8
-2 1 -9 33.3 2.1
-3 -1 -9 7.4 0.4
3 1 -9 6.6 0.6
-3 1 9 7.4 0.5
-3 1 9 6.6 0.6
3 -1 9 6.1 1
-3 -1 -9 6.9 0.5
-3 -1 -9 9.3 1.9
3 1 -9 6.8 0.7
3 1 9 7.3 0.9
3 -1 -9 7.5 0.6
3 1 9 7 0.4
3 1 9 5.1 1.8
3 -1 -9 9 0.8
3 1 9 8 1.4
-3 -1 9 9 0.7
-3 1 -9 7.5 0.4
-3 1 -9 8.8 0.7
-3 -1 9 6.6 0.5
-4 -1 -9 96.39 2.9
4 1 -9 88.49 3.2
-4 1 9 92.69 2.9
-4 -1 -9 96.69 2.8
4 -1 9 92.69 3.7
-4 1 9 92.59 3
4 -1 9 97.99 2.9
4 1 -9 91.29 3.2
4 1 9 94.59 2.9
4 -1 -9 96.49 3.1
4 -1 -9 95.29 3.3
-4 1 -9 97.79 3.1
-4 -1 9 94.59 3.1
-4 1 -9 95.69 2.9
-4 -1 9 95.59 3
4 1 9 92.09 3.4
-5 1 9 7.3 0.7
5 1 -9 7.8 0.9
-5 1 9 7.9 0.7
5 -1 9 7.3 1.3
-5 -1 -9 8.5 0.6
5 1 -9 7.1 0.9
5 -1 9 7.5 0.6
-5 -1 -9 7 0.7
5 -1 -9 7.4 1
-5 1 -9 7.9 0.6
-5 1 -9 8 0.8
-5 -1 9 7.2 0.8
-5 -1 9 7.2 0.7
5 1 9 6.5 0.6
5 1 9 7.4 1.1
5 -1 -9 8.7 0.9
6 -1 9 0.2 0.6
-6 -1 -9 1.8 0.5
6 -1 9 1.6 1
-6 1 9 0.9 0.7
6 1 -9 1.2 0.7
-6 1 9 1.9 0.5
6 1 -9 2.7 1.2
-6 -1 -9 2 0.4
-6 1 -9 1.7 0.4
6 -1 -9 0.9 0.7
6 -1 -9 1.6 1
-6 -1 9 1 0.5
6 1 9 1.9 0.8
-6 1 -9 1.6 0.6
-6 -1 9 0.5 0.6
6 1 9 1.3 1
-7 1 9 1 1
7 -1 9 1.4 1.8
7 -1 9 3 1.1
7 1 -9 2.5 1.6
7 1 -9 1.9 1.4
-7 1 9 0.9 0.8
-7 1 -9 1.1 0.5
-7 1 -9 1.6 1.1
-7 -1 9 2.3 0.8
7 -1 -9 1.9 1.6
7 -1 -9 0.8 1.4
-7 -1 9 1.5 1
8 1 -9 2 2.2
8 -1 9 0.3 2.6
-8 1 9 1.9 1
8 1 -9 -1.2 1.9
8 -1 9 0.8 1.2
-8 1 9 0.4 1.2
-8 -1 9 2.2 1.3
-8 1 -9 0.6 1.2
8 -1 -9 0.9 1.9
8 -1 -9 0.6 2
-8 -1 9 0.2 1
-8 1 -9 1 0.8
0 -2 -9 329.27 9.4
0 2 -9 323.27 8.9
0 -2 9 315.67 8.8
0 2 -9 324.67 9.2
0 -2 9 304.07 9.6
0 -2 -9 315.07 10.5
0 2 -9 324.27 10.3
0 2 9 316.97 9.5
0 2 -9 302.07 13.8
0 2 9 326.87 9.2
0 -2 9 343.77 14.5
0 -2 9 333.87 10.3
1 -2 9 98.59 7.3
1 2 -9 94.19 2.9
1 2 -9 84.59 6.6
1 -2 9 92.19 3.6
-1 -2 -9 97.39 3
1 -2 9 98.89 4.1
1 2 -9 95.89 4.3
-1 -2 -9 94.39 3.5
1 -2 9 93.39 2.7
-1 2 9 96.69 3.7
-1 2 9 95.59 3.8
1 2 -9 101.49 3.2
-1 2 -9 98.29 3.1
-1 -2 9 96.29 4.1
-1 -2 9 94.09 2.7
1 2 9 96.49 3.1
-1 2 -9 95.29 2.8
1 2 9 86.39 4
-1 2 -9 93.19 6.4
-1 -2 9 105.69 6.5
1 -2 -9 93.69 4
-1 -2 9 97.19 3.4
-1 2 -9 97.79 4
1 -2 -9 95.39 4.6
-2 2 9 89.39 2.6
2 2 -9 92.09 2.8
2 2 -9 94.79 3.1
-2 2 9 90.69 4.1
-2 2 9 95.79 4.3
-2 2 9 88.69 2.7
2 -2 9 84.19 3.4
2 -2 9 87.09 2.6
2 -2 -9 98.09 4.9
-2 2 -9 94.19 3
2 -2 -9 92.79 2.8
2 -2 -9 87.59 4.6
-2 -2 9 89.29 3.1
-2 -2 9 90.89 2.7
2 -2 -9 88.49 2.8
-3 2 9 0.5 0.2
-3 2 9 0.2 0.2
3 2 -9 0.7 0.5
3 2 -9 0.6 0.4
3 -2 9 0.7 0.8
-3 2 -9 0.3 0.4
-3 2 -9 0.4 0.2
-3 -2 9 0.5 0.4
-3 -2 9 0.2 0.2
3 -2 -9 0.2 0.3
3 -2 -9 0.2 0.4
4 2 -9 47.9 2.1
4 -2 9 48.5 2.6
-4 2 9 44.6 1.7
4 2 -9 51.19 2
-4 2 9 44.4 1.7
-4 -2 9 49.4 1.7
-4 -2 9 49.5 1.9
-4 2 -9 48 1.7
4 -2 -9 43.7 1.8
-4 2 -9 45.7 1.8
4 -2 -9 49.2 2.1
5 -2 9 0.7 0.9
-5 2 9 1.2 0.4
5 2 -9 1.3 0.7
-5 2 9 1.6 0.4
5 -2 9 1.3 0.4
5 2 -9 1.3 0.6
5 -2 -9 1.4 0.7
-5 -2 9 2 0.4
5 -2 -9 0.5 0.5
-5 2 -9 1.1 0.5
-5 2 -9 1.3 0.3
-5 -2 9 1.5 0.5
-6 2 9 1 0.8
6 2 -9 1 1.4
6 -2 9 1.1 0.7
-6 2 9 0.5 0.4
6 2 -9 1.2 0.7
6 -2 9 -0.5 0.8
-6 2 -9 1.6 0.4
6 -2 -9 1.6 0.9
-6 -2 9 1.2 0.8
6 -2 -9 0.3 0.7
-6 -2 9 1 0.5
-6 2 -9 1.3 0.8
7 2 -9 -1.5 1.9
-7 2 9 0.1 1
7 2 -9 -0.5 1.3
7 -2 9 0.6 1
-7 2 9 0.7 0.8
7 -2 9 -0.2 2
-7 -2 9 0 1
-7 2 -9 0.4 0.5
7 -2 -9 -0.7 1.4
-7 2 -9 -1.1 1.1
-7 -2 9 0.9 0.8
7 -2 -9 -0.6 1.4
8 2 -9 -0.4 2.4
-8 2 9 1.1 1.2
8 2 -9 1.4 1.9
-8 2 9 1.5 1.1
8 -2 9 0 1.2
8 -2 9 -1.8 2.7
-8 2 -9 0.4 1.3
-8 2 -9 1.6 0.8
-8 -2 9 0.9 1.2
8 -2 -9 -0.6 1.9
-8 -2 9 4.2 1.3
8 -2 -9 3.6 2.3
0 -3 9 115.09 3.3
0 -3 9 108.59 4.2
0 3 -9 114.69 3.4
0 3 -9 118.89 3.8
1 -3 9 13.4 1.5
1 -3 9 14.1 0.6
1 3 -9 13.3 1.1
1 3 -9 12.2 0.6
-1 3 -9 15.6 0.7
-1 3 -9 15.7 1
1 -3 -9 13.4 2
-1 -3 9 14 0.6
-1 -3 9 14.7 1.3
2 3 -9 60.49 2.3
-2 3 9 52.89 3.1
-2 3 9 56.39 1.7
-2 3 9 57.59 3
-2 3 9 56.59 1.7
2 -3 9 56.59 1.8
2 3 -9 56.49 1.9
2 -3 9 46 2.6
-2 3 -9 55.59 2.1
-2 -3 9 62.19 2.4
-2 -3 9 57.79 1.8
2 -3 -9 58.49 2
2 -3 -9 59.09 1.8
2 -3 -9 55.19 3.7
2 -3 -9 58.29 3.5
-3 3 9 32.3 1.2
3 3 -9 36.1 1.7
-3 3 9 33.5 1.2
3 -3 9 34.8 2.3
3 3 -9 30.7 1.4
3 -3 -9 35.2 1.5
3 -3 -9 33.8 1.3
-3 -3 9 34.5 1.6
-3 3 -9 36.1 1.6
-3 -3 9 31.8 1.2
4 3 -9 36.4 1.6
-4 3 9 34.5 1.3
-4 3 9 33.4 1.3
4 -3 9 31.8 2.2
4 3 -9 31.3 1.8
-4 3 -9 34.8 1.3
4 -3 -9 36.3 1.5
-4 -3 9 36.5 1.7
-4 3 -9 40.1 1.7
-4 -3 9 36.6 1.4
4 -3 -9 36.6 1.8
5 3 -9 8.7 1.2
5 3 -9 8.3 1
5 -3 9 6.9 0.7
5 -3 9 8.7 1.5
-5 3 9 7.6 0.7
-5 3 9 7.7 0.7
-5 -3 9 9 0.7
-5 3 -9 8.6 0.9
5 -3 -9 6.5 1
-5 -3 9 7.9 0.9
-5 3 -9 7.7 0.7
5 -3 -9 7.5 0.8
-6 3 9 6.4 0.7
-6 3 9 4.3 0.9
6 -3 9 7.8 1.7
6 3 -9 6.3 1.1
6 -3 9 4.6 0.9
6 3 -9 6.8 1.9
6 -3 -9 5.2 1
-6 3 -9 7.2 1.3
6 -3 -9 7.1 1.3
-6 -3 9 5.9 0.9
-6 -3 9 6.2 0.9
-6 3 -9 5.9 0.7
7 3 -9 0.1 2.1
7 -3 9 2 2.5
-7 3 9 1.4 1.1
-7 3 9 0.9 0.8
7 3 -9 1.4 1.3
7 -3 9 1.2 1.1
7 -3 -9 1.5 1.6
-7 -3 9 0.1 0.7
7 -3 -9 0.1 1.3
-7 -3 9 0.2 1
-7 3 -9 1.3 1.4
-7 3 -9 0 0.6
0 4 -9 0.5 0.2
0 -4 9 0.1 0.2
0 4 -9 -0.3 0.5
0 -4 9 2.7 1.1
1 4 -9 18.1 1.3
1 -4 9 20 0.8
1 -4 9 20.3 1.9
1 4 -9 18.6 0.9
-1 4 -9 21.1 1.2
-1 -4 9 20.5 0.8
-1 4 -9 19.9 0.9
-1 -4 9 22.6 1.7
2 4 -9 42.4 1.6
2 4 -9 43.8 2
2 -4 9 43.5 1.5
2 -4 9 46.7 2.6
-2 4 -9 40.7 1.7
-2 -4 9 41.7 1.4
-2 -4 9 42.7 2
-3 4 9 7.7 0.6
3 4 -9 6.3 1
3 4 -9 8.5 0.8
3 -4 9 9.3 1.5
-3 4 9 8.5 0.7
-3 -4 9 8.5 0.9
-3 -4 9 7.6 0.5
3 -4 -9 8.8 0.7
-3 4 -9 6.9 0.8
3 -4 -9 8.3 0.9
-4 4 9 11.3 0.7
-4 4 9 10.9 0.7
4 -4 9 11.6 1.6
4 4 -9 14.5 1.4
4 4 -9 12.2 1
-4 -4 9 10.8 1
-4 4 -9 10.8 1
4 -4 -9 10.6 0.7
4 -4 -9 11.2 1.2
-4 -4 9 11.5 0.7
5 4 -9 3.5 0.8
5 -4 9 3.6 0.7
5 -4 9 4 1.3
5 4 -9 4.7 1.4
-5 4 9 3.4 0.5
-5 4 9 5.2 0.6
5 -4 -9 3.4 0.9
5 -4 -9 4.3 0.6
-5 -4 9 4.2 0.6
-5 4 -9 3.6 0.5
-5 4 -9 3.7 0.9
-5 -4 9 3.2 0.7
6 -4 9 11.5 2.2
6 -4 9 15.7 1.4
-6 4 9 13.4 1
6 4 -9 12.2 2.3
6 4 -9 14.7 1.6
-6 4 9 18 1.4
6 -4 -9 12.5 1.6
6 -4 -9 15.6 1.5
-6 4 -9 12.9 1.6
-6 -4 9 14.3 1.2
-6 4 -9 15.7 1
-6 -4 9 13.4 1.2
7 4 -9 -0.3 2.3
7 -4 9 1.6 2.8
-7 4 9 1.8 1.1
7 -4 9 0.9 1
-7 4 9 -0.1 0.8
7 4 -9 0.4 1.4
-7 -4 9 0.8 0.9
-7 -4 9 1.1 0.9
-7 4 -9 -0.4 0.7
-7 4 -9 1.9 1.5
7 -4 -9 -1.7 1.6
7 -4 -9 1.6 1.3
0 5 -9 6.6 0.9
0 5 -9 7.1 0.6
0 -5 9 8.4 1.4
0 -5 9 6.6 0.4
1 5 -9 24.1 1.6
1 -5 9 23.9 0.9
1 5 -9 23.5 1
1 -5 9 22.9 2.1
-1 5 -9 26 1.4
-1 5 -9 23.3 1
-1 -5 9 20.2 1.8
-1 -5 9 23.3 0.9
2 -5 9 16.7 0.8
2 -5 9 17 2
2 5 -9 12.3 1.3
2 5 -9 15.4 0.9
-2 -5 9 16.1 0.7
-2 -5 9 17.5 1.5
-2 5 -9 16.3 1.2
3 5 -9 11.4 1.3
3 5 -9 11.9 0.9
3 -5 9 10.5 1.6
-3 5 -9 13.5 1.1
-3 -5 9 12.6 1.2
-3 -5 9 13.1 0.7
4 5 -9 73.09 2.7
4 5 -9 64.79 3
4 -5 9 66.39 3.6
-4 -5 9 73.89 2.4
-4 5 -9 73.49 2.9
-4 -5 9 74.39 2.8
5 5 -9 21.1 2.4
5 -5 9 15.8 2.2
5 5 -9 20.4 1.4
5 -5 9 20.1 1.4
-5 5 -9 19.8 1.7
-5 -5 9 20.1 1.4
-5 -5 9 21.3 1.2
6 -5 9 3.2 1.1
6 5 -9 2.3 1.2
6 5 -9 3.8 2.1
-6 5 9 0.9 0.5
6 -5 9 1.5 2.1
-6 5 9 1.9 0.9
-6 -5 9 3.3 0.9
6 -5 -9 3.3 1
-6 -5 9 3.7 0.8
6 -5 -9 2.5 1.1
-6 5 -9 1.1 1.3
-7 5 9 1.8 1.2
7 5 -9 0.3 1.4
-7 5 9 0.4 0.8
7 -5 9 2.2 3
7 5 -9 4.5 2.4
7 -5 9 1 1.2
-7 -5 9 0 0.9
-7 5 -9 1.9 1.7
7 -5 -9 2.8 2
-7 -5 9 1 0.8
7 -5 -9 1.4 1.2
0 6 -9 4.1 0.5
0 6 -9 4.5 0.8
0 -6 9 4.8 1.3
0 -6 9 4.1 0.4
1 6 -9 32.7 1.8
1 -6 9 32.8 1.2
1 6 -9 32.2 1.3
1 -6 9 32.8 2.5
-1 6 -9 32.9 1.3
-1 -6 9 31.3 2.2
-1 -6 9 35.2 1.2
-1 6 -9 32.6 1.7
2 -6 9 15.5 0.8
2 6 -9 14.9 0.9
2 6 -9 16.1 1.5
2 -6 9 16.1 2
-2 6 -9 17 0.9
-2 -6 9 15.5 0.7
-2 6 -9 15.9 1.3
-2 -6 9 15 1.5
3 6 -9 6.5 0.7
3 -6 9 13.3 1.8
3 6 -9 10.5 1.2
-3 -6 9 8 1
-3 -6 9 6.2 0.5
-3 6 -9 8.5 0.9
4 6 -9 4.8 1.3
4 6 -9 6.4 0.9
4 -6 9 8.1 1.7
-4 -6 9 5.5 0.5
-4 -6 9 4.8 0.8
-4 6 -9 5.8 1.1
5 6 -9 1.6 0.7
5 6 -9 1 1.9
5 -6 9 1.1 1.7
-5 -6 9 3.4 0.6
-5 -6 9 3.8 0.8
-5 6 -9 3.5 1.4
6 -6 9 6.1 3
6 6 -9 4.7 1.4
6 -6 9 5.4 1.2
6 6 -9 6.7 2.3
-6 -6 9 6.2 1.1
-6 6 -9 5.8 1.6
-6 -6 9 4.8 0.9
7 6 -9 1.1 2.4
7 6 -9 1 1.6
-7 -6 9 1.7 1.1
-7 -6 9 2 0.9
0 -7 9 2.5 0.4
0 7 -9 2.2 0.4
0 7 -9 3 0.7
0 -7 9 4.3 1.3
1 7 -9 10.6 1.2
1 -7 9 11.6 0.7
1 7 -9 11.6 0.8
1 -7 9 10.3 1.8
-1 7 -9 11.1 0.7
-1 -7 9 10.2 0.6
-1 -7 9 13.5 1.7
-1 7 -9 11.3 1.1
2 7 -9 32.8 2
2 -7 9 33 1.3
2 7 -9 29.6 1.4
2 -7 9 23.3 2.6
-2 -7 9 30.5 2
-2 7 -9 31.9 1.7
-2 7 -9 32 1.4
-2 -7 9 33.5 1.2
3 7 -9 13.4 1.7
3 7 -9 12 1.1
3 -7 9 7.8 1.7
-3 -7 9 10.2 1.2
-3 7 -9 9.1 1.3
-3 -7 9 11.9 0.7
4 7 -9 17.9 2.4
4 -7 9 11.1 2.1
4 7 -9 15.5 1.3
-4 -7 9 18 1.4
-4 -7 9 14.5 1
-4 7 -9 14.4 1.8
5 7 -9 7.4 2.3
5 -7 9 4.9 2.6
5 7 -9 9.9 1.4
-5 -7 9 9 1.2
-5 -7 9 10.3 0.9
-5 7 -9 13.6 2
6 -7 9 1.9 1.1
6 -7 9 0.4 3.2
6 7 -9 3.7 1.4
6 7 -9 2.9 2.3
-6 -7 9 1.6 1
-6 7 -9 3 1.7
-6 -7 9 2.2 0.7
0 8 -9 26.1 1.7
0 8 -9 25 1.2
0 -8 9 23.1 2.4
0 -8 9 23.7 1
1 -8 9 28.6 1.2
1 8 -9 28.3 1.3
1 -8 9 24 2.5
1 8 -9 25.4 1.9
-1 -8 9 25.6 2.3
-1 -8 9 26.7 1.1
-1 8 -9 28.7 1.8
-1 8 -9 28.4 1.3
2 -8 9 3.8 0.6
2 8 -9 4.4 1.3
2 8 -9 4.3 0.7
2 -8 9 4.7 1.6
-2 8 -9 3.4 1.1
-2 -8 9 4.4 0.5
-2 8 -9 4.4 0.6
-2 -8 9 3.7 1.1
3 8 -9 3.7 1.6
3 -8 9 2 1.6
3 8 -9 3 0.6
-3 -8 9 4.3 0.9
-3 -8 9 4.6 0.6
-3 8 -9 1.7 1.3
-3 8 -9 4.3 0.6
4 8 -9 1.6 0.8
4 -8 9 1.2 2.2
4 8 -9 4 2
-4 -8 9 -0.2 0.6
-4 8 -9 -0.6 1.4
-4 -8 9 0.4 0.5
5 -8 9 1.5 2.6
-5 8 -9 3.4 1.7
0 -9 9 20.6 1.1
0 -9 9 16.4 2
0 9 -9 20.3 1.2
0 9 -9 20.8 2
1 -9 9 23.1 1.2
1 9 -9 20.8 2.1
1 9 -9 22.3 1.3
1 -9 9 17.9 2.3
-1 9 -9 22.7 2
-1 -9 9 23.6 2.2
-1 -9 9 21.9 1.1
-1 9 -9 22.6 1.2
2 -9 9 13.3 1.1
2 -9 9 13.1 2.3
-2 9 -9 11 1
-2 9 -9 14.9 1.8
-2 -9 9 12.6 1.3
-2 -9 9 8.4 2.2
3 -9 9 3.8 2.1
-3 9 -9 1.1 0.6
-3 9 -9 3.5 1.5
4 -9 9 1.4 2.8
-4 9 -9 0.7 0.7
-4 9 -9 -0.9 1.4
5 -9 9 2.7 3.2
5 -9 9 1 1
-5 9 -9 2.9 1
-5 9 -9 2.2 1.5
2 -10 9 2.7 2.2
-2 10 -9 2.6 1.5
-2 10 -9 2.7 0.8
3 -10 9 1 2.7
-3 10 -9 -0.3 1.5
-3 10 -9 1.8 0.8
4 -10 9 5.8 3.2
-4 10 -9 1.5 0.8
-4 10 -9 1.7 1.6
0 0 10 211.38 9.2
0 0 10 200.18 6.5
0 0 -10 200.68 6.7
0 0 -10 193.98 9.2
1 0 -10 0.4 1.3
-1 0 10 0.6 0.4
-1 0 10 0 0.1
1 0 -10 0.6 0.6
1 0 -10 0.1 0.4
-1 0 10 0.8 0.9
1 0 -10 0 0.2
-1 0 -10 -0.8 0.9
1 0 10 -1.4 1.1
-1 0 10 0.3 0.4
-1 0 -10 0.1 0.3
2 0 -10 106.39 3.3
-2 0 -10 105.39 3.2
-2 0 10 105.39 5.4
2 0 10 108.89 4.4
2 0 10 105.29 6.7
-2 0 10 107.49 3.1
-2 0 -10 108.19 5.8
2 0 -10 105.59 5.1
2 0 10 106.69 3.7
-2 0 -10 106.79 4.2
2 0 -10 101.49 6.4
2 0 -10 108.89 3.4
-2 0 10 102.89 3.3
-2 0 10 109.59 4.8
3 0 -10 2.4 0.5
3 0 10 1.3 0.7
3 0 -10 2.3 0.5
-3 0 -10 2.6 0.4
-3 0 -10 2.2 0.3
-3 0 10 1.9 0.4
-3 0 10 2.8 0.4
-4 0 10 5.9 0.5
4 0 10 6.2 0.5
-4 0 -10 6.3 0.6
4 0 -10 6.1 0.7
-4 0 -10 6 0.5
4 0 10 6.3 1
4 0 -10 7.7 0.8
-4 0 10 5.5 0.6
5 0 -10 6.6 0.8
5 0 -10 8.5 1
-5 0 10 7.6 0.7
-5 0 -10 7.6 0.6
5 0 10 6.7 1.2
-5 0 10 7.1 0.8
5 0 10 8.5 0.7
-5 0 -10 7.1 0.7
-6 0 10 24.9 1.4
6 0 10 22.2 2.2
6 0 10 24.2 1.4
-6 0 10 24.1 1.5
-6 0 -10 21.5 1.1
-6 0 -10 25.1 1.3
6 0 -10 25.9 1.8
6 0 -10 27 2.1
-7 0 10 0 0.9
-7 0 -10 -0.5 0.8
7 0 -10 -0.4 1.4
-7 0 -10 -0.2 0.4
7 0 -10 -1.8 1.1
7 0 10 -1.8 0.9
7 0 10 0.8 1.6
-7 0 10 -0.9 0.7
-8 0 10 2 1.2
8 0 -10 -0.4 2
8 0 -10 2.4 2.1
-8 0 10 0.2 1.1
0 1 -10 401.26 12.4
0 1 -10 399.66 15.9
0 -1 10 406.36 12.3
0 -1 10 407.76 11.7
0 -1 -10 398.46 12
0 1 10 425.26 13.5
0 -1 10 414.36 16
0 1 -10 416.96 11.4
0 -1 10 395.66 11
0 -1 -10 392.06 14.1
0 1 -10 388.76 11.1
0 1 10 412.96 11.8
1 -1 10 131.09 8.2
-1 1 10 146.79 5.2
1 1 -10 145.29 4.5
-1 -1 -10 149.39 4.8
-1 1 10 149.09 5.9
1 -1 10 144.69 4.8
1 1 -10 142.99 5.7
1 1 -10 141.99 8.3
1 1 -10 147.39 4.2
1 -1 10 144.29 4.1
-1 -1 -10 150.18 6.2
1 -1 -10 145.29 7.2
-1 1 -10 149.29 4.3
-1 -1 10 148.59 4.2
-1 1 -10 154.08 4.5
-1 -1 10 145.29 7.4
-1 -1 10 152.68 5.6
1 -1 -10 152.08 5.7
-1 1 -10 151.18 5.4
1 1 10 143.99 7
-1 -1 10 152.58 4.7
-1 1 -10 154.58 8
-2 -1 -10 50.99 2.4
-2 1 10 52.89 3.3
2 -1 10 51.89 2.4
-2 1 10 52.69 1.6
2 1 -10 53.29 1.8
2 -1 10 62.09 5.5
-2 1 10 55.59 1.8
-2 -1 -10 51.09 3.4
2 -1 10 52.39 1.6
-2 1 10 54.59 3.1
2 1 -10 48.7 2
-2 1 -10 53.39 1.9
-2 -1 10 53.59 2
-2 1 -10 50.19 2.7
2 1 10 52.49 2.6
-2 -1 10 51.59 1.7
-2 1 -10 58.59 4.5
2 -1 -10 54.29 3.4
2 1 10 51.89 4.2
2 -1 -10 54.39 1.9
2 -1 -10 54.49 1.8
2 -1 -10 50.99 4
-3 1 10 134.89 4
3 -1 10 134.79 4.8
-3 -1 -10 140.09 3.9
3 1 -10 139.19 4.2
-3 -1 -10 131.69 4
3 1 -10 131.69 4.3
-3 1 10 137.59 4.1
3 1 10 137.29 4
-3 -1 10 134.79 4
-3 1 -10 138.99 4
3 -1 -10 132.19 4.2
3 -1 -10 140.69 4.3
-3 -1 10 138.69 4.3
-3 1 -10 137.59 4.2
3 1 10 142.59 4.6
4 1 -10 15.7 1.2
4 1 -10 11.1 1
-4 -1 -10 13.7 0.6
4 -1 10 14.9 0.7
-4 1 10 11.6 0.7
4 -1 10 11.7 1.4
-4 1 10 13.3 0.8
-4 -1 -10 12.4 0.8
-4 -1 10 14 0.9
-4 -1 10 12 0.7
4 1 10 14 0.7
4 -1 -10 14.5 0.9
4 1 10 11.3 1.2
4 -1 -10 13.3 1
-4 1 -10 11.8 0.9
-4 1 -10 12.4 0.7
5 -1 10 11.5 1.5
-5 1 10 12 0.8
5 -1 10 12.1 0.8
-5 1 10 12 0.8
5 1 -10 11 1.1
5 1 -10 14.2 1.3
-5 -1 -10 12.6 1
5 -1 -10 12 1.1
5 -1 -10 12.1 1.2
-5 1 -10 11.7 0.7
5 1 10 9.8 1.1
-5 -1 10 11.5 0.8
-5 -1 10 12.8 0.9
-5 1 -10 13.7 1
-6 1 10 4.5 0.8
6 1 -10 6.6 1.5
6 -1 10 3.7 1.3
6 -1 10 5.8 0.8
-6 1 10 4.1 0.6
6 1 -10 4.6 0.9
6 -1 -10 6.2 1
-6 -1 10 3.8 0.7
-6 -1 10 5 0.9
-6 1 -10 5.9 0.6
6 -1 -10 4.8 1.1
-6 1 -10 4.5 0.8
-7 1 10 4.3 1
7 -1 10 6.9 2.2
-7 1 10 3 1.1
7 1 -10 3.5 1.6
7 -1 10 4.9 1.1
7 1 -10 6.6 2
7 -1 -10 4.3 1.7
-7 -1 10 5.8 1.2
-7 1 -10 4.4 0.7
-7 -1 10 5.3 1.1
7 -1 -10 4.4 1.7
-7 1 -10 4.3 1.1
-8 1 10 5.8 1.4
8 -1 10 6.2 1.4
-8 1 10 7.2 1.4
8 1 -10 6.7 2.4
8 -1 10 4.7 2.8
8 1 -10 3.6 2.4
8 -1 -10 4.5 2.4
8 -1 -10 3.8 2.5
-8 -1 10 6.6 1.4
-8 1 -10 6.7 1
-8 1 -10 7 1.4
0 -2 10 420.06 17.2
0 2 10 422.26 11.8
0 2 10 425.86 12.2
0 -2 -10 394.86 13.3
0 -2 10 433.76 12.9
0 2 -10 377.06 16.6
0 2 -10 408.46 12.9
0 2 -10 424.46 11.8
0 -2 10 386.56 12.1
0 -2 10 416.06 11.3
0 -2 -10 424.16 12.1
0 2 -10 413.86 11.4
1 2 -10 18.6 0.8
-1 2 10 21 1.6
-1 2 10 19.4 1.4
1 2 -10 20.2 1.2
1 -2 10 26.6 4.7
1 -2 10 19.5 0.7
1 -2 10 19.8 1.6
1 -2 10 20.1 1.7
-1 2 -10 21.3 1.7
-1 2 -10 20 0.8
-1 -2 10 19.2 1.3
-1 2 -10 17.9 1
-1 2 -10 16.7 3.3
1 -2 -10 18.1 1.6
-1 -2 10 20.9 0.7
1 -2 -10 18.5 2.5
2 2 -10 142.49 4.6
2 -2 10 144.19 5.1
-2 2 10 149.59 5.9
-2 2 10 150.28 5.9
2 2 -10 146.39 4.4
-2 2 10 149.29 4.2
-2 2 10 144.99 4.2
2 -2 10 145.29 4.2
-2 -2 10 142.99 4.6
2 -2 -10 136.99 6.2
2 -2 -10 154.08 4.3
-2 2 -10 152.08 4.5
2 -2 -10 137.39 6.7
-2 -2 10 141.69 4.2
2 -2 -10 146.39 4.3
3 2 -10 17.8 1
3 -2 10 17.8 1.7
-3 2 10 19.7 0.9
3 2 -10 19.5 1.3
-3 2 10 18.8 0.8
-3 2 -10 19 1.1
3 -2 -10 20.3 1
-3 -2 10 20.5 0.9
-3 -2 10 20.8 1.2
3 -2 -10 20.8 1.1
4 2 -10 52.49 2.3
4 -2 10 53.59 2.8
4 2 -10 50.59 2.1
-4 2 10 58.69 2
-4 2 10 52.69 1.8
4 -2 -10 52.99 2.2
-4 2 -10 53.69 2.1
-4 -2 10 52.59 2.1
4 -2 -10 52.09 2
-4 -2 10 52.39 1.8
-4 2 -10 52.39 1.8
5 2 -10 6 1
-5 2 10 4.3 0.5
5 2 -10 7.1 1
-5 2 10 6.2 0.7
5 -2 10 5.9 0.6
5 -2 10 5.8 1.4
5 -2 -10 8.1 1
-5 2 -10 6.2 0.7
5 -2 -10 5.7 0.7
-5 2 -10 5.6 0.6
-5 -2 10 6.1 0.8
-5 -2 10 5.7 0.6
6 -2 10 6.5 0.9
6 2 -10 6.4 1.1
6 2 -10 5.9 1.6
6 -2 10 5.6 1.5
-6 2 10 6.5 0.8
-6 2 10 5.9 1
-6 2 -10 5.9 1
6 -2 -10 6.4 1.1
-6 -2 10 6.6 0.9
-6 -2 10 5.3 0.8
6 -2 -10 6 1.2
-6 2 -10 6.3 0.6
-7 2 10 11.8 1.4
-7 2 10 9.5 1.2
7 -2 10 11.3 1.4
7 2 -10 11.3 1.9
7 2 -10 9.1 2.3
7 -2 10 5.1 2.6
-7 2 -10 9.3 1.5
-7 -2 10 8.7 1.2
-7 2 -10 8.6 1
-7 -2 10 13.2 1.4
7 -2 -10 11.8 2.1
7 -2 -10 10.4 1.8
8 -2 10 6 1.5
8 -2 10 6.1 3.4
-8 2 -10 7.2 1.1
-8 2 -10 5.8 1.8
0 -3 10 6.7 0.4
0 3 -10 8.2 0.8
0 3 -10 7.2 0.5
0 -3 10 9.4 1.2
1 -3 10 10.7 0.5
1 -3 10 7.8 1.4
1 3 -10 11.5 1.1
1 3 -10 10.5 0.6
-1 3 -10 10.8 0.6
-1 3 -10 11.4 1
-1 -3 10 7.2 1
-1 -3 10 11.2 0.5
-2 3 10 19.3 0.8
2 -3 10 17.8 1.7
-2 3 10 18.5 0.8
2 3 -10 19.1 0.9
2 3 -10 18.6 1.4
2 -3 10 17.7 0.7
-2 -3 10 18.8 1.3
2 -3 -10 18.5 0.9
-2 -3 10 19.9 0.8
-2 3 -10 17.3 1
2 -3 -10 19.7 0.9
3 3 -10 209.18 6.1
3 3 -10 201.08 6.4
-3 3 10 209.18 5.8
3 -3 10 190.98 6.9
-3 3 10 206.28 5.9
-3 -3 10 212.68 6
3 -3 -10 205.68 6.1
-3 3 -10 215.68 6.4
-3 -3 10 211.98 6.4
3 -3 -10 211.78 6.3
4 3 -10 6 1
4 -3 10 6.3 1.4
-4 3 10 6.5 0.6
-4 3 10 5.5 0.5
4 3 -10 5.1 0.7
4 -3 -10 6.2 0.9
-4 -3 10 4.9 0.5
-4 -3 10 6.6 0.8
4 -3 -10 6.3 0.6
-4 3 -10 6.4 0.8
-5 3 10 10 0.8
5 3 -10 10.3 1.1
5 -3 10 9.3 0.8
5 -3 10 5.6 1.4
-5 3 10 9.1 0.8
5 3 -10 9.1 1.5
-5 3 -10 8.8 0.7
-5 -3 10 10.8 0.9
5 -3 -10 9.2 0.9
-5 -3 10 8.1 0.9
5 -3 -10 9.4 1.2
-5 3 -10 11.8 1.1
6 3 -10 16.7 2.4
6 -3 10 20.2 2.5
6 3 -10 19.4 1.7
-6 3 10 19.3 1.4
-6 3 10 18.6 1.1
6 -3 10 18 1.4
-6 3 -10 18.7 1.1
-6 -3 10 18.9 1.3
6 -3 -10 16.8 1.5
-6 3 -10 22.1 1.8
-6 -3 10 19.2 1.3
6 -3 -10 22.7 2
7 3 -10 4 1.4
7 -3 10 4.8 1.2
-7 3 10 3.7 1.1
7 3 -10 5.1 2.3
-7 3 10 2.8 0.9
7 -3 10 3.7 2.7
-7 -3 10 3.5 1.1
7 -3 -10 3.6 1.6
-7 3 -10 3.3 1.5
7 -3 -10 4.3 1.4
-7 -3 10 3.3 1
-7 3 -10 3.6 0.8
0 -4 10 173.48 4.8
0 4 -10 171.58 4.9
0 -4 10 166.48 5.9
0 4 -10 163.98 5.3
1 -4 10 20 0.8
1 4 -10 23.3 1.4
1 -4 10 17.1 1.8
1 4 -10 19.6 0.9
-1 4 -10 19.5 0.9
-1 -4 10 19.4 0.8
-1 -4 10 24.1 1.8
-1 4 -10 19.8 1.2
2 -4 10 116.59 3.4
2 4 -10 113.19 4
2 -4 10 110.09 4.5
2 4 -10 114.99 3.6
-2 -4 10 117.39 4.2
-2 -4 10 122.09 3.5
-2 4 -10 119.49 3.9
3 -4 10 7.8 1.4
3 4 -10 10.2 1.2
3 4 -10 8.2 0.8
-3 -4 10 9.3 0.6
-3 4 -10 8.4 0.9
-3 -4 10 10.5 1
4 4 -10 28.2 1.5
-4 4 10 29.3 1.2
-4 4 10 28.1 1.2
4 -4 10 26 2.5
4 4 -10 28.3 1.8
-4 -4 10 29.4 1.2
-4 4 -10 28.3 1.5
4 -4 -10 30.4 1.7
-4 -4 10 27.7 1.5
4 -4 -10 27.8 1.3
5 -4 10 8.8 0.9
5 4 -10 10 1.1
5 4 -10 8.2 1.7
5 -4 10 9.8 1.9
-5 4 10 10 0.8
-5 4 10 10.1 0.7
-5 -4 10 11.1 1.1
-5 4 -10 11.4 1.2
-5 -4 10 10.7 0.8
5 -4 -10 8.9 1.2
5 -4 -10 10.7 0.9
6 -4 10 2.7 1
6 4 -10 2.2 1
6 4 -10 2.1 2
6 -4 10 3.6 2
-6 4 10 2.9 0.6
-6 4 10 3.7 1
-6 4 -10 3.5 1.3
-6 -4 10 3.2 0.8
6 -4 -10 3.2 1
-6 -4 10 2.5 0.8
6 -4 -10 3.2 1
-7 4 10 2.4 0.9
7 -4 10 3.8 3
-7 4 10 2.7 1.1
7 4 -10 2.6 2.5
7 -4 10 1.7 1.2
7 4 -10 2.4 1.4
7 -4 -10 4.6 1.8
-7 4 -10 1.5 1.5
-7 -4 10 3.2 1
7 -4 -10 3.6 1.3
-7 -4 10 3.4 1.1
0 5 -10 6.7 0.9
0 -5 10 4.1 0.4
0 5 -10 5.1 0.5
0 -5 10 6.2 1.3
1 5 -10 6.1 1
1 5 -10 7 0.6
1 -5 10 6.9 0.5
1 -5 10 3.1 1.2
-1 -5 10 7.3 1.2
-1 5 -10 8.5 1
-1 -5 10 6.4 0.4
-1 5 -10 6.5 0.5
2 -5 10 12.9 0.7
2 5 -10 12.2 0.8
2 -5 10 13.3 1.8
2 5 -10 13.1 1.3
-2 -5 10 12.7 1.3
-2 -5 10 14.3 0.7
-2 5 -10 16.1 1.2
3 -5 10 26.7 2.5
3 5 -10 33.2 1.5
3 5 -10 33.7 2
-3 -5 10 34.2 1.3
-3 5 -10 34.8 1.7
-3 -5 10 36.4 1.9
4 5 -10 7.6 1.3
4 -5 10 2.7 1.3
4 5 -10 3.7 0.7
-4 -5 10 5.5 0.8
-4 -5 10 5.6 0.5
-4 5 -10 4.7 0.9
5 5 -10 3.2 1.8
5 -5 10 1 1.4
5 5 -10 1.8 0.7
-5 5 -10 3.1 1.2
-5 -5 10 1.2 0.6
-5 -5 10 2.8 0.7
6 -5 10 11.1 2.7
6 -5 10 11.2 1.4
6 5 -10 13.5 2.5
6 5 -10 11.8 1.7
-6 -5 10 13.6 1.1
-6 -5 10 12.2 1.4
-6 5 -10 9.7 1.7
7 5 -10 1.2 1.3
7 -5 10 0.6 1.1
7 -5 10 -0.8 3.1
7 5 -10 1.5 2.6
-7 -5 10 1 1
-7 5 -10 1 1.5
-7 -5 10 -0.6 0.9
0 -6 10 33 2.7
0 6 -10 30.7 1.3
0 6 -10 31.7 1.8
0 -6 10 30.8 1.1
1 6 -10 1.5 0.4
1 6 -10 1 0.7
1 -6 10 0.2 1
1 -6 10 1.1 0.3
-1 6 -10 1.3 0.3
-1 -6 10 1.4 0.3
-1 -6 10 0.6 1
-1 6 -10 2.9 0.7
2 -6 10 2.6 0.4
2 -6 10 3.1 1.3
2 6 -10 2.4 0.8
2 6 -10 2.5 0.5
-2 -6 10 2.8 0.3
-2 6 -10 3.4 0.5
-2 -6 10 2.3 0.9
-2 6 -10 2 0.6
3 6 -10 12.9 1
3 -6 10 14.6 2.1
3 6 -10 15 1.6
-3 6 -10 14.4 1.2
-3 -6 10 10.8 1.2
-3 -6 10 14.8 0.7
4 6 -10 10.2 1.8
4 -6 10 9.7 2
4 6 -10 10.8 1.1
-4 -6 10 10.7 1.2
-4 -6 10 12.3 0.8
-4 6 -10 12.9 1.4
5 -6 10 16.2 2.8
5 6 -10 18.1 2.5
5 6 -10 18.7 1.7
-5 -6 10 18.4 1.4
-5 -6 10 18.2 1.2
-5 6 -10 21.2 2
6 -6 10 5 1.2
6 6 -10 4.1 1.4
6 -6 10 1.4 2.6
6 6 -10 1.6 2.4
-6 -6 10 3.4 1.1
-6 -6 10 2.5 0.8
-6 6 -10 2 1.6
0 -7 10 9.6 1.6
0 -7 10 10 0.6
0 7 -10 9.8 0.7
0 7 -10 11.4 1.2
1 -7 10 0.9 0.3
1 7 -10 0.9 0.4
1 -7 10 0.7 1.1
1 7 -10 0.5 0.7
-1 7 -10 1.7 0.4
-1 -7 10 1.3 0.3
-1 7 -10 1.6 0.7
-1 -7 10 2.7 1.1
2 7 -10 41.1 2.3
2 7 -10 42.5 1.8
2 -7 10 37.8 3.3
2 -7 10 43.6 1.6
-2 7 -10 44.1 1.7
-2 7 -10 43.6 2.2
-2 -7 10 44.4 2.5
-2 -7 10 43.6 1.5
3 7 -10 13.6 1.8
3 -7 10 13.8 2.1
3 7 -10 13 1.1
-3 -7 10 12.7 1.3
-3 -7 10 13.2 0.8
-3 7 -10 12.9 0.9
-3 7 -10 11.7 1.4
4 7 -10 1.6 1.9
4 -7 10 1 1.5
4 7 -10 2.9 0.8
-4 -7 10 1.7 0.7
-4 -7 10 2 0.6
-4 7 -10 -0.6 1.3
5 7 -10 0.7 1
5 7 -10 0.5 2.1
5 -7 10 0.9 2.3
-5 -7 10 0.2 0.6
-5 -7 10 0.6 0.9
-5 7 -10 -0.8 1.5
6 7 -10 0.6 2.5
6 -7 10 4.6 3.4
6 -7 10 6 1.3
6 7 -10 6.2 1.6
-6 -7 10 5.1 0.9
-6 -7 10 5.1 1.2
-6 7 -10 5.3 1.7
0 -8 10 21.2 2.3
0 8 -10 19.6 1.8
0 8 -10 22.9 1.2
0 -8 10 22.3 1
1 8 -10 17.1 1.7
1 -8 10 16.2 2.2
1 8 -10 19.5 1.1
1 -8 10 18.5 1
-1 8 -10 19.3 1.1
-1 8 -10 20.8 1.8
-1 -8 10 20.4 0.9
-1 -8 10 17.5 1.9
2 -8 10 3.6 0.7
2 -8 10 4.9 1.6
2 8 -10 3.6 0.6
2 8 -10 3.5 1.4
-2 -8 10 3.3 0.5
-2 8 -10 5.1 0.6
-2 -8 10 2.7 1
-2 8 -10 2.1 1.2
3 8 -10 0.4 1.7
3 8 -10 0.5 0.5
3 -8 10 -0.5 1.2
-3 8 -10 -1.5 1.1
-3 -8 10 0.4 0.5
-3 -8 10 1.1 0.7
-3 8 -10 -0.2 0.4
4 -8 10 8.7 2.8
4 8 -10 9.9 2.4
4 8 -10 11.6 1.3
-4 -8 10 11.6 0.9
-4 -8 10 9.4 1.3
-4 8 -10 10.9 1.1
-4 8 -10 8.8 1.8
5 8 -10 0.2 2.4
5 8 -10 5.8 1.4
5 -8 10 1.1 2.7
-5 -8 10 3.6 0.8
-5 -8 10 1.8 1.1
-5 8 -10 1.3 1.5
0 9 -10 12.3 0.9
0 -9 10 12.7 0.9
0 -9 10 12.5 1.9
0 9 -10 10.3 1.8
1 -9 10 2.3 0.6
1 -9 10 -0.5 1.2
1 9 -10 3 0.6
1 9 -10 3.5 1.5
-1 9 -10 1.5 0.5
-1 9 -10 0.5 1.4
-1 -9 10 1.9 1.1
-1 -9 10 2.2 0.6
2 9 -10 6.1 0.9
2 -9 10 1.2 1.6
2 9 -10 7.9 1.9
2 -9 10 4.3 0.8
-2 -9 10 6.2 0.7
-2 9 -10 4.5 1.4
-2 -9 10 5.4 1.2
-2 9 -10 5 0.7
3 -9 10 9 2.6
-3 9 -10 16.5 1.9
-3 9 -10 18 1.3
4 -9 10 -0.7 2.8
-4 9 -10 -0.2 0.7
-4 9 -10 -1 1.5
5 -9 10 4.2 1.3
5 -9 10 4.7 3.6
-5 9 -10 3.7 1.7
-5 9 -10 2.5 1.1
0 -10 10 -2.6 2.2
1 -10 10 4.9 2
1 -10 10 5.4 0.9
-1 10 -10 3.2 0.8
-1 10 -10 6.4 1.7
2 -10 10 -0.9 2.3
-2 10 -10 0.3 0.7
-2 10 -10 0.6 1.6
3 -10 10 3.8 2.9
-3 10 -10 -0.4 1.5
-3 10 -10 1.4 0.8
4 -10 10 1.3 3.3
-4 10 -10 0.5 1.6
-4 10 -10 3.2 0.9
0 0 -11 8.1 2.2
0 0 11 1.7 0.5
0 0 -11 3.1 0.7
1 0 -11 14.1 1.7
1 0 11 19 1.5
-1 0 11 15.7 0.9
-1 0 -11 15.5 2.6
-1 0 11 14.4 0.6
-1 0 11 15.6 2.4
-1 0 -11 16.1 1.2
1 0 -11 12.6 0.9
1 0 -11 16.2 3.3
1 0 11 15.9 3.2
1 0 -11 14.9 0.7
-1 0 11 15.6 1.3
2 0 11 4.8 0.9
2 0 11 5.5 1
2 0 -11 5.4 0.7
-2 0 -11 5.9 1.7
-2 0 11 4.7 0.3
-2 0 -11 6.1 1
-2 0 -11 6.5 0.6
2 0 11 5.9 2.2
-2 0 11 4.7 0.6
2 0 -11 4.8 0.5
-3 0 -11 6.7 0.4
-3 0 11 7 0.7
-3 0 -11 7.4 0.6
3 0 -11 8.1 0.7
-3 0 11 7.3 0.5
3 0 -11 6.9 0.7
3 0 11 8.7 1.1
4 0 -11 17.6 1.2
-4 0 11 18.7 0.9
-4 0 11 16.1 1
4 0 11 15.7 1.6
4 0 -11 18 1.1
-4 0 -11 15.9 0.8
-4 0 -11 19.4 1
4 0 11 16.3 0.8
-5 0 11 22 1.1
5 0 -11 21.8 1.4
5 0 11 22.6 2
-5 0 -11 20.8 1
5 0 11 21.8 1
5 0 -11 23 1.5
-5 0 11 23.2 1.2
-5 0 -11 20.8 1.1
6 0 11 5 1.3
6 0 -11 2.2 0.8
-6 0 11 4.3 0.8
-6 0 11 4.8 0.7
6 0 -11 3.4 1.4
-6 0 -11 5.3 0.6
6 0 11 3.4 0.7
-6 0 -11 3 0.7
-7 0 11 2.6 1
-7 0 11 -0.4 0.8
7 0 -11 2 1.8
7 0 -11 -0.5 1.4
0 1 -11 67.99 5.7
0 -1 -11 71.99 4.8
0 -1 11 79.89 6.1
0 -1 11 75.59 2.9
0 -1 -11 78.19 3.2
0 1 11 76.19 4.2
0 1 -11 72.59 3.4
0 -1 11 72.29 2.2
0 1 11 74.49 2.9
0 1 -11 73.69 2.2
0 -1 11 78.79 3.3
-1 1 11 199.28 7.4
1 1 -11 164.08 9.7
-1 -1 -11 190.18 6.1
1 -1 11 186.78 5.3
1 1 -11 193.68 5.8
-1 1 11 194.88 6.6
1 -1 11 190.18 10.3
-1 -1 -11 192.98 7.7
1 1 -11 191.58 5.5
1 -1 11 192.08 6.2
1 -1 11 192.98 6.7
1 1 -11 196.08 7.2
1 -1 -11 178.68 8.7
-1 -1 11 199.28 6.9
-1 1 -11 196.18 5.4
-1 1 -11 210.68 9.7
-1 -1 11 187.48 9
1 -1 -11 191.98 7
-1 -1 11 192.68 5.9
1 1 11 191.88 8.6
-1 -1 11 185.28 5.4
-1 1 -11 189.98 5.7
-1 1 -11 196.18 6.7
-2 1 11 5.7 1.4
-2 -1 -11 5.1 0.9
2 -1 11 6.6 1
2 1 -11 5.1 0.7
-2 -1 -11 7.1 1.6
-2 1 11 6.5 0.5
2 -1 11 5.6 0.4
-2 1 11 5.6 0.4
-2 1 11 5.5 1.2
2 1 -11 6.1 0.6
2 -1 -11 3.8 1.8
-2 -1 11 4.9 0.7
2 -1 -11 6.7 1.4
-2 1 -11 6.6 0.6
2 -1 -11 5.7 0.5
2 1 11 5.6 1
-2 -1 11 5.1 0.4
2 -1 -11 5.2 0.6
2 1 11 6.8 2.1
3 1 -11 57.09 2.1
3 1 -11 56.59 2.2
-3 -1 -11 50.99 2.1
-3 1 11 58.09 1.9
3 -1 11 52.49 2.6
-3 -1 -11 56.19 1.7
-3 1 11 55.69 1.8
3 1 11 53.79 2.6
3 -1 -11 57.59 2.1
-3 1 -11 58.99 2
-3 -1 11 59.49 2.1
-3 -1 11 56.09 1.8
3 -1 -11 56.99 2
3 1 11 53.19 1.8
-4 1 11 233.48 6.9
4 -1 11 224.68 7.7
4 1 -11 229.18 7.1
-4 1 11 235.28 6.7
4 1 -11 246.78 7.2
-4 -1 11 242.38 6.9
-4 1 -11 239.48 6.8
4 -1 -11 237.78 7.1
-4 1 -11 236.78 7
4 -1 -11 239.08 7.2
-4 -1 11 234.88 7.1
5 1 -11 14.7 1.3
-5 1 11 14.5 0.9
5 1 -11 15.2 1.3
5 -1 11 14.7 1.8
-5 1 11 13.6 0.8
5 -1 11 13.9 0.8
5 -1 -11 12.5 1.1
-5 -1 11 14.3 0.9
-5 -1 11 14.9 1
5 -1 -11 14.3 1.3
-5 1 -11 14.4 1
-5 1 -11 14 0.8
-6 1 11 3.2 0.6
6 1 -11 2.4 1.3
6 -1 11 3.4 1.3
-6 1 11 5 0.9
6 1 -11 3 0.8
6 -1 11 1.8 0.7
-6 1 -11 2.5 0.8
-6 -1 11 3 0.8
-6 1 -11 3.5 0.5
6 -1 -11 4.6 1.3
-6 -1 11 2.8 0.6
6 -1 -11 2.3 0.8
7 1 -11 3.6 1.4
7 -1 11 3.5 2.2
7 1 -11 6.1 2
7 -1 11 3.9 1.1
-7 1 11 5.5 1
-7 1 11 6.8 1.2
-7 1 -11 4.1 1.1
7 -1 -11 7.2 1.8
-7 -1 11 5.1 1
-7 -1 11 4.3 1.1
7 -1 -11 5.3 1.7
-7 1 -11 5.4 0.8
8 -1 11 1.2 1.3
8 -1 11 0.5 2.9
-8 1 -11 1.8 1.2
-8 1 -11 1.4 1.1
0 2 -11 8.9 0.9
0 2 -11 8.2 0.5
0 -2 11 7.5 1.1
0 -2 11 7.9 0.4
1 2 -11 72.99 2.3
1 -2 11 75.19 3.2
-1 2 11 74.39 3.1
-1 2 11 77.29 3.5
1 -2 11 73.69 2.2
1 2 -11 76.19 2.8
-1 2 -11 76.59 2.3
-1 -2 11 79.39 3
-1 -2 11 76.79 2.3
1 -2 -11 70.39 4.6
1 -2 -11 73.09 3.5
-1 2 -11 78.79 2.7
-2 2 11 94.69 2.8
2 -2 11 92.89 2.8
-2 2 11 99.59 4.5
2 -2 11 93.39 3.8
-2 2 11 98.69 4.4
2 2 -11 92.49 3
2 2 -11 92.29 3.3
-2 2 11 95.69 2.9
2 -2 -11 91.99 4.8
-2 -2 11 96.09 3.3
2 -2 -11 102.59 5.6
-2 2 -11 93.99 3.1
-2 -2 11 94.09 2.8
2 -2 -11 92.19 2.9
2 -2 -11 95.69 3
-3 2 11 10.5 0.6
-3 2 11 10.2 0.6
3 2 -11 8.5 0.8
3 2 -11 9.4 1
3 -2 11 9.5 1.4
3 -2 -11 11 0.8
-3 2 -11 10.5 0.9
3 -2 -11 10 0.7
-3 -2 11 8.1 0.8
-3 -2 11 8.9 0.6
4 -2 11 2.2 1
4 2 -11 2.7 0.8
-4 2 11 3.5 0.5
-4 2 11 4.2 0.5
4 2 -11 3.2 0.7
-4 2 -11 3.8 0.6
-4 -2 11 3 0.4
-4 2 -11 3.4 0.4
-4 -2 11 4 0.7
4 -2 -11 3 0.6
4 -2 -11 3.6 0.5
-5 2 11 5.3 0.6
5 2 -11 5.1 1.1
-5 2 11 4.4 0.6
5 -2 11 2.1 1.1
5 -2 11 4.4 0.5
5 2 -11 4.3 0.8
-5 -2 11 4.1 0.6
-5 2 -11 4.1 0.5
5 -2 -11 3.6 0.7
5 -2 -11 4.3 0.9
-5 2 -11 3.3 0.7
-5 -2 11 3.7 0.7
6 -2 11 2.3 1.3
-6 2 11 4.5 0.7
6 2 -11 3.9 0.9
6 -2 11 4.7 0.9
-6 2 11 4.4 0.9
6 2 -11 2.9 1.7
6 -2 -11 7.1 1.3
-6 -2 11 6.4 1
6 -2 -11 6.8 1.1
-6 2 -11 6.2 1.1
-6 -2 11 4.9 0.8
-6 2 -11 5.6 0.6
7 2 -11 3 1.5
-7 2 11 2.4 0.8
7 -2 11 3.5 1.1
7 2 -11 1.9 2.1
7 -2 11 1.5 2.3
-7 2 11 4.5 1.1
-7 -2 11 3.1 1
7 -2 -11 2.3 1.5
-7 2 -11 4.1 0.7
-7 -2 11 2.3 1
-7 2 -11 2.3 1.2
7 -2 -11 2.5 1.6
0 -3 11 6.5 1.1
0 -3 11 8.6 0.4
0 3 -11 8.2 0.9
0 3 -11 8.5 0.5
1 3 -11 163.08 5.1
1 3 -11 158.18 4.7
1 -3 11 158.68 4.5
1 -3 11 154.88 5.6
-1 -3 11 160.28 5.5
-1 -3 11 165.28 4.7
-1 3 -11 164.18 5.1
-1 3 -11 165.78 4.7
2 3 -11 43.3 2
2 -3 11 43.1 2.6
2 3 -11 42.7 1.6
2 -3 11 43.9 1.5
-2 -3 11 44.5 2
-2 3 -11 44.3 1.8
-2 -3 11 42.4 1.4
3 3 -11 24.9 1.5
-3 3 11 23.9 1
3 3 -11 24.7 1.2
-3 3 11 23.6 1
3 -3 11 26 2.3
3 -3 -11 25.6 1.3
-3 -3 11 26.8 1.4
-3 -3 11 25.1 1
3 -3 -11 25.3 1.1
-3 3 -11 24.2 1.3
4 -3 11 57.89 3.3
-4 3 11 66.29 2.1
-4 3 11 65.49 2.2
4 3 -11 61.69 2.4
4 3 -11 61.49 2.8
4 -3 -11 65.59 2.6
-4 3 -11 66.09 2.5
4 -3 -11 66.49 2.3
-4 -3 11 67.39 2.5
-4 -3 11 69.29 2.2
5 3 -11 6.2 1.5
-5 3 11 7.9 0.7
5 -3 11 6.2 1.5
5 3 -11 7.1 0.9
-5 3 11 7.8 0.7
5 -3 11 7.2 0.8
-5 3 -11 7.6 1
-5 -3 11 7.7 0.9
-5 -3 11 8.7 0.8
5 -3 -11 8 0.9
5 -3 -11 9.3 1.2
6 -3 11 4.5 1.9
-6 3 11 5 0.9
6 3 -11 6.8 1.2
-6 3 11 5.6 0.8
6 -3 11 5.4 1
6 3 -11 6.6 2
-6 3 -11 5.4 1.2
-6 3 -11 5.4 0.6
6 -3 -11 5.4 1.2
6 -3 -11 4.6 1
-6 -3 11 5.4 0.9
-6 -3 11 6.5 1
7 -3 11 2.8 2.6
7 3 -11 -2.3 1.9
7 3 -11 2.4 1.6
7 -3 11 0.7 1
-7 3 11 -0.2 1
-7 3 11 2.1 0.9
-7 -3 11 1.2 0.9
-7 -3 11 0 1
7 -3 -11 1.9 1.4
-7 3 -11 1 1.2
7 -3 -11 1.5 1.7
-7 3 -11 1.9 0.7
0 -4 11 27.2 1
0 -4 11 25.7 2.2
0 4 -11 27.8 1.1
0 4 -11 28.9 1.6
1 -4 11 39.8 1.3
1 4 -11 39.4 1.5
1 -4 11 37.1 2.4
1 4 -11 38.6 2
-1 4 -11 42.2 1.9
-1 -4 11 42.6 1.4
-1 -4 11 37.8 2.3
-1 4 -11 42.6 1.5
2 -4 11 54.69 1.8
2 4 -11 56.19 2
2 -4 11 51.79 3
2 4 -11 52.39 2.5
-2 -4 11 60.99 2.6
-2 4 -11 59.09 2.3
-2 -4 11 58.79 1.9
3 -4 11 5.7 1.4
3 4 -11 3.8 1
3 4 -11 4.1 0.6
-3 -4 11 3.9 0.7
-3 -4 11 5.8 0.5
-3 4 -11 4.9 0.7
4 4 -11 4 0.9
4 4 -11 4.8 0.8
4 -4 11 3.5 1.4
-4 4 -11 4.2 0.8
-4 -4 11 5.6 0.5
-4 -4 11 4.4 0.7
5 -4 11 7.8 1.6
5 4 -11 8.5 1.7
-5 4 11 7.1 0.8
-5 4 11 6.7 0.7
5 4 -11 6.7 0.9
5 -4 -11 6.6 0.8
5 -4 -11 7.6 1.1
-5 4 -11 5.8 1.1
-5 -4 11 6.5 0.9
-5 -4 11 6.2 0.7
6 4 -11 7.8 2.3
6 -4 11 8.4 1.2
6 4 -11 10.7 1.5
-6 4 11 7.5 1
-6 4 11 10.9 1
6 -4 11 9 2.6
6 -4 -11 10.3 1.5
6 -4 -11 8.9 1.2
-6 -4 11 10.8 1.1
-6 -4 11 10.2 1.2
-6 4 -11 8.2 1.6
7 -4 11 11.7 1.6
7 4 -11 10.3 2
-7 4 11 12.7 1.3
7 4 -11 6.5 2.6
7 -4 11 5.8 3.3
-7 4 11 9.9 1.3
7 -4 -11 12 1.7
-7 -4 11 9.9 1.2
-7 4 -11 10.9 1.9
7 -4 -11 9.9 2.2
-7 -4 11 11.1 1.4
0 5 -11 1.6 0.4
0 -5 11 1.4 0.3
0 5 -11 2.1 0.6
0 -5 11 1.1 1
1 5 -11 0.6 0.3
1 -5 11 1.4 1.1
1 -5 11 0.3 0.2
1 5 -11 -0.2 0.5
-1 -5 11 0.8 0.2
-1 5 -11 0.5 0.3
-1 -5 11 1.3 0.9
-1 5 -11 1.3 0.5
2 -5 11 17.3 0.8
2 5 -11 16.9 1
2 -5 11 17.2 2
2 5 -11 17.3 1.6
-2 5 -11 17.2 0.9
-2 5 -11 15.6 1.3
-2 -5 11 19.5 0.8
-2 -5 11 16 1.5
3 -5 11 1.5 1.2
3 5 -11 3.8 1
3 5 -11 3.2 0.6
-3 5 -11 2.7 0.7
-3 -5 11 3.1 0.4
-3 -5 11 3.8 0.8
4 -5 11 20.3 2.4
4 5 -11 21.3 1.3
4 5 -11 30.7 2.4
-4 5 -11 24 1.7
-4 -5 11 25 1.5
-4 -5 11 22.9 1.1
5 5 -11 0 1.7
5 -5 11 -0.2 1.3
5 5 -11 1.5 0.7
-5 -5 11 0.2 0.6
-5 5 -11 -0.3 1.2
-5 -5 11 0.1 0.6
6 5 -11 8.3 2.6
6 5 -11 9.4 1.5
6 -5 11 9 2.9
6 -5 11 7.7 1.3
-6 -5 11 10.7 1.1
-6 -5 11 8 1.2
-6 5 -11 8.2 1.8
7 -5 11 0 3.2
7 -5 11 0.1 1.2
7 5 -11 -0.6 1.5
7 5 -11 0.6 2.4
-7 -5 11 0.7 0.9
-7 -5 11 1.2 1.1
-7 5 -11 2.5 1.7
0 -6 11 1.2 0.3
0 6 -11 3 0.7
0 6 -11 1.2 0.3
0 -6 11 2.6 1.1
1 -6 11 58.69 3.4
1 -6 11 67.09 2.1
1 6 -11 67.29 2.3
1 6 -11 62.69 2.8
-1 -6 11 68.19 2.1
-1 -6 11 61.09 3.2
-1 6 -11 72.39 2.8
-1 6 -11 64.79 2.3
2 6 -11 28.2 1.4
2 -6 11 24.7 2.5
2 -6 11 32.7 1.2
2 6 -11 25.4 1.9
-2 6 -11 28.6 1.7
-2 6 -11 32.5 1.3
-2 -6 11 32.8 2.1
-2 -6 11 31.1 1.2
3 6 -11 7.8 1.3
3 -6 11 6.1 1.6
3 6 -11 8.3 0.8
-3 -6 11 8.9 1.1
-3 6 -11 9.1 1.2
-3 -6 11 7.3 0.6
4 6 -11 4.1 1.8
4 6 -11 4.9 0.8
4 -6 11 5.7 1.7
-4 6 -11 5.2 1.2
-4 -6 11 3.5 0.6
-4 -6 11 4.7 0.8
5 6 -11 1.4 2.2
5 -6 11 -0.5 1.8
5 6 -11 2.6 0.9
-5 6 -11 1.8 1.4
-5 -6 11 2.9 0.9
-5 -6 11 3.6 0.8
6 -6 11 1.2 1
6 -6 11 2.2 3.2
6 6 -11 2 1.3
6 6 -11 2.4 2.5
-6 -6 11 3.1 0.9
-6 6 -11 5 1.7
-6 -6 11 2.4 1
0 7 -11 1.4 0.7
0 7 -11 1.1 0.4
0 -7 11 2.4 1.3
0 -7 11 0.9 0.3
1 -7 11 0.8 1.1
1 -7 11 0.9 0.3
1 7 -11 1.3 0.8
1 7 -11 1.1 0.4
-1 7 -11 1.7 0.4
-1 -7 11 0.3 0.9
-1 7 -11 1.3 0.6
-1 -7 11 1.6 0.3
2 7 -11 -0.5 0.8
2 7 -11 1.1 0.5
2 -7 11 -1 1.2
2 -7 11 0.6 0.3
-2 -7 11 0.2 0.3
-2 7 -11 -0.1 0.7
-2 7 -11 0.8 0.4
-2 -7 11 -1.9 0.7
3 -7 11 2.5 1.5
3 7 -11 1.5 1.5
3 7 -11 0.8 0.5
-3 -7 11 1.1 0.7
-3 -7 11 0.5 0.4
-3 7 -11 2.3 1.2
-3 7 -11 1 0.4
4 -7 11 2.5 2
4 7 -11 4.6 2
4 7 -11 3.5 0.9
-4 -7 11 5.6 1
-4 -7 11 4.2 0.7
-4 7 -11 2.6 1.3
5 7 -11 7.4 1.4
5 7 -11 5.5 2.4
5 -7 11 5.7 3
-5 -7 11 5.5 0.9
-5 7 -11 7.8 1.7
-5 -7 11 7.7 1.3
6 7 -11 0.1 2.6
6 -7 11 2.2 1.2
6 -7 11 6.2 3.6
6 7 -11 1.6 1.5
-6 -7 11 1.7 0.8
-6 -7 11 1.4 1.1
-6 7 -11 1.4 1.7
0 8 -11 6.3 0.7
0 8 -11 2 1.2
0 -8 11 7.2 1.5
0 -8 11 6.7 0.6
1 8 -11 6.8 1.5
1 -8 11 11.2 2
1 -8 11 8.6 0.7
1 8 -11 10.5 1
-1 8 -11 11.4 0.8
-1 -8 11 10.8 0.8
-1 -8 11 5.8 1.5
-1 8 -11 12.6 1.5
2 -8 11 3 0.7
2 -8 11 1.3 1.3
2 8 -11 2.7 1.5
2 8 -11 2.4 0.6
-2 8 -11 3.2 1.4
-2 8 -11 2.5 0.5
-2 -8 11 3.9 1.1
-2 -8 11 1.9 0.5
3 8 -11 2.1 0.7
3 8 -11 4.8 1.9
3 -8 11 1 1.8
-3 8 -11 2.9 1.5
-3 -8 11 3.7 1
-3 8 -11 4.4 0.7
-3 -8 11 3.5 0.6
4 -8 11 19 3.5
4 8 -11 19.6 2.8
4 8 -11 17.2 1.6
-4 8 -11 18.3 1.4
-4 -8 11 18.2 1.2
-4 8 -11 19.2 2.2
-4 -8 11 18.7 1.7
5 8 -11 0.6 2.5
5 -8 11 0.9 3.1
5 8 -11 3.2 1.4
-5 -8 11 2 0.7
-5 8 -11 0.8 1.6
-5 -8 11 3.8 1.2
0 9 -11 4.1 0.7
0 -9 11 3.9 1.4
0 9 -11 4.2 1.7
0 -9 11 3.3 0.6
1 9 -11 2.4 0.7
1 9 -11 2.3 1.6
1 -9 11 2.1 1.4
1 -9 11 1.3 0.7
-1 9 -11 1.6 0.6
-1 -9 11 0.8 1.2
-1 9 -11 2.8 1.5
-1 -9 11 1.3 0.6
2 9 -11 2.1 1.8
2 9 -11 -0.1 0.6
2 -9 11 0.1 0.7
2 -9 11 -0.7 1.7
-2 9 -11 -0.3 0.5
-2 -9 11 -0.4 0.9
-2 9 -11 -0.1 1.5
-2 -9 11 0.1 0.5
3 -9 11 7.2 2.9
3 9 -11 5.5 1.1
3 9 -11 3.3 2.1
-3 9 -11 4.9 0.9
-3 -9 11 6.4 0.8
-3 -9 11 7.1 1.3
-3 9 -11 7.7 1.8
4 -9 11 5.6 3.2
-4 9 -11 6.2 1.8
-4 9 -11 3.8 0.9
0 10 -11 1.6 1.6
0 -10 11 -1.8 1.6
0 -10 11 0.4 0.7
0 10 -11 -0.3 0.7
1 -10 11 2.5 0.8
1 -10 11 2.1 2.1
-1 10 -11 1.9 1.7
-1 10 -11 4.5 0.9
2 -10 11 1 0.8
2 -10 11 2.9 2.5
-2 10 -11 -1.1 1.5
-2 10 -11 1 0.8
3 -10 11 3.9 3.1
-3 10 -11 3.4 1.7
-3 10 -11 1.2 0.8
0 0 12 8.3 1.1
0 0 -12 16.7 1.4
0 0 -12 25.6 3.5
0 0 12 11 0.4
-1 0 12 26.6 0.9
1 0 -12 26.7 4.2
-1 0 12 26 1.3
1 0 12 24.3 4.1
-1 0 -12 25.7 1.1
1 0 -12 24.7 2
1 0 12 25 0.8
1 0 12 25.7 1.6
-1 0 12 35 3.8
-1 0 -12 26.6 0.9
1 0 -12 25.6 1
-1 0 -12 26.2 1.7
-1 0 12 27.1 1.8
1 0 -12 25.1 1.3
-1 0 -12 37.3 4.2
-2 0 12 1.7 0.2
2 0 12 1.4 0.2
-2 0 12 1.8 0.4
-2 0 -12 0.6 0.5
2 0 -12 1.4 0.3
2 0 12 -0.8 1.6
2 0 -12 1.4 0.5
2 0 12 1 0.7
-2 0 -12 1.2 1.1
2 0 12 1.3 0.7
-2 0 -12 1.5 0.4
-3 0 12 408.66 11.3
3 0 12 397.46 12.1
-3 0 12 399.46 11.5
-3 0 -12 410.96 11.4
3 0 -12 407.66 11.5
3 0 -12 409.26 11.6
-4 0 12 10.6 0.9
-4 0 -12 11.6 0.6
-4 0 -12 11.5 0.9
4 0 12 12.3 0.7
4 0 -12 12 1.1
-4 0 12 10.5 0.7
4 0 12 10.7 1.3
4 0 -12 13.5 1.1
5 0 12 0.2 0.8
5 0 12 2 0.4
5 0 -12 1.3 0.6
-5 0 -12 1.4 0.3
-5 0 -12 2.7 0.5
5 0 -12 2.3 0.6
-5 0 12 1.6 0.4
-5 0 12 2.2 0.5
6 0 -12 2.1 1.4
-6 0 12 2.4 0.6
-6 0 12 2.3 0.9
6 0 -12 2.4 0.8
7 0 -12 1.4 1.9
-7 0 12 1.7 1.1
-7 0 12 0.3 0.8
7 0 -12 0.3 1.4
0 -1 -12 71.39 5
0 -1 12 74.59 3.4
0 1 -12 74.69 3.5
0 -1 12 76.79 2.9
0 1 12 75.19 3
0 1 -12 79.89 2.7
0 -1 12 76.09 2.2
0 1 -12 61.69 5.7
0 1 12 76.69 4.4
0 -1 -12 73.99 3.2
0 1 -12 75.99 2.3
0 -1 12 76.69 6.1
-1 -1 -12 122.09 5.8
1 1 -12 117.99 3.8
-1 1 12 117.39 4.5
1 -1 12 115.89 3.3
-1 1 12 118.49 3.3
1 -1 12 111.59 7.9
1 1 -12 113.49 3.4
-1 1 12 117.79 5.4
-1 -1 -12 114.09 4.1
1 -1 12 111.19 4.2
1 -1 12 114.99 4.7
-1 1 12 117.19 3.5
1 -1 -12 111.99 3.6
-1 -1 12 122.79 3.9
-1 1 -12 114.89 4.6
-1 -1 12 113.89 3.3
-1 1 -12 117.49 3.4
1 1 12 116.69 6.5
-1 1 -12 116.49 3.6
1 -1 -12 113.29 6.8
1 -1 -12 116.39 3.4
1 -1 -12 114.09 4.9
-1 1 -12 106.29 6.9
-2 1 12 15.7 0.6
-2 1 12 14.3 0.8
2 1 -12 15.3 1.1
2 -1 12 16.6 0.7
2 1 -12 15.2 0.8
2 -1 12 17.7 1.6
-2 1 -12 15.8 0.9
-2 -1 12 16.1 1.1
2 -1 -12 17.1 0.9
-2 -1 12 16.9 0.7
2 -1 -12 17 1
3 1 -12 34.9 1.5
-3 1 12 34.4 1.4
3 1 -12 34.1 1.7
3 -1 12 36 2.2
-3 1 12 33.6 1.2
3 -1 -12 33.8 1.5
3 -1 -12 33.3 1.5
-3 -1 12 36.8 1.3
-3 1 -12 34.2 1.5
-3 -1 12 34.6 1.5
4 -1 12 106.89 4.4
4 1 -12 113.79 4
-4 1 12 118.19 3.6
4 1 -12 111.79 3.8
-4 1 12 115.49 3.5
-4 -1 12 113.39 3.8
4 -1 -12 118.89 4
-4 1 -12 119.99 3.8
-4 1 -12 120.39 3.5
4 -1 -12 117.19 3.9
-4 -1 12 116.69 3.6
5 -1 12 16.1 1.9
-5 1 12 21.4 1.1
5 -1 12 18.7 1
5 1 -12 20.2 1.7
5 1 -12 18.1 1.5
-5 1 12 17.9 1
-5 1 -12 18.5 1.1
5 -1 -12 19.7 1.3
5 -1 -12 21.3 1.4
-5 -1 12 19.5 1.1
-5 -1 12 17.3 1.2
-5 1 -12 18.5 0.9
6 1 -12 6 1.1
6 -1 12 3.3 0.8
-6 1 12 5 0.8
6 1 -12 5.1 1.6
6 -1 12 2 1.2
-6 1 12 4.1 0.9
-6 1 -12 3.3 0.9
-6 1 -12 4.3 0.6
6 -1 -12 4.9 1.3
-6 -1 12 5.2 0.8
-6 -1 12 4.7 0.9
6 -1 -12 5.3 1.1
-7 1 12 3.1 1
-7 1 12 4 1.2
7 -1 12 2.1 1.1
7 1 -12 5 1.7
7 -1 12 4.6 2.3
7 1 -12 6.1 2
-7 -1 12 2.7 1
-7 1 -12 3.7 0.7
-7 1 -12 2.5 1.1
7 -1 -12 4.4 1.8
-7 -1 12 2.5 1
7 -1 -12 1.2 1.6
0 -2 12 0.2 0.2
0 -2 12 0.4 0.8
0 2 -12 0.7 0.5
0 2 -12 0.2 0.2
1 -2 12 100.49 4
1 2 -12 103.29 3.2
1 2 -12 107.59 3.6
1 -2 12 103.89 3
-1 2 -12 108.99 3.2
-1 -2 12 112.89 3.9
-1 -2 12 108.49 3.2
-1 2 -12 109.99 3.6
2 2 -12 20.2 1
2 2 -12 19 1.3
2 -2 12 18.3 1.7
-2 2 12 21.3 0.9
2 -2 12 19.6 0.8
-2 2 12 21.1 0.8
-2 -2 12 20.2 0.8
-2 2 -12 20.1 1.1
-2 -2 12 20 1.2
2 -2 -12 18.2 0.9
2 -2 -12 20.1 0.9
3 -2 12 71.79 3.5
-3 2 12 79.49 2.5
3 2 -12 77.59 2.7
3 2 -12 81.29 3
-3 2 12 78.19 2.4
3 -2 -12 75.99 2.6
3 -2 -12 78.49 2.7
-3 2 -12 83.99 2.8
-3 -2 12 78.09 2.8
-3 -2 12 78.39 2.4
4 2 -12 58.19 2.3
4 2 -12 56.49 2.5
4 -2 12 50.89 3
-4 2 12 59.19 1.9
-4 2 12 55.19 2
4 -2 -12 57.79 2.2
4 -2 -12 59.39 2.4
-4 2 -12 57.89 2.2
-4 -2 12 60.59 2
-4 -2 12 55.89 2.2
-5 2 12 0.4 0.4
5 2 -12 0.6 0.5
5 2 -12 2.4 1
5 -2 12 1.3 1
-5 2 12 0.3 0.4
5 -2 12 0.8 0.4
5 -2 -12 0.4 0.6
-5 -2 12 -0.3 0.4
-5 -2 12 1.2 0.5
-5 2 -12 1.2 0.5
-5 2 -12 0.4 0.3
5 -2 -12 -0.2 0.5
6 2 -12 1.4 0.9
-6 2 12 1.2 0.8
6 -2 12 0.2 1.3
6 2 -12 1.4 1.8
6 -2 12 2.6 0.9
-6 2 12 1.4 0.5
-6 -2 12 2 0.7
-6 -2 12 2.4 0.9
-6 2 -12 1.7 0.4
6 -2 -12 2.1 1.1
6 -2 -12 3 1
-6 2 -12 2.8 1
-7 2 12 -0.2 0.8
7 2 -12 0.7 2.3
7 2 -12 -0.7 1.4
7 -2 12 0 2.4
-7 2 12 -0.4 1
7 -2 12 1.9 1.1
-7 -2 12 2.2 1.1
7 -2 -12 2.8 1.5
-7 2 -12 -0.2 0.6
7 -2 -12 0.4 1.5
-7 -2 12 -0.1 0.9
-7 2 -12 1.4 1.2
0 -3 12 19.1 1.7
0 3 -12 20 1.3
0 3 -12 19.6 0.8
0 -3 12 19.3 0.8
1 -3 12 182.88 6.3
1 -3 12 179.28 5.1
1 3 -12 173.48 5.7
1 3 -12 182.88 5.2
-1 -3 12 186.68 6.2
-1 3 -12 190.98 5.8
-1 3 -12 187.08 5.4
-1 -3 12 185.58 5.3
2 3 -12 14.1 1.3
2 -3 12 12 1.6
2 3 -12 11.3 0.7
2 -3 12 12 0.6
-2 -3 12 13.4 0.6
-2 3 -12 13.9 1
-2 -3 12 11.5 1.2
3 -3 12 31.3 2.2
3 3 -12 31 1.4
3 3 -12 31.4 1.8
-3 -3 12 31.4 1.6
-3 -3 12 29.3 1.1
-3 3 -12 29.5 1.5
4 -3 12 12.1 1.7
-4 3 12 11.7 0.8
4 3 -12 13.8 1.5
-4 3 12 11.6 0.7
4 3 -12 12.1 1.1
-4 -3 12 12.9 0.8
-4 3 -12 13.2 1.1
4 -3 -12 13.5 0.9
4 -3 -12 14 1.2
-4 -3 12 12.4 1.1
5 3 -12 11.5 1.7
5 -3 12 13.9 2
5 -3 12 12.3 1
-5 3 12 12.9 0.9
5 3 -12 14.1 1.3
-5 3 12 10.6 0.8
-5 -3 12 12.9 1.2
5 -3 -12 13.5 1.1
-5 -3 12 13.7 1
5 -3 -12 13.4 1.4
-5 3 -12 13.9 1.3
6 -3 12 9.7 1.2
-6 3 12 8.4 1
6 3 -12 7.3 2.3
-6 3 12 7.1 0.8
6 -3 12 6.9 2.1
6 3 -12 10 1.5
-6 -3 12 9.9 1.2
-6 3 -12 10.5 1.5
-6 -3 12 10.3 1.1
6 -3 -12 9.2 1.3
6 -3 -12 10.4 1.4
-7 3 12 1.8 1
7 -3 12 1.1 1.1
-7 3 12 -0.3 0.8
7 3 -12 -0.5 1.3
7 3 -12 -0.1 2.2
7 -3 12 5.7 2.7
-7 -3 12 0.4 1
7 -3 -12 3 1.4
7 -3 -12 4.6 1.8
-7 3 -12 1.2 1.4
-7 -3 12 0.9 1
0 -4 12 0.2 0.2
0 -4 12 1.2 0.9
0 4 -12 0.3 0.2
0 4 -12 -0.3 0.5
1 -4 12 36.6 1.2
1 -4 12 31.3 2.6
1 4 -12 36.5 1.4
1 4 -12 34.8 1.9
-1 4 -12 36.5 1.7
-1 4 -12 36.4 1.3
-1 -4 12 35.1 1.2
-1 -4 12 33.3 2.2
2 -4 12 14 0.7
2 4 -12 12.1 1.3
2 -4 12 14.6 1.8
2 4 -12 14.5 0.9
-2 -4 12 16.4 0.7
-2 4 -12 14.4 0.8
-2 -4 12 13.3 1.4
-2 4 -12 18.2 1.2
3 4 -12 12 0.9
3 4 -12 10.6 1.3
3 -4 12 10.4 1.7
-3 -4 12 13.1 1.3
-3 4 -12 13 1.2
-3 -4 12 12.1 0.7
4 4 -12 4.6 0.7
4 4 -12 5.3 1.1
4 -4 12 4.1 1.3
-4 -4 12 4.6 0.8
-4 -4 12 4.8 0.5
-4 4 -12 3.8 0.7
5 -4 12 -0.9 1.2
5 4 -12 0.9 0.6
5 4 -12 0.3 1.7
-5 4 -12 0.6 1.1
-5 -4 12 1.2 0.6
-5 -4 12 0.2 0.6
-6 4 12 4.4 1.1
6 -4 12 5.7 1.1
6 4 -12 3.9 2.4
-6 4 12 3.6 0.8
6 -4 12 2.3 2.5
6 4 -12 4.4 1.2
-6 -4 12 4.1 1
-6 4 -12 3.4 1.3
6 -4 -12 3.7 1.1
6 -4 -12 5.2 1.4
-6 -4 12 3.2 0.9
7 -4 12 3.1 3.3
7 -4 12 2.6 1.2
-7 4 12 4.3 1.1
-7 4 12 4.1 0.9
7 4 -12 2.5 1.4
7 4 -12 3.7 2.4
7 -4 -12 4 1.9
7 -4 -12 1.3 1.4
-7 -4 12 4.2 1.2
-7 4 -12 3.1 1.6
-7 -4 12 3.1 1
0 -5 12 70.39 2.2
0 -5 12 65.29 3.3
0 5 -12 64.69 2.8
0 5 -12 72.59 2.3
1 -5 12 67.49 3.7
1 5 -12 73.99 2.5
1 -5 12 76.29 2.3
1 5 -12 71.19 3
-1 -5 12 78.09 2.4
-1 5 -12 77.79 2.5
-1 -5 12 67.69 3.3
-1 5 -12 73.69 2.9
2 -5 12 24.4 1
2 5 -12 21.1 1.1
2 5 -12 20.6 1.8
2 -5 12 20.7 2.2
-2 5 -12 24.2 1.1
-2 -5 12 24.1 1
-2 5 -12 24 1.5
-2 -5 12 26.8 1.9
3 5 -12 12.4 1.4
3 -5 12 9 1.8
3 5 -12 12.2 0.9
3 -5 12 11.5 0.7
-3 5 -12 14.1 1.3
-3 -5 12 14.7 0.7
-3 -5 12 13.7 1.3
4 -5 12 2.7 1.5
4 5 -12 4.9 1.6
4 5 -12 7.2 0.9
-4 -5 12 7.3 0.7
-4 5 -12 6.8 1.1
-4 -5 12 4.9 0.8
5 5 -12 10 1.2
5 -5 12 7.8 2.1
5 5 -12 7.3 2.3
-5 5 -12 10 1.6
-5 -5 12 9.5 1.1
-5 -5 12 8.4 0.9
6 -5 12 4.6 3
6 5 -12 2.4 1.3
6 -5 12 2.6 1.1
6 5 -12 1.3 2.5
-6 5 -12 3.1 1.4
-6 -5 12 4.6 1
-6 -5 12 3.5 1.1
7 -5 12 2.1 3.6
7 5 -12 0.1 1.4
7 5 -12 -1.4 2.6
7 -5 12 0.8 1.6
-7 -5 12 0.8 1
-7 5 -12 -0.7 2
-7 -5 12 0.3 1.2
1 -6 12 6.9 0.5
1 6 -12 6.2 1
1 6 -12 7.4 0.7
1 -6 12 2.6 1.4
-1 -6 12 8 1.4
-1 6 -12 7.7 0.7
-1 -6 12 7.3 0.6
-1 6 -12 7.7 1
2 6 -12 18.3 1.1
2 -6 12 16.8 2.3
2 6 -12 14.6 1.6
2 -6 12 16.9 0.9
-2 6 -12 20.1 1.6
-2 6 -12 18.5 1
-2 -6 12 15.9 1.6
-2 -6 12 16.6 0.8
3 6 -12 9 1.5
3 6 -12 9 0.9
3 -6 12 8.3 1.7
-3 6 -12 9.5 1.3
-3 -6 12 9.2 1.2
-3 -6 12 10.2 0.7
-3 6 -12 9.1 0.8
4 -6 12 3.3 1.5
4 6 -12 2.3 0.6
4 6 -12 3 2
-4 -6 12 2 0.6
-4 -6 12 1.2 0.6
-4 6 -12 1.7 1.3
5 -6 12 0.9 2.4
5 6 -12 0.6 0.9
5 6 -12 0.1 2.2
-5 6 -12 1.8 1.6
-5 -6 12 0.9 0.8
-5 -6 12 0.6 0.6
6 6 -12 1.7 2.4
6 -6 12 1.5 2.8
6 6 -12 2 1.4
6 -6 12 0.5 1.2
-6 6 -12 1.4 1.7
-6 -6 12 2.5 0.8
-6 -6 12 0.8 1.1
0 -7 12 22.5 2.4
0 7 -12 28.5 1.3
0 7 -12 30.1 1.9
0 -7 12 28.7 1.2
1 -7 12 21.9 2.6
1 7 -12 25.5 2
1 -7 12 27.4 1.2
1 7 -12 27.9 1.3
-1 -7 12 27.4 2.4
-1 7 -12 27.6 1.3
-1 7 -12 26.1 1.9
-1 -7 12 29.3 1.2
2 -7 12 5.8 0.6
2 -7 12 4.9 1.6
2 7 -12 4.4 0.7
2 7 -12 7.1 1.5
-2 7 -12 7.7 1.3
-2 7 -12 4.4 0.6
-2 -7 12 4 1
-2 -7 12 7 0.6
3 7 -12 14.4 1.2
3 7 -12 10.2 2
3 -7 12 13.6 2.4
-3 7 -12 12.1 0.9
-3 7 -12 11.7 1.6
-3 -7 12 12.1 1.4
-3 -7 12 11.3 0.8
4 -7 12 1.5 1.9
4 7 -12 0.9 1.8
4 7 -12 0.7 0.8
-4 -7 12 1.1 0.8
-4 -7 12 0.7 0.6
-4 7 -12 0.5 1.4
5 7 -12 1.1 2.3
5 7 -12 1 1.1
5 -7 12 4.2 3.2
-5 -7 12 2.1 0.8
-5 -7 12 3.8 1.2
-5 7 -12 1.2 1.7
6 7 -12 4.3 2.7
6 -7 12 0.2 1.1
6 7 -12 0.4 1.4
6 -7 12 0.9 3.2
-6 -7 12 0.3 0.8
-6 7 -12 0.1 1.5
-6 -7 12 1.9 1.2
0 -8 12 0.6 0.5
0 -8 12 -1.9 1
0 8 -12 0.2 0.3
0 8 -12 0.9 1.3
1 -8 12 4.5 1.6
1 -8 12 5.9 0.7
1 8 -12 6.3 0.8
1 8 -12 6 1.6
-1 -8 12 6.9 0.7
-1 -8 12 7.7 1.6
-1 8 -12 4.4 1.4
-1 8 -12 6.4 0.8
2 8 -12 13.1 1.1
2 -8 12 11.4 2.2
2 8 -12 16.8 2.2
2 -8 12 15.4 1.1
-2 8 -12 13.5 1.8
-2 -8 12 15.5 1.8
-2 8 -12 15 1
-2 -8 12 15.8 1
3 8 -12 6.8 2.1
3 -8 12 12.4 2.8
3 8 -12 8.5 1.1
-3 -8 12 8.5 0.8
-3 8 -12 5.9 1.7
-3 8 -12 7.1 0.9
-3 -8 12 7.8 1.2
4 -8 12 9.7 3.1
4 8 -12 11.1 2.6
4 8 -12 8.3 1.3
-4 8 -12 7.6 1
-4 -8 12 11.4 1
-4 -8 12 5.7 1.3
-4 8 -12 9 1.9
5 -8 12 3.9 3.3
5 8 -12 1.6 1.4
5 8 -12 1.1 2.6
-5 -8 12 3.7 1.3
-5 -8 12 3.9 0.8
-5 8 -12 3.4 1.8
0 -9 12 5.4 1.5
0 -9 12 4.2 0.7
0 9 -12 4.5 0.8
0 9 -12 5 1.7
1 9 -12 7.9 1
1 -9 12 7.1 2
1 9 -12 6.5 1.9
1 -9 12 9 0.9
-1 -9 12 5 1.4
-1 9 -12 6.1 1.7
-1 -9 12 8.5 0.8
-1 9 -12 9.3 1
2 -9 12 0.2 0.8
2 -9 12 -3.2 1.9
2 9 -12 0.8 1.9
2 9 -12 0.5 0.8
-2 -9 12 -0.3 0.5
-2 9 -12 -0.4 0.6
-2 9 -12 -1.4 1.5
-2 -9 12 0.6 1.2
3 9 -12 5.2 2.2
3 9 -12 6.4 1.2
3 -9 12 4.3 2.9
-3 9 -12 5.2 1.7
-3 -9 12 5.9 0.8
-3 9 -12 6.6 1
-3 -9 12 7 1.5
4 9 -12 -0.2 1.1
4 -9 12 2.8 3.3
4 9 -12 0.8 2.3
-4 -9 12 1.7 1.2
-4 9 -12 0.3 0.8
-4 -9 12 1.9 0.7
-4 9 -12 0.8 1.7
0 10 -12 0 0.8
0 10 -12 1.1 1.8
0 -10 12 0.9 2
0 -10 12 0.3 0.7
1 -10 12 0.3 0.7
1 10 -12 -2.5 1.7
1 10 -12 0.7 0.9
1 -10 12 -2.1 2
-1 10 -12 1.6 0.8
-1 10 -12 1.4 1.7
-1 -10 12 2.1 1.8
-1 -10 12 0.2 0.7
2 -10 12 0.2 2.7
2 -10 12 2.2 0.9
-2 10 -12 0.6 1.7
-2 10 -12 2.1 0.9
3 -10 12 -3.3 3.1
-3 10 -12 2 1.7
-3 10 -12 0.5 0.9
0 0 -13 8.2 1.2
0 0 13 3.7 0.8
-1 0 13 176.98 5.4
-1 0 13 170.88 8.1
1 0 -13 181.48 5.1
-1 0 -13 188.28 8.8
1 0 -13 170.58 9.6
-1 0 -13 178.48 6.2
-1 0 13 176.98 4.9
1 0 -13 177.08 5.4
1 0 13 175.08 4.9
-1 0 13 181.68 6.4
1 0 13 170.18 9.5
-1 0 -13 179.38 5.2
1 0 13 166.88 5.7
1 0 -13 168.08 6.8
-1 0 -13 180.98 5
2 0 13 83.89 7
-2 0 -13 90.19 5.7
-2 0 -13 90.39 3.8
2 0 -13 91.19 3.1
2 0 13 82.69 3.4
-2 0 13 86.39 2.6
2 0 13 91.39 4
2 0 13 88.79 2.6
2 0 -13 91.69 2.8
-2 0 13 88.29 2.9
-2 0 -13 89.59 2.8
3 0 -13 10.8 1
3 0 -13 11.7 0.9
3 0 13 10.9 1.3
-3 0 13 11.4 0.8
-3 0 13 10.9 0.6
-3 0 -13 9.9 0.7
-4 0 13 2.5 0.5
-4 0 -13 2.6 0.5
4 0 13 2.3 0.9
4 0 13 1.8 0.3
4 0 -13 2.3 0.7
4 0 -13 2.7 0.6
-4 0 13 2.4 0.4
5 0 -13 8.5 1.1
-5 0 13 9.4 0.9
5 0 -13 8 1
-5 0 13 6.7 0.7
6 0 -13 1 0.8
-6 0 13 0.8 0.6
6 0 -13 0.9 1.5
-6 0 13 1.6 0.9
-7 0 13 0.9 0.9
7 0 -13 1 2
-7 0 13 0.2 1
7 0 -13 0.4 1.5
0 -1 13 91.59 2.7
0 1 -13 97.79 3.2
0 1 13 89.69 3.7
0 -1 13 102.59 3.6
0 1 -13 94.99 2.8
0 -1 -13 82.59 5.6
0 1 13 93.29 5.3
0 -1 -13 93.59 4.2
-1 1 13 89.09 4.6
1 -1 13 84.09 2.5
-1 1 13 88.89 2.7
-1 1 13 89.09 3.6
1 1 -13 82.99 3
-1 1 13 83.79 2.4
1 -1 13 75.69 3.3
1 1 -13 81.39 2.6
1 -1 -13 85.09 4.1
1 -1 -13 85.89 2.6
1 -1 -13 86.99 2.8
-1 -1 13 85.49 3
1 -1 -13 76.39 5.8
-1 1 -13 83.29 2.5
-1 1 -13 80.89 2.8
-1 -1 13 82.79 2.5
-2 1 13 67.69 2.3
-2 1 13 69.39 2.1
2 1 -13 68.49 2.3
2 1 -13 68.59 2.6
2 -1 13 72.19 3.1
2 -1 13 69.69 2.1
-2 -1 13 72.59 2.5
2 -1 -13 68.29 2.3
-2 1 -13 68.99 2.4
2 -1 -13 64.49 2.4
-2 -1 13 68.49 2.1
3 1 -13 4.4 0.8
3 1 -13 4.6 0.6
3 -1 13 4.6 1.2
-3 1 13 5.3 0.6
-3 1 13 5.3 0.5
3 -1 -13 4.5 0.7
-3 1 -13 4.1 0.6
-3 -1 13 4.9 0.6
3 -1 -13 4.4 0.6
-3 -1 13 4.6 0.4
4 1 -13 2.4 0.6
-4 1 13 2.7 0.5
4 1 -13 2.4 0.7
-4 1 13 2.8 0.4
4 -1 13 0.3 0.8
4 -1 -13 1.7 0.6
4 -1 -13 1.2 0.5
-4 -1 13 2.8 0.4
-4 1 -13 3.4 0.6
-4 -1 13 1.7 0.5
5 -1 13 4.2 1.2
5 -1 13 2.9 0.5
5 1 -13 3.2 0.7
-5 1 13 3 0.6
5 1 -13 3.9 1.1
-5 1 13 3.8 0.6
-5 -1 13 2.5 0.6
5 -1 -13 3.1 0.8
5 -1 -13 3.6 0.8
-5 1 -13 2.3 0.4
-5 1 -13 3 0.6
-5 -1 13 2.9 0.6
-6 1 13 2.3 0.8
6 1 -13 3 1.7
-6 1 13 1.8 0.6
6 -1 13 2.7 1.3
6 -1 13 2.3 0.8
6 1 -13 1.5 0.8
-6 1 -13 2.7 0.5
6 -1 -13 2.9 1.3
-6 1 -13 1.8 0.9
-6 -1 13 4.2 0.9
-6 -1 13 1.9 0.7
6 -1 -13 3.3 0.9
7 1 -13 6.6 2.5
-7 1 13 5.3 1.2
-7 1 13 7.6 1.1
7 1 -13 5.3 1.7
7 -1 -13 4.9 1.9
7 -1 -13 5 1.6
-7 -1 13 5.7 1.2
-7 -1 13 5.4 1.2
0 2 -13 36.1 1.7
0 -2 13 38.7 2.1
0 2 -13 35.2 1.3
0 -2 13 34.6 1.2
1 2 -13 156.38 4.9
1 -2 13 151.58 4.3
1 -2 13 138.99 5.3
1 2 -13 153.28 4.4
-1 -2 13 153.88 5.1
-1 -2 13 156.18 4.4
-1 2 -13 154.88 4.8
-1 2 -13 155.78 4.5
-2 2 13 115.29 3.4
-2 2 13 116.99 3.3
2 -2 13 109.69 3.3
2 -2 13 103.59 4.3
2 2 -13 113.99 3.5
-2 -2 13 109.09 3.9
2 -2 -13 114.39 3.6
-2 -2 13 115.89 3.4
2 -2 -13 117.39 3.5
-2 2 -13 115.99 3.7
3 2 -13 5.9 1
-3 2 13 6.4 0.6
3 -2 13 5.8 1.2
-3 2 13 4.7 0.4
3 2 -13 4.5 0.6
-3 -2 13 5.7 0.5
-3 -2 13 4.4 0.7
-3 2 -13 5.1 0.7
3 -2 -13 5.2 0.6
3 -2 -13 5.4 0.7
-4 2 13 34.5 1.4
-4 2 13 33.9 1.3
4 -2 13 31.1 2.4
4 2 -13 34.2 2
4 2 -13 33.1 1.6
4 -2 -13 36.1 1.7
4 -2 -13 35.1 1.6
-4 2 -13 36.5 1.6
-4 -2 13 34.1 1.4
-4 -2 13 34.1 1.6
-5 2 13 5 0.6
-5 2 13 4.4 0.6
5 -2 13 5.9 0.7
5 2 -13 5.1 1.4
5 2 -13 5.5 0.9
5 -2 13 7.7 1.6
-5 -2 13 5.9 0.7
-5 -2 13 3.8 0.7
5 -2 -13 3.7 0.7
-5 2 -13 7.3 0.9
5 -2 -13 6.1 0.9
6 -2 13 4.1 1.7
6 2 -13 2.8 1
-6 2 13 3 0.9
-6 2 13 2.4 0.7
6 2 -13 1.2 2
6 -2 13 2.7 0.9
6 -2 -13 1.9 1.2
-6 -2 13 3 0.9
6 -2 -13 3 0.9
-6 -2 13 1.7 0.7
-6 2 -13 1.9 1
7 -2 13 3.1 1.1
7 2 -13 -0.1 2.2
-7 2 13 4 1
7 2 -13 5 1.5
7 -2 13 2.7 2.5
-7 2 13 2.9 1.1
-7 -2 13 2.8 1
7 -2 -13 4.6 1.7
-7 -2 13 2.4 1
7 -2 -13 4 1.8
-7 2 -13 4.8 1.3
0 -3 13 36.4 1.3
0 3 -13 39.5 1.8
0 -3 13 39.3 2.3
0 3 -13 39.4 1.4
1 3 -13 224.68 7
1 -3 13 208.68 7.5
1 3 -13 232.68 6.5
1 -3 13 231.58 6.3
-1 -3 13 239.38 7.6
-1 3 -13 238.28 6.8
-1 3 -13 232.98 7.1
-1 -3 13 238.38 6.7
2 3 -13 15.4 0.9
2 -3 13 14.1 1.8
2 -3 13 14.6 0.7
2 3 -13 14.4 1.3
-2 3 -13 15.5 1
-2 3 -13 15.4 0.8
-2 -3 13 15.5 0.7
-2 -3 13 14.1 1.3
3 -3 13 2.8 1.2
3 3 -13 3 0.5
3 3 -13 2 0.8
-3 3 -13 3.4 0.6
-3 -3 13 2.4 0.3
-3 -3 13 1.6 0.6
4 3 -13 14.4 1.5
-4 3 13 14.1 0.8
4 3 -13 11.9 1.1
-4 3 13 12.5 0.7
4 -3 13 11.5 1.8
4 -3 -13 13.7 1.1
-4 -3 13 13.8 0.8
-4 -3 13 11.4 1.1
4 -3 -13 14.6 1.2
-4 3 -13 13.6 1.2
-5 3 13 8.1 0.8
5 -3 13 8.6 1.8
5 3 -13 14.1 1.3
5 -3 13 9.4 0.9
-5 3 13 9.3 0.8
5 3 -13 11.8 2
-5 -3 13 10.7 1
-5 3 -13 7 1.1
-5 -3 13 10.1 1.1
5 -3 -13 11 1
5 -3 -13 8.8 1.2
6 -3 13 7 2.4
-6 3 13 7.4 1
6 3 -13 4.6 2.2
6 -3 13 7.8 1.1
6 3 -13 6.2 1.3
-6 3 13 6.2 0.9
6 -3 -13 8 1.3
-6 -3 13 5.6 1.1
-6 -3 13 7.3 1
-6 3 -13 5.5 1.3
6 -3 -13 6.8 1.3
7 -3 13 11.9 3.5
7 3 -13 9.9 2.8
-7 3 13 11.8 1.3
7 3 -13 10.6 1.9
7 -3 13 10.2 1.4
-7 3 13 12.8 1.4
-7 -3 13 12 1.5
7 -3 -13 13 1.9
-7 -3 13 13.2 1.4
-7 3 -13 13.2 1.8
7 -3 -13 12.4 2.1
0 4 -13 9.3 0.6
0 -4 13 7.6 1.3
0 4 -13 8.5 1
0 -4 13 9.1 0.5
1 4 -13 8.7 0.6
1 -4 13 9.2 0.5
1 4 -13 11.1 1.2
1 -4 13 10.2 1.6
-1 4 -13 9.4 1
-1 4 -13 9 0.6
-1 -4 13 10.2 1.4
-1 -4 13 10.1 0.5
2 -4 13 116.49 3.4
2 4 -13 112.79 3.6
2 -4 13 105.49 4.8
2 4 -13 118.29 4.2
-2 -4 13 122.49 4.4
-2 4 -13 119.89 3.7
-2 4 -13 121.89 4.1
-2 -4 13 121.09 3.6
3 -4 13 16.1 0.8
3 -4 13 17.2 2.1
3 4 -13 14 1.4
3 4 -13 17 1
-3 -4 13 14.3 1.3
-3 -4 13 17.9 0.8
-3 4 -13 17.8 1.2
4 4 -13 15.2 1.2
4 -4 13 13.9 2.2
4 4 -13 17.3 1.9
-4 -4 13 16.3 1.2
-4 -4 13 19 0.9
-4 4 -13 19.4 1.5
5 4 -13 12.5 2.3
5 4 -13 10.9 1.2
5 -4 13 12 2.1
-5 -4 13 13.2 1.1
-5 4 -13 10.2 1.4
-5 -4 13 12.2 1.2
6 4 -13 3.4 1.3
6 4 -13 6.2 2.6
6 -4 13 3.6 1.1
6 -4 13 2.5 2.5
-6 4 -13 2.9 1.5
-6 -4 13 4 1.1
-6 -4 13 4.6 1
7 -4 13 9 3.5
7 4 -13 9.1 2.7
7 4 -13 5.8 1.7
7 -4 13 6.4 1.3
-7 -4 13 7.1 1.3
-7 4 -13 5.3 1.6
-7 -4 13 6.8 1.1
0 5 -13 8.3 0.7
0 -5 13 10.8 1.7
0 -5 13 8.1 0.5
0 5 -13 9 1.1
1 -5 13 85.89 2.6
1 5 -13 82.29 3.3
1 -5 13 73.99 3.9
1 5 -13 85.79 2.8
-1 5 -13 86.39 2.8
-1 -5 13 84.29 2.6
-1 5 -13 85.39 3.2
-1 -5 13 85.29 3.8
2 5 -13 4.7 1
2 5 -13 6.3 0.7
2 -5 13 3.1 1.3
2 -5 13 5.2 0.5
-2 -5 13 4.8 1.1
-2 -5 13 4.6 0.4
-2 5 -13 5.2 0.5
-2 5 -13 5.3 0.8
3 5 -13 -0.6 0.8
3 -5 13 0 1.2
3 -5 13 0.8 0.3
3 5 -13 1 0.5
-3 5 -13 1.2 0.6
-3 -5 13 2 0.7
-3 -5 13 1.9 0.4
4 -5 13 15.2 2.4
4 5 -13 17.5 1.3
4 5 -13 13.7 2.2
-4 5 -13 19.8 1.7
-4 -5 13 16.6 1
-4 -5 13 17.2 1.5
5 5 -13 5 1
5 5 -13 6.9 2.3
5 -5 13 6 2.1
-5 -5 13 5.7 1
-5 5 -13 7.3 1.6
-5 -5 13 6.9 0.9
6 5 -13 18 2
6 -5 13 19.5 1.6
6 5 -13 13 2.8
6 -5 13 11.7 3.4
-6 5 -13 19.4 2.2
-6 -5 13 15.4 1.7
-6 -5 13 15.5 1.3
0 -6 13 6.1 0.5
0 6 -13 6.2 1
0 6 -13 6.8 0.6
0 -6 13 6.3 1.4
1 6 -13 15.5 1.6
1 6 -13 15.4 1
1 -6 13 19.6 2.3
1 -6 13 17.1 0.8
-1 6 -13 15.7 0.9
-1 -6 13 16.3 0.8
-1 6 -13 17.6 1.5
-1 -6 13 16.5 2
2 -6 13 26.1 1.1
2 6 -13 25.4 1.3
2 -6 13 22.3 2.6
2 6 -13 30.5 2.3
-2 6 -13 27.4 1.3
-2 -6 13 25.7 2
-2 -6 13 26.7 1.1
-2 6 -13 27.9 1.6
3 -6 13 0.3 0.5
3 -6 13 -1.4 1.2
3 6 -13 2.4 0.6
3 6 -13 -0.4 1.3
-3 6 -13 1.1 1
-3 6 -13 0.9 0.4
-3 -6 13 1.1 0.4
-3 -6 13 0.7 0.8
4 6 -13 3.6 1.9
4 -6 13 1.1 1.5
4 6 -13 2.2 0.7
-4 -6 13 0.5 0.7
-4 -6 13 1.4 0.6
-4 6 -13 -0.2 1.3
5 6 -13 4.7 1.2
5 -6 13 4.3 2.9
5 6 -13 5.2 2.5
-5 -6 13 6.3 1.1
-5 -6 13 4.8 0.9
-5 6 -13 4.4 1.7
6 -6 13 -0.5 3.1
6 -6 13 -0.6 1.1
6 6 -13 -1 1.4
6 6 -13 2.1 2.7
-6 -6 13 0.3 1.1
-6 -6 13 1.5 0.9
-6 6 -13 0 1.6
0 7 -13 15.7 1.6
0 7 -13 14.4 0.9
0 -7 13 10.6 1.8
0 -7 13 13.9 0.8
1 -7 13 4.2 0.5
1 7 -13 5.6 1.3
1 7 -13 5.7 0.7
1 -7 13 2.8 1.4
-1 7 -13 6.4 0.7
-1 7 -13 6.9 1.2
-1 -7 13 4.8 0.5
-1 -7 13 4.5 1.3
2 7 -13 4.4 1.6
2 -7 13 3.9 0.7
2 7 -13 3.6 0.6
2 -7 13 3.3 1.5
-2 7 -13 4 0.5
-2 -7 13 3.8 1.2
-2 7 -13 3.7 1.2
-2 -7 13 4.9 0.6
3 7 -13 2.2 2
3 7 -13 2.2 0.6
3 -7 13 0.1 1.5
-3 -7 13 4 0.7
-3 -7 13 3.1 1
-3 7 -13 3.1 1.4
-3 7 -13 2.9 0.6
4 7 -13 17.8 2.9
4 -7 13 14.5 3
4 7 -13 20 1.7
-4 -7 13 17.4 1.2
-4 -7 13 15.9 1.6
-4 7 -13 20.8 2.1
-4 7 -13 19.7 1.3
5 7 -13 1.2 2.3
5 7 -13 0.2 1.2
5 -7 13 -0.4 2.8
-5 -7 13 0.3 1.1
-5 7 -13 1.3 1.6
-5 -7 13 1 0.8
6 7 -13 8 2.8
6 7 -13 8.5 1.9
-6 -7 13 7.4 1.5
-6 -7 13 7 1.1
0 8 -13 0.8 1.4
0 -8 13 0.2 0.5
0 -8 13 0.6 1.2
0 8 -13 0.7 0.4
1 8 -13 2.5 1.5
1 8 -13 3.4 0.6
1 -8 13 2.6 1.5
1 -8 13 3.6 0.7
-1 8 -13 3.8 0.6
-1 8 -13 1.3 1.5
-1 -8 13 4.7 1.4
-1 -8 13 3.6 0.6
2 -8 13 8.5 2
2 8 -13 5.2 2
2 -8 13 8.6 1
2 8 -13 9.4 1.1
-2 8 -13 8.6 0.9
-2 8 -13 9.9 1.8
-2 -8 13 10.6 0.9
-2 -8 13 6 1.4
3 8 -13 1.8 0.9
3 -8 13 1.3 2.3
3 8 -13 -0.2 2
-3 -8 13 1.6 0.7
-3 8 -13 1.5 0.7
-3 -8 13 2.7 1.1
-3 8 -13 2.9 1.5
4 -8 13 6 3.2
4 8 -13 8 1.4
4 8 -13 4.7 2.5
-4 8 -13 3.5 0.9
-4 8 -13 6.2 1.8
-4 -8 13 6.6 1.5
-4 -8 13 5.6 0.8
5 8 -13 1.4 1.4
5 -8 13 0.9 3.2
5 8 -13 -1 2.4
-5 -8 13 1.3 0.8
-5 -8 13 0.6 1.2
-5 8 -13 0.8 1.7
-5 8 -13 0.5 0.9
0 -9 13 3.5 0.7
0 9 -13 3 1.7
0 9 -13 3.8 0.8
0 -9 13 4.4 1.8
1 9 -13 5.3 1.8
1 -9 13 3.3 0.8
1 -9 13 4.6 2.2
1 9 -13 2.9 0.9
-1 -9 13 3.1 0.7
-1 -9 13 4.3 1.7
-1 9 -13 3.2 0.8
-1 9 -13 2.9 1.6
2 9 -13 2.8 1
2 -9 13 2.8 2.6
2 -9 13 2.5 0.9
2 9 -13 3.1 2.1
-2 9 -13 1.2 0.8
-2 9 -13 2.5 1.7
-2 -9 13 2.5 0.7
-2 -9 13 3.1 1.5
3 9 -13 -0.4 1
3 9 -13 3.8 2.1
3 -9 13 -1.1 2.8
-3 -9 13 0.3 0.7
-3 9 -13 1 0.8
-3 9 -13 1.1 1.6
-3 -9 13 -1.1 1.3
4 9 -13 12.4 2.6
4 -9 13 14.8 4
4 9 -13 9.8 1.6
-4 -9 13 10.5 1.7
-4 9 -13 9 1.2
-4 9 -13 8.9 1.9
-4 -9 13 11.4 1.1
0 -10 13 -0.4 2.1
0 10 -13 -0.9 1.7
0 10 -13 -0.7 0.8
0 -10 13 0.1 0.8
1 10 -13 4.3 1
1 10 -13 2.1 2
1 -10 13 4.4 0.9
1 -10 13 5.9 2.7
-1 10 -13 1.7 1.7
-1 -10 13 1.8 1.8
-1 10 -13 3.7 1
-1 -10 13 4.2 0.9
2 10 -13 7.1 1.3
2 -10 13 7.5 1.1
2 10 -13 7.3 2.2
2 -10 13 5.2 3
-2 10 -13 6.8 1.1
-2 10 -13 9.5 2
-2 -10 13 7.6 0.9
-2 -10 13 7.1 1.9
3 -10 13 8.5 3.6
-3 10 -13 1.4 1.8
-3 10 -13 2.4 0.9
1 -11 13 0 0.9
1 -11 13 -5.2 2.3
-1 11 -13 -0.1 1.8
-1 11 -13 0 1
0 0 -14 46.2 2.7
0 0 14 41.8 1.4
0 0 -14 45 1.5
0 0 14 55.59 4.7
0 0 -14 60.09 5.2
0 0 14 40.4 2.4
0 0 -14 56.49 1.9
1 0 -14 23.7 1
-1 0 -14 25.7 1.1
1 0 14 22 0.8
-1 0 -14 32.6 4.1
1 0 14 19.8 1.5
1 0 -14 22.4 1.3
-1 0 -14 22.5 1.7
-1 0 14 25.1 1.3
-1 0 14 23 0.8
-1 0 -14 22.3 0.8
1 0 14 25.3 4.4
-2 0 14 42.9 1.4
-2 0 -14 43.2 1.6
2 0 14 43.4 1.4
2 0 -14 45 1.6
2 0 -14 45.4 1.9
2 0 14 38.5 2.2
-2 0 14 44.2 1.7
-2 0 -14 44 1.4
-3 0 -14 5.5 0.6
-3 0 14 7.3 0.5
-3 0 14 6.4 0.7
3 0 -14 6.5 0.9
3 0 14 4.5 1.1
3 0 -14 7 0.7
4 0 -14 24.5 1.6
4 0 -14 26.2 1.4
-4 0 14 26.3 1.1
-4 0 14 25.9 1.3
-5 0 14 2.3 0.6
5 0 -14 2.9 0.7
-5 0 14 4 0.6
5 0 -14 2.2 0.9
-6 0 14 1.3 0.8
6 0 -14 2.4 1.6
-6 0 14 0.7 0.7
6 0 -14 1.4 0.9
7 0 -14 2.2 1.6
-7 0 14 -0.3 0.9
7 0 -14 -0.9 2
-7 0 14 -0.3 0.9
0 -1 14 159.38 5.3
0 -1 14 162.58 4.5
0 1 -14 163.28 5
0 1 -14 159.08 4.6
-1 1 14 116.69 3.5
1 -1 14 108.99 3.2
-1 1 14 116.49 3.2
1 -1 14 102.89 4.2
1 1 -14 114.49 3.4
1 -1 -14 117.89 3.5
-1 -1 14 117.39 3.4
1 -1 -14 116.19 3.7
-1 -1 14 116.59 4
-1 1 -14 117.89 3.4
-1 1 -14 114.29 3.7
2 1 -14 32.8 1.7
-2 1 14 35.9 1.4
2 1 -14 35.1 1.4
2 -1 14 34.7 1.2
2 -1 14 32.1 2.1
-2 1 14 36.9 1.2
2 -1 -14 35.9 1.4
2 -1 -14 35.6 1.6
-2 -1 14 36 1.6
-2 -1 14 37.7 1.3
-2 1 -14 36.5 1.5
-2 1 -14 37.8 1.3
3 1 -14 92.59 3.4
3 -1 14 89.09 3.8
3 1 -14 90.69 3.1
-3 1 14 92.29 2.8
-3 1 14 89.59 3
-3 1 -14 94.19 3.1
3 -1 -14 93.89 3.1
-3 -1 14 91.99 3.2
3 -1 -14 89.69 3.2
-3 -1 14 92.39 2.8
-4 1 14 16.3 0.8
-4 1 14 15.5 1
4 -1 14 17.6 1.9
4 1 -14 16 1.4
4 1 -14 16.8 1.2
-4 1 -14 15.7 1
-4 -1 14 16.7 1.1
4 -1 -14 18 1.3
4 -1 -14 16.6 1.2
-4 -1 14 17.4 0.8
5 1 -14 2.6 1.2
5 -1 14 3.1 1.2
-5 1 14 2.4 0.5
5 -1 14 2.2 0.5
5 1 -14 3 0.8
-5 1 14 3.3 0.6
-5 -1 14 3.5 0.7
5 -1 -14 2.3 0.7
5 -1 -14 4.4 0.9
-5 -1 14 2.6 0.6
-5 1 -14 1.9 0.5
6 1 -14 3.9 1.1
6 -1 14 3.8 0.9
-6 1 14 5 1
6 -1 14 2.3 1.5
6 1 -14 4.2 2
-6 1 14 4.7 0.9
-6 -1 14 5 0.9
-6 1 -14 4.8 1
6 -1 -14 6.6 1.6
6 -1 -14 3.1 1
-6 -1 14 4.3 1
7 1 -14 3.2 1.7
7 1 -14 2.6 2.4
-7 1 14 2.5 1
-7 1 14 2.2 1
-7 -1 14 1.8 1
-7 -1 14 1.9 1
7 -1 -14 4 1.8
7 -1 -14 -0.1 1.5
0 2 -14 10.8 0.6
0 -2 14 12.3 0.6
0 2 -14 12.7 1.1
0 -2 14 16.1 1.5
1 -2 14 91.69 2.7
1 2 -14 88.09 3.3
1 -2 14 89.89 3.8
1 2 -14 92.69 2.9
-1 2 -14 93.79 3.2
-1 -2 14 97.29 3.6
-1 2 -14 96.09 2.9
-1 -2 14 92.29 2.8
2 -2 14 9.5 1.5
2 -2 14 11.3 0.6
2 2 -14 11.7 1.2
2 2 -14 11.2 0.8
-2 2 -14 11.7 1
-2 -2 14 11.3 0.6
-2 -2 14 11.6 1.1
-2 2 -14 10.9 0.6
3 2 -14 33.5 1.5
3 -2 14 30.7 2.2
3 2 -14 32.3 1.9
-3 2 14 35.8 1.4
-3 2 14 36 1.3
-3 -2 14 34.1 1.3
3 -2 -14 33 1.5
-3 2 -14 37.7 1.6
3 -2 -14 34.6 1.6
-3 -2 14 33.9 1.7
4 2 -14 8.4 1.2
-4 2 14 9.1 0.7
4 2 -14 7.6 0.9
4 -2 14 7.1 1.4
-4 2 14 7.4 0.7
4 -2 -14 7.8 0.9
-4 -2 14 8.8 0.9
4 -2 -14 10.5 1
-4 2 -14 10.3 1
-4 -2 14 6.8 0.6
-5 2 14 12.7 1
5 -2 14 8.5 1.7
5 2 -14 10.8 1.1
5 2 -14 9.9 1.8
5 -2 14 10.4 0.9
-5 2 14 12 1
-5 -2 14 8.9 1
5 -2 -14 10.5 1.2
-5 -2 14 12 1
5 -2 -14 11 1.2
-5 2 -14 9.4 1
6 2 -14 3.3 1.1
6 -2 14 3.6 0.9
-6 2 14 2.6 0.9
-6 2 14 3.8 0.8
6 -2 14 3.2 1.7
6 2 -14 4 2.1
-6 -2 14 3.1 0.9
6 -2 -14 4.8 1.4
6 -2 -14 3.9 1.1
-6 2 -14 4.1 1.1
-6 -2 14 3.7 0.9
-7 2 14 2.9 1
-7 2 14 1.9 1
7 -2 14 -0.1 1
7 -2 14 2.5 2.5
7 2 -14 0.4 1.4
7 2 -14 -1.6 2.4
-7 2 -14 3.4 1.3
7 -2 -14 1.6 1.6
-7 -2 14 2.7 1.1
-7 -2 14 1.3 1
7 -2 -14 0.4 1.6
0 3 -14 21.9 1.4
0 3 -14 21 0.9
0 -3 14 20.6 0.8
0 -3 14 18.3 1.8
1 3 -14 54.19 1.9
1 -3 14 50.19 2.8
1 -3 14 55.99 1.7
1 3 -14 52.29 2.4
-1 3 -14 55.49 1.9
-1 3 -14 56.99 2.3
-1 -3 14 58.39 1.8
-1 -3 14 58.59 2.8
2 -3 14 40 1.4
2 3 -14 42.9 1.7
2 -3 14 36.7 2.6
2 3 -14 41.9 2.1
-2 -3 14 44.1 2.2
-2 -3 14 41.9 1.4
-2 3 -14 40.2 1.5
-2 3 -14 43.4 1.9
3 3 -14 15 1.5
3 -3 14 14.9 1.9
3 3 -14 13.1 1
-3 3 -14 15 1.2
-3 -3 14 13.5 0.7
-3 -3 14 14.4 1.3
4 3 -14 19.1 1.2
4 3 -14 21 1.9
4 -3 14 20.2 2.3
-4 3 -14 21 1.3
-4 -3 14 18.1 1.3
-4 -3 14 21.3 1
5 3 -14 7.5 2
-5 3 14 7.3 0.8
5 3 -14 9.8 1.1
-5 3 14 6.6 0.7
5 -3 14 7.2 1.8
-5 -3 14 6.2 0.9
-5 -3 14 6.6 1
-5 3 -14 6.9 1.1
5 -3 -14 5.9 1
5 -3 -14 6.4 0.9
6 3 -14 14.1 2.8
-6 3 14 16.7 1.2
6 -3 14 12.2 1.3
6 3 -14 15.3 1.8
-6 3 14 16 1.3
6 -3 14 12.7 2.8
6 -3 -14 16.7 1.8
-6 3 -14 13.8 1.6
-6 -3 14 14.7 1.5
-6 -3 14 16.6 1.4
6 -3 -14 15.5 1.7
7 -3 14 -0.1 1.1
7 3 -14 -1.7 2.6
-7 3 14 -0.3 1
7 3 -14 2.2 1.6
7 -3 14 2 2.9
-7 3 14 0 0.8
7 -3 -14 1.7 1.5
-7 3 -14 -0.2 1.4
7 -3 -14 2.7 1.8
-7 -3 14 0.8 1
-7 -3 14 -0.3 1
0 4 -14 31.5 1.3
0 -4 14 31.9 2.4
0 -4 14 33.1 1.2
0 4 -14 32.7 1.8
1 -4 14 90.89 4.3
1 -4 14 104.89 3
1 4 -14 90.29 3.6
1 4 -14 102.59 3.2
-1 4 -14 109.49 3.3
-1 -4 14 108.49 4.3
-1 4 -14 104.19 3.7
-1 -4 14 106.49 3.2
2 4 -14 43.7 1.7
2 -4 14 39.9 1.5
2 4 -14 42.5 2.2
2 -4 14 36.6 2.7
-2 4 -14 43.3 1.6
-2 -4 14 42.7 1.5
-2 -4 14 43.8 2.3
-2 4 -14 40.5 1.9
3 -4 14 11.5 1.8
3 4 -14 17.8 1.7
3 -4 14 16.4 0.9
3 4 -14 18.9 1.1
-3 4 -14 18.6 1.3
-3 -4 14 19.9 1.4
-3 -4 14 17.4 0.9
4 -4 14 26.2 2.8
4 4 -14 23.3 2.2
4 4 -14 27 1.5
-4 -4 14 32.4 1.7
-4 4 -14 32 1.9
-4 -4 14 33.2 1.4
5 4 -14 1.6 2.1
5 4 -14 1.7 0.8
5 -4 14 0.6 1.6
-5 -4 14 1.5 0.7
-5 -4 14 0.1 0.7
-5 4 -14 1.5 1.1
6 -4 14 4.1 2.8
6 -4 14 3.3 1.1
6 4 -14 3.5 1.4
6 4 -14 2.7 2.6
-6 -4 14 2.4 1
-6 -4 14 1.5 1
-6 4 -14 3.6 1.5
7 -4 14 2.5 1.2
7 4 -14 0.7 2.6
7 -4 14 2.7 3.3
7 4 -14 2 1.7
-7 -4 14 2.3 1.2
-7 -4 14 3.4 1.1
-7 4 -14 1.7 1.5
0 5 -14 54.99 2
0 5 -14 51.99 2.4
0 -5 14 50.49 3
0 -5 14 55.29 1.8
1 5 -14 0.6 0.3
1 -5 14 2.8 1.2
1 -5 14 1.1 0.3
1 5 -14 2 0.8
-1 -5 14 1.6 1
-1 5 -14 0.8 0.7
-1 -5 14 1.6 0.3
-1 5 -14 1.1 0.3
2 5 -14 25.9 1.3
2 -5 14 20.7 2.5
2 5 -14 22.9 1.9
2 -5 14 24.3 1
-2 -5 14 25.4 2.1
-2 -5 14 27.1 1.1
-2 5 -14 24.6 1.2
-2 5 -14 27.6 1.5
3 -5 14 7.6 1.7
3 5 -14 10.6 1.6
3 5 -14 8.9 0.9
3 -5 14 11.3 0.8
-3 -5 14 8.1 1.1
-3 5 -14 10.7 1.2
-3 -5 14 12 0.8
-3 5 -14 11.3 0.8
4 5 -14 6.6 2
4 -5 14 6 1.8
4 5 -14 7.2 0.9
-4 -5 14 7.3 0.8
-4 -5 14 7.8 1
-4 5 -14 5.8 1.3
5 5 -14 17.8 2.9
5 5 -14 18.4 1.8
5 -5 14 15.8 2.8
-5 -5 14 20.3 1.3
-5 5 -14 18 1.9
-5 -5 14 16 1.6
6 -5 14 -0.4 1.1
6 5 -14 1.1 1.4
6 -5 14 0.6 3.1
6 5 -14 2.3 2.5
-6 5 -14 0.8 1.6
-6 -5 14 2 0.9
-6 -5 14 -0.1 1.1
0 -6 14 36.9 1.4
0 6 -14 35.6 1.5
0 -6 14 39 2.8
0 6 -14 38.2 2.1
1 -6 14 37 1.4
1 6 -14 34.7 1.5
1 6 -14 33.5 2.1
1 -6 14 38.2 3.2
-1 -6 14 36.5 2.5
-1 -6 14 38.1 1.4
-1 6 -14 40.2 1.6
-1 6 -14 38.4 2.1
2 -6 14 4.6 0.6
2 6 -14 4.2 0.7
2 -6 14 3 1.4
2 6 -14 2.5 1.3
-2 -6 14 4.5 0.5
-2 6 -14 4.3 0.6
-2 -6 14 4.4 1.1
-2 6 -14 4 1
3 -6 14 39.6 1.7
3 6 -14 36.8 1.8
3 6 -14 31.2 2.9
3 -6 14 30.4 3.1
-3 6 -14 35.5 2.4
-3 -6 14 42.1 2.3
-3 6 -14 37.5 1.6
-3 -6 14 39.9 1.6
4 -6 14 -0.3 1.9
4 6 -14 3.2 2.2
4 6 -14 0.7 0.7
-4 -6 14 2.1 0.7
-4 6 -14 2 1.4
-4 -6 14 1.8 0.8
5 6 -14 11.3 2.9
5 6 -14 11.5 1.6
5 -6 14 6.8 2.8
-5 -6 14 10 1.1
-5 -6 14 8.9 1.4
-5 6 -14 8.3 1.8
6 -6 14 9.7 1.4
6 6 -14 7.9 1.8
6 -6 14 7.8 3.7
6 6 -14 6.6 2.7
-6 -6 14 10.9 1.6
-6 -6 14 7.7 1.1
-6 6 -14 6.5 1.8
0 -7 14 63.09 2.2
0 -7 14 67.59 3.7
0 7 -14 60.19 2.3
0 7 -14 69.99 3.2
1 7 -14 1.1 0.4
1 -7 14 -0.1 0.4
1 7 -14 -1.2 1.1
1 -7 14 0.8 1.3
-1 -7 14 0.3 0.4
-1 7 -14 0.1 0.4
-1 -7 14 -0.3 0.9
-1 7 -14 -0.5 1.2
2 7 -14 1.1 1.5
2 -7 14 1.5 0.6
2 7 -14 0.8 0.5
2 -7 14 0.8 1.2
-2 -7 14 1.3 0.5
-2 7 -14 1.2 0.4
-2 7 -14 1.8 1.4
-2 -7 14 0.7 1
3 7 -14 2.9 0.8
3 7 -14 1.6 2.1
3 -7 14 1.4 1.6
-3 7 -14 2.9 0.6
-3 -7 14 2.9 0.7
-3 -7 14 2.3 1
-3 7 -14 4.1 1.5
4 7 -14 5.3 1.2
4 -7 14 3.6 2.8
4 7 -14 1.4 2.4
-4 7 -14 2.4 0.8
-4 7 -14 1.9 1.6
-4 -7 14 4 1.2
-4 -7 14 4.5 0.8
5 -7 14 12.4 3.9
5 7 -14 15.8 1.9
5 7 -14 14 3
-5 -7 14 13.9 1.2
-5 7 -14 12 2.1
-5 -7 14 12.8 1.7
0 8 -14 0.7 1.6
0 8 -14 1.2 0.5
0 -8 14 0.3 0.6
0 -8 14 1.3 1.4
1 -8 14 25.6 1.4
1 8 -14 24.3 2.6
1 -8 14 18.1 2.4
1 8 -14 21.9 1.4
-1 -8 14 23.2 1.3
-1 8 -14 23.9 2.3
-1 -8 14 21.3 2.4
-1 8 -14 23.2 1.3
2 -8 14 0.5 0.7
2 -8 14 -0.9 1.8
2 8 -14 0 1.9
2 8 -14 1.5 0.7
-2 -8 14 0.8 1
-2 8 -14 3.5 1.4
-2 8 -14 1.6 0.6
-2 -8 14 1.3 0.7
3 8 -14 10.5 2.6
3 8 -14 16.4 1.6
3 -8 14 12.8 2.9
-3 8 -14 13 2
-3 -8 14 18.9 1.3
-3 -8 14 13.4 1.8
-3 8 -14 15 1.2
4 8 -14 4.6 2.6
4 -8 14 8.1 3.4
4 8 -14 5.1 1.2
-4 -8 14 8.3 1
-4 8 -14 4.1 1.8
-4 -8 14 5.1 1.4
-4 8 -14 6.2 1
5 8 -14 8.1 1.7
5 -8 14 6.7 3.3
5 8 -14 8 2.9
-5 -8 14 7.1 1
-5 8 -14 8.5 1.2
-5 8 -14 8.9 2.1
-5 -8 14 5 1.4
0 9 -14 15 2.1
0 -9 14 17.7 2.6
0 -9 14 15.2 1.1
0 9 -14 14.9 1.3
1 -9 14 9.6 1
1 9 -14 9.6 1.2
1 -9 14 10.9 2.6
1 9 -14 10.9 2.2
-1 9 -14 14.1 2.2
-1 9 -14 8.9 1.1
-1 -9 14 12.6 1.1
-1 -9 14 9.2 2.2
2 -9 14 2.1 2.6
2 -9 14 0.2 0.7
2 9 -14 1.1 0.9
2 9 -14 3.5 2.1
-2 -9 14 1 0.7
-2 9 -14 0.5 0.8
-2 9 -14 -0.3 1.5
-2 -9 14 0 1.5
3 -9 14 -1.8 3
3 9 -14 -0.5 2.1
3 9 -14 2.3 1.1
-3 9 -14 0.8 1.7
-3 9 -14 0.5 0.8
-3 -9 14 2.7 1.5
-3 -9 14 0.5 0.7
4 9 -14 7 1.5
4 -9 14 11.5 3.8
4 9 -14 10.5 2.7
-4 9 -14 13.5 2.1
-4 -9 14 13.5 1.2
-4 -9 14 10.1 1.8
0 -10 14 0.8 2.2
0 10 -14 1 0.9
0 10 -14 3.6 1.8
0 -10 14 -0.2 0.8
1 10 -14 -0.2 1.9
1 10 -14 2.9 1.1
1 -10 14 2.6 2.6
1 -10 14 2.4 0.9
-1 10 -14 -0.1 1.8
-1 -10 14 2.4 2.1
-1 -10 14 2.3 0.8
-1 10 -14 1.2 0.9
2 -10 14 3.6 1
2 10 -14 3.6 1.2
2 10 -14 0.2 2.1
2 -10 14 4.5 3.2
-2 10 -14 1.8 1.8
-2 10 -14 2.4 1
-2 -10 14 3.3 1.9
-2 -10 14 2.9 0.8
3 10 -14 9.4 1.8
3 -10 14 0.2 3.6
-3 -10 14 7.4 1.1
-3 -10 14 5.9 2.1
-3 10 -14 9.3 2.5
0 0 -15 18 3.6
0 0 15 11.4 3
-1 0 -15 0.4 0.2
-1 0 -15 -0.1 0.3
1 0 15 0.3 0.2
1 0 -15 0.2 0.3
1 0 15 1.5 0.8
1 0 -15 -0.2 0.5
-1 0 15 0.1 0.1
-1 0 15 0.1 0.4
2 0 15 38.5 1.5
2 0 -15 34.5 1.7
2 0 -15 34.9 1.4
-2 0 -15 34.1 1.3
-2 0 15 36.1 1.5
-2 0 15 34.2 1.2
3 0 -15 108.19 3.8
-3 0 15 110.19 3.3
3 0 -15 104.29 3.5
-3 0 15 109.29 3.5
-4 0 15 9.7 0.7
4 0 -15 10.3 1
4 0 -15 10.7 1.2
-4 0 15 11.1 0.9
-5 0 15 5.2 0.7
-5 0 15 5.1 0.7
5 0 -15 2.6 1.1
5 0 -15 6 0.9
-6 0 15 1.1 0.8
6 0 -15 2 1.8
6 0 -15 1.8 1
-6 0 15 1.2 0.9
-7 0 15 2.2 1.1
7 0 -15 0.5 1.9
7 0 -15 4.3 1.8
-7 0 15 2 1
0 -1 15 4.4 0.3
0 1 -15 4.1 0.4
0 1 -15 4.6 0.7
0 -1 15 3.9 0.9
1 -1 15 4 1
1 1 -15 6 0.5
1 1 -15 6.2 0.9
1 -1 15 6.3 0.4
-1 -1 15 7.7 1
-1 1 -15 6.4 0.5
-1 -1 15 6.4 0.4
-1 1 -15 6.5 0.8
-2 1 15 102.49 3.3
2 1 -15 104.39 3.3
2 1 -15 97.69 3.6
2 -1 15 97.29 4.1
2 -1 15 105.79 3.1
-2 1 15 107.59 3
-2 -1 15 106.19 3.1
-2 1 -15 104.89 3.4
2 -1 -15 106.19 3.4
2 -1 -15 105.39 3.6
-2 1 -15 104.69 3.2
-2 -1 15 112.69 3.6
-3 1 15 1.8 0.4
3 1 -15 3.2 0.8
3 1 -15 2.1 0.5
-3 1 15 2 0.3
3 -1 15 1.7 0.9
3 -1 -15 2.5 0.7
-3 -1 15 2.2 0.6
-3 -1 15 1.6 0.3
-3 1 -15 1.9 0.5
3 -1 -15 1.9 0.5
-4 1 15 35.2 1.3
4 1 -15 30.9 1.6
4 1 -15 31.5 1.9
4 -1 15 24.9 2.3
-4 1 15 32.5 1.4
-4 -1 15 31.5 1.6
4 -1 -15 33.4 1.7
-4 -1 15 34.5 1.3
4 -1 -15 33.5 1.8
-4 1 -15 36.3 1.6
5 -1 15 0.2 1.1
5 1 -15 2.1 1.5
-5 1 15 4.5 0.7
5 -1 15 3.1 0.6
-5 1 15 3 0.5
5 1 -15 3.2 0.8
-5 -1 15 4.2 0.7
5 -1 -15 3.7 0.8
5 -1 -15 3.6 1
-5 -1 15 3.1 0.7
-5 1 -15 3.3 0.6
-6 1 15 5.8 1
6 1 -15 4.7 2.1
-6 1 15 6.4 1
6 1 -15 4.8 1.2
6 -1 -15 6.9 1.3
-6 -1 15 4.4 0.9
6 -1 -15 6 1.7
-6 -1 15 6.6 1.1
-7 1 15 0.7 0.9
-7 1 15 0.8 1
7 1 -15 -1.4 1.5
7 1 -15 0.7 2.4
-7 -1 15 1.3 1
7 -1 -15 -1 1.5
-7 -1 15 -0.3 1
7 -1 -15 1.1 1.9
0 2 -15 96.19 3
0 -2 15 99.39 2.9
0 2 -15 98.19 3.4
0 -2 15 96.29 3.8
1 2 -15 80.69 2.6
1 -2 15 78.59 3.5
1 2 -15 79.59 3
1 -2 15 75.89 2.4
-1 2 -15 83.59 2.9
-1 -2 15 82.69 2.5
-1 2 -15 81.59 2.6
-1 -2 15 78.89 3.2
2 -2 15 43.5 2.6
2 2 -15 41.6 2.1
2 2 -15 37.1 1.6
2 -2 15 38.1 1.3
-2 2 -15 39.9 1.7
-2 2 -15 38 1.4
-2 -2 15 38.4 1.9
-2 -2 15 40.3 1.3
3 2 -15 67.69 2.5
3 2 -15 67.49 2.9
3 -2 15 61.59 3.3
-3 2 -15 66.29 2.6
-3 -2 15 72.39 2.3
-3 -2 15 73.29 2.7
-4 2 15 38.4 1.6
4 2 -15 36.2 1.8
-4 2 15 38.4 1.4
4 2 -15 37.9 2.1
4 -2 15 29.8 2.7
-4 2 -15 37.8 1.8
-4 -2 15 38.9 1.8
-4 -2 15 39.8 1.5
4 -2 -15 38.8 1.8
4 -2 -15 36.5 1.8
5 -2 15 3.2 1.4
5 2 -15 2.8 0.7
-5 2 15 2.2 0.6
5 2 -15 0.8 1.6
5 -2 15 1.7 0.6
-5 2 15 2.5 0.5
-5 2 -15 1.8 0.7
-5 -2 15 1.6 0.7
5 -2 -15 2.7 0.8
5 -2 -15 1.3 0.8
-5 -2 15 3 0.7
6 -2 15 0.9 0.8
6 2 -15 1.3 1
6 -2 15 -1 1.8
6 2 -15 -0.3 2
-6 2 15 2.1 0.9
-6 2 15 0.3 0.7
-6 -2 15 -0.6 0.7
6 -2 -15 2.8 1.4
-6 2 -15 1 1
6 -2 -15 1.9 1
-6 -2 15 0.7 0.8
-7 2 15 2.1 1
7 2 -15 2.3 1.5
7 -2 15 3 2.8
-7 2 15 1.3 1
7 2 -15 0.8 2.5
7 -2 15 0.9 1.1
7 -2 -15 3 1.8
-7 -2 15 1.2 1
-7 -2 15 -0.1 1
-7 2 -15 3.3 1.3
7 -2 -15 2.6 1.8
0 3 -15 72.99 2.4
0 -3 15 73.49 2.3
0 -3 15 77.09 3.4
0 3 -15 73.19 2.9
1 3 -15 1.9 0.4
1 -3 15 3 1.1
1 3 -15 1.9 0.7
1 -3 15 1.7 0.3
-1 -3 15 2.2 0.3
-1 -3 15 2.3 0.8
-1 3 -15 2.6 0.4
-1 3 -15 2.1 0.6
2 -3 15 88.69 4.2
2 3 -15 92.89 3.6
2 3 -15 94.49 3.1
2 -3 15 95.79 2.9
-2 -3 15 98.19 2.9
-2 3 -15 97.09 3
-2 3 -15 94.59 3.4
-2 -3 15 97.99 3.7
3 3 -15 12.5 1
3 -3 15 11.2 0.7
3 -3 15 9.5 1.7
3 3 -15 11.1 1.4
-3 3 -15 11.3 1
-3 -3 15 10.6 0.6
-3 -3 15 12 1.2
4 3 -15 44.8 2
4 3 -15 45.7 2.6
4 -3 15 40.1 3
-4 -3 15 49.3 2.2
-4 3 -15 45 2
-4 -3 15 48.3 1.8
5 3 -15 23.7 2.5
5 -3 15 26.4 2.9
5 3 -15 22.6 1.6
-5 -3 15 25.3 1.5
-5 3 -15 22.4 1.7
-5 -3 15 26.7 1.5
6 -3 15 0.6 0.9
6 -3 15 0.4 2.1
6 3 -15 3.8 1.4
6 3 -15 0.3 2.3
-6 -3 15 2 0.9
-6 -3 15 2.3 1.1
-6 3 -15 1.4 1.2
7 -3 15 -0.7 1.1
7 3 -15 2.4 2.4
7 3 -15 0.7 1.5
7 -3 15 -1.8 2.9
-7 -3 15 0.4 0.9
-7 3 -15 1.5 1.4
7 -3 -15 -0.4 1.8
-7 -3 15 -0.8 0.9
0 -4 15 12.7 0.6
0 4 -15 14.8 0.8
0 -4 15 12.4 1.7
0 4 -15 13.1 1.2
1 -4 15 97.09 4.5
1 4 -15 94.29 3.7
1 4 -15 101.89 3.2
1 -4 15 101.19 3
-1 -4 15 104.79 3.1
-1 4 -15 105.69 3.3
-1 -4 15 104.79 4.3
-1 4 -15 98.89 3.7
2 4 -15 47.6 2.5
2 -4 15 42.4 2.9
2 4 -15 47.2 1.9
2 -4 15 47.3 1.6
-2 4 -15 48.4 1.8
-2 -4 15 49.8 2.5
-2 4 -15 46.7 2.1
-2 -4 15 48.1 1.6
3 -4 15 2 0.4
3 4 -15 2.5 1
3 -4 15 4.6 1.5
3 4 -15 2.4 0.5
-3 -4 15 1.6 0.4
-3 4 -15 2.9 0.7
-3 -4 15 1.1 0.6
4 4 -15 39.5 1.9
4 4 -15 36.1 2.9
4 -4 15 27.5 2.8
-4 -4 15 38.2 1.6
-4 4 -15 38.1 2.1
-4 -4 15 34.6 1.9
5 4 -15 2.8 0.9
5 -4 15 2.3 1.8
5 4 -15 2.1 2
-5 4 -15 1.9 1.2
-5 -4 15 3 0.8
-5 -4 15 2.8 0.9
6 -4 15 6.1 1.2
6 4 -15 5.3 1.4
6 4 -15 12.1 2.9
6 -4 15 3.4 2.9
-6 -4 15 4 1.1
-6 -4 15 5.1 0.9
-6 4 -15 3.7 1.5
0 -5 15 18.3 0.8
0 5 -15 18.5 1
0 5 -15 15.7 1.5
0 -5 15 14.2 2
1 5 -15 2.5 0.9
1 -5 15 1.7 1.3
1 5 -15 2.4 0.5
1 -5 15 2.3 0.3
-1 5 -15 2.4 0.5
-1 5 -15 3.1 0.8
-1 -5 15 2.9 0.4
-1 -5 15 2.7 1.1
2 -5 15 21.8 2.6
2 5 -15 19.3 1.1
2 5 -15 21.8 1.9
2 -5 15 21 1
-2 5 -15 22.4 1.5
-2 -5 15 23.7 1
-2 -5 15 21.2 1.9
-2 5 -15 22.7 1.1
3 -5 15 4.1 1.5
3 5 -15 7.8 0.9
3 -5 15 9.5 0.8
3 5 -15 10.2 1.7
-3 5 -15 9.7 1.2
-3 -5 15 10.6 0.8
-3 -5 15 5.5 1
-3 5 -15 9.3 0.8
4 5 -15 5.6 2
4 -5 15 1.5 1.5
4 5 -15 8.4 1
-4 5 -15 5.6 1.4
-4 -5 15 6.7 0.8
-4 -5 15 6.4 1
5 -5 15 5.8 2.7
5 5 -15 6.9 2.7
5 5 -15 11.1 1.5
-5 -5 15 10.3 1.4
-5 -5 15 11 1.1
-5 5 -15 15.6 1.9
6 -5 15 -0.4 3.1
6 5 -15 4.7 2.5
6 -5 15 3.7 1.2
6 5 -15 3 1.5
-6 5 -15 3.7 1.8
-6 -5 15 3.5 0.9
-6 -5 15 1 1.1
0 6 -15 8 0.8
0 6 -15 5.1 1.1
0 -6 15 6.1 0.6
0 -6 15 8.1 1.7
1 -6 15 10.7 2
1 6 -15 15.2 1
1 6 -15 12.8 1.5
1 -6 15 17 0.8
-1 -6 15 16.9 0.9
-1 6 -15 14.6 0.9
-1 -6 15 16.1 2
-1 6 -15 14 1.5
2 -6 15 38 3.4
2 -6 15 36.5 1.5
2 6 -15 35.9 1.7
2 6 -15 36.1 2.7
-2 6 -15 40.2 2.2
-2 -6 15 42.1 2.6
-2 6 -15 38.9 1.6
-2 -6 15 39.4 1.6
3 6 -15 8.8 2.2
3 -6 15 10.2 0.9
3 6 -15 10 1.1
3 -6 15 4.8 1.7
-3 -6 15 9.4 1.4
-3 6 -15 13.4 1.7
-3 -6 15 12.1 1
-3 6 -15 11.4 0.9
4 6 -15 11.7 1.3
4 -6 15 5 2.4
4 6 -15 9.4 2.4
-4 -6 15 10 1.4
-4 6 -15 10.4 1
-4 6 -15 10.5 1.8
-4 -6 15 11.7 1
5 -6 15 3.6 3
5 6 -15 1.4 1.2
5 6 -15 3.1 2.6
-5 -6 15 0.8 1.1
-5 6 -15 2.7 1.7
-5 -6 15 1.5 0.9
6 6 -15 6.2 3
6 -6 15 4.9 1.3
6 -6 15 6.6 3.3
6 6 -15 4.8 1.6
-6 6 -15 4.6 1.8
-6 -6 15 3.1 1.3
-6 -6 15 7.7 1.1
0 -7 15 6.9 1.6
0 -7 15 9.1 0.8
0 7 -15 12 1.8
0 7 -15 10.1 0.9
1 7 -15 0.5 1.3
1 -7 15 2.9 1.4
1 -7 15 1.3 0.5
1 7 -15 0.6 0.5
-1 7 -15 0.9 0.4
-1 -7 15 1.1 0.5
-1 -7 15 -1.2 1.1
-1 7 -15 0.4 1.2
2 7 -15 2.5 0.7
2 -7 15 2 1.5
2 7 -15 0.5 1.8
2 -7 15 3.3 0.7
-2 -7 15 2.7 0.7
-2 7 -15 2.7 0.5
-2 -7 15 2.7 1.2
-2 7 -15 1.1 1.4
3 7 -15 4.8 2.3
3 7 -15 8 1.1
3 -7 15 7.7 1
3 -7 15 6.1 2.2
-3 -7 15 7.6 1.5
-3 7 -15 8.8 0.9
-3 7 -15 7.2 1.8
-3 -7 15 9.2 0.9
4 7 -15 5.3 1.2
4 -7 15 8.4 2.8
4 7 -15 1.4 2.2
-4 -7 15 2.9 1.2
-4 7 -15 6.4 1.8
-4 -7 15 3.9 0.8
-4 7 -15 4.2 0.8
5 -7 15 4.9 3.5
5 7 -15 2 1.3
5 7 -15 2.5 2.8
-5 -7 15 1.7 1.2
-5 -7 15 2.5 0.9
-5 7 -15 2.8 1.8
-5 7 -15 2.8 1
0 8 -15 2 0.6
0 -8 15 0 1.2
0 -8 15 1 0.6
0 8 -15 0.8 1.7
1 8 -15 27.1 2.7
1 -8 15 24.2 3.1
1 -8 15 31.9 1.6
1 8 -15 31.5 1.7
-1 8 -15 27.5 1.5
-1 8 -15 26.4 2.5
-1 -8 15 30.5 1.5
-1 -8 15 30.6 2.9
2 8 -15 4.8 1
2 -8 15 0.8 2.2
2 -8 15 4 0.9
2 8 -15 1.2 2.1
-2 -8 15 2.4 0.7
-2 8 -15 2.4 0.7
-2 -8 15 0.2 1.3
-2 8 -15 2 1.7
3 -8 15 -0.1 2.4
3 8 -15 1.2 1
3 8 -15 1.6 2.2
-3 -8 15 2.6 1.4
-3 8 -15 0.9 0.7
-3 -8 15 3.4 0.8
-3 8 -15 2.3 1.8
4 8 -15 2.4 2.6
4 -8 15 2.3 3.4
4 8 -15 2.1 1.3
-4 8 -15 1.8 1.8
-4 -8 15 1.5 1.3
-4 -8 15 2.1 0.8
-4 8 -15 2.3 0.9
5 8 -15 4.5 3
5 8 -15 2.1 2.4
-5 -8 15 4.7 2.4
0 -9 15 5 0.9
0 9 -15 4.8 0.9
0 9 -15 3.7 1.9
0 -9 15 5.7 2.3
1 9 -15 2.2 1
1 9 -15 2.9 2.1
1 -9 15 2.1 0.9
1 -9 15 1.1 2.3
-1 9 -15 1.6 1.8
-1 9 -15 2.6 0.9
-1 -9 15 1.6 0.7
-1 -9 15 3.1 2
2 -9 15 4.8 2.9
2 -9 15 6.1 1.1
2 9 -15 6.5 1.2
2 9 -15 5.9 2.2
-2 -9 15 3.1 0.8
-2 9 -15 3.9 0.9
-2 -9 15 3.4 1.8
-2 9 -15 7.1 2
3 -9 15 1.4 3.3
3 9 -15 2.3 1.2
3 9 -15 1.4 2.3
-3 9 -15 -1.3 1.8
-3 9 -15 1.4 0.9
-3 -9 15 1.7 1.6
-3 -9 15 1.4 0.8
4 9 -15 2 1.4
4 9 -15 0.3 2.3
-4 -9 15 3 0.9
-4 -9 15 2.3 1.5
0 -10 15 6.8 2.6
0 -10 15 8.3 1.1
0 10 -15 10 1.3
0 10 -15 8.2 2.1
1 10 -15 5.2 1.3
1 -10 15 2 2.7
1 10 -15 2.9 2.1
1 -10 15 5.5 1
-1 -10 15 3.7 2.3
-1 -10 15 3.1 0.8
-1 10 -15 4.4 1.1
-1 10 -15 2.6 1.9
2 10 -15 -1.1 1.1
2 10 -15 1.8 2.2
2 -10 15 -0.1 0.9
2 -10 15 -0.6 3
-2 -10 15 -0.1 0.7
-2 -10 15 -0.2 1.8
-2 10 -15 0.8 1.7
-2 10 -15 0.1 0.9
0 0 -16 997.7 27.4
0 0 16 1026.8 27.3
0 0 -16 979 27.7
0 0 16 1012.2 27.9
1 0 -16 17.9 1.3
1 0 -16 18.2 0.9
-1 0 16 19 0.7
-1 0 16 19.9 1.2
2 0 -16 39.4 1.6
2 0 -16 39.4 1.9
-2 0 16 40.2 1.7
-2 0 16 41.9 1.4
-3 0 16 127.09 4
3 0 -16 125.79 4.3
3 0 -16 120.09 4
-3 0 16 126.59 3.7
4 0 -16 0.8 0.6
-4 0 16 1.4 0.3
4 0 -16 1.5 0.6
-4 0 16 1.1 0.5
-5 0 16 18.4 1.2
5 0 -16 14.1 1.8
5 0 -16 18.6 1.5
-5 0 16 17.3 1.1
-6 0 16 -0.5 0.8
6 0 -16 0 1.7
6 0 -16 -1.7 1
-6 0 16 0.1 0.8
7 0 -16 0.3 1.6
-7 0 16 0.5 1
7 0 -16 -0.6 2.1
-7 0 16 0.8 1
0 -1 16 28.4 1
0 1 -16 28.4 1.1
0 -1 16 31.1 1.9
0 1 -16 31.5 1.5
1 -1 16 161.48 6
1 1 -16 184.48 5.3
1 1 -16 173.08 5.7
1 -1 16 187.18 5
-1 1 -16 189.58 5.4
-1 1 -16 185.38 5.7
-1 -1 16 190.18 5.3
-1 -1 16 189.38 6
-2 1 16 7.7 0.7
-2 1 16 7.1 0.4
2 -1 16 6.6 0.5
2 1 -16 6.7 0.7
2 -1 16 6.5 1.3
2 1 -16 7.9 1
2 -1 -16 6.3 0.9
-2 1 -16 6.7 0.5
2 -1 -16 7.4 0.7
-2 1 -16 7.5 0.7
-2 -1 16 7.2 0.5
-2 -1 16 7 0.9
3 -1 16 6.9 1.3
-3 1 16 7.6 0.7
3 1 -16 6.1 0.8
3 1 -16 8.2 1.1
-3 1 16 8 0.5
3 -1 -16 7.2 0.9
-3 -1 16 7.4 0.5
-3 -1 16 6.9 0.9
3 -1 -16 7.7 0.8
-3 1 -16 7.8 0.8
4 1 -16 33.9 2
-4 1 16 34.3 1.3
4 -1 16 30.5 2.6
4 1 -16 33.3 1.7
-4 1 16 33 1.5
-4 -1 16 31.8 1.6
-4 1 -16 31.3 1.5
4 -1 -16 32.3 1.6
4 -1 -16 30.5 1.8
-4 -1 16 33 1.3
-5 1 16 1.3 0.6
5 1 -16 -0.3 1.4
-5 1 16 0.6 0.4
5 1 -16 0.6 0.6
5 -1 -16 0.9 1.1
-5 -1 16 0.2 0.4
5 -1 -16 0.1 0.6
-5 -1 16 -0.4 0.5
6 1 -16 1.3 2.1
-6 1 16 1.2 0.8
6 1 -16 0.2 1.1
-6 1 16 -0.3 0.7
-6 -1 16 0.3 0.8
6 -1 -16 0.2 1
6 -1 -16 0.6 1.6
-6 -1 16 1.3 0.9
-7 1 16 1.5 1
7 1 -16 1.4 1.6
-7 1 16 0.2 1
7 1 -16 1.8 2.4
-7 -1 16 -0.6 1
7 -1 -16 0.3 1.9
7 -1 -16 -1.5 1.6
-7 -1 16 1.3 1
0 2 -16 323.47 8.9
0 2 -16 308.47 9.3
0 -2 16 315.97 8.8
0 -2 16 310.47 9.8
1 -2 16 38.9 1.3
1 2 -16 37.8 1.5
1 -2 16 32.5 2.3
1 2 -16 39.9 2
-1 2 -16 38.9 1.8
-1 -2 16 39.1 1.3
-1 2 -16 38.5 1.4
-1 -2 16 38.9 2.1
2 -2 16 53.89 3
2 2 -16 59.19 2.5
2 2 -16 54.69 2
2 -2 16 53.69 1.8
-2 -2 16 57.19 2.5
-2 2 -16 55.69 1.9
-2 -2 16 54.29 1.8
-2 2 -16 58.19 2.2
3 2 -16 62.99 2.4
3 2 -16 63.19 2.8
3 -2 16 59.89 3.3
-3 2 -16 67.29 2.6
-3 -2 16 67.89 2.2
-3 -2 16 68.49 2.7
4 2 -16 4.7 1.2
4 2 -16 3.3 0.7
4 -2 16 2.9 1.3
-4 -2 16 4.2 0.6
-4 -2 16 3 0.7
-4 2 -16 4.7 0.8
5 2 -16 4.5 1.9
5 2 -16 2.4 0.8
-5 2 16 2 0.6
-5 2 16 3.9 0.6
5 -2 16 2.5 1.3
5 -2 16 3 0.7
-5 -2 16 2.9 0.8
-5 2 -16 2.3 0.8
5 -2 -16 3.2 1
5 -2 -16 2.7 0.8
-5 -2 16 2.8 0.7
-6 2 16 6.4 1
6 -2 16 7.5 1.1
6 2 -16 5.4 2.2
-6 2 16 6.8 1
6 2 -16 9.4 1.6
6 -2 16 4.3 2.3
6 -2 -16 5.8 1.6
-6 2 -16 6.3 1.2
-6 -2 16 5.8 1
-6 -2 16 6.9 1.3
6 -2 -16 7.3 1.4
7 2 -16 8.4 2.6
7 2 -16 5.4 1.8
-7 2 16 3.5 1.1
-7 2 16 2 1
7 -2 -16 4.6 1.9
-7 -2 16 2.9 1.3
-7 -2 16 2.5 1
7 -2 -16 4.1 1.8
0 -3 16 1.2 0.8
0 3 -16 0.6 0.5
0 3 -16 0.3 0.3
0 -3 16 0.4 0.2
1 3 -16 30.6 1.3
1 -3 16 31.8 2.4
1 3 -16 27.7 1.7
1 -3 16 28.4 1.1
-1 3 -16 30.7 1.2
-1 -3 16 29.5 1.9
-1 3 -16 29.5 1.6
-1 -3 16 30.3 1.1
2 3 -16 20.1 1.1
2 3 -16 23.1 1.9
2 -3 16 20.8 0.9
2 -3 16 15.8 2.1
-2 3 -16 20.3 1.3
-2 -3 16 21.3 0.9
-2 -3 16 20.6 1.6
-2 3 -16 20.1 1
3 3 -16 23 1.3
3 -3 16 26.2 1.1
3 3 -16 24 1.7
3 -3 16 18.2 2.2
-3 3 -16 21.4 1.4
-3 3 -16 24.3 1.1
-3 -3 16 26.4 1.1
-3 -3 16 24.4 1.5
4 3 -16 21.9 2.1
4 3 -16 25.1 1.5
4 -3 16 21.6 2.5
-4 -3 16 25.2 1.2
-4 -3 16 25.3 1.6
-4 3 -16 24 1.5
5 3 -16 2.6 2.1
5 -3 16 -0.8 1.4
5 3 -16 0.9 0.8
-5 -3 16 1.4 0.7
-5 3 -16 1.6 0.9
-5 -3 16 0.5 0.7
6 -3 16 -0.2 2.4
6 3 -16 1.7 2.6
6 3 -16 2.2 1.4
6 -3 16 0.9 1
-6 3 -16 1.5 1.2
-6 -3 16 3.5 0.9
-6 -3 16 2.1 1.1
7 -3 16 3.1 3
7 -3 16 1.4 1.2
-7 3 -16 1.3 1.3
0 -4 16 35.3 2.5
0 4 -16 38.3 1.5
0 4 -16 37.4 2
0 -4 16 40.2 1.4
1 4 -16 24.4 1.1
1 -4 16 23 1
1 -4 16 26.6 2.6
1 4 -16 23.7 1.8
-1 -4 16 24 1
-1 -4 16 24.5 2.1
-1 4 -16 21.8 1.5
-1 4 -16 23.9 1.1
2 4 -16 10.9 0.8
2 4 -16 13 1.5
2 -4 16 10.9 0.7
2 -4 16 8.6 1.7
-2 -4 16 12.1 0.6
-2 4 -16 10.8 1.1
-2 4 -16 10.9 0.8
-2 -4 16 11.5 1.4
3 4 -16 21.4 1.3
3 -4 16 22.9 1.1
3 -4 16 20.3 2.4
3 4 -16 24.3 2.1
-3 -4 16 24.6 1.6
-3 4 -16 24.7 1.5
-3 4 -16 23.7 1.1
-3 -4 16 24.9 1.1
4 -4 16 -1.5 1.2
4 4 -16 0.1 1.6
4 4 -16 0.8 0.6
-4 4 -16 1.2 1
-4 -4 16 0.4 0.5
-4 -4 16 0.2 0.6
5 -4 16 6.8 2.4
5 4 -16 7.9 2.6
5 4 -16 8.4 1.3
-5 -4 16 8 1.3
-5 4 -16 7.2 1.3
-5 -4 16 9.7 1
6 -4 16 2.5 2.8
6 4 -16 2 2.5
6 4 -16 1.9 1.4
6 -4 16 1.7 1
-6 -4 16 2.3 1.2
-6 4 -16 2.2 1.4
-6 -4 16 2 0.9
0 5 -16 32.5 1.4
0 -5 16 36.5 1.3
0 5 -16 34.7 2
0 -5 16 32.9 2.5
1 -5 16 10.5 1.9
1 -5 16 12.5 0.7
1 5 -16 11.9 0.9
1 5 -16 13.1 1.4
-1 5 -16 11.6 0.8
-1 5 -16 12.5 1.3
-1 -5 16 14 0.7
-1 -5 16 12.2 1.7
2 5 -16 46.6 1.9
2 5 -16 42.4 2.5
2 -5 16 41.2 3.4
2 -5 16 42.5 1.6
-2 -5 16 45.8 1.6
-2 -5 16 40 2.4
-2 5 -16 46 1.8
-2 5 -16 47.6 2.2
3 5 -16 40.1 1.8
3 -5 16 30.1 3
3 -5 16 37.8 1.6
3 5 -16 42.1 3.2
-3 -5 16 42.8 2.3
-3 -5 16 37.9 1.6
-3 5 -16 39.9 1.6
-3 5 -16 41.1 2.4
4 5 -16 16 1.4
4 -5 16 9.2 2.2
4 5 -16 13.1 2.4
-4 5 -16 15.5 1.8
-4 -5 16 15.4 1.5
-4 -5 16 15.3 1.1
5 5 -16 5.1 1.3
5 -5 16 9.5 3.2
5 5 -16 3.1 2.7
-5 5 -16 7 1.7
-5 -5 16 6.1 1.3
-5 -5 16 8.6 1
6 5 -16 5.1 2.6
6 -5 16 3.8 3.4
6 5 -16 1.8 1.5
6 -5 16 4.1 1.2
-6 -5 16 2.7 0.9
-6 5 -16 4.6 1.6
-6 -5 16 2.5 1.3
0 6 -16 3 1.1
0 -6 16 2.8 0.5
0 -6 16 3.5 1.3
0 6 -16 3.4 0.5
1 -6 16 -0.1 1.1
1 6 -16 2.3 0.5
1 6 -16 2.8 1.3
1 -6 16 2.3 0.5
-1 -6 16 2.7 0.5
-1 6 -16 2.9 0.5
-1 6 -16 3 1.1
-1 -6 16 -0.2 1
2 -6 16 7.3 1.8
2 -6 16 9.9 0.8
2 6 -16 13.3 1.1
2 6 -16 12 2
-2 -6 16 14.8 1
-2 6 -16 12.6 0.9
-2 6 -16 13.9 1.6
-2 -6 16 13.3 1.7
3 6 -16 6.2 0.8
3 -6 16 4.3 0.8
3 -6 16 3.1 1.8
3 6 -16 4 1.9
-3 -6 16 4.2 0.7
-3 6 -16 6.1 0.7
-3 -6 16 3.7 1
-3 6 -16 5.1 1.5
4 6 -16 2.7 1
4 -6 16 1.7 2.3
4 6 -16 3.4 2.5
-4 6 -16 2.7 1.4
-4 -6 16 3.5 0.8
-4 6 -16 3.5 0.7
-4 -6 16 1.9 1.1
5 -6 16 7 3.5
5 6 -16 8 2.6
5 6 -16 13.5 1.8
-5 -6 16 7.5 1
-5 6 -16 8.7 2
-5 -6 16 7.2 1.5
0 7 -16 40.7 1.7
0 7 -16 45.4 3
0 -7 16 31.8 2.9
0 -7 16 41.1 1.7
1 -7 16 6.2 1.8
1 -7 16 8.6 0.9
1 7 -16 6.7 0.8
1 7 -16 7.9 1.9
-1 7 -16 8.7 0.9
-1 -7 16 6.8 1.5
-1 7 -16 6.6 1.6
-1 -7 16 8.3 0.8
2 -7 16 5.1 0.8
2 7 -16 2.5 1.8
2 7 -16 5.3 0.9
2 -7 16 5.4 1.9
-2 7 -16 4.4 1.5
-2 -7 16 6.2 1.5
-2 7 -16 5.5 0.7
-2 -7 16 5.8 0.8
3 7 -16 7.8 2.5
3 7 -16 10.6 1.3
3 -7 16 8 1
3 -7 16 7 2.6
-3 7 -16 7.5 1.8
-3 -7 16 5.8 1.4
-3 -7 16 11 1
-3 7 -16 9.4 1
4 7 -16 10.6 1.4
4 7 -16 8.9 2.7
4 -7 16 10.1 3.4
-4 7 -16 11.5 1.2
-4 7 -16 10 2
-4 -7 16 8 1.6
-4 -7 16 11.1 1.1
5 7 -16 2.7 2.9
5 -7 16 6.7 3.7
5 7 -16 4.4 1.6
-5 7 -16 6.3 1.1
-5 -7 16 7.1 1.6
-5 -7 16 5.9 1
-5 7 -16 6.7 2
0 -8 16 6.9 1.9
0 8 -16 5.5 1.9
0 8 -16 4.4 0.8
0 -8 16 5 0.8
1 8 -16 -0.3 0.7
1 -8 16 0.1 2
1 -8 16 1.2 0.8
1 8 -16 0.6 1.9
-1 8 -16 0 0.6
-1 -8 16 1.7 1.6
-1 8 -16 0.2 1.7
-1 -8 16 0.1 0.7
2 8 -16 1.8 2
2 8 -16 2.4 1
2 -8 16 2.7 0.9
2 -8 16 2.9 2.4
-2 8 -16 2.5 0.7
-2 -8 16 5.7 1.8
-2 -8 16 4 0.8
-2 8 -16 4.2 1.8
3 8 -16 -0.8 2.2
3 8 -16 0.8 0.9
3 -8 16 3.5 2.8
-3 8 -16 1.9 1.7
-3 8 -16 0.4 0.7
-3 -8 16 0.8 0.7
-3 -8 16 0.6 1.5
4 8 -16 -1.3 2.4
4 8 -16 1.3 1.3
4 -8 16 1.3 3.5
-4 -8 16 -0.2 0.8
-4 8 -16 1.3 1.8
-4 8 -16 -0.2 0.8
-4 -8 16 0.9 1.4
0 9 -16 11.2 2.3
0 -9 16 12.1 1.1
0 9 -16 12.5 1.4
0 -9 16 11.7 2.7
1 -9 16 -0.4 0.8
1 -9 16 1.3 2.6
1 9 -16 0.6 0.9
1 9 -16 -0.8 2
-1 -9 16 0.3 0.7
-1 -9 16 -1.2 1.9
-1 9 -16 0.2 1.8
-1 9 -16 0.8 0.8
2 -9 16 7.6 1.1
2 9 -16 6.5 2.3
2 9 -16 8.5 1.4
2 -9 16 4.9 3.1
-2 9 -16 6.3 1.1
-2 9 -16 8.5 2
-2 -9 16 6.5 0.9
-2 -9 16 7.2 2.1
3 9 -16 3.6 2.5
3 -9 16 3.8 3.1
3 9 -16 0.4 1.2
-3 -9 16 3.3 0.8
-3 9 -16 2.2 0.8
-3 9 -16 0 1.7
-3 -9 16 3.3 1.7
0 -10 16 1.4 2.6
0 10 -16 2.4 2
0 -10 16 1.2 0.9
0 10 -16 2.8 1.1
1 -10 16 4 1
1 10 -16 4.4 2.2
1 -10 16 2.8 2.9
1 10 -16 4.7 1.3
-1 -10 16 4.6 2.4
-1 10 -16 4.6 1.2
-1 -10 16 4.9 1
-1 10 -16 5 1.9
2 10 -16 1.7 1.3
2 -10 16 1.1 3.5
2 -10 16 1.2 1.4
2 10 -16 5.8 2.4
-2 10 -16 5.3 2
-2 -10 16 2.9 0.9
-2 10 -16 3.5 1.3
-2 -10 16 1.8 2
0 0 -17 0.7 0.4
1 0 -17 32.3 1.3
-1 0 17 33.6 1.1
1 0 -17 30.5 1.7
-1 0 17 32 1.6
-2 0 17 3.3 0.6
2 0 -17 2.7 0.5
-2 0 17 2.9 0.3
2 0 -17 1.6 0.7
-3 0 17 0.7 0.5
3 0 -17 1.2 0.7
3 0 -17 1 0.4
-3 0 17 0.2 0.2
4 0 -17 23.8 1.7
-4 0 17 19.8 1.2
4 0 -17 21 1.4
-4 0 17 22.3 1
-5 0 17 25.2 1.3
5 0 -17 30.6 2.5
-5 0 17 26.5 1.5
5 0 -17 25.7 1.7
6 0 -17 8.1 2.2
-6 0 17 6.8 1
-6 0 17 5.2 1.1
6 0 -17 6.7 1.4
-7 0 17 3.6 1.1
7 0 -17 3.6 2.3
7 0 -17 3.6 1.8
-7 0 17 2 1.1
0 -1 17 0 0.2
0 -1 17 0.5 0.8
0 1 -17 0.5 0.5
0 1 -17 0 0.2
1 -1 17 47.7 1.5
1 1 -17 43.8 1.7
1 -1 17 43.9 2.5
1 1 -17 47.5 2.1
-1 1 -17 43.9 1.9
-1 -1 17 50.29 2.2
-1 1 -17 48.5 1.6
-1 -1 17 47.4 1.5
2 1 -17 21.3 1.5
2 -1 17 16.7 0.8
2 -1 17 18.6 1.9
2 1 -17 17 1
-2 -1 17 21.7 1.3
-2 1 -17 16.7 0.8
-2 -1 17 18.1 0.8
-2 1 -17 18.5 1.1
-3 1 17 27.9 1
3 1 -17 24.6 1.7
-3 1 17 25.2 1.2
3 1 -17 26 1.4
3 -1 17 24.2 2.3
3 -1 -17 25.5 1.6
-3 1 -17 26.4 1.1
-3 -1 17 24.6 1.4
-3 -1 17 27 1.1
3 -1 -17 25 1.3
-3 1 -17 25.8 1.3
-4 1 17 5.3 0.5
-4 1 17 4.4 0.7
4 1 -17 4.8 0.8
4 1 -17 6.4 1.1
4 -1 -17 4.6 0.9
4 -1 -17 7.8 0.9
-4 -1 17 5.6 0.8
-4 -1 17 5.3 0.6
-5 1 17 5 0.7
5 1 -17 6 1.9
-5 1 17 6.2 0.8
5 1 -17 4.3 0.9
5 -1 -17 5.1 1.4
-5 -1 17 5 0.9
-5 -1 17 4.1 0.8
5 -1 -17 5.5 1
6 1 -17 -0.1 1.9
-6 1 17 0.9 0.8
6 1 -17 2.6 1.3
-6 1 17 0.9 0.8
-6 -1 17 1.8 0.8
6 -1 -17 4.2 1.8
-6 -1 17 1.3 1
6 -1 -17 1.9 1.2
-7 1 17 1.2 1
-7 1 17 0 0.9
7 1 -17 1.1 1.4
7 1 -17 0.6 2.4
7 -1 -17 1.7 1.7
7 -1 -17 0.9 2
-7 -1 17 0.8 1
-7 -1 17 -0.2 0.9
0 -2 17 4.5 1.1
0 -2 17 4.5 0.4
0 2 -17 3.2 0.7
0 2 -17 4.5 0.5
1 -2 17 65.19 2
1 2 -17 67.39 2.8
1 -2 17 62.99 3.2
1 2 -17 64.99 2.2
-1 -2 17 66.59 2.1
-1 -2 17 68.89 2.9
-1 2 -17 65.99 2.2
-1 2 -17 66.19 2.6
2 -2 17 0.6 0.2
2 2 -17 1 0.4
2 2 -17 -0.3 0.6
2 -2 17 0.5 1
-2 2 -17 0.3 0.3
-2 -2 17 0.1 0.6
-2 2 -17 0.5 0.5
-2 -2 17 0.6 0.2
3 2 -17 1 0.8
3 -2 17 3.3 1.2
3 2 -17 2.6 0.6
-3 2 -17 2 0.4
-3 -2 17 0.2 0.5
-3 -2 17 1.7 0.3
-3 2 -17 2 0.6
4 2 -17 11.5 1.6
4 2 -17 13.1 1.2
4 -2 17 11.9 1.9
-4 -2 17 12.3 0.8
-4 2 -17 11.5 1.1
-4 -2 17 12.2 1.1
5 -2 17 4.8 0.8
5 -2 17 3.8 1.5
5 2 -17 3.1 2
5 2 -17 2.9 0.8
-5 -2 17 6 0.8
-5 2 -17 5.9 1
-5 -2 17 3.8 0.8
6 2 -17 3.3 2.4
-6 2 17 3.9 0.9
6 2 -17 4.3 1.4
-6 2 17 3.6 0.9
6 -2 -17 2.2 1.2
6 -2 -17 2.6 1.7
-6 -2 17 4.1 0.9
-6 -2 17 4.5 1.1
-7 2 17 7.6 1.2
-7 2 17 7.1 1.1
-7 -2 17 10.2 1.9
7 -2 -17 6.9 2
7 -2 -17 5.8 2
0 3 -17 -0.1 0.5
0 -3 17 0.3 0.2
0 3 -17 0.5 0.3
0 -3 17 0.8 0.8
1 -3 17 28.5 1.1
1 3 -17 26.5 1.8
1 3 -17 27.5 1.2
1 -3 17 20.3 2.2
-1 3 -17 31.9 1.7
-1 3 -17 29.7 1.2
-1 -3 17 28.1 1.9
-1 -3 17 28.4 1.1
2 3 -17 14 1
2 -3 17 13.8 2
2 3 -17 14.8 1.5
2 -3 17 15.1 0.8
-2 3 -17 16.3 1.3
-2 -3 17 14.5 0.7
-2 3 -17 14.4 0.8
-2 -3 17 18.4 1.6
3 -3 17 21.6 1
3 3 -17 22.5 1.3
3 3 -17 23.3 1.9
3 -3 17 17.9 2.2
-3 3 -17 23.5 1.1
-3 -3 17 23.7 1
-3 3 -17 21.9 1.4
-3 -3 17 21.5 1.5
4 -3 17 16.6 2.2
4 3 -17 19.2 1.3
4 3 -17 17.9 2.3
-4 -3 17 19.7 1.1
-4 -3 17 21.2 1.5
-4 3 -17 22.3 1.6
5 3 -17 1.7 2.2
5 3 -17 1.7 0.9
5 -3 17 2.8 2
-5 3 -17 4 1.2
-5 -3 17 3.1 0.9
-5 -3 17 3.8 0.9
6 3 -17 3.1 1.5
6 -3 17 3.7 1.1
6 3 -17 5 2.7
6 -3 17 2 2.7
-6 -3 17 3.4 1
-6 3 -17 2.2 1.4
-6 -3 17 2.7 1.2
0 -4 17 46.8 2.8
0 -4 17 47.7 1.6
0 4 -17 47.5 1.8
0 4 -17 46.4 2.3
1 4 -17 13.1 1.4
1 4 -17 13.8 0.9
1 -4 17 13.4 0.7
1 -4 17 8.8 1.6
-1 4 -17 13 0.8
-1 -4 17 12.8 1.6
-1 4 -17 14.1 1.3
-1 -4 17 13.6 0.7
2 -4 17 13.8 0.7
2 4 -17 16.8 1.7
2 -4 17 12.5 2
2 4 -17 13.3 1
-2 -4 17 13.9 0.7
-2 4 -17 17.1 0.9
-2 -4 17 16.3 1.7
-2 4 -17 12.9 1.2
3 4 -17 0.6 1.2
3 -4 17 0.6 0.5
3 -4 17 1.2 1.4
3 4 -17 0.7 0.5
-3 4 -17 0.2 0.7
-3 -4 17 1.1 0.8
-3 4 -17 1.5 0.4
-3 -4 17 0.9 0.5
4 4 -17 -0.3 0.6
4 -4 17 1.6 1.5
4 4 -17 0.4 1.9
-4 4 -17 -0.2 1.1
-4 -4 17 -0.1 0.6
-4 -4 17 0.4 0.6
5 -4 17 5.6 2.6
5 4 -17 8 1.4
5 4 -17 3.3 2.3
-5 -4 17 5.5 1.3
-5 -4 17 5.4 0.9
-5 4 -17 8.6 1.6
6 -4 17 2 3.1
6 4 -17 -0.4 2.7
6 -4 17 0.7 1.1
6 4 -17 2.5 1.3
-6 -4 17 3.2 1
-6 -4 17 2.6 1.1
-6 4 -17 3 1.5
0 -5 17 2.4 1.3
0 -5 17 3.3 0.4
0 5 -17 3.1 0.9
0 5 -17 3.7 0.6
1 5 -17 23.1 1.2
1 -5 17 25.5 1.1
1 -5 17 15 2.1
1 5 -17 24.1 2
-1 5 -17 24.7 1.2
-1 5 -17 22.8 1.6
-1 -5 17 22.2 2.2
-1 -5 17 25.8 1.1
2 -5 17 13 2
2 -5 17 14.9 0.9
2 5 -17 15 2
2 5 -17 16.2 1.1
-2 -5 17 16.7 1.8
-2 5 -17 15.8 0.9
-2 5 -17 14.4 1.4
-2 -5 17 17.3 1
3 -5 17 28.8 1.5
3 5 -17 33.6 3
3 -5 17 20.9 2.7
3 5 -17 28.8 1.6
-3 -5 17 36.1 1.5
-3 5 -17 33.7 2.3
-3 -5 17 31 2
-3 5 -17 31.7 1.5
4 -5 17 12.5 2.7
4 5 -17 10.3 2.4
4 5 -17 14.4 1.4
-4 5 -17 12.9 1.8
-4 -5 17 12.4 1.5
-4 -5 17 12.3 1
-4 5 -17 11.7 1
5 -5 17 3.3 3
5 5 -17 1.6 1.2
5 5 -17 1.8 2.7
-5 5 -17 3 1.5
-5 -5 17 2.5 1.2
-5 -5 17 1.9 0.9
6 5 -17 4 1.5
6 5 -17 4.8 3
6 -5 17 4.2 1.3
6 -5 17 4 3.4
-6 -5 17 4.7 1
-6 -5 17 2.9 1.3
-6 5 -17 4.2 1.8
0 -6 17 2.8 0.5
0 6 -17 1.3 0.4
0 6 -17 2.6 1.4
0 -6 17 2.6 1.2
1 6 -17 23.5 1.3
1 6 -17 23 2.3
1 -6 17 18.9 2.4
1 -6 17 24 1.1
-1 -6 17 27.5 2.6
-1 -6 17 22.3 1.2
-1 6 -17 20.6 1.9
-1 6 -17 22.6 1.2
2 -6 17 12.1 2.2
2 -6 17 17.4 1.2
2 6 -17 15.3 2.3
2 6 -17 16.8 1.2
-2 6 -17 14.3 1.7
-2 6 -17 17.6 1.1
-2 -6 17 17.7 1.1
-2 -6 17 18.6 2
3 6 -17 2.3 2.2
3 -6 17 1 0.7
3 -6 17 -2 1.5
3 6 -17 0 0.6
-3 -6 17 0 0.6
-3 6 -17 0.2 0.4
-3 -6 17 1.5 1
-3 6 -17 1.6 1.4
4 6 -17 0.2 2.3
4 6 -17 -0.7 0.9
4 -6 17 -0.7 2.5
-4 -6 17 0.3 0.8
-4 -6 17 0.4 1.1
-4 6 -17 1.4 0.7
-4 6 -17 0.1 1.6
5 6 -17 4.2 2.9
5 -6 17 7.4 3.7
5 6 -17 3.4 1.4
-5 -6 17 2.8 1.4
-5 -6 17 4.8 1
-5 6 -17 5.1 1.1
-5 6 -17 3.8 1.7
0 -7 17 4.3 0.7
0 -7 17 4.9 1.5
0 7 -17 4.2 1.8
0 7 -17 4.2 0.7
1 -7 17 8.5 2
1 -7 17 15 1.1
1 7 -17 16.2 1.3
1 7 -17 15.7 2.4
-1 7 -17 12.3 1
-1 7 -17 15 2.1
-1 -7 17 15.6 2.1
-1 -7 17 14.2 1
2 -7 17 4.6 2.3
2 7 -17 1 2.1
2 7 -17 3.5 0.9
2 -7 17 3.5 0.8
-2 -7 17 6.8 1.6
-2 7 -17 2.9 0.7
-2 -7 17 3.5 0.7
-2 7 -17 3.2 1.6
3 -7 17 22.1 1.5
3 7 -17 22.2 1.8
3 7 -17 18.4 2.9
3 -7 17 16.7 3.4
-3 -7 17 20.2 2.2
-3 7 -17 18.1 2.1
-3 -7 17 23.6 1.5
-3 7 -17 20.4 1.4
4 7 -17 8.7 1.5
4 -7 17 7.9 3.2
4 7 -17 8.5 2.9
-4 -7 17 9.6 1.1
-4 7 -17 9.7 2
-4 -7 17 7 1.6
-4 7 -17 7.7 1
5 7 -17 1.4 2.7
5 -7 17 5.8 3.7
5 7 -17 3.5 1.6
-5 7 -17 1.9 1
-5 -7 17 2 0.9
-5 -7 17 1.5 1.4
-5 7 -17 1.9 1.8
0 8 -17 7.2 1
0 8 -17 8.3 2
0 -8 17 5.2 2.2
0 -8 17 5.8 0.9
1 8 -17 5.1 0.9
1 -8 17 4.5 0.9
1 8 -17 4.7 2.2
1 -8 17 8.1 2.5
-1 -8 17 6.6 0.9
-1 -8 17 5.6 2
-1 8 -17 6 2
-1 8 -17 5.8 1
2 -8 17 -2.2 2.4
2 -8 17 5 1
2 8 -17 3.7 2.4
2 8 -17 4.6 1.1
-2 -8 17 4 1.9
-2 8 -17 5.3 1
-2 8 -17 3.4 1.8
-2 -8 17 5.1 0.9
3 -8 17 -1.8 2.6
3 8 -17 -1.4 2.3
3 8 -17 -0.8 1
-3 -8 17 1.1 0.8
-3 -8 17 1.5 1.6
-3 8 -17 0.9 1.6
-3 8 -17 1.2 0.7
4 -8 17 3 3.5
4 8 -17 1.6 1.3
4 8 -17 1.5 2.4
-4 8 -17 1.3 0.9
-4 -8 17 0.2 0.8
-4 -8 17 0.6 1.4
-4 8 -17 1.3 1.8
0 -9 17 4 0.9
0 9 -17 5.9 2
0 -9 17 5.4 2.7
0 9 -17 6 1.2
1 -9 17 0 0.8
1 9 -17 1.1 1
1 -9 17 0.7 2.7
1 9 -17 1.3 2.1
-1 9 -17 1.1 0.9
-1 9 -17 0.6 1.9
-1 -9 17 0.8 0.8
-1 -9 17 -0.9 1.9
2 9 -17 1.8 1.2
2 9 -17 6.2 2.4
2 -9 17 0.9 0.9
2 -9 17 3.2 2.8
-2 9 -17 3.8 1.9
-2 -9 17 1.5 0.8
-2 -9 17 3.9 2.1
-2 9 -17 1.1 0.8
3 -9 17 1.8 3.4
3 9 -17 3.2 2.4
3 9 -17 3.2 1.3
-3 -9 17 3.4 0.9
-3 9 -17 3.2 1
-3 -9 17 2.6 1.7
-3 9 -17 1.2 2
0 10 -17 1 1.1
0 -10 17 0.8 2.5
0 10 -17 0.8 2.1
0 -10 17 1.1 0.9
1 10 -17 2.7 2.2
1 -10 17 1.7 1.1
1 -10 17 2 3
1 10 -17 2.2 1.2
-1 -10 17 2.7 0.9
-1 10 -17 2.6 1.1
-1 10 -17 4.4 2
-1 -10 17 3.1 2.3
1 0 -18 138.09 4.1
1 0 -18 128.69 4.5
-1 0 18 136.39 3.9
-1 0 18 134.19 4.4
2 0 -18 3.1 0.5
-2 0 18 3.9 0.6
2 0 -18 4.9 0.8
-2 0 18 3.1 0.3
3 0 -18 3 0.6
3 0 -18 4.6 0.9
-3 0 18 4.4 0.7
-3 0 18 3.7 0.4
4 0 -18 2.8 0.6
-4 0 18 4.3 0.6
-4 0 18 3.9 0.6
4 0 -18 4.8 1.1
-5 0 18 3.2 0.8
-5 0 18 2.5 0.7
5 0 -18 4.3 0.9
5 0 -18 1.7 1.6
-6 0 18 15.6 1.3
-6 0 18 13.4 1.4
6 0 -18 18.4 2.6
6 0 -18 16.3 1.9
7 0 -18 5 2
-7 0 18 5.1 1.2
7 0 -18 6.9 3.8
0 1 -18 1.7 0.6
0 1 -18 1.8 0.3
0 -1 18 1.8 0.3
0 -1 18 3 0.9
1 1 -18 1.5 0.4
1 -1 18 1.8 0.3
1 -1 18 1.2 0.9
1 1 -18 2.2 0.7
-1 1 -18 2.8 0.6
-1 -1 18 2 0.3
-1 1 -18 1.8 0.3
-1 -1 18 1.9 0.7
2 1 -18 40.1 1.7
2 -1 18 42.4 1.4
2 1 -18 44 2.1
2 -1 18 33.2 2.4
-2 -1 18 43.6 1.5
-2 1 -18 42.6 1.5
-2 -1 18 46.3 2
-2 1 -18 44.3 1.8
3 1 -18 1.3 0.8
3 1 -18 1.2 0.5
-3 -1 18 2.3 0.6
-3 -1 18 1.4 0.3
-4 1 18 2.5 0.4
4 1 -18 2.8 0.6
-4 1 18 4.6 0.7
4 1 -18 1.4 1
4 -1 -18 2.1 0.8
-4 -1 18 3 0.6
-4 -1 18 3.2 0.6
4 -1 -18 2.9 0.7
5 1 -18 39.8 3
-5 1 18 45.9 1.9
5 1 -18 47.6 2.3
-5 1 18 46.4 2
-5 -1 18 49.7 2.2
5 -1 -18 47.2 2.3
-5 -1 18 45.9 2
5 -1 -18 41.9 2.9
6 1 -18 1.1 1.3
-6 1 18 2.4 0.9
-6 1 18 3.8 0.9
6 1 -18 3.2 2.2
6 -1 -18 3.4 1.3
-6 -1 18 2 0.9
-6 -1 18 -0.3 1
6 -1 -18 2 1.8
-7 1 18 1.1 1
-7 1 18 0.6 1.2
7 -1 -18 0.1 1.9
7 -1 -18 -2.8 2.1
0 2 -18 5.1 0.9
0 -2 18 5 1.1
0 2 -18 4 0.5
0 -2 18 4.4 0.4
1 2 -18 50.49 1.9
1 -2 18 43.4 2.7
1 -2 18 51.29 1.6
1 2 -18 48.6 2.3
-1 2 -18 53.59 1.8
-1 2 -18 49 2.2
-1 -2 18 52.59 1.7
-1 -2 18 56.09 2.6
2 2 -18 8.6 1.1
2 -2 18 9.5 0.6
2 -2 18 10.7 1.7
2 2 -18 9.2 0.8
-2 -2 18 8.4 1.1
-2 2 -18 9.4 0.6
-2 2 -18 11.8 1.1
-2 -2 18 8 0.6
3 2 -18 8.4 1.3
3 -2 18 7.7 1.5
3 2 -18 8.6 0.9
-3 -2 18 11.5 1.1
-3 2 -18 10.1 0.7
-3 2 -18 10.8 1
-3 -2 18 11.1 0.7
4 -2 18 29.4 2.8
4 2 -18 38 1.9
-4 -2 18 39.2 1.9
-4 2 -18 38.7 1.8
-4 -2 18 37.4 1.6
5 2 -18 6.4 1.1
5 -2 18 6.5 1.4
5 2 -18 5.3 2.1
-5 2 -18 3.3 1.1
-5 -2 18 5.7 1.1
-5 -2 18 4.6 0.8
6 2 -18 2.4 1.4
6 2 -18 -2.5 2.4
-6 -2 18 1.9 0.8
-6 -2 18 4.2 1.3
0 3 -18 10.3 1.1
0 -3 18 6.8 0.5
0 3 -18 7.5 0.7
0 -3 18 11.5 1.5
1 -3 18 25.3 2.5
1 -3 18 29.7 1.1
1 3 -18 32 1.9
1 3 -18 29.7 1.3
-1 -3 18 33.5 2.1
-1 3 -18 31.9 1.7
-1 3 -18 32.9 1.3
-1 -3 18 31.5 1.2
2 3 -18 4.4 1.1
2 -3 18 3.8 0.4
2 -3 18 3.5 1.3
2 3 -18 4.2 0.7
-2 -3 18 6 1.1
-2 -3 18 5 0.5
-2 3 -18 3.5 0.5
-2 3 -18 4.1 0.7
3 -3 18 12.1 1.8
3 3 -18 10.6 1
3 3 -18 13.1 1.7
3 -3 18 10.3 0.7
-3 3 -18 10.5 1
-3 -3 18 10.8 0.7
-3 -3 18 12.5 1.2
-3 3 -18 10.9 0.8
4 3 -18 3.3 0.7
4 -3 18 4.1 1.5
4 3 -18 3.6 1.9
-4 -3 18 3.7 0.8
-4 -3 18 2.8 0.6
-4 3 -18 3.5 1
5 3 -18 22.2 3
5 3 -18 19.3 1.7
5 -3 18 16.2 2.9
-5 3 -18 16.2 1.6
-5 -3 18 22.5 1.4
-5 -3 18 18.6 1.7
6 -3 18 3.2 2.9
6 3 -18 1.3 1.2
6 3 -18 0.7 2.4
6 -3 18 0.9 1
-6 -3 18 1.6 0.9
-6 -3 18 1.4 1.1
-6 3 -18 3.2 1.3
0 4 -18 0.1 0.6
0 -4 18 -0.3 0.9
0 -4 18 0.6 0.3
0 4 -18 0.6 0.3
1 -4 18 13.9 2.1
1 4 -18 21.4 1.1
1 4 -18 22.7 1.8
1 -4 18 18.5 0.9
-1 4 -18 19.2 1.6
-1 -4 18 17.6 1.9
-1 4 -18 21.6 1.1
-1 -4 18 20.1 0.9
2 -4 18 5 0.6
2 4 -18 5.6 0.7
2 -4 18 3.1 1.4
2 4 -18 4.5 1.2
-2 -4 18 4.5 1.1
-2 4 -18 6.9 1
-2 -4 18 5.2 0.5
-2 4 -18 5.1 0.6
3 -4 18 17.5 1.1
3 4 -18 17.8 1.2
3 4 -18 23 2.5
3 -4 18 12.4 2.1
-3 -4 18 17.6 1.7
-3 4 -18 17.7 1.6
-3 -4 18 18.6 1.1
-3 4 -18 18.2 1
4 -4 18 15.7 2.5
4 4 -18 19.7 1.4
4 4 -18 26.7 3
-4 -4 18 25.1 1.7
-4 -4 18 21.5 1.3
-4 4 -18 22.3 1.2
-4 4 -18 17.3 1.7
5 4 -18 3.7 2.6
5 -4 18 6.7 2.7
5 4 -18 3.6 1.3
-5 4 -18 6 1.5
-5 -4 18 6.6 1
-5 -4 18 6.9 1.4
6 4 -18 1.6 1.4
6 4 -18 -1.9 2.8
6 -4 18 1.1 1.1
6 -4 18 1 3
-6 4 -18 1.2 1.4
-6 -4 18 0.1 1.2
-6 -4 18 1.5 0.8
0 5 -18 -0.5 0.9
0 -5 18 -0.3 0.3
0 5 -18 -0.2 0.3
0 -5 18 -0.4 0.9
1 -5 18 8.9 1.9
1 -5 18 10.3 0.8
1 5 -18 9.6 0.9
1 5 -18 10.7 1.6
-1 5 -18 8.3 1.2
-1 5 -18 11.1 0.8
-1 -5 18 9.6 1.6
-1 -5 18 11 0.8
2 5 -18 6.8 0.8
2 -5 18 6.6 0.8
2 -5 18 6.4 1.6
2 5 -18 6.2 1.6
-2 5 -18 5.4 1.2
-2 -5 18 7.8 0.7
-2 5 -18 7.4 0.7
-2 -5 18 6.9 1.4
3 -5 18 5.6 0.9
3 -5 18 4 1.6
3 5 -18 3.1 2.1
3 5 -18 6.5 0.9
-3 5 -18 5.5 0.7
-3 -5 18 4.2 1.1
-3 5 -18 4 1.4
-3 -5 18 6.7 0.8
4 5 -18 3.5 1
4 5 -18 2.4 2.2
4 -5 18 1.8 2.4
-4 -5 18 4.8 0.8
-4 5 -18 3 1.5
-4 5 -18 4.2 0.8
-4 -5 18 3.2 1.1
5 5 -18 14.1 3.3
5 5 -18 11.8 1.7
5 -5 18 8.9 3.3
-5 5 -18 10.6 1.1
-5 -5 18 9.9 1.6
-5 5 -18 12 1.9
-5 -5 18 13 1.3
6 -5 18 4.9 3.5
6 -5 18 6.6 1.4
-6 5 -18 6.1 1.8
0 6 -18 22.5 2.2
0 -6 18 21.1 2.4
0 -6 18 20 1.1
0 6 -18 21.7 1.2
1 6 -18 0.6 0.4
1 -6 18 0.3 0.5
1 -6 18 1.5 1.3
1 6 -18 2.2 1.5
-1 6 -18 1 0.4
-1 -6 18 3 1.3
-1 -6 18 1.4 0.6
-1 6 -18 1.2 1.4
2 6 -18 0.8 1.9
2 -6 18 0 1.5
2 6 -18 1.3 0.5
2 -6 18 1 0.7
-2 6 -18 1.7 1.4
-2 -6 18 0.5 0.6
-2 -6 18 2.1 1
-2 6 -18 0.8 0.4
3 -6 18 12.9 1.1
3 -6 18 12.7 2.7
3 6 -18 20.7 3
3 6 -18 12.2 1.3
-3 6 -18 15.9 1.2
-3 -6 18 13.9 1.1
-3 6 -18 13.6 1.9
-3 -6 18 16 1.9
4 -6 18 10.2 3.3
4 6 -18 10 1.4
4 6 -18 9.6 3
-4 -6 18 10.2 1
-4 6 -18 12.3 2
-4 -6 18 8.2 1.5
-4 6 -18 9.6 1.1
5 6 -18 -0.4 1.3
5 6 -18 0.3 2.8
5 -6 18 0.2 3.4
-5 6 -18 1.9 0.9
-5 -6 18 1.9 0.9
-5 6 -18 0.1 1.8
-5 -6 18 0.4 1.3
0 7 -18 3.4 0.7
0 -7 18 2.5 0.7
0 -7 18 3.2 1.8
0 7 -18 2.6 1.8
1 -7 18 1.9 0.8
1 -7 18 2.2 1.9
1 7 -18 3.7 1.9
1 7 -18 1.9 0.6
-1 7 -18 2.2 0.7
-1 -7 18 2.5 0.7
-1 -7 18 2.8 1.5
-1 7 -18 1.4 1.6
2 7 -18 7.7 1.2
2 -7 18 5.7 2.7
2 7 -18 1.9 2.2
2 -7 18 5.4 0.9
-2 7 -18 5.1 1.8
-2 7 -18 6.2 0.9
-2 -7 18 5.3 1.8
-2 -7 18 6.9 0.9
3 7 -18 -0.4 2.4
3 7 -18 1.3 0.9
3 -7 18 2.2 0.8
3 -7 18 2.5 2.9
-3 -7 18 2.1 1.5
-3 7 -18 2.2 1.6
-3 -7 18 3.1 0.9
-3 7 -18 3 0.8
4 7 -18 4.9 3
4 7 -18 5.2 1.5
4 -7 18 4.9 3.6
-4 7 -18 2.4 1
-4 -7 18 5 1.6
-4 -7 18 2 0.9
-4 7 -18 5.3 1.8
0 -8 18 3.9 2.4
0 -8 18 3 0.8
0 8 -18 1.9 2.1
0 8 -18 2.5 0.9
1 8 -18 0.9 0.9
1 -8 18 3.1 2.6
1 -8 18 0.2 0.8
1 8 -18 2.6 2.2
-1 8 -18 -0.8 1.9
-1 -8 18 0.5 1.9
-1 -8 18 0.7 0.8
-1 8 -18 -0.1 0.7
2 -8 18 0.6 0.9
2 8 -18 -1.7 1.9
2 8 -18 0.3 1
2 -8 18 -2.1 2.7
-2 8 -18 1.5 0.8
-2 -8 18 -0.2 0.7
-2 -8 18 -1.4 1.8
-2 8 -18 0.5 1.8
3 -8 18 4.3 3.1
3 8 -18 6.6 2.7
3 8 -18 8.1 1.5
-3 -8 18 8.1 1.1
-3 8 -18 8 1.1
-3 -8 18 7.2 2
-3 8 -18 9.7 2.1
4 -8 18 1.3 5.7
4 8 -18 5.6 1.7
4 8 -18 3.6 2.5
-4 8 -18 3.9 2.4
-4 -8 18 7.1 1.9
-4 -8 18 8.1 1.2
-4 8 -18 8.3 1.9
0 9 -18 4.6 2.3
0 9 -18 0.8 1
0 -9 18 2.8 2.6
0 -9 18 3.2 0.9
1 -9 18 1.8 0.9
1 9 -18 0.9 2.1
1 -9 18 2.4 2.9
1 9 -18 1.7 1.1
-1 -9 18 1.3 0.9
-1 9 -18 1.1 1.8
-1 9 -18 1.3 1
-1 -9 18 1.9 2.4
2 -9 18 2.8 3.2
2 -9 18 0.1 0.9
2 9 -18 1.4 1.2
2 9 -18 0.3 2.4
-2 -9 18 1.8 2.1
-2 9 -18 4.1 1.9
-2 9 -18 1.4 1
-2 -9 18 0.2 0.8
3 9 -18 5.6 3.9
2 0 -19 27.2 1.8
-2 0 19 30.8 1.5
2 0 -19 29.1 1.4
-2 0 19 30.4 1.1
-3 0 19 12.5 1
-3 0 19 13.1 0.7
3 0 -19 10.8 1.3
3 0 -19 14 1
4 0 -19 66.49 2.8
4 0 -19 68.49 3.2
-4 0 19 75.09 2.4
-4 0 19 72.79 2.7
-5 0 19 28.7 1.5
5 0 -19 27.3 1.8
5 0 -19 31.7 2.7
-5 0 19 27.9 1.7
-6 0 19 1.8 0.8
6 0 -19 0.4 1.9
-6 0 19 1.5 1
6 0 -19 0.8 1.3
0 -1 19 6.9 1.2
0 -1 19 7.1 0.5
0 1 -19 8.1 0.6
0 1 -19 9.2 1
1 -1 19 11.9 1.7
1 1 -19 14.6 1.4
1 1 -19 12.4 0.8
1 -1 19 12.9 0.6
-1 1 -19 12.6 0.7
-1 -1 19 14.1 1.3
-1 -1 19 12.3 0.6
-1 1 -19 12.5 1.1
2 1 -19 10.4 1.3
2 1 -19 13.2 0.9
-2 -1 19 12.6 0.7
-2 -1 19 14.8 1.3
3 1 -19 6.8 1.2
3 1 -19 8 0.9
-3 -1 19 8.4 1
-3 -1 19 8.4 0.6
4 1 -19 6.9 1.5
4 1 -19 7 0.9
-4 -1 19 4.6 0.8
-4 -1 19 6.9 0.7
-5 1 19 3.8 0.7
5 1 -19 5.4 2.1
5 1 -19 4.3 1
-5 1 19 2.4 0.7
5 -1 -19 3.4 1.6
-5 -1 19 3.8 0.8
5 -1 -19 3.7 0.8
-5 -1 19 2.7 0.9
-6 1 19 18.5 1.6
6 1 -19 18.3 2.9
-6 1 19 16.7 1.3
6 1 -19 14.7 1.9
-6 -1 19 16.5 1.6
6 -1 -19 19.7 2
-6 -1 19 15.9 1.3
6 -1 -19 10.8 2.2
0 -2 19 3.2 1
0 2 -19 3 0.7
0 2 -19 2.8 0.4
0 -2 19 3.1 0.4
1 -2 19 20.2 2.1
1 -2 19 26.8 1
1 2 -19 26.5 1.2
1 2 -19 24.2 1.7
-1 2 -19 25.8 1.1
-1 2 -19 25.2 1.5
-1 -2 19 29.6 1.9
-1 -2 19 27.9 1
2 2 -19 62.09 2.9
2 2 -19 64.39 2.4
2 -2 19 66.79 2.1
2 -2 19 60.39 3.4
-2 2 -19 67.89 2.3
-2 2 -19 68.39 2.6
-2 -2 19 61.99 2.8
-2 -2 19 69.29 2.2
3 2 -19 10.9 1.5
3 -2 19 11.6 1.9
3 2 -19 13.3 1
-3 2 -19 14.1 1.2
-3 2 -19 11.9 0.8
-3 -2 19 11.9 1.2
-3 -2 19 12.4 0.8
4 2 -19 18.9 2.4
4 2 -19 19.6 1.4
4 -2 19 19 2.7
-4 -2 19 23.4 1.5
-4 -2 19 21.4 1.2
-4 2 -19 21.1 1.2
-4 2 -19 19.7 1.4
5 2 -19 10.2 1.4
5 2 -19 5.1 2
-5 -2 19 7.9 1
-5 -2 19 9.3 1.3
6 2 -19 2.8 2.7
6 2 -19 4.4 1.6
-6 -2 19 3.2 0.9
-6 -2 19 6.6 1.4
0 -3 19 0 0.2
0 3 -19 0.4 0.6
0 -3 19 0.3 1
0 3 -19 -0.1 0.3
1 3 -19 19.9 1.1
1 3 -19 22.8 1.8
1 -3 19 16.9 2.1
1 -3 19 20 0.9
-1 -3 19 19.8 0.8
-1 3 -19 18.2 1
-1 3 -19 19.1 1.5
-1 -3 19 18.5 1.8
2 3 -19 25.4 1.3
2 3 -19 19.4 1.8
2 -3 19 21.9 2.5
2 -3 19 25.6 1.1
-2 -3 19 28.5 1.8
-2 3 -19 26.1 1.2
-2 -3 19 25.3 1.1
-2 3 -19 27.3 1.6
3 -3 19 2.2 1.2
3 -3 19 1.2 0.5
3 3 -19 1.1 0.5
3 3 -19 -0.2 1.3
-3 -3 19 1.8 0.8
-3 3 -19 0.6 0.4
-3 3 -19 1.9 0.7
-3 -3 19 0.7 0.5
4 -3 19 3.1 1.5
4 3 -19 5.1 0.9
4 3 -19 7.5 2.3
-4 3 -19 5.5 0.7
-4 -3 19 5.8 0.8
-4 -3 19 6.1 1
-4 3 -19 5.9 1.2
5 3 -19 4.8 2.5
5 -3 19 4.6 2.4
5 3 -19 4.1 1.1
-5 3 -19 1.6 1.2
-5 -3 19 2.7 1
-5 -3 19 4.7 0.9
6 3 -19 9.3 3.1
6 3 -19 7.6 1.6
-6 3 -19 5 1.5
-6 -3 19 6.1 1.3
-6 -3 19 6.4 1.1
0 -4 19 0.6 0.3
0 4 -19 0.4 0.3
0 -4 19 -0.2 0.9
0 4 -19 0.1 0.6
1 4 -19 19.4 1.7
1 4 -19 19.8 1.1
1 -4 19 21.9 1
1 -4 19 18.3 2.3
-1 4 -19 20 1.6
-1 -4 19 19.4 2
-1 4 -19 19.6 1.1
-1 -4 19 20.7 0.9
2 -4 19 11.4 1.8
2 4 -19 11.2 1
2 4 -19 12.2 1.8
2 -4 19 13.3 0.9
-2 4 -19 12.3 0.8
-2 -4 19 11.8 1.5
-2 4 -19 10.1 1.2
-2 -4 19 13.1 0.8
3 -4 19 5.7 0.7
3 4 -19 5.9 0.8
3 -4 19 4.5 1.6
3 4 -19 7.7 2.2
-3 4 -19 7 0.7
-3 -4 19 6.1 1.1
-3 -4 19 6.5 0.7
-3 4 -19 3.9 1.1
4 4 -19 5.5 2.4
4 -4 19 4.7 2.2
4 4 -19 4.1 1
-4 4 -19 3.4 0.6
-4 4 -19 2.5 1.2
-4 -4 19 3.4 0.8
-4 -4 19 2.4 1
5 4 -19 3.6 1.3
5 4 -19 2.4 2.7
5 -4 19 1.8 2.8
-5 -4 19 3.3 1.3
-5 4 -19 3.6 1.4
-5 4 -19 2.6 0.8
-5 -4 19 3.5 0.8
6 4 -19 1 1.5
6 -4 19 -0.3 3.2
6 4 -19 2.4 2.8
6 -4 19 -0.7 1
-6 4 -19 -0.8 1.4
-6 -4 19 1 0.9
-6 -4 19 -0.2 1.3
0 -5 19 1.3 0.5
0 -5 19 0.8 1.2
0 5 -19 0.9 1.1
0 5 -19 1 0.4
1 5 -19 4 0.6
1 5 -19 2.5 1.4
1 -5 19 5.4 0.6
1 -5 19 3.2 1.5
-1 5 -19 5 0.6
-1 5 -19 3.6 1.2
-1 -5 19 5.8 1.3
-1 -5 19 4.2 0.6
2 -5 19 11.9 0.9
2 -5 19 11.2 2.1
2 5 -19 12.3 2.3
2 5 -19 12 1.1
-2 5 -19 15.5 1
-2 -5 19 15.4 1.1
-2 5 -19 12.8 1.6
-2 -5 19 12.8 1.6
3 -5 19 1.6 0.8
3 -5 19 3.5 2
3 5 -19 3.5 2.2
3 5 -19 2.7 0.8
-3 5 -19 2.1 0.5
-3 -5 19 2.1 0.7
-3 5 -19 0.8 1.3
-3 -5 19 2.2 1.1
4 -5 19 1.2 2.6
4 5 -19 2.7 2.4
4 5 -19 1.1 1
-4 5 -19 0.7 1.5
-4 -5 19 1.2 1.2
-4 5 -19 0.5 0.6
-4 -5 19 0.3 0.8
5 5 -19 1 1.4
5 -5 19 0 3.1
5 5 -19 -0.9 2.8
-5 5 -19 1.6 0.8
-5 -5 19 0.6 1.3
-5 -5 19 0.7 0.8
-5 5 -19 0.9 1.6
0 -6 19 2.8 0.7
0 6 -19 3.3 1.6
0 -6 19 4.9 1.5
0 6 -19 3 0.6
1 6 -19 6 1.8
1 -6 19 10 0.9
1 -6 19 11.6 2.1
1 6 -19 10.8 1
-1 -6 19 11.4 0.9
-1 6 -19 10 0.9
-1 -6 19 12 1.9
-1 6 -19 9 1.9
2 -6 19 1.3 1.8
2 -6 19 1 0.6
2 6 -19 0.7 0.6
2 6 -19 1.5 1.8
-2 6 -19 0.9 0.5
-2 -6 19 2 1.3
-2 -6 19 1 0.6
-2 6 -19 0.6 1.3
3 6 -19 0 2.4
3 6 -19 -0.5 0.7
3 -6 19 0.7 0.8
3 -6 19 -0.3 2.5
-3 -6 19 0.4 0.8
-3 6 -19 0.6 1.6
-3 -6 19 1 1.2
-3 6 -19 -1.7 0.5
4 6 -19 0 1.1
4 -6 19 0.3 3
4 6 -19 1.4 2.7
-4 6 -19 4.1 1.7
-4 6 -19 0.6 0.8
-4 -6 19 0.4 1.4
-4 -6 19 0.8 0.8
5 6 -19 0.8 1.4
5 6 -19 -0.1 2.7
5 -6 19 0.6 3.4
-5 -6 19 0.6 0.9
-5 6 -19 0.5 0.9
-5 6 -19 -0.9 1.7
-5 -6 19 -0.6 1.3
0 7 -19 1.8 0.7
0 -7 19 0.7 2
0 7 -19 0.9 1.9
0 -7 19 1.4 0.7
1 -7 19 11.6 1
1 7 -19 14.5 1.3
1 7 -19 15.3 2.5
1 -7 19 10.7 2.7
-1 -7 19 12.7 1
-1 -7 19 12.2 2.2
-1 7 -19 13.1 2.1
-1 7 -19 12.8 1.2
2 -7 19 0.7 2.6
2 -7 19 1.3 0.8
2 7 -19 1.8 2.4
2 7 -19 1.9 0.9
-2 7 -19 1.4 0.8
-2 -7 19 1.4 0.7
-2 7 -19 2.1 1.6
-2 -7 19 1.3 1.7
3 -7 19 1.8 0.9
3 -7 19 -0.5 3
3 7 -19 3 2.6
3 7 -19 2.3 1
-3 -7 19 3 0.9
-3 7 -19 0.7 1.7
-3 -7 19 4 1.5
-3 7 -19 1.6 0.8
4 -7 19 3.5 3.1
4 7 -19 2 2.6
4 7 -19 0.5 1.1
-4 7 -19 -0.9 1.6
-4 -7 19 0.8 0.8
-4 -7 19 -0.1 1.3
-4 7 -19 0.1 0.8
0 8 -19 4.2 2.2
0 -8 19 3.6 0.8
0 -8 19 1 2.2
0 8 -19 2.7 0.9
1 -8 19 2.3 2.6
1 8 -19 3.8 1.1
1 8 -19 3.4 2.2
1 -8 19 2.3 0.9
-1 -8 19 3.6 0.8
-1 8 -19 5 1
-1 8 -19 5.3 1.9
-1 -8 19 3 2.3
2 -8 19 0.3 3.1
2 -8 19 3.6 1
2 8 -19 6.3 1.3
2 8 -19 5.5 2.6
-2 8 -19 3.3 1
-2 -8 19 3.9 2.1
-2 -8 19 3.6 0.9
-2 8 -19 1.5 1.9
3 -8 19 -1.9 3.2
3 8 -19 -0.8 1
3 8 -19 -0.2 2.5
-3 -8 19 0.6 1.7
-3 8 -19 1.2 1.7
-3 8 -19 0.4 0.9
-3 -8 19 0.4 0.8
0 9 -19 3.1 1.1
0 -9 19 2.7 0.9
0 9 -19 3.3 2.2
0 -9 19 3.6 2.7
1 -9 19 6 1.1
1 9 -19 7.9 1.4
1 9 -19 5.4 2.4
1 -9 19 5.9 3
-1 -9 19 1.6 2.3
-1 9 -19 5.8 1.2
-1 -9 19 5.1 1
-1 9 -19 3.4 2.2
2 -9 19 0.7 1
2 9 -19 -0.4 2.3
2 -9 19 3.3 3.3
2 9 -19 0.6 1.2
-2 9 -19 0.8 1
-2 -9 19 -0.4 2
-2 9 -19 -1 1.9
-2 -9 19 0 0.8
-3 0 20 0 0.2
-3 0 20 0 0.5
3 0 -20 0.5 0.5
3 0 -20 0.8 0.7
4 0 -20 5.4 1.3
-4 0 20 6.7 0.7
-4 0 20 6.4 0.8
4 0 -20 6.8 1
-5 0 20 5.9 0.9
5 0 -20 6.1 1.2
-5 0 20 5.2 1
5 0 -20 5.7 1.9
6 0 -20 5.4 1.6
6 0 -20 4.6 2.3
-6 0 20 5.8 1
-6 0 20 4.5 1.2
0 1 -20 1.2 0.6
0 -1 20 1.6 0.9
0 -1 20 2.7 0.3
0 1 -20 2.6 0.4
1 1 -20 39.5 1.6
1 1 -20 39.6 2
-1 -1 20 39.4 1.4
-1 -1 20 43.6 2.1
2 1 -20 1.6 0.8
2 1 -20 0.9 0.4
-2 -1 20 1.5 0.3
-2 -1 20 2.5 0.7
3 1 -20 2.8 0.9
3 1 -20 2.2 0.6
-3 -1 20 0.8 0.5
-3 -1 20 1.5 0.4
4 1 -20 2.8 0.7
4 1 -20 1.3 1.5
-4 -1 20 1.5 0.6
-4 -1 20 1.9 0.7
5 1 -20 11.9 1.5
5 1 -20 9.6 2.1
-5 -1 20 12.8 1.4
-5 -1 20 11.6 1.1
6 1 -20 6 2.4
6 1 -20 1.4 1.5
-6 -1 20 4.3 1.2
-6 -1 20 2.3 0.9
0 2 -20 120.39 3.7
0 2 -20 118.79 4.2
0 -2 20 121.09 3.5
0 -2 20 112.39 4.6
1 2 -20 3.7 0.9
1 2 -20 3.6 0.5
1 -2 20 5.8 1.3
1 -2 20 4.2 0.4
-1 -2 20 4.2 0.4
-1 -2 20 3.6 1
-1 2 -20 4.8 0.8
-1 2 -20 4.8 0.5
2 -2 20 8.7 0.6
2 2 -20 10.3 0.9
2 -2 20 8.4 1.7
2 2 -20 6.9 1.1
-2 2 -20 8.1 0.9
-2 -2 20 8.9 0.6
-2 2 -20 8.4 0.6
-2 -2 20 7.3 1.1
3 -2 20 4.6 1.8
3 2 -20 6.8 0.9
3 2 -20 6.5 1.4
-3 -2 20 6.6 0.6
-3 2 -20 6.2 0.8
-3 2 -20 6.7 0.7
-3 -2 20 9 1.1
4 2 -20 5.7 1.9
4 2 -20 5.4 0.9
-4 -2 20 5 0.7
-4 -2 20 5.6 1
5 2 -20 3.8 2.3
5 2 -20 8.4 1.4
-5 -2 20 8.8 1.3
-5 -2 20 9.7 1.1
6 2 -20 2.8 1.5
6 2 -20 3.2 2.7
-6 -2 20 1.4 1.2
-6 -2 20 3.7 0.9
0 3 -20 61.49 2.7
0 3 -20 60.59 2.2
0 -3 20 59.19 3.2
0 -3 20 61.39 2
1 3 -20 25.5 1.3
1 3 -20 27.4 1.8
1 -3 20 16.8 2.1
1 -3 20 24.7 1
-1 3 -20 26.5 1.2
-1 -3 20 23.4 1
-1 -3 20 27 2.2
-1 3 -20 22.9 1.5
2 -3 20 0.7 1.1
2 -3 20 1.3 0.4
2 3 -20 0.5 0.4
2 3 -20 1 1
-2 3 -20 0.3 0.3
-2 -3 20 1.5 0.8
-2 -3 20 0.6 0.4
-2 3 -20 0.6 0.6
3 3 -20 0.7 1.5
3 -3 20 2.6 1.3
3 -3 20 3.4 0.6
3 3 -20 3.6 0.7
-3 3 -20 4.2 0.5
-3 -3 20 2.9 0.9
-3 3 -20 3.6 0.9
-3 -3 20 4.2 0.7
4 -3 20 0.3 1.5
4 3 -20 4.8 1
4 3 -20 1.7 2.2
-4 3 -20 3.7 1.2
-4 -3 20 5.7 1.2
-4 3 -20 4.5 0.6
-4 -3 20 3.8 0.8
5 -3 20 2.8 2.5
5 3 -20 6.2 1.4
5 3 -20 1.4 2.3
-5 -3 20 6 1.3
-5 -3 20 4.1 0.9
-5 3 -20 6.3 1.3
-5 3 -20 4.7 0.7
6 3 -20 2.1 2.9
6 3 -20 0.6 1.4
-6 -3 20 1.4 1.2
-6 -3 20 1.5 0.9
0 -4 20 94.79 4.4
0 4 -20 95.79 3.2
0 4 -20 85.59 3.6
0 -4 20 94.59 2.9
1 4 -20 5.3 0.7
1 -4 20 5 0.6
1 -4 20 6.8 1.5
1 4 -20 5 1.3
-1 4 -20 4.1 0.9
-1 -4 20 7.1 0.7
-1 -4 20 6.6 1.4
-1 4 -20 5.9 0.6
2 -4 20 2.9 0.6
2 4 -20 3.9 0.7
2 -4 20 1.2 1.3
2 4 -20 2.2 1.6
-2 -4 20 3.9 0.6
-2 4 -20 2.9 0.5
-2 -4 20 3.6 1.1
-2 4 -20 2.5 0.9
3 -4 20 6.1 1.8
3 4 -20 3.7 1.9
3 -4 20 6.4 0.9
3 4 -20 7.3 0.9
-3 -4 20 6.7 0.8
-3 4 -20 7.1 1.4
-3 4 -20 6 0.7
-3 -4 20 5.7 1.1
4 4 -20 14.1 2.9
4 -4 20 13.2 2.8
4 4 -20 10.7 1.3
-4 4 -20 13.5 1.1
-4 -4 20 15.4 1.2
-4 -4 20 9.8 1.4
-4 4 -20 13.5 1.6
5 4 -20 8.4 1.6
5 4 -20 0.7 2.7
5 -4 20 0 2.8
-5 -4 20 9.6 1.1
-5 -4 20 9.3 1.6
-5 4 -20 7.8 1
-5 4 -20 8 1.5
6 -4 20 6 1.3
6 -4 20 5.4 3.7
-6 4 -20 4 1.1
-6 4 -20 5.2 1.8
0 5 -20 30.6 1.5
0 -5 20 31.3 1.3
0 5 -20 26.4 2.2
0 -5 20 26.7 2.8
1 -5 20 22.6 1.2
1 -5 20 19.2 2.4
1 5 -20 23.1 1.3
1 5 -20 17.4 2.1
-1 -5 20 29.8 2.6
-1 -5 20 21.7 1.2
-1 5 -20 24.2 1.2
-1 5 -20 25.3 2.2
2 -5 20 15.3 1.1
2 5 -20 15.2 2.3
2 -5 20 12.4 2.3
2 5 -20 15.7 1.3
-2 -5 20 16.9 2
-2 -5 20 17.3 1.2
-2 5 -20 15.8 1.9
-2 5 -20 17.7 1.1
3 5 -20 7.3 1.1
3 -5 20 4.8 0.8
3 5 -20 8.3 2.5
3 -5 20 5.7 2.4
-3 5 -20 5.7 1.4
-3 -5 20 7.2 0.9
-3 -5 20 6.4 1.5
-3 5 -20 6.6 0.8
4 5 -20 7.1 1.3
4 -5 20 5.1 2.7
4 5 -20 4.1 2.7
-4 -5 20 8.1 1
-4 5 -20 9.8 1.8
-4 -5 20 6.1 1.4
-4 5 -20 7.2 0.9
5 5 -20 1.7 1.5
5 5 -20 3.8 2.9
5 -5 20 -0.8 3.2
-5 5 -20 4.3 1
-5 -5 20 5.1 1.5
-5 -5 20 3 0.9
-5 5 -20 4.7 1.7
0 6 -20 46.4 2
0 -6 20 49.8 1.9
0 -6 20 41 3.5
0 6 -20 51.69 3.4
1 -6 20 1.1 0.6
1 6 -20 0.5 1.7
1 6 -20 1.4 0.7
1 -6 20 1 1.9
-1 6 -20 2.5 0.6
-1 6 -20 0.4 1.6
-1 -6 20 0.3 1.5
-1 -6 20 1.9 0.7
2 -6 20 10.2 2.8
2 -6 20 9.2 1
2 6 -20 8.6 2.4
2 6 -20 11.9 1.3
-2 6 -20 10.6 2
-2 6 -20 11.9 1.1
-2 -6 20 9.9 1.9
-2 -6 20 10.7 1
3 -6 20 18.1 1.4
3 6 -20 15.7 2.8
3 -6 20 13 3.4
3 6 -20 14 1.5
-3 -6 20 14.2 1.9
-3 6 -20 17.6 2.3
-3 -6 20 16.8 1.2
-3 6 -20 18.7 1.4
4 6 -20 -0.7 2.6
4 -6 20 3.1 3.4
4 6 -20 2.2 1.3
-4 6 -20 2.3 0.9
-4 -6 20 3.5 0.9
-4 6 -20 4.8 1.9
-4 -6 20 1.1 1.4
5 -6 20 -1.6 5.8
-5 6 -20 1.3 2.6
-5 6 -20 2.3 1.5
0 7 -20 15.8 2.3
0 7 -20 16.1 1.4
0 -7 20 8.7 2.5
0 -7 20 16 1.2
1 -7 20 9.8 3
1 7 -20 13.9 1.4
1 7 -20 13.5 2.6
1 -7 20 12.9 1.1
-1 7 -20 16.1 1.4
-1 -7 20 15 1.2
-1 7 -20 14.1 2.2
-1 -7 20 13.9 2.5
2 7 -20 7.9 1.2
2 7 -20 8.5 2.6
2 -7 20 4.8 3
2 -7 20 6.1 1
-2 7 -20 7.3 2.1
-2 -7 20 7.7 0.9
-2 7 -20 7.9 1.1
-2 -7 20 5 2
3 -7 20 4.6 3
3 7 -20 3.1 2.7
3 7 -20 4.7 1.2
3 -7 20 4.9 1.1
-3 -7 20 4.3 0.9
-3 -7 20 3.9 1.6
-3 7 -20 6 1
-3 7 -20 5.9 2.1
4 7 -20 -1 1.3
4 -7 20 0 3.5
4 7 -20 -3 2.7
-4 7 -20 0.7 0.9
-4 -7 20 2 1.6
-4 -7 20 -0.7 0.9
-4 7 -20 -0.5 1.8
0 8 -20 8.2 2.1
0 -8 20 7.2 1
0 8 -20 7.8 1.2
0 -8 20 4.3 2.6
1 -8 20 0.3 2.7
1 -8 20 0.1 0.8
1 8 -20 1.4 0.9
1 8 -20 0.5 2.2
-1 -8 20 1.1 2.2
-1 -8 20 1.5 0.9
-1 8 -20 1.4 2.1
-1 8 -20 1.7 1
2 8 -20 5.5 2.5
2 -8 20 9.1 1.2
2 8 -20 8.5 1.4
2 -8 20 9.3 3.5
-2 -8 20 7.7 1.1
-2 -8 20 4.3 2.1
-2 8 -20 9 1.3
-2 8 -20 7.8 2.1
3 8 -20 1.3 1.1
3 -8 20 0.1 3.4
3 8 -20 0 2.5
-3 -8 20 1.9 0.9
-3 8 -20 0.4 1.9
-3 8 -20 0.9 1
-3 -8 20 -1.6 1.6
0 9 -20 2.2 2.3
0 -9 20 1.8 2.7
0 9 -20 -1.2 1
0 -9 20 -0.1 0.9
1 9 -20 2.5 2.4
1 -9 20 1.8 1
1 -9 20 0.9 2.9
1 9 -20 1.3 1.2
-1 9 -20 2.3 1.1
-1 -9 20 2.1 0.9
-1 -9 20 1.7 2.5
-1 9 -20 -0.9 2
4 0 -21 28.5 1.7
-4 0 21 27.6 1.3
4 0 -21 29.7 2.4
-4 0 21 29.4 1.6
5 0 -21 25.7 1.9
5 0 -21 25.4 2.7
-5 0 21 27.2 1.8
-5 0 21 26.6 1.5
6 0 -21 4 1.6
-6 0 21 5.4 1.2
6 0 -21 3 2.1
-6 0 21 3.8 0.9
1 1 -21 27.2 1.3
1 1 -21 26 1.7
-1 -1 21 25.1 1
-1 -1 21 27.3 1.7
2 1 -21 11.6 1
2 1 -21 8.9 1.3
-2 -1 21 11.2 1.2
-2 -1 21 11.2 0.7
3 1 -21 -0.1 0.9
3 1 -21 0.4 0.4
-3 -1 21 0.3 0.5
-3 -1 21 0.2 0.4
4 1 -21 48.4 2.2
4 1 -21 44 3.2
-4 -1 21 46.6 2.2
-4 -1 21 49.9 1.9
5 1 -21 1.9 1.1
5 1 -21 1.6 2.2
-5 -1 21 3 0.8
-5 -1 21 2.6 1
6 1 -21 2.2 1.6
6 1 -21 1.4 2.3
-6 -1 21 2.3 1.2
-6 -1 21 1.5 0.9
0 -2 21 0.3 0.8
0 2 -21 1.3 0.7
0 -2 21 1 0.3
0 2 -21 1 0.4
1 -2 21 2.9 0.4
1 -2 21 2.3 1.1
1 2 -21 3.9 0.6
1 2 -21 2 0.8
-1 -2 21 4.4 1
-1 2 -21 2.9 0.7
-1 2 -21 2.8 0.5
-1 -2 21 3.3 0.4
2 2 -21 0.3 0.4
2 2 -21 0.1 0.7
2 -2 21 1.4 1.4
2 -2 21 1.1 0.4
-2 -2 21 0.6 0.3
-2 -2 21 0.9 0.7
-2 2 -21 0.9 0.4
-2 2 -21 0.8 0.6
3 2 -21 11.6 1.1
3 2 -21 11.4 1.7
-3 -2 21 13.9 0.9
-3 -2 21 11.3 1.2
4 2 -21 11.1 1.3
4 2 -21 10.2 2.1
-4 -2 21 12.5 1.4
-4 -2 21 10.3 0.9
5 2 -21 8.3 1.5
5 2 -21 10.5 2.7
-5 -2 21 8.8 1.4
-5 -2 21 10.2 1.1
6 2 -21 1.9 2.6
6 2 -21 0.1 1.4
-6 -2 21 1.8 0.9
-6 -2 21 3 1.3
0 -3 21 6.6 0.6
0 3 -21 6.8 0.7
0 3 -21 5.6 1
0 -3 21 8.1 1.5
1 -3 21 3.2 1.3
1 3 -21 3.5 0.6
1 3 -21 3.3 1
1 -3 21 3.8 0.5
-1 -3 21 4.3 1
-1 3 -21 4.3 0.6
-1 -3 21 3.3 0.5
-1 3 -21 4.5 0.9
2 -3 21 6 1.7
2 3 -21 7.8 1.5
2 -3 21 7.4 0.7
2 3 -21 7.6 0.9
-2 3 -21 6.7 1
-2 3 -21 6.7 0.7
-2 -3 21 6.8 0.7
-2 -3 21 6.5 1.2
3 3 -21 6.1 1.8
3 3 -21 6.6 0.9
-3 3 -21 5.6 1.1
-3 -3 21 5.3 0.7
-3 3 -21 4.5 0.6
-3 -3 21 4.8 0.9
4 3 -21 8.7 2.5
4 3 -21 11.3 1.3
4 -3 21 11.2 2.4
-4 3 -21 9.1 0.9
-4 -3 21 11.2 1.1
-4 -3 21 9.9 1.4
-4 3 -21 8.4 1.4
5 3 -21 9.5 1.6
5 3 -21 0.9 2.5
-5 -3 21 7.4 1
-5 -3 21 6.6 1.5
0 -4 21 1.1 0.5
0 4 -21 1.3 0.5
0 -4 21 0.4 1.1
0 4 -21 2.2 1.1
1 -4 21 17.5 2.2
1 -4 21 17.8 1
1 4 -21 15.7 1.9
1 4 -21 16.1 1.1
-1 -4 21 17.1 1
-1 -4 21 16.5 1.8
-1 4 -21 17.3 1
-1 4 -21 17.2 1.7
2 4 -21 6.6 1.9
2 -4 21 5.4 1.7
2 4 -21 3.6 0.7
2 -4 21 3.9 0.7
-2 -4 21 5.8 1.2
-2 4 -21 5 0.7
-2 4 -21 5 1.1
-2 -4 21 5.4 0.7
3 4 -21 6.1 2.4
3 4 -21 8.5 1.1
3 -4 21 7.8 0.9
3 -4 21 5.4 2.1
-3 -4 21 8.3 1.4
-3 4 -21 9.7 0.9
-3 4 -21 6.7 1.4
-3 -4 21 9.8 1
4 -4 21 4.1 2.6
4 4 -21 4.9 1.2
4 4 -21 7.4 2.6
-4 -4 21 3.3 1.3
-4 -4 21 4.6 0.9
-4 4 -21 5.1 0.8
-4 4 -21 4.3 1.4
5 4 -21 7.6 3.1
5 4 -21 6.5 1.6
5 -4 21 1 2.9
-5 4 -21 3.9 1.4
-5 4 -21 1.9 0.8
-5 -4 21 2.1 1.4
-5 -4 21 3.6 0.9
0 5 -21 2.6 1.5
0 5 -21 3 0.6
0 -5 21 3.1 0.6
0 -5 21 3.9 1.5
1 -5 21 24.7 1.3
1 5 -21 26.3 1.5
1 -5 21 25 2.8
1 5 -21 28.2 2.7
-1 5 -21 22 2.2
-1 -5 21 28 2.6
-1 -5 21 27 1.4
-1 5 -21 26.8 1.4
2 -5 21 28.1 3.3
2 5 -21 27.8 2.7
2 5 -21 32.2 1.7
2 -5 21 34.7 1.6
-2 -5 21 25.9 2.5
-2 5 -21 33.6 1.6
-2 5 -21 35.7 2.5
-2 -5 21 35.2 1.6
3 -5 21 11 3.1
3 5 -21 17.7 3
3 5 -21 15.3 1.5
3 -5 21 15.7 1.3
-3 -5 21 13.7 1.9
-3 -5 21 17.2 1.2
-3 5 -21 15.2 1.2
-3 5 -21 13.4 1.9
4 5 -21 -0.5 1.1
4 -5 21 1.4 3
4 5 -21 0.3 2.7
-4 5 -21 0.6 0.7
-4 -5 21 0.1 0.8
-4 5 -21 0.2 1.4
-4 -5 21 0.5 1.3
5 -5 21 0.7 3.3
5 5 -21 1.1 2.8
5 5 -21 0.1 1.4
-5 5 -21 0.4 1.5
-5 5 -21 2.5 0.9
-5 -5 21 0.8 1.4
-5 -5 21 0.2 0.9
0 -6 21 4.6 0.8
0 6 -21 7.8 2
0 6 -21 4.8 0.9
0 -6 21 6.7 2.2
1 6 -21 12 2.2
1 6 -21 18.1 1.4
1 -6 21 11.4 2.7
1 -6 21 14.1 1.1
-1 -6 21 17.4 1.2
-1 6 -21 16.4 1.3
-1 -6 21 12.4 2.4
-1 6 -21 10.1 1.9
2 -6 21 24.7 1.6
2 6 -21 22.6 1.8
2 -6 21 14.7 3
2 6 -21 28.5 3.3
-2 -6 21 26.4 1.5
-2 6 -21 25.1 2.5
-2 6 -21 25 1.6
-2 -6 21 25.9 2.8
3 6 -21 12 3
3 -6 21 14.2 1.3
3 6 -21 13.8 1.6
3 -6 21 9.4 3
-3 -6 21 13.1 2
-3 6 -21 14.7 1.2
-3 -6 21 16.6 1.3
-3 6 -21 15 2.1
4 6 -21 -0.4 2.6
4 -6 21 5 3.5
4 6 -21 1.3 1.2
-4 -6 21 0 1.3
-4 6 -21 1.1 1.8
-4 6 -21 0.2 0.8
-4 -6 21 0.1 0.8
0 -7 21 7 2.7
0 7 -21 5.8 1.1
0 -7 21 6.5 1
0 7 -21 7.7 2.3
1 -7 21 13.7 3.2
1 7 -21 9.1 1.3
1 7 -21 6.7 2.4
1 -7 21 8.3 1
-1 -7 21 4.8 2.2
-1 -7 21 9 1
-1 7 -21 10.8 1.2
-1 7 -21 7.2 1.9
2 -7 21 16.4 3.5
2 -7 21 20.5 1.5
2 7 -21 21 3.2
2 7 -21 24.8 1.9
-2 7 -21 22 2.5
-2 7 -21 20.5 1.6
-2 -7 21 24 1.4
3 7 -21 12.4 2.9
3 -7 21 8.6 1.1
3 -7 21 6.8 3.6
3 7 -21 10.3 1.5
-3 7 -21 9.8 1.3
-3 -7 21 10.8 2.1
-3 -7 21 11.5 1.2
-3 7 -21 9.7 2
0 -8 21 1.8 2.7
0 -8 21 2.4 0.9
0 8 -21 1.1 1
0 8 -21 2 2.1
1 -8 21 4.5 2.7
1 8 -21 6.8 2.5
1 8 -21 9 1.3
1 -8 21 7.2 1.1
-1 8 -21 7.7 1.2
-1 8 -21 8.6 2.3
-1 -8 21 7 2.3
-1 -8 21 6.9 1
2 -8 21 10.3 1.2
2 8 -21 8.1 2.5
2 -8 21 9.9 3.7
2 8 -21 10.8 1.6
-2 8 -21 8.8 2.1
-2 -8 21 12.9 1.2
-2 -8 21 11.9 2.5
-2 8 -21 11.4 1.4
6 0 -22 2.3 2.4
2 1 -22 22.2 1.3
2 1 -22 15.8 1.6
-2 -1 22 23.3 1.5
-2 -1 22 21.3 1
3 1 -22 1.5 0.6
3 1 -22 2 1.2
-3 -1 22 1.7 0.6
-3 -1 22 1.8 0.5
4 1 -22 3.4 0.8
4 1 -22 2.6 1.7
-4 -1 22 3.5 0.9
-4 -1 22 3.8 0.7
5 1 -22 4.4 2.2
-5 -1 22 12 1.1
-5 -1 22 12.1 1.5
6 1 -22 1 1.4
6 1 -22 -0.5 2.4
-6 -1 22 1 0.8
-6 -1 22 -0.1 1.1
0 -2 22 4.7 1.2
0 2 -22 4.4 0.9
0 2 -22 5 0.6
0 -2 22 4.8 0.5
1 2 -22 13.2 0.9
1 -2 22 13.1 0.8
1 2 -22 13.3 1.5
-1 -2 22 14.2 0.8
-1 2 -22 12.3 0.9
-1 -2 22 14.4 1.6
-1 2 -22 13.4 1.5
2 2 -22 2.4 1.1
2 2 -22 1.1 0.5
-2 -2 22 1.2 0.7
-2 -2 22 1.3 0.4
3 2 -22 5.5 0.8
3 2 -22 5 1.8
-3 -2 22 5 0.9
-3 -2 22 5.5 0.7
4 2 -22 13.1 2.4
4 2 -22 12.8 1.4
-4 -2 22 14.4 1.5
-4 -2 22 13.9 1.1
5 2 -22 0.1 2.4
5 2 -22 5 1.4
-5 -2 22 6.9 1
-5 -2 22 4.2 1.2
0 -3 22 53.49 1.8
0 3 -22 52.79 2
0 3 -22 51.39 2.5
0 -3 22 46.8 3
1 -3 22 5.4 1.4
1 -3 22 6.8 0.6
1 3 -22 6.7 0.8
1 3 -22 6 1.3
-1 -3 22 6.4 0.6
-1 3 -22 6.3 0.7
-1 3 -22 9.4 1.2
-1 -3 22 5.6 1.3
2 -3 22 1.9 1.3
2 3 -22 2.8 0.6
2 3 -22 1.4 1.5
2 -3 22 2.5 0.5
-2 -3 22 0.6 0.8
-2 -3 22 3.1 0.6
-2 3 -22 2.2 0.5
-2 3 -22 1.2 0.8
3 -3 22 7.6 1.9
3 3 -22 9.9 1.1
3 3 -22 13.6 2.4
-3 -3 22 11.5 0.9
-3 3 -22 12.5 0.9
-3 -3 22 11.5 1.4
-3 3 -22 11.9 1.4
4 3 -22 7.5 1.2
4 3 -22 6.2 2.4
-4 -3 22 7.5 1
-4 -3 22 4.3 1.3
5 3 -22 9.3 2.9
5 3 -22 10.9 1.8
-5 -3 22 8.8 1.1
-5 -3 22 9.5 1.6
0 -4 22 28.4 2.6
0 4 -22 32.9 1.5
0 4 -22 32.9 2.4
0 -4 22 32.4 1.4
1 -4 22 1.5 0.6
1 4 -22 0.6 1.3
1 -4 22 2.9 1.4
1 4 -22 2.2 0.6
-1 -4 22 1.4 0.6
-1 4 -22 1.9 0.5
-1 -4 22 3.1 1.2
-1 4 -22 0.5 1.1
2 4 -22 17.6 2.2
2 -4 22 16.3 1.2
2 4 -22 13.8 1.2
2 -4 22 14.6 2.3
-2 4 -22 14.3 1.6
-2 -4 22 17.5 1.2
-2 -4 22 15.4 1.8
-2 4 -22 15.7 1
3 4 -22 8 1.2
3 -4 22 8.4 1
3 -4 22 7 2.3
3 4 -22 8.3 2.4
-3 4 -22 9.8 0.9
-3 -4 22 9.4 0.9
-3 -4 22 9.4 1.5
-3 4 -22 6.3 1.4
4 4 -22 8.2 2.9
4 -4 22 3.5 2.9
4 4 -22 5.3 1.3
-4 4 -22 4 1.4
-4 -4 22 5.4 0.9
-4 -4 22 5.4 1.4
-4 4 -22 6.3 0.9
5 -4 22 4.7 3.3
5 4 -22 4.7 3
5 4 -22 4.5 1.4
-5 4 -22 5.6 1
-5 -4 22 6 1.1
-5 4 -22 5.6 1.6
-5 -4 22 5.5 1.4
0 -5 22 0.7 0.6
0 5 -22 -0.1 1.5
0 5 -22 -0.1 0.4
0 -5 22 -0.2 1.5
1 5 -22 22.2 2.5
1 -5 22 19.3 2.7
1 -5 22 21.7 1.4
1 5 -22 22.4 1.4
-1 5 -22 23 1.3
-1 -5 22 14.7 2.1
-1 -5 22 22.1 1.2
-1 5 -22 21.1 2.2
2 5 -22 0.6 0.7
2 5 -22 -0.8 2
2 -5 22 1.5 1.9
2 -5 22 1.2 0.7
-2 -5 22 0.1 0.6
-2 5 -22 0.2 1.4
-2 -5 22 -0.6 1.3
-2 5 -22 0 0.5
3 -5 22 9.4 1.1
3 5 -22 10.1 1.3
3 -5 22 9.3 3.2
3 5 -22 9.7 2.8
-3 5 -22 11.3 1.9
-3 -5 22 9.8 1.7
-3 5 -22 12.5 1.2
-3 -5 22 10.8 1.1
4 5 -22 -1.1 2.8
4 5 -22 1.9 1.3
4 -5 22 0.2 3.1
-4 -5 22 -0.7 1.3
-4 -5 22 -0.6 0.8
-4 5 -22 1.7 0.8
-4 5 -22 -0.1 1.5
5 -5 22 -1.5 4.5
-5 5 -22 1.7 1.3
-5 5 -22 1.5 2.3
0 -6 22 18.2 2.8
0 6 -22 25.1 1.5
0 -6 22 25.7 1.5
0 6 -22 23.7 2.6
1 -6 22 4.8 0.9
1 6 -22 4.6 2.2
1 6 -22 3.9 0.9
1 -6 22 1.4 2.4
-1 -6 22 1.5 1.9
-1 -6 22 2.6 0.8
-1 6 -22 3.5 0.9
-1 6 -22 6.2 2
2 6 -22 10.8 1.3
2 -6 22 8.1 3
2 6 -22 8.6 2.5
2 -6 22 12 1.2
-2 -6 22 9 2
-2 6 -22 12.2 1.2
-2 6 -22 10.3 2.1
-2 -6 22 11.5 1.1
3 6 -22 2.2 2.6
3 -6 22 1.9 0.9
3 6 -22 2.3 1.2
3 -6 22 0.6 2.9
-3 6 -22 1.8 0.8
-3 6 -22 1.7 1.7
-3 -6 22 1.5 1.7
-3 -6 22 2.7 0.9
4 -6 22 5 3.6
4 6 -22 2.9 1.3
4 6 -22 5.5 3
-4 6 -22 5.4 1.1
-4 6 -22 3.8 1.8
-4 -6 22 5.8 1
-4 -6 22 4.8 1.5
0 7 -22 4.6 1
0 -7 22 4.9 2.4
0 -7 22 4.4 0.9
0 7 -22 4.7 2
1 7 -22 13.8 1.5
1 -7 22 15.1 3.4
1 7 -22 12.3 2.5
1 -7 22 16.6 1.3
-1 -7 22 14.9 1.2
-1 7 -22 15.6 1.4
-1 7 -22 12.6 2.4
2 -7 22 2.1 3.1
2 7 -22 1.3 2.2
2 -7 22 1.4 0.9
2 7 -22 0.9 1.2
-2 -7 22 0.7 2
-2 7 -22 3.3 1
-2 -7 22 2.5 0.8
-2 7 -22 4.1 2
3 7 -22 1.5 1.3
3 7 -22 2.5 2.7
3 -7 22 2.3 3.2
-3 7 -22 0.8 2
-3 7 -22 1.6 0.8
-3 -7 22 0.3 1.8
-3 -7 22 1.4 0.8
0 8 -22 8.7 1.4
0 -8 22 7.6 2.8
0 8 -22 11.6 2.6
0 -8 22 7.5 1
1 -8 22 2.2 0.9
1 8 -22 2.3 1
1 -8 22 1.8 3
1 8 -22 2.5 2.4
-1 8 -22 3 2.2
-1 -8 22 1.2 2.1
-1 -8 22 1.9 0.9
-1 8 -22 3.5 1.1
2 8 -22 1 2.9
2 -8 22 -2.4 5.1
-2 8 -22 1.7 1.6
-2 -8 22 0 1.2
-2 8 -22 0 2.2
3 1 -23 40.7 2.8
3 1 -23 39 3.3
-3 -1 23 45.9 2.9
-3 -1 23 42.5 2.2
4 1 -23 2.9 0.9
4 1 -23 2.9 2
-4 -1 23 2 0.7
-4 -1 23 2.8 1
5 1 -23 12.1 1.6
5 1 -23 12 2.5
-5 -1 23 12.8 1.1
-5 -1 23 11.7 1.5
0 -2 23 15.9 1.2
0 2 -23 17.4 1.8
0 2 -23 18.1 1.7
1 2 -23 2.2 0.5
1 2 -23 3 0.9
-1 -2 23 1.7 0.9
-1 -2 23 1.7 0.4
2 2 -23 1.6 1.3
2 2 -23 1.8 0.6
-2 -2 23 1.5 0.8
-2 -2 23 3.2 0.6
3 2 -23 8.8 2.1
3 2 -23 8.5 1.1
-3 -2 23 8 1.2
-3 -2 23 8.9 0.9
4 2 -23 6.7 1.2
4 2 -23 8.2 2.4
-4 -2 23 9.8 1
-4 -2 23 8.1 1.3
5 2 -23 12.5 1.7
5 2 -23 7.3 2.5
-5 -2 23 13.9 1.7
-5 -2 23 12.2 1.1
0 3 -23 1.7 1
0 3 -23 1.8 0.5
0 -3 23 1.7 0.5
0 -3 23 1.9 1.1
1 3 -23 2.4 0.6
1 3 -23 1.1 1.2
1 -3 23 2.1 1.2
1 -3 23 3.2 0.6
-1 -3 23 3.1 0.6
-1 3 -23 2.7 1
-1 3 -23 3.1 0.5
-1 -3 23 2.2 1.1
2 -3 23 7.9 1.8
2 3 -23 6.2 0.8
2 -3 23 6.6 0.8
2 3 -23 6.6 1.8
-2 3 -23 6 1.2
-2 3 -23 7.3 0.8
-2 -3 23 5.3 1.2
-2 -3 23 7.7 0.8
3 3 -23 5.6 2.2
3 3 -23 9.3 1.2
-3 -3 23 10 1
-3 -3 23 11.1 1.5
4 3 -23 5.5 2.4
4 3 -23 2.1 1.1
-4 -3 23 2.6 0.8
-4 -3 23 3.9 1.3
5 3 -23 9.8 3
5 3 -23 8.6 1.7
-5 -3 23 9.7 1.1
-5 -3 23 9.4 1.6
0 -4 23 1.6 1.2
0 4 -23 1.1 1.4
0 -4 23 0.7 0.6
0 4 -23 0.9 0.4
1 4 -23 3 1.7
1 -4 23 2.5 0.7
1 -4 23 0.6 1.3
1 4 -23 1.9 0.6
-1 -4 23 1.8 1.2
-1 4 -23 2.6 0.5
-1 -4 23 2.5 0.6
-1 4 -23 2.9 1.4
2 -4 23 2.9 1.9
2 4 -23 2.3 0.7
2 4 -23 2.2 1.8
2 -4 23 2.1 0.7
-2 4 -23 0.9 1.3
-2 -4 23 -0.3 1.2
-2 -4 23 1.7 0.7
-2 4 -23 1.7 0.5
3 -4 23 5.1 2.6
3 -4 23 10.9 1.1
3 4 -23 10.7 2.6
3 4 -23 9.4 1.3
-3 4 -23 11.2 1.6
-3 4 -23 12.6 1.1
-3 -4 23 10.3 1.7
-3 -4 23 13.2 1.1
4 4 -23 3.2 1.3
4 4 -23 1.4 2.6
4 -4 23 8.7 3.1
-4 4 -23 3.5 1.4
-4 4 -23 5.3 0.9
-4 -4 23 2.6 1.4
-4 -4 23 4.2 1
5 4 -23 5 2.5
5 4 -23 7.6 4.5
-5 -4 23 1.1 1.1
0 -5 23 5.2 2
0 -5 23 5.3 0.8
0 5 -23 5.6 1.6
0 5 -23 4.8 0.8
1 -5 23 -1 2
1 5 -23 0 0.7
1 -5 23 0.3 0.7
1 5 -23 0.7 1.9
-1 -5 23 0.2 0.7
-1 -5 23 -0.9 1.6
-1 5 -23 0.5 0.6
-1 5 -23 -1 1.4
2 -5 23 -0.1 2.2
2 -5 23 0.4 0.8
2 5 -23 0.9 0.8
2 5 -23 -0.9 2.2
-2 -5 23 1.7 1.6
-2 5 -23 1.6 0.6
-2 5 -23 -1.1 1.4
-2 -5 23 1 0.7
3 -5 23 2.5 2.9
3 5 -23 4.6 2.7
3 5 -23 6.1 1.3
3 -5 23 4.3 1
-3 5 -23 5.3 1.7
-3 5 -23 5.6 0.9
-3 -5 23 6 1
-3 -5 23 3.4 1.7
4 -5 23 1.1 3.1
4 5 -23 0 1.2
4 5 -23 -0.8 2.8
-4 -5 23 0.2 1.4
-4 -5 23 0.4 0.8
-4 5 -23 1.2 1.5
-4 5 -23 1.7 0.8
0 6 -23 0.6 1.8
0 -6 23 3.3 0.8
0 6 -23 3.5 0.9
0 -6 23 4.1 2.3
1 -6 23 4.3 2.7
1 6 -23 6.1 2.4
1 -6 23 6.3 0.9
1 6 -23 4.9 1
-1 -6 23 6.6 1
-1 -6 23 3.6 2
-1 6 -23 5 1.8
-1 6 -23 7.8 1.1
2 -6 23 1.8 2.8
2 6 -23 1.9 1
2 6 -23 1.5 2.5
2 -6 23 0.6 0.9
-2 -6 23 2.1 1.7
-2 -6 23 0.5 0.7
-2 6 -23 -1.5 1.7
-2 6 -23 0.8 0.8
3 6 -23 0.4 1
3 -6 23 -0.5 0.9
3 6 -23 1.3 2.5
3 -6 23 1.1 3.3
-3 -6 23 0.3 1.5
-3 -6 23 0.8 0.9
-3 6 -23 -0.1 0.8
-3 6 -23 2.2 1.8
-4 6 -23 9 3
0 -7 23 6.2 0.9
0 -7 23 4.3 2.8
0 7 -23 5.9 1.2
0 7 -23 2.9 2.3
1 7 -23 1.7 1
1 -7 23 0.8 0.9
1 -7 23 0 2.8
1 7 -23 -1 2.2
-1 -7 23 3.4 2.2
-1 7 -23 0.6 1
-1 7 -23 2.5 2.1
-1 -7 23 1.2 0.8
2 7 -23 5.2 2.6
2 -7 23 3.1 3.3
2 -7 23 3.1 1
2 7 -23 1.1 1.2
-2 -7 23 3.2 0.9
-2 -7 23 0.1 2
-2 7 -23 3.1 1.1
-2 7 -23 2.4 2
0 8 -23 0.4 1.1
0 -8 23 0.4 1
0 -8 23 -1.2 2.9
0 8 -23 -1.2 2
5 1 -24 11.1 3
-5 -1 24 11.2 1.7
2 2 -24 2.9 1.5
2 2 -24 4 0.7
-2 -2 24 6.1 1
-2 -2 24 5.9 0.7
3 2 -24 22.6 1.5
3 2 -24 21.6 2.6
-3 -2 24 18.2 1.7
-3 -2 24 20.7 1.3
4 2 -24 0.8 1
4 2 -24 1.2 2.2
-4 -2 24 -0.4 0.7
-4 -2 24 1.1 1.1
5 2 -24 12.5 2.7
5 2 -24 16.2 1.9
-5 -2 24 17.8 1.9
-5 -2 24 17.1 1.3
0 3 -24 16.9 1.7
0 -3 24 19.8 2.2
0 -3 24 19.7 1.1
0 3 -24 21.9 1.2
1 -3 24 1.1 0.6
1 3 -24 -1.1 1.3
1 3 -24 1 0.5
1 -3 24 0.9 1.1
-1 -3 24 0.7 0.9
-1 3 -24 0.7 1
-1 3 -24 0.1 0.3
-1 -3 24 1 0.6
2 3 -24 17 1.3
2 3 -24 14.4 2.2
-2 -3 24 13.8 1.7
-2 -3 24 15.7 1.1
3 3 -24 20.6 2.8
3 3 -24 20.1 1.6
-3 -3 24 24 1.4
-3 -3 24 19 1.9
4 3 -24 5 2.5
4 3 -24 10.8 1.6
-4 -3 24 10.2 1.7
-4 -3 24 10.2 1.1
5 3 -24 4.8 2.8
5 3 -24 4.1 1.6
-5 -3 24 5.3 1
-5 -3 24 4.1 1.6
0 4 -24 0.2 1.4
0 -4 24 0.2 0.6
0 -4 24 0.9 1.4
0 4 -24 0.2 0.4
1 -4 24 2.2 1.8
1 -4 24 4.9 0.8
1 4 -24 4 0.8
1 4 -24 6 1.9
-1 -4 24 4.2 1.7
-1 4 -24 4.2 0.7
-1 -4 24 4.6 0.8
-1 4 -24 3.7 1.4
2 -4 24 10.5 1
2 -4 24 7.3 2.4
2 4 -24 10.2 1.2
2 4 -24 12.6 2.4
-2 -4 24 8.4 1.7
-2 -4 24 11.9 1.1
-2 4 -24 8.8 1.5
-2 4 -24 11.7 1
3 4 -24 24.9 1.9
3 -4 24 18.1 3.2
3 4 -24 21.4 3
-3 4 -24 22.4 1.4
-3 -4 24 23.5 1.5
-3 4 -24 21.2 2
4 4 -24 1.5 1.1
4 4 -24 3.7 2.7
-4 -4 24 -0.3 0.7
-4 -4 24 -0.6 1.3
0 5 -24 0.3 1.7
0 5 -24 0 0.7
0 -5 24 0.5 0.7
0 -5 24 1.9 2
1 5 -24 6.8 2.1
1 -5 24 3.6 2.3
1 -5 24 5.6 0.9
1 5 -24 5.4 1
-1 5 -24 5.1 1.7
-1 -5 24 5.1 2
-1 5 -24 6 0.9
-1 -5 24 5.4 0.9
2 5 -24 7.6 1.2
2 -5 24 8.8 1.1
2 -5 24 7.2 2.9
2 5 -24 5.4 2.4
-2 -5 24 5.7 1.8
-2 -5 24 7.9 1
-2 5 -24 7.2 1
-2 5 -24 10.3 1.9
3 -5 24 2.9 2.9
3 5 -24 5.1 2.7
3 5 -24 2.9 1.1
-3 5 -24 6 1.7
-3 5 -24 4.3 0.9
-3 -5 24 2.9 1.5
-3 -5 24 5.1 1
4 -5 24 4.2 3.3
4 5 -24 2.3 1.2
4 5 -24 2.5 2.7
-4 5 -24 3.5 1.6
-4 -5 24 2.7 0.9
-4 -5 24 2.4 1.5
-4 5 -24 3.8 1
0 6 -24 0 0.9
0 -6 24 -0.1 0.8
0 6 -24 0.6 1.8
0 -6 24 -0.9 2.3
1 -6 24 5.1 1
1 6 -24 6.3 1.2
1 -6 24 4.7 2.5
1 6 -24 6.1 2.4
-1 -6 24 5.8 0.9
-1 6 -24 4.8 1
-1 -6 24 0.6 2.2
-1 6 -24 6.7 2.1
2 6 -24 6.3 1.3
2 -6 24 4.2 3
2 6 -24 9.1 2.7
2 -6 24 5.6 1
-2 6 -24 6 1.1
-2 -6 24 1.9 1.9
-2 6 -24 5.6 1.8
-2 -6 24 6.2 1
3 6 -24 5.2 1.4
3 -6 24 1.8 3.3
3 6 -24 2.1 2.5
-3 6 -24 7.2 1.2
-3 6 -24 2.9 1.8
-3 -6 24 6.5 1
-3 -6 24 4.7 1.9
0 7 -24 0.1 2.2
0 -7 24 0.5 0.8
0 -7 24 0.6 2.6
0 7 -24 1.5 1
1 7 -24 -1.6 2.2
1 -7 24 -0.2 0.9
1 7 -24 0.5 1.1
1 -7 24 -0.6 2.9
-1 7 -24 -0.3 0.9
-1 7 -24 -0.3 1.9
-1 -7 24 0.6 0.9
-1 -7 24 1 2.4
2 -7 24 1.6 3.1
2 -7 24 4.8 1.1
2 7 -24 5.5 2.8
2 7 -24 5.4 1.4
-2 7 -24 7.1 2.2
-2 -7 24 6.4 1
-2 7 -24 4.1 1.1
-2 -7 24 4.8 2.5
3 2 -25 3.3 1.9
3 2 -25 2.5 0.8
-3 -2 25 1.5 1
-3 -2 25 2.2 0.7
4 2 -25 10.9 1.6
4 2 -25 11.4 2.5
-4 -2 25 8.7 1.5
-4 -2 25 8.8 1
5 2 -25 7.2 3
5 2 -25 2.2 1.4
-5 -2 25 4.9 1.6
-5 -2 25 3.2 0.9
0 3 -25 11.6 1.6
0 3 -25 14.4 1.1
0 -3 25 12.2 1.8
0 -3 25 15.3 1.1
1 3 -25 1 0.5
1 3 -25 2.1 1.6
-1 -3 25 1.6 1.2
-1 -3 25 0 0.6
2 3 -25 6.4 1
2 3 -25 5.9 2
-2 -3 25 6.3 1.5
-2 -3 25 5.3 0.8
3 3 -25 -0.5 2.1
3 3 -25 1.7 0.9
-3 -3 25 2.2 1.3
-3 -3 25 2.4 0.8
4 3 -25 1.5 1.3
4 3 -25 1.1 2.4
-4 -3 25 2.8 0.9
-4 -3 25 3.1 1.4
0 -4 25 7.2 0.9
0 4 -25 4.4 1.7
0 4 -25 7.9 1
0 -4 25 9.6 2.2
1 -4 25 1 0.7
1 4 -25 1.6 1.8
1 -4 25 3.8 2.1
1 4 -25 2.2 0.8
-1 4 -25 2.9 0.7
-1 4 -25 0.7 1.4
-1 -4 25 2 0.7
-1 -4 25 2.1 1.7
2 4 -25 12.6 2.4
2 -4 25 8.5 2.6
2 4 -25 12.3 1.4
2 -4 25 11.6 1.1
-2 4 -25 10 1.7
-2 -4 25 9.3 2
-2 -4 25 11.4 1
-2 4 -25 11.2 1.1
3 4 -25 0.7 1.1
3 4 -25 0.6 2.3
-3 -4 25 1.1 0.8
-3 -4 25 0.7 1.4
4 4 -25 3.6 2.7
4 4 -25 2.7 1.4
-4 -4 25 1.4 1.5
-4 -4 25 2.6 0.9
0 -5 25 1.3 0.8
0 5 -25 2.6 0.9
0 5 -25 3.2 1.9
0 -5 25 2.8 2.3
1 -5 25 1.7 0.8
1 5 -25 3.2 1
1 -5 25 -0.6 2.4
1 5 -25 0.4 2
-1 5 -25 3.9 0.9
-1 -5 25 6 2.2
-1 -5 25 1.9 0.8
-1 5 -25 1.3 1.7
2 -5 25 9.7 3.1
2 -5 25 13 1.2
2 5 -25 12.6 2.7
2 5 -25 12.5 1.4
-2 -5 25 17.1 1.3
-2 5 -25 12.9 1.3
-2 5 -25 11.4 1.8
-2 -5 25 10.3 2
3 -5 25 0.8 3
3 5 -25 4.6 2.6
3 5 -25 1.2 1.2
-3 -5 25 2.1 0.8
-3 -5 25 -0.3 1.5
-3 5 -25 2.3 1.7
-3 5 -25 1.7 0.9
0 -6 25 0.5 2.5
0 6 -25 2 2
0 -6 25 0.8 0.8
0 6 -25 1.2 1
1 -6 25 7.2 3.1
1 6 -25 10.5 1.4
1 -6 25 10.4 1.2
1 6 -25 10.6 2.5
-1 -6 25 11.1 1.1
-1 6 -25 10.4 1.3
-1 -6 25 5.2 2.2
-1 6 -25 7.7 2.2
2 6 -25 9.2 2.5
2 -6 25 6.1 3.3
2 -6 25 7.5 1.2
2 6 -25 8.6 1.4
-2 -6 25 5.8 2
-2 6 -25 10.8 1.4
-2 -6 25 7.6 1.1
-2 6 -25 11.7 2.1
0 -7 25 2 2.5
0 -7 25 1 0.9
0 7 -25 1 1
0 7 -25 2.2 2.3
1 -7 25 2.3 1.1
1 7 -25 -1.2 3
1 -7 25 -2.7 3.3
1 7 -25 -1.2 1.7
-1 -7 25 0.1 1.3
-1 7 -25 -0.3 2.2
-1 7 -25 2.2 1.2
-1 -7 25 2.6 4.2
1 3 -26 6.1 1.7
1 3 -26 10.5 1.1
-1 -3 26 9.9 0.9
-1 -3 26 8.5 1.8
2 3 -26 18.9 1.6
2 3 -26 16.3 2.4
-2 -3 26 16.8 1.2
-2 -3 26 14 1.9
3 3 -26 10 2.4
3 3 -26 15.1 1.6
-3 -3 26 12.6 1.8
-3 -3 26 14.8 1.2
4 3 -26 0.6 2.4
4 3 -26 0.9 1.3
-4 -3 26 0.8 1.4
-4 -3 26 0.8 0.8
0 4 -26 5.2 1.8
0 -4 26 3.7 2
0 -4 26 3.5 0.8
0 4 -26 3.2 0.9
1 4 -26 7.2 1.1
1 -4 26 8.2 2.4
1 4 -26 8.1 2.1
1 -4 26 10.2 1
-1 4 -26 6.4 0.9
-1 4 -26 8 1.8
-1 -4 26 5.9 1.9
-1 -4 26 9.1 1
2 4 -26 6.4 2.1
2 4 -26 9 1.3
-2 -4 26 9.9 1
-2 -4 26 9.8 2
3 4 -26 0 2.3
3 4 -26 2 1.3
-3 -4 26 5.3 1.7
-3 -4 26 4.1 0.9
0 -5 26 6.3 0.9
0 -5 26 7 2.5
0 5 -26 4.3 1.9
0 5 -26 8.1 1.2
1 -5 26 3.7 2.6
1 5 -26 4.8 1.1
1 5 -26 4.5 2.2
1 -5 26 2.7 0.9
-1 -5 26 4.1 2.1
-1 5 -26 5.8 1
-1 5 -26 3.9 1.7
-1 -5 26 6.6 1
2 -5 26 3.5 1
2 5 -26 1.4 1.1
2 -5 26 0.8 2.7
2 5 -26 8 2.6
-2 -5 26 3.8 0.9
-2 -5 26 4 2
-2 5 -26 4 1.7
-2 5 -26 2.8 0.9
3 -5 26 4.7 3.2
3 5 -26 1.9 2.4
3 5 -26 6 1.5
-3 -5 26 3.7 1.8
-3 5 -26 5.5 1.1
-3 5 -26 4.8 1.7
-3 -5 26 5.4 1
0 6 -26 5.5 2.2
0 -6 26 3.8 0.9
0 -6 26 2.2 2.6
0 6 -26 4.3 1.2
1 6 -26 0 1.1
1 -6 26 0.7 0.9
1 6 -26 1.9 2.3
1 -6 26 3.2 2.9
-1 -6 26 0.5 0.9
-1 6 -26 -0.4 1.8
-1 6 -26 0.2 0.9
-1 -6 26 0.9 2.3
2 -6 26 -1.1 2.9
2 -6 26 0.6 0.9
2 6 -26 2.2 2.7
2 6 -26 0.1 1.7
-2 -6 26 0.2 0.9
-2 6 -26 1.8 1.7
-2 -6 26 2.9 3.4
-2 6 -26 -0.3 0.9
2 3 -27 9.8 3.5
3 3 -27 6.8 2.3
3 3 -27 9.8 1.5
-3 -3 27 12.6 1.1
-3 -3 27 9.1 1.6
0 -4 27 0.7 0.7
0 4 -27 -0.4 0.7
0 4 -27 1.5 1.7
0 -4 27 -1 1.9
1 4 -27 4.7 1
1 4 -27 1.4 1.8
-1 -4 27 2.7 0.8
-1 -4 27 1.2 1.7
2 4 -27 8.7 1.3
2 4 -27 8.5 2.4
-2 -4 27 8.8 1.9
-2 -4 27 10.1 1.1
3 4 -27 7.6 2.6
3 4 -27 5.3 1.4
-3 -4 27 6 1
-3 -4 27 7.5 1.8
0 -5 27 4.3 2.4
0 -5 27 0.2 0.8
0 5 -27 0.6 0.9
0 5 -27 0.3 1.9
1 -5 27 0.7 0.8
1 5 -27 0.6 2
1 -5 27 -0.3 2.6
1 5 -27 0.1 1
-1 5 -27 -1.2 1.6
-1 -5 27 0.2 1.9
-1 -5 27 0.5 0.8
-1 5 -27 2.1 1
2 -5 27 4 1
2 -5 27 5 3
2 5 -27 5.5 2.3
2 5 -27 3.6 1.3
-2 5 -27 3.9 1
-2 5 -27 5.4 1.7
-2 -5 27 5.3 2
-2 -5 27 4.1 0.9
0 6 -27 4.3 1.2
0 -6 27 1.5 0.9
0 6 -27 2.9 2.2
0 -6 27 4.3 2.6
1 -6 27 1.4 1.4
-1 6 -27 2.8 2.8
1 4 -28 7.8 1.2
1 4 -28 5 2
-1 -4 28 8.4 1
-1 -4 28 6.1 1.9
2 4 -28 10 2.4
2 4 -28 17.1 1.8
-2 -4 28 12.2 1.1
-2 -4 28 10 2.1
0 -5 28 10.4 2.5
0 -5 28 13.8 1.2
0 5 -28 11.6 2.2
0 5 -28 14.7 1.5
1 5 -28 15.6 2.4
1 5 -28 17.9 1.8
1 -5 28 14.7 1.3
1 -5 28 11.3 3
-1 5 -28 16.7 2.3
-1 -5 28 16.4 1.3
-1 5 -28 17.5 1.5
-1 -5 28 13.2 2.5
loop_
_geom_angle_atom_site_label_1
_geom_angle_atom_site_label_2
_geom_angle_atom_site_label_3
_geom_angle
_geom_angle_site_symmetry_1
_geom_angle_site_symmetry_3
_geom_angle_publ_flag
C4 N2 C5 105.54(6) . . ?
O1 C1 C2 117.14(5) . . ?
N1 C2 C3 110.28(5) . . ?
N2 C4 C3 121.07(6) . . ?
N2 C5 N3 111.87(7) . . ?
C2 N1 H1A 109.3(6) . . ?
H1A N1 H1B 106.4(9) . . ?
C5 N3 H3 127.2(8) . . ?
C1 C2 H2 107.7(6) . . ?
C2 C3 H3B 106.7(6) . . ?
H3A C3 H3B 106.9(10) . . ?
N3 C6 H6 121.5(6) . . ?
C5 N3 C6 107.16(6) . . ?
O2 C1 C2 116.38(5) . . ?
C1 C2 C3 110.45(5) . . ?
N2 C4 C6 109.24(6) . . ?
N3 C6 C4 106.19(6) . . ?
C2 N1 H1B 110.9(7) . . ?
H1A N1 H1C 109.8(9) . . ?
C6 N3 H3 125.6(8) . . ?
C3 C2 H2 111.0(6) . . ?
C4 C3 H3A 111.7(7) . . ?
N2 C5 H5 126.0(5) . . ?
C4 C6 H6 132.2(6) . . ?
O1 C1 O2 126.44(6) . . ?
N1 C2 C1 109.50(5) . . ?
C2 C3 C4 112.42(6) . . ?
C3 C4 C6 129.69(6) . . ?
C2 N1 H1C 107.7(6) . . ?
H1B N1 H1C 112.8(9) . . ?
N1 C2 H2 107.8(5) . . ?
C2 C3 H3A 108.6(6) . . ?
C4 C3 H3B 110.3(6) . . ?
N3 C5 H5 122.1(5) . . ?
loop_
_geom_bond_atom_site_label_1
_geom_bond_atom_site_label_2
_geom_bond_distance
_geom_bond_site_symmetry_2
_geom_bond_publ_flag
O1 C1 1.2453(8) . ?
N2 C5 1.3219(9) . ?
C2 C3 1.5370(10) . ?
N1 H1A 1.007(11) . ?
C2 H2 1.073(10) . ?
C6 H6 1.053(11) . ?
O2 C1 1.2514(7) . ?
N3 C5 1.3452(10) . ?
C3 C4 1.4984(10) . ?
N1 H1B 1.008(11) . ?
C3 H3A 1.062(14) . ?
N1 C2 1.4892(8) . ?
N3 C6 1.3758(10) . ?
C4 C6 1.3698(10) . ?
N1 H1C 1.002(11) . ?
C3 H3B 1.067(11) . ?
N2 C4 1.3839(9) . ?
C1 C2 1.5404(8) . ?
N3 H3 1.006(13) . ?
C5 H5 1.049(11) . ?
loop_
_geom_torsion_atom_site_label_1
_geom_torsion_atom_site_label_2
_geom_torsion_atom_site_label_3
_geom_torsion_atom_site_label_4
_geom_torsion
_geom_torsion_site_symmetry_1
_geom_torsion_site_symmetry_2
_geom_torsion_site_symmetry_3
_geom_torsion_site_symmetry_4
_geom_torsion_publ_flag
C5 N2 C4 C3 -179.52(7) . . . . ?
C6 N3 C5 N2 0.61(9) . . . . ?
O1 C1 C2 C3 94.31(7) . . . . ?
N1 C2 C3 C4 -58.88(7) . . . . ?
C2 C3 C4 C6 -123.32(8) . . . . ?
H1A N1 C2 C1 163.2(7) . . . . ?
H1B N1 C2 C1 46.3(7) . . . . ?
H1C N1 C2 C1 -77.6(7) . . . . ?
C4 N2 C5 H5 178.1(9) . . . . ?
H3 N3 C5 H5 -0.2(13) . . . . ?
H3 N3 C6 H6 4.0(12) . . . . ?
C5 N2 C4 C6 0.12(8) . . . . ?
C5 N3 C6 C4 -0.49(8) . . . . ?
O2 C1 C2 N1 155.01(6) . . . . ?
C1 C2 C3 C4 179.94(5) . . . . ?
N2 C4 C6 N3 0.23(8) . . . . ?
H1A N1 C2 C3 41.5(7) . . . . ?
H1B N1 C2 C3 -75.5(7) . . . . ?
H1C N1 C2 C3 160.7(7) . . . . ?
C6 N3 C5 H5 -178.0(8) . . . . ?
C5 N3 C6 H6 -178.1(8) . . . . ?
O1 C1 C2 H2 -144.3(6) . . . . ?
C4 N2 C5 N3 -0.45(9) . . . . ?
O1 C1 C2 N1 -27.33(8) . . . . ?
O2 C1 C2 C3 -83.35(7) . . . . ?
C2 C3 C4 N2 56.24(8) . . . . ?
C3 C4 C6 N3 179.83(7) . . . . ?
H1A N1 C2 H2 -79.9(9) . . . . ?
H1B N1 C2 H2 163.2(9) . . . . ?
H1C N1 C2 H2 39.4(9) . . . . ?
H3 N3 C5 N2 178.4(10) . . . . ?
H3 N3 C6 C4 -178.3(9) . . . . ?
O2 C1 C2 H2 38.1(6) . . . . ?
N1 C2 C3 H3A 65.2(8) . . . . ?
C1 C2 C3 H3B 58.9(7) . . . . ?
H2 C2 C3 H3B -60.6(9) . . . . ?
H3B C3 C4 N2 175.2(7) . . . . ?
C3 C4 C6 H6 -2.9(9) . . . . ?
N1 C2 C3 H3B -179.9(7) . . . . ?
H2 C2 C3 C4 60.5(6) . . . . ?
H3A C3 C4 N2 -66.1(8) . . . . ?
H3B C3 C4 C6 -4.4(7) . . . . ?
C1 C2 C3 H3A -56.0(8) . . . . ?
H2 C2 C3 H3A -175.4(10) . . . . ?
H3A C3 C4 C6 114.3(8) . . . . ?
N2 C4 C6 H6 177.5(9) . . . . ?

_cod_database_fobs_code 2108887
