#------------------------------------------------------------------------------
#$Date: 2021-02-05 16:52:16 +0200 (Fri, 05 Feb 2021) $
#$Revision: 261797 $
#$URL: file:///home/coder/svn-repositories/cod/cif/2/10/87/2108742.cif $
#------------------------------------------------------------------------------
#
# This file is available in the Crystallography Open Database (COD),
# http://www.crystallography.net/. The original data for this entry
# were provided by IUCr Journals, http://journals.iucr.org/.
#
# The file may be used within the scientific community so long as
# proper attribution is given to the journal article from which the
# data were obtained.
#
data_2108742
loop_
_publ_author_name
'\/Lawniczak, Pawe\/l'
'Pogorzelec-Glaser, Katarzyna'
'Pietraszko, Adam'
'Hilczer, Bo\.zena'
_publ_section_title
;
 Effect of disordered imidazole substructure on proton dynamics in
 imidazolium malonic acid salt
;
_journal_coeditor_code           LO5078
_journal_issue                   1
_journal_name_full               'Acta Crystallographica Section B'
_journal_page_first              31
_journal_page_last               40
_journal_paper_doi               10.1107/S2052520620014365
_journal_volume                  77
_journal_year                    2021
_chemical_formula_moiety         'C6 H5 O8, 3(C3 H5 N2)'
_chemical_formula_sum            'C7.5 H10 N3 O4'
_chemical_formula_weight         206.18
_space_group_crystal_system      triclinic
_space_group_IT_number           2
_space_group_name_Hall           '-P 1'
_space_group_name_H-M_alt        'P -1'
_atom_sites_solution_hydrogens   difmap
_audit_creation_method           SHELXL-2013
_cell_angle_alpha                117.560(12)
_cell_angle_beta                 102.07(2)
_cell_angle_gamma                89.390(15)
_cell_formula_units_Z            2
_cell_length_a                   6.9050(13)
_cell_length_b                   8.3940(13)
_cell_length_c                   9.3390(6)
_cell_measurement_reflns_used    3204
_cell_measurement_temperature    14(2)
_cell_measurement_theta_max      56.0
_cell_measurement_theta_min      4
_cell_volume                     466.94(14)
_computing_cell_refinement       'CrysAlis v171.33.42'
_computing_data_collection       'CrysAlis v171.33.42'
_computing_data_reduction        'CrysAlis v171.33.42'
_computing_molecular_graphics    'Diamond 3.2'
_computing_structure_refinement  'SHELXL-2013 (Sheldrick, 2013)'
_computing_structure_solution    'SHELXS-97 (Sheldrick, 1990)'
_diffrn_ambient_temperature      14(2)
_diffrn_measured_fraction_theta_full 0.957
_diffrn_measured_fraction_theta_max 0.770
_diffrn_measurement_device_type  'Xcalibur Oxford Diffraction'
_diffrn_measurement_method       CCD
_diffrn_radiation_type           MoK\a
_diffrn_radiation_wavelength     0.71073
_diffrn_reflns_av_R_equivalents  0.0387
_diffrn_reflns_av_unetI/netI     0.0359
_diffrn_reflns_Laue_measured_fraction_full 0.957
_diffrn_reflns_Laue_measured_fraction_max 0.770
_diffrn_reflns_limit_h_max       9
_diffrn_reflns_limit_h_min       -7
_diffrn_reflns_limit_k_max       12
_diffrn_reflns_limit_k_min       -8
_diffrn_reflns_limit_l_max       10
_diffrn_reflns_limit_l_min       -12
_diffrn_reflns_number            3204
_diffrn_reflns_point_group_measured_fraction_full 0.957
_diffrn_reflns_point_group_measured_fraction_max 0.770
_diffrn_reflns_theta_full        25.242
_diffrn_reflns_theta_max         30.777
_diffrn_reflns_theta_min         3.032
_diffrn_source                   'fine-focus sealed tube'
_exptl_absorpt_coefficient_mu    0.120
_exptl_absorpt_correction_T_max  1.231
_exptl_absorpt_correction_T_min  0.9210
_exptl_absorpt_correction_type   numerical
_exptl_absorpt_process_details   'CrysAlis v171.33.42'
_exptl_crystal_colour            colorless
_exptl_crystal_density_diffrn    1.466
_exptl_crystal_density_method    'not measured'
_exptl_crystal_description       unshaped
_exptl_crystal_F_000             216
_exptl_crystal_size_max          0.34
_exptl_crystal_size_mid          0.32
_exptl_crystal_size_min          0.21
_refine_diff_density_max         0.422
_refine_diff_density_min         -0.351
_refine_diff_density_rms         0.081
_refine_ls_extinction_coef       0.041(2)
_refine_ls_extinction_expression Fc^*^=kFc[1+0.001xFc^2^\l^3^/sin(2\q)]^-1/4^
_refine_ls_extinction_method     SHELXL
_refine_ls_goodness_of_fit_ref   1.172
_refine_ls_hydrogen_treatment    refall
_refine_ls_matrix_type           full
_refine_ls_number_parameters     204
_refine_ls_number_reflns         2245
_refine_ls_number_restraints     4
_refine_ls_restrained_S_all      1.171
_refine_ls_R_factor_all          0.0623
_refine_ls_R_factor_gt           0.0516
_refine_ls_shift/su_max          0.024
_refine_ls_shift/su_mean         0.003
_refine_ls_structure_factor_coef Fsqd
_refine_ls_weighting_details
;
 w=1/[\s^2^(Fo^2^)+(0.0300P)^2^+0.6000P]
 where P=(Fo^2^+2Fc^2^)/3
;
_refine_ls_weighting_scheme      calc
_refine_ls_wR_factor_gt          0.1175
_refine_ls_wR_factor_ref         0.1232
_reflns_Friedel_coverage         0.000
_reflns_number_gt                1826
_reflns_number_total             2245
_reflns_threshold_expression     'I > 2\s(I)'
_cod_data_source_file            lo5078sup1.cif
_cod_data_source_block           im14
_cod_depositor_comments
'Adding full bibliography for 2108742--2108745.cif.'
_cod_original_cell_volume        466.94(13)
_cod_original_formula_sum        'C7.50 H10 N3 O4'
_cod_database_code               2108742
_cod_database_fobs_code          2108742
_shelx_space_group_comment
;
The symmetry employed for this shelxl refinement is uniquely defined
by the following loop, which should always be used as a source of
symmetry information in preference to the above space-group names.
They are only intended as comments.
;
_shelxl_version_number           2013-2
_shelx_res_file
;
TITL MAL-IMD-14k-1A in P-1 AT 14k
REM P-1 (#2 in standard setting)
CELL 0.71073   6.905   8.394  9.339 117.56 102.07  89.39
ZERR    2.00   0.0013   0.0013   0.0006   0.0119   0.0218   0.0147
LATT  1
SFAC C H N O
UNIT 15 20 6 8

L.S.  31
DAMP  2500
ACTA
BOND $H
FMAP 2
PLAN 20
HTAB 2.5
EQIV $1 -x, -y, -z+1
HTAB O4 O3_$1
HTAB O4 O4_$1
EQIV $2 -x+1, -y+1, -z+1
HTAB C2 O1_$2
EQIV $3 -x+1, -y, -z+1
HTAB C2 O3_$3
HTAB N1A1 O1
EQIV $4 -x, -y+1, -z+1
HTAB C1A O4_$4
EQIV $5 x, y+1, z+1
HTAB N1A2 O2_$5
EQIV $6 -x+1, -y+1, -z+2
HTAB C2A O3_$6
HTAB C3A O3
EQIV $7 x, y, z+1
HTAB C3B O1_$7
HTAB C2B O2_$4
HTAB C2B O4_$5
HTAB N1B2 O1_$4
HTAB N1B2 O2_$4
HTAB N1B1 O1_$7
HTAB N1B1 O2_$7
HTAB C1B O3
HTAB C1B O4_$1

MPLA C1B C2B C3B N1B1 N1B2
MPLA C1 C2 O1 O2
MPLA C1A C2A C3A N1A1 N1A2
MPLA C1B C2B C3B N1B1 N1B2
MPLA C2 C3 O3 O4
MPLA C1A C2A C3A N1A1 N1A2
MPLA C1 C2 O1 O2
MPLA C2 C3 O3 O4
OMIT 1 -5 6]
OMIT 5 -7 6
OMIT 4 -9 8
OMIT 0 -1 2
OMIT 1 4 6
OMIT 2 -5 2
OMIT 0 -7 4
OMIT -1 -3 8
WGHT    0.030000    0.600000
EXTI    0.040947
FVAR      10.75942
O1    4    0.221672    0.424689    0.388290    11.00000    0.01225    0.00830 =
         0.01435    0.00145    0.00162    0.00211
O2    4    0.216792    0.172063    0.162314    11.00000    0.01389    0.01043 =
         0.01147    0.00221    0.00124    0.00303
O3    4    0.335891    0.149016    0.651692    11.00000    0.01514    0.01408 =
         0.01396    0.00516   -0.00091   -0.00136
O4    4    0.086650    0.058629    0.426708    11.00000    0.01119    0.01778 =
         0.01529    0.00847   -0.00086   -0.00362

C1    1    0.268451    0.267493    0.316849    11.00000    0.00758    0.00942 =
         0.01292    0.00441    0.00213   -0.00089
C2    1    0.390886    0.194242    0.424993    11.00000    0.00761    0.01241 =
         0.01674    0.00679    0.00048    0.00055
C3    1    0.265374    0.131931    0.512362    11.00000    0.01011    0.00817 =
         0.01400    0.00371    0.00048    0.00202
FLAT  N1A1 C1A N1A2 C2A C3A

N1A1  3    0.291222    0.625169    0.716997    11.00000    0.01011    0.00933 =
         0.01138    0.00174    0.00112    0.00091
C1A   1    0.232335    0.787178    0.788775    11.00000    0.00894    0.00952 =
         0.01373    0.00490    0.00243    0.00047
N1A2  3    0.300467    0.856294    0.951725    11.00000    0.00954    0.00966 =
         0.01388    0.00341    0.00135    0.00169
C2A   1    0.407249    0.734416    0.986542    11.00000    0.01069    0.01158 =
         0.01369    0.00548    0.00035    0.00053
C3A   1    0.400912    0.589921    0.838944    11.00000    0.01078    0.01091 =
         0.01724    0.00567    0.00143    0.00160
PART  1
FLAT N1B1 C1B N1B2 C2B C3B
N1B1  3    0.069883    0.409126    1.050037    10.50000    0.00857    0.01025 =
         0.01030    0.00459   -0.00244   -0.00167
C1B   1    0.004506    0.376526    0.893171    10.50000    0.01161    0.01070 =
         0.01214    0.00790   -0.00012    0.00642
N1B2  3   -0.062817    0.523123    0.890481    10.50000    0.01423    0.00916 =
         0.00913    0.00449   -0.00234   -0.00106
C2B   1   -0.039908    0.653304    1.054187    10.50000    0.00716    0.01028 =
         0.01425    0.00639   -0.00175    0.00166
C3B   1    0.043067    0.581730    1.151216    10.50000    0.00880    0.00738 =
         0.01291    0.00308    0.00298    0.00045
H3B   2    0.082292    0.633473    1.274897    10.50000    0.01344
H2B   2   -0.072228    0.771464    1.067173    10.50000    0.01462
H1B2  2   -0.124789    0.539220    0.793864    10.50000    0.00777
H1B1  2    0.125858    0.327312    1.086894    10.50000    0.03960
H1B   2    0.004345    0.264587    0.794765    10.50000    0.01512
PART 0
H4    2    0.000000    0.000000    0.500000    10.50000    0.04890
H21   2    0.499543    0.284071    0.506802    11.00000    0.02507
H22   2    0.452971    0.088744    0.358548    11.00000    0.01952
H1A1  2    0.264455    0.548498    0.598536    11.00000    0.02360
H1A   2    0.153715    0.842068    0.731791    11.00000    0.01822
H1A2  2    0.280129    0.967516    1.029873    11.00000    0.05506
H2A   2    0.473449    0.759548    1.098569    11.00000    0.01592
H3A   2    0.453653    0.475925    0.807397    11.00000    0.02138

HKLF 4 1 1 0 0 0 -1 0 0 1 1

REM  MAL-IMD-14k-1A in P-1 AT 14k
REM R1 =  0.0516 for    1826 Fo > 4sig(Fo)  and  0.0623 for all    2245 data
REM    204 parameters refined using      4 restraints

END

WGHT      0.0788      0.3381

REM Instructions for potential hydrogen bonds
HTAB C3B O1_$7
HTAB C2B O2_$4
HTAB N1B2 O1_$4
HTAB N1B2 O2_$4
HTAB N1B1 O1_$7
HTAB N1B1 O2_$7
HTAB C1B O3
HTAB C1B O4_$1
HTAB O4 O3_$1
HTAB C2 O1_$2
HTAB C2 O3_$3
HTAB N1A1 O1
HTAB C1A O4_$4
HTAB N1A2 O2_$5
HTAB C2A O3_$6
HTAB C3A O3

REM Highest difference peak  0.422,  deepest hole -0.351,  1-sigma level  0.081
Q1    1   0.3258  0.2177  0.3668  11.00000  0.05    0.42
Q2    1   0.1649  0.2209  0.0974  11.00000  0.05    0.35
Q3    1   0.2876  0.7675  0.9625  11.00000  0.05    0.35
Q4    1   0.4260  0.4819  0.8801  11.00000  0.05    0.34
Q5    1   0.4741  0.6935  0.8676  11.00000  0.05    0.31
Q6    1   0.3516  0.6033  0.7800  11.00000  0.05    0.31
Q7    1   0.3273  0.1791  0.4744  11.00000  0.05    0.31
Q8    1   0.2006  0.3221  0.3652  11.00000  0.05    0.29
Q9    1   0.2281  0.0864  0.1743  11.00000  0.05    0.29
Q10   1   0.4589  0.3175  0.5778  11.00000  0.05    0.28
Q11   1   0.1498  0.4657  0.3338  11.00000  0.05    0.27
Q12   1   0.2943  0.7201  0.7372  11.00000  0.05    0.27
Q13   1   0.0476 -0.0522  0.4111  11.00000  0.05    0.27
Q14   1   0.2679  0.5273  0.3919  11.00000  0.05    0.27
Q15   1   0.4286  0.2395  0.6798  11.00000  0.05    0.27
Q16   1   0.4162  0.5586  0.9973  11.00000  0.05    0.27
Q17   1   0.5386  0.4993  0.9012  11.00000  0.05    0.26
Q18   1   0.1109  0.7975  1.4816  11.00000  0.05    0.26
Q19   1   0.2572 -0.0306  0.6149  11.00000  0.05    0.25
Q20   1   0.2896  0.4439  0.4925  11.00000  0.05    0.25
;
_shelx_res_checksum              84975
_shelx_hkl_file
;
   0   0   2 17639.3 154.329   0 0.92635-0.88580 0.34502-0.26210 0.08804 0.08803
   0   0   3 2571.89 79.7287   0 0.93595-0.87513 0.35476-0.23038 0.13205 0.13205
   0   0   4 22257.4 251.571   0 0.94364-0.86254 0.36382-0.19797 0.17607 0.17607
   0   0   4 23250.2 189.214   2 0.61464-0.53354 0.77252-0.60667 0.17607 0.17607
   0   0   5 7888.54 175.427   0 0.94936-0.84799 0.37217-0.16486 0.22009 0.22009
   0   0   5 8248.77 134.512   2 0.67665-0.57528 0.74453-0.53722 0.22009 0.22009
   0   0   6 4540.48 156.388   0 0.95307-0.83143 0.37980-0.13103 0.26411 0.26410
   0   0   7 2736.62 145.238   0 0.95468-0.81276 0.38669-0.09646 0.30813 0.30812
   0   0   8 2419.14 156.394   0 0.95410-0.79191 0.39279-0.06110 0.35214 0.35214
   0   0  -8 2071.45 139.183   1-0.65946 0.49727 0.47748-0.80917-0.35214-0.35214
   0   0  -9 2475.85 138.856   1-0.63229 0.44982 0.46317-0.83632-0.39616-0.39616
   0  -1   7 8.93186 29.1601   0 0.95466-0.82226 0.38997-0.19554 0.33108 0.24005
   0  -1   6 1348.07 78.2333   2 0.83010-0.71798 0.62619-0.47322 0.34124 0.14185
   0  -1   6 1272.52 119.945   0 0.95449-0.84236 0.38510-0.23213 0.29752 0.18558
   0  -1   5 32790.0 260.917   2 0.81227-0.72042 0.64528-0.53377 0.32583 0.06923
   0  -1   5 31782.4 332.261   0 0.95331-0.86146 0.38048-0.26897 0.26820 0.12686
   0  -1   4 4114.78 89.4512   2 0.80663-0.73506 0.65092-0.58087 0.32106-0.01404
   0  -1   4 4014.87 108.965   0 0.95183-0.88026 0.37684-0.30679 0.24650 0.06052
   0  -1   3 17385.5 182.111   0 0.95135-0.90005 0.37582-0.34724 0.24063-0.02164
   0  -1   3 17841.4 160.436   2 0.82240-0.77110 0.63468-0.60610 0.33453-0.11554
   0  -1   2 440920. 707.591   0 0.95375-0.92272 0.38186-0.39473 0.27674-0.14579
   0   1   1 26433.5 150.933   0 0.83683-0.80704 0.27741-0.14015-0.16061 0.29376
   0   1   2 714.021 46.8136   0 0.89661-0.84654 0.31967-0.14095-0.01471 0.23590
   0   1   3 87.1445 47.2200   0 0.92208-0.85174 0.34103-0.12085 0.07084 0.23838
   0  -1  -3 61.9526 39.2093   1-0.65113 0.58079 0.47314-0.69332-0.36617 0.05694
   0  -1  -4 26382.0 254.551   1-0.65292 0.56231 0.47408-0.73572-0.36319-0.03407
   0   1   4 27080.4 292.785   0 0.93699-0.84637 0.35590-0.09425 0.13740 0.25986
   0   1   5 4809.25 146.492   0 0.94642-0.83554 0.36761-0.06451 0.19562 0.28967
   0  -1  -5 4962.13 136.587   1-0.64400 0.53311 0.46939-0.77250-0.37778-0.10751
   0   1   6 1842.47 123.031   0 0.95206-0.82090 0.37735-0.03278 0.24948 0.32385
   0  -1  -6 1651.77 128.878   1-0.62874 0.49757 0.46127-0.80583-0.40157-0.17176
   0   1   7 11186.6 272.285   0 0.95456-0.80312 0.38559 0.00044 0.30074 0.36062
   0  -1  -7 11259.5 240.823   1-0.60874 0.45730 0.45044-0.83647-0.43071-0.23066
   0   1   8 10.5137 46.2784   0 0.95417-0.78246 0.39256 0.03493 0.35038 0.39902
   0  -2   6 175.198 73.3456   2 0.89418-0.79157 0.53431-0.47714 0.40243 0.03555
   0  -2   6 215.110 68.5810   0 0.95415-0.85154 0.39265-0.33547 0.35104 0.08694
   0  -2   5 27020.5 299.470   0 0.95444-0.87211 0.39145-0.37574 0.34194 0.00800
   0  -2   5 28030.4 260.338   2 0.89508-0.81275 0.53263-0.51691 0.40339-0.05344
   0  -2   4 41981.1 317.341   0 0.95412-0.89207 0.39273-0.41847 0.35163-0.08973
   0  -2   4 43671.1 296.663   2 0.90623-0.84417 0.51031-0.53606 0.41561-0.15370
   0  -2   3 1936.10 74.9480   2 0.92785-0.88606 0.45595-0.52316 0.44208-0.26821
   0  -2   3 920.177 80.9046   3 0.18395-0.14216 0.92006-0.98727 0.77877-0.60490
   0  -2   2 29960.1 206.061   3 0.07917-0.05767 0.75401-0.86268 0.92254-0.83670
   0  -2   2 31345.1 215.611   2 0.95121-0.92971 0.34967-0.45834 0.48255-0.39671
   0  -2   1 44442.0 238.520   2 0.94534-0.94411 0.16654-0.31667 0.52472-0.52692
   0  -2   0 175433. 506.985   3-0.22963 0.21059-0.09580-0.09580 0.75132-0.84155
   0   2   0 160575. 297.259   0 0.50688-0.48784 0.09580 0.09580-0.60530 0.69553
   0  -2  -1 467.821 87.5312   3-0.29769 0.25838-0.39812 0.16507 0.52371-0.70198
   0   2   1 762.041 35.7144   0 0.80681-0.76750 0.25826-0.02521-0.21933 0.39760
   0  -2  -2 135215. 431.981   1-0.40471 0.34512 0.33242-0.60694-0.64424 0.37794
   0   2   2 115722. 451.132   0 0.88262-0.82303 0.30907-0.03455-0.05381 0.32011
   0   2   3 23315.1 245.932   0 0.91605-0.83619 0.33565-0.01967 0.04829 0.30605
   0  -2  -3 22301.2 209.454   1-0.48998 0.41012 0.38307-0.69905-0.56968 0.21534
   0  -2  -4 18847.0 223.907   1-0.52196 0.42183 0.40164-0.75908-0.53695 0.09457
   0   2   4 18341.7 250.940   0 0.93476-0.83463 0.35348 0.00396 0.12610 0.31627
   0  -2  -5 4129.38 127.882   1-0.52955 0.40914 0.40600-0.80490-0.52874-0.00167
   0   2   5 4162.85 146.687   0 0.94598-0.82557 0.36698 0.03193 0.19229 0.33813
   0   2   6 9656.55 234.956   0 0.95226-0.81158 0.37779 0.06258 0.25206 0.36639
   0   2   7 9703.73 252.640   0 0.95468-0.79372 0.38666 0.09517 0.30793 0.39856
   0  -3   7 12169.2 222.679   2 0.93148-0.81812 0.44454-0.44170 0.44710 0.03380
   0  -3   6 837.070 99.7633   2 0.93201-0.83893 0.44279-0.48141 0.44785-0.05499
   0  -3   5 1480.37 100.841   3 0.18377-0.11096 0.91985-0.99993 0.77912-0.47430
   0  -3   5 2977.08 113.243   2 0.93722-0.86441 0.42429-0.50437 0.45558-0.15075
   0  -3   4 2626.94 100.252   3 0.13791-0.08538 0.85598-0.97752 0.85658-0.63979
   0  -3   4 2788.47 97.5768   2 0.94618-0.89365 0.38362-0.50516 0.47107-0.25428
   0  -3   3 94309.8 454.487   2 0.95434-0.92208 0.31292-0.47593 0.49358-0.36482
   0  -3   3 90603.9 438.084   3 0.06152-0.02926 0.71954-0.88255 0.93604-0.80729
   0  -3   2 11812.6 212.752   3-0.04634 0.05833 0.47416-0.67863 0.96118-0.92046
   0  -3   2 11037.4 157.186   2 0.95061-0.93862 0.20310-0.40757 0.51874-0.47802
   0  -3   1 8634.01 186.805   3-0.15846 0.15017 0.15359-0.39952 0.87916-0.92647
   0  -3   1 8210.08 138.253   2 0.91569-0.92397 0.04860-0.29453 0.53643-0.58375
   0  -3   0 123998. 531.489   3-0.24179 0.21323-0.14370-0.14370 0.72077-0.85612
   0   3   0 41065.9 185.377   0 0.60206-0.57350 0.14370 0.14370-0.50834 0.64369
   0  -3  -1 8156.91 169.224   3-0.29178 0.24295-0.36739 0.03854 0.55087-0.77426
   0  -3  -1 8104.21 105.761   1 0.03156-0.08039 0.05561-0.38447-0.83002 0.60663
   0   3   2 80.9289 39.3741   0 0.88449-0.81538 0.31046 0.05986-0.04881 0.36023
   0  -3  -2 134.108 41.0181   1-0.18121 0.11210 0.19375-0.56406-0.77418 0.46276
   0  -3  -3 5425.79 108.886   1-0.29968 0.21030 0.26818-0.67996-0.71560 0.31614
   0   3   3 7597.13 152.731   0 0.91827-0.82889 0.33760 0.07417 0.05640 0.34306
   0   3   4 302.418 96.0916   0 0.93712-0.82747 0.35605 0.09719 0.13812 0.34938
   0   3   5 14810.2 267.162   0 0.94796-0.81803 0.36990 0.12480 0.20775 0.36778
   0   3   6 115.871 99.3925   0 0.95343-0.80323 0.38084 0.15532 0.27043 0.39313
   0  -4  12 3018.63 232.711   3 0.19513 0.01008 0.93310-0.81875 0.75569 0.12026
   0  -4  11 313.120 120.004   3 0.19779-0.01285 0.93603-0.86315 0.74993 0.03800
   0  -4  10 1283.63 133.778   3 0.19756-0.03290 0.93579-0.90436 0.75042-0.05054
   0  -4   9 3928.37 192.424   3 0.19366-0.04927 0.93145-0.94148 0.75883-0.14698
   0  -4   8 1153.47 119.307   2 0.94870-0.82459 0.36842-0.41992 0.47637 0.04745
   0  -4   8 647.111 92.4041   3 0.18480-0.06069 0.92110-0.97259 0.77707-0.25326
   0  -4   7 1452.97 118.434   3 0.16895-0.06511 0.90093-0.99389 0.80700-0.37122
   0  -4   7 3280.97 138.144   2 0.94862-0.84478 0.36893-0.46189 0.47619-0.04041
   0  -4   6 8954.13 226.298   3 0.14298-0.05941 0.86377-0.99819 0.84925-0.50150
   0  -4   6 13511.7 240.942   2 0.95048-0.86692 0.35564-0.49006 0.48062-0.13288
   0  -4   5 23108.7 289.031   2 0.95352-0.89023 0.32566-0.50155 0.48991-0.23020
   0  -4   5 22506.9 295.853   3 0.10257-0.03928 0.79707-0.97295 0.90028-0.64057
   0  -4   4 36979.4 340.851   3 0.04353-0.00052 0.68272-0.90007 0.94701-0.77534
   0  -4   4 64704.4 443.089   2 0.95519-0.91217 0.27515-0.49250 0.50350-0.33183
   0  -4   3 20101.3 249.415   2 0.95020-0.92746 0.19972-0.45853 0.51934-0.43571
   0  -4   3 19648.5 253.201   3-0.03382 0.05656 0.50567-0.76447 0.96324-0.87960
   0  -4   2 39345.0 328.146   2 0.92984-0.92737 0.09583-0.39610 0.53310-0.53750
   0  -4   2 37779.2 325.276   3-0.11914 0.12161 0.27448-0.57474 0.92190-0.92629
   0  -4   1 8252.90 175.758   3-0.19579 0.17799 0.02850-0.37023 0.82156-0.91399
   0   4  -1 745.689 26.1565   0 0.25149-0.23368-0.02302 0.36475-0.79771 0.89015
   0  -4   0 25377.7 301.184   3-0.25346 0.21538-0.19160-0.19159 0.68825-0.86872
   0  -4   0 23646.6 195.280   1 0.39247-0.43055-0.19159-0.19160-0.78182 0.60136
   0   4   1 8924.32 125.865   0 0.83917-0.78082 0.27894 0.14571-0.15572 0.42422
   0  -4  -1 9634.99 133.109   1 0.19170-0.25005-0.05193-0.37272-0.83240 0.56390
   0  -4  -1 9799.57 221.980   3-0.29216 0.23381-0.36934-0.05531 0.54918-0.81769
   0   4   2 19480.8 216.689   0 0.89757-0.81894 0.32042 0.14569-0.01187 0.36841
   0   4   3 2946.36 108.646   0 0.92668-0.82778 0.34534 0.16223 0.08945 0.35513
   0  -5  13 2404.63 320.226   3 0.16161 0.05435 0.89093-0.83091 0.81976 0.09912
   0  -5  12 1315.52 196.160   3 0.16358 0.03211 0.89365-0.87510 0.81640 0.01444
   0  -5  11 2042.44 220.140   3 0.16246 0.01296 0.89210-0.91501 0.81832-0.07552
   0  -5  10 5647.31 242.813   3 0.15755-0.00241 0.88522-0.94959 0.82653-0.17176
   0  -5   9 4005.38 181.590   2 0.95488-0.82001 0.30047-0.40631 0.49700 0.06973
   0  -5   9 1157.32 130.842   3 0.14783-0.01296 0.87107-0.97691 0.84195-0.27522
   0  -5   8 26810.5 383.106   2 0.95475-0.84016 0.30385-0.45115 0.49609-0.01739
   0  -5   8 25721.7 417.036   3 0.13181-0.01722 0.84636-0.99365 0.86505-0.38635
   0  -5   7 4823.46 182.159   3 0.10749-0.01317 0.80572-0.99448 0.89495-0.50428
   0  -5   7 5065.63 171.152   2 0.95502-0.86070 0.29546-0.48422 0.49834-0.10768
   0  -5   6 3644.10 145.930   2 0.95517-0.88113 0.27367-0.50389 0.50387-0.20124
   0  -5   6 2984.06 162.395   3 0.07257 0.00148 0.74130-0.97152 0.92792-0.62529
   0  -5   5 39290.8 416.506   3 0.02521 0.02856 0.64350-0.91518 0.95535-0.74076
   0  -5   5 40763.4 406.952   2 0.95370-0.89993 0.23635-0.50803 0.51230-0.29770
   0  -5   4 17627.2 268.995   2 0.94766-0.91416 0.18103-0.49417 0.52249-0.39593
   0  -5   4 17287.5 273.291   3-0.03407 0.06757 0.50504-0.81818 0.96321-0.83665
   0  -5   3 131126. 676.798   2 0.93237-0.91915 0.10552-0.46013 0.53220-0.49367
   0  -5   3 131287. 674.686   3-0.10047 0.11369 0.32852-0.68312 0.93662-0.89810
   0  -5   2 5174.86 186.471   3-0.16553 0.15848 0.13073-0.52680 0.86963-0.91914
   0   5  -2 349.600 20.4458   0-0.06050 0.06755-0.15377 0.54984-0.93230 0.98182
   0  -5   1 13788.3 248.945   3-0.22143 0.19410-0.06456-0.37296 0.77018-0.90774
   0  -5   0 6688.43 198.445   3-0.26462 0.21703-0.23950-0.23949 0.65369-0.87928
   0  -5   0 6826.16 126.256   1 0.45920-0.50680-0.23949-0.23949-0.74865 0.52307
   0  -5  -1 186.222 93.4455   3-0.29560 0.22773-0.38711-0.13334 0.53356-0.84718
   0  -6  12 212.888 145.188   3 0.12759 0.05858 0.83957-0.91681 0.87067-0.08495
   0  -6  11 4429.39 242.121   3 0.12239 0.04350 0.83105-0.94976 0.87734-0.17965
   0  -6  10 5911.88 249.498   3 0.11270 0.03292 0.81472-0.97489 0.88904-0.27939
   0  -6   9 41.2760 63.9487   3 0.09748 0.02787 0.78795-0.98958 0.90556-0.38395
   0  -6   9 31.0027 52.8694   2 0.95416-0.82881 0.24370-0.44533 0.51074 0.01088
   0  -6   8 3928.19 209.631   3 0.07548 0.02959 0.74695-0.99004 0.92559-0.49201
   0  -6   8 6120.41 208.638   2 0.95391-0.84884 0.23968-0.48277 0.51160-0.07801
   0  -6   7 2680.85 170.257   3 0.04544 0.03936 0.68671-0.97126 0.94598-0.60043
   0  -6   7 2751.40 153.298   2 0.95277-0.86797 0.22435-0.50891 0.51473-0.16919
   0  -6   6 1637.77 138.647   2 0.94979-0.88527 0.19646-0.52247 0.51991-0.26240
   0  -6   6 1700.14 133.590   3 0.00653 0.05799 0.60178-0.92780 0.96097-0.70346
   0  -6   5 17581.4 309.005   3-0.04077 0.08502 0.48828-0.85575 0.96226-0.79278
   0  -6   5 17529.3 311.655   2 0.94320-0.89895 0.15452-0.52200 0.52644-0.35696
   0  -6   4 16797.4 290.400   2 0.93018-0.90621 0.09712-0.50605 0.53299-0.45155
   0  -6   4 17160.5 301.461   3-0.09388 0.11785 0.34710-0.75604 0.94102-0.85958
   0  -6   3 10567.8 242.861   3-0.14819 0.15189 0.18616-0.63656 0.89196-0.89855
   0  -6   3 10555.4 238.260   2 0.90687-0.90317 0.02328-0.47368 0.53748-0.54408
   0  -6   2 26487.9 374.904   3-0.19858 0.18201 0.01867-0.51053 0.81647-0.91111
   0  -6   1 4091.27 194.045   3-0.24140 0.20456-0.14212-0.39120 0.72181-0.90448
   0  -6   0 768.621 103.009   3-0.27526 0.21814-0.28739-0.28739 0.61704-0.88774
   0  -6  -1 2756.31 160.122   3-0.30058 0.22318-0.41365-0.20260 0.50960-0.86834
   0  -7  12 177.351 175.831   3 0.08817 0.08848 0.77093-0.94397 0.91458-0.17398
   0  -7  11 3830.21 232.526   3 0.07911 0.07727 0.75388-0.96839 0.92260-0.27002
   0  -7  10 54.7001 82.2016   3 0.06522 0.07088 0.72690-0.98286 0.93344-0.36891
   0  -7  10 8.67530 54.3904   2 0.94842-0.81232 0.18627-0.44223 0.52164 0.04290
   0  -7   9 141.948 122.349   3 0.04573 0.07010 0.68731-0.98474 0.94582-0.46932
   0  -7   9 183.906 120.845   2 0.94840-0.83258 0.18615-0.48357 0.52166-0.04516
   0  -7   8 19.8966 74.1811   2 0.94691-0.85136 0.17613-0.51502 0.52326-0.13480
   0  -7   8 19.1058 61.5372   3 0.01994 0.07562 0.63190-0.97079 0.95723-0.56877
   0  -7   7 12318.0 299.713   2 0.94337-0.86809 0.15545-0.53580 0.52631-0.22588
   0  -7   7 6332.88 231.411   3-0.01252 0.08780 0.55742-0.93777 0.96372-0.66330
   0  -7   6 34.0116 83.1626   3-0.05123 0.10624 0.46164-0.88345 0.96002-0.74762
   0  -7   6 45.2372 50.5701   2 0.93666-0.88165 0.12319-0.54500 0.53035-0.31795
   0  -7   5 12748.1 294.452   3-0.09466 0.12939 0.34492-0.80819 0.94052-0.81616
   0  -7   5 12630.3 286.850   2 0.92497-0.89024 0.07843-0.54170 0.53454-0.41018
   0  -7   4 28149.1 402.770   2 0.90581-0.89135 0.02039-0.52512 0.53757-0.50125
   0  -7   4 28075.3 399.761   3-0.14008 0.15454 0.21135-0.71608 0.90122-0.86489
   0  -7   3 23701.9 366.852   3-0.18422 0.17841 0.06847-0.61467 0.84140-0.89311
   0  -7   2 23.2726 50.4914   3-0.22416 0.19807-0.07487-0.51279 0.76405-0.90380
   0  -7   1 22585.3 407.690   3-0.25806 0.21170-0.21107-0.41805 0.67445-0.90224
   0  -7   0 11678.4 299.868   3-0.28534 0.21871-0.33529-0.33529 0.57819-0.89401
   0  -8  11 335.829 153.298   2 0.93824-0.79138 0.13019-0.44049 0.52954 0.07791
   0  -8  11 89.8267 124.743   3 0.03440 0.11245 0.66339-0.97370 0.95152-0.34407
   0  -8  10 613.924 178.627   2 0.93899-0.81240 0.13362-0.48538 0.52914-0.00972
   0  -8  10 508.626 137.285   3 0.01742 0.10916 0.62631-0.97808 0.95805-0.43863
   0  -8   9 587.995 165.853   3-0.00466 0.11097 0.57594-0.96917 0.96295-0.53157
   0  -8   9 683.424 163.029   2 0.93777-0.83147 0.12811-0.52134 0.52979-0.09840
   0  -8   8 197.942 138.526   3-0.03197 0.11800 0.51026-0.94495 0.96343-0.62008
   0  -8   8 175.498 114.566   2 0.93430-0.84827 0.11325-0.54794 0.53142-0.18807
   0  -8   7 7225.16 254.408   3-0.06415 0.12991 0.42796-0.90411 0.95595-0.70064
   0  -8   7 7186.91 249.682   2 0.92783-0.86207 0.08846-0.56461 0.53374-0.27843
   0  -8   6 2444.44 163.489   2 0.91717-0.87168 0.05311-0.57072 0.53619-0.36891
   0  -8   6 2763.58 202.980   3-0.10022 0.14571 0.32922-0.84683 0.93679-0.76952
   0  -8   5 22722.4 398.512   3-0.13846 0.16367 0.21635-0.77542 0.90299-0.82375
   0  -8   4 22037.7 390.017   3-0.17671 0.18165 0.09383-0.69437 0.85329-0.86209
   0  -8   3 21777.0 414.344   3-0.21281 0.19747-0.03252-0.60948 0.78869-0.88552
   0  -8   2 11082.3 298.614   3-0.24506 0.20945-0.15692-0.52654 0.71200-0.89686
   0  -8   1 44.6773 63.4863   3-0.27251 0.21663-0.27477-0.45015 0.62691-0.89981
   0  -8   0 51637.6 652.993   3-0.29485 0.21869-0.38319-0.38319 0.53703-0.89797
   0  -9  11 711.188 189.286   3-0.01001 0.14734 0.56338-0.96948 0.96353-0.40120
   0  -9  11 298.480 127.453   2 0.92580-0.78847 0.08129-0.48739 0.53432 0.02802
   0  -9  10 105.585 94.3873   2 0.92536-0.80830 0.07977-0.52733 0.53443-0.06013
   0  -9  10 151.089 106.538   3-0.02879 0.14586 0.51808-0.96564 0.96369-0.48939
   0  -9   9 6616.94 278.180   3-0.05183 0.14862 0.46009-0.94912 0.95986-0.57359
   0  -9   9 11880.0 342.576   2 0.92241-0.82562 0.06980-0.55882 0.53516-0.14889
   0  -9   8 5424.14 247.969   3-0.07884 0.15535 0.38862-0.91910 0.94957-0.65134
   0  -9   8 5384.09 242.173   2 0.91649-0.83998 0.05104-0.58152 0.53630-0.23807
   0  -9   7 3535.96 212.857   3-0.10909 0.16533 0.30380-0.87575 0.93024-0.72004
   0  -9   7 3219.22 274.782   2 0.90680-0.85056 0.02308-0.59503 0.53749-0.32729
   0  -9   6 9763.13 294.712   3-0.14147 0.17744 0.20707-0.82047 0.89968-0.77752
   0  -9   5 20517.8 415.378   3-0.17449 0.19019 0.10121-0.75608 0.85665-0.82253
   0  -9   4 3258.17 212.263   3-0.20659 0.20201-0.00990-0.68643 0.80124-0.85515
   0  -9   3 11882.1 338.601   3-0.23636 0.21150-0.12206-0.61573 0.73481-0.87676
   0  -9   2 12978.7 385.217   3-0.26278 0.21765-0.23143-0.54782 0.65966-0.88964
   0  -9   1 3288.34 214.016   3-0.28530 0.21989-0.33506-0.48565 0.57838-0.89640
   0 -10  11 1141.93 267.766   2 0.90954-0.78173 0.03070-0.53259 0.53723-0.02001
   0 -10  10 1239.47 272.662   2 0.90750-0.79996 0.02500-0.56836 0.53743-0.10824
   0 -10  10 1722.62 225.187   3-0.07217 0.17971 0.40662-0.94998 0.95270-0.52352
   0 -10   9 912.902 184.767   3-0.09488 0.18215 0.34427-0.92909 0.94037-0.59923
   0 -10   8 892.547 148.854   3-0.12040 0.18739 0.27076-0.89704 0.92078-0.66767
   0 -10   7 4771.84 237.477   3-0.14791 0.19463 0.18702-0.85477 0.89228-0.72721
   0 -10   6 904.612 183.578   3-0.17638 0.20283 0.09493-0.80413 0.85380-0.77675
   0 -10   5 384.622 146.977   3-0.20465 0.21082-0.00291-0.74776 0.80503-0.81602
   0 -10   4 7422.97 295.551   3-0.23160 0.21750-0.10343-0.68870 0.74658-0.84561
   0 -10   3 881.699 184.928   3-0.25631 0.22193-0.20360-0.62999 0.67979-0.86685
   0 -10   2 1441.31 236.661   3-0.27814 0.22349-0.30079-0.57426 0.60640-0.88150
   0 -10   1 67.2004 116.331   3-0.29673 0.22180-0.39302-0.52349 0.52829-0.89142
   0 -11   9 813.011 173.087   3-0.13360 0.21135 0.23120-0.91182 0.90811-0.61208
   0 -11   8 42.9217 90.3608   3-0.15698 0.21446 0.15832-0.88040 0.88107-0.67308
   0 -11   7 687.753 213.691   3-0.18147 0.21867 0.07780-0.84134 0.84584-0.72588
   0 -11   6 281.320 142.360   3-0.20620 0.22313-0.00849-0.79651 0.80201-0.77008
   0 -11   5 93.5608 90.9290   3-0.23028 0.22693-0.09833-0.74814 0.74975-0.80586
   0 -11   4 8831.28 363.371   3-0.25293 0.22931-0.18936-0.69856 0.68981-0.83396
   0 -11   3 3202.57 321.309   3-0.27352 0.22962-0.27937-0.65002 0.62333-0.85551
   0 -11   2 2556.79 285.189   3-0.29161 0.22744-0.36650-0.60435 0.55165-0.87186
   0 -12   7 33.0518 143.925   3-0.21062 0.23830-0.02453-0.83480 0.79317-0.71833
   1 -11   2 25.2655 71.7402   3-0.29808 0.33947-0.40020-0.56016 0.52184-0.81775
   1 -11   3 298.877 153.463   3-0.28129 0.34295-0.31570-0.60320 0.59435-0.80222
   1 -11   4 1466.30 191.006   3-0.26192 0.34386-0.22768-0.64976 0.66241-0.78225
   1 -11   5 1840.80 209.202   3-0.24034 0.34255-0.13786-0.69811 0.72460-0.75640
   1 -10   2 4139.53 288.665   3-0.28582 0.33673-0.33762-0.52694 0.57624-0.82703
   1 -10   3 813.911 223.055   3-0.26536 0.33654-0.24272-0.58038 0.65129-0.81405
   1 -10   4 18132.8 418.314   3-0.24183 0.33329-0.14386-0.63778 0.72066-0.79539
   1 -10   5 2070.80 192.490   3-0.21581 0.32754-0.04358-0.69660 0.78240-0.76909
   1 -10   6 5274.00 254.618   3-0.18815 0.32015 0.05504-0.75375 0.83488-0.73353
   1 -10   7 1681.77 212.356   2 0.91550-0.76322 0.04804-0.70530 0.53646-0.34707
   1 -10   8 10075.2 333.736   2 0.92414-0.75159 0.07559-0.69138 0.53475-0.25733
   1 -10   9 5352.63 280.608   2 0.92949-0.73666 0.09451-0.66884 0.53322-0.16776
   1 -10  10 68.4660 165.615   2 0.93231-0.71921 0.10528-0.63815 0.53222-0.07873
   1  -9   1 83.1713 104.273   3-0.29281 0.33296-0.37264-0.43758 0.54630-0.84001
   1  -9   2 85.1319 91.6350   3-0.27187 0.33230-0.27189-0.49688 0.62914-0.83482
   1  -9   3 6016.36 256.186   3-0.24685 0.32755-0.16419-0.56311 0.70710-0.82474
   1  -9   4 21.8722 68.1301   3-0.21814 0.31912-0.05225-0.63360 0.77740-0.80700
   1  -9   5 463.362 146.207   2 0.91325-0.79200 0.04133-0.68571 0.53679-0.47835
   1  -9   5 622.283 149.633   3-0.18666 0.30791 0.06013-0.70451 0.83737-0.77894
   1  -9   6 13328.4 343.349   2 0.92704-0.78552 0.08565-0.68856 0.53397-0.38750
   1  -9   6 14651.6 341.046   3-0.15380 0.29533 0.16845-0.77136 0.88511-0.73864
   1  -9   7 85.6370 83.0954   2 0.93580-0.77400 0.11949-0.68095 0.53076-0.29625
   1  -9   7 77.9547 73.4532   3-0.12122 0.28302 0.26833-0.82979 0.92004-0.68554
   1  -9   8 2571.31 220.464   2 0.94107-0.75899 0.14356-0.66355 0.52790-0.20536
   1  -9   9 447.606 186.995   2 0.94394-0.74159 0.15853-0.63706 0.52588-0.11530
   1  -9  10 2118.03 247.424   2 0.94508-0.72246 0.16500-0.60207 0.52495-0.02634
   1  -9  11 3215.89 304.118   2 0.94481-0.70191 0.16342-0.55903 0.52518 0.06147
   1  -8   0 5428.10 238.394   3-0.30202 0.33143-0.42157-0.33432 0.50229-0.83892
   1  -8   1 449.899 139.280   3-0.28156 0.33123-0.31698-0.39745 0.59331-0.84190
   1  -8   2 919.516 129.021   3-0.25583 0.32578-0.20159-0.47138 0.68121-0.84177
   1  -8   3 2833.14 188.702   3-0.22491 0.31513-0.07774-0.55376 0.76233-0.83485
   1  -8   4 5576.54 215.649   3-0.18955 0.30004 0.05022-0.64027 0.83251-0.81699
   1  -8   4 6681.99 229.482   2 0.92147-0.81098 0.06672-0.65676 0.53537-0.51985
   1  -8   5 9768.40 287.676   3-0.15134 0.28211 0.17624-0.72483 0.88816-0.78461
   1  -8   5 9085.99 285.404   2 0.93607-0.80530 0.12067-0.66925 0.53063-0.42708
   1  -8   6 560.674 143.645   3-0.11256 0.26360 0.29376-0.80088 0.92747-0.73589
   1  -8   6 963.397 147.779   2 0.94459-0.79355 0.16221-0.66933 0.52535-0.33377
   1  -8   7 37.4599 82.9869   2 0.94926-0.77794 0.19233-0.65799 0.52062-0.24100
   1  -8   7 66.5277 62.3630   3-0.07562 0.24693 0.39734-0.86300 0.95113-0.67151
   1  -8   8 7537.13 252.162   3-0.04249 0.23408 0.48393-0.90813 0.96195-0.59430
   1  -8   8 12531.3 336.679   2 0.95160-0.76001 0.21205-0.63625 0.51710-0.14945
   1  -8   9 24358.7 452.179   2 0.95259-0.74072 0.22227-0.60501 0.51515-0.05945
   1  -8  10 4801.70 233.978   2 0.95272-0.72058 0.22373-0.56501 0.51486 0.02887
   1  -8  11 81.3732 95.9644   2 0.95209-0.69968 0.21694-0.51676 0.51618 0.11558
   1  -7   0 26044.0 433.800   3-0.29412 0.33304-0.37941-0.28068 0.54037-0.83188
   1  -7   1 4759.03 216.541   3-0.26904 0.32823-0.25908-0.35955 0.63896-0.84244
   1  -7   2 23928.7 378.894   3-0.23696 0.31643-0.12445-0.45272 0.73328-0.84872
   1  -7   3 139.756 86.4770   2 0.92712-0.82738 0.08593-0.62164 0.53395-0.56135
   1  -7   3 1.48652 28.9013   3-0.19808 0.29783 0.02044-0.55615 0.81739-0.84480
   1  -7   4 3232.08 153.234   2 0.94282-0.82280 0.15252-0.64676 0.52671-0.46608
   1  -7   4 3416.52 159.639   3-0.15395 0.27397 0.16798-0.66223 0.88493-0.82430
   1  -7   5 416.091 102.383   2 0.95069-0.81040 0.20384-0.65663 0.51861-0.36994
   1  -7   5 422.637 116.376   3-0.10755 0.24784 0.30824-0.76103 0.93143-0.78276
   1  -7   6 2339.80 142.135   2 0.95402-0.79345 0.24135-0.65268 0.51124-0.27454
   1  -7   6 2351.33 151.176   3-0.06260 0.22316 0.43207-0.84339 0.95652-0.71982
   1  -7   7 22551.9 403.031   2 0.95506-0.77422 0.26657-0.63643 0.50557-0.18083
   1  -7   7 23442.0 384.642   3-0.02228 0.20312 0.53398-0.90384 0.96397-0.63923
   1  -7   8 10726.4 278.821   3 0.01149 0.18963 0.61302-0.94142 0.95976-0.54699
   1  -7   8 24288.2 419.042   2 0.95521-0.75409 0.28089-0.60929 0.50209-0.08931
   1  -7   9 709.554 149.881   3 0.03817 0.18322 0.67141-0.95835 0.94975-0.44894
   1  -7   9 836.671 157.458   2 0.95518-0.73380 0.28547-0.57241 0.50093-0.00012
   1  -7  10 6090.52 238.748   2 0.95520-0.71355 0.28115-0.52662 0.50202 0.08682
   1  -6   0 14167.0 225.455   1 0.41801-0.36957-0.20983-0.35447-0.77026 0.52387
   1  -6   0 13760.2 300.595   3-0.28613 0.33457-0.33914-0.22515 0.57497-0.82136
   1  -6   1 11845.3 257.826   3-0.25490 0.32362-0.19765-0.32519 0.68400-0.84236
   1  -6   1 12203.2 214.669   1 0.50518-0.43647-0.27305-0.24978-0.71968 0.56132
   1  -6   2 8034.89 215.875   3-0.21388 0.30286-0.03645-0.44492 0.78647-0.85679
   1  -6   2 8527.49 208.617   2 0.92988-0.84089 0.09598-0.57736 0.53309-0.60341
   1  -6   3 7354.40 195.813   3-0.16372 0.27299 0.13660-0.57651 0.87212-0.85440
   1  -6   3 13438.9 260.436   2 0.94752-0.83826 0.18010-0.62001 0.52264-0.50493
   1  -6   4 72.8724 78.4497   3-0.10794 0.23748 0.30712-0.70557 0.93113-0.82538
   1  -6   4 147.346 78.3320   2 0.95420-0.82467 0.24452-0.64297 0.51056-0.40481
   1  -6   5 6018.92 192.110   2 0.95511-0.80530 0.29140-0.64839 0.49940-0.30562
   1  -6   5 2735.27 126.773   3-0.05229 0.20210 0.45893-0.81591 0.95974-0.76595
   1  -6   6 5340.40 202.296   2 0.95370-0.78362 0.32316-0.63869 0.49064-0.20882
   1  -6   6 3928.74 160.854   3-0.00235 0.17243 0.58133-0.89685 0.96263-0.68081
   1  -6   7 5403.27 204.036   2 0.95206-0.76170 0.34201-0.61608 0.48496-0.11511
   1  -6   7 5120.00 191.575   3 0.03860 0.15176 0.67234-0.94640 0.94953-0.57968
   1  -6   8 41907.6 499.019   3 0.06992 0.14071 0.73615-0.96875 0.92996-0.47207
   1  -6   8 46916.7 538.504   2 0.95121-0.74057 0.34975-0.58235 0.48252-0.02463
   1  -6   9 1551.91 133.579   2 0.95144-0.72053 0.34772-0.53886 0.48317 0.06276
   1  -6   9 1419.82 156.285   3 0.09254 0.13837 0.77897-0.97011 0.91045-0.36453
   1  -6  10 20468.0 395.624   2 0.95258-0.70140 0.33679-0.48647 0.48657 0.14739
   1  -5  -1 49772.8 376.221   1 0.23543-0.19775-0.08186-0.42810-0.82685 0.53754
   1  -5   0 24516.1 334.800   3-0.27839 0.33635-0.30198-0.16651 0.60544-0.80672
   1  -5   0 24546.8 265.077   1 0.35212-0.29416-0.16304-0.30546-0.79747 0.59620
   1  -5   1 1490.11 88.8138   2 0.92852-0.85028 0.09095-0.51799 0.53353-0.64677
   1  -5   1 1556.12 109.294   3-0.23841 0.31664-0.13018-0.29686 0.72959-0.84284
   1  -5   1 1501.14 86.3787   1 0.46741-0.38917-0.24545-0.18159-0.74388 0.63064
   1  -5   2 18919.2 262.899   3-0.18375 0.28226 0.07007-0.45564 0.84217-0.86737
   1  -5   2 32033.5 334.049   2 0.95038-0.85188 0.20124-0.58682 0.51907-0.54428
   1  -5   3 7.61927 32.2921   3-0.11686 0.23564 0.28120-0.62531 0.92388-0.86105
   1  -5   3 36.5195 50.6341   2 0.95519-0.83641 0.28439-0.62851 0.50120-0.43837
   1  -5   4 5281.45 174.405   3-0.04627 0.18532 0.47435-0.77700 0.96120-0.81033
   1  -5   4 5359.94 170.781   2 0.95187-0.81282 0.34379-0.64644 0.48440-0.33354
   1  -5   5 92.3494 66.8984   2 0.94620-0.78687 0.38353-0.64472 0.47110-0.23220
   1  -5   5 103.746 83.2413   3 0.01743 0.14190 0.62634-0.88753 0.95805-0.71914
   1  -5   6 7082.12 206.058   2 0.94137-0.76176 0.40732-0.62705 0.46228-0.13535
   1  -5   6 4090.24 164.204   3 0.06792 0.11168 0.73224-0.95196 0.93146-0.60453
   1  -5   7 532.507 106.417   3 0.10453 0.09535 0.80052-0.97878 0.89819-0.48322
   1  -5   7 1429.00 113.407   2 0.93880-0.73892 0.41811-0.59638 0.45806-0.04309
   1  -5   8 57718.4 566.984   2 0.93883-0.71868 0.41801-0.55482 0.45810 0.04491
   1  -5   8 36441.2 451.870   3 0.12947 0.09068 0.84261-0.97942 0.86818-0.36517
   1  -5   9 3062.44 177.634   3 0.14551 0.09491 0.86761-0.96295 0.84547-0.25443
   1  -5   9 3013.92 188.327   2 0.94112-0.70070 0.40840-0.50374 0.46187 0.12918
   1  -5  10 2717.45 204.835   3 0.15491 0.10579 0.88144-0.93532 0.83083-0.15175
   1  -4  -3 2923.04 114.696   1-0.09081 0.09747 0.13573-0.63281-0.80529 0.38502
   1  -4  -2 12658.1 194.194   1 0.00494 0.02199 0.07319-0.52881-0.82631 0.49408
   1  -4  -1 8402.90 151.992   1 0.13394-0.08673-0.01278-0.40138-0.83555 0.59136
   1  -4   0 34078.4 289.260   2 0.91855-0.85107 0.05739-0.43009 0.53595-0.69211
   1  -4   0 33415.1 280.625   1 0.28607-0.21859-0.11684-0.25586-0.81682 0.66066
   1  -4   1 8333.29 148.140   1 0.43774-0.34998-0.22399-0.10725-0.76039 0.69226
   1  -4   1 8696.59 161.306   2 0.95150-0.86374 0.21107-0.54231 0.51729-0.58541
   1  -4   1 8405.46 177.749   3-0.21784 0.30560-0.05114-0.28010 0.77804-0.84617
   1  -4   2 52013.6 357.544   3-0.14016 0.24819 0.21110-0.50088 0.90113-0.88122
   1  -4   2 53749.6 391.724   2 0.95366-0.84563 0.32373-0.61351 0.49048-0.47056
   1  -4   3 39.7891 50.9764   2 0.94277-0.81447 0.40097-0.64928 0.46471-0.35676
   1  -4   3 80.7309 56.7736   3-0.04798 0.17628 0.46998-0.71829 0.96081-0.85287
   1  -4   4 4496.57 134.361   3 0.03727 0.11130 0.66951-0.87637 0.95018-0.75420
   1  -4   4 6494.31 162.281   2 0.92959-0.78102 0.45058-0.65744 0.44446-0.24848
   1  -4   5 59909.5 434.557   3 0.10120 0.06765 0.79463-0.96002 0.90173-0.61771
   1  -4   5 61817.7 433.701   0 0.95430-0.78545 0.39208-0.55747 0.34672-0.06270
   1  -4   5 62821.5 480.546   2 0.91940-0.75055 0.47947-0.64487 0.43117-0.14715
   1  -4   6 4869.54 156.680   0 0.95440-0.76528 0.39162-0.51555 0.34325 0.02881
   1  -4   6 4946.15 157.895   2 0.91404-0.72492 0.49273-0.61666 0.42466-0.05261
   1  -4   7 2707.06 134.714   2 0.91361-0.70421 0.49375-0.57622 0.42415 0.03594
   1  -4   7 1103.99 102.420   3 0.16981 0.03958 0.90208-0.98455 0.80545-0.34536
   1  -4   8 7785.23 233.514   3 0.18527 0.04440 0.92167-0.96268 0.77613-0.22800
   1  -4   8 14650.4 293.643   2 0.91735-0.68768 0.48468-0.52568 0.42864 0.11948
   1  -4   9 422.213 120.665   2 0.92416-0.67421 0.46668-0.46623 0.43720 0.19896
   1  -4   9 327.654 92.7949   3 0.19347 0.05647 0.93124-0.93079 0.75922-0.12306
   1  -4  10 5220.83 217.507   3 0.19662 0.07360 0.93476-0.89284 0.75247-0.02827
   1  -4  11 2298.88 228.761   3 0.19605 0.09445 0.93412-0.85074 0.75371 0.05852
   1  -3  -5 47799.2 424.807   1-0.32986 0.30549 0.28682-0.77103-0.69712 0.14591
   1  -3  -4 16383.0 237.494   1-0.29626 0.29216 0.26606-0.70881-0.71759 0.25441
   1  -3  -3 33225.7 305.868   1-0.23454 0.25072 0.22749-0.62878-0.75044 0.37529
   1  -3  -2 5600.36 122.566   1-0.13216 0.16862 0.16239-0.52222-0.79245 0.50533
   1  -3  -1 12805.8 165.338   1 0.02206 0.03466 0.06189-0.38026-0.82880 0.62972
   1  -3   0 84265.2 396.522   1 0.22049-0.14349-0.07161-0.20530-0.82906 0.71802
   1  -3   0 84925.2 386.904   2 0.94977-0.87277 0.19625-0.47316 0.51995-0.63099
   1  -3   1 149155. 505.960   3-0.18833 0.28560 0.05442-0.28986 0.83458-0.85758
   1  -3   1 147038. 529.368   1 0.42179-0.32451-0.21253-0.02291-0.76844 0.74543
   1  -3   2 248.343 31.3359   0 0.95380-0.83625 0.38203-0.57601 0.27780-0.21278
   1  -3   2 155.084 45.4647   3-0.06628 0.18383 0.42233-0.61631 0.95514-0.89011
   1  -3   2 269.514 60.0914   2 0.92362-0.80607 0.46817-0.66215 0.43651-0.37148
   1  -3   3 883.773 72.8230   2 0.89664-0.75882 0.52967-0.68219 0.40506-0.25199
   1  -3   3 892.834 69.8496   3 0.05769 0.08013 0.71185-0.86437 0.93861-0.78555
   1  -3   3 876.585 49.2611   0 0.94837-0.81055 0.37055-0.52306 0.21123-0.05816
   1  -3   4 2191.54 104.097   2 0.87775-0.71966 0.56256-0.67362 0.38557-0.14447
   1  -3   4 2265.99 84.2375   0 0.94789-0.78980 0.36980-0.48086 0.20723 0.03387
   1  -3   5 28505.5 300.218   3 0.18922-0.01085 0.92635-0.99594 0.76811-0.43898
   1  -3   5 30511.3 326.324   2 0.86871-0.69034 0.57644-0.64603 0.37671-0.04757
   1  -3   5 29457.8 312.102   0 0.94982-0.77145 0.37295-0.44255 0.22440 0.10474
   1  -3   6 3099.48 127.168   2 0.86841-0.66976 0.57688-0.60502 0.37642 0.04075
   1  -3   6 3158.47 138.728   0 0.95220-0.75356 0.37765-0.40579 0.25127 0.16590
   1  -3   7 6092.80 171.008   2 0.87495-0.65603 0.56698-0.55365 0.38279 0.12241
   1  -3   7 6267.70 195.148   0 0.95404-0.73512 0.38292-0.36959 0.28340 0.22181
   1  -3   8 38192.4 431.374   2 0.88636-0.64717 0.54831-0.49352 0.39427 0.19898
   1  -3   8 36026.5 475.030   0 0.95475-0.71556 0.38823-0.33344 0.31869 0.27455
   1  -2  -7 8275.20 204.774   1-0.45668 0.40128 0.36347-0.83480-0.60084-0.08133
   1  -2  -6 516.227 74.6290   1-0.46141 0.42628 0.36627-0.79614-0.59658 0.00245
   1  -2  -5 6197.04 169.261   1-0.45474 0.43989 0.36233-0.75074-0.60256 0.09646
   1  -2  -4 23008.0 265.489   1-0.43111 0.43653 0.34826-0.69521-0.62294 0.20487
   1  -2  -3 22603.7 236.544   1-0.37983 0.40553 0.31737-0.62286-0.66300 0.33297
   1  -2  -2 4849.43 103.015   1-0.28110 0.32707 0.25664-0.52066-0.72622 0.48422
   1  -2  -1 128040. 451.013   1-0.10535 0.17159 0.14512-0.36769-0.80104 0.64708
   1  -2   0 129353. 429.998   1 0.15662-0.07010-0.02810-0.15300-0.83487 0.76894
   1  -2   1 155470. 481.236   1 0.43014-0.32334-0.21852 0.07888-0.76429 0.78640
   1  -2   1 154028. 297.727   0 0.83026-0.72347 0.27313-0.41278-0.17406 0.19617
   1  -2   2 1227.65 70.0963   2 0.82604-0.69897 0.63072-0.72890 0.33769-0.22754
   1  -2   2 1143.38 44.9044   0 0.88567-0.75861 0.31134-0.40952-0.04561 0.15575
   1  -2   3 5238.93 119.428   2 0.79514-0.64780 0.66187-0.71860 0.31146-0.11328
   1  -2   3 5124.75 105.337   0 0.90931-0.76197 0.32990-0.38662 0.02500 0.17318
   1  -2   4 68449.9 428.049   0 0.92491-0.75729 0.34366-0.35892 0.08211 0.20411
   1  -2   4 69141.9 420.941   2 0.78438-0.61676 0.67153-0.68679 0.30263-0.01641
   1  -2   5 11272.6 202.468   0 0.93633-0.74844 0.35518-0.32898 0.13401 0.24024
   1  -2   5 11551.1 194.431   2 0.78821-0.60032 0.66815-0.64195 0.30576 0.06849
   1  -2   6 1132.62 102.069   2 0.80197-0.59381 0.65544-0.58778 0.31715 0.14514
   1  -2   6 1035.73 104.549   0 0.94472-0.73656 0.36525-0.29759 0.18336 0.27893
   1  -2   7 8129.40 232.058   0 0.95050-0.72206 0.37418-0.26506 0.23129 0.31904
   1  -2   7 8785.13 198.574   2 0.82218-0.59374 0.63492-0.52580 0.33433 0.21599
   1  -2   8 33705.3 467.233   0 0.95382-0.70511 0.38211-0.23152 0.27833 0.36003
   1  -2   9 16.5608 64.4851   0 0.95473-0.68574 0.38909-0.19704 0.32479 0.40160
   1  -1  -8 2232.93 181.093   1-0.53571 0.46955 0.40953-0.82653-0.52194-0.20315
   1  -1  -7 120.780 81.8163   1-0.55194 0.50606 0.41878-0.79432-0.50343-0.13363
   1  -1  -6 11280.9 232.171   1-0.56196 0.53636 0.42445-0.75853-0.49153-0.05749
   1  -1  -5 54214.2 435.649   1-0.56368 0.55835 0.42542-0.71804-0.48946 0.02847
   1  -1  -4 5917.27 144.899   1-0.55266 0.56760 0.41919-0.67034-0.50258 0.12963
   1  -1  -3 34437.8 273.140   1-0.51905 0.55427 0.39996-0.60965-0.54005 0.25514
   1  -1  -2 66404.4 330.805   1-0.43912 0.49461 0.35304-0.52127-0.61618 0.41930
   1  -1  -1 13802.7 137.440   1-0.25671 0.33248 0.24141-0.36818-0.73932 0.63048
   1  -1   0 21007.9 102.312   0-0.04850 0.14454-0.14901 0.06370-0.92895 0.90815
   1  -1   1 91529.4 282.661   0 0.64127-0.52495 0.16420-0.20804-0.46303 0.53026
   1  -1   2 45909.4 260.782   0 0.80461-0.66802 0.25690-0.25928-0.22338 0.37864
   1  -1   2 45195.2 264.152   2 0.61130-0.47471 0.77381-0.77619 0.17376-0.01849
   1  -1   3 10008.3 148.511   2 0.61819-0.46133 0.77113-0.73205 0.17854 0.06476
   1  -1   3 9393.94 148.328   0 0.86727-0.71041 0.29802-0.25895-0.09262 0.33592
   1  -1   4 6458.78 132.994   2 0.64257-0.46544 0.76092-0.68038 0.19565 0.13569
   1  -1   4 6137.78 139.877   0 0.90118-0.72405 0.32328-0.24274-0.00093 0.33227
   1  -1   5 130183. 601.695   2 0.67643-0.47902 0.74464-0.62264 0.21992 0.19945
   1  -1   5 129073. 687.198   0 0.92267-0.72526 0.34158-0.21958 0.07315 0.34622
   1  -1   6 14269.3 273.712   0 0.93709-0.71941 0.35601-0.19255 0.13793 0.36948
   1  -1   6 14494.6 228.590   2 0.71536-0.49768 0.72247-0.55901 0.24870 0.25870
   1  -1   7 721.655 113.992   0 0.94663-0.70868 0.36792-0.16300 0.19722 0.39822
   1  -1   8 5119.25 212.943   0 0.95233-0.69410 0.37795-0.13156 0.25301 0.43047
   1  -1   9 1205.46 158.888   0 0.95466-0.67616 0.38644-0.09859 0.30644 0.46507
   1   0 -10 509.381 159.218   1-0.56343 0.46625 0.42528-0.82941-0.48976-0.36629
   1   0  -9 6558.00 255.647   1-0.58912 0.51221 0.43964-0.80231-0.45737-0.31064
   1   0  -8 2051.32 121.117   1-0.61112 0.55449 0.45174-0.77294-0.42734-0.25264
   1   0  -7 4927.69 175.701   1-0.62934 0.59298 0.46159-0.74133-0.40066-0.19128
   1   0  -6 36783.8 388.090   1-0.64330 0.62722 0.46902-0.70730-0.37890-0.12500
   1   0  -5 26208.1 296.744   1-0.65197 0.65616 0.47358-0.67040-0.36478-0.05109
   1   0  -4 90950.0 481.926   1-0.65287 0.67733 0.47405-0.62941-0.36328 0.03545
   1   0  -3 7843.14 127.780   1-0.63976 0.68450 0.46715-0.58104-0.38454 0.14474
   1   0  -2 5246.02 92.3445   1-0.59370 0.65871 0.44218-0.51461-0.45130 0.29954
   1   0   0 277.389 23.4000   0 0.05278 0.05278-0.10795 0.11843-0.89492 0.91923
   1   0   1 10199.6 115.230   0 0.56602-0.44018 0.12527-0.07332-0.54707 0.65941
   1   0   2 24926.9 203.912   2 0.29033-0.14422 0.82251-0.72910-0.03007 0.23045
   1   0   2 23728.8 205.118   0 0.75441-0.60831 0.22679-0.13338-0.30830 0.50868
   1   0   3 119140. 472.904   2 0.38182-0.21544 0.82136-0.68649 0.02485 0.26356
   1   0   3 117276. 529.963   0 0.83828-0.67190 0.27836-0.14348-0.15759 0.44601
   1   0   4 14550.6 193.018   2 0.46503-0.27838 0.81232-0.63598 0.07680 0.29965
   1   0   4 13951.7 215.660   0 0.88445-0.69779 0.31042-0.13409-0.04892 0.42537
   1   0   5 5480.08 158.634   0 0.91316-0.70623 0.33315-0.11535 0.03807 0.42642
   1   0   5 5401.79 136.866   2 0.54230-0.33537 0.79602-0.57823 0.12701 0.33748
   1   0   6 3571.91 149.726   0 0.93196-0.70476 0.35057-0.09131 0.11272 0.43981
   1   0   7 2704.74 141.781   0 0.94419-0.69671 0.36454-0.06382 0.17974 0.46082
   1   0   8 7809.09 245.939   0 0.95144-0.68369 0.37602-0.03384 0.24176 0.48683
   1   0   9 4962.81 231.686   0 0.95455-0.66653 0.38552-0.00188 0.30033 0.51630
   1   1 -11 37.2550 86.1546   1-0.59658 0.48865 0.44377-0.79356-0.44743-0.45154
   1   1 -10 1386.63 159.786   1-0.62421 0.53655 0.45883-0.76716-0.40835-0.40258
   1   1  -9 5532.42 213.961   1-0.64868 0.58130 0.47186-0.73872-0.37019-0.35270
  -1  -1   5 60402.8 289.098   2 0.95067-0.96437 0.35420-0.25318 0.48109-0.11034
   1   1   0 311768. 569.118   0 0.16202-0.04695-0.06199 0.16828-0.84660 0.91602
  -1  -1  -1 49659.7 278.785   3-0.29544 0.16009-0.38627 0.23852 0.53430-0.69177
   1   1   1 49747.0 271.481   0 0.55606-0.42071 0.12024 0.02751-0.55732 0.71478
   1   1   2 4061.65 99.0412   0 0.73536-0.57974 0.21582-0.02660-0.33741 0.58291
   1   1   3 4990.11 123.749   0 0.82529-0.64939 0.26993-0.03926-0.18401 0.51754
   1   1   4 366.705 52.5333   0 0.87693-0.68076 0.30492-0.03278-0.06862 0.49019
   1   1   4 491.031 78.5193   2 0.28641-0.09024 0.82237-0.55024-0.03237 0.45394
   1   1   5 60949.2 422.859   2 0.40530-0.18885 0.81963-0.50603 0.03931 0.47030
   1   1   5 60555.5 514.747   0 0.90931-0.69287 0.32991-0.01631 0.02502 0.48458
   1   1   6 861.615 84.2526   0 0.93037-0.69365 0.34896 0.00610 0.10546 0.49218
   1   1   7 30393.4 437.699   0 0.94384-0.68684 0.36408 0.03244 0.17740 0.50827
   1   1   8 1135.61 137.656   0 0.95160-0.67433 0.37634 0.06164 0.24361 0.53010
   1   1   9 1281.73 228.212   0 0.95465-0.65711 0.38634 0.09310 0.30578 0.55596
   1   2 -12 278.463 147.338   1-0.61808 0.49939 0.45552-0.75097-0.41736-0.52452
   1   2 -11 855.240 146.410   1-0.64649 0.54807 0.47070-0.72469-0.37378-0.48007
  -1  -2   6 72.2152 53.4367   2 0.95495-0.95790 0.29812-0.25143 0.49764-0.08397
  -1  -2   5 555.565 61.8308   2 0.95490-0.97813 0.26071-0.25549 0.50694-0.18131
  -1  -2   4 499.469 61.0381   2 0.94857-0.99208 0.18735-0.22359 0.52146-0.28386
  -1  -2   3 145694. 564.048   3 0.15939-0.22317 0.88782-0.96552 0.82348-0.67392
  -1  -2   3 160461. 497.909   2 0.92246-0.98624 0.06996-0.14766 0.53515-0.38558
  -1  -2   2 269395. 675.852   3 0.06019-0.14424 0.71687-0.83603 0.93695-0.87542
  -1  -2   1 11703.5 145.777   3-0.08272-0.02160 0.37801-0.53863 0.94755-0.97406
   1   2   0 24095.3 182.608   0 0.27142-0.14682-0.01417 0.21626-0.78563 0.90017
  -1  -2   0 23631.2 238.575   3-0.20938 0.08478-0.02001-0.18208 0.79568-0.91023
   1   2   1 19016.8 185.028   0 0.58059-0.43572 0.13267 0.11087-0.53173 0.73431
  -1  -2  -1 32761.1 277.057   3-0.28278 0.13790-0.32284 0.07929 0.58851-0.79109
   1   2   2 4611.71 110.073   0 0.73962-0.57448 0.21825 0.06676-0.33103 0.62164
  -1  -2  -3 60632.8 310.768   1-0.61047 0.42505 0.45139-0.77786-0.42826 0.04961
   1   2   3 50411.3 391.017   0 0.82639-0.64097 0.27064 0.05583-0.18182 0.56047
  -1  -2  -4 5576.68 114.543   1-0.61146 0.40577 0.45193-0.81986-0.42686-0.03983
   1   2   4 7799.87 191.109   0 0.87820-0.67250 0.30583 0.06210-0.06538 0.53207
   1   2   5 62448.1 543.275   0 0.91105-0.68508 0.33136 0.07803 0.03084 0.52388
   1   2   6 3381.96 163.010   0 0.93228-0.68604 0.35089 0.09997 0.11417 0.52859
   1   2   7 622.261 143.573   0 0.94551-0.67900 0.36633 0.12599 0.18890 0.54189
   1   2   8 541.388 172.294   0 0.95266-0.66587 0.37874 0.15504 0.25769 0.56113
   1   3 -12 2320.84 237.779   1-0.65968 0.55051 0.47760-0.67725-0.35176-0.54501
  -1  -3   7 2227.15 112.050   2 0.95448-0.94668 0.24981-0.25746 0.50940-0.05282
  -1  -3   6 146.836 43.6190   3 0.19854-0.21101 0.93685-0.98596 0.74828-0.37973
  -1  -3   6 284.475 73.0820   2 0.95314-0.96561 0.22880-0.27791 0.51385-0.14529
  -1  -3   5 50954.8 419.177   3 0.17051-0.20325 0.90300-0.99357 0.80421-0.52369
  -1  -3   5 73057.0 428.911   2 0.94823-0.98097 0.18490-0.27547 0.52186-0.24135
  -1  -3   4 36345.4 294.631   2 0.93451-0.98753 0.11412-0.24615 0.53133-0.33885
  -1  -3   4 34281.0 319.713   3 0.12388-0.17691 0.83351-0.96555 0.87545-0.68297
  -1  -3   3 53023.1 341.698   2 0.90347-0.97677 0.01412-0.18762 0.53774-0.43329
  -1  -3   3 49346.8 345.592   3 0.05142-0.12472 0.69908-0.87258 0.94254-0.83809
  -1  -3   2 50147.7 351.959   3-0.04561-0.04796 0.47602-0.69098 0.96134-0.94493
   1   3  -1 37674.4 234.431   0-0.01830 0.13214-0.13692 0.39334-0.91988 0.99151
  -1  -3   1 39702.0 313.142   3-0.14712 0.03328 0.18950-0.44592 0.89322-0.96484
  -1  -3   0 14894.4 207.531   3-0.22807 0.09395-0.08980-0.20808 0.75500-0.91466
   1   3   0 19334.4 182.347   0 0.37852-0.24440 0.03454 0.26334-0.71269 0.87235
  -1  -3  -1 27857.2 303.572   3-0.28113 0.12674-0.31495-0.02439 0.59496-0.84266
   1   3   1 47306.1 317.266   0 0.62380-0.46941 0.15500 0.18434-0.48366 0.73135
   1   3   2 78825.5 460.646   0 0.75979-0.58512 0.22993 0.15087-0.29981 0.63554
   1   3   3 26997.6 310.390   0 0.83835-0.64342 0.27841 0.14386-0.15743 0.58120
   1   3   4 30303.1 364.552   0 0.88661-0.67140 0.31204 0.15169-0.04305 0.55485
   1   3   5 25938.7 366.967   0 0.91739-0.68191 0.33683 0.16836 0.05316 0.54667
   1   3   6 306.969 118.925   0 0.93697-0.68121 0.35588 0.19077 0.13733 0.55054
   1   3   7 549.494 165.849   0 0.94860-0.67257 0.37092 0.21719 0.21326 0.56265
  -1  -4  12 8866.31 338.780   3 0.19351-0.09386 0.93128-0.82742 0.75914 0.09251
  -1  -4  11 228.338 99.3193   3 0.19515-0.11577 0.93312-0.87073 0.75564 0.00797
  -1  -4  10 346.949 90.0362   3 0.19384-0.13473 0.93165-0.91071 0.75845-0.08287
  -1  -4   9 2201.09 184.160   3 0.18876-0.14994 0.92581-0.94634 0.76905-0.18151
  -1  -4   8 71877.4 638.108   3 0.17867-0.16011 0.91354-0.97553 0.78905-0.28954
  -1  -4   8 83881.7 575.269   2 0.95069-0.93214 0.20383-0.26581 0.51861-0.01911
  -1  -4   7 4581.27 157.855   2 0.94932-0.95104 0.19280-0.29625 0.52054-0.10907
  -1  -4   7 4633.66 215.522   3 0.16163-0.16334 0.89095-0.99440 0.81973-0.40826
  -1  -4   6 10359.3 261.096   3 0.13484-0.15683 0.85116-0.99607 0.86089-0.53746
  -1  -4   6 17473.7 253.177   2 0.94506-0.96706 0.16490-0.30981 0.52496-0.20153
  -1  -4   5 8575.46 235.069   3 0.09476-0.13703 0.78304-0.96941 0.90828-0.67288
  -1  -4   5 8502.42 185.049   2 0.93544-0.97771 0.11798-0.30435 0.53092-0.29552
  -1  -4   4 13889.4 210.903   2 0.91623-0.97877 0.05025-0.27808 0.53635-0.38898
  -1  -4   4 13514.5 239.018   3 0.03839-0.10093 0.67188-0.89971 0.94964-0.80227
  -1  -4   3 25743.5 310.671   3-0.03343-0.04939 0.50663-0.77593 0.96328-0.90395
  -1  -4   2 6356.24 159.055   3-0.11241 0.00932 0.29420-0.60496 0.92760-0.95631
   1   4  -1 165.145 51.8799   0 0.16634-0.04298-0.06014 0.41236-0.84443 0.96117
  -1  -4   1 63.7398 71.5990   3-0.18546 0.06210 0.06424-0.41645 0.83936-0.95610
  -1  -4   0 96992.1 579.730   3-0.24326 0.09962-0.14961-0.24407 0.71687-0.92164
   1   4   0 81773.0 401.407   0 0.48226-0.33862 0.08378 0.30990-0.62779 0.83257
  -1  -4  -1 5246.18 177.584   3-0.28415 0.12024-0.32946-0.10568 0.58304-0.87585
   1   4   1 3397.16 98.7224   0 0.67706-0.51315 0.18339 0.25175-0.41836 0.71117
   1   4   2 1111.74 76.5922   0 0.79015-0.60596 0.24803 0.22858-0.24924 0.63008
   1   4   3 8196.53 183.761   0 0.85789-0.65343 0.29151 0.22656-0.11470 0.58358
   1   4   4 47.0019 54.2665   0 0.90014-0.67540 0.32245 0.23708-0.00413 0.56105
  -1  -5  13 49.5623 144.783   3 0.16167-0.05127 0.89101-0.84149 0.81965 0.07491
  -1  -5  12 229.638 136.041   3 0.16273-0.07260 0.89248-0.88442 0.81785-0.01132
  -1  -5  11 1365.56 214.187   3 0.16071-0.09086 0.88967-0.92307 0.82127-0.10278
  -1  -5  10 10068.3 336.058   3 0.15493-0.10535 0.88147-0.95634 0.83079-0.20033
  -1  -5   9 456.714 154.327   3 0.14440-0.11509 0.86592-0.98224 0.84714-0.30472
  -1  -5   8 30747.6 389.417   2 0.94316-0.93412 0.15429-0.31208 0.52647-0.07208
  -1  -5   8 17488.3 357.605   3 0.12774-0.11870 0.83981-0.99759 0.87047-0.41609
  -1  -5   7 339.431 110.184   2 0.93964-0.95088 0.13668-0.33593 0.52876-0.16241
  -1  -5   7 266.870 122.554   3 0.10319-0.11443 0.79816-0.99740 0.89963-0.53327
  -1  -5   6 15.6929 46.6857   3 0.06882-0.10033 0.73400-0.97471 0.93079-0.65247
  -1  -5   6 101.481 85.6318   2 0.93207-0.96358 0.10432-0.34503 0.53231-0.25399
  -1  -5   5 617.781 116.483   3 0.02327-0.07506 0.63926-0.92143 0.95607-0.76579
  -1  -5   5 591.765 88.9998   2 0.91812-0.96990 0.05604-0.33821 0.53603-0.34574
  -1  -5   4 10263.9 236.434   3-0.03283-0.03923 0.50813-0.83176 0.96335-0.86110
  -1  -5   3 4510.97 178.632   3-0.09544 0.00311 0.34271-0.70780 0.94001-0.92580
   1   5  -2 2589.87 70.9175   0-0.00856 0.12117-0.13299 0.53954-0.91676 0.99059
  -1  -5   2 12834.3 245.092   3-0.15765 0.04504 0.15618-0.56274 0.88021-0.95404
   1   5  -1 782.454 41.2853   0 0.33262-0.19974 0.01343 0.43459-0.74565 0.90751
  -1  -5   1 7735.88 237.475   3-0.21264 0.07975-0.03189-0.41612 0.78904-0.95090
  -1  -5   0 6286.51 200.232   3-0.25665 0.10350-0.20505-0.28442 0.67875-0.92864
   1   5   0 1470.58 61.1311   0 0.58195-0.42879 0.13337 0.35611-0.53027 0.78017
  -1  -5  -1 7344.54 195.128   3-0.28934 0.11591-0.35507-0.17587 0.56148-0.89941
  -1  -6  13 1035.95 229.938   3 0.13008-0.02920 0.84359-0.88987 0.86737-0.01792
  -1  -6  12 3335.69 274.779   3 0.12784-0.04723 0.83998-0.92771 0.87034-0.10893
  -1  -6  11 102.671 98.4210   3 0.12196-0.06162 0.83034-0.95953 0.87788-0.20450
  -1  -6  10 3003.74 192.469   3 0.11170-0.07164 0.81302-0.98367 0.89019-0.30485
  -1  -6   9 2414.84 178.745   2 0.93444-0.91466 0.11384-0.32596 0.53136-0.03405
  -1  -6   9 1556.19 171.489   3 0.09612-0.07633 0.78551-0.99763 0.90693-0.40962
  -1  -6   8 51087.0 528.340   2 0.93188-0.93237 0.10361-0.35719 0.53238-0.12311
  -1  -6   8 28006.0 437.250   3 0.07411-0.07459 0.74429-0.99787 0.92669-0.51742
  -1  -6   7 20892.1 369.700   3 0.04458-0.06534 0.68491-0.97995 0.94645-0.62521
  -1  -6   7 23133.2 365.540   2 0.92578-0.94654 0.08122-0.37626 0.53432-0.21309
  -1  -6   6 13602.7 277.821   2 0.91480-0.95583 0.04592-0.38242 0.53657-0.30337
  -1  -6   6 12990.2 293.212   3 0.00689-0.04792 0.60260-0.93910 0.96089-0.72769
  -1  -6   5 28320.6 403.520   3-0.03847-0.02284 0.49406-0.87203 0.96263-0.81746
  -1  -6   4 7434.02 229.396   3-0.08927 0.00769 0.35995-0.77937 0.94386-0.88673
  -1  -6   3 2242.50 141.047   3-0.14161 0.03976 0.20663-0.66752 0.89952-0.93043
  -1  -6   2 5729.84 201.059   3-0.19101 0.06888 0.04515-0.54750 0.82999-0.94893
  -1  -6   1 18780.8 326.361   3-0.23398 0.09157-0.11271-0.43110 0.74076-0.94773
  -1  -6   0 8647.73 269.172   3-0.26884 0.10617-0.25820-0.32707 0.63963-0.93465
  -1  -6  -1 12378.8 343.395   3-0.29557 0.11262-0.38696-0.23977 0.53369-0.91674
  -1  -7  13 680.288 222.121   3 0.09530-0.00393 0.78401-0.92608 0.90775-0.10341
  -1  -7  12 1238.76 186.874   3 0.08979-0.01870 0.77392-0.95745 0.91307-0.19678
  -1  -7  11 243.365 134.147   3 0.08028-0.02946 0.75611-0.98111 0.92160-0.29334
  -1  -7  10 8098.48 289.578   3 0.06614-0.03560 0.72872-0.99518 0.93277-0.39255
  -1  -7  10 14479.1 326.758   2 0.92298-0.89243 0.07167-0.33813 0.53503 0.00520
  -1  -7   9 10280.7 280.294   2 0.92161-0.91134 0.06716-0.37508 0.53534-0.08315
  -1  -7   9 10109.7 315.663   3 0.04667-0.03640 0.68927-0.99718 0.94530-0.49311
  -1  -7   8 21.9553 35.1872   2 0.91686-0.92686 0.05216-0.40154 0.53624-0.17209
  -1  -7   8 73.9990 67.6866   3 0.02125-0.03126 0.63482-0.98420 0.95678-0.59263
  -1  -7   7 26.2429 52.3920   2 0.90795-0.93823 0.02625-0.41709 0.53739-0.26127
  -1  -7   7 48.2184 60.6986   3-0.01040-0.01988 0.56245-0.95329 0.96357-0.68745
  -1  -7   6 772.160 128.958   3-0.04790-0.00265 0.47017-0.90248 0.96083-0.77275
  -1  -7   5 397.801 117.185   3-0.08991 0.01909 0.35817-0.83193 0.94347-0.84343
  -1  -7   4 903.802 118.259   3-0.13406 0.04296 0.22979-0.74501 0.90763-0.89562
  -1  -7   3 743.722 107.009   3-0.17743 0.06605 0.09142-0.64811 0.85219-0.92821
  -1  -7   2 774.557 157.154   3-0.21729 0.08565-0.04910-0.54905 0.77923-0.94328
  -1  -7   1 1455.88 159.355   3-0.25179 0.09986-0.18458-0.45503 0.69314-0.94523
  -1  -7   0 24500.2 429.732   3-0.28009 0.10789-0.31000-0.37107 0.59898-0.93911
  -1  -7  -1 76.1744 57.8706   3-0.30224 0.10977-0.42274-0.29979 0.50121-0.92937
  -1  -8  12 991.065 183.941   3 0.04979 0.01178 0.69572-0.97505 0.94351-0.27233
  -1  -8  11 8114.20 307.541   3 0.03727 0.00402 0.66952-0.99031 0.95018-0.36703
  -1  -8  10 212.463 140.323   3 0.02026 0.00076 0.63263-0.99488 0.95712-0.46201
  -1  -8  10 372.195 137.991   2 0.90859-0.88757 0.02804-0.39029 0.53732-0.04222
  -1  -8   9 15751.5 378.424   3-0.00160 0.00235 0.58308-0.98679 0.96251-0.55544
  -1  -8   9 16272.9 371.568   2 0.90526-0.90451 0.01889-0.42260 0.53761-0.13054
  -1  -8   8 400.281 127.608   3-0.02841 0.00889 0.51902-0.96420 0.96372-0.64468
  -1  -8   7 91.4449 91.1240   3-0.05988 0.02008 0.43921-0.92585 0.95746-0.72645
  -1  -8   6 38624.5 534.529   3-0.09509 0.03502 0.34369-0.87179 0.94024-0.79727
  -1  -8   5 5996.86 257.413   3-0.13255 0.05221 0.23437-0.80393 0.90918-0.85425
  -1  -8   4 3650.89 209.896   3-0.17030 0.06968 0.11509-0.72611 0.86284-0.89595
  -1  -8   3 2358.42 192.371   3-0.20634 0.08544-0.00898-0.64350 0.80174-0.92288
  -1  -8   2 3824.56 205.575   3-0.23899 0.09782-0.13247-0.56147 0.72811-0.93728
  -1  -8   1 3058.98 198.509   3-0.26719 0.10575-0.25083-0.48457 0.64521-0.94242
  -1  -8   0 5776.29 289.411   3-0.29051 0.10879-0.36093-0.41594 0.55645-0.94170
  -1  -9  12 298.630 133.306   3 0.00913 0.04293 0.60768-0.98281 0.96036-0.33430
  -1  -9  11 4840.33 349.822   3-0.00554 0.03732 0.57388-0.99047 0.96306-0.42504
  -1  -9  10 2517.17 222.167   3-0.02427 0.03577 0.52916-0.98721 0.96392-0.51393
  -1  -9   9 132.481 124.412   3-0.04707 0.03830 0.47231-0.97182 0.96102-0.59906
  -1  -9   8 2472.70 208.088   3-0.07368 0.04464 0.40256-0.94353 0.95202-0.67810
  -1  -9   7 148.108 104.943   3-0.10348 0.05417 0.31992-0.90236 0.93447-0.74858
  -1  -9   6 384.581 93.0144   3-0.13544 0.06585 0.22558-0.84948 0.90620-0.80835
  -1  -9   5 8811.79 298.769   3-0.16821 0.07835 0.12196-0.78732 0.86585-0.85604
  -1  -9   4 19716.8 431.045   3-0.20033 0.09019 0.01250-0.71932 0.81324-0.89146
  -1  -9   3 7916.82 309.020   3-0.23043 0.10001-0.09889-0.64939 0.74941-0.91566
  -1  -9   2 2786.83 255.246   3-0.25746 0.10677-0.20850-0.58124 0.67629-0.93058
  -1  -9   1 11.7071 67.6677   3-0.28079 0.10983-0.31333-0.51788 0.59628-0.93861
  -1  -9   0 40.2963 96.6956   3-0.30014 0.10891-0.41129-0.46137 0.51175-0.94212
  -1 -10  11 494.395 185.628   3-0.04697 0.06923 0.47257-0.98495 0.96104-0.46813
  -1 -10  10 80.6750 102.178   3-0.06633 0.06832 0.42220-0.97604 0.95512-0.55025
  -1 -10   9 385.327 176.038   3-0.08892 0.07063 0.36093-0.95624 0.94407-0.62723
  -1 -10   8 1098.15 250.040   3-0.11426 0.07569 0.28881-0.92558 0.92608-0.69727
  -1 -10   7 1213.25 171.009   3-0.14162 0.08278 0.20662-0.88485 0.89952-0.75875
  -1 -10   6 1995.37 208.544   3-0.17004 0.09093 0.11596-0.83566 0.86323-0.81050
  -1 -10   5 990.058 195.943   3-0.19843 0.09905 0.01921-0.78037 0.81676-0.85206
  -1 -10   4 46.4360 104.536   3-0.22572 0.10606-0.08082-0.72180 0.76047-0.88381
  -1 -10   3 7218.54 299.421   3-0.25098 0.11105-0.18122-0.66286 0.69546-0.90684
  -1 -10   2 15327.1 427.000   3-0.27352 0.11331-0.27938-0.60616 0.62332-0.92273
  -1 -10   1 9252.59 346.817   3-0.29292 0.11244-0.37321-0.55380 0.54581-0.93326
  -1 -11  10 143.170 149.007   3-0.10533 0.09780 0.31462-0.96427 0.93311-0.57335
  -1 -11   9 3226.54 261.547   3-0.12690 0.09909 0.25141-0.94252 0.91477-0.64304
  -1 -11   8 2912.13 258.108   3-0.15034 0.10226 0.17939-0.91196 0.88938-0.70569
  -1 -11   7 2091.20 252.607   3-0.17495 0.10660 0.09969-0.87372 0.85596-0.76031
  -1 -11   6 356.842 163.888   3-0.19992 0.11128 0.01396-0.82945 0.81401-0.80639
  -1 -11   5 791.789 245.111   3-0.22438 0.11547-0.07571-0.78124 0.76354-0.84396
  -1 -11   4 9562.84 377.075   3-0.24756 0.11838-0.16709-0.73132 0.70514-0.87359
  -1 -11   3 2232.67 280.092   3-0.26880 0.11935-0.25801-0.68187 0.63978-0.89627
   2 -11   6 4678.73 301.182   2 0.90403-0.67599 0.01560-0.79963 0.53770-0.45716
   2 -11   7 3424.18 258.253   2 0.91675-0.66843 0.05183-0.79439 0.53626-0.36768
   2 -10   2 1430.79 181.873   3-0.29642 0.45289-0.39143-0.46264 0.52971-0.75620
   2 -10   5 10471.5 320.025   2 0.91647-0.69918 0.05097-0.78065 0.53631-0.49868
   2 -10   6 3253.24 232.065   2 0.92932-0.69176 0.09391-0.78213 0.53327-0.40761
   2 -10   7 6659.30 291.485   2 0.93752-0.67968 0.12697-0.77373 0.52992-0.31622
   2 -10   8 7340.85 298.581   2 0.94251-0.66440 0.15089-0.75619 0.52693-0.22520
   2 -10   9 43.8146 87.3777   2 0.94531-0.64693 0.16635-0.73019 0.52475-0.13498
   2  -9   2 5783.19 241.657   3-0.28467 0.45066-0.33201-0.42626 0.58092-0.76229
   2  -9   3 7594.56 250.359   3-0.26207 0.44833-0.22832-0.48850 0.66194-0.75527
   2  -9   3 16981.8 366.925   2 0.90548-0.71921 0.01948-0.73629 0.53760-0.63093
   2  -9   4 20693.2 417.505   2 0.92633-0.71979 0.08312-0.75847 0.53417-0.53947
   2  -9   5 16135.5 369.963   2 0.93912-0.71231 0.13423-0.76812 0.52906-0.44632
   2  -9   6 32.6095 81.2356   2 0.94654-0.69946 0.17379-0.76622 0.52363-0.35285
   2  -9   7 11815.2 334.680   2 0.95058-0.68322 0.20286-0.75383 0.51879-0.25997
   2  -9   8 3071.81 216.319   2 0.95260-0.66497 0.22241-0.73191 0.51512-0.16827
   2  -9   9 19.2452 86.6223   2 0.95348-0.64558 0.23330-0.70134 0.51293-0.07804
   2  -9  10 523.379 187.444   2 0.95369-0.62551 0.23621-0.66279 0.51233 0.01059
   2  -8   1 2583.69 207.642   3-0.29412 0.44936-0.37942-0.32452 0.54036-0.76464
   2  -8   2 1593.71 164.171   2 0.91091-0.73540 0.03456-0.69704 0.53708-0.67332
   2  -8   2 875.783 139.001   3-0.27136 0.44687-0.26956-0.39292 0.63094-0.76718
   2  -8   3 8118.36 231.051   3-0.24309 0.43887-0.14894-0.47208 0.71731-0.76552
   2  -8   3 8102.27 246.656   2 0.93382-0.73804 0.11128-0.73230 0.53162-0.57983
   2  -8   4 3095.08 156.873   3-0.20969 0.42574-0.02112-0.55843 0.79507-0.75524
   2  -8   4 5102.46 215.597   2 0.94636-0.73031 0.17269-0.75224 0.52380-0.48397
   2  -8   5 2076.89 163.394   2 0.95240-0.71607 0.22016-0.75825 0.51556-0.38770
   2  -8   6 2432.87 171.020   2 0.95471-0.69811 0.25521-0.75184 0.50820-0.29230
   2  -8   7 21.6109 55.2070   2 0.95520-0.67833 0.27927-0.73444 0.50249-0.19856
   2  -8   8 6484.91 252.947   2 0.95506-0.65791 0.29362-0.70733 0.49883-0.10686
   2  -8   9 392.856 147.361   2 0.95491-0.63749 0.29925-0.67150 0.49733-0.01733
   2  -8  10 818.821 194.910   2 0.95498-0.61728 0.29692-0.62770 0.49795 0.07008
   2  -8  11 878.364 229.763   2 0.95517-0.59720 0.28710-0.57642 0.50051 0.15556
   2  -7   0 3226.04 137.522   1 0.42394-0.27946-0.21408-0.43553-0.76738 0.50018
   2  -7   1 4583.94 160.068   1 0.48813-0.32337-0.26054-0.34760-0.73107 0.55191
   2  -7   1 4396.20 172.132   2 0.91264-0.74789 0.03956-0.64770 0.53687-0.71603
   2  -7   2 410.886 122.540   3-0.25602 0.44105-0.20239-0.36429 0.68064-0.77177
   2  -7   2 517.331 123.636   2 0.93908-0.75406 0.13406-0.70074 0.52908-0.62021
   2  -7   3 40839.7 441.656   3-0.21992 0.42522-0.05891-0.46631 0.77352-0.77661
   2  -7   3 42164.8 483.826   2 0.95128-0.74598 0.20905-0.73427 0.51766-0.52076
   2  -7   4 2285.21 152.441   2 0.95506-0.72948 0.26649-0.75024 0.50559-0.42065
   2  -7   4 1281.68 109.106   3-0.17719 0.40276 0.09223-0.57599 0.85256-0.76762
   2  -7   5 19443.2 317.273   3-0.13056 0.37641 0.24039-0.68268 0.91118-0.73821
   2  -7   5 18328.3 345.513   2 0.95455-0.70870 0.30867-0.75096 0.49477-0.32179
   2  -7   6 27931.7 447.353   2 0.95248-0.68636 0.33779-0.73862 0.48627-0.22526
   2  -7   7 4375.22 217.829   2 0.95047-0.66408 0.35573-0.71510 0.48059-0.13154
   2  -7   8 37.9493 45.8379   2 0.94935-0.64268 0.36400-0.68191 0.47786-0.04078
   2  -7   9 1013.68 169.488   2 0.94939-0.62245 0.36371-0.64015 0.47796 0.04716
   2  -7  10 2040.66 213.169   2 0.95049-0.60327 0.35559-0.59058 0.48063 0.13252
   2  -7  11 284.132 169.126   2 0.95226-0.58476 0.34008-0.53361 0.48556 0.21563
   2  -6  -1 234.208 100.328   1 0.28502-0.15129-0.11611-0.47916-0.81707 0.50695
   2  -6   0 5086.21 157.673   1 0.36407-0.21007-0.17146-0.38234-0.79316 0.57107
   2  -6   0 5145.93 160.170   2 0.90880-0.75480 0.02861-0.58242 0.53730-0.75939
   2  -6   1 931.531 121.452   2 0.94212-0.76785 0.14887-0.66122 0.52720-0.66125
   2  -6   1 924.285 97.0694   3-0.27448 0.44875-0.28379-0.22856 0.61987-0.75392
   2  -6   1 887.228 94.7804   1 0.44595-0.27168-0.22991-0.28243-0.75602 0.62198
   2  -6   2 8697.70 198.673   3-0.23770 0.43225-0.12738-0.34350 0.73140-0.77741
   2  -6   2 8861.38 212.336   2 0.95411-0.75956 0.24283-0.71371 0.51092-0.55694
   2  -6   2 8486.02 210.974   1 0.52477-0.33023-0.28751-0.18338-0.70557 0.65956
   2  -6   3 4655.29 153.290   3-0.19004 0.40486 0.04853-0.47795 0.83167-0.78964
   2  -6   3 7804.34 207.244   2 0.95431-0.73949 0.31343-0.74285 0.49344-0.45141
   2  -6   4 771.664 78.9285   3-0.13404 0.36914 0.22985-0.61781 0.90765-0.77760
   2  -6   4 1122.67 95.1260   2 0.94930-0.71420 0.36437-0.75232 0.47774-0.34768
   2  -6   5 8757.95 205.728   3-0.07581 0.33118 0.39682-0.74331 0.95104-0.73294
   2  -6   5 8752.01 234.214   2 0.94315-0.68778 0.39916-0.74566 0.46538-0.24729
   2  -6   6 6630.25 231.305   2 0.93814-0.66250 0.42075-0.72579 0.45701-0.15088
   2  -6   7 1632.62 131.574   2 0.93530-0.63939 0.43141-0.69499 0.45265-0.05849
   2  -6   8 4238.92 197.460   2 0.93492-0.61873 0.43279-0.65490 0.45208 0.03012
   2  -6   9 2347.32 219.468   2 0.93678-0.60031 0.42598-0.60663 0.45489 0.11535
   2  -6  10 3173.41 264.624   2 0.94037-0.58363 0.41165-0.55084 0.46061 0.19766
   2  -5  -3 8413.91 197.111   1 0.04828 0.05442 0.04453-0.62692-0.83187 0.39080
   2  -5  -2 1728.69 119.812   1 0.11910 0.00387-0.00279-0.53814-0.83562 0.48258
   2  -5  -1 136.939 72.5364   1 0.20641-0.06317-0.06197-0.43750-0.83084 0.56584
   2  -5   0 28243.9 325.561   1 0.30553-0.14201-0.13038-0.32763-0.81189 0.63492
   2  -5   0 29251.9 311.160   2 0.94240-0.77888 0.15033-0.60834 0.52701-0.70398
   2  -5   1 19984.2 272.150   2 0.95516-0.77137 0.27303-0.68957 0.50402-0.59295
   2  -5   1 19696.6 275.167   1 0.40844-0.22465-0.20298-0.21357-0.77475 0.68582
   2  -5   1 20007.6 272.704   3-0.26391 0.44770-0.23635-0.18020 0.65603-0.74496
   2  -5   2 3598.58 135.272   1 0.50601-0.30194-0.27366-0.10143-0.71911 0.71821
   2  -5   2 2953.97 116.342   3-0.21431 0.41837-0.03804-0.33704 0.78556-0.78646
   2  -5   2 3437.07 131.886   2 0.94962-0.74555 0.36209-0.73718 0.47850-0.47939
   2  -5   3 36543.0 325.984   3-0.14816 0.37250 0.18626-0.51988 0.89199-0.80485
   2  -5   3 60140.5 495.787   2 0.93728-0.71294 0.42408-0.75770 0.45566-0.36852
   2  -5   4 26108.0 345.310   2 0.92470-0.68009 0.46513-0.75730 0.43791-0.26274
   2  -5   4 22900.3 230.604   0 0.95474-0.71012 0.38762-0.67978 0.31447-0.13930
   2  -5   5 27763.0 296.487   0 0.95434-0.68945 0.38425-0.63495 0.29193-0.02872
   2  -5   5 28967.0 386.779   2 0.91513-0.65024 0.49013-0.74083 0.42596-0.16275
   2  -5   6 2032.05 105.096   0 0.95442-0.66926 0.38469-0.59393 0.29486 0.05639
   2  -5   6 1931.79 128.615   2 0.90975-0.62459 0.50261-0.71185 0.41964-0.06839
   2  -5   7 23355.5 388.345   2 0.90867-0.60323 0.50501-0.67279 0.41839 0.02089
   2  -5   7 23150.6 341.404   0 0.95471-0.64928 0.38711-0.55489 0.31098 0.12830
   2  -5   8 637.673 107.391   2 0.91139-0.58568 0.49890-0.62522 0.42154 0.10578
   2  -5   8 670.455 135.986   0 0.95460-0.62889 0.39049-0.51680 0.33485 0.19247
   2  -5   9 59.7801 84.1119   2 0.91713-0.57115 0.48522-0.57007 0.42838 0.18697
   2  -5  10 12787.3 319.233   2 0.92497-0.55871 0.46438-0.50777 0.43826 0.26513
   2  -4  -5 25178.0 346.477   1-0.15842 0.23009 0.17922-0.74873-0.78309 0.21106
   2  -4  -4 16809.7 267.474   1-0.11966 0.21161 0.15436-0.68241-0.79657 0.31258
   2  -4  -3 17721.0 273.505   1-0.06085 0.17306 0.11627-0.60287-0.81317 0.41721
   2  -4  -2 26035.7 308.733   1 0.02106 0.11143 0.06256-0.50769-0.82866 0.52074
   2  -4  -1 4773.71 137.306   1 0.12628 0.02648-0.00762-0.39605-0.83562 0.61574
   2  -4  -1 4835.05 115.822   2 0.93715-0.78439 0.12536-0.52903 0.53010-0.74999
   2  -4   0 34631.2 331.171   1 0.24932-0.07628-0.09142-0.27080-0.82449 0.69264
   2  -4   0 34967.3 302.615   2 0.95497-0.78193 0.29736-0.65958 0.49784-0.62969
   2  -4   1 87.6645 50.5524   1 0.37800-0.18469-0.18132-0.13943-0.78779 0.74398
   2  -4   1 45.1448 42.1644   3-0.25297 0.44628-0.18951-0.13124 0.68971-0.73352
   2  -4   1 28.9030 32.7976   2 0.93965-0.74634 0.41465-0.73540 0.45943-0.50324
   2  -4   2 3799.10 121.876   2 0.91480-0.70122 0.49091-0.77019 0.42557-0.38135
   2  -4   2 3891.78 100.285   3-0.18041 0.39400 0.08139-0.36068 0.84753-0.80331
   2  -4   2 3775.29 67.6267   0 0.92820-0.71461 0.34681-0.62610 0.09590-0.05168
   2  -4   2 3681.37 127.371   1 0.49764-0.28406-0.26751-0.01177-0.72481 0.76903
   2  -4   3 7649.61 153.483   3-0.08240 0.31626 0.37889-0.61672 0.94773-0.81547
   2  -4   3 7817.06 124.965   0 0.92750-0.69365 0.34614-0.58396 0.09292 0.03933
   2  -4   3 7462.70 171.622   2 0.89200-0.65815 0.53832-0.77614 0.40013-0.26787
   2  -4   4 4926.50 119.760   0 0.93273-0.67860 0.35135-0.54772 0.11630 0.10399
   2  -4   4 4803.17 153.688   2 0.87580-0.62166 0.56565-0.76202 0.38363-0.16334
   2  -4   5 8043.00 208.995   2 0.86718-0.59278 0.57868-0.73358 0.37524-0.06691
   2  -4   5 7757.02 161.771   3 0.08737 0.18704 0.76944-0.92435 0.91532-0.60699
   2  -4   5 7664.08 174.769   0 0.93912-0.66471 0.35831-0.51321 0.14890 0.15943
   2  -4   6 918.974 97.3375   2 0.86560-0.57092 0.58098-0.69442 0.37372 0.02264
   2  -4   6 817.745 78.0753   0 0.94507-0.65039 0.36572-0.47917 0.18580 0.21056
   2  -4   6 965.952 99.1671   3 0.13441 0.16027 0.85049-0.96393 0.86148-0.46512
   2  -4   7 2981.33 160.177   2 0.86989-0.55494 0.57468-0.64666 0.37786 0.10654
   2  -4   7 2979.84 144.252   3 0.16278 0.15217 0.89255-0.96453 0.81776-0.33336
   2  -4   7 3189.63 147.874   0 0.94989-0.63493 0.37308-0.44505 0.22509 0.25931
   2  -4   8 19354.3 352.149   0 0.95317-0.61794 0.38009-0.41061 0.26584 0.30659
   2  -4   8 19434.0 358.494   2 0.87875-0.54352 0.56097-0.59149 0.38656 0.18587
   2  -4   9 3182.55 170.152   0 0.95467-0.59917 0.38660-0.37566 0.30755 0.35292
   2  -4   9 3409.40 170.423   2 0.89086-0.53536 0.54039-0.52945 0.39893 0.26154
   2  -4  10 654.775 162.272   0 0.95419-0.57841 0.39250-0.34010 0.34993 0.39858
   2  -3  -6 13314.2 279.333   1-0.29217 0.35309 0.26352-0.77871-0.71996 0.10501
   2  -3  -5 1843.77 138.731   1-0.27153 0.35272 0.25067-0.72440-0.73147 0.20456
   2  -3  -4 10075.6 216.052   1-0.23324 0.33470 0.22667-0.65893-0.75107 0.31219
   2  -3  -3 9467.07 189.333   1-0.17159 0.29333 0.18762-0.57842-0.77803 0.42719
   2  -3  -2 34041.8 223.744   2 0.91003-0.76802 0.03207-0.38140 0.53718-0.79998
   2  -3  -2 30760.5 306.306   1-0.08024 0.22225 0.12888-0.47821-0.80821 0.54540
   2  -3  -1 10658.9 141.906   2 0.95452-0.79223 0.30937-0.61724 0.49457-0.66934
   2  -3  -1 10270.8 172.754   1 0.04447 0.11782 0.04706-0.35493-0.83148 0.65671
   2  -3   0 16354.3 213.079   1 0.19700-0.01444-0.05555-0.21087-0.83188 0.74514
   2  -3   0 16751.4 189.503   2 0.92070-0.73814 0.47608-0.74249 0.43279-0.51952
   2  -3   0 16896.5 107.282   0 0.22596-0.04340-0.03427-0.23214-0.81254 0.72581
   2  -3   1 2446.31 68.5156   3-0.24192 0.44475-0.14420-0.08076 0.72044-0.71914
   2  -3   1 2446.13 89.8684   2 0.87268-0.66985 0.57047-0.79542 0.38057-0.37927
   2  -3   1 2381.92 51.3717   0 0.67935-0.47652 0.18463-0.40958-0.41538 0.41669
   2  -3   1 2388.58 96.6425   1 0.35843-0.15559-0.16748-0.05747-0.79523 0.79653
   2  -3   2 10955.4 130.545   0 0.80763-0.58452 0.25877-0.44226-0.21782 0.30715
   2  -3   2 11090.2 180.422   1 0.50403-0.28092-0.27220 0.08871-0.72047 0.80981
   2  -3   2 11499.9 186.808   2 0.83358-0.61047 0.62222-0.80571 0.34431-0.25497
   2  -3   3 4585.45 139.204   2 0.80873-0.56535 0.64884-0.79087 0.32283-0.14545
   2  -3   3 4393.67 104.744   0 0.86185-0.61847 0.29424-0.43627-0.10551 0.28288
   2  -3   4 18097.2 263.521   2 0.79732-0.53367 0.65984-0.76041 0.31327-0.04787
   2  -3   4 17485.3 228.563   0 0.89343-0.62977 0.31721-0.41778-0.02397 0.28938
   2  -3   5 11979.0 234.225   2 0.79693-0.51300 0.66021-0.71932 0.31294 0.04050
   2  -3   5 11754.8 213.961   0 0.91479-0.63086 0.33455-0.39366 0.04378 0.30966
   2  -3   6 1009.70 113.023   2 0.80496-0.50076 0.65256-0.67020 0.31965 0.12183
   2  -3   6 959.940 122.554   0 0.93012-0.62592 0.34870-0.36634 0.10430 0.33718
   2  -3   7 18380.0 321.738   2 0.81918-0.49470 0.63812-0.61430 0.33174 0.19777
   2  -3   7 17630.3 321.785   0 0.94115-0.61668 0.36071-0.33689 0.16058 0.36893
   2  -3   8 1943.95 158.197   2 0.83769-0.49294 0.61741-0.55213 0.34796 0.26959
   2  -3   8 1865.35 149.440   0 0.94871-0.60396 0.37109-0.30581 0.21417 0.40338
   2  -3   9 29639.0 476.374   0 0.95318-0.58816 0.38011-0.27337 0.26596 0.43962
   2  -3  10 15695.3 390.362   0 0.95474-0.56945 0.38791-0.23971 0.31650 0.47713
   2  -2  -8 15.4233 43.7894   1-0.39395 0.42383 0.32592-0.82823-0.65251-0.09339
   2  -2  -7 1765.41 112.712   1-0.39940 0.44956 0.32922-0.79006-0.64835-0.00952
   2  -2  -6 1833.50 106.448   1-0.39524 0.46568 0.32671-0.74609-0.65152 0.08169
   2  -2  -5 32344.6 371.265   1-0.37833 0.46904 0.31646-0.69438-0.66409 0.18230
   2  -2  -4 220.800 84.4371   1-0.34352 0.45450 0.29521-0.63167-0.68825 0.29449
   2  -2  -3 606.695 92.8683   1-0.28277 0.41402 0.25767-0.55268-0.72529 0.41957
   2  -2  -2 30002.3 283.442   1-0.18488 0.33641 0.19608-0.44962-0.77268 0.55499
   2  -2  -1 46109.0 245.210   2 0.87910-0.70729 0.56041-0.77249 0.38691-0.51656
   2  -2  -1 46497.5 328.985   1-0.03925 0.21105 0.10219-0.31426-0.81811 0.68846
   2  -2   0 408842. 638.753   0 0.08923 0.10284-0.09281-0.07781-0.88015 0.83853
   2  -2   0 407457. 812.944   2 0.78355-0.59147 0.67225-0.84287 0.30195-0.34357
   2  -2   0 404282. 920.052   1 0.15125 0.04082-0.02447-0.14614-0.83509 0.79348
   2  -2   1 55025.9 345.888   1 0.35600-0.14365-0.16576 0.03661-0.79610 0.84252
   2  -2   1 56277.7 269.701   0 0.51420-0.30185 0.09940-0.22855-0.59842 0.64484
   2  -2   2 154170. 605.155   2 0.68984-0.45722 0.73745-0.82514 0.22973-0.09527
   2  -2   2 156012. 600.160   1 0.53124-0.29862-0.29230 0.20461-0.70066 0.83511
   2  -2   2 157636. 531.787   0 0.70818-0.47555 0.20049-0.28819-0.37656 0.51102
   2  -2   3 49477.2 379.373   2 0.68096-0.42806 0.74226-0.78849 0.22323-0.00074
   2  -2   3 48629.4 346.554   0 0.80262-0.54972 0.25566-0.30190-0.22702 0.44951
   2  -2   4 15642.9 229.884   0 0.85686-0.58369 0.29081-0.29558-0.11704 0.42756
   2  -2   4 15476.5 234.754   2 0.68762-0.41445 0.73867-0.74344 0.22810 0.08243
   2  -2   5 17493.3 262.677   2 0.70486-0.41142 0.72885-0.69216 0.24085 0.15772
   2  -2   5 16923.0 266.145   0 0.89183-0.59838 0.31598-0.27929-0.02853 0.42709
   2  -2   6 138.474 67.7299   2 0.72921-0.41549 0.71357-0.63541 0.25920 0.22740
   2  -2   6 50.7759 36.6189   0 0.91582-0.60210 0.33544-0.25729 0.04746 0.43914
   2  -2   7 4318.94 184.024   0 0.93259-0.59859 0.35121-0.23159 0.11563 0.45900
   2  -2   7 4466.67 169.273   2 0.75816-0.42417 0.69293-0.57332 0.28163 0.29300
   2  -2   8 25529.7 421.886   0 0.94403-0.58976 0.36433-0.20325 0.17865 0.48402
   2  -2   9 3584.22 199.263   0 0.95113-0.57658 0.37538-0.17284 0.23810 0.51260
   2  -2  10 629.149 214.816   0 0.95442-0.55961 0.38472-0.14072 0.29501 0.54373
   2  -1  -9 9831.15 292.226   1-0.46567 0.48480 0.36878-0.81676-0.59270-0.19611
   2  -1  -8 11462.6 280.177   1-0.48013 0.51954 0.37730-0.78381-0.57919-0.12159
   2  -1  -7 8788.30 236.145   1-0.48807 0.54775 0.38195-0.74700-0.57155-0.04120
   2  -1  -6 0.06604 52.7014   1-0.48775 0.56770 0.38176-0.70535-0.57186 0.04715
   2  -1  -5 17057.2 263.512   1-0.47610 0.57632 0.37493-0.65705-0.58301 0.14634
   2  -1  -4 10468.6 195.152   1-0.44755 0.56805 0.35806-0.59872-0.60890 0.26026
   2  -1  -3 22763.4 254.491   1-0.39208 0.53285 0.32479-0.52399-0.65392 0.39331
   2  -1  -2 92339.7 451.583   1-0.29241 0.45346 0.26367-0.42141-0.71982 0.54725
   2  -1  -1 267002. 703.133   1-0.12512 0.30645 0.15787-0.27415-0.79480 0.71026
   2  -1   0 986122. 4474.01   0 0.07250 0.12910-0.09978 0.02496-0.88710 0.89060
   2  -1   0 974277. 4750.71   2 0.48483-0.28323 0.80892-0.88374 0.08947-0.08597
   2  -1   0 999999. 5158.85   1 0.11711 0.08448-0.00145-0.07337-0.83561 0.83911
   2  -1   1 73257.5 375.403   2 0.47185-0.24998 0.81120-0.84456 0.08115 0.01039
   2  -1   1 72862.3 353.884   1 0.38191-0.16004-0.18409 0.15074-0.78622 0.87776
   2  -1   1 74931.5 347.076   0 0.44298-0.22111 0.06487-0.09823-0.66174 0.75328
   2  -1   2 38344.6 298.756   2 0.48589-0.24375 0.80872-0.80061 0.09016 0.08941
   2  -1   2 37850.2 282.867   0 0.64891-0.40677 0.16825-0.16015-0.45377 0.63335
   2  -1   3 6814.15 145.952   0 0.76233-0.49992 0.23142-0.18186-0.29574 0.56335
   2  -1   3 7098.73 153.562   2 0.51511-0.25269 0.80271-0.75314 0.10910 0.15850
   2  -1   4 2642.41 111.797   0 0.83058-0.54789 0.27334-0.18231-0.17341 0.52906
   2  -1   4 2794.43 107.748   2 0.55320-0.27051 0.79303-0.70200 0.13426 0.22138
   2  -1   5 1603.66 104.170   2 0.59651-0.29355 0.77925-0.64676 0.16357 0.28011
   2  -1   5 1560.36 97.9199   0 0.87500-0.57203 0.30352-0.17103-0.07353 0.51721
   2  -1   6 136.577 63.3667   2 0.64275-0.31951 0.76084-0.58689 0.19577 0.33594
   2  -1   6 164.967 91.5923   0 0.90534-0.58210 0.32663-0.15268 0.01207 0.51964
   2  -1   7 9084.51 219.635   2 0.69032-0.34680 0.73719-0.52178 0.23008 0.38967
   2  -1   7 9931.25 260.241   0 0.92640-0.58288 0.34507-0.12966 0.08825 0.53150
   2  -1   8 53.2005 82.3380   0 0.94071-0.57692 0.36017-0.10330 0.15795 0.54983
   2  -1   9 5461.33 221.270   0 0.94968-0.56562 0.37271-0.07437 0.22306 0.57276
   2   0 -11 43.6577 125.655   1-0.49354 0.48164 0.38515-0.82024-0.56618-0.35359
   2   0 -10 3307.20 264.042   1-0.51806 0.52643 0.39938-0.79302-0.54111-0.29063
   2   0  -9 27352.5 463.251   1-0.53826 0.56691 0.41099-0.76316-0.51909-0.22461
   2   0  -8 5132.73 222.717   1-0.55385 0.60277 0.41986-0.73058-0.50119-0.15448
   2   0  -7 20326.9 346.211   1-0.56412 0.63332 0.42567-0.69492-0.48892-0.07871
   2   0  -6 6027.89 186.269   1-0.56769 0.65716 0.42768-0.65547-0.48457 0.00497
   2   0  -5 6266.08 171.080   1-0.56191 0.67165 0.42442-0.61075-0.49160 0.10004
   2   0  -4 169.451 54.8397   1-0.54153 0.67155 0.41286-0.55773-0.51540 0.21187
   2   0  -3 4847.43 121.143   1-0.49569 0.64599 0.38640-0.48981-0.56405 0.34856
   2   0  -2 76420.5 380.573   1-0.40116 0.57173 0.33028-0.39222-0.64699 0.51954
   2   0  -1 320987. 688.994   1-0.21342 0.40426 0.21417-0.23466-0.76034 0.72092
   2   0   0 134379. 415.080   1 0.10556 0.10556 0.00631 0.01467-0.83542 0.88404
   2   0   0 133118. 456.992   0 0.10556 0.10556-0.08596 0.10694-0.87310 0.92172
   2   0   1 13411.0 137.453   1 0.45692-0.22553-0.23784 0.30028-0.74995 0.88661
   2   0   1 13401.9 165.851   0 0.42597-0.19458 0.05679 0.00565-0.67574 0.81239
   2   0   1 13344.3 173.277   2 0.18260 0.04879 0.81336-0.75092-0.09212 0.22877
   2   0   2 26842.1 259.219   0 0.62334-0.37168 0.15476-0.05086-0.48419 0.70888
   2   0   2 26297.3 250.066   2 0.25960-0.00794 0.82101-0.71711-0.04805 0.27274
   2   0   3 59414.1 428.029   0 0.74172-0.46979 0.21946-0.07410-0.32785 0.64058
   2   0   3 59605.0 409.294   2 0.33556-0.06362 0.82302-0.67766-0.00318 0.31591
   2   0   4 3074.33 122.331   2 0.40996-0.11775 0.81921-0.63238 0.04220 0.35856
   2   0   4 2906.65 118.504   0 0.81633-0.52412 0.26423-0.07741-0.20143 0.60219
   2   0   5 1346.94 95.9342   2 0.48245-0.16996 0.80935-0.58107 0.08794 0.40085
   2   0   5 1389.06 100.501   0 0.86588-0.55340 0.29705-0.06876-0.09596 0.58475
   2   0   6 16652.3 312.188   0 0.89993-0.56717 0.32228-0.05253-0.00477 0.58160
   2   0   6 17055.2 282.073   2 0.55277-0.22001 0.79315-0.52340 0.13398 0.44285
   2   0   7 44.6742 72.1639   0 0.92352-0.57049 0.34236-0.03115 0.07652 0.58834
   2   0   8 4458.47 204.593   0 0.93946-0.56615 0.35870-0.00603 0.15079 0.60211
   2   0   9 206.520 151.514   0 0.94935-0.55577 0.37214 0.02199 0.21995 0.62099
   2   1 -12 131.616 143.786   1-0.52787 0.50522 0.40503-0.78579-0.53058-0.43211
   2   1 -11 3328.35 181.165   1-0.55511 0.55274 0.42058-0.75988-0.49970-0.37496
   2   1 -10 11832.6 345.515   1-0.57870 0.59660 0.43385-0.73169-0.47082-0.31580
   2   1  -9 238.263 115.371   1-0.59868 0.63685 0.44492-0.70130-0.44460-0.25398
   2   1  -8 29660.0 434.834   1-0.61486 0.67331 0.45378-0.66869-0.42201-0.18854
   2   1  -7 2533.26 157.179   1-0.62682 0.70554 0.46024-0.63369-0.40445-0.11806
   2   1  -6 14545.2 262.219   1-0.63359 0.73258 0.46386-0.59586-0.39416-0.04032
   2   1  -5 5137.22 148.796   1-0.63320 0.75247 0.46366-0.55419-0.39476 0.04831
   2   1  -4 26562.4 278.770   1-0.62141 0.76095 0.45732-0.50639-0.41249 0.15409
   2   1  -3 1857.77 79.4271   1-0.58819 0.74801 0.43913-0.44674-0.45858 0.28820
   2   1  -2 55370.9 301.342   1-0.50710 0.68719 0.39304-0.35919-0.55253 0.47019
  -2  -1   2 53140.1 316.185   3 0.15690-0.33699 0.88429-0.91814 0.82760-0.74526
  -2  -1   1 444.809 99.2636   3 0.00890-0.20926 0.60717-0.68249 0.96042-0.96612
   2   1   0 78649.3 384.279   0 0.16447 0.05617-0.06094 0.17772-0.84537 0.93911
  -2  -1  -1 1224.47 65.6042   3-0.28491 0.04400-0.33318 0.17494 0.57995-0.76172
   2   1   1 2016.85 80.1544   0 0.44156-0.20065 0.06420 0.09404-0.66292 0.84469
   2   1   2 16876.4 224.297   0 0.62273-0.36155 0.15444 0.04526-0.48489 0.75470
   2   1   3 534.694 66.7384   0 0.73795-0.45649 0.21729 0.02387-0.33355 0.69139
   2   1   3 481.065 46.9661   2 0.17289 0.10857 0.81201-0.57085-0.09758 0.45543
   2   1   4 7531.07 189.446   0 0.81333-0.51160 0.26234 0.02028-0.20715 0.65302
   2   1   4 7766.97 174.122   2 0.27704 0.02470 0.82197-0.53935-0.03787 0.48375
   2   1   5 16559.4 299.680   0 0.86438-0.54237 0.29600 0.02808-0.09954 0.63346
   2   1   5 17228.8 274.183   2 0.37506-0.05305 0.82175-0.49766 0.02072 0.51319
   2   1   6 3780.16 169.843   0 0.89969-0.55741 0.32210 0.04345-0.00548 0.62743
   2   1   7 35.3934 61.5661   0 0.92410-0.56155 0.34290 0.06410 0.07885 0.63114
   2   1   8 377.338 112.048   0 0.94038-0.55755 0.35979 0.08868 0.15606 0.64196
   2   2 -12 408.721 126.059   1-0.58032 0.56719 0.43475-0.71972-0.46876-0.44881
   2   2 -11 32.4287 53.1211   1-0.60586 0.61300 0.44886-0.69237-0.43474-0.39480
   2   2 -10 1148.62 132.307   1-0.62820 0.65562 0.46098-0.66302-0.40238-0.33913
   2   2  -9 3169.11 181.998   1-0.64743 0.69512 0.47120-0.63178-0.37224-0.28123
  -2  -2   4 27562.4 289.615   3 0.18513-0.33419 0.92150-0.96823 0.77640-0.56311
  -2  -2   3 11426.7 175.978   3 0.12677-0.29611 0.83824-0.92643 0.87173-0.74648
   2   2  -2 304.154 35.2920   1-0.60279 0.79240 0.44718-0.31753-0.43898 0.40176
  -2  -2   2 529.645 111.396   3 0.03077-0.22038 0.65559-0.78525 0.95312-0.91590
  -2  -2   1 14503.5 210.111   3-0.09410-0.11579 0.34649-0.51760 0.94088-0.99170
   2   2  -1 14329.9 174.691   0-0.07390 0.28378-0.15907 0.33019-0.93587 0.98669
  -2  -2   0 129363. 507.446   3-0.20564-0.02451-0.00649-0.20608 0.80309-0.94194
   2   2   0 126878. 524.190   0 0.23788-0.00773-0.02903 0.24160-0.80571 0.94456
   2   2   1 73538.0 436.325   0 0.47746-0.22703 0.08145 0.17259-0.63207 0.85896
  -2  -2  -1 40312.1 314.837   3-0.27660 0.02617-0.29360 0.03957 0.61213-0.83902
   2   2   2 35162.9 336.555   0 0.63992-0.36922 0.16348 0.13202-0.46465 0.77958
   2   2   3 4669.49 148.460   0 0.74746-0.45649 0.22276 0.11419-0.31909 0.72205
   2   2   4 19.0778 42.1568   0 0.81982-0.50857 0.26644 0.11198-0.19472 0.68572
   2   2   5 25.6936 42.9476   0 0.86955-0.53803 0.29964 0.12025-0.08708 0.66611
   2   2   5 50.4040 43.8572   2 0.28406 0.04747 0.82228-0.40240-0.03375 0.61279
   2   2   6 19273.4 360.829   0 0.90407-0.55228 0.32560 0.13574 0.00806 0.65901
   2   2   7 10818.5 305.274   0 0.92774-0.55567 0.34637 0.15644 0.09393 0.66117
   2   2   8 3086.13 226.336   0 0.94315-0.55080 0.36318 0.18108 0.17289 0.67025
   2   3 -12 5703.20 246.972   1-0.62310 0.61949 0.45823-0.64740-0.41000-0.46246
   2   3 -11 531.152 130.876   1-0.64673 0.66340 0.47083-0.61854-0.37337-0.41105
  -2  -3   7 13854.4 293.777   3 0.20058-0.29834 0.93904-0.95718 0.74376-0.31148
  -2  -3   6 10175.1 247.532   3 0.18155-0.29958 0.91713-0.97673 0.78348-0.43924
  -2  -3   5 11.6663 40.1769   3 0.15052-0.28883 0.87506-0.97613 0.83779-0.58158
  -2  -3   4 8096.36 206.653   3 0.10209-0.26067 0.79621-0.93874 0.90079-0.73262
  -2  -3   3 233846. 785.051   3 0.03174-0.21059 0.65768-0.84167 0.95270-0.87257
  -2  -3   2 1283.61 98.8056   3-0.05736-0.14177 0.44578-0.67122 0.95827-0.96617
  -2  -3   1 56169.7 379.537   3-0.14916-0.07024 0.18310-0.45001 0.89079-0.98673
   2   3  -1 55593.8 354.913   0 0.04732 0.17208-0.11020 0.37711-0.89702 0.99295
   2   3   0 37028.4 309.033   0 0.31955-0.07988 0.00748 0.30089-0.75456 0.93853
  -2  -3   0 37455.3 350.063   3-0.22475-0.01493-0.07712-0.23125 0.76270-0.94667
  -2  -3  -1 23.2946 37.3163   3-0.27702 0.01707-0.29558-0.05425 0.61055-0.88256
   2   3   1 70.5728 39.2219   0 0.52619-0.26624 0.10532 0.24451-0.58696 0.85897
   2   3   2 61.4589 62.2541   0 0.66951-0.38929 0.17930 0.21200-0.42807 0.78811
   2   3   3 248.891 66.6496   0 0.76696-0.46646 0.23415 0.19861-0.28827 0.73635
   2   3   4 12630.0 264.348   0 0.83377-0.51300 0.27541 0.19881-0.16691 0.70303
   2   3   5 58551.6 589.469   0 0.88008-0.53904 0.30721 0.20847-0.06048 0.68463
   2   3   6 4261.12 187.558   0 0.91213-0.55081 0.33227 0.22487 0.03452 0.67766
   2   3   7 1971.01 223.381   0 0.93369-0.55210 0.35235 0.24625 0.12086 0.67935
   2   4 -12 787.449 191.980   1-0.65726 0.66317 0.47634-0.56971-0.35589-0.47144
  -2  -4  12 634.674 199.843   3 0.18808-0.19399 0.92502-0.83165 0.77044 0.05690
  -2  -4  11 54.5761 90.0614   3 0.18851-0.21470 0.92552-0.87361 0.76956-0.03026
  -2  -4  10 7101.68 275.323   3 0.18585-0.23231 0.92236-0.91191 0.77497-0.12370
  -2  -4   9 3753.86 205.781   3 0.17925-0.24598 0.91427-0.94528 0.78793-0.22470
  -2  -4   8 19192.1 383.019   3 0.16746-0.25446 0.89893-0.97141 0.80965-0.33445
  -2  -4   7 75.9107 78.2950   3 0.14864-0.25592 0.87229-0.98623 0.84070-0.45354
  -2  -4   6 16506.1 306.587   3 0.12033-0.24788 0.82763-0.98302 0.87991-0.58078
  -2  -4   5 188574. 852.707   3 0.07967-0.22750 0.75496-0.95182 0.92212-0.71102
  -2  -4   4 41097.4 406.159   3 0.02474-0.19284 0.64247-0.88079 0.95553-0.83248
  -2  -4   3 3955.48 143.484   3-0.04295-0.14542 0.48276-0.76255 0.96187-0.92685
  -2  -4   2 14666.0 248.549   3-0.11628-0.09237 0.28289-0.60413 0.92437-0.97739
   2   4  -2 14921.5 200.299   0-0.10316 0.31181-0.17055 0.49180-0.94303 0.99605
  -2  -4   1 11802.9 224.169   3-0.18475-0.04417 0.06668-0.42939 0.84054-0.98159
   2   4  -1 19081.6 228.488   0 0.16947 0.05945-0.05880 0.42150-0.84285 0.98391
   2   4   0 2294.83 94.6379   0 0.40568-0.15648 0.04723 0.35694-0.69191 0.92100
  -2  -4   0 1212.38 117.957   3-0.24044-0.00876-0.13826-0.26591 0.72434-0.95342
   2   4   1 2716.71 109.090   0 0.58295-0.31348 0.13388 0.31175-0.52920 0.84632
  -2  -4  -1 1581.57 125.883   3-0.28118 0.01171-0.31520-0.13043 0.59476-0.91188
   2   4   2 1333.07 84.6720   0 0.70750-0.41775 0.20011 0.28698-0.37751 0.78267
   2   4   3 6942.23 198.785   0 0.79355-0.48353 0.25010 0.27846-0.24326 0.73645
   2   4   4 11901.2 269.452   0 0.85315-0.52286 0.28828 0.28174-0.12542 0.70665
   2   4   5 622.306 173.531   0 0.89446-0.54390 0.31801 0.29347-0.02098 0.69024
  -2  -5  13 131.670 107.957   3 0.15774-0.15290 0.88549-0.84646 0.82621 0.04404
  -2  -5  12 126.398 136.961   3 0.15774-0.17317 0.88549-0.88792 0.82621-0.04399
  -2  -5  11 2621.15 257.410   3 0.15461-0.19031 0.88101-0.92490 0.83131-0.13713
  -2  -5  10 18131.3 440.470   3 0.14766-0.20363 0.87082-0.95617 0.84222-0.23607
  -2  -5   9 774.892 160.682   3 0.13593-0.21218 0.85288-0.97970 0.85937-0.34125
  -2  -5   8 1342.64 169.523   3 0.11817-0.21469 0.82400-0.99228 0.88256-0.45248
  -2  -5   7 1422.69 163.448   3 0.09281-0.20960 0.77947-0.98921 0.91019-0.56814
  -2  -5   6 955.330 134.196   3 0.05830-0.19537 0.71307-0.96427 0.93821-0.68420
  -2  -5   5 1124.14 126.684   3 0.01374-0.17109 0.61810-0.91076 0.95914-0.79317
  -2  -5   4 15813.8 314.957   3-0.03997-0.13765 0.49030-0.82442 0.96239-0.88446
  -2  -5   3 41655.5 426.431   3-0.09923-0.09867 0.33203-0.70761 0.93748-0.94758
  -2  -5   2 25013.4 358.076   3-0.15819-0.05998 0.15446-0.57150 0.87951-0.97764
   2   5  -2 23897.0 265.365   0 0.04475 0.17341-0.11125 0.52830-0.89800 0.99613
   2   5  -1 663.545 75.8871   0 0.29062-0.05218-0.00558 0.46408-0.77355 0.95972
  -2  -5   1 647.837 99.1856   3-0.21104-0.02740-0.02605-0.43245 0.79232-0.97849
  -2  -5   0 25748.7 382.321   3-0.25426-0.00446-0.19493-0.30504 0.68591-0.96011
   2   5   0 25721.6 295.815   0 0.49376-0.23504 0.08937 0.41060-0.61741 0.89161
  -2  -5  -1 21.6664 50.8915   3-0.28709 0.00811-0.34389-0.19754 0.57098-0.93322
   2   5   1 2.25267 31.0509   0 0.64441-0.36542 0.16586 0.37557-0.45924 0.82148
   2   5   2 20.6187 47.6289   0 0.75076-0.45150 0.22467 0.35822-0.31400 0.76427
  -2  -6  13 928.955 161.138   3 0.12682-0.13149 0.83831-0.89508 0.87168-0.04654
  -2  -6  12 5018.54 277.752   3 0.12364-0.14859 0.83312-0.93134 0.87576-0.13865
  -2  -6  11 5583.07 302.178   3 0.11684-0.16207 0.82178-0.96146 0.88415-0.23509
  -2  -6  10 279.281 138.392   3 0.10572-0.17122 0.80262-0.98377 0.89689-0.33586
  -2  -6   9 123.187 91.7069   3 0.08941-0.17518 0.77322-0.99583 0.91343-0.44043
  -2  -6   8 96.8899 58.8367   3 0.06693-0.17297 0.73028-0.99435 0.93220-0.54723
  -2  -6   7 7445.52 249.937   3 0.03740-0.16372 0.66978-0.97532 0.95012-0.65319
  -2  -6   6 1075.96 153.709   3 0.00039-0.14698 0.58768-0.93468 0.96219-0.75330
  -2  -6   5 40426.4 461.843   3-0.04351-0.12336 0.48136-0.86982 0.96176-0.84091
  -2  -6   4 19314.7 361.299   3-0.09225-0.09489 0.35165-0.78157 0.94204-0.90922
   2   6  -3 27972.8 295.863   0-0.04681 0.25422-0.14833 0.61971-0.92847 0.98368
  -2  -6   3 40908.5 455.986   3-0.14242-0.06499 0.20412-0.67550 0.89862-0.95383
  -2  -6   2 15304.9 306.088   3-0.19012-0.03757 0.04825-0.56109 0.83153-0.97478
   2   6  -2 2395.51 86.9447   0 0.19237 0.03532-0.04891 0.56175-0.83098 0.97423
  -2  -6   1 640.655 115.057   3-0.23215-0.01581-0.10557-0.44874 0.74525-0.97653
  -2  -6   0 144.916 112.280   3-0.26681-0.00142-0.24914-0.34662 0.64648-0.96580
  -2  -6  -1 24.4718 45.5540   3-0.29382 0.00531-0.37785-0.25938 0.54175-0.94910
  -2  -7  12 545.769 142.252   3 0.08669-0.12115 0.76817-0.96219 0.91594-0.22396
  -2  -7  11 68.0273 106.111   3 0.07651-0.13125 0.74891-0.98440 0.92475-0.32080
  -2  -7  10 552.824 121.986   3 0.06184-0.13685 0.72017-0.99712 0.93583-0.41991
  -2  -7   9 176.824 105.665   3 0.04205-0.13734 0.67962-0.99803 0.94779-0.51991
  -2  -7   8 5936.82 265.226   3 0.01665-0.13222 0.62462-0.98448 0.95829-0.61844
  -2  -7   7 22987.8 440.350   3-0.01455-0.12128 0.55258-0.95391 0.96384-0.71203
  -2  -7   6 388.368 124.742   3-0.05115-0.10496 0.46185-0.90464 0.96004-0.79626
  -2  -7   5 40596.3 534.460   3-0.09188-0.08451 0.35270-0.83695 0.94228-0.86654
  -2  -7   4 26011.1 415.278   3-0.13461-0.06205 0.22812-0.75384 0.90707-0.91936
  -2  -7   3 7519.65 251.598   3-0.17674-0.04019 0.09371-0.66089 0.85324-0.95357
  -2  -7   2 1472.33 156.421   3-0.21580-0.02141-0.04356-0.56508 0.78241-0.97078
  -2  -7   1 29209.5 454.380   3-0.24998-0.00750-0.17706-0.47304 0.69833-0.97473
  -2  -7   0 11136.9 335.372   3-0.27837 0.00061-0.30187-0.38969 0.60554-0.96997
  -2  -7  -1 3392.60 208.106   3-0.30085 0.00282-0.41513-0.31789 0.50823-0.96071
  -2  -8  12 114.345 132.936   3 0.04799-0.09197 0.69200-0.98182 0.94455-0.29768
  -2  -8  11 155.607 111.894   3 0.03504-0.09930 0.66475-0.99603 0.95123-0.39239
  -2  -8  10 68.2291 136.964   3 0.01776-0.10230 0.62709-0.99983 0.95794-0.48714
  -2  -8   9 9265.19 320.202   3-0.00412-0.10069 0.57721-0.99141 0.96288-0.58012
  -2  -8   8 538.745 133.404   3-0.03068-0.09440 0.51344-0.96911 0.96355-0.66882
  -2  -8   7 6130.16 285.896   3-0.06159-0.08376 0.43471-0.93183 0.95687-0.75018
  -2  -8   6 1163.29 151.359   3-0.09602-0.06961 0.34108-0.87967 0.93963-0.82098
  -2  -8   5 5370.03 244.814   3-0.13258-0.05332 0.23428-0.81433 0.90915-0.87853
  -2  -8   4 13259.7 346.069   3-0.16950-0.03668 0.11773-0.73924 0.86400-0.92142
  -2  -8   3 19010.9 398.569   3-0.20493-0.02152-0.00392-0.65905 0.80448-0.94993
  -2  -8   2 745.171 182.836   3-0.23729-0.00944-0.12573-0.57870 0.73246-0.96594
  -2  -8   1 2030.30 171.692   3-0.26550-0.00150-0.24336-0.50254 0.65082-0.97234
  -2  -8   0 332.242 168.260   3-0.28905 0.00178-0.35362-0.43373 0.56272-0.97227
  -2  -9  12 25.9818 110.518   3 0.00870-0.06220 0.60671-0.99232 0.96047-0.35872
  -2  -9  11 8.54651 80.6646   3-0.00624-0.06755 0.57226-0.99933 0.96315-0.44943
  -2  -9  10 118.946 172.313   3-0.02505-0.06900 0.52724-0.99578 0.96390-0.53821
  -2  -9   9 197.740 145.549   3-0.04775-0.06657 0.47056-0.98056 0.96086-0.62322
  -2  -9   8 10824.4 336.815   3-0.07407-0.06053 0.40151-0.95297 0.95185-0.70224
  -2  -9   7 381.505 170.135   3-0.10342-0.05146 0.32011-0.91303 0.93452-0.77294
  -2  -9   6 7621.81 276.096   3-0.13484-0.04031 0.22742-0.86181 0.90683-0.83329
  -2  -9   5 4362.51 258.670   3-0.16709-0.02833 0.12563-0.80148 0.86744-0.88193
  -2  -9   4 11115.6 355.285   3-0.19881-0.01688 0.01786-0.73517 0.81605-0.91858
  -2  -9   3 263.397 152.127   3-0.22871-0.00726-0.09227-0.66650 0.75349-0.94405
  -2  -9   2 6643.98 286.775   3-0.25576-0.00049-0.20126-0.59898 0.68145-0.96005
  -2  -9   1 5325.18 295.231   3-0.27927 0.00275-0.30612-0.53557 0.60212-0.96875
  -2  -9   0 202.657 184.766   3-0.29892 0.00213-0.40472-0.47844 0.51775-0.97242
  -2 -10  11 2797.45 327.191   3-0.04626-0.03704 0.47438-0.99726 0.96120-0.49260
  -2 -10  10 230.495 167.156   3-0.06565-0.03792 0.42400-0.98833 0.95539-0.57482
  -2 -10   9 536.521 187.418   3-0.08813-0.03572 0.36310-0.96890 0.94453-0.65200
  -2 -10   8 573.003 188.591   3-0.11326-0.03086 0.29172-0.93898 0.92690-0.72241
  -2 -10   7 642.001 182.866   3-0.14034-0.02405 0.21055-0.89927 0.90093-0.78447
  -2 -10   6 232.406 146.318   3-0.16849-0.01618 0.12105-0.85124 0.86545-0.83703
  -2 -10   5 342.470 147.395   3-0.19668-0.00827 0.02539-0.79704 0.81996-0.87957
  -2 -10   4 2626.87 242.786   3-0.22388-0.00134-0.07380-0.73930 0.76469-0.91234
  -2 -10   3 547.622 192.489   3-0.24918 0.00369-0.17379-0.68078 0.70057-0.93626
  -2 -10   2 597.417 212.376   3-0.27190 0.00614-0.27201-0.62402 0.62904-0.95276
  -2 -10   1 6829.81 324.122   3-0.29158 0.00554-0.36638-0.57111 0.55175-0.96350
  -2 -11   9 349.117 174.571   3-0.12503-0.00834 0.25702-0.95861 0.91654-0.66913
  -2 -11   8 15657.0 440.122   3-0.14839-0.00525 0.18552-0.92858 0.89172-0.73234
  -2 -11   7 91.4632 105.893   3-0.17292-0.00100 0.10645-0.89097 0.85901-0.78767
  -2 -11   6 2916.53 257.336   3-0.19783 0.00364 0.02134-0.84732 0.81786-0.83455
  -2 -11   5 927.104 212.093   3-0.22231 0.00785-0.06790-0.79954 0.76821-0.87294
  -2 -11   4 4765.80 280.077   3-0.24560 0.01087-0.15912-0.74979 0.71052-0.90329
   3 -11   5 6066.19 329.907   2 0.91296-0.59964 0.04051-0.85550 0.53682-0.52001
   3 -10   3 12417.2 336.925   2 0.90381-0.62151 0.01503-0.81715 0.53771-0.65185
   3 -10   4 1756.79 274.371   2 0.92444-0.62186 0.07659-0.83725 0.53467-0.56078
   3 -10   5 129.429 111.100   2 0.93734-0.61450 0.12620-0.84540 0.53001-0.46807
   3 -10   6 1058.15 235.034   2 0.94507-0.60195 0.16494-0.84267 0.52496-0.37499
   3 -10   7 8690.89 324.248   2 0.94946-0.58606 0.19385-0.83012 0.52036-0.28236
   3 -10   8 3023.16 339.602   2 0.95179-0.56812 0.21387-0.80869 0.51676-0.19072
   3  -9   2 3217.71 209.794   2 0.91168-0.64014 0.03680-0.78458 0.53698-0.69404
   3  -9   3 562.021 143.036   2 0.93339-0.64157 0.10955-0.81587 0.53180-0.60082
   3  -9   4 609.336 173.909   2 0.94557-0.63348 0.16791-0.83277 0.52452-0.50550
   3  -9   5 7982.38 287.368   2 0.95174-0.61937 0.21338-0.83678 0.51685-0.40980
   3  -9   6 10296.2 319.772   2 0.95436-0.60172 0.24745-0.82939 0.50992-0.31484
   3  -9   7 19571.6 441.997   2 0.95514-0.58223 0.27144-0.81192 0.50441-0.22128
   3  -9   8 17.5355 96.2741   2 0.95517-0.56199 0.28650-0.78552 0.50067-0.12951
   3  -9   9 2548.34 258.485   2 0.95506-0.54160 0.29352-0.75107 0.49885-0.03966
   3  -8   1 1002.26 138.778   1 0.49702-0.23623-0.26706-0.42639-0.72523 0.52526
   3  -8   2 14370.3 320.604   2 0.94006-0.65899 0.13866-0.79065 0.52852-0.64046
   3  -8   3 2114.15 161.996   2 0.95117-0.64983 0.20809-0.81861 0.51784-0.54174
   3  -8   4 485.468 115.718   2 0.95493-0.63332 0.26170-0.83076 0.50671-0.44258
   3  -8   5 4082.97 211.666   2 0.95483-0.61295 0.30168-0.82928 0.49668-0.34451
   3  -8   6 874.450 158.600   2 0.95318-0.59102 0.32997-0.81611 0.48863-0.24843
   3  -8   7 20.2367 67.0755   2 0.95139-0.56895 0.34819-0.79287 0.48302-0.15478
   3  -8   8 46814.8 659.043   2 0.95022-0.54752 0.35764-0.76085 0.47997-0.06369
   3  -8   9 508.142 180.898   2 0.95001-0.52703 0.35926-0.72101 0.47943 0.02488
   3  -8  10 10702.1 361.200   2 0.95073-0.50747 0.35372-0.67401 0.48124 0.11110
   3  -7  -1 5513.33 185.329   1 0.33643-0.10667-0.15200-0.52857-0.80275 0.47182
   3  -7   0 12771.5 279.426   1 0.39387-0.14384-0.19259-0.44652-0.78122 0.53833
   3  -7   1 6535.10 203.130   1 0.45481-0.18450-0.23632-0.36134-0.75114 0.59628
   3  -7   1 7976.21 222.317   2 0.94466-0.67435 0.16258-0.76023 0.52530-0.68016
   3  -7   2 851.955 126.531   1 0.51614-0.22555-0.28112-0.27507-0.71193 0.64511
   3  -7   2 933.557 126.886   2 0.95432-0.66373 0.24667-0.80286 0.51009-0.57692
   3  -7   3 6433.18 210.986   2 0.95446-0.64361 0.31046-0.82519 0.49427-0.47305
   3  -7   4 1296.02 159.655   2 0.95026-0.61913 0.35734-0.83061 0.48006-0.37081
   3  -7   5 424.755 129.862   2 0.94494-0.59354 0.39026-0.82206 0.46868-0.27139
   3  -7   6 10480.8 308.193   2 0.94038-0.56870 0.41161-0.80195 0.46062-0.17530
   3  -7   7 2609.08 194.158   2 0.93750-0.54554 0.42324-0.77212 0.45600-0.08265
   3  -7   8 31095.3 523.135   2 0.93664-0.52441 0.42651-0.73393 0.45467 0.00672
   3  -7   9 10794.7 337.925   2 0.93773-0.50522 0.42235-0.68831 0.45636 0.09307
   3  -7  10 152.282 147.049   2 0.94043-0.48766 0.41136-0.63585 0.46072 0.17674
   3  -7  11 223.304 135.454   2 0.94425-0.47120 0.39380-0.57683 0.46738 0.25812
   3  -6  -3 27.8797 61.7334   1 0.15389 0.04484-0.02626-0.64144-0.83499 0.37311
   3  -6  -2 3167.17 168.886   1 0.20683 0.01217-0.06226-0.56398-0.83079 0.45695
   3  -6  -1 15140.7 285.515   1 0.27006-0.03078-0.10574-0.47903-0.82042 0.53461
   3  -6   0 2021.52 127.854   1 0.34106-0.08151-0.15525-0.38806-0.80124 0.60346
   3  -6   0 2187.81 140.209   2 0.94732-0.68776 0.17876-0.72207 0.52285-0.72063
   3  -6   1 6860.22 182.546   3-0.29899 0.57882-0.40509-0.09677 0.51741-0.62715
   3  -6   1 6595.69 186.903   2 0.95520-0.67537 0.28345-0.78531 0.50144-0.61118
   3  -6   1 6559.97 206.627   1 0.41611-0.13628-0.20847-0.29339-0.77117 0.66143
   3  -6   2 3341.77 150.750   1 0.49084-0.19073-0.26253-0.19786-0.72931 0.70761
   3  -6   2 3452.73 154.395   2 0.94984-0.64974 0.36050-0.82090 0.47902-0.50073
   3  -6   3 4507.33 172.001   2 0.93943-0.61905 0.41555-0.83448 0.45907-0.39274
   3  -6   4 16975.1 324.968   2 0.92870-0.58805 0.45335-0.83082 0.44324-0.28887
   3  -6   5 9592.37 254.586   2 0.92013-0.55920 0.47758-0.81359 0.43207-0.18967
   3  -6   6 13015.3 313.347   2 0.91478-0.53358 0.49095-0.78550 0.42555-0.09511
   3  -6   7 71.3440 62.2735   2 0.91292-0.51144 0.49537-0.74845 0.42333-0.00486
   3  -6   8 20291.0 412.508   2 0.91429-0.49254 0.49213-0.70375 0.42496 0.08155
   3  -6   9 3599.09 225.959   0 0.95416-0.51213 0.39262-0.56278 0.35079 0.24375
   3  -6   9 3308.72 208.961   2 0.91840-0.47638 0.48202-0.65218 0.42994 0.16461
   3  -6  10 5443.73 251.049   2 0.92459-0.46229 0.46546-0.59416 0.43776 0.24482
   3  -5  -4 1459.95 133.155   1 0.01670 0.17128 0.06543-0.67880-0.82806 0.32326
   3  -5  -3 9797.14 239.208   1 0.06546 0.14279 0.03311-0.60501-0.83339 0.41663
   3  -5  -2 16852.4 300.242   1 0.12846 0.10007-0.00909-0.52135-0.83561 0.50688
   3  -5  -1 103.677 62.0344   1 0.20468 0.04412-0.06079-0.42819-0.83104 0.59035
   3  -5   0 2978.90 119.128   2 0.95404-0.68497 0.31804-0.76556 0.49212-0.64478
   3  -5   0 2869.43 142.249   1 0.29104-0.02196-0.12029-0.32723-0.81562 0.66296
   3  -5   1 12102.8 239.584   1 0.38236-0.09301-0.18441-0.22164-0.78604 0.72141
   3  -5   1 12398.7 232.369   2 0.93998-0.65063 0.41326-0.81932 0.45998-0.52460
   3  -5   2 16276.6 280.256   1 0.47234-0.16271-0.24903-0.11556-0.74093 0.76434
   3  -5   2 16364.5 268.712   2 0.91996-0.61034 0.47801-0.84261 0.43187-0.40845
   3  -5   3 3245.22 145.696   2 0.90126-0.57136 0.52061-0.84375 0.41007-0.29862
   3  -5   4 14053.4 286.258   2 0.88711-0.53694 0.54701-0.82868 0.39504-0.19556
   3  -5   5 810.776 88.6317   0 0.93336-0.56291 0.35200-0.59221 0.11927 0.16825
   3  -5   5 602.775 127.427   2 0.87857-0.50813 0.56126-0.80147 0.38639-0.09887
   3  -5   6 314.047 93.6783   0 0.94065-0.54993 0.36011-0.55885 0.15762 0.21793
   3  -5   6 350.854 102.731   2 0.87555-0.48483 0.56604-0.76479 0.38339-0.00783
   3  -5   7 110.485 69.8078   2 0.87745-0.46645 0.56305-0.72034 0.38527 0.07832
   3  -5   7 53.1892 73.0917   0 0.94675-0.53576 0.36809-0.52538 0.19811 0.26548
   3  -5   8 24521.4 406.144   0 0.95129-0.52002 0.37570-0.49153 0.23994 0.31169
   3  -5   8 24062.5 424.357   2 0.88341-0.45214 0.55332-0.66914 0.39126 0.16037
   3  -5   9 1609.17 201.510   0 0.95401-0.50247 0.38280-0.45716 0.28266 0.35700
   3  -5   9 1306.10 176.045   2 0.89253-0.44098 0.53737-0.61173 0.40068 0.23898
   3  -5  10 380.228 157.762   0 0.95472-0.48290 0.38927-0.42217 0.32603 0.40167
   3  -5  10 221.269 117.865   2 0.90384-0.43202 0.51534-0.54824 0.41293 0.31477
   3  -4  -6 2045.39 126.429   1-0.14115 0.29810 0.16816-0.76865-0.78935 0.15360
   3  -4  -5 8952.95 226.523   1-0.11665 0.29387 0.15241-0.71144-0.79754 0.24982
   3  -4  -4 1859.82 128.555   1-0.07787 0.27537 0.12734-0.64491-0.80884 0.34915
   3  -4  -3 15901.3 292.084   1-0.02268 0.24045 0.09134-0.56744-0.82148 0.44984
   3  -4  -2 44.1247 36.5299   1 0.05039 0.18766 0.04313-0.47777-0.83208 0.54847
   3  -4  -1 50955.0 453.224   1 0.14087 0.11746-0.01745-0.37573-0.83542 0.63984
   3  -4  -1 52374.2 369.995   2 0.95124-0.69292 0.34945-0.74263 0.48262-0.67819
   3  -4   0 4752.64 151.585   1 0.24504 0.03355-0.08847-0.26325-0.82525 0.71771
   3  -4   0 4982.12 137.579   2 0.92246-0.64387 0.47136-0.82308 0.43502-0.54256
   3  -4   1 2397.35 89.9610   3-0.29885 0.59772-0.40433 0.09407 0.51810-0.53760
   3  -4   1 2278.52 122.479   1 0.35557-0.05670-0.16547-0.14479-0.79626 0.77675
   3  -4   1 2206.12 106.815   2 0.88694-0.58807 0.54731-0.85757 0.39486-0.41436
   3  -4   2 227.779 65.8540   2 0.85653-0.53739 0.59362-0.86242 0.36515-0.29662
   3  -4   2 322.525 83.3909   1 0.46307-0.14393-0.24230-0.02650-0.74642 0.81495
   3  -4   2 330.976 56.2907   0 0.78183-0.46269 0.24300-0.51180-0.26356 0.33209
   3  -4   3 13890.2 250.880   2 0.83508-0.49566 0.62048-0.84781 0.34564-0.18907
   3  -4   3 15144.1 200.880   0 0.83957-0.50015 0.27920-0.50654-0.15489 0.31146
   3  -4   4 43174.4 448.426   2 0.82298-0.46329 0.63405-0.81993 0.33503-0.09043
   3  -4   4 44426.6 380.143   0 0.87580-0.51611 0.30410-0.48997-0.07152 0.31612
   3  -4   5 639.978 122.432   2 0.81929-0.43933 0.63800-0.78242 0.33184 0.00080
   3  -4   5 558.598 104.078   0 0.90115-0.52118 0.32325-0.46766-0.00105 0.33369
   3  -4   6 496.160 117.085   2 0.82263-0.42239 0.63444-0.73739 0.33472 0.08595
   3  -4   6 441.078 87.8401   0 0.91980-0.51957 0.33897-0.44192 0.06212 0.35856
   3  -4   7 1032.59 158.221   0 0.93368-0.51316 0.35234-0.41383 0.12081 0.38790
   3  -4   7 1101.98 122.507   2 0.83157-0.41105 0.62453-0.68602 0.34253 0.16618
   3  -4   8 34967.7 489.049   0 0.94372-0.50293 0.36392-0.38395 0.17659 0.42015
   3  -4   8 36125.3 501.423   2 0.84476-0.40398 0.60883-0.62886 0.35433 0.24241
   3  -4   9 16262.8 370.369   2 0.86100-0.39994 0.58749-0.56606 0.36935 0.31543
   3  -4   9 16369.3 379.259   0 0.95041-0.48935 0.37402-0.35259 0.23037 0.45441
   3  -4  10 3074.68 241.173   0 0.95401-0.47268 0.38281-0.31992 0.28274 0.49007
   3  -3  -7 446.870 106.598   1-0.24956 0.39576 0.23693-0.78308-0.74299 0.06432
   3  -3  -6 17166.2 338.297   1-0.23701 0.40348 0.22905-0.73374-0.74923 0.15860
   3  -3  -5 32299.4 416.753   1-0.21169 0.39844 0.21308-0.67631-0.76112 0.25852
   3  -3  -4 34.1190 50.7360   1-0.17055 0.37757 0.18696-0.60873-0.77844 0.36387
   3  -3  -3 1601.86 124.814   1-0.11004 0.33733 0.14815-0.52846-0.79961 0.47308
   3  -3  -2 2069.33 110.597   1-0.02698 0.27455 0.09416-0.43301-0.82064 0.58215
   3  -3  -2 2026.59 67.5234   2 0.94768-0.70011 0.37488-0.71373 0.47415-0.71264
   3  -3  -1 10298.5 199.311   1 0.07943 0.18841 0.02379-0.32118-0.83434 0.68388
   3  -3  -1 9105.53 147.811   2 0.89096-0.62312 0.54020-0.83759 0.39904-0.54950
   3  -3   0 232064. 766.354   2 0.82929-0.54118 0.62710-0.88302 0.34053-0.40296
   3  -3   0 230956. 872.004   1 0.20489 0.08322-0.06093-0.19499-0.83102 0.76860
   3  -3   1 15005.2 222.952   2 0.78239-0.47400 0.67326-0.88772 0.30101-0.27540
   3  -3   1 14336.2 163.343   0 0.51105-0.20266 0.09785-0.31231-0.60139 0.62700
   3  -3   1 14233.8 232.086   1 0.33867-0.03028-0.15357-0.06089-0.80203 0.82764
   3  -3   2 322.821 73.3038   2 0.75276-0.42409 0.69701-0.87001 0.27739-0.16374
   3  -3   2 195.665 79.1529   1 0.46633-0.13767-0.24467 0.07167-0.74451 0.85816
   3  -3   2 156.754 49.2675   0 0.67413-0.34546 0.18179-0.35479-0.42215 0.53580
   3  -3   3 5705.22 171.026   2 0.73828-0.38934 0.70741-0.83895 0.26615-0.06447
   3  -3   3 5850.92 137.530   0 0.76927-0.42033 0.23551-0.36705-0.28450 0.48619
   3  -3   4 296.678 72.4514   0 0.82941-0.46020 0.27258-0.36266-0.17578 0.46550
   3  -3   4 291.911 60.1134   2 0.73599-0.36678 0.70899-0.79907 0.26439 0.02533
   3  -3   5 32078.6 401.289   2 0.74312-0.35363 0.70401-0.75263 0.26989 0.10787
   3  -3   5 31078.0 370.073   0 0.87028-0.48080 0.30015-0.34877-0.08528 0.46304
   3  -3   6 9020.61 241.900   2 0.75734-0.34758 0.69356-0.70071 0.28099 0.18480
   3  -3   6 8966.91 232.059   0 0.89938-0.48963 0.32185-0.32901-0.00642 0.47221
   3  -3   7 262.103 107.586   2 0.77676-0.34673 0.67804-0.64374 0.29646 0.25737
   3  -3   7 225.228 82.4206   0 0.92050-0.49047 0.33960-0.30529 0.06476 0.48907
   3  -3   8 3034.31 168.817   0 0.93567-0.48536 0.35446-0.27869 0.13064 0.51122
   3  -3   8 2913.32 165.979   2 0.79983-0.34953 0.65748-0.58171 0.31536 0.32650
   3  -3   9 1472.10 201.576   2 0.82524-0.35466 0.63160-0.51437 0.33699 0.39291
   3  -3   9 1398.03 204.643   0 0.94604-0.47546 0.36707-0.24984 0.19276 0.53714
   3  -2  -9 797.922 134.067   1-0.33291 0.44808 0.28870-0.82198-0.69517-0.11445
   3  -2  -8 7372.85 259.822   1-0.33986 0.47530 0.29297-0.78479-0.69066-0.03093
   3  -2  -7 6245.16 233.219   1-0.33848 0.49420 0.29212-0.74248-0.69156 0.05800
   3  -2  -6 12118.5 281.270   1-0.32688 0.50287 0.28499-0.69388-0.69902 0.15350
   3  -2  -5 147.580 65.8921   1-0.30219 0.49846 0.26974-0.63717-0.71412 0.25663
   3  -2  -4 2814.96 133.853   1-0.26032 0.47686 0.24367-0.56964-0.73744 0.36799
   3  -2  -3 14581.6 240.220   1-0.19588 0.43269 0.20307-0.48758-0.76806 0.48665
   3  -2  -2 59483.0 300.926   2 0.82531-0.56822 0.63152-0.87457 0.33705-0.53043
   3  -2  -2 59126.5 443.243   1-0.10304 0.36012 0.14363-0.38668-0.80173 0.60836
   3  -2  -1 465.204 53.9886   2 0.71980-0.44244 0.71968-0.92127 0.25205-0.35739
   3  -2  -1 624.898 87.4048   1 0.02156 0.25580 0.06222-0.26381-0.82873 0.72339
   3  -2   0 1884.27 70.9774   0 0.15896 0.13868-0.06330-0.09682-0.84812 0.83081
   3  -2   0 1605.43 69.4257   2 0.65437-0.35674 0.75553-0.91566 0.20404-0.22134
   3  -2   0 1735.54 83.8325   1 0.17338 0.12426-0.03947-0.12066-0.83391 0.81660
   3  -2   1 6927.34 127.544   0 0.42696-0.10905 0.05726-0.17593-0.67494 0.74567
   3  -2   1 6847.73 153.568   2 0.62057-0.30266 0.77019-0.88885 0.18019-0.10947
   3  -2   1 6886.14 155.955   1 0.33607-0.01816-0.15175 0.03308-0.80287 0.87360
   3  -2   2 16028.1 231.745   2 0.60935-0.27116 0.77455-0.85175 0.17240-0.01364
   3  -2   2 15662.4 224.932   1 0.48662-0.14844-0.25945 0.18224-0.73204 0.89080
   3  -2   2 15960.8 209.500   0 0.60520-0.26701 0.14532-0.22252-0.50484 0.66361
   3  -2   3 37857.9 350.523   0 0.71913-0.36067 0.20662-0.24236-0.36111 0.60791
   3  -2   3 37751.6 382.111   2 0.61401-0.25556 0.77276-0.80850 0.17564 0.07116
   3  -2   4 18847.4 295.429   2 0.62987-0.25114 0.76638-0.76066 0.18670 0.14814
   3  -2   4 18514.2 277.673   0 0.79435-0.41562 0.25059-0.24487-0.24185 0.57668
   3  -2   5 71752.5 577.552   0 0.84624-0.44723 0.28363-0.23644-0.14066 0.56353
   3  -2   5 70819.6 574.767   2 0.65360-0.25460 0.75589-0.70871 0.20349 0.21938
   3  -2   6 598.597 124.454   2 0.68281-0.26353 0.74127-0.65263 0.22458 0.28633
   3  -2   6 509.663 112.535   0 0.88323-0.46395 0.30952-0.22088-0.05219 0.56309
   3  -2   7 40511.7 492.592   2 0.71570-0.27614 0.72226-0.59216 0.24896 0.34998
   3  -2   7 39825.0 516.430   0 0.91000-0.47045 0.33048-0.20037 0.02731 0.57163
   3  -2   8 5290.22 212.523   2 0.75086-0.29104 0.69841-0.52684 0.27591 0.41107
   3  -2   8 4284.53 203.990   0 0.92922-0.46939 0.34781-0.17624 0.10033 0.58664
   3  -2   9 1344.26 245.114   0 0.94247-0.46237 0.36233-0.14931 0.16862 0.60639
   3  -1 -10 47.1901 89.3997   1-0.39751 0.50192 0.32807-0.80702-0.64980-0.20275
   3  -1  -9 1333.87 155.241   1-0.41160 0.53629 0.33657-0.77405-0.63882-0.12569
   3  -1  -8 5161.95 206.486   1-0.41926 0.56423 0.34117-0.73719-0.63268-0.04379
   3  -1  -7 31577.9 450.071   1-0.41924 0.58447 0.34115-0.69571-0.63270 0.04427
   3  -1  -6 590.955 134.416   1-0.40948 0.59499 0.33529-0.64839-0.64050 0.14010
   3  -1  -5 65985.9 547.069   1-0.38670 0.59248 0.32153-0.59317-0.65794 0.24558
   3  -1  -4 49672.4 437.468   1-0.34577 0.57183 0.29659-0.52677-0.68675 0.36242
   3  -1  -3 24088.3 285.557   1-0.27909 0.52543 0.25539-0.44410-0.72733 0.49104
   3  -1  -2 43027.4 253.424   2 0.49400-0.22740 0.80717-0.95442 0.09539-0.24365
   3  -1  -2 51182.1 386.414   1-0.17685 0.44346 0.19098-0.33823-0.77594 0.62768
   3  -1  -1 13508.9 165.613   2 0.43024-0.14335 0.81709-0.92288 0.05483-0.11506
   3  -1  -1 13826.4 196.863   1-0.03085 0.31774 0.09670-0.20249-0.81986 0.75964
   3  -1   0 15353.7 188.270   0 0.14196 0.16519-0.07056 0.00623-0.85639 0.88420
   3  -1   0 15539.2 198.114   2 0.41109-0.10394 0.81910-0.88343 0.04290-0.01509
   3  -1   1 1013.86 60.7726   0 0.39099-0.06356 0.04035-0.06322-0.70327 0.81912
   3  -1   1 991.015 69.3958   2 0.41779-0.09036 0.81845-0.84132 0.04706 0.06879
   3  -1   1 1255.20 78.3752   1 0.35482-0.02739-0.16493 0.14207-0.79652 0.91237
   3  -1   2 3861.14 110.501   1 0.52980-0.18209-0.29123 0.30983-0.70176 0.90565
   3  -1   2 3403.88 121.340   2 0.44046-0.09276 0.81584-0.79725 0.06125 0.14263
   3  -1   2 3394.55 112.736   0 0.56866-0.22096 0.12661-0.10801-0.54432 0.74820
   3  -1   3 43929.6 404.813   2 0.47343-0.10545 0.81094-0.75088 0.08216 0.20976
   3  -1   3 43735.5 394.900   0 0.68947-0.32149 0.19016-0.13010-0.40205 0.69397
   3  -1   4 1983.69 110.189   2 0.51311-0.12486 0.80315-0.70164 0.10780 0.27215
   3  -1   4 1817.06 108.557   0 0.77243-0.38418 0.23739-0.13587-0.27931 0.65926
   3  -1   5 270.135 113.208   0 0.83087-0.42235 0.27352-0.13055-0.17283 0.64082
   3  -1   5 366.510 82.7693   2 0.55715-0.14862 0.79190-0.64892 0.13690 0.33108
   3  -1   6 12394.1 275.905   2 0.60388-0.17508 0.77659-0.59215 0.16863 0.38739
   3  -1   6 11909.0 282.143   0 0.87293-0.44413 0.30204-0.11760-0.07874 0.63476
   3  -1   7 24433.6 389.042   2 0.65207-0.20300 0.75661-0.53071 0.20239 0.44167
   3  -1   7 23622.3 417.511   0 0.90346-0.45439 0.32511-0.09920 0.00613 0.63793
   3  -1   8 1980.28 152.196   0 0.92539-0.45605 0.34412-0.07675 0.08410 0.64800
   3  -1   9 63.8419 106.388   0 0.94052-0.45090 0.35995-0.05112 0.15686 0.66327
   3   0 -11 5.30915 70.0474   1-0.44713 0.54080 0.35781-0.78242-0.60926-0.28620
   3   0 -10 62.0679 71.2772   1-0.46644 0.58038 0.36924-0.75239-0.59199-0.21544
   3   0  -9 893.744 155.590   1-0.48071 0.61491 0.37764-0.71932-0.57864-0.14075
   3   0  -8 6557.59 231.400   1-0.48925 0.64373 0.38264-0.68287-0.57040-0.06096
   3   0  -7 3442.22 173.109   1-0.49087 0.66563 0.38359-0.64235-0.56881 0.02549
   3   0  -6 1066.16 126.104   1-0.48350 0.67853 0.37927-0.59657-0.57597 0.12069
   3   0  -5 20230.5 301.579   1-0.46360 0.67890 0.36756-0.54340-0.59460 0.22735
   3   0  -4 965.569 87.2037   1-0.42516 0.66074 0.34470-0.47908-0.62787 0.34866
   3   0  -3 65676.6 443.653   1-0.35813 0.61398 0.30415-0.39707-0.67838 0.48721
   3   0  -2 21.0372 24.5872   1-0.24707 0.52319 0.23536-0.28682-0.74425 0.64111
   3   0  -1 6002.69 124.059   1-0.07478 0.37118 0.12533-0.13533-0.80965 0.79454
   3   0   0 74570.9 423.722   0 0.15834 0.15834-0.06357 0.09504-0.84843 0.92136
   3   0   0 73513.6 380.531   1 0.15834 0.15834-0.02927 0.06074-0.83479 0.90772
   3   0   1 931.092 71.2440   2 0.21185 0.12510 0.81691-0.74398-0.07554 0.23650
   3   0   1 910.906 64.9430   0 0.38716-0.05022 0.03857 0.03436-0.70618 0.86714
   3   0   1 938.093 63.6599   1 0.40648-0.06953-0.20158 0.27451-0.77565 0.93661
   3   0   2 11317.1 200.844   0 0.55711-0.19988 0.12077-0.00638-0.55625 0.80524
   3   0   2 11945.5 210.690   2 0.27089 0.08633 0.82167-0.70727-0.04147 0.29047
   3   0   3 6134.18 172.586   2 0.33315 0.04434 0.82305-0.66719-0.00463 0.34166
   3   0   3 6345.82 167.912   0 0.67761-0.30011 0.18368-0.02783-0.41765 0.75468
   3   0   4 1619.07 108.943   0 0.76296-0.36519 0.23179-0.03448-0.29473 0.71980
   3   0   4 1836.85 115.159   2 0.39713 0.00064 0.82030-0.62299 0.03426 0.39081
   3   0   5 90645.3 698.030   0 0.82425-0.40621 0.26926-0.03049-0.18606 0.69916
   3   0   5 88407.3 644.423   2 0.46176-0.04372 0.81283-0.57405 0.07472 0.43838
   3   0   6 3703.43 168.939   2 0.52630-0.08798 0.80009-0.51985 0.11644 0.48470
   3   0   6 3218.93 158.617   0 0.86880-0.43049 0.29910-0.01887-0.08891 0.69005
   3   0   7 701.783 133.420   0 0.90125-0.44266 0.32334-0.00164-0.00072 0.68989
   3   0   8 461.687 146.900   0 0.92453-0.44566 0.34330 0.01986 0.08056 0.69665
   3   1 -12 332.854 135.579   1-0.48400 0.56690 0.37957-0.74984-0.57549-0.36289
   3   1 -11 612.742 148.926   1-0.50695 0.61013 0.39295-0.72176-0.55268-0.29766
   3   1 -10 2327.77 284.553   1-0.52573 0.64919 0.40380-0.69115-0.53290-0.22941
   3   1  -9 11032.7 311.417   1-0.54008 0.68381 0.41203-0.65792-0.51704-0.15724
   3   1  -8 15043.5 332.428   1-0.54942 0.71342 0.41735-0.62178-0.50636-0.07988
   3   1  -7 9395.88 261.696   1-0.55264 0.73692 0.41918-0.58214-0.50261 0.00440
   3   1  -6 24.1113 35.8444   1-0.54777 0.75232 0.41641-0.53792-0.50826 0.09810
   3   1  -5 26216.1 326.715   1-0.53127 0.75609 0.40698-0.48703-0.52686 0.20473
   3   1  -4 91433.7 542.086   1-0.49650 0.74159 0.38687-0.42545-0.56325 0.32915
   3   1  -3 6579.24 144.488   1-0.43094 0.69631 0.34816-0.34528-0.62308 0.47702
  -3  -1   3 5908.94 136.377   3 0.18169-0.44706 0.91730-0.92018 0.78322-0.63716
   3   1  -2 16.1887 20.0840   1-0.31162 0.59726 0.27557-0.23123-0.70847 0.65045
  -3  -1   2 30.0856 37.0126   3 0.09842-0.38407 0.78965-0.83400 0.90460-0.84658
   3   1  -1 1535.53 80.4691   0-0.05129 0.35721-0.15012 0.23592-0.92974 0.95975
  -3  -1   1 1636.63 72.6334   3-0.04147-0.26445 0.48652-0.57232 0.96214-0.99215
   3   1  -1 1480.96 62.1851   1-0.10476 0.41068 0.14474-0.05894-0.80122 0.83123
   3   1   0 74230.1 339.895   1 0.19971 0.12649-0.05739 0.18466-0.83159 0.94964
   3   1   0 76235.3 457.892   0 0.19659 0.12960-0.04708 0.17435-0.82873 0.94677
  -3  -1   0 77972.5 341.372   3-0.19345-0.13275 0.03669-0.16396 0.82574-0.94378
   3   1   1 64410.1 447.966   0 0.40552-0.05906 0.04715 0.12157-0.69203 0.89811
  -3  -1  -1 66937.5 351.380   3-0.28572-0.06075-0.33713 0.16841 0.57665-0.78273
   3   1   2 589.516 61.3402   0 0.56439-0.19765 0.12444 0.08575-0.54876 0.84287
   3   1   3 41959.3 416.054   2 0.20850 0.17851 0.81654-0.56489-0.07745 0.45960
   3   1   3 40046.8 412.345   0 0.68031-0.29329 0.18515 0.06650-0.41413 0.79629
   3   1   4 21708.5 336.879   0 0.76433-0.35704 0.23260 0.06052-0.29253 0.76271
   3   1   4 22235.5 330.538   2 0.29255 0.11474 0.82258-0.52947-0.02876 0.49895
   3   1   5 62748.6 600.826   0 0.82559-0.39802 0.27012 0.06445-0.18342 0.74164
   3   1   5 65881.4 576.065   2 0.37501 0.05255 0.82175-0.48718 0.02069 0.53753
   3   1   6 9433.46 246.983   2 0.45555-0.00771 0.81377-0.43773 0.07078 0.57548
   3   1   6 9337.12 273.344   0 0.87046-0.42263 0.30028 0.07576-0.08485 0.73110
   3   1   7 745.741 218.529   0 0.90318-0.43507 0.32488 0.09262 0.00525 0.72904
   3   1   8 524.401 141.057   0 0.92649-0.43810 0.34516 0.11380 0.08864 0.73369
   3   2 -12 122.796 121.554   1-0.53573 0.62816 0.40955-0.68402-0.52191-0.37135
   3   2 -11 2017.21 177.567   1-0.55754 0.67024 0.42195-0.65497-0.49683-0.30840
   3   2 -10 91.4326 99.0161   1-0.57564 0.70862 0.43214-0.62369-0.47469-0.24251
   3   2  -9 18033.9 391.890   1-0.58985 0.74310 0.44005-0.59014-0.45640-0.17276
   3   2  -8 21572.2 385.411   1-0.59967 0.77320 0.44547-0.55410-0.44324-0.09788
   3   2  -7 975.613 149.319   1-0.60416 0.79795 0.44793-0.51510-0.43709-0.01599
   3   2  -6 625.780 98.2731   1-0.60153 0.81560 0.44649-0.47220-0.44071 0.07566
   3   2  -5 19961.1 284.768   1-0.58837 0.82272 0.43923-0.42347-0.45834 0.18132
  -3  -2   5 16949.2 266.894   3 0.18999-0.42434 0.92725-0.94300 0.76652-0.48950
   3   2  -4 4201.66 127.628   1-0.55781 0.81243 0.42211-0.36489-0.49650 0.30752
  -3  -2   4 4080.21 151.486   3 0.15107-0.40569 0.87586-0.93308 0.83694-0.64796
   3   2  -3 25741.7 254.037   1-0.49509 0.76998 0.38605-0.28737-0.56465 0.46370
  -3  -2   3 25949.4 284.012   3 0.08775-0.36264 0.77014-0.86882 0.91497-0.81403
   3   2  -2 2522.57 78.4379   1-0.36746 0.66263 0.30985-0.16971-0.67188 0.65897
  -3  -2   2 2565.57 107.692   3-0.00545-0.28972 0.57410-0.71424 0.96305-0.95014
  -3  -2   1 23638.4 245.518   3-0.11632-0.19912 0.28276-0.46436 0.92434-0.99946
   3   2  -1 22569.3 256.490   0 0.02305 0.29239-0.12015 0.30175-0.90598 0.98111
   3   2   0 4487.15 133.111   0 0.24973 0.08598-0.02380 0.24686-0.79876 0.96192
  -3  -2   0 4660.88 129.923   3-0.21369-0.12202-0.03578-0.18729 0.78685-0.95001
   3   2   1 30.4862 28.7419   0 0.43947-0.08348 0.06320 0.20132-0.66466 0.91586
  -3  -2  -1 86.7735 72.6627   3-0.27842-0.07757-0.30213 0.03760 0.60533-0.85652
   3   2   2 32521.5 368.458   0 0.58572-0.20946 0.13530 0.17069-0.52622 0.86545
   3   2   3 56223.9 509.755   0 0.69450-0.29797 0.19292 0.15453-0.39530 0.82257
   3   2   4 4344.22 176.287   0 0.77465-0.35784 0.23870 0.15021-0.27564 0.79094
   3   2   4 4282.07 171.606   2 0.20624 0.21057 0.81629-0.42738-0.07873 0.59404
   3   2   5 1805.68 157.901   0 0.83370-0.39661 0.27536 0.15501-0.16708 0.77041
   3   2   5 1580.92 114.912   2 0.30224 0.13484 0.82284-0.39247-0.02304 0.62638
   3   2   6 367.989 128.021   0 0.87712-0.41976 0.30505 0.16678-0.06815 0.75952
   3   2   7 168.482 145.866   0 0.90867-0.43104 0.32937 0.18393 0.02288 0.75653
   3   3 -12 646.856 178.014   1-0.57893 0.68088 0.43397-0.61265-0.47053-0.37761
   3   3 -11 79.0889 83.3742   1-0.59946 0.72168 0.44535-0.58257-0.44354-0.31657
   3   3 -10 5040.32 235.286   1-0.61667 0.75916 0.45475-0.55051-0.41940-0.25267
   3   3  -9 2794.90 196.311   1-0.63041 0.79318 0.46216-0.51646-0.39903-0.18501
   3   3  -8 29718.5 423.526   1-0.64029 0.82334 0.46743-0.48026-0.38369-0.11231
  -3  -3   8 27796.5 455.365   3 0.19534-0.37838 0.93334-0.92051 0.75523-0.25923
   3   3  -7 1837.98 133.011   1-0.64552 0.84884 0.47019-0.44156-0.37534-0.03263
  -3  -3   7 1919.69 158.603   3 0.18141-0.38473 0.91696-0.94559 0.78375-0.37578
  -3  -3   6 10207.0 260.015   3 0.15900-0.38259 0.88727-0.95736 0.82413-0.50420
   3   3  -6 10887.9 236.932   1-0.64453 0.86812 0.46967-0.39958-0.37693 0.05700
   3   3  -5 14850.3 242.819   1-0.63417 0.87803 0.46417-0.35262-0.39326 0.16137
  -3  -3   5 14960.3 279.904   3 0.12455-0.36841 0.83461-0.94616 0.87461-0.64271
   3   3  -4 39070.2 337.066   1-0.60753 0.87167 0.44978-0.29676-0.43240 0.28854
  -3  -3   4 38153.8 370.780   3 0.07395-0.33809 0.74398-0.89700 0.92682-0.78296
   3   3  -3 2153.93 83.1876   1-0.54798 0.83239 0.41653-0.22205-0.50803 0.45220
  -3  -3   3 1818.02 113.844   3 0.00501-0.28942 0.59831-0.79278 0.96130-0.90547
  -3  -3   2 13929.4 224.635   3-0.07769-0.22700 0.39174-0.62767 0.95013-0.98234
   3   3  -2 13420.6 150.684   1-0.41001 0.71470 0.33561-0.09967-0.64008 0.67229
   3   3  -1 9416.03 184.587   0 0.10665 0.21831-0.08550 0.36290-0.87262 0.99286
  -3  -3   1 9326.74 202.510   3-0.16076-0.16420 0.14620-0.42360 0.87612-0.99637
   3   3   0 5650.82 150.229   0 0.31315 0.03208 0.00458 0.31428-0.75885 0.96712
  -3  -3   0 5685.10 172.461   3-0.22979-0.11544-0.09643-0.22243 0.75093-0.95920
  -3  -3  -1 32551.4 361.047   3-0.27891-0.08659-0.30444-0.05588 0.60347-0.89978
   3   3   1 32686.9 363.167   0 0.48444-0.11893 0.08483 0.27549-0.62584 0.92216
   3   3   2 4935.77 170.377   0 0.61742-0.23164 0.15166 0.25012-0.49102 0.87537
   3   3   3 23.8180 38.4117   0 0.71752-0.31147 0.20572 0.23753-0.36340 0.83578
   3   3   4 27266.7 401.921   0 0.79204-0.36571 0.24917 0.23553-0.24593 0.80635
   3   3   5 11071.8 288.677   0 0.84723-0.40063 0.28429 0.24188-0.13849 0.78695
   3   3   6 156.947 86.9464   0 0.88777-0.42090 0.31291 0.25472-0.03987 0.77636
   3   4 -12 49.1013 91.4734   1-0.61428 0.72574 0.45346-0.53634-0.42285-0.38018
  -3  -4  12 429.003 208.082   3 0.17902-0.29049 0.91398-0.83110 0.78837 0.01466
   3   4 -11 185.171 119.016   1-0.63339 0.76513 0.46376-0.50518-0.39446-0.32053
  -3  -4  11 434.963 154.766   3 0.17804-0.30978 0.91275-0.87133 0.79024-0.07525
   3   4 -10 2155.99 213.219   1-0.64948 0.80149 0.47228-0.47223-0.36889-0.25807
  -3  -4  10 1706.19 199.794   3 0.17377-0.32579 0.90728-0.90732 0.79825-0.17129
  -3  -4   9 9335.15 296.239   3 0.16533-0.33762 0.89605-0.93756 0.81337-0.27444
  -3  -4   8 35975.8 515.025   3 0.15148-0.34404 0.87647-0.95943 0.83629-0.38540
  -3  -4   7 3851.89 214.202   3 0.13049-0.34333 0.84425-0.96868 0.86682-0.50397
  -3  -4   6 5936.39 236.969   3 0.10023-0.33334 0.79289-0.95878 0.90274-0.62793
  -3  -4   5 29007.8 369.938   3 0.05853-0.31192 0.71354-0.92089 0.93806-0.75128
  -3  -4   4 5229.64 194.441   3 0.00444-0.27810 0.59700-0.84581 0.96142-0.86268
   3   4  -4 5281.42 133.618   1-0.64484 0.91850 0.46984-0.22102-0.37643 0.27768
   3   4  -3 869.911 59.2356   1-0.58719 0.88112 0.43857-0.14830-0.45989 0.44918
  -3  -4   3 961.833 104.638   3-0.05991-0.23402 0.43913-0.72940 0.95745-0.94674
   3   4  -2 13502.7 226.175   0-0.01156 0.32576-0.13420 0.46594-0.91773 0.99506
  -3  -4   2 12805.3 241.714   3-0.12813-0.18608 0.24773-0.57947 0.91358-0.99091
  -3  -4   1 29559.6 351.597   3-0.19164-0.14284 0.04299-0.41619 0.82891-0.99427
   3   4  -1 47614.2 414.899   0 0.19662 0.13786-0.04707 0.42027-0.82871 0.99407
   3   4   0 70.0422 60.6873   0 0.38360-0.02884 0.03690 0.37775-0.70888 0.96228
  -3  -4   0 253.343 95.9330   3-0.24393-0.11082-0.15233-0.26233 0.71506-0.96846
  -3  -4  -1 7057.73 231.790   3-0.28292-0.09211-0.32352-0.13260 0.58795-0.92938
   3   4   1 7651.41 197.759   0 0.53713-0.16210 0.11076 0.34536-0.57629 0.91772
   3   4   2 47.3689 60.5655   0 0.65659-0.26129 0.17235 0.32523-0.44433 0.87380
   3   4   3 38289.5 467.132   0 0.74707-0.33149 0.22254 0.31651-0.31970 0.83720
   3   4   4 1515.63 131.769   0 0.81472-0.37887 0.26322 0.31729-0.20450 0.81004
   3   4   5 353.725 139.547   0 0.86481-0.40869 0.29630 0.32567-0.09852 0.79209
   3   4   6 303.732 151.569   0 0.90127-0.42488 0.32335 0.34007-0.00066 0.78227
   3   5 -12 56.7045 104.080   1-0.64252 0.76351 0.46861-0.45569-0.38015-0.37776
  -3  -5  12 52.9944 107.449   3 0.14890-0.26988 0.87266-0.88558 0.84032-0.08240
   3   5 -11-7.61062 69.8604   1-0.66012 0.80138 0.47782-0.42344-0.35101-0.31887
  -3  -5  11 99.7213 105.401   3 0.14445-0.28571 0.86600-0.92038 0.84706-0.17719
  -3  -5  10 11272.9 338.905   3 0.13608-0.29761 0.85311-0.94895 0.85916-0.27732
  -3  -5   9 1215.16 175.743   3 0.12287-0.30468 0.83185-0.96915 0.87673-0.38293
  -3  -5   8 47006.9 586.060   3 0.10366-0.30575 0.79900-0.97776 0.89912-0.49335
  -3  -5   7 162.956 94.0726   3 0.07713-0.29948 0.75010-0.97033 0.92424-0.60651
  -3  -5   6 5914.61 199.463   3 0.04207-0.28470 0.67966-0.94135 0.94778-0.71808
  -3  -5   5 263.036 109.687   3-0.00194-0.26096 0.58228-0.88543 0.96257-0.82090
  -3  -5   4 1251.15 150.909   3-0.05373-0.22944 0.45519-0.79980 0.95934-0.90571
  -3  -5   3 2282.72 163.735   3-0.10993-0.19352 0.30137-0.68745 0.92958-0.96399
   3   5  -3 2169.45 123.152   0-0.10030 0.40375-0.16944 0.55551-0.94237 0.97678
  -3  -5   2 13330.1 293.289   3-0.16550-0.15822 0.13083-0.55836 0.86967-0.99211
   3   5  -2 12729.5 231.628   0 0.09850 0.22522-0.08892 0.51646-0.87618 0.99862
  -3  -5   1 2536.91 155.744   3-0.21551-0.12849-0.04247-0.42652 0.78303-0.99351
   3   5  -1 2568.99 128.913   0 0.29076 0.05324-0.00552 0.47451-0.77347 0.98395
   3   5   0 56156.6 492.901   0 0.45868-0.09441 0.07239 0.43806-0.64845 0.94696
  -3  -5   0 32605.0 419.366   3-0.25684-0.10744-0.20584-0.30461 0.67819-0.97670
  -3  -5  -1 5713.82 221.375   3-0.28863-0.09591-0.35153-0.20039 0.56451-0.95106
   3   5   1 5538.71 175.699   0 0.59503-0.21048 0.14007 0.41185-0.51611 0.90266
   3   5   2 535.209 151.442   0 0.70090-0.29608 0.19646 0.39692-0.38660 0.86119
  -3  -6  12 348.887 192.264   3 0.11539-0.24589 0.81931-0.92802 0.88589-0.17310
  -3  -6  11 854.001 219.520   3 0.10748-0.25826 0.80569-0.95587 0.89496-0.27020
  -3  -6  10 7222.21 318.841   3 0.09526-0.26631 0.78394-0.97558 0.90779-0.37106
  -3  -6   9 15545.3 394.535   3 0.07794-0.26927 0.75166-0.98476 0.92357-0.47488
  -3  -6   8 9053.14 324.475   3 0.05470-0.26630 0.70577-0.98033 0.94053-0.57988
  -3  -6   7 19343.6 416.863   3 0.02484-0.25672 0.64270-0.95873 0.95549-0.68287
  -3  -6   6 38889.5 486.789   3-0.01182-0.24033 0.55909-0.91657 0.96368-0.77909
  -3  -6   5 28048.0 434.972   3-0.05455-0.21787 0.45307-0.85201 0.95911-0.86256
  -3  -6   4 1818.32 176.709   3-0.10141-0.19129 0.32584-0.76625 0.93596-0.92745
  -3  -6   3 3048.20 156.549   3-0.14932-0.16365 0.18261-0.66448 0.89061-0.97013
   3   6  -3 1199.22 88.8153   0 0.02311 0.28986-0.12013 0.60200-0.90596 0.98548
  -3  -6   2 12.7609 52.4868   3-0.19487-0.13838 0.03173-0.55506 0.82321-0.99077
   3   6  -2 28.7943 40.1783   0 0.21210 0.12115-0.04033 0.56366-0.82030 0.98786
   3   6  -1 162.827 70.4417   0 0.38736-0.03384 0.03866 0.52614-0.70604 0.96163
  -3  -6   1 308.440 107.306   3-0.23523-0.11829-0.11763-0.44716 0.73764-0.99323
  -3  -6   0 9431.45 318.593   3-0.26880-0.10500-0.25800-0.34825 0.63978-0.98341
  -3  -6  -1 203.411 112.738   3-0.29517-0.09889-0.38487-0.26284 0.53555-0.96721
  -3  -7  12 814.974 247.162   3 0.07937-0.21939 0.75438-0.95889 0.92238-0.25470
  -3  -7  11 6506.04 304.490   3 0.06834-0.22864 0.73305-0.97902 0.93115-0.35151
  -3  -7  10 40.5487 92.3891   3 0.05292-0.23350 0.70215-0.98959 0.94163-0.45002
  -3  -7   9 15164.5 408.961   3 0.03260-0.23345 0.65953-0.98842 0.95233-0.54876
  -3  -7   8 6256.21 286.875   3 0.00697-0.22809 0.60279-0.97314 0.96087-0.64534
  -3  -7   7 16003.9 393.655   3-0.02403-0.21736 0.52973-0.94155 0.96393-0.73643
  -3  -7   6 3045.46 203.197   3-0.05991-0.20176 0.43911-0.89239 0.95744-0.81798
  -3  -7   5 646.546 147.282   3-0.09944-0.18250 0.33141-0.82616 0.93733-0.88590
  -3  -7   4 6244.67 246.067   3-0.14069-0.16153 0.20949-0.74570 0.90055-0.93716
  -3  -7   3 12303.4 332.942   3-0.18129-0.14120 0.07842-0.65609 0.84613-0.97077
  -3  -7   2 131.398 115.895   3-0.21902-0.12374-0.05553-0.56360 0.77549-0.98817
  -3  -7   1 2940.70 212.573   3-0.25221-0.11083-0.18634-0.47425 0.69192-0.99263
  -3  -7   0 13347.4 355.187   3-0.27995-0.10336-0.30933-0.39272 0.59953-0.98827
  -3  -7  -1-6.97229 57.7360   3-0.30204-0.10155-0.42165-0.32187 0.50222-0.97901
  -3  -8  12 61.4208 114.876   3 0.04185-0.19140 0.67920-0.97951 0.94789-0.32533
  -3  -8  11 3597.35 261.123   3 0.02831-0.19813 0.65026-0.99203 0.95414-0.41961
  -3  -8  10 82.8389 97.9114   3 0.01061-0.20070 0.61104-0.99428 0.95999-0.51350
  -3  -8   9 987.428 196.326   3-0.01147-0.19889 0.55991-0.98460 0.96365-0.60520
  -3  -8   8 1750.23 204.118   3-0.03794-0.19271 0.49540-0.96155 0.96271-0.69229
  -3  -8   7 874.069 170.587   3-0.06842-0.18249 0.41664-0.92426 0.95429-0.77191
  -3  -8   6 1410.46 197.346   3-0.10210-0.16908 0.32386-0.87294 0.93546-0.84112
  -3  -8   5 10885.0 344.760   3-0.13769-0.15377 0.21871-0.80925 0.90381-0.89750
  -3  -8   4 1027.87 187.736   3-0.17355-0.13819 0.10436-0.73636 0.85807-0.93979
  -3  -8   3 2859.65 206.449   3-0.20799-0.12402-0.01497-0.65850 0.79846-0.96822
  -3  -8   2 1248.16 156.015   3-0.23955-0.11274-0.13470-0.58022 0.72666-0.98445
  -3  -8   1-0.39231 39.8538   3-0.26718-0.10538-0.25078-0.50560 0.64525-0.99108
  -3  -8   0 6.63136 54.0178   3-0.29034-0.10249-0.36011-0.43774 0.55716-0.99103
  -3  -9  11 7.48343 128.027   3-0.01144-0.16790 0.56000-0.99756 0.96365-0.47424
  -3  -9  10 4786.15 313.675   3-0.03046-0.16915 0.51398-0.99301 0.96357-0.56219
  -3  -9   9 1072.19 252.858   3-0.05316-0.16673 0.45668-0.97717 0.95950-0.64616
  -3  -9   8 1921.87 219.443   3-0.07924-0.16092 0.38751-0.94946 0.94936-0.72406
  -3  -9   7 3732.69 274.502   3-0.10814-0.15229 0.30655-0.90997 0.93098-0.79371
  -3  -9   6 367.891 119.128   3-0.13894-0.14176 0.21486-0.85973 0.90246-0.85323
  -3  -9   5 2132.59 190.453   3-0.17049-0.13049 0.11446-0.80080 0.86257-0.90137
  -3  -9   4 10578.4 370.342   3-0.20152-0.11974 0.00827-0.73607 0.81100-0.93784
  -3  -9   3 28.1176 101.980   3-0.23081-0.11072-0.10039-0.66887 0.74848-0.96335
  -3  -9   2 548.249 161.764   3-0.25739-0.10442-0.20818-0.60254 0.67651-0.97943
  -3  -9   1 6608.02 313.867   3-0.28057-0.10151-0.31228-0.53991 0.59714-0.98808
  -3  -9   0 17992.1 467.995   3-0.30000-0.10235-0.41052-0.48312 0.51246-0.99144
  -3 -10  10 3451.62 352.711   3-0.06946-0.13967 0.41386-0.98869 0.95386-0.59761
  -3 -10   9 368.982 196.328   3-0.09186-0.13754 0.35273-0.96902 0.94228-0.67406
  -3 -10   8 562.950 226.463   3-0.11675-0.13293 0.28150-0.93925 0.92397-0.74379
  -3 -10   7 199.027 121.837   3-0.14347-0.12648 0.20086-0.90008 0.89743-0.80528
  -3 -10   6 11.1764 60.7905   3-0.17118-0.11905 0.11220-0.85288 0.86157-0.85746
  -3 -10   5 140.581 137.633   3-0.19891-0.11160 0.01753-0.79967 0.81588-0.89980
  -3 -10   4 54.4504 101.137   3-0.22569-0.10509-0.08069-0.74291 0.76055-0.93250
  -3 -10   3 1773.32 236.548   3-0.25065-0.10040-0.17986-0.68520 0.69640-0.95639
  -3 -10   2 998.915 226.560   3-0.27312-0.09821-0.27754-0.62898 0.62475-0.97278
  -3 -11   7 78.9462 112.171   3-0.17488-0.10460 0.09994-0.89495 0.85608-0.80904
  -3 -11   6 551.259 218.004   3-0.19952-0.10023 0.01536-0.85183 0.81474-0.85574
   4 -10   4 9453.06 309.569   2 0.94119-0.53305 0.14416-0.89433 0.52782-0.52961
   4 -10   5 4764.56 285.481   2 0.94882-0.52041 0.18909-0.89780 0.52117-0.43493
   4 -10   6 15.0335 88.4081   2 0.95268-0.50400 0.22328-0.89053 0.51495-0.34067
   4  -9   1 68.3027 63.5965   1 0.51943-0.16260-0.28355-0.49520-0.70953 0.48875
   4  -9   3 7453.27 268.611   2 0.94837-0.55099 0.18588-0.88171 0.52170-0.56641
   4  -9   4 182.806 114.681   2 0.95380-0.53615 0.23791-0.89228 0.51197-0.46864
   4  -9   5 9259.15 298.589   2 0.95520-0.51727 0.27735-0.89026 0.50296-0.37160
   4  -9   6 3580.38 273.260   2 0.95467-0.49647 0.30597-0.87742 0.49551-0.27611
   4  -9   7 968.072 208.034   2 0.95355-0.47508 0.32522-0.85521 0.49004-0.18261
   4  -9   8 3994.68 287.973   2 0.95263-0.45388 0.33622-0.82475 0.48675-0.09128
   4  -8   0 2550.54 258.368   1 0.43174-0.08567-0.21968-0.50474-0.76348 0.49978
   4  -8   1 31.0709 77.1986   1 0.47838-0.11203-0.25343-0.42953-0.73723 0.56157
   4  -8   2 3165.21 196.975   1 0.52659-0.13997-0.28885-0.35265-0.70420 0.61657
   4  -8   2 4127.39 190.816   2 0.95291-0.56629 0.22600-0.86750 0.51441-0.60204
   4  -8   3 22281.5 412.080   2 0.95517-0.54828 0.28660-0.88663 0.50064-0.50024
   4  -8   4 2625.73 173.017   2 0.95301-0.52584 0.33201-0.89059 0.48802-0.39958
   4  -8   5 569.494 148.153   2 0.94924-0.50179 0.36479-0.88190 0.47759-0.30112
   4  -8   6 486.970 166.930   2 0.94557-0.47785 0.38698-0.86263 0.46987-0.20535
   4  -8   7 356.921 160.567   2 0.94294-0.45495 0.40016-0.83435 0.46501-0.11246
   4  -8   8 2565.94 239.017   2 0.94177-0.43351 0.40551-0.79824 0.46298-0.02240
   4  -8   9 25.2413 102.374   2 0.94214-0.41360 0.40387-0.75514 0.46360 0.06502
   4  -7  -2 15.1258 58.9355   1 0.28238 0.03267-0.11428-0.59727-0.81769 0.42304
   4  -7  -1 385.847 117.703   1 0.32985 0.00547-0.14738-0.52270-0.80483 0.49821
   4  -7   0 7323.71 240.274   1 0.38318-0.02758-0.18499-0.44363-0.78570 0.56712
   4  -7   1 33.0463 77.9505   1 0.44024-0.06437-0.22580-0.36136-0.75907 0.62853
   4  -7   1 124.954 75.7543   2 0.95501-0.57914 0.26442-0.85158 0.50608-0.63662
   4  -7   2 301.992 126.729   1 0.49858-0.10244-0.26820-0.27750-0.72418 0.68167
   4  -7   2 391.387 134.002   2 0.95268-0.55653 0.33571-0.88141 0.48690-0.52941
   4  -7   3 221.190 121.561   2 0.94538-0.52896 0.38799-0.89222 0.46950-0.42398
   4  -7   4 9560.57 282.146   2 0.93701-0.50032 0.42511-0.88789 0.45524-0.32168
   4  -7   5 52173.3 616.859   2 0.92976-0.47279 0.45007-0.87138 0.44469-0.22309
   4  -7   6 5267.09 226.905   2 0.92472-0.44748 0.46509-0.84494 0.43793-0.12830
   4  -7   7 1369.96 203.722   2 0.92231-0.42480 0.47178-0.81017 0.43482-0.03716
   4  -7   8 876.654 218.588   2 0.92250-0.40471 0.47126-0.76819 0.43507 0.05063
   4  -7   9 1455.08 197.734   2 0.92501-0.38695 0.46425-0.71972 0.43832 0.13542
   4  -7  10 329.302 190.906   2 0.92940-0.37107 0.45118-0.66519 0.44420 0.21757
   4  -6  -4 4133.56 198.161   1 0.12794 0.15608-0.00874-0.68994-0.83562 0.31001
   4  -6  -3 153.182 90.4435   1 0.16680 0.13749-0.03500-0.62221-0.83433 0.39676
   4  -6  -2 1540.34 153.361   1 0.21548 0.10909-0.06817-0.54758-0.82973 0.48019
   4  -6  -1 684.571 132.290   1 0.27296 0.07188-0.10775-0.46654-0.81980 0.55830
   4  -6   0 7365.79 233.307   1 0.33739 0.02772-0.15267-0.38015-0.80244 0.62897
   4  -6   1 1436.15 181.497   1 0.40603-0.02064-0.20126-0.29011-0.77585 0.69042
   4  -6   1 1888.08 111.676   2 0.94574-0.56035 0.38606-0.87742 0.47020-0.55563
   4  -6   2 918.733 117.068   1 0.47556-0.06989-0.25137-0.19853-0.73897 0.74158
   4  -6   2 952.833 109.454   2 0.93095-0.52529 0.44625-0.89616 0.44635-0.44375
   4  -6   3 42792.8 508.258   2 0.91611-0.49017 0.48774-0.89618 0.42714-0.33650
   4  -6   4 56.5905 73.0580   2 0.90399-0.45778 0.51503-0.88201 0.41309-0.23442
   4  -6   5 1565.27 131.387   2 0.89578-0.42930 0.53130-0.85682 0.40413-0.13742
   4  -6   6 476.760 139.426   2 0.89177-0.40501 0.53875-0.82281 0.39988-0.04513
   4  -6   7 19322.9 400.043   2 0.89172-0.38469 0.53883-0.78143 0.39983 0.04295
   4  -6   8 16.5057 68.1755   2 0.89515-0.36785 0.53249-0.73362 0.40346 0.12735
   4  -6   9 5470.20 277.514   2 0.90144-0.35386 0.52025-0.67992 0.41027 0.20858
   4  -6  10 3824.51 273.485   2 0.90988-0.34203 0.50232-0.62053 0.41978 0.28711
   4  -5  -5 92.3927 89.4411   1 0.01287 0.26039 0.06796-0.71230-0.82751 0.25898
   4  -5  -4 261.481 92.0860   1 0.04694 0.24659 0.04542-0.64829-0.83173 0.35124
   4  -5  -3 507.697 136.829   1 0.09271 0.22110 0.01492-0.57633-0.83500 0.44255
   4  -5  -2 12587.1 281.793   1 0.15022 0.18387-0.02377-0.49618-0.83513 0.53071
   4  -5  -1 3910.23 177.549   1 0.21853 0.13584-0.07026-0.40823-0.82933 0.61294
   4  -5   0 3173.65 152.023   1 0.29534 0.07929-0.12329-0.31374-0.81455 0.68620
   4  -5   0 3486.39 145.467   2 0.93316-0.55852 0.43895-0.87598 0.44949-0.57784
   4  -5   1 1802.98 130.889   1 0.37704 0.01787-0.18064-0.21493-0.78817 0.74786
   4  -5   1 1707.42 110.112   2 0.90722-0.51231 0.50818-0.90375 0.41673-0.45705
   4  -5   2 57.0980 65.1959   2 0.88327-0.46809 0.55356-0.90767 0.39111-0.34339
   4  -5   2 28.0033 32.9797   1 0.45905-0.04387-0.23939-0.11472-0.74874 0.79646
   4  -5   3 935.789 99.9411   2 0.86474-0.42929 0.58221-0.89486 0.37290-0.23714
   4  -5   4 6935.18 223.577   2 0.85268-0.39695 0.59874-0.86992 0.36157-0.13778
   4  -5   5 3999.06 179.937   2 0.84695-0.37095 0.60610-0.83582 0.35632-0.04449
   4  -5   6 198.733 108.499   2 0.84692-0.35064 0.60613-0.79439 0.35629 0.04357
   4  -5   6 180.040 96.5590   0 0.91810-0.42182 0.33745-0.52571 0.05575 0.34411
   4  -5   7 7048.21 254.821   2 0.85174-0.33519 0.59996-0.74676 0.36071 0.12719
   4  -5   7 6659.53 212.991   0 0.93178-0.41523 0.35038-0.49718 0.11187 0.37603
   4  -5   8 525.693 144.932   2 0.86049-0.32366 0.58821-0.69354 0.36886 0.20707
   4  -5   8 445.271 153.975   0 0.94205-0.40522 0.36181-0.46714 0.16600 0.40994
   4  -5   9 2638.78 233.979   2 0.87226-0.31516 0.57111-0.63499 0.38016 0.28381
   4  -5   9 2449.92 227.465   0 0.94922-0.39212 0.37192-0.43580 0.21873 0.44524
   4  -5  10 87.1421 125.767   2 0.88616-0.30879 0.54866-0.57107 0.39406 0.35795
   4  -4  -7 256.987 158.154   1-0.11221 0.35445 0.14955-0.78102-0.79893 0.09945
   4  -4  -6 52.3763 75.1343   1-0.09697 0.35948 0.13971-0.72971-0.80352 0.19208
   4  -4  -5 7943.56 232.194   1-0.07070 0.35348 0.12268-0.67122-0.81071 0.28730
   4  -4  -4 195.638 95.6450   1-0.03198 0.33504 0.09743-0.60451-0.81963 0.38426
   4  -4  -3 6631.82 225.748   1 0.02044 0.30289 0.06296-0.52858-0.82858 0.48124
   4  -4  -2 10.8068 32.2362   1 0.08715 0.25645 0.01863-0.44279-0.83475 0.57545
   4  -4  -1 2605.36 146.093   1 0.16738 0.19650-0.03539-0.34730-0.83430 0.66303
   4  -4  -1 2800.04 106.858   2 0.91234-0.54846 0.49670-0.87940 0.42266-0.59392
   4  -4   0 15462.6 245.968   2 0.86928-0.48513 0.57559-0.91682 0.37726-0.46049
   4  -4   0 15164.1 281.815   1 0.25832 0.12583-0.09763-0.24361-0.82281 0.73958
   4  -4   1 1367.75 94.1701   2 0.83271-0.42828 0.62322-0.92299 0.34354-0.33874
   4  -4   1 1574.02 127.552   1 0.35500 0.04942-0.16506-0.13471-0.79646 0.80126
   4  -4   2 35026.2 408.482   2 0.80625-0.38154 0.65130-0.90961 0.32073-0.22789
   4  -4   2 36161.5 315.669   0 0.68916-0.26446 0.18999-0.44830-0.40246 0.49530
   4  -4   2 34236.1 417.864   1 0.45104-0.02633-0.23359-0.02472-0.75324 0.84608
   4  -4   3 7502.93 218.670   2 0.79009-0.34511 0.66648-0.88332 0.30730-0.12642
   4  -4   3 7366.10 159.922   0 0.76919-0.32421 0.23546-0.45231-0.28464 0.46551
   4  -4   4 18842.7 334.611   2 0.78317-0.31792 0.67258-0.84797 0.30164-0.03273
   4  -4   4 20120.9 290.011   0 0.82407-0.35882 0.26915-0.44453-0.18641 0.45532
   4  -4   5 1727.35 134.207   0 0.86354-0.37802 0.29541-0.42934-0.10154 0.45848
   4  -4   5 2066.71 145.146   2 0.78406-0.29854 0.67181-0.80573 0.30237 0.05458
   4  -4   6 13535.8 327.729   2 0.79132-0.28553 0.66536-0.75782 0.30832 0.13667
   4  -4   6 13741.5 286.000   0 0.89282-0.38702 0.31674-0.40920-0.02572 0.47070
   4  -4   7 184.432 109.638   2 0.80363-0.27756 0.65385-0.70485 0.31854 0.21448
   4  -4   7 274.214 101.861   0 0.91480-0.38873 0.33456-0.38556 0.04383 0.48918
   4  -4   8 9081.09 286.020   2 0.81978-0.27344 0.63748-0.64702 0.33226 0.28879
   4  -4   8 9247.32 279.614   0 0.93114-0.38480 0.34973-0.35927 0.10894 0.51211
   4  -4   9 3009.49 307.418   2 0.83870-0.27208 0.61621-0.58429 0.34887 0.36022
   4  -4   9 2964.00 246.748   0 0.94282-0.37620 0.36277-0.33085 0.17081 0.53828
   4  -3  -8 11.9667 98.8826   1-0.20318 0.43466 0.20769-0.78482-0.76490 0.02250
   4  -3  -7 600.706 129.098   1-0.19646 0.44822 0.20344-0.73910-0.76781 0.11345
   4  -3  -6 5965.77 206.362   1-0.17965 0.45168 0.19276-0.68696-0.77481 0.20849
   4  -3  -5 12018.4 298.215   1-0.15096 0.44327 0.17445-0.62719-0.78584 0.30755
   4  -3  -4 928.994 168.319   1-0.10827 0.42085 0.14701-0.55829-0.80015 0.40989
   4  -3  -3 11476.9 252.593   1-0.04943 0.38229 0.10884-0.47866-0.81585 0.51363
   4  -3  -2 4042.66 156.061   1 0.02700 0.32613 0.05863-0.38699-0.82945 0.61526
   4  -3  -1 523.480 80.9983   2 0.80720-0.43380 0.65036-0.93726 0.32154-0.44769
   4  -3  -1 528.001 56.8500   0 0.02887 0.34453-0.11777-0.16912-0.90389 0.77774
   4  -3  -1 435.117 85.8567   1 0.12065 0.25275-0.00383-0.28306-0.83563 0.70948
   4  -3   0 140224. 675.883   2 0.75410-0.36043 0.69601-0.94144 0.27844-0.31656
   4  -3   0 137067. 750.601   1 0.22808 0.16559-0.07681-0.16862-0.82798 0.78986
   4  -3   0 140446. 578.010   0 0.27041 0.12326-0.01462-0.23081-0.78625 0.74813
   4  -3   1 49844.2 431.896   2 0.71923-0.30528 0.72004-0.92402 0.25162-0.20170
   4  -3   1 52275.6 470.234   1 0.34230 0.07164-0.15612-0.04785-0.80083 0.85075
   4  -3   1 51839.1 373.775   0 0.46734-0.05340 0.07656-0.28053-0.64096 0.69088
   4  -3   2 16.6345 36.6352   2 0.70017-0.26595 0.73160-0.89411 0.23735-0.09940
   4  -3   2 23.7061 34.7937   1 0.45409-0.01986-0.23579 0.07328-0.75155 0.88950
   4  -3   2 17.8095 29.4300   0 0.61005-0.17583 0.14783-0.31034-0.49939 0.63735
   4  -3   3 139.618 103.391   2 0.69393-0.23944 0.73517-0.85622 0.23274-0.00675
   4  -3   3 114.589 56.2669   0 0.71015-0.25566 0.20159-0.32264-0.37380 0.59980
   4  -3   4 27.8004 62.3140   2 0.69781-0.22304 0.73296-0.81255 0.23561 0.07842
   4  -3   4 22.2447 51.6268   0 0.78123-0.30646 0.24264-0.32223-0.26458 0.57860
   4  -3   5 1791.94 132.861   0 0.83294-0.33790 0.27487-0.31300-0.16862 0.57068
   4  -3   5 1803.13 152.341   2 0.70954-0.21449 0.72605-0.76418 0.24434 0.15773
   4  -3   6 3222.46 168.337   2 0.72726-0.21194 0.71486-0.71152 0.25771 0.23239
   4  -3   6 3340.51 163.561   0 0.87134-0.35602 0.30090-0.29756-0.08269 0.57279
   4  -3   7 166.974 93.0255   2 0.74945-0.21386 0.69945-0.65465 0.27480 0.30333
   4  -3   7 116.565 97.9685   0 0.90010-0.36451 0.32242-0.27762-0.00425 0.58238
   4  -3   8 328.974 158.962   2 0.77485-0.21898 0.67964-0.59338 0.29491 0.37126
   4  -3   8 377.195 120.578   0 0.92150-0.36564 0.34051-0.25425 0.06860 0.59757
   4  -3   9 8636.31 296.706   2 0.80236-0.22623 0.65507-0.52735 0.31748 0.43673
   4  -2 -10 495.988 218.224   1-0.27200 0.47245 0.25096-0.81522-0.73122-0.14213
   4  -2  -9 10207.7 299.475   1-0.28084 0.50157 0.25647-0.77926-0.72636-0.05895
   4  -2  -8 1838.85 162.821   1-0.28225 0.52325 0.25735-0.73868-0.72558 0.02830
   4  -2  -7 71.2431 92.0351   1-0.27503 0.53631 0.25286-0.69272-0.72957 0.12032
   4  -2  -6 127.026 82.4408   1-0.25746 0.53901 0.24188-0.64028-0.73893 0.21772
   4  -2  -5 9709.86 250.102   1-0.22718 0.52901 0.22286-0.57981-0.75396 0.32078
   4  -2  -4 19.2355 39.8934   1-0.18120 0.50330 0.19375-0.50923-0.77418 0.42904
   4  -2  -3 1717.37 110.920   1-0.11617 0.45854 0.15210-0.42612-0.79769 0.54059
   4  -2  -2 132.646 55.8866   2 0.70030-0.33765 0.73153-0.96409 0.23745-0.40652
   4  -2  -2 100.585 57.6566   1-0.02927 0.39191 0.09566-0.32822-0.82018 0.65111
   4  -2  -1 15737.9 219.685   2 0.62995-0.24703 0.76635-0.95745 0.18675-0.26778
   4  -2  -1 15541.1 211.428   0-0.00811 0.39103-0.13281-0.05829-0.91662 0.83558
   4  -2  -1 15591.0 255.873   1 0.07994 0.30298 0.02345-0.21455-0.83437 0.75334
   4  -2   0 239284. 929.619   1 0.20719 0.19601-0.06250-0.08714-0.83075 0.83776
   4  -2   0 243094. 809.180   0 0.21852 0.18467-0.03753-0.11211-0.81673 0.82374
   4  -2   1 117010. 592.995   0 0.41220 0.01127 0.05029-0.15847-0.68678 0.78182
   4  -2   1 115664. 646.904   1 0.34231 0.08116-0.15613 0.04795-0.80082 0.89586
   4  -2   2 6371.67 176.975   2 0.57146-0.12772 0.78760-0.85431 0.14653 0.03655
   4  -2   2 6612.40 174.840   1 0.47158-0.02784-0.24848 0.18177-0.74139 0.92446
   4  -2   2 6815.84 164.608   0 0.56113-0.11739 0.12280-0.18951-0.55212 0.73519
   4  -2   3 11985.3 254.690   2 0.58217-0.11815 0.78416-0.80942 0.15378 0.11733
   4  -2   3 11854.8 232.233   0 0.67088-0.20687 0.18004-0.20529-0.42632 0.69743
   4  -2   4 3712.10 173.184   2 0.60164-0.11735 0.77741-0.76120 0.16709 0.19206
   4  -2   4 3746.93 151.338   0 0.75140-0.26711 0.22504-0.20883-0.31301 0.67215
   4  -2   5 1499.74 139.268   0 0.81107-0.30651 0.26092-0.20325-0.21140 0.65858
   4  -2   5 1606.73 122.668   2 0.62755-0.12299 0.76735-0.70968 0.18507 0.26211
   4  -2   6 212.168 87.4418   0 0.85579-0.33096 0.29008-0.19094-0.11947 0.65469
   4  -2   6 133.052 81.7146   2 0.65812-0.13329 0.75376-0.65463 0.20672 0.32850
   4  -2   7 10708.9 284.409   2 0.69198-0.14687 0.73626-0.59567 0.23130 0.39195
   4  -2   7 12533.0 325.397   0 0.88945-0.34434 0.31417-0.17358-0.03523 0.65848
   4  -2   8 369.462 168.259   2 0.72798-0.16260 0.71438-0.53232 0.25826 0.45303
   4  -2   8 548.413 118.017   0 0.91457-0.34919 0.33436-0.15231 0.04302 0.66827
   4  -1 -11 144.121 155.796   1-0.33005 0.51975 0.28694-0.79685-0.69700-0.21927
   4  -1 -10 670.309 153.106   1-0.34468 0.55466 0.29593-0.76438-0.68748-0.14076
   4  -1  -9 1499.84 169.160   1-0.35309 0.58334 0.30107-0.72807-0.68183-0.05837
   4  -1  -8 39208.1 547.525   1-0.35440 0.60493 0.30188-0.68741-0.68093 0.02877
   4  -1  -7 84.4376 60.3248   1-0.34726 0.61806 0.29751-0.64158-0.68576 0.12163
   4  -1  -6 761.248 142.225   1-0.32961 0.62067 0.28667-0.58927-0.69729 0.22119
   4  -1  -5 6748.28 212.466   1-0.29849 0.60983 0.26744-0.52859-0.71629 0.32824
   4  -1  -4 1933.63 130.606   1-0.24988 0.58149 0.23713-0.45681-0.74283 0.44281
   4  -1  -3 4035.29 96.1748   2 0.51156-0.15966 0.80350-0.98172 0.10678-0.31877
   4  -1  -3 4980.68 164.250   1-0.17879 0.53068 0.19221-0.37043-0.77516 0.56317
   4  -1  -2 104960. 494.799   2 0.43736-0.06519 0.81624-0.95300 0.05930-0.18325
   4  -1  -2 112408. 633.069   1-0.08032 0.45249 0.12893-0.26569-0.80818 0.68423
   4  -1  -1 77784.6 466.786   2 0.40488-0.01244 0.81966-0.91496 0.03905-0.07497
   4  -1  -1 77182.1 475.607   0-0.01092 0.40336-0.13394 0.03864-0.91753 0.88161
   4  -1  -1 76341.6 503.999   1 0.04756 0.34488 0.04501-0.14031-0.83180 0.79588
   4  -1   0 46704.5 392.802   1 0.19948 0.21324-0.05724 0.00340-0.83162 0.88374
   4  -1   0 44989.6 380.056   2 0.39855 0.01416 0.82019-0.87403 0.03514 0.01698
   4  -1   0 45963.8 374.291   0 0.20235 0.21036-0.04458-0.00926-0.82563 0.87775
   4  -1   1 14148.7 227.953   0 0.38843 0.04456 0.03916-0.05153-0.70522 0.84538
   4  -1   1 13910.0 246.638   2 0.40963 0.02336 0.81924-0.83162 0.04199 0.09817
   4  -1   1 14394.8 223.209   1 0.35995 0.07303-0.16856 0.15618-0.79468 0.93483
   4  -1   2 2411.64 134.991   2 0.43271 0.02055 0.81680-0.78772 0.05638 0.17181
   4  -1   2 2557.42 110.324   1 0.50785-0.05459-0.27501 0.30409-0.71782 0.94602
   4  -1   2 2550.54 121.002   0 0.53653-0.08327 0.11046-0.08138-0.57688 0.80507
   4  -1   3 19537.6 308.078   2 0.46426 0.00927 0.81244-0.74189 0.07631 0.23991
   4  -1   3 19759.7 299.842   0 0.64937-0.17584 0.16850-0.09795-0.45321 0.76944
   4  -1   4 443.672 82.7689   2 0.50179-0.00798 0.80559-0.69359 0.10043 0.30383
   4  -1   4 467.541 121.301   0 0.73431-0.24050 0.21522-0.10321-0.33898 0.74324
   4  -1   5 1644.44 145.514   0 0.79835-0.28427 0.25304-0.09957-0.23472 0.72702
   4  -1   5 1757.91 156.278   2 0.54352-0.02943 0.79570-0.64223 0.12782 0.36448
   4  -1   6 138.240 83.4189   0 0.84684-0.31248 0.28403-0.08910-0.13936 0.71969
   4  -1   6 83.8049 75.0764   2 0.58810-0.05374 0.78218-0.58725 0.15781 0.42252
   4  -1   7 197.670 120.778   2 0.63448-0.07984 0.76444-0.52805 0.18993 0.47844
   4  -1   7 132.857 86.6072   0 0.88352-0.32889 0.30974-0.07335-0.05139 0.71976
   4  -1   8 3850.15 256.184   0 0.91096-0.33606 0.33129-0.05344 0.03056 0.72584
   4   0 -11 749.058 176.157   1-0.39540 0.59462 0.32680-0.74092-0.65141-0.21975
   4   0 -10 22909.7 468.695   1-0.40941 0.62891 0.33525-0.70791-0.64055-0.14256
   4   0  -9 12875.7 354.331   1-0.41764 0.65741 0.34020-0.67139-0.63399-0.06109
   4   0  -8 18.8052 55.8944   1-0.41916 0.67920 0.34110-0.63084-0.63277 0.02572
   4   0  -7 7978.89 248.218   1-0.41246 0.69278 0.33708-0.58535-0.63814 0.11913
   4   0  -6 229.030 80.3785   1-0.39521 0.69580 0.32669-0.53350-0.65155 0.22057
   4   0  -5 4023.91 159.745   1-0.36387 0.68474 0.30766-0.47301-0.67440 0.33146
   4   0  -4 6430.75 175.923   1-0.31320 0.65434 0.27655-0.40044-0.70751 0.45261
   4   0  -3 6361.70 174.096   1-0.23605 0.59746 0.22844-0.31087-0.74970 0.58283
  -4   0   2 38.3842 35.4788   3 0.14537-0.52706 0.86739-0.82643 0.84568-0.76685
   4   0  -2 76.2060 65.6900   1-0.12427 0.50595 0.15732-0.19828-0.79508 0.71624
   4   0  -1 3217.72 112.763   2 0.18058 0.22138 0.81309-0.81259-0.09326 0.10246
   4   0  -1 3150.06 119.287   0 0.01018 0.39178-0.12540 0.12589-0.91049 0.91969
   4   0  -1 3363.75 116.277   1 0.02708 0.37488 0.05858-0.05808-0.82946 0.83866
   4   0   0 23304.9 258.664   1 0.21111 0.21112-0.06519 0.10715-0.83028 0.92752
   4   0   0 22616.4 282.628   2 0.21112 0.21112 0.81683-0.77487-0.07596 0.17319
   4   0   0 23033.6 285.937   0 0.21111 0.21112-0.04076 0.08272-0.82084 0.91808
   4   0   1 7441.89 177.510   0 0.38772 0.05479 0.03882 0.04460-0.70576 0.89103
   4   0   1 7462.35 187.955   2 0.25156 0.19095 0.82047-0.73705-0.05271 0.23798
   4   0   1 7760.56 156.272   1 0.40265 0.03986-0.19885 0.28227-0.77737 0.96265
   4   0   2 26021.6 342.381   2 0.29883 0.16396 0.82276-0.69788-0.02506 0.29837
   4   0   2 26083.6 337.510   0 0.53114-0.06836 0.10778 0.01710-0.58216 0.85547
   4   0   3 1507.11 123.272   2 0.35080 0.13226 0.82273-0.65638 0.00599 0.35536
   4   0   3 1560.15 119.810   0 0.64292-0.15987 0.16507 0.00127-0.46104 0.82239
   4   0   4 8230.02 224.837   2 0.40594 0.09739 0.81957-0.61177 0.03971 0.40967
   4   0   4 9000.18 249.368   0 0.72868-0.22536 0.21202-0.00421-0.34728 0.79666
   4   0   5 9728.92 269.331   0 0.79425-0.27064 0.25052-0.00126-0.24203 0.77945
   4   0   5 9513.04 256.228   2 0.46313 0.06048 0.81262-0.56335 0.07559 0.46182
   4   0   6 5245.69 225.244   0 0.84431-0.30044 0.28234 0.00838-0.14481 0.77026
   4   0   6 4631.94 192.986   2 0.52146 0.02241 0.80124-0.51051 0.11326 0.51219
   4   0   7 4291.75 244.798   2 0.58023-0.01608 0.78480-0.45261 0.15246 0.56103
   4   0   7 4191.86 218.847   0 0.88234-0.31819 0.30887 0.02332-0.05454 0.76803
   4   1 -11 7.41900 74.6522   1-0.45265 0.66139 0.36108-0.67940-0.60442-0.22162
   4   1 -10 130.320 119.848   1-0.46614 0.69516 0.36907-0.64593-0.59227-0.14573
   4   1  -9 2432.17 182.559   1-0.47428 0.72357 0.37386-0.60926-0.58472-0.06524
   4   1  -8 36322.0 502.537   1-0.47610 0.74566 0.37493-0.56887-0.58301 0.02108
   4   1  -7 5423.91 201.863   1-0.47001 0.75985 0.37135-0.52382-0.58870 0.11480
   4   1  -6 19049.9 327.343   1-0.45345 0.76356 0.36156-0.47257-0.60371 0.21785
   4   1  -5 39.0238 40.8580   1-0.42228 0.75267 0.34298-0.41253-0.63023 0.33240
   4   1  -4 776.357 117.963   1-0.36991 0.72057 0.31134-0.33943-0.67014 0.46035
  -4  -1   4 737.702 74.0088   3 0.18298-0.53364 0.91889-0.89080 0.78068-0.57089
   4   1  -3 9112.63 186.285   1-0.28632 0.65725 0.25989-0.24652-0.72329 0.60154
  -4  -1   3 9137.89 187.016   3 0.12826-0.49919 0.84066-0.85403 0.86979-0.74803
  -4  -1   2 3355.96 115.295   3 0.03620-0.42740 0.66723-0.72207 0.95069-0.91697
   4   1  -2 3373.30 113.588   1-0.15836 0.54956 0.17918-0.12434-0.78311 0.74939
  -4  -1   1 1434.77 83.5096   3-0.09366-0.31782 0.34771-0.44401 0.94116-0.99548
   4   1  -1 1463.77 84.0821   1 0.02444 0.38704 0.06032 0.03597-0.82912 0.88343
   4   1  -1 1562.67 87.1856   0 0.04895 0.36253-0.10952 0.20582-0.89640 0.95071
  -4  -1   0 62800.9 337.185   3-0.21896-0.21279-0.05530-0.08246 0.77563-0.91798
   4   1   0 61676.1 375.997   1 0.25279 0.17896-0.09381 0.23157-0.82386 0.96621
   4   1   0 61712.8 477.765   0 0.23807 0.19368-0.02895 0.16670-0.80560 0.94795
   4   1   1 28497.7 351.089   0 0.40429 0.04774 0.04657 0.13264-0.69300 0.92339
   4   1   1 28694.1 255.698   1 0.48169-0.02967-0.25585 0.43506-0.73517 0.96556
   4   1   2 14630.8 277.859   2 0.18169 0.29061 0.81324-0.59256-0.09263 0.41106
   4   1   2 14392.8 268.360   0 0.54082-0.06852 0.11260 0.10808-0.57264 0.89107
   4   1   3 34394.7 427.772   2 0.25040 0.24217 0.82039-0.55825-0.05338 0.45984
   4   1   3 33539.2 419.614   0 0.64885-0.15628 0.16822 0.09392-0.45384 0.86030
   4   1   4 27926.9 405.980   2 0.32050 0.19235 0.82308-0.51948-0.01220 0.50669
   4   1   4 29034.1 427.906   0 0.73289-0.22004 0.21441 0.08920-0.34108 0.83558
   4   1   5 32995.0 484.878   0 0.79778-0.26466 0.25269 0.09238-0.23574 0.81828
   4   1   5 33555.0 473.386   2 0.39122 0.14191 0.82074-0.47568 0.03062 0.55191
   4   1   6 79.7795 82.0167   0 0.84762-0.29423 0.28455 0.10197-0.13765 0.80821
   4   1   6 150.870 102.365   2 0.46195 0.09145 0.81280-0.42627 0.07484 0.59573
   4   1   7 896.945 168.571   0 0.88552-0.31186 0.31123 0.11676-0.04601 0.80462
   4   2 -12 2489.43 341.813   1-0.48462 0.68260 0.37993-0.64391-0.57489-0.29406
   4   2 -11 29.4930 79.2179   1-0.50199 0.72025 0.39007-0.61260-0.55773-0.22319
   4   2 -10 25750.4 478.767   1-0.51494 0.75347 0.39758-0.57864-0.54439-0.14849
   4   2  -9 73.8771 82.5713   1-0.52292 0.78173 0.40219-0.54179-0.53592-0.06893
   4   2  -8 17547.0 367.448   1-0.52497 0.80405 0.40337-0.50151-0.53371 0.01690
   4   2  -7 13039.5 299.294   1-0.51945 0.81881 0.40019-0.45687-0.53962 0.11085
  -4  -2   7 6903.28 209.281   3 0.20249-0.50185 0.94107-0.88439 0.73946-0.31068
   4   2  -6 7950.75 223.449   1-0.50361 0.82324 0.39101-0.40623-0.55609 0.21535
  -4  -2   6 7391.40 227.375   3 0.18477-0.50439 0.92106-0.90584 0.77714-0.43640
   4   2  -5 54161.7 470.244   1-0.47270 0.81261 0.37293-0.34669-0.58619 0.33349
  -4  -2   5 50643.3 463.955   3 0.15600-0.49590 0.88300-0.90925 0.82907-0.57636
   4   2  -4 15873.2 248.125   1-0.41861 0.77879 0.34078-0.27307-0.63321 0.46854
  -4  -2   4 16018.7 267.525   3 0.11086-0.47103 0.81156-0.87926 0.89116-0.72649
   4   2  -3 69569.8 453.058   1-0.32752 0.70797 0.28538-0.17621-0.69861 0.62198
  -4  -2   3 70301.7 463.043   3 0.04356-0.42401 0.68278-0.79195 0.94699-0.87036
   4   2  -2 343.158 66.8091   0-0.08510 0.48583-0.16348 0.31411-0.93872 0.95012
  -4  -2   2 420.722 92.8928   3-0.04642-0.35430 0.47396-0.62459 0.96116-0.97256
   4   2  -2 426.857 70.8052   1-0.17823 0.57896 0.19185-0.04122-0.77539 0.78679
   4   2  -1 82301.6 561.337   0 0.10112 0.31988-0.08783 0.27992-0.87504 0.97448
  -4  -2   1 84960.3 460.924   3-0.14544-0.27556 0.19475-0.38684 0.89518-0.99461
   4   2  -1 83565.3 413.461   1 0.05076 0.37024 0.04288 0.14921-0.83211 0.93155
  -4  -2   0 10060.9 174.654   3-0.22982-0.21145-0.09654-0.13701 0.75086-0.93833
   4   2   0 18156.9 282.465   0 0.27860 0.16267-0.01097 0.24452-0.78116 0.96863
   4   2   1 307.085 96.6647   0 0.43394 0.02761 0.06057 0.21444-0.66923 0.94474
  -4  -2  -1 136.641 69.9396   3-0.28656-0.17499-0.34125 0.06623 0.57320-0.84871
   4   2   2 1247.20 93.7745   0 0.56227-0.08045 0.12337 0.19310-0.55094 0.91449
   4   2   3 4558.77 169.431   0 0.66479-0.16270 0.17675 0.18119-0.43406 0.88564
   4   2   4 1044.42 166.146   0 0.74526-0.22289 0.22149 0.17791-0.32248 0.86209
   4   2   4 1298.61 132.951   2 0.24953 0.27284 0.82032-0.42092-0.05389 0.59350
   4   2   5 5114.81 219.657   0 0.80779-0.26515 0.25888 0.18199-0.21751 0.84516
   4   2   5 5056.53 212.329   2 0.33112 0.21152 0.82306-0.38220-0.00585 0.63349
   4   2   6 6269.74 248.984   0 0.85594-0.29302 0.29017 0.19215-0.11915 0.83483
   4   3 -12 1755.04 238.386   1-0.52732 0.73483 0.40472-0.57291-0.53117-0.29267
  -4  -3  12 3580.79 272.402   3 0.19278-0.40029 0.93046-0.76227 0.76068 0.06315
   4   3 -11 2313.26 175.608   1-0.54371 0.77149 0.41410-0.54083-0.51292-0.22288
  -4  -3  11 3714.65 255.105   3 0.19338-0.42116 0.93114-0.80441 0.75941-0.02361
   4   3 -10 19163.4 418.024   1-0.55599 0.80405 0.42108-0.50634-0.49866-0.14911
  -4  -3  10 15826.9 399.860   3 0.19110-0.43915 0.92853-0.84326 0.76422-0.11646
   4   3  -9 2830.81 183.483   1-0.56365 0.83198 0.42541-0.46921-0.48949-0.07024
  -4  -3   9 3838.22 220.134   3 0.18516-0.45349 0.92153-0.87773 0.77635-0.21662
   4   3  -8 11423.2 296.148   1-0.56572 0.85432 0.42657-0.42891-0.48697 0.01528
  -4  -3   8 10921.4 323.170   3 0.17443-0.46303 0.90813-0.90579 0.79703-0.32533
   4   3  -7 15372.0 310.691   1-0.56053 0.86940 0.42364-0.38452-0.49325 0.10959
  -4  -3   7 14560.2 317.919   3 0.15721-0.46609 0.88474-0.92386 0.82709-0.44343
   4   3  -6 6515.60 197.933   1-0.54513 0.87428 0.41491-0.33433-0.51130 0.21567
  -4  -3   6 6328.29 214.701   3 0.13112-0.46026 0.84525-0.92583 0.86598-0.57036
   4   3  -5 8083.40 194.088   1-0.51420 0.86363 0.39716-0.27511-0.54516 0.33757
  -4  -3   5 8028.14 220.385   3 0.09313-0.44256 0.78007-0.90211 0.90987-0.70228
   4   3  -4 1391.70 94.1341   1-0.45777 0.82747 0.36412-0.20061-0.59986 0.48030
  -4  -3   4 1271.98 116.940   3 0.04047-0.41017 0.67629-0.83979 0.94860-0.82905
   4   3  -3 3716.95 110.238   1-0.35677 0.74674 0.30333-0.09836-0.67931 0.64780
  -4  -3   3 4170.94 174.961   3-0.02714-0.36283 0.52214-0.72711 0.96380-0.93228
   4   3  -2 37490.4 398.596   0-0.01383 0.42407-0.13512 0.38154-0.91846 0.97498
  -4  -3   2 37789.9 374.022   3-0.10417-0.30608 0.31797-0.56440 0.93397-0.99049
   4   3  -1 598.981 83.3485   0 0.16356 0.26696-0.06133 0.34922-0.84583 0.99038
  -4  -3   1 205.407 80.9550   3-0.17921-0.25131 0.08543-0.37332 0.84941-0.99397
   4   3   0 1420.47 94.5492   0 0.32936 0.12143 0.01194 0.31741-0.74789 0.98048
  -4  -3   0 900.179 91.3551   3-0.24123-0.20957-0.14142-0.18793 0.72227-0.95486
  -4  -3  -1 37.4712 42.2911   3-0.28576-0.18531-0.33732-0.03349 0.57649-0.89712
   4   3   1 6.33471 33.8181   0 0.47353-0.00246 0.07954 0.29127-0.63554 0.95617
   4   3   2 42.5901 41.2137   0 0.59283-0.10149 0.13894 0.27333-0.51851 0.92717
   4   3   3 5052.93 202.731   0 0.68863-0.17702 0.18970 0.26404-0.40317 0.89986
   4   3   4 14334.8 321.366   0 0.76419-0.23230 0.23252 0.26268-0.29275 0.87748
   4   3   4 13621.5 308.340   2 0.19474 0.33715 0.81493-0.31973-0.08526 0.66999
   4   3   5 2205.52 196.672   0 0.82306-0.27090 0.26850 0.26816-0.18841 0.86117
   4   3   5 2013.81 204.775   2 0.28458 0.26758 0.82230-0.28564-0.03345 0.70622
   4   3   6 2043.48 198.246   0 0.86829-0.29586 0.29874 0.27938-0.09015 0.85095
   4   4 -12 1883.30 212.779   1-0.56288 0.77990 0.42497-0.49736-0.49043-0.28829
  -4  -4  12 4514.19 313.882   3 0.16634-0.38337 0.89743-0.82504 0.81160-0.03288
   4   4 -11 1073.32 199.647   1-0.57817 0.81547 0.43355-0.46448-0.47149-0.21919
  -4  -4  11 1386.53 196.285   3 0.16377-0.40107 0.89391-0.86298 0.81608-0.12539
   4   4 -10 5831.47 290.550   1-0.58963 0.84720 0.43992-0.42939-0.45669-0.14595
  -4  -4  10 5912.01 286.208   3 0.15765-0.41522 0.88536-0.89589 0.82637-0.22372
   4   4  -9 8219.99 273.383   1-0.59672 0.87456 0.44384-0.39185-0.44725-0.06736
  -4  -4   9 7981.43 318.075   3 0.14710-0.42495 0.86999-0.92199 0.84306-0.32845
   4   4  -8 69.3972 76.7942   1-0.59848 0.89660 0.44481-0.35136-0.44486 0.01829
  -4  -4   8 113.943 102.559   3 0.13091-0.42903 0.84492-0.93837 0.86626-0.43969
   4   4  -7 3843.24 171.021   1-0.59320 0.91160 0.44190-0.30699-0.45196 0.11341
  -4  -4   7 4099.57 218.412   3 0.10749-0.42589 0.80572-0.94064 0.89495-0.55641
   4   4  -6 9591.73 228.307   1-0.57772 0.91639 0.43330-0.25692-0.47206 0.22155
  -4  -4   6 9712.35 262.740   3 0.07508-0.41375 0.74617-0.92255 0.92591-0.67541
   4   4  -5 17333.1 271.515   1-0.54599 0.90493 0.41540-0.19756-0.51032 0.34785
  -4  -4   5 17865.2 327.402   3 0.03220-0.39114 0.65868-0.87652 0.95250-0.79003
   4   4  -4 2320.56 112.143   1-0.48566 0.86488 0.38054-0.12124-0.57388 0.49945
  -4  -4   4 2502.56 168.939   3-0.02124-0.35797 0.53650-0.79580 0.96398-0.88955
   4   4  -3 62063.3 523.610   0-0.10312 0.50261-0.17054 0.47130-0.94302 0.95662
  -4  -4   3 61783.0 517.819   3-0.08260-0.31689 0.37835-0.67911 0.94762-0.96122
  -4  -4   2 61.6893 73.7062   3-0.14604-0.27373 0.19289-0.53512 0.89449-0.99612
   4   4  -2 52.6331 64.8837   0 0.06597 0.35379-0.10249 0.44471-0.88973 0.99137
   4   4  -1 3590.14 146.284   0 0.23383 0.20620-0.03081 0.41450-0.80805 0.99772
  -4  -4   1 2607.91 146.339   3-0.20444-0.23560-0.00218-0.38151 0.80542-0.99509
   4   4   0 21598.2 332.754   0 0.38780 0.07251 0.03886 0.38628-0.70570 0.98340
  -4  -4   0 12970.2 261.479   3-0.25257-0.20774-0.18787-0.23728 0.69085-0.96856
  -4  -4  -1 1242.79 93.3697   3-0.28866-0.19192-0.35168-0.11493 0.56437-0.93012
   4   4   1 6220.59 204.139   0 0.52059-0.04001 0.10255 0.36406-0.59234 0.95808
   4   4   2 11997.6 278.689   0 0.63032-0.12947 0.15842 0.34965-0.47604 0.92981
   4   4   3 683.233 157.412   0 0.71855-0.19741 0.20629 0.34324-0.36194 0.90375
   4   4   4 7181.93 248.342   0 0.78820-0.24679 0.24684 0.34415-0.25263 0.88247
   4   4   5 80.4788 98.0389   0 0.84234-0.28066 0.28103 0.35142-0.14903 0.86691
   4   5 -12 16349.1 443.172   1-0.59175 0.81829 0.44110-0.41769-0.45390-0.27971
  -4  -5  12 16023.3 449.607   3 0.13632-0.36286 0.85348-0.87689 0.85883-0.12523
   4   5 -11 111.017 84.1633   1-0.60583 0.85265 0.44885-0.38398-0.43477-0.21079
  -4  -5  11 199.620 160.129   3 0.13038-0.37719 0.84407-0.90893 0.86698-0.22141
   4   5 -10 678.049 152.128   1-0.61625 0.88335 0.45453-0.34820-0.42000-0.13753
  -4  -5  10 915.324 179.706   3 0.12039-0.38748 0.82772-0.93405 0.87984-0.32230
  -4  -5   9 163.475 108.128   3 0.10548-0.39285 0.80219-0.94999 0.89716-0.42766
   4   5  -9 195.134 86.9631   1-0.62249 0.90986 0.45790-0.31011-0.41090-0.05860
   4   5  -8 118.001 91.7712   1-0.62355 0.93119 0.45848-0.26923-0.40933 0.02786
  -4  -5   8 286.324 155.580   3 0.08461-0.39225 0.76428-0.95353 0.91782-0.53636
   4   5  -7 3693.26 164.841   1-0.61762 0.94554 0.45527-0.22456-0.41802 0.12460
  -4  -5   7 3417.62 205.080   3 0.05669-0.38460 0.70981-0.94053 0.93926-0.64584
  -4  -5   6 11554.5 310.667   3 0.02090-0.36908 0.63403-0.90620 0.95691-0.75152
   4   5  -6 11974.1 249.464   1-0.60122 0.94941 0.44632-0.17415-0.44113 0.23574
  -4  -5   5 17409.8 346.966   3-0.02277-0.34569 0.53279-0.84643 0.96396-0.84661
  -4  -5   4 25226.6 393.493   3-0.07287-0.31587 0.40475-0.75985 0.95239-0.92307
   4   5  -3 14893.2 284.139   0-0.01090 0.41991-0.13394 0.53050-0.91752 0.97624
  -4  -5   3 14748.4 307.607   3-0.12616-0.28285 0.25362-0.65018 0.91547-0.97419
   4   5  -2 28.6424 45.7973   0 0.15246 0.27682-0.06608 0.50411-0.85132 0.99807
  -4  -5   2 168.334 104.642   3-0.17825-0.25103 0.08867-0.52669 0.85092-0.99767
  -4  -5   1 1963.09 152.316   3-0.22496-0.22460-0.07792-0.40157 0.76222-0.99701
   4   5  -1 1842.38 109.372   0 0.31003 0.13953 0.00316 0.47632-0.76092 0.99571
   4   5   0 3569.18 156.799   0 0.45194 0.01789 0.06916 0.45179-0.65420 0.97702
  -4  -5   0 4597.16 237.776   3-0.26363-0.20620-0.23516-0.28579 0.65691-0.97973
  -4  -5  -1 7097.99 248.922   3-0.29348-0.19662-0.37612-0.18629 0.54326-0.95412
   4   5   1 9754.67 254.163   0 0.57317-0.08306 0.12889 0.43351-0.53959 0.95045
   4   5   2 14.6139 65.1683   0 0.67292-0.16254 0.18114 0.42273-0.42370 0.92260
   4   5   3 2979.47 178.607   0 0.75292-0.22227 0.22593 0.41940-0.31063 0.89756
   4   6 -12 204.125 159.601   1-0.61441 0.85047 0.45353-0.33432-0.42265-0.26583
  -4  -6  12 605.372 211.522   3 0.10330-0.33937 0.79836-0.91756 0.89951-0.21102
   4   6 -11 1750.77 235.052   1-0.62715 0.88349 0.46041-0.29975-0.40396-0.19649
  -4  -6  11 2476.67 227.924   3 0.09412-0.35046 0.78187-0.94254 0.90891-0.30846
   4   6 -10 935.051 135.328   1-0.63633 0.91295 0.46533-0.26320-0.38991-0.12251
  -4  -6  10 683.120 172.936   3 0.08063-0.35724 0.75678-0.95891 0.92130-0.40888
   4   6  -9 1001.67 132.735   1-0.64140 0.93829 0.46802-0.22443-0.38194-0.04244
  -4  -6   9 1128.49 159.209   3 0.06213-0.35901 0.72075-0.96434 0.93562-0.51124
   4   6  -8 362.838 84.1797   1-0.64129 0.95845 0.46796-0.18291-0.38212 0.04577
  -4  -6   8 746.803 191.460   3 0.03793-0.35509 0.67092-0.95597 0.94986-0.61351
   4   6  -7 2487.95 176.751   1-0.63398 0.97141 0.46407-0.13756-0.39356 0.14525
  -4  -6   7 2389.29 214.535   3 0.00758-0.34501 0.60417-0.93068 0.96073-0.71242
  -4  -6   6 249.293 99.9632   3-0.02890-0.32881 0.51782-0.88579 0.96369-0.80341
  -4  -6   5 38985.5 524.790   3-0.07062-0.30736 0.41078-0.82021 0.95337-0.88114
  -4  -6   4 39908.2 528.469   3-0.11566-0.28260 0.28471-0.73561 0.92490-0.94070
   4   6  -4 19593.0 321.816   0-0.06679 0.46504-0.15626 0.60716-0.93400 0.94980
  -4  -6   3 28857.3 449.902   3-0.16123-0.25730 0.14467-0.63703 0.87549-0.97933
   4   6  -3 14262.8 275.718   0 0.08807 0.33046-0.09329 0.58565-0.88064 0.98448
  -4  -6   2 770.882 138.427   3-0.20434-0.23446-0.00181-0.53201 0.80562-0.99749
   4   6  -2 889.469 121.506   0 0.24407 0.19473-0.02630 0.56012-0.80210 0.99396
   4   6  -1 10622.4 251.877   0 0.39057 0.06851 0.04015 0.53513-0.70359 0.98350
  -4  -6   1 7651.17 258.217   3-0.24251-0.21657-0.14657-0.42871 0.71888-0.99878
  -4  -6   0 532.902 184.625   3-0.27429-0.20506-0.28294-0.33380 0.62054-0.98847
   4   6   0 327.130 107.056   0 0.52015-0.04080 0.10233 0.51441-0.59276 0.96070
  -4  -6  -1 15853.8 369.266   3-0.29929-0.20033-0.40670-0.25151 0.51595-0.97193
   4   7 -12 55.8272 142.240   1-0.63131 0.87690 0.46265-0.24764-0.39765-0.24572
  -4  -7  12 26.9939 150.121   3 0.06814-0.31372 0.73266-0.94766 0.93130-0.28793
   4   7 -11 123.516 89.2315   1-0.64257 0.90843 0.46864-0.21217-0.38008-0.17526
  -4  -7  11 167.619 183.250   3 0.05612-0.32198 0.70867-0.96513 0.93963-0.38429
   4   7 -10 951.829 135.947   1-0.65029 0.93642 0.47270-0.17477-0.36756-0.09974
  -4  -7  10 1922.13 269.720   3 0.03982-0.32595 0.67492-0.97284 0.94893-0.48163
   4   7  -9 46.3429 54.8870   1-0.65383 0.96023 0.47455-0.13516-0.36169-0.01758
  -4  -7   9 48.6163 67.1259   3 0.01880-0.32521 0.62940-0.96878 0.95761-0.57834
  -4  -7   8 25744.2 494.331   3-0.00720-0.31948 0.57000-0.95085 0.96326-0.67203
  -4  -7   7 74.5419 109.321   3-0.03812-0.30883 0.49494-0.91725 0.96268-0.75949
  -4  -7   6 11969.4 335.209   3-0.07338-0.29384 0.40336-0.86713 0.95216-0.83700
  -4  -7   5 8289.49 281.780   3-0.11176-0.27574 0.29609-0.80132 0.92812-0.90100
   4   7  -5 8598.61 233.113   0-0.10316 0.49066-0.17055 0.67578-0.94303 0.91591
  -4  -7   4 6460.09 279.874   3-0.15143-0.25634 0.17595-0.72265 0.88805-0.94896
   4   7  -4 3359.33 165.288   0 0.04148 0.36629-0.11260 0.65929-0.89923 0.96014
  -4  -7   3 7813.15 277.774   3-0.19028-0.23777 0.04769-0.63585 0.83125-0.98020
  -4  -7   2 11312.1 334.026   3-0.22630-0.22202-0.08303-0.54659 0.75913-0.99611
  -4  -7   1 139.434 106.549   3-0.25798-0.21062-0.21072-0.46036 0.67470-0.99972
  -4  -7   0 81.8644 110.149   3-0.28447-0.20440-0.33106-0.38148 0.58172-0.99477
   4   8 -12 211.027 163.980   1-0.64281 0.89791 0.46876-0.15796-0.37970-0.21855
   4   8 -11 61.1057 80.0052   1-0.65243 0.92780 0.47382-0.12156-0.36402-0.14620
  -4  -8  11 29.9433 102.421   3 0.01752-0.29290 0.62654-0.97880 0.95802-0.44780
  -4  -8  10 6135.62 312.225   3-0.00072-0.29493 0.58511-0.97883 0.96237-0.54019
  -4  -8   9 13210.5 411.558   3-0.02311-0.29281 0.53197-0.96715 0.96395-0.62981
  -4  -8   8 1126.57 201.476   3-0.04957-0.28663 0.46590-0.94255 0.96043-0.71432
  -4  -8   7 4355.22 267.487   3-0.07969-0.27679 0.38630-0.90441 0.94914-0.79106
  -4  -8   6 999.410 158.780   3-0.11263-0.26412 0.29355-0.85312 0.92742-0.85738
  -4  -8   5 3315.52 224.886   3-0.14717-0.24986 0.18936-0.79039 0.89317-0.91116
  -4  -8   4 16792.8 409.255   3-0.18179-0.23551 0.07674-0.71923 0.84534-0.95137
  -4  -8   3 2905.15 219.609   3-0.21495-0.22262-0.04040-0.64356 0.78422-0.97829
  -4  -8   2 183.628 114.912   3-0.24529-0.21255-0.15785-0.56757 0.71137-0.99348
  -4  -8   1 314.575 77.0391   3-0.27186-0.20625-0.27183-0.49505 0.62918-0.99932
  -4  -8   0 401.481 203.588   3-0.29412-0.20427-0.37942-0.42892 0.54037-0.99854
  -4  -9  10 3263.93 340.613   3-0.03998-0.26519 0.49027-0.97979 0.96239-0.58533
  -4  -9   9 2848.16 262.267   3-0.06273-0.26271 0.43171-0.96269 0.95647-0.66744
  -4  -9   8 3021.29 231.635   3-0.08862-0.25710 0.36175-0.93419 0.94424-0.74325
  -4  -9   7 118.066 120.214   3-0.11706-0.24894 0.28061-0.89452 0.92371-0.81075
  -4  -9   6 2262.97 213.631   3-0.14716-0.23910 0.18937-0.84473 0.89317-0.86825
  -4  -9   5 252.124 119.941   3-0.17785-0.22869 0.08999-0.78682 0.85153-0.91464
  -4  -9   4 10808.2 383.254   3-0.20794-0.21887-0.01480-0.72349 0.79856-0.94971
  -4  -9   3 10.3645 72.8454   3-0.23631-0.21078-0.12186-0.65789 0.73494-0.97412
  -4  -9   2 20.5835 55.2870   3-0.26202-0.20534-0.22810-0.59311 0.66210-0.98932
  -4  -9   1 2995.68 178.737   3-0.28443-0.20321-0.33083-0.53184 0.58191-0.99716
  -4 -10   9 2372.27 295.686   3-0.09960-0.23537 0.33098-0.95776 0.93722-0.69331
  -4 -10   8 18473.2 508.733   3-0.12422-0.23102 0.25943-0.92767 0.91730-0.76142
  -4 -10   7 58.9998 111.026   3-0.15050-0.22502 0.17890-0.88861 0.88919-0.82135
  -4 -10   6 293.672 145.063   3-0.17762-0.21816 0.09077-0.84193 0.85189-0.87208
  -4 -10   5 1062.39 227.661   3-0.20469-0.21137-0.00306-0.78957 0.80495-0.91318
  -4 -10   4 877.018 234.333   3-0.23078-0.20556-0.10025-0.73384 0.74856-0.94483
   5 -10   4 2184.35 311.652   2 0.95010-0.43641 0.19892-0.93860 0.51948-0.49697
   5 -10   5 1319.33 185.908   2 0.95388-0.41991 0.23907-0.93728 0.51173-0.40117
   5  -9   0 2554.35 303.879   1 0.47384-0.03172-0.25012-0.55961-0.74002 0.45551
   5  -9   1 3753.70 255.131   1 0.50998-0.04760-0.27658-0.49168-0.71632 0.51985
   5  -9   4 956.300 186.646   2 0.95508-0.43187 0.29261-0.93649 0.49909-0.43146
   5  -9   5 87.0689 102.827   2 0.95346-0.40998 0.32639-0.92881 0.48970-0.33403
   5  -9   6 4093.67 244.597   2 0.95116-0.38740 0.35012-0.91108 0.48240-0.23870
   5  -9   7 760.302 193.317   2 0.94917-0.36514 0.36524-0.88474 0.47744-0.14570
   5  -8  -1 8886.91 290.843   1 0.38755 0.04381-0.18810-0.56730-0.78390 0.45647
   5  -8   0 890.934 208.495   1 0.42852 0.02311-0.21737-0.49657-0.76511 0.52571
   5  -8   1 57.2746 105.132   1 0.47290-0.00099-0.24944-0.42303-0.74059 0.58923
   5  -8   2 112.871 78.2209   1 0.51908-0.02690-0.28330-0.34771-0.70979 0.64647
   5  -8   3 8960.20 283.066   2 0.95158-0.43912 0.34649-0.93603 0.48356-0.45884
   5  -8   4 627.595 192.222   2 0.94603-0.41330 0.38444-0.93253 0.47078-0.35803
   5  -8   5 1.75861 56.9401   2 0.94051-0.38751 0.41101-0.91764 0.46085-0.26007
   5  -8   6 3723.63 255.795   2 0.93620-0.36292 0.42814-0.89330 0.45400-0.16518
   5  -8   7 3385.15 261.727   2 0.93365-0.34010 0.43725-0.86095 0.45021-0.07335
   5  -8   8 7843.10 348.466   2 0.93303-0.31921 0.43937-0.82161 0.44931 0.01558
   5  -7  -3 826.967 204.843   1 0.25409 0.14624-0.09471-0.64781-0.82362 0.36524
   5  -7  -2 2810.40 249.267   1 0.29185 0.12875-0.12086-0.58020-0.81542 0.44507
   5  -7  -1 1500.12 200.743   1 0.33619 0.10469-0.15183-0.50777-0.80283 0.52052
   5  -7   0 8908.70 294.281   1 0.38583 0.07532-0.18688-0.43126-0.78461 0.59034
   5  -7   1 1906.10 186.911   1 0.43909 0.04234-0.22496-0.35171-0.75968 0.65344
   5  -7   2 443.538 145.383   1 0.49397 0.00773-0.26482-0.27039-0.72726 0.70906
   5  -7   2 525.939 146.850   2 0.94270-0.44099 0.40130-0.93651 0.46458-0.48278
   5  -7   3 1527.18 201.854   2 0.93177-0.40980 0.44358-0.93733 0.44751-0.37768
   5  -7   4 32.3021 75.2966   2 0.92195-0.37970 0.47275-0.92503 0.43437-0.27650
   5  -7   5 2022.66 174.124   2 0.91456-0.35204 0.49149-0.90231 0.42528-0.17938
   5  -7   6 3459.36 200.425   2 0.91015-0.32736 0.50170-0.87107 0.42010-0.08616
   5  -7   7 35.5674 94.1026   2 0.90879-0.30572 0.50473-0.83264 0.41853 0.00344
   5  -7   8 26659.7 533.997   2 0.91027-0.28692 0.50144-0.78789 0.42023 0.08978
   5  -6  -5 5455.67 238.685   1 0.12410 0.24521-0.00615-0.72350-0.83563 0.24630
   5  -6  -4 4597.43 203.232   1 0.15223 0.23735-0.02513-0.66305-0.83506 0.33376
   5  -6  -3 605.666 139.272   1 0.18916 0.22070-0.05020-0.59652-0.83264 0.41937
   5  -6  -2 15316.3 369.009   1 0.23453 0.19560-0.08124-0.52402-0.82699 0.50176
   5  -6  -1 995.513 166.056   1 0.28748 0.16292-0.11782-0.44598-0.81649 0.57929
   5  -6   0 165.403 68.8484   1 0.34651 0.12416-0.15908-0.36325-0.79941 0.65026
   5  -6   1 11905.8 302.601   1 0.40949 0.08145-0.20373-0.27714-0.77427 0.71314
   5  -6   1 13084.6 291.358   2 0.92722-0.43627 0.45783-0.93871 0.44124-0.50236
   5  -6   2 185.143 89.6277   1 0.47384 0.03738-0.25013-0.18929-0.74002 0.76693
   5  -6   2 62.9041 61.5668   2 0.90896-0.39774 0.50437-0.94378 0.41872-0.39181
   5  -6   3 15131.8 339.618   2 0.89348-0.36199 0.53560-0.93355 0.40169-0.28674
   5  -6   4 838.042 130.292   2 0.88222-0.33045 0.55530-0.91179 0.39005-0.18707
   5  -6   5 6069.74 237.528   2 0.87557-0.30353 0.56601-0.88104 0.38341-0.09238
   5  -6   6 159.178 107.404   2 0.87337-0.28105 0.56942-0.84298 0.38124-0.00219
   5  -6   7 1054.42 152.065   2 0.87519-0.26260 0.56660-0.79871 0.38303 0.08406
   5  -6   8 7623.91 305.425   2 0.88045-0.24758 0.55822-0.74886 0.38826 0.16686
   5  -6   9 1040.11 234.520   2 0.88849-0.23535 0.54461-0.69379 0.39646 0.24670
   5  -5  -6 93.4094 81.4999   1 0.02595 0.33260 0.05932-0.73463-0.82931 0.19706
   5  -5  -5 5547.44 227.809   1 0.04966 0.32917 0.04362-0.67746-0.83201 0.28779
   5  -5  -4 989.797 164.400   1 0.08310 0.31600 0.02134-0.61373-0.83455 0.37837
   5  -5  -3 4410.72 205.181   1 0.12656 0.29281-0.00781-0.54312-0.83562 0.46748
   5  -5  -2 60.6752 85.8332   1 0.17987 0.25978-0.04388-0.46558-0.83343 0.55332
   5  -5  -1 12651.4 301.623   1 0.24213 0.21779-0.08647-0.38153-0.82575 0.63367
   5  -5   0 12723.0 300.506   1 0.31153 0.16867-0.13456-0.29197-0.81024 0.70620
   5  -5   0 13455.9 262.492   2 0.90297-0.42277 0.51714-0.94368 0.41196-0.51600
   5  -5   1 3855.35 162.184   2 0.87471-0.37424 0.56735-0.95243 0.38256-0.39856
   5  -5   1 3793.17 185.329   1 0.38529 0.11517-0.18650-0.19858-0.78483 0.76883
   5  -5   2 29192.3 420.508   2 0.85203-0.33129 0.59959-0.94320 0.36097-0.28894
   5  -5   2 28806.5 432.170   1 0.46002 0.06072-0.24009-0.10353-0.74818 0.82022
   5  -5   3 10149.3 261.273   2 0.83617-0.29515 0.61920-0.92136 0.34661-0.18654
   5  -5   3 10644.0 278.277   1 0.53209 0.00892-0.29294-0.00922-0.70000 0.86007
   5  -5   4 95.0070 119.814   2 0.82711-0.26582 0.62954-0.89023 0.33862-0.09052
   5  -5   5 6222.96 233.261   2 0.82426-0.24270 0.63267-0.85190 0.33614 0.00000
   5  -5   6 1798.57 199.451   2 0.82682-0.22498 0.62986-0.80763 0.33837 0.08581
   5  -5   7 314.098 133.626   2 0.83391-0.21180 0.62184-0.75814 0.34460 0.16761
   5  -5   8 29394.1 532.809   2 0.84466-0.20228 0.60896-0.70380 0.35424 0.24601
   5  -5   9 3652.17 287.404   2 0.85824-0.19558 0.59130-0.64469 0.36675 0.32153
   5  -4  -8 2746.77 263.486   1-0.07543 0.40295 0.12575-0.78819-0.80948 0.04628
   5  -4  -7 9722.02 298.083   1-0.06692 0.41472 0.12023-0.74120-0.81166 0.13649
   5  -4  -6 41.7866 73.1120   1-0.04934 0.41741 0.10878-0.68829-0.81587 0.22874
   5  -4  -5 2536.15 238.136   1-0.02177 0.41011 0.09074-0.62879-0.82166 0.32256
   5  -4  -4 41.0377 77.6051   1 0.01672 0.39190 0.06542-0.56201-0.82806 0.41700
   5  -4  -3 6.67629 39.5195   1 0.06680 0.36209 0.03222-0.48734-0.83349 0.51046
   5  -4  -2 6717.95 239.808   1 0.12855 0.32062-0.00915-0.40452-0.83561 0.60062
   5  -4  -1 7512.32 241.463   1 0.20106 0.26837-0.05832-0.31388-0.83145 0.68449
   5  -4   0 107542. 687.490   2 0.82425-0.33454 0.63267-0.96341 0.33613-0.39506
   5  -4   0 103237. 759.845   1 0.28210 0.20762-0.11408-0.21666-0.81775 0.75883
   5  -4   1 104.164 69.2564   2 0.79285-0.28287 0.66397-0.95325 0.30958-0.28046
   5  -4   1 89.3453 74.9223   1 0.36799 0.14200-0.17423-0.11505-0.79169 0.82080
   5  -4   2 24191.2 372.724   2 0.77208-0.24182 0.68192-0.92974 0.29269-0.17554
   5  -4   2 24614.0 389.930   1 0.45413 0.07613-0.23582-0.01200-0.75152 0.86867
   5  -4   3 8753.12 242.573   2 0.76098-0.21045 0.69076-0.89712 0.28386-0.07868
   5  -4   4 482.685 114.368   2 0.75821-0.18740 0.69290-0.85779 0.28167 0.01155
   5  -4   4 352.270 86.1984   0 0.78974-0.21893 0.24778-0.41267-0.24994 0.54316
   5  -4   5 25848.2 390.134   0 0.83588-0.24480 0.27678-0.40022-0.16258 0.54384
   5  -4   5 25585.2 430.407   2 0.76239-0.17131 0.68967-0.81311 0.28497 0.09629
   5  -4   6 17.1979 58.6253   2 0.77223-0.16088 0.68180-0.76377 0.29281 0.17648
   5  -4   6-7.37172 34.3501   0 0.87139-0.26003 0.30094-0.38291-0.08257 0.55186
   5  -4   7 11724.1 331.902   2 0.78658-0.15495 0.66960-0.71011 0.30443 0.25290
   5  -4   7 11701.3 323.812   0 0.89879-0.26716 0.32139-0.36190-0.00820 0.56552
   5  -4   8 1604.71 262.999   2 0.80442-0.15251 0.65308-0.65213 0.31920 0.32617
   5  -4   8 1806.78 181.290   0 0.91973-0.26783 0.33890-0.33795 0.06184 0.58352
   5  -4   9 2549.24 209.015   2 0.82479-0.15261 0.63209-0.58968 0.33660 0.39680
   5  -3  -9 6467.68 258.277   1-0.15346 0.47022 0.17604-0.78414-0.78493-0.02120
   5  -3  -8 352.543 132.065   1-0.15138 0.48842 0.17472-0.74135-0.78569 0.06760
   5  -3  -7 6216.99 235.979   1-0.14084 0.49816 0.16797-0.69314-0.78946 0.15940
   5  -3  -6 121.280 109.044   1-0.12073 0.49832 0.15504-0.63875-0.79623 0.25421
   5  -3  -5 249.927 102.936   1-0.08971 0.48757 0.13501-0.57726-0.80560 0.35162
   5  -3  -4 4127.73 192.349   1-0.04636 0.46450 0.10683-0.50762-0.81655 0.45060
   5  -3  -3 10844.9 267.532   1 0.01051 0.42790 0.06952-0.42885-0.82716 0.54925
   5  -3  -2 40478.7 475.701   1 0.08142 0.37727 0.02247-0.34033-0.83445 0.64458
   5  -3  -1 6753.22 176.445   2 0.74983-0.27087 0.69917-0.97558 0.27510-0.37694
   5  -3  -1 6706.64 223.108   1 0.16548 0.31348-0.03411-0.24230-0.83441 0.73257
   5  -3   0 230.513 98.3851   2 0.70908-0.20985 0.72633-0.96127 0.24399-0.25780
   5  -3   0 204.077 81.2503   0 0.31703 0.18220 0.00634-0.24128-0.75625 0.74245
   5  -3   0 385.312 101.717   1 0.25985 0.23938-0.09868-0.13626-0.82251 0.80871
   5  -3   1 2080.88 123.001   2 0.68422-0.16471 0.74052-0.93400 0.22561-0.15138
   5  -3   1 1994.90 142.779   1 0.35956 0.15994-0.16828-0.02520-0.79482 0.86905
   5  -3   1 2188.89 119.437   0 0.46720 0.05230 0.07649-0.26997-0.64108 0.71531
   5  -3   2 377.753 100.715   2 0.67250-0.13272 0.74666-0.89868 0.21708-0.05481
   5  -3   2 491.588 99.3533   1 0.45825 0.08153-0.23880 0.08678-0.74920 0.91146
   5  -3   2 445.444 106.600   0 0.58743-0.04765 0.13617-0.28819-0.52438 0.68665
   5  -3   3 9274.91 246.868   2 0.67140-0.11135 0.74722-0.85778 0.21628 0.03402
   5  -3   3 9693.75 223.065   0 0.68068-0.12062 0.18535-0.29591-0.41366 0.66396
   5  -3   4 16860.1 351.844   2 0.67877-0.09845 0.74342-0.81251 0.22163 0.11670
   5  -3   4 16930.7 306.310   0 0.75246-0.17213 0.22566-0.29475-0.31136 0.64969
   5  -3   5 1385.44 156.874   2 0.69284-0.09224 0.73578-0.76342 0.23193 0.19444
   5  -3   5 1389.27 148.029   0 0.80788-0.20728 0.25893-0.28657-0.21734 0.64371
   5  -3   6 15127.3 341.884   0 0.85086-0.22998 0.28673-0.27290-0.13054 0.64495
   5  -3   6 15846.1 368.045   2 0.71211-0.09124 0.72448-0.71065 0.24627 0.26814
   5  -3   7 2629.04 178.964   2 0.73537-0.09422 0.70941-0.65412 0.26391 0.33853
   5  -3   7 2609.98 205.167   0 0.88416-0.24301 0.31021-0.25493-0.04969 0.65213
   5  -3   8 841.051 194.642   2 0.76156-0.10014 0.69032-0.59357 0.28432 0.40616
   5  -3   8 872.633 217.381   0 0.90971-0.24829 0.33024-0.23349 0.02635 0.66413
   5  -3   9 4532.12 296.126   2 0.78975-0.10805 0.66678-0.52857 0.30702 0.47149
   5  -2 -10 45.4444 138.928   1-0.22117 0.52718 0.21907-0.77283-0.75678-0.09226
   5  -2  -9 165.551 62.1343   1-0.22534 0.55162 0.22170-0.73400-0.75483-0.00618
   5  -2  -8 465.084 115.699   1-0.22193 0.56849 0.21955-0.69039-0.75643 0.08345
   5  -2  -7 337.455 110.275   1-0.20987 0.57670 0.21193-0.64130-0.76194 0.17700
   5  -2  -6 705.263 110.353   1-0.18769 0.57480 0.19787-0.58579-0.77152 0.27461
   5  -2  -5 39952.4 511.189   1-0.15358 0.56096 0.17612-0.52258-0.78488 0.37602
   5  -2  -4 2149.17 152.743   1-0.10549 0.53315 0.14522-0.45021-0.80099 0.48016
   5  -2  -3 122.293 69.6688   1-0.04147 0.48940 0.10364-0.36717-0.81763 0.58483
   5  -2  -2 17458.9 257.999   0-0.07065 0.53885-0.15779-0.06428-0.93502 0.79026
   5  -2  -2 17141.7 308.312   1 0.03960 0.42860 0.05029-0.27236-0.83095 0.68619
   5  -2  -1 23858.1 299.927   0 0.10472 0.38375-0.08631-0.09430-0.87347 0.81674
   5  -2  -1 23128.1 339.337   1 0.13700 0.35148-0.01484-0.16577-0.83550 0.77878
   5  -2   0 265.809 88.3684   2 0.56613-0.05738 0.78924-0.92839 0.14293-0.11162
   5  -2   0 192.230 58.8905   0 0.27508 0.23367-0.01254-0.12661-0.78336 0.81467
   5  -2   0 170.933 75.0890   1 0.24702 0.26173-0.08983-0.04931-0.82490 0.85621
   5  -2   1 4721.45 153.162   0 0.42551 0.10352 0.05658-0.15426-0.67611 0.79546
   5  -2   1 4479.62 162.445   2 0.55689-0.02786 0.79198-0.88966 0.13673-0.01738
   5  -2   1 4605.33 163.452   1 0.36269 0.16634-0.17049 0.07280-0.79367 0.91302
   5  -2   2 1365.87 141.806   2 0.56023-0.01093 0.79100-0.84723 0.13897 0.06841
   5  -2   2 1260.94 94.7944   1 0.47498 0.07432-0.25096 0.19473-0.73932 0.94670
   5  -2   2 1264.73 89.6654   0 0.54996-0.00067 0.11718-0.17340-0.56350 0.77088
   5  -2   3 6806.93 215.331   2 0.57319-0.00361 0.78706-0.80182 0.14769 0.14773
   5  -2   3 6950.78 198.487   0 0.64934-0.07977 0.16848-0.18325-0.45325 0.74867
   5  -2   4 8772.25 252.094   2 0.59350-0.00366 0.78031-0.75361 0.16151 0.22195
   5  -2   4 9617.48 248.743   0 0.72754-0.13770 0.21137-0.18467-0.34894 0.73240
   5  -2   5 17754.5 370.488   2 0.61943-0.00931 0.77064-0.70248 0.17940 0.29209
   5  -2   5 16502.7 337.347   0 0.78883-0.17870 0.24722-0.17906-0.25154 0.72303
   5  -2   6 2428.08 178.237   0 0.83679-0.20640 0.27738-0.16776-0.16068 0.72021
   5  -2   6 2772.92 200.933   2 0.64958-0.01919 0.75776-0.64813 0.20062 0.35890
   5  -2   7 3695.38 232.295   2 0.68282-0.03215 0.74127-0.59019 0.22458 0.42298
   5  -2   7 3562.17 205.101   0 0.87419-0.22352 0.30294-0.15185-0.07559 0.72315
   5  -2   8 952.990 222.170   2 0.71820-0.04726 0.72069-0.52815 0.25085 0.48475
   5  -1 -10 33.1193 104.574   1-0.28785 0.60339 0.26084-0.71880-0.72242-0.08150
   5  -1  -9 74.9467 101.583   1-0.29103 0.62684 0.26281-0.67932-0.72061 0.00472
   5  -1  -8 4935.18 219.602   1-0.28669 0.64277 0.26011-0.63516-0.72308 0.09523
   5  -1  -7 235.187 114.118   1-0.27350 0.64985 0.25190-0.58548-0.73040 0.19058
   5  -1  -6 1416.04 157.796   1-0.24963 0.64626 0.23697-0.52909-0.74295 0.29117
   5  -1  -5 1569.31 150.108   1-0.21271 0.62962 0.21373-0.46439-0.76066 0.39691
   5  -1  -4 10195.0 254.986   1-0.15987 0.59704 0.18014-0.38934-0.78254 0.50683
   5  -1  -3 5925.66 197.087   1-0.08812 0.54557 0.13399-0.30172-0.80605 0.61837
   5  -1  -2 14.3124 37.4891   2 0.43431 0.04342 0.81661-0.94288 0.05738-0.15702
   5  -1  -2 52.8760 60.0826   1 0.00462 0.47310 0.07340-0.19967-0.82626 0.72662
   5  -1  -2 28.3795 33.8726   0-0.07418 0.55191-0.15918 0.03291-0.93595 0.83630
   5  -1  -1 34609.6 366.859   2 0.41372 0.08428 0.81885-0.90366 0.04453-0.05613
   5  -1  -1 35260.3 378.220   0 0.09483 0.40316-0.09046 0.00565-0.87776 0.86616
   5  -1  -1 35030.0 391.693   1 0.11792 0.38008-0.00199-0.08282-0.83561 0.82400
   5  -1   0 7826.07 205.352   2 0.41173 0.10654 0.81904-0.86239 0.04329 0.03314
   5  -1   0 7949.64 190.506   1 0.24679 0.27148-0.08968 0.04633-0.82494 0.90137
   5  -1   0 8356.22 197.120   0 0.25954 0.25873-0.01946-0.02389-0.79288 0.86931
   5  -1   1 17263.8 286.686   0 0.40708 0.13147 0.04788-0.04977-0.69081 0.85528
   5  -1   1 16845.3 293.785   2 0.42320 0.11535 0.81788-0.81977 0.05043 0.11403
   5  -1   1 17532.1 276.172   1 0.38106 0.15749-0.18349 0.18160-0.78657 0.95103
   5  -1   2 32.2814 30.6233   2 0.44461 0.11421 0.81530-0.77573 0.06386 0.18864
   5  -1   2 59.0151 55.7068   1 0.50758 0.05124-0.27482 0.31439-0.71801 0.97051
   5  -1   2 59.7621 53.6621   0 0.53160 0.02722 0.10801-0.06843-0.58171 0.83421
   5  -1   3 9856.33 259.586   2 0.47346 0.10563 0.81093-0.72990 0.08218 0.25835
   5  -1   3 9359.72 238.105   0 0.63302-0.05393 0.15984-0.07881-0.47286 0.81339
   5  -1   4 201.071 89.7729   2 0.50788 0.09149 0.80430-0.68181 0.10439 0.32418
   5  -1   4 152.544 72.3585   0 0.71417-0.11480 0.20384-0.08134-0.36816 0.79673
   5  -1   5 24285.2 415.942   0 0.77855-0.15891 0.24104-0.07708-0.26910 0.78571
   5  -1   5 24601.4 431.633   2 0.54643 0.07321 0.79491-0.63095 0.12976 0.38685
   5  -1   6 3160.73 190.095   0 0.82936-0.18945 0.27255-0.06713-0.17588 0.78052
   5  -1   6 3640.51 197.285   2 0.58799 0.05193 0.78221-0.57679 0.15774 0.44690
   5  -1   7 1629.73 246.430   2 0.63162 0.02857 0.76565-0.51877 0.18793 0.50475
   5  -1   7 1487.23 175.615   0 0.86917-0.20898 0.29936-0.05248-0.08801 0.78069
   5  -1   8 411.233 161.311   2 0.67653 0.00393 0.74459-0.45624 0.22000 0.56071
   5   0 -11 52.1315 88.6544   1-0.33898 0.64376 0.29243-0.69606-0.69123-0.15561
   5   0 -10 905.426 175.155   1-0.34783 0.67288 0.29786-0.66002-0.68537-0.07343
   5   0  -9 160.225 116.315   1-0.35027 0.69560 0.29935-0.62006-0.68373 0.01296
   5   0  -8 7600.29 270.072   1-0.34526 0.71086 0.29628-0.57552-0.68709 0.10436
   5   0  -7 3119.40 188.239   1-0.33121 0.71708 0.28765-0.52544-0.69626 0.20156
   5   0  -6 2474.48 201.603   1-0.30591 0.71206 0.27204-0.46836-0.71191 0.30524
   5   0  -5 894.306 149.464   1-0.26631 0.69273 0.24741-0.40227-0.73428 0.41565
  -5   0   4 2308.52 113.562   3 0.19872-0.64541 0.93704-0.82365 0.74789-0.51729
   5   0  -4 2588.81 138.473   1-0.20850 0.65519 0.21106-0.32446-0.76255 0.53195
   5   0  -3 1382.10 120.888   2 0.23920 0.22776 0.81952-0.89145-0.05985-0.08271
   5   0  -3 1378.41 122.062   1-0.12807 0.59504 0.15977-0.23170-0.79382 0.65126
   5   0  -2 10058.2 222.008   0-0.05808 0.54532-0.15281 0.12234-0.93164 0.87711
   5   0  -2 9806.39 198.855   2 0.23121 0.25603 0.81883-0.84930-0.06445 0.00993
   5   0  -2 10141.4 221.154   1-0.02141 0.50865 0.09051-0.12098-0.82173 0.76720
   5   0  -1 37520.8 398.091   2 0.24117 0.26635 0.81968-0.80869-0.05872 0.09223
   5   0  -1 37827.3 404.911   0 0.10531 0.40220-0.08607 0.09705-0.87321 0.90672
   5   0  -1 37815.9 381.111   1 0.11160 0.39592 0.00225 0.00873-0.83554 0.86905
   5   0   0 43.2614 63.5914   2 0.26389 0.26390 0.82127-0.76883-0.04555 0.16709
   5   0   0 53.8804 59.6728   1 0.26389 0.26390-0.10148 0.15393-0.82170 0.94325
   5   0   0 90.6758 59.4373   0 0.26390 0.26389-0.01752 0.06997-0.79024 0.91179
   5   0   1 706.270 111.878   2 0.29597 0.25209 0.82268-0.72878-0.02674 0.23632
   5   0   1 763.605 92.8615   1 0.41985 0.12822-0.21114 0.30505-0.76938 0.97896
   5   0   2 1001.35 115.947   2 0.33499 0.23335 0.82303-0.68766-0.00353 0.30115
   5   0   2 1107.51 93.3575   0 0.52879 0.03955 0.10661 0.02876-0.58445 0.88206
   5   0   3 35475.1 471.352   2 0.37917 0.20944 0.82152-0.64469 0.02323 0.36242
   5   0   3 34808.3 457.803   0 0.62950-0.04088 0.15799 0.01885-0.47701 0.86267
   5   0   4 9043.07 255.846   2 0.42717 0.18172 0.81745-0.59915 0.05291 0.42078
   5   0   4 12327.8 295.014   0 0.71104-0.10215 0.20209 0.01621-0.37256 0.84625
   5   0   5 53161.5 625.123   0 0.77634-0.14718 0.23971 0.02004-0.27281 0.83453
   5   0   5 54589.0 623.814   2 0.47791 0.15125 0.81016-0.55041 0.08503 0.47670
   5   0   6 2612.44 194.515   0 0.82820-0.17877 0.27180 0.02942-0.17821 0.82797
   5   0   6 2708.33 180.225   2 0.53053 0.11890 0.79905-0.49783 0.11923 0.53053
   5   0   7 1201.35 222.070   2 0.58432 0.08539 0.78345-0.44077 0.15524 0.58255
   5   1 -11 404.706 162.425   1-0.39294 0.70724 0.32531-0.63315-0.65327-0.14846
   5   1 -10 5787.70 300.274   1-0.40099 0.73557 0.33018-0.59655-0.64712-0.06657
   5   1  -9 781.304 189.053   1-0.40283 0.75768 0.33128-0.55619-0.64570 0.02005
   5   1  -8 2173.66 204.821   1-0.39726 0.77238 0.32792-0.51137-0.64999 0.11237
   5   1  -7 317.959 106.659   1-0.38248 0.77787 0.31897-0.46096-0.66106 0.21148
   5   1  -6 1995.63 188.527   1-0.35583 0.77149 0.30275-0.40327-0.67996 0.31841
  -5  -1   6 1496.37 124.747   3 0.19873-0.61440 0.93706-0.83654 0.74785-0.38630
   5   1  -5 54487.5 529.109   1-0.31348 0.74942 0.27673-0.33579-0.70734 0.43382
  -5  -1   5 52619.7 478.637   3 0.17400-0.60994 0.90757-0.84851 0.79783-0.52432
  -5  -1   4 4865.16 162.649   3 0.13333-0.58955 0.84878-0.83118 0.86297-0.67749
   5   1  -4 4879.39 177.712   1-0.25020 0.70641 0.23733-0.25493-0.74267 0.55719
  -5  -1   3 6787.20 161.027   3 0.06820-0.54469 0.73279-0.75665 0.93125-0.83381
   5   1  -3 6662.79 182.695   1-0.15951 0.63600 0.17992-0.15606-0.78267 0.68523
   5   1  -2 69.2098 65.4544   0-0.02639 0.52315-0.14017 0.20549-0.92240 0.91299
   5   1  -2 26.8974 37.7072   1-0.03541 0.53217 0.09967-0.03435-0.81892 0.80951
   5   1  -1 5645.85 175.541   0 0.13160 0.38544-0.07497 0.18175-0.86129 0.93991
   5   1  -1 5821.65 148.974   1 0.12329 0.39375-0.00560 0.11239-0.83563 0.91426
   5   1   0 4824.22 135.357   1 0.30581 0.23150-0.13057 0.27882-0.81181 0.97848
   5   1   0 4622.02 167.285   0 0.28369 0.25362-0.00869 0.15693-0.77796 0.94463
   5   1   1 30.8544 45.4286   0 0.42080 0.13679 0.05435 0.13536-0.67992 0.93461
   5   1   1 45.0449 62.8506   2 0.18474 0.37285 0.81365-0.62394-0.09092 0.34561
   5   1   2 836.260 103.633   2 0.23845 0.33941 0.81946-0.58829-0.06029 0.40302
   5   1   2 955.182 127.354   0 0.53860 0.03926 0.11149 0.11967-0.57484 0.91757
   5   1   3 6580.14 225.205   2 0.29572 0.30241 0.82268-0.55005-0.02689 0.45766
   5   1   3 6202.86 219.541   0 0.63668-0.03854 0.16177 0.11086-0.46852 0.89929
   5   1   4 26326.4 441.971   2 0.35556 0.26285 0.82258-0.50849 0.00887 0.50994
   5   1   4 25611.3 438.089   0 0.71673-0.09832 0.20527 0.10882-0.36452 0.88333
   5   1   5 1807.58 131.172   0 0.78125-0.14257 0.24265 0.11290-0.26455 0.87139
   5   1   5 2353.72 192.070   2 0.41717 0.22151 0.81851-0.46296 0.04667 0.56017
   5   1   6 42.2187 94.2780   0 0.83267-0.17372 0.27469 0.12232-0.16917 0.86405
   5   1   6 75.3243 77.0514   2 0.47988 0.17908 0.80982-0.41280 0.08629 0.60858
   5   2 -11 4716.15 256.477   1-0.44000 0.76382 0.35356-0.56560-0.61543-0.14118
  -5  -2  11 4484.66 293.779   3 0.20161-0.52542 0.94013-0.72810 0.74146 0.01515
   5   2 -10 3600.60 236.392   1-0.44728 0.79137 0.35790-0.52847-0.60914-0.05944
  -5  -2  10 3083.36 228.501   3 0.20067-0.54476 0.93914-0.76856 0.74356-0.07499
   5   2  -9 966.682 159.845   1-0.44851 0.81287 0.35863-0.48774-0.60806 0.02753
  -5  -2   9 612.615 93.0264   3 0.19644-0.56080 0.93455-0.80544 0.75286-0.17232
   5   2  -8 30641.4 471.420   1-0.44236 0.82700 0.35497-0.44262-0.61340 0.12089
  -5  -2   8 28853.9 480.804   3 0.18789-0.57253 0.92479-0.83714 0.77084-0.27833
   5   2  -7 1582.23 167.784   1-0.42681 0.83172 0.34569-0.39187-0.62651 0.22205
  -5  -2   7 1507.57 150.116   3 0.17341-0.57833 0.90682-0.86063 0.79891-0.39444
   5   2  -6 3399.04 175.910   1-0.39869 0.82388 0.32879-0.33351-0.64889 0.33246
  -5  -2   6 3249.12 183.739   3 0.15059-0.57577 0.87516-0.87043 0.83769-0.52126
   5   2  -5 1562.81 145.638   1-0.35324 0.79871 0.30117-0.26443-0.68172 0.45333
  -5  -2   5 1516.94 137.683   3 0.11592-0.56138 0.82021-0.85695 0.88526-0.65686
   5   2  -4 1011.89 119.874   1-0.28346 0.74920 0.25811-0.17991-0.72490 0.58454
  -5  -2   4 1175.44 105.793   3 0.06513-0.53087 0.72673-0.80493 0.93350-0.79314
  -5  -2   3 7693.84 191.908   3-0.00485-0.48116 0.57549-0.69515 0.96298-0.91065
   5   2  -3 7223.15 174.357   1-0.17988 0.66589 0.19290-0.07325-0.77472 0.72239
   5   2  -2 12741.9 265.923   0 0.01797 0.48832-0.12223 0.28335-0.90778 0.94349
   5   2  -2 13712.5 217.028   1-0.03245 0.53873 0.09774 0.06338-0.81954 0.85525
   5   2  -1 47.2763 47.9700   0 0.17042 0.35614-0.05839 0.26097-0.84237 0.96612
   5   2   0 4156.34 170.364   0 0.31564 0.23119 0.00570 0.23834-0.75718 0.96896
   5   2   1 42147.1 490.930   0 0.44620 0.12091 0.06641 0.21909-0.65905 0.95886
   5   2   2 9745.13 265.670   0 0.55865 0.02873 0.12154 0.20542-0.55467 0.94252
   5   2   3 34291.2 497.241   0 0.65270-0.04505 0.17027 0.19816-0.44913 0.92502
   5   2   3 34194.3 495.670   2 0.22634 0.38132 0.81838-0.44995-0.06725 0.54314
   5   2   4 1742.83 190.856   2 0.29576 0.33216 0.82268-0.41279-0.02687 0.59079
   5   2   4 1603.38 213.566   0 0.72985-0.10192 0.21268 0.19721-0.34557 0.90949
   5   2   5 2301.42 180.060   0 0.79222-0.14402 0.24929 0.20206-0.24560 0.89756
   5   2   5 1716.63 195.139   2 0.36650 0.28170 0.82216-0.37081 0.01551 0.63645
   5   2   6 5.85900 104.048   2 0.43797 0.23050 0.81616-0.32335 0.05968 0.68031
   5   3 -11 2214.49 205.938   1-0.48024 0.81358 0.37736-0.49360-0.57908-0.13241
  -5  -3  11 1925.82 182.040   3 0.17555-0.50889 0.90957-0.79334 0.79495-0.08346
   5   3 -10 13419.7 371.737   1-0.48670 0.84031 0.38115-0.45592-0.57288-0.05058
  -5  -3  10 12526.3 364.890   3 0.17110-0.52471 0.90378-0.82901 0.80314-0.17968
   5   3  -9 2701.56 217.439   1-0.48721 0.86109 0.38145-0.41476-0.57239 0.03696
  -5  -3   9 1813.07 179.651   3 0.16257-0.53645 0.89225-0.85894 0.81813-0.28271
   5   3  -8 35644.1 506.107   1-0.48033 0.87449 0.37742-0.36927-0.57900 0.13161
  -5  -3   8 31179.2 467.222   3 0.14875-0.54291 0.87245-0.88060 0.84053-0.39315
   5   3  -7 85.9871 78.9332   1-0.46376 0.87819 0.36766-0.31805-0.59444 0.23509
  -5  -3   7 39.0553 57.2177   3 0.12798-0.54241 0.84020-0.88981 0.87016-0.51081
   5   3  -6 548.842 107.319   1-0.43378 0.86849 0.34986-0.25879-0.62070 0.34938
  -5  -3   6 667.548 120.080   3 0.09809-0.53280 0.78906-0.88013 0.90494-0.63362
   5   3  -5 29939.9 378.009   1-0.38445 0.83943 0.32017-0.18764-0.65961 0.47633
  -5  -3   5 29689.2 393.202   3 0.05674-0.51172 0.70993-0.84246 0.93923-0.75595
   5   3  -4 1005.87 99.0654   1-0.30632 0.78157 0.27229-0.09830-0.71166 0.61642
  -5  -3   4 1073.43 128.401   3 0.00241-0.47767 0.59234-0.76634 0.96182-0.86658
  -5  -3   3 1001.86 117.764   3-0.06360-0.43193 0.42942-0.64488 0.95616-0.94895
   5   3  -3 1021.60 121.718   0-0.07350 0.56903-0.15891 0.37437-0.93577 0.92856
  -5  -3   2 8452.11 195.536   3-0.13520-0.38060 0.22630-0.48322 0.90644-0.98727
   5   3  -2 8806.91 229.789   0 0.07274 0.44306-0.09968 0.35660-0.88700 0.96783
   5   3  -1 26230.5 384.125   0 0.21929 0.31679-0.03719 0.33557-0.81631 0.98517
   5   3   0 248.657 91.7798   0 0.35724 0.19911 0.02471 0.31513-0.72830 0.98519
   5   3   1 6444.49 228.182   0 0.48065 0.09597 0.08300 0.29831-0.62923 0.97416
   5   3   2 29846.4 457.953   0 0.58690 0.01000 0.13590 0.28687-0.52496 0.95793
   5   3   3 47.0768 50.5686   2 0.17224 0.44493 0.81192-0.34769-0.09795 0.61895
   5   3   3 103.894 85.1318   0 0.67591-0.05874 0.18276 0.28146-0.41985 0.94086
   5   3   4 18284.6 398.616   0 0.74905-0.11160 0.22368 0.28201-0.31665 0.92569
   5   3   4 18993.5 412.506   2 0.24905 0.38840 0.82029-0.31460-0.05417 0.66321
   5   3   5 2091.19 214.612   2 0.32717 0.33055 0.82308-0.27594-0.00821 0.70529
   5   4 -12 29.4267 112.607   1-0.50342 0.82601 0.39090-0.45280-0.55628-0.19813
  -5  -4  12 72.2887 122.250   3 0.14999-0.47257 0.87428-0.81238 0.83862-0.08421
   5   4 -11 45.5381 75.0291   1-0.51383 0.85669 0.39694-0.41738-0.54556-0.12082
  -5  -4  11 99.0975 115.733   3 0.14562-0.48847 0.86777-0.84733 0.84531-0.17894
   5   4 -10 3696.58 197.015   1-0.51931 0.88244 0.40010-0.37908-0.53978-0.03856
  -5  -4  10 5588.81 303.806   3 0.13744-0.50057 0.85524-0.87626 0.85725-0.27891
   5   4  -9 44.2591 69.5792   1-0.51889 0.90229 0.39986-0.33738-0.54022 0.04992
  -5  -4   9 72.6179 115.418   3 0.12456-0.50797 0.83463-0.89711 0.87459-0.38428
   5   4  -8 1206.77 183.709   1-0.51098 0.91465 0.39529-0.29134-0.54853 0.14626
  -5  -4   8 954.403 131.608   3 0.10583-0.50951 0.80281-0.90676 0.89678-0.49451
   5   4  -7 23415.2 387.846   1-0.49293 0.91689 0.38479-0.23939-0.56678 0.25255
  -5  -4   7 22451.5 431.973   3 0.07987-0.50382 0.75533-0.90074 0.92195-0.60772
   5   4  -6 1312.62 138.825   1-0.46035 0.90457 0.36564-0.17877-0.59754 0.37134
  -5  -4   6 1447.73 176.654   3 0.04530-0.48953 0.68643-0.87329 0.94605-0.71985
   5   4  -5 6845.57 188.306   1-0.40568 0.87018 0.33300-0.10467-0.64348 0.50532
  -5  -4   5 7449.83 243.278   3 0.00133-0.46583 0.58985-0.81818 0.96202-0.82386
  -5  -4   4 7255.17 227.910   3-0.05140-0.43337 0.46121-0.73100 0.95997-0.90984
   5   4  -3 16705.3 321.440   0-0.00644 0.51149-0.13213 0.44339-0.91607 0.95398
  -5  -4   3 17193.8 313.422   3-0.10984-0.39521 0.30166-0.61291 0.92966-0.96756
   5   4  -2 5617.28 191.092   0 0.13611 0.38921-0.07305 0.42576-0.85917 0.98511
  -5  -4   2 6256.14 221.124   3-0.16862-0.35670 0.12063-0.47334 0.86527-0.99121
  -5  -4   1 1004.07 124.586   3-0.22181-0.32379-0.06599-0.32819 0.76934-0.98332
   5   4  -1 1083.56 138.307   0 0.27623 0.26937-0.01203 0.40620-0.78264 0.99662
   5   4   0 55658.2 585.025   0 0.40651 0.15936 0.04762 0.38802-0.69126 0.99328
   5   4   1 336.766 90.7155   0 0.52227 0.06387 0.10338 0.37372-0.59073 0.98078
   5   4   2 9588.43 284.224   0 0.62166-0.01524 0.15388 0.36468-0.48614 0.96422
   5   4   3 256.399 134.959   0 0.70483-0.07814 0.19863 0.36139-0.38121 0.94733
   5   4   4 7536.96 311.026   0 0.77307-0.12611 0.23777 0.36371-0.27824 0.93240
   5   4   4 7438.29 274.982   2 0.21563 0.43134 0.81731-0.21583-0.07338 0.72754
   5   5 -12 840.734 236.108   1-0.53177 0.86387 0.40727-0.37338-0.52630-0.18299
  -5  -5  12 1002.36 216.058   3 0.12003-0.45213 0.82713-0.86102 0.88028-0.17098
   5   5 -11 1191.13 201.397   1-0.54094 0.89331 0.41252-0.33716-0.51607-0.10519
  -5  -5  11 1607.37 206.833   3 0.11244-0.46482 0.81429-0.88965 0.88934-0.26808
   5   5 -10 310.585 141.221   1-0.54522 0.91787 0.41496-0.29814-0.51119-0.02203
  -5  -5  10 1044.88 253.474   3 0.10067-0.47332 0.79368-0.91050 0.90228-0.36906
   5   5  -9 49321.0 612.714   1-0.54356 0.93648 0.41401-0.25573-0.51310 0.06791
  -5  -5   9 47831.1 637.312   3 0.08391-0.47683 0.76297-0.92125 0.91844-0.47326
   5   5  -8 711.895 173.476   1-0.53413 0.94733 0.40863-0.20888-0.52370 0.16654
  -5  -5   8 966.712 184.444   3 0.06125-0.47445 0.71900-0.91875 0.93623-0.57907
   5   5  -7 3690.58 182.807   1-0.51389 0.94736 0.39697-0.15577-0.54549 0.27638
  -5  -5   7 3781.34 226.150   3 0.03188-0.46535 0.65797-0.89918 0.95264-0.68353
  -5  -5   6 10948.4 306.196   3-0.00468-0.44907 0.57591-0.85857 0.96295-0.78187
  -5  -5   5 26228.0 429.660   3-0.04802-0.42600 0.46989-0.79401 0.96080-0.86776
   5   5  -4 7194.70 227.680   0-0.06666 0.56096-0.15621 0.52180-0.93397 0.92896
  -5  -5   4 7188.88 255.889   3-0.09644-0.39785 0.33990-0.70549 0.93936-0.93435
  -5  -5   3 40.7577 59.0241   3-0.14685-0.36772 0.19036-0.59741 0.89354-0.97656
   5   5  -3 53.2954 62.2342   0 0.06856 0.44601-0.10142 0.50847-0.88870 0.97172
  -5  -5   2 1300.46 155.916   3-0.19535-0.33950 0.03006-0.47857 0.82236-0.99342
   5   5  -2 1372.17 148.049   0 0.20654 0.32830-0.04276 0.49127-0.82335 0.99441
   5   5  -1 5741.72 221.693   0 0.33963 0.21549 0.01662 0.47335-0.74079 0.99988
  -5  -5   1 5699.36 221.738   3-0.23842-0.31670-0.13021-0.35976 0.72957-0.98867
   5   5   0 12248.7 302.363   0 0.46179 0.11360 0.07389 0.45755-0.64577 0.99290
  -5  -5   0 1148.68 92.4677   3-0.27386-0.30153-0.28096-0.25048 0.62209-0.96922
   5   5   1 270.434 97.7956   0 0.56947 0.02620 0.12702 0.44588-0.54347 0.97864
   5   5   2 25.9535 106.299   0 0.66144-0.04551 0.17495 0.43941-0.43827 0.96147
   5   5   3 2091.33 220.046   0 0.73812-0.10191 0.21739 0.43843-0.33329 0.94453
   5   6 -12 2105.04 217.568   1-0.55401 0.89563 0.41995-0.29026-0.50100-0.16318
   5   6 -11 474.369 164.902   1-0.56175 0.92365 0.42433-0.25318-0.49179-0.08436
  -5  -6  11 1143.80 241.530   3 0.07693-0.43883 0.74972-0.92088 0.92441-0.34827
   5   6 -10 232.912 126.199   1-0.56455 0.94672 0.42591-0.21329-0.48840 0.00030
  -5  -6  10 236.821 121.850   3 0.06204-0.44421 0.72058-0.93320 0.93568-0.44758
   5   6  -9 829.571 193.790   1-0.56119 0.96363 0.42402-0.16994-0.49246 0.09239
  -5  -6   9 583.007 172.786   3 0.04224-0.44469 0.68002-0.93409 0.94769-0.54762
  -5  -6   8 649.919 193.935   3 0.01701-0.43973 0.62541-0.92095 0.95817-0.64614
  -5  -6   7 69.6586 104.030   3-0.01390-0.42909 0.55413-0.89113 0.96381-0.73981
  -5  -6   6 7951.48 293.123   3-0.05024-0.41303 0.46419-0.84266 0.96027-0.82430
  -5  -6   5 50.8185 70.1172   3-0.09096-0.39258 0.35524-0.77517 0.94284-0.89491
   5   6  -4 114.078 84.0979   0 0.01733 0.48648-0.12249 0.58387-0.90800 0.94811
  -5  -6   4 340.970 125.134   3-0.13416-0.36965 0.22947-0.69086 0.90753-0.94763
   5   6  -3 1186.76 170.964   0 0.15025 0.37384-0.06703 0.56988-0.85239 0.98054
  -5  -6   3 1794.14 165.590   3-0.17730-0.34679 0.09186-0.59471 0.85239-0.98053
  -5  -6   2 1666.13 157.252   3-0.21771-0.32665-0.05064-0.49367 0.77833-0.99451
   5   6  -2 2846.80 195.576   0 0.28271 0.26165-0.00913 0.55344-0.77858 0.99476
   5   6  -1 1712.28 184.674   0 0.40813 0.15650 0.04838 0.53739-0.68999 0.99420
  -5  -6   1 1181.44 182.338   3-0.25326-0.31137-0.19076-0.39501 0.68883-0.99305
  -5  -6   0 22.8797 87.2754   3-0.28272-0.30219-0.32256-0.30467 0.58874-0.98099
   5   6   0 127.059 136.529   0 0.52171 0.06320 0.10310 0.52413-0.59127 0.98352
   5   7 -12 228.176 131.473   1-0.57032 0.92146 0.42915-0.20366-0.48133-0.13773
   5   7 -11 434.395 156.878   1-0.57638 0.94779 0.43255-0.16560-0.47376-0.05726
  -5  -7  11 1568.67 301.218   3 0.04010-0.41152 0.67551-0.94247 0.94879-0.41776
   5   7 -10 83.6450 98.8148   1-0.57730 0.96899 0.43306-0.12465-0.47260 0.02961
  -5  -7  10 377.585 220.791   3 0.02282-0.41451 0.63827-0.94668 0.95623-0.51324
  -5  -7   9 2081.30 295.384   3 0.00103-0.41299 0.58916-0.93904 0.96207-0.60712
  -5  -7   8 4849.18 277.789   3-0.02540-0.40683 0.52639-0.91772 0.96388-0.69696
  -5  -7   7 58.6395 93.8471   3-0.05629-0.39622 0.44856-0.88136 0.95860-0.77971
  -5  -7   6 407.288 172.540   3-0.09095-0.38184 0.35529-0.82955 0.94285-0.85200
  -5  -7   5 506.651 108.041   3-0.12813-0.36493 0.24771-0.76343 0.91357-0.91076
   5   7  -5 486.009 142.485   0-0.01797 0.51103-0.13679 0.65251-0.91978 0.91697
   5   7  -4 2265.71 169.484   0 0.10824 0.40509-0.08483 0.64202-0.87191 0.95714
  -5  -7   4 4148.69 245.540   3-0.16614-0.34720 0.12875-0.68594 0.86878-0.95400
  -5  -7   3 3693.20 227.065   3-0.20303-0.33058 0.00289-0.60153 0.80814-0.98140
   5   7  -3 2150.63 153.211   0 0.23755 0.29605-0.02917 0.62782-0.80590 0.97916
  -5  -7   2 8423.30 317.498   3-0.23702-0.31686-0.12468-0.51543 0.73314-0.99443
  -5  -7   1 728.080 85.1477   3-0.26677-0.30739-0.24895-0.43262 0.64663-0.99596
  -5  -7   0 9933.47 331.620   3-0.29151-0.30292-0.36601-0.35702 0.55207-0.98944
  -5  -8  11 1554.55 336.350   3 0.00297-0.38391 0.59363-0.95638 0.96171-0.47581
  -5  -8  10 53.7179 98.7720   3-0.01588-0.38533 0.54940-0.95362 0.96390-0.56603
  -5  -8   9 99.6206 107.942   3-0.03863-0.38285 0.49366-0.93933 0.96260-0.65277
  -5  -8   8 4260.42 271.570   3-0.06512-0.37664 0.42541-0.91255 0.95559-0.73379
  -5  -8   7 1433.52 255.086   3-0.09487-0.36716 0.34432-0.87292 0.94039-0.80662
  -5  -8   6 1845.94 212.889   3-0.12703-0.35527 0.25101-0.82107 0.91464-0.86891
  -5  -8   5 70.6653 92.7589   3-0.16042-0.34216 0.14728-0.75880 0.87657-0.91888
  -5  -8   4 573.145 197.869   3-0.19364-0.32922 0.03603-0.68901 0.82540-0.95574
  -5  -8   3 1026.03 235.013   3-0.22525-0.31787-0.07904-0.61540 0.76154-0.97992
  -5  -8   2 1106.12 214.041   3-0.25405-0.30935-0.19407-0.54183 0.68651-0.99292
  -5  -8   1 105.241 143.864   3-0.27915-0.30453-0.30554-0.47182 0.60258-0.99703
  -5  -8   0 3689.53 303.040   3-0.30004-0.30391-0.41074-0.40808 0.51226-0.99474
  -5  -9  10 175.912 133.763   3-0.05323-0.35750 0.45648-0.95649 0.95948-0.60673
  -5  -9   9 2171.56 295.496   3-0.07606-0.35494 0.39614-0.93761 0.95092-0.68620
  -5  -9   8 6495.61 356.650   3-0.10174-0.34953 0.32489-0.90782 0.93572-0.75904
  -5  -9   7 103.127 111.777   3-0.12967-0.34188 0.24308-0.86747 0.91207-0.82342
  -5  -9   6 2448.62 325.948   3-0.15900-0.33283 0.15187-0.81772 0.87845-0.87784
  -5  -9   5 2073.92 289.075   3-0.18868-0.32342 0.05320-0.76051 0.83398-0.92140
  -5  -9   4 3352.44 342.838   3-0.21762-0.31475-0.05031-0.69847 0.77852-0.95398
  -5  -9   3 407.229 136.921   3-0.24477-0.30787-0.15573-0.63451 0.71279-0.97628
  -5  -9   2 1287.74 245.021   3-0.26928-0.30364-0.26016-0.57155 0.63815-0.98967
   6  -9   1 89.3466 140.864   1 0.51039 0.05755-0.27689-0.48089-0.71604 0.54387
   6  -9   4 4579.63 266.393   2 0.95294-0.32417 0.33283-0.96622 0.48777-0.39583
   6  -8  -2 1408.10 214.861   1 0.36202 0.15462-0.17002-0.61635-0.79392 0.40276
   6  -8  -1 205.969 101.888   1 0.39648 0.14044-0.19445-0.55045-0.78009 0.47698
   6  -8   0 4823.60 266.704   1 0.43529 0.12191-0.22223-0.48121-0.76166 0.54658
   6  -8   1 1095.02 237.777   1 0.47729 0.10018-0.25263-0.40935-0.73791 0.61086
   6  -8   2 6827.90 353.393   1 0.52113 0.07660-0.28481-0.33570-0.70828 0.66926
   6  -8   3 13137.0 355.178   2 0.94512-0.32711 0.38935-0.96840 0.46901-0.41998
   6  -8   4 3347.80 262.308   2 0.93805-0.29976 0.42111-0.95870 0.45686-0.31980
   6  -8   5 6500.89 330.956   2 0.93205-0.27348 0.44268-0.93882 0.44790-0.22280
   6  -8   6 2101.45 296.617   2 0.92789-0.24906 0.45582-0.91049 0.44214-0.12901
   6  -7  -4 2750.29 235.587   1 0.24497 0.24064-0.08842-0.68507-0.82526 0.30316
   6  -7  -3 781.407 171.195   1 0.27423 0.23166-0.10863-0.62340-0.81953 0.38545
   6  -7  -2 14749.4 387.434   1 0.31003 0.21613-0.13352-0.55705-0.81066 0.46462
   6  -7  -1 77.0379 94.2088   1 0.35165 0.19479-0.16270-0.48641-0.79764 0.53964
   6  -7   0 12.8327 76.5829   1 0.39801 0.16870-0.19554-0.41211-0.77943 0.60946
   6  -7   1 50.2483 82.5225   1 0.44771 0.13927-0.23118-0.33500-0.75507 0.67314
   6  -7   2 1227.79 199.356   1 0.49911 0.10815-0.26859-0.25613-0.72383 0.72993
   6  -7   2 1031.45 158.593   2 0.93089-0.32363 0.44645-0.97117 0.44627-0.44016
   6  -7   3 2369.91 210.879   2 0.91885-0.29132 0.48087-0.96413 0.43049-0.33635
   6  -7   4 6194.18 264.055   2 0.90913-0.26132 0.50399-0.94579 0.41892-0.23674
   6  -7   5 770.935 180.919   2 0.90249-0.23441 0.51811-0.91844 0.41143-0.14122
   6  -7   6 628.663 145.931   2 0.89915-0.21079 0.52481-0.88369 0.40776-0.04951
   6  -7   7 2519.53 248.727   2 0.89896-0.19033 0.52518-0.84259 0.40756 0.03872
   6  -6  -5 1168.42 205.325   1 0.15520 0.31966-0.02714-0.69201-0.83493 0.26991
   6  -6  -4 532.801 176.384   1 0.18280 0.31233-0.04587-0.63182-0.83319 0.35620
   6  -6  -3 1104.76 204.774   1 0.21813 0.29728-0.06999-0.56624-0.82938 0.44043
   6  -6  -2 39.9993 64.4639   1 0.26080 0.27488-0.09934-0.49543-0.82232 0.52140
   6  -6  -1 95.1953 86.3505   1 0.31001 0.24595-0.13350-0.41981-0.81066 0.59778
   6  -6   0 88.3280 72.4663   1 0.36450 0.21174-0.17176-0.34008-0.79300 0.66815
   6  -6   1 48.5581 58.3442   1 0.42254 0.17397-0.21307-0.25732-0.76807 0.73126
   6  -6   2 371.372 130.442   1 0.48204 0.13474-0.25610-0.17283-0.73495 0.78617
   6  -6   2 382.577 89.8894   2 0.89045-0.27367 0.54113-0.97005 0.39850-0.34728
   6  -6   3 219.976 121.861   2 0.87613-0.23908 0.56513-0.95259 0.38396-0.24471
   6  -6   4 1033.56 160.333   2 0.86656-0.20923 0.57959-0.92559 0.37464-0.14734
   6  -6   5 3265.32 221.720   2 0.86170-0.18410 0.58652-0.89106 0.37001-0.05468
   6  -6   6 4303.41 231.711   2 0.86121-0.16334 0.58720-0.85027 0.36955 0.03382
   6  -6   7 1013.19 241.598   2 0.86459-0.14644 0.58243-0.80405 0.37275 0.11865
   6  -5  -6 2532.91 180.123   1 0.06641 0.39770 0.03247-0.69729-0.83346 0.22552
   6  -5  -5 1914.13 236.247   1 0.09064 0.39374 0.01630-0.63966-0.83491 0.31501
   6  -5  -4 526.073 141.869   1 0.12348 0.38118-0.00573-0.57616-0.83563 0.40376
   6  -5  -3 17.4558 69.3384   1 0.16500 0.35993-0.03378-0.50665-0.83444 0.49060
   6  -5  -2 667.246 183.510   1 0.21490 0.33031-0.06777-0.43120-0.82980 0.57400
   6  -5  -1 713.741 205.297   1 0.27229 0.29318-0.10729-0.35022-0.81995 0.65218
   6  -5   0 25940.1 452.037   1 0.33566 0.25009-0.15146-0.26459-0.80300 0.72327
   6  -5   1 6225.48 214.931   2 0.85036-0.24434 0.60175-0.97634 0.35944-0.35113
   6  -5   1 5869.40 244.020   1 0.40281 0.20321-0.19896-0.17562-0.77730 0.78561
   6  -5   2 1825.37 152.304   2 0.83063-0.20433 0.62559-0.95871 0.34171-0.24537
   6  -5   2 1902.11 185.763   1 0.47106 0.15523-0.24810-0.08502-0.74170 0.83804
   6  -5   3 1657.65 172.917   2 0.81783-0.17126 0.63954-0.93120 0.33059-0.14621
   6  -5   4 5632.04 232.943   2 0.81153-0.14468 0.64603-0.89623 0.32520-0.05279
   6  -5   5 4093.00 218.419   2 0.81101-0.12389 0.64656-0.85530 0.32476 0.03568
   6  -5   6 1138.76 255.520   2 0.81547-0.10808 0.64200-0.80928 0.32857 0.11992
   6  -5   7 1818.48 202.379   2 0.82410-0.09643 0.63284-0.75866 0.33600 0.20052
   6  -5   8 2177.26 219.390   2 0.83610-0.08816 0.61928-0.70364 0.34655 0.27800
   6  -4  -7 1544.15 213.655   1-0.01848 0.47183 0.08859-0.69907-0.82228 0.17142
   6  -4  -6 372.724 199.747   1 0.00092 0.47270 0.07584-0.64486-0.82567 0.26284
   6  -4  -5 13291.2 352.844   1 0.02938 0.46452 0.05706-0.58462-0.82975 0.35496
   6  -4  -4 3707.44 207.853   1 0.06744 0.44674 0.03179-0.51789-0.83354 0.44679
   6  -4  -3 536.751 154.113   1 0.11540 0.41905-0.00030-0.44434-0.83559 0.53687
   6  -4  -2 171.649 88.2589   1 0.17304 0.38168-0.03924-0.36394-0.83393 0.62324
   6  -4  -1 5167.63 215.738   1 0.23942 0.33558-0.08460-0.27711-0.82620 0.70355
   6  -4   0 7278.45 209.986   2 0.79502-0.19975 0.66198-0.98223 0.31137-0.34598
   6  -4   0 7368.51 241.205   1 0.31263 0.28264-0.13534-0.18492-0.80993 0.77532
   6  -4   1 1487.31 123.315   2 0.76936-0.15382 0.68414-0.96293 0.29051-0.23709
   6  -4   1 1542.02 149.728   1 0.38985 0.22569-0.18974-0.08905-0.78293 0.83635
   6  -4   2 10515.0 283.618   2 0.75348-0.11766 0.69647-0.93380 0.27795-0.13649
   6  -4   2 10487.4 290.037   1 0.46757 0.16825-0.24556 0.00823-0.74378 0.88524
   6  -4   3 6792.37 234.240   2 0.74621-0.09012 0.70180-0.89767 0.27228-0.04279
   6  -4   4 43.1351 66.3702   2 0.74630-0.06994 0.70173-0.85614 0.27236 0.04517
   6  -4   5 2067.94 180.408   2 0.75255-0.05591 0.69716-0.81011 0.27723 0.12834
   6  -4   5 2064.54 180.371   0 0.81989-0.12325 0.26648-0.37943-0.19459 0.60015
   6  -4   6 97.8409 127.605   0 0.85791-0.14099 0.29152-0.36300-0.11465 0.60825
   6  -4   6-7.36039 67.1948   2 0.76385-0.04694 0.68852-0.76001 0.28613 0.20747
   6  -4   7 3271.85 257.980   2 0.77923-0.04204 0.67597-0.70599 0.29845 0.28319
   6  -4   7 3562.14 288.086   0 0.88808-0.15089 0.31314-0.34316-0.03903 0.62067
   6  -4   8 249.547 187.380   2 0.79778-0.04032 0.65941-0.64797 0.31366 0.35601
   6  -3  -8 4704.58 275.933   1-0.09693 0.53952 0.13968-0.69583-0.80354 0.10976
   6  -3  -7 370.222 175.185   1-0.08330 0.54617 0.13086-0.64554-0.80738 0.20163
   6  -3  -6 70.3555 85.9100   1-0.06068 0.54382 0.11616-0.58939-0.81321 0.29550
   6  -3  -5 3357.54 223.315   1-0.02813 0.53156 0.09492-0.52668-0.82041 0.39074
   6  -3  -4 674.284 184.666   1 0.01522 0.50847 0.06641-0.45671-0.82785 0.48621
   6  -3  -3 42.1777 65.5917   1 0.06999 0.47398 0.03009-0.37893-0.83373 0.58012
   6  -3  -2 32.2353 61.0426   1 0.13613 0.42811-0.01426-0.29312-0.83552 0.66995
   6  -3  -1 2175.63 119.947   2 0.71961-0.13510 0.71980-0.98572 0.25191-0.32944
   6  -3  -1 2485.30 154.989   1 0.21257 0.37195-0.06618-0.19974-0.83010 0.75257
   6  -3   0 177438. 953.061   2 0.68833-0.08354 0.73828-0.96274 0.22862-0.21811
   6  -3   0 184116. 1050.19   1 0.29689 0.30790-0.12436-0.10009-0.81415 0.82466
   6  -3   1 541.333 129.645   2 0.67027-0.04521 0.74779-0.93079 0.21546-0.11692
   6  -3   1 367.736 128.799   1 0.38535 0.23972-0.18653 0.00354-0.78481 0.88335
   6  -3   1 350.030 90.5477   0 0.48659 0.13847 0.08588-0.26887-0.62391 0.72244
   6  -3   2 3605.69 189.087   2 0.66316-0.01783 0.75133-0.89286 0.21034-0.02376
   6  -3   2 3849.78 178.095   1 0.47324 0.17210-0.24969 0.10816-0.74038 0.92696
   6  -3   2 3840.68 164.738   0 0.58823 0.05711 0.13658-0.27811-0.52352 0.71009
   6  -3   3 4604.01 207.047   2 0.66501 0.00060 0.75042-0.85049 0.21167 0.06294
   6  -3   3 5132.50 192.632   0 0.67193-0.00632 0.18061-0.28068-0.42498 0.69959
   6  -3   4 3156.64 191.755   2 0.67413 0.01175 0.74583-0.80443 0.21826 0.14439
   6  -3   4 3268.71 161.886   0 0.73995-0.05407 0.21844-0.27705-0.33053 0.69318
   6  -3   5 2978.51 193.905   2 0.68911 0.01705 0.73786-0.75500 0.22919 0.22149
   6  -3   5 2972.41 172.330   0 0.79488-0.08872 0.25091-0.26805-0.24092 0.69160
   6  -3   6 573.202 159.986   0 0.83902-0.11258 0.27884-0.25453-0.15605 0.69476
   6  -3   6 366.228 183.025   2 0.70874 0.01769 0.72653-0.70222 0.24374 0.29498
   6  -3   7 1736.22 193.191   2 0.73201 0.01470 0.71169-0.64592 0.26134 0.36542
   6  -3   8 395.443 169.525   2 0.75802 0.00896 0.69305-0.58581 0.28152 0.43327
   6  -2  -9 10026.7 343.885   1-0.16703 0.59887 0.18472-0.68653-0.77981 0.04311
   6  -2  -8 5004.53 228.045   1-0.15954 0.61166 0.17994-0.64029-0.78266 0.13400
   6  -2  -7 2348.91 181.618   1-0.14357 0.61596 0.16971-0.58860-0.78850 0.22787
   6  -2  -6 960.549 194.081   1-0.11795 0.61062 0.15325-0.53068-0.79712 0.32453
   6  -2  -5 2044.53 173.085   1-0.08136 0.59430 0.12961-0.46557-0.80790 0.42335
   6  -2  -4 69.3527 77.9215   1-0.03250 0.56571 0.09777-0.39227-0.81953 0.52301
   6  -2  -3 434.094 99.5415   0-0.08164 0.63513-0.16212-0.09092-0.93785 0.72936
   6  -2  -3 489.909 143.832   1 0.02967 0.52382 0.05686-0.30990-0.82978 0.62130
   6  -2  -2 46548.1 538.845   1 0.10534 0.46843 0.00646-0.21804-0.83541 0.71496
   6  -2  -2 48031.9 473.081   0 0.05461 0.51915-0.10719-0.10439-0.89421 0.77376
   6  -2  -1 9210.87 230.788   2 0.58359 0.01045 0.78369-0.95381 0.15474-0.18716
   6  -2  -1 9021.02 241.152   1 0.19328 0.40075-0.05301-0.11711-0.83225 0.79983
   6  -2  -1 9090.08 222.121   0 0.19530 0.39874-0.04764-0.12248-0.82942 0.79700
   6  -2   0 1728.38 154.665   2 0.56543 0.04888 0.78945-0.91811 0.14246-0.08684
   6  -2   0 1801.19 113.772   0 0.33037 0.28394 0.01240-0.14105-0.74720 0.80282
   6  -2   0 1729.51 151.267   1 0.29037 0.32394-0.11982-0.00883-0.81579 0.87141
   6  -2   1 286.363 111.213   0 0.45233 0.18225 0.06934-0.15654-0.65387 0.79752
   6  -2   1 342.957 134.208   2 0.56040 0.07418 0.79095-0.87815 0.13908 0.00457
   6  -2   1 230.343 103.204   1 0.39146 0.24313-0.19087 0.10368-0.78225 0.92591
   6  -2   2 91.7322 74.3984   2 0.56569 0.08916 0.78937-0.83511 0.14264 0.08905
   6  -2   2 55.8946 77.6646   1 0.49016 0.16470-0.26203 0.21630-0.72976 0.96145
   6  -2   2 76.6371 45.8369   0 0.55765 0.09721 0.12104-0.16678-0.55569 0.78738
   6  -2   3 2596.39 179.098   2 0.57913 0.09600 0.78516-0.78943 0.15171 0.16801
   6  -2   3 2858.37 164.307   0 0.64601 0.02912 0.16671-0.17098-0.45731 0.77704
   6  -2   4 8923.60 292.323   2 0.59901 0.09640 0.77836-0.74117 0.16528 0.24248
   6  -2   4 8334.97 261.425   0 0.71887-0.02347 0.20648-0.16929-0.36147 0.76923
   6  -2   5 3597.00 209.135   2 0.62394 0.09174 0.76883-0.69018 0.18255 0.31325
   6  -2   5 3631.76 191.114   0 0.77836-0.06268 0.24092-0.16227-0.26942 0.76522
   6  -2   6 689.555 189.859   0 0.82655-0.09059 0.27074-0.15062-0.18151 0.76535
   6  -2   6 386.376 169.023   2 0.65281 0.08314 0.75626-0.63615 0.20292 0.38091
   6  -2   7 877.397 209.141   2 0.68466 0.07157 0.74028-0.57871 0.22593 0.44594
   6  -2   8 83.6719 130.605   2 0.71866 0.05784 0.72041-0.51737 0.25119 0.50872
   6  -1  -9 1029.32 141.795   1-0.22620 0.66756 0.22224-0.62825-0.75442 0.06284
   6  -1  -8 6580.61 274.597   1-0.21699 0.67862 0.21643-0.58098-0.75871 0.15517
   6  -1  -7 924.214 144.582   1-0.19888 0.68079 0.20497-0.52806-0.76677 0.25126
   6  -1  -6 447.906 105.485   1-0.17037 0.67255 0.18684-0.46847-0.77851 0.35103
   6  -1  -5 8571.63 280.309   1-0.12967 0.65213 0.16079-0.40096-0.79329 0.45385
   6  -1  -4 1348.66 157.944   1-0.07489 0.61763 0.12541-0.32411-0.80962 0.55822
   6  -1  -3 98.0555 81.5319   1-0.00447 0.56748 0.07938-0.23663-0.82478 0.66141
   6  -1  -3 37.9088 43.2918   0-0.08941 0.65242-0.16517 0.00793-0.93978 0.77641
   6  -1  -2 51.6667 74.2878   2 0.45328 0.13000 0.81410-0.92988 0.06934-0.14467
   6  -1  -2 11.9947 46.7389   1 0.08220 0.50109 0.02194-0.13773-0.83450 0.75916
   6  -1  -2-6.10498 47.5248   0 0.04433 0.53895-0.11143-0.00435-0.89816 0.82282
   6  -1  -1 953.524 136.936   2 0.43828 0.16528 0.81612-0.89044 0.05988-0.04717
   6  -1  -1 829.262 147.014   1 0.18368 0.41987-0.04647-0.02785-0.83312 0.84582
   6  -1  -1 728.163 114.342   0 0.18220 0.42135-0.05331-0.02101-0.83632 0.84902
   6  -1   0 16013.1 308.984   2 0.43785 0.18598 0.81618-0.84904 0.05961 0.04113
   6  -1   0 17341.2 315.753   0 0.31523 0.30860 0.00552-0.03838-0.75746 0.85819
   6  -1   0 17138.9 305.072   1 0.29571 0.32811-0.12354 0.09068-0.81445 0.91519
   6  -1   1 2668.99 152.609   0 0.43659 0.20751 0.06183-0.05323-0.66705 0.85582
   6  -1   1 2834.94 167.146   2 0.44854 0.19557 0.81477-0.80617 0.06634 0.12243
   6  -1   1 3102.95 146.218   1 0.41106 0.23305-0.20485 0.21345-0.77354 0.96232
   6  -1   2 35922.3 491.471   2 0.46783 0.19654 0.81187-0.76180 0.07859 0.19822
   6  -1   2 37488.0 438.138   1 0.52080 0.14357-0.28457 0.33463-0.70852 0.98533
   6  -1   2 37626.7 480.534   0 0.54272 0.12165 0.11355-0.06349-0.57075 0.84756
   6  -1   3 19614.7 384.995   2 0.49384 0.19082 0.80720-0.71568 0.09528 0.26957
   6  -1   3 19407.7 361.167   0 0.63289 0.05176 0.15977-0.06825-0.47302 0.83786
   6  -1   4 2822.58 206.403   2 0.52507 0.17985 0.80038-0.66740 0.11563 0.33725
   6  -1   4 2809.71 175.685   0 0.70807-0.00315 0.20043-0.06745-0.37671 0.82959
   6  -1   5 39.5052 86.7078   2 0.56036 0.16483 0.79096-0.61652 0.13906 0.40186
   6  -1   5 107.372 107.181   0 0.76998-0.04478 0.23593-0.06149-0.28334 0.82425
   6  -1   6 2719.69 253.542   0 0.82044-0.07496 0.26683-0.05092-0.19352 0.82247
   6  -1   6 2675.08 269.788   2 0.59874 0.14674 0.77846-0.56255 0.16509 0.46386
   6  -1   7 9796.32 339.512   2 0.63937 0.12638 0.76233-0.50496 0.19338 0.52360
   6   0 -10 13821.3 408.688   1-0.28254 0.71315 0.25754-0.60921-0.72541-0.00909
   6   0  -9 734.140 158.087   1-0.27968 0.73056 0.25575-0.56597-0.72701 0.08054
   6   0  -8 18547.1 429.355   1-0.26890 0.74006 0.24903-0.51779-0.73289 0.17446
   6   0  -7 10195.7 315.365   1-0.24876 0.74019 0.23643-0.46372-0.74339 0.27300
   6   0  -6 756.776 134.361   1-0.21734 0.72904 0.21665-0.40248-0.75855 0.37619
   6   0  -5 4040.62 190.210   1-0.17228 0.70426 0.18806-0.33243-0.77776 0.48344
   6   0  -4 3235.54 193.841   1-0.11095 0.66320 0.14874-0.25165-0.79932 0.59304
   6   0  -3 21649.2 351.789   0-0.07999 0.65252-0.16147 0.10002-0.93743 0.81918
   6   0  -3 21458.9 348.584   1-0.03095 0.60348 0.09676-0.15821-0.81984 0.70159
   6   0  -2 3376.58 143.838   2 0.29262 0.30019 0.82258-0.84257-0.02872-0.00149
   6   0  -2 3653.71 149.753   1 0.06885 0.52395 0.03085-0.05084-0.83364 0.80343
   6   0  -2 3695.14 161.510   0 0.05169 0.54111-0.10839 0.08841-0.89534 0.86513
   6   0  -1 10578.2 249.891   2 0.29905 0.31402 0.82277-0.80129-0.02492 0.08274
   6   0  -1 11042.0 237.448   1 0.18675 0.42632-0.04856 0.07004-0.83285 0.89067
   6   0  -1 11257.6 265.352   0 0.18659 0.42649-0.05141 0.07289-0.83403 0.89185
   6   0   0 38917.3 470.896   2 0.31667 0.31667 0.82306-0.76012-0.01447 0.16033
   6   0   0 39632.5 477.870   0 0.31667 0.31668 0.00617 0.05677-0.75649 0.90235
   6   0   0 39901.0 422.568   1 0.31667 0.31667-0.13816 0.20110-0.80878 0.95464
   6   0   1 2482.94 159.155   0 0.43587 0.21775 0.06149 0.04291-0.66764 0.90153
   6   0   1 2847.77 161.931   2 0.34290 0.31073 0.82291-0.71851 0.00122 0.23267
   6   0   2 1880.72 152.924   2 0.37581 0.29809 0.82171-0.67585 0.02118 0.30075
   6   0   2 1819.66 161.979   0 0.54088 0.13302 0.11263 0.03323-0.57259 0.89451
   6   0   3 274.213 124.470   2 0.41394 0.28023 0.81883-0.63151 0.04467 0.36530
   6   0   3 213.763 111.406   0 0.63083 0.06335 0.15869 0.02864-0.47545 0.88541
   6   0   4 145.624 114.038   2 0.45611 0.25833 0.81368-0.58490 0.07114 0.42686
   6   0   4 114.457 95.4603   0 0.70640 0.00804 0.19951 0.02928-0.37903 0.87702
   6   0   5 6765.58 267.330   2 0.50139 0.23333 0.80568-0.53543 0.10017 0.48586
   6   0   5 5975.77 248.048   0 0.76902-0.03430 0.23536 0.03488-0.28491 0.87094
   6   0   6 234.199 142.177   2 0.54896 0.20603 0.79421-0.48251 0.13144 0.54263
   6   0   7 2290.53 388.303   2 0.59815 0.17711 0.77867-0.42550 0.16469 0.59741
   6   1 -10 14809.0 409.125   1-0.33136 0.77149 0.28774-0.54363-0.69617 0.00678
   6   1  -9 44.4558 70.7901   1-0.32721 0.78762 0.28519-0.49961-0.69880 0.09746
  -6  -1   9 133.399 109.012   3 0.20000-0.66040 0.93842-0.72400 0.74506-0.14371
   6   1  -8 12177.3 348.038   1-0.31492 0.79559 0.27761-0.45057-0.70646 0.19315
  -6  -1   8 11088.2 321.717   3 0.19270-0.67337 0.93036-0.75740 0.76086-0.24755
   6   1  -7 93.8025 85.0728   1-0.29270 0.79365 0.26385-0.39535-0.71965 0.29438
  -6  -1   7 101.321 73.1471   3 0.17980-0.68076 0.91496-0.78347 0.78687-0.36159
   6   1  -6 9.18031 44.4954   1-0.25818 0.77940 0.24233-0.33236-0.73856 0.40132
   6   1  -5 10735.5 264.726   1-0.20827 0.74977 0.21092-0.25949-0.76265 0.51345
   6   1  -4 19427.4 335.030   1-0.13934 0.70111 0.16700-0.17411-0.78998 0.62881
   6   1  -3 489.313 96.5797   0-0.05642 0.63846-0.15215 0.18650-0.93118 0.85805
   6   1  -3 387.131 112.732   1-0.04780 0.62984 0.10777-0.07342-0.81623 0.74309
   6   1  -2 34525.4 447.203   0 0.07335 0.52898-0.09943 0.17524-0.88675 0.90166
   6   1  -2 34807.9 394.604   1 0.06836 0.53396 0.03117 0.04464-0.83361 0.84851
   6   1  -1 10513.5 265.395   2 0.17685 0.44575 0.81257-0.69530-0.09536 0.19829
   6   1  -1 10293.6 261.318   0 0.20502 0.41758-0.04342 0.16069-0.82418 0.92712
   6   1   0 116.042 84.8715   0 0.33149 0.31138 0.01291 0.14583-0.74643 0.93740
   6   1   0 90.4531 56.4161   2 0.20991 0.43296 0.81670-0.65796-0.07664 0.26762
   6   1   1 1334.27 131.500   0 0.44743 0.21571 0.06700 0.13319-0.65801 0.93702
   6   1   1 1037.25 129.500   2 0.24952 0.41362 0.82032-0.62012-0.05389 0.33290
   6   1   2 991.114 171.167   2 0.29429 0.38913 0.82264-0.58098-0.02774 0.39478
   6   1   2 924.312 116.934   0 0.54994 0.13348 0.11717 0.12449-0.56352 0.93056
   6   1   3 2727.67 178.294   2 0.34311 0.36058 0.82291-0.53979 0.00135 0.45373
   6   1   3 2898.89 230.816   0 0.63818 0.06551 0.16256 0.12056-0.46673 0.92181
   6   1   4 810.727 181.668   2 0.39507 0.32889 0.82046-0.49588 0.03299 0.51012
   6   1   4 663.569 158.695   0 0.71268 0.01129 0.20300 0.12158-0.37026 0.91337
   6   1   5 2060.81 210.579   0 0.77462-0.03038 0.23869 0.12735-0.27568 0.90683
   6   1   5 1975.40 262.551   2 0.44941 0.29482 0.81465-0.44860 0.06690 0.56425
   6   1   6 7376.84 304.655   2 0.50548 0.25903 0.80482-0.39731 0.10283 0.61636
   6   2 -11 88.5697 126.405   1-0.37247 0.80184 0.31290-0.51444-0.66832-0.06398
  -6  -2  11 163.498 189.876   3 0.18038-0.60975 0.91568-0.71413 0.78576-0.05346
   6   2 -10 12746.0 399.784   1-0.37400 0.82365 0.31383-0.47391-0.66722 0.02296
  -6  -2  10 10223.3 350.184   3 0.17702-0.62667 0.91146-0.75138 0.79217-0.14791
   6   2  -9 213.198 114.634   1-0.36855 0.83847 0.31051-0.42913-0.67111 0.11488
  -6  -2   9 278.506 120.089   3 0.16981-0.63973 0.90207-0.78345 0.80547-0.24924
   6   2  -8 19187.3 415.637   1-0.35464 0.84484 0.30202-0.37918-0.68077 0.21258
  -6  -2   8 18317.4 400.291   3 0.15756-0.64775 0.88523-0.80807 0.82652-0.35833
   6   2  -7 420.411 115.541   1-0.33016 0.84063 0.28701-0.32270-0.69693 0.31677
  -6  -2   7 613.480 166.327   3 0.13855-0.64902 0.85696-0.82126 0.85568-0.47552
   6   2  -6 886.035 172.905   1-0.29212 0.82286 0.26349-0.25773-0.71999 0.42786
   6   2  -5 4224.90 187.496   1-0.23651 0.78753 0.22873-0.18151-0.74948 0.54539
   6   2  -4 13475.9 272.062   1-0.15829 0.72958 0.17913-0.09045-0.78313 0.66708
   6   2  -3 25012.6 389.061   0-0.02089 0.61245-0.13796 0.26811-0.92070 0.89268
   6   2  -3 25714.5 343.282   1-0.05210 0.64366 0.11057 0.01958-0.81524 0.78723
   6   2  -2 14.3432 52.4237   0 0.10681 0.50503-0.08544 0.25705-0.87255 0.93256
   6   2  -1 4840.35 196.958   0 0.23494 0.39717-0.03033 0.24340-0.80741 0.95546
   6   2   0 6044.73 222.910   0 0.35722 0.29516 0.02470 0.22983-0.72831 0.96440
   6   2   1-13.3957 29.4666   2 0.17169 0.50097 0.81184-0.51585-0.09825 0.42238
   6   2   1 26.7040 40.0351   0 0.46910 0.20357 0.07740 0.21859-0.63943 0.96355
   6   2   2 259.493 108.799   2 0.22600 0.46694 0.81834-0.48089-0.06745 0.47961
   6   2   2 334.345 147.510   0 0.56808 0.12486 0.12631 0.21114-0.54492 0.95708
   6   2   3 6060.30 261.389   2 0.28364 0.42957 0.82226-0.44334-0.03400 0.53420
   6   2   3 5855.58 256.881   0 0.65347 0.05974 0.17068 0.20824-0.44819 0.94838
   6   2   4 3799.48 208.538   2 0.34390 0.38958 0.82289-0.40251 0.00183 0.58640
   6   2   4 4428.71 216.626   0 0.72572 0.00777 0.21034 0.21004-0.35161 0.93984
   6   2   5 3403.83 291.283   2 0.40613 0.34762 0.81955-0.35771 0.03982 0.63644
   6   2   6 183.283 141.950   2 0.46978 0.30425 0.81155-0.30825 0.07983 0.68447
   6   3 -11 41.4082 83.3731   1-0.41009 0.84899 0.33566-0.44141-0.64002-0.04717
  -6  -3  11 48.5857 117.296   3 0.15361-0.59250 0.87956-0.77382 0.83292-0.14573
   6   3 -10 13036.5 373.156   1-0.41033 0.86950 0.33580-0.40009-0.63983 0.04068
  -6  -3  10 12283.5 410.751   3 0.14673-0.60590 0.86943-0.80514 0.84363-0.24449
   6   3  -9 3318.28 259.858   1-0.40343 0.88288 0.33165-0.35447-0.64523 0.13412
  -6  -3   9 5418.59 256.159   3 0.13532-0.61477 0.85192-0.82910 0.86022-0.34911
   6   3  -8 1488.02 236.742   1-0.38768 0.88739 0.32213-0.30349-0.65722 0.23414
  -6  -3   8 1841.71 221.735   3 0.11817-0.61789 0.82401-0.84265 0.88255-0.45948
   6   3  -7 189.828 89.3981   1-0.36051 0.88050 0.30561-0.24551-0.67674 0.34170
  -6  -3   7 217.305 118.033   3 0.09370-0.61369 0.78110-0.84120 0.90932-0.57428
   6   3  -6 329.370 122.821   1-0.31821 0.85848 0.27965-0.17809-0.70443 0.45743
  -6  -3   6 345.205 146.096   3 0.06009-0.60036 0.71668-0.81824 0.93702-0.69001
   6   3  -5 4076.05 167.267   1-0.25550 0.81604 0.24065-0.09763-0.73995 0.58098
   6   3  -4 39.3694 53.3888   0-0.09532 0.67614-0.16749 0.35197-0.94120 0.87026
   6   3  -3 6341.93 217.537   0 0.02490 0.57618-0.11939 0.34534-0.90532 0.92242
   6   3  -2 942.482 152.238   0 0.15019 0.47117-0.06706 0.33446-0.85242 0.95756
   6   3  -1 2785.28 166.473   0 0.27436 0.36728-0.01286 0.32173-0.78381 0.97698
   6   3   0 742.690 141.871   0 0.39193 0.26998 0.04079 0.30954-0.70255 0.98376
   6   3   1 2574.99 221.515   0 0.49906 0.18312 0.09196 0.29983-0.61255 0.98179
   6   3   2 189.562 89.0869   2 0.17196 0.53050 0.81188-0.37863-0.09811 0.55538
   6   3   2 242.133 145.140   0 0.59371 0.10874 0.13939 0.29386-0.51755 0.97483
   6   3   3 729.705 210.673   2 0.23658 0.48614 0.81930-0.34458-0.06136 0.60668
   6   3   3 674.114 220.344   0 0.67535 0.04738 0.18246 0.29226-0.42057 0.96588
   6   3   4 2700.76 260.277   2 0.30364 0.43936 0.82287-0.30670-0.02221 0.65556
   6   3   5 550.433 194.308   2 0.37256 0.39072 0.82188-0.26424 0.01919 0.70219
   6   4 -11 4978.18 315.329   1-0.44146 0.88987 0.35443-0.36438-0.61418-0.02789
  -6  -4  11 4588.44 346.668   3 0.12346-0.57188 0.83282-0.82287 0.87599-0.23392
   6   4 -10 31.7959 59.8197   1-0.44023 0.90892 0.35370-0.32219-0.61523 0.06119
  -6  -4  10 211.576 114.798   3 0.11303-0.58172 0.81530-0.84681 0.88866-0.33463
   6   4  -9 261.115 136.099   1-0.43162 0.92058 0.34856-0.27559-0.62252 0.15652
  -6  -4   9 634.377 174.349   3 0.09766-0.58662 0.78828-0.86126 0.90538-0.43938
   6   4  -8 2518.00 243.009   1-0.41358 0.92282 0.33776-0.22332-0.63724 0.25928
  -6  -4   8 2530.65 204.263   3 0.07629-0.58553 0.74849-0.86293 0.92493-0.54697
   6   4  -7 11124.1 285.102   1-0.38304 0.91255 0.31932-0.16342-0.66065 0.37072
  -6  -4   7 11693.1 343.366   3 0.04778-0.57729 0.69157-0.84747 0.94467-0.65474
   6   4  -6 618.865 148.338   1-0.33526 0.88505 0.29015-0.09279-0.69365 0.49176
  -6  -4   6 782.267 124.741   3 0.01121-0.56099 0.61239-0.80975 0.95984-0.75795
  -6  -4   5 18547.4 348.550   3-0.03362-0.53644 0.50617-0.74499 0.96326-0.84941
   6   4  -4 25156.7 413.492   0-0.03990 0.63023-0.14558 0.42586-0.92646 0.90065
   6   4  -3 16682.6 357.322   0 0.07954 0.53107-0.09685 0.41859-0.88421 0.94643
   6   4  -2 7.16026 35.8137   0 0.20192 0.42896-0.04476 0.40797-0.82586 0.97611
   6   4  -1 21697.8 408.876   0 0.32165 0.32951 0.00843 0.39624-0.75314 0.99143
   6   4   0 8872.90 288.310   0 0.43400 0.23742 0.06060 0.38552-0.66918 0.99550
   6   4   1 3957.46 220.072   0 0.53582 0.15589 0.11011 0.37748-0.57758 0.99194
   6   4   2 4345.45 265.553   0 0.62547 0.08650 0.15587 0.37318-0.48171 0.98411
   6   4   3 39.8158 97.8022   2 0.20206 0.53019 0.81581-0.24529-0.08111 0.67154
   6   4   4 2283.26 347.544   2 0.27461 0.47791 0.82186-0.20988-0.03929 0.71776
   6   5 -11 644.357 176.889   1-0.46653 0.92446 0.36929-0.28345-0.59191-0.00504
  -6  -5  11 1077.48 232.715   3 0.09062-0.54856 0.77546-0.86131 0.91228-0.31533
   6   5 -10 14.3258 105.454   1-0.46356 0.94177 0.36754-0.24023-0.59463 0.08572
  -6  -5  10 173.264 161.874   3 0.07695-0.55515 0.74975-0.87706 0.92439-0.41548
   6   5  -9 240.670 137.283   1-0.45280 0.95128 0.36117-0.19240-0.60429 0.18341
  -6  -5   9 112.928 107.004   3 0.05824-0.55672 0.71295-0.88172 0.93825-0.51737
   6   5  -8 4168.97 248.836   1-0.43182 0.95057 0.34868-0.13845-0.62235 0.28951
  -6  -5   8 4236.76 273.124   3 0.03377-0.55253 0.66205-0.87228 0.95180-0.61896
  -6  -5   7 19.2418 69.0602   3 0.00298-0.54201 0.59366-0.84536 0.96171-0.71690
  -6  -5   6 162.134 95.5397   3-0.03423-0.52507 0.50465-0.79780 0.96319-0.80642
  -6  -5   5 18334.6 370.311   3-0.07711-0.50247 0.39330-0.72792 0.95042-0.88168
   6   5  -5 18721.9 377.435   0-0.08818 0.66776-0.16469 0.49931-0.93947 0.87074
   6   5  -4 27747.1 443.708   0 0.02383 0.57602-0.11983 0.49591-0.90570 0.92500
   6   5  -3 17117.5 368.234   0 0.14184 0.47829-0.07062 0.48816-0.85645 0.96378
   6   5  -2 3371.08 189.046   0 0.26071 0.37969-0.01894 0.47794-0.79218 0.98755
   6   5  -1 430.921 147.660   0 0.37546 0.28522 0.03312 0.46734-0.71497 0.99838
   6   5   0 18587.5 402.381   0 0.48210 0.19885 0.08370 0.45823-0.62794 0.99938
   6   5   1 51.5204 117.155   0 0.57806 0.12316 0.13138 0.45200-0.53442 0.99389
   6   5   3 110.168 122.613   2 0.17964 0.56213 0.81296-0.14665-0.09379 0.72934
   6   6 -11 241.323 142.408   1-0.48522 0.95267 0.38028-0.19864-0.57431 0.02248
  -6  -6  11 542.919 237.277   3 0.05597-0.52342 0.70835-0.89000 0.93973-0.38789
   6   6 -10 1327.91 180.494   1-0.48008 0.96781 0.37727-0.15416-0.57924 0.11544
  -6  -6  10 3214.92 338.279   3 0.03961-0.52734 0.67447-0.89758 0.94903-0.48524
  -6  -6   9 5720.57 281.922   3 0.01847-0.52648 0.62866-0.89323 0.95771-0.58195
  -6  -6   8 5852.08 307.423   3-0.00779-0.52048 0.56860-0.87463 0.96332-0.67560
  -6  -6   7 158.912 107.741   3-0.03923-0.50932 0.49216-0.83965 0.96251-0.76282
  -6  -6   6 20334.7 419.820   3-0.07536-0.49347 0.39804-0.78700 0.95125-0.83960
  -6  -6   5 9169.92 297.023   3-0.11500-0.47410 0.28663-0.71705 0.92545-0.90184
   6   6  -5 8909.94 276.923   0-0.01716 0.60626-0.13646 0.56687-0.91952 0.89590
  -6  -6   4 4495.83 225.708   3-0.15627-0.45310 0.16060-0.63248 0.88199-0.94641
   6   6  -4 3795.45 210.254   0 0.09495 0.51442-0.09041 0.56229-0.87771 0.94213
   6   6  -3 2327.49 192.609   0 0.21074 0.41891-0.04093 0.55426-0.82105 0.97350
   6   6  -2 12885.5 336.801   0 0.32542 0.32450 0.01014 0.54466-0.75059 0.99107
   6   6  -1 2720.48 206.629   0 0.43462 0.23558 0.06089 0.53537-0.66868 0.99720
   6   6   0 9656.74 371.099   0 0.53504 0.15543 0.10972 0.52800-0.57834 0.99490
  -6  -7  10 420.546 202.800   3 0.00212-0.49937 0.59167-0.91057 0.96188-0.54320
  -6  -7   9 58.9741 71.4464   3-0.02046-0.49706 0.53840-0.89876 0.96398-0.63334
  -6  -7   8 86.7661 121.221   3-0.04732-0.49048 0.47167-0.87350 0.96096-0.71836
  -6  -7   7 3370.37 303.925   3-0.07813-0.47994 0.39053-0.83382 0.94992-0.79534
  -6  -7   6 341.801 151.346   3-0.11212-0.46623 0.29504-0.77979 0.92783-0.86130
   6   7  -6 96.1129 90.2159   0-0.04422 0.62256-0.14730 0.63205-0.92772 0.86119
  -6  -7   5 511.739 172.321   3-0.14802-0.45060 0.18668-0.71289 0.89216-0.91365
   6   7  -5 164.945 142.502   0 0.06132 0.53730-0.10442 0.63063-0.89158 0.91308
   6   7  -4 7501.02 258.077   0 0.17260 0.44629-0.05745 0.62512-0.84126 0.95080
  -6  -7   4 12408.6 341.286   3-0.18421-0.43468 0.06850-0.63617 0.84141-0.95095
  -6  -7   3 52.9138 83.6426   3-0.21894-0.42023-0.05522-0.55391 0.77567-0.97324
   6   7  -3 14.1979 69.5719   0 0.28531 0.35386-0.00796 0.61710-0.77694 0.97451
   6   7  -2 76.9140 101.787   0 0.39506 0.26438 0.04225 0.60834-0.70015 0.98575
  -6  -8  10 554.305 220.152   3-0.03462-0.47215 0.50368-0.91839 0.96315-0.58958
  -6  -8   9 189.177 170.081   3-0.05772-0.46932 0.44483-0.90100 0.95815-0.67263
  -6  -8   8 1644.85 270.694   3-0.08421-0.46310 0.37392-0.87154 0.94675-0.74926
   6   8  -7 96.3338 99.8170   0-0.05832 0.62591-0.15291 0.69200-0.93171 0.82225
  -6  -8   7 545.863 178.312   3-0.11354-0.45405 0.29089-0.82998 0.92667-0.81721
  -6  -8   6 60.3675 112.759   3-0.14485-0.44302 0.19659-0.77714 0.89586-0.87444
   6   8  -6 48.2601 89.9513   0 0.04057 0.54729-0.11297 0.69352-0.89957 0.87815
  -6  -8   5 125.395 89.9326   3-0.17697-0.43117 0.09296-0.71497 0.85289-0.91951
  -6  -8   4 21411.9 493.367   3-0.20859-0.41982-0.01715-0.64632 0.79726-0.95191
  -6  -8   3 7516.76 311.844   3-0.23842-0.41026-0.13024-0.57469 0.72955-0.97224
  -6  -9   7 2650.47 355.361   3-0.14560-0.43151 0.19425-0.82914 0.89499-0.83066
  -6  -9   6 88.5075 180.853   3-0.17403-0.42335 0.10277-0.77911 0.85735-0.88105
  -6  -9   5 2141.02 246.150   3-0.20255-0.41511 0.00460-0.72241 0.80906-0.92079
  -6  -9   4 611.148 167.427   3-0.23012-0.40781-0.09772-0.66154 0.75013-0.94989
   7  -8   4 93.9433 150.677   2 0.93153-0.18768 0.44439-0.97149 0.44716-0.28579
   7  -7  -1 1131.48 231.632   1 0.37380 0.27820-0.17834-0.46027-0.78945 0.55576
   7  -7   0 659.277 205.262   1 0.41720 0.25506-0.20925-0.38791-0.77065 0.62499
   7  -7   1 401.465 201.178   1 0.46363 0.22892-0.24270-0.31299-0.74610 0.68848
   7  -7   2 13667.6 398.246   1 0.51166 0.20116-0.27782-0.23642-0.71514 0.74556
   7  -7   3 49.7757 116.644   2 0.90935-0.17626 0.50350-0.97627 0.41918-0.30073
   7  -7   4 59.0404 79.6425   2 0.90047-0.14711 0.52218-0.95349 0.40921-0.20273
   7  -7   5 5045.75 263.740   2 0.89491-0.12127 0.53294-0.92279 0.40321-0.10868
   7  -6  -3 261.896 168.512   1 0.25197 0.36900-0.09324-0.53250-0.82401 0.45937
   7  -6  -2 347.966 193.592   1 0.29230 0.34894-0.12117-0.46311-0.81531 0.53870
   7  -6  -1 862.826 172.986   1 0.33829 0.32322-0.15330-0.38951-0.80215 0.61357
   7  -6   0 45147.5 662.356   1 0.38886 0.29293-0.18903-0.31233-0.78335 0.68281
   7  -6   1 4597.33 237.770   1 0.44253 0.25954-0.22744-0.23245-0.75786 0.74536
   7  -6   2 55.8223 110.799   2 0.87811-0.15578 0.56199-0.98042 0.38593-0.31040
   7  -6   2 32.3300 75.3952   1 0.49758 0.22476-0.26747-0.15097-0.72485 0.80039
   7  -6   3 100.253 61.6765   2 0.86557-0.12295 0.58103-0.95800 0.37369-0.21012
   7  -6   4 56.6736 108.189   2 0.85777-0.09489 0.59193-0.92744 0.36631-0.11471
   7  -6   5 12300.4 372.203   2 0.85453-0.07138 0.59629-0.89034 0.36329-0.02365
   7  -6   6 58.6998 71.7544   2 0.85543-0.05200 0.59509-0.84768 0.36413 0.06355
   7  -5  -5 756.632 218.839   1 0.13482 0.45512-0.01337-0.59949-0.83554 0.33994
   7  -5  -4 2744.41 189.575   1 0.16703 0.44319-0.03516-0.53625-0.83432 0.42675
   7  -5  -3 1109.95 173.917   1 0.20681 0.42367-0.06225-0.46770-0.83080 0.51127
   7  -5  -2 13905.0 394.010   1 0.25377 0.39699-0.09448-0.39400-0.82368 0.59218
   7  -5  -1 6996.99 279.656   1 0.30706 0.36397-0.13145-0.31557-0.81147 0.66802
   7  -5   0 26443.6 484.087   1 0.36536 0.32595-0.17238-0.23318-0.79268 0.73726
   7  -5   1 7153.31 245.410   2 0.83599-0.12441 0.61941-0.98351 0.34645-0.31384
   7  -5   1 9711.79 313.872   1 0.42687 0.28472-0.21618-0.14792-0.76593 0.79855
   7  -5   2 1696.66 180.310   2 0.81934-0.08748 0.63795-0.96059 0.33188-0.21123
   7  -5   2 1536.33 200.158   1 0.48939 0.24246-0.26147-0.06117-0.73025 0.85090
   7  -5   3 2806.50 204.680   2 0.80923-0.05710 0.64834-0.92951 0.32326-0.11457
   7  -5   4 2050.23 224.725   2 0.80511-0.03271 0.65240-0.89212 0.31978-0.02306
   7  -5   5 1413.96 179.936   2 0.80628-0.01361 0.65126-0.84951 0.32077 0.06399
   7  -5   6 1247.85 239.629   2 0.81200 0.00095 0.64556-0.80235 0.32560 0.14719
   7  -4  -6 919.943 198.568   1 0.05326 0.52592 0.04122-0.59975-0.83235 0.29383
   7  -4  -5 7094.68 301.902   1 0.08223 0.51723 0.02192-0.53899-0.83450 0.38402
   7  -4  -4 296.199 118.125   1 0.11967 0.50006-0.00317-0.47243-0.83562 0.47318
   7  -4  -3 893.321 232.063   1 0.16564 0.47437-0.03421-0.39994-0.83440 0.55999
   7  -4  -2 33176.2 542.855   1 0.21973 0.44055-0.07108-0.32160-0.82917 0.64279
   7  -4  -1 2411.09 221.536   1 0.28098 0.39957-0.11331-0.23791-0.81801 0.71967
   7  -4   0 31.0768 77.8746   2 0.78065-0.07982 0.67475-0.98451 0.29960-0.30990
   7  -4   0 49.1517 71.1460   1 0.34777 0.35305-0.15997-0.14979-0.79898 0.78868
   7  -4   1 2769.71 168.138   2 0.75976-0.03866 0.69171-0.96001 0.28289-0.20516
   7  -4   1 2054.33 184.354   1 0.41780 0.30330-0.20968-0.05863-0.77036 0.84809
   7  -4   2 305.242 137.823   2 0.74756-0.00619 0.70082-0.92766 0.27334-0.10757
   7  -4   2 205.218 115.103   1 0.48827 0.25311-0.26065 0.03381-0.73098 0.89675
   7  -4   3 1077.59 176.952   2 0.74297 0.01868 0.70412-0.88949 0.26977-0.01597
   7  -4   4 475.260 191.304   2 0.74490 0.03703 0.70275-0.84666 0.27126 0.07057
   7  -4   5 4069.64 244.546   2 0.75231 0.04989 0.69734-0.79980 0.27704 0.15284
   7  -4   6 4586.95 252.016   2 0.76428 0.05820 0.68819-0.74919 0.28647 0.23144
   7  -3  -7 360.430 133.916   1-0.02422 0.59265 0.09235-0.59655-0.82118 0.23975
   7  -3  -6 1100.60 228.479   1 0.00022 0.58849 0.07630-0.53904-0.82555 0.33215
   7  -3  -5 3275.11 184.705   1 0.03365 0.57533 0.05423-0.47550-0.83027 0.42490
   7  -3  -4 2581.04 225.657   1 0.07656 0.55269 0.02571-0.40552-0.83417 0.51684
   7  -3  -3 1038.32 203.866   1 0.12916 0.52037-0.00956-0.32879-0.83561 0.60631
   7  -3  -2 32.5838 55.3648   1 0.19107 0.47873-0.05150-0.24539-0.83246 0.69120
   7  -3  -1 21.8701 64.0727   1 0.26118 0.42890-0.09960-0.15583-0.82225 0.76903
   7  -3   0 5929.40 210.391   2 0.68470 0.02565 0.74026-0.95422 0.22596-0.19115
   7  -3   0 6215.36 242.149   1 0.33740 0.37295-0.15268-0.06129-0.80244 0.83725
   7  -3   1 325.117 140.395   2 0.67112 0.05951 0.74737-0.91987 0.21607-0.09322
   7  -3   1 408.074 135.335   1 0.41676 0.31386-0.20893 0.03643-0.77086 0.89371
   7  -3   2 367.622 140.647   2 0.66683 0.08407 0.74952-0.88056 0.21297-0.00209
   7  -3   2 341.959 152.121   1 0.49562 0.25527-0.26603 0.13499-0.72616 0.93705
   7  -3   3 8351.29 279.257   2 0.67027 0.10090 0.74780-0.83738 0.21546 0.08346
   7  -3   3 7755.09 248.781   0 0.67724 0.09393 0.18348-0.27306-0.41813 0.71705
   7  -3   4 425.466 163.192   2 0.68009 0.11136 0.74272-0.79084 0.22259 0.16437
   7  -3   4 592.842 157.087   0 0.73983 0.05161 0.21837-0.26649-0.33072 0.71767
   7  -3   5 2543.13 250.203   2 0.69513 0.11659 0.73449-0.74115 0.23363 0.24136
   7  -3   5 2934.88 189.990   0 0.79204 0.01967 0.24918-0.25584-0.24591 0.72090
   7  -3   6 1609.92 252.918   2 0.71442 0.11758 0.72306-0.68826 0.24799 0.31503
   7  -2  -8 179.990 125.744   1-0.09556 0.65324 0.13880-0.58866-0.80393 0.17958
   7  -2  -7 866.644 184.558   1-0.07651 0.65446 0.12646-0.53486-0.80920 0.27288
   7  -2  -6 2335.43 164.048   1-0.04842 0.64664 0.10817-0.47511-0.81608 0.36780
   7  -2  -5 453.159 168.035   1-0.01038 0.62888 0.08327-0.40875-0.82375 0.46351
   7  -2  -4 1248.27 147.374   1 0.03838 0.60040 0.05110-0.33511-0.83082 0.55860
   7  -2  -3 403.740 142.371   1 0.09826 0.56078 0.01120-0.25375-0.83521 0.65103
   7  -2  -2 23239.7 419.229   1 0.16895 0.51037-0.03646-0.16463-0.83420 0.73806
   7  -2  -1 561.701 122.476   2 0.59256 0.10704 0.78064-0.94027 0.16086-0.16896
   7  -2  -1 773.091 142.896   0 0.27423 0.42536-0.01292-0.14671-0.78388 0.77578
   7  -2  -1 739.812 129.383   1 0.24908 0.45052-0.09125-0.06838-0.82454 0.81643
   7  -2   0 209.235 125.932   2 0.57887 0.14100 0.78524-0.90341 0.15153-0.07160
   7  -2   0 314.157 119.877   0 0.38499 0.33488 0.03755-0.15572-0.70783 0.78776
   7  -2   0 468.297 141.801   1 0.33593 0.38393-0.15165 0.03348-0.80291 0.88284
   7  -2   1 604.396 153.285   2 0.57604 0.16410 0.78615-0.86286 0.14962 0.01834
   7  -2   1 605.464 157.006   1 0.42555 0.31459-0.21523 0.13852-0.76659 0.93455
   7  -2   1 737.232 141.341   0 0.48662 0.25352 0.08590-0.16260-0.62388 0.79184
   7  -2   2 81.6207 68.1257   2 0.58201 0.17841 0.78422-0.81946 0.15367 0.10233
   7  -2   2 58.2841 92.2672   1 0.51312 0.24729-0.27890 0.24365-0.71410 0.97010
   7  -2   2 53.3123 89.5069   0 0.57684 0.18358 0.13076-0.16600-0.53572 0.79172
   7  -2   3 800.222 160.790   2 0.59509 0.18560 0.77976-0.77354 0.16259 0.18144
   7  -2   3 1129.78 226.630   0 0.65501 0.12568 0.17150-0.16529-0.44628 0.79032
   7  -2   4 1553.11 246.844   2 0.61395 0.18701 0.77279-0.72511 0.17560 0.25648
   7  -2   4 1563.46 183.958   0 0.72160 0.07936 0.20801-0.16033-0.35756 0.78963
   7  -2   5 31070.3 557.213   2 0.63746 0.18378 0.76316-0.67402 0.19204 0.32807
   7  -2   5 32681.2 548.127   0 0.77760 0.04364 0.24046-0.15132-0.27071 0.79081
   7  -2   6 2566.42 327.373   2 0.66467 0.17684 0.75058-0.61998 0.21142 0.39672
   7  -1  -8 2002.87 267.542   1-0.14595 0.71314 0.17124-0.52530-0.78765 0.20841
   7  -1  -7 240.154 122.996   1-0.12397 0.71144 0.15713-0.46973-0.79518 0.30397
   7  -1  -6 32.1955 86.8219   1-0.09214 0.69988 0.13659-0.40773-0.80491 0.40175
   7  -1  -5 3402.45 212.737   1-0.04920 0.67722 0.10868-0.33836-0.81591 0.50078
   7  -1  -4 21.6170 63.2960   0-0.07665 0.72494-0.16016-0.02806-0.93658 0.70949
   7  -1  -4 81.0673 85.2344   1 0.00599 0.64230 0.07250-0.26072-0.82647 0.59938
   7  -1  -3 19154.8 348.325   0 0.03063 0.63794-0.11705-0.02970-0.90325 0.76419
   7  -1  -3 22114.4 408.241   1 0.07410 0.59447 0.02735-0.17410-0.83401 0.69495
   7  -1  -2 4752.63 230.978   0 0.14455 0.54429-0.06946-0.03583-0.85515 0.80413
   7  -1  -2 5496.47 204.290   2 0.48333 0.20551 0.80919-0.91449 0.08851-0.13953
   7  -1  -2 5011.59 204.391   1 0.15488 0.53396-0.02692-0.07837-0.83495 0.78392
   7  -1  -1 1381.75 136.221   2 0.47130 0.23781 0.81130-0.87513 0.08080-0.04379
   7  -1  -1 1187.21 155.179   1 0.24659 0.46252-0.08954 0.02571-0.82498 0.86199
   7  -1  -1 1303.36 131.069   0 0.25949 0.44962-0.01948-0.04436-0.79291 0.82992
   7  -1   0 8611.70 259.732   2 0.47133 0.25806 0.81129-0.83366 0.08082 0.04423
   7  -1   0 8283.08 242.216   0 0.37012 0.35927 0.03065-0.05302-0.71892 0.84397
   7  -1   0 8635.25 240.610   1 0.34560 0.38379-0.15844 0.13607-0.79972 0.92477
   7  -1   1 43.9210 60.9913   2 0.48090 0.26877 0.80963-0.79054 0.08695 0.12614
   7  -1   1 55.0456 68.0948   1 0.44647 0.30319-0.23029 0.24938-0.75574 0.96882
   7  -1   1 28.5129 59.2439   0 0.47237 0.27729 0.07898-0.05989-0.63656 0.84964
   7  -1   2 92.4868 79.3055   2 0.49810 0.27184 0.80635-0.74580 0.09804 0.20308
   7  -1   2 52.8049 58.7919   0 0.56390 0.20604 0.12420-0.06364-0.54926 0.85038
   7  -1   3 16114.4 376.475   2 0.52144 0.26877 0.80125-0.69923 0.11325 0.27590
   7  -1   3 17212.0 385.560   0 0.64388 0.14633 0.16558-0.06357-0.45988 0.84904
   7  -1   4 4586.66 239.565   2 0.54971 0.26077 0.79401-0.65053 0.13194 0.34525
   7  -1   4 4232.01 210.652   0 0.71252 0.09797 0.20291-0.05944-0.37048 0.84767
   7  -1   5 16087.5 425.722   2 0.58192 0.24884 0.78425-0.59931 0.15360 0.41162
   7  -1   6 3830.09 345.532   2 0.61721 0.23382 0.77152-0.54512 0.17786 0.47540
   7   0  -9 1052.03 122.738   1-0.20673 0.76317 0.20994-0.50967-0.76334 0.14118
   7   0  -8 74.5687 59.5608   1-0.19110 0.76782 0.20004-0.45830-0.77009 0.23597
   7   0  -7 420.472 137.226   1-0.16614 0.76313 0.18414-0.40095-0.78015 0.33407
   7   0  -6 323.542 137.425   1-0.13032 0.74759 0.16121-0.33655-0.79307 0.43502
   7   0  -5 24832.2 437.690   1-0.08199 0.71952 0.13001-0.26389-0.80773 0.53772
   7   0  -4 3173.71 220.733   1-0.01951 0.67732 0.08926-0.18168-0.82209 0.64011
   7   0  -4 2676.97 184.553   0-0.07372 0.73153-0.15900 0.06658-0.93583 0.75385
   7   0  -3 102.494 81.0227   0 0.03334 0.64475-0.11594 0.06498-0.90225 0.80831
   7   0  -3 149.071 89.2639   2 0.35995 0.31813 0.82243-0.87339 0.01153-0.10547
   7   0  -3 160.773 103.894   1 0.05817 0.61992 0.03796-0.08892-0.83279 0.73885
   7   0  -2 18020.3 361.603   0 0.14632 0.55204-0.06871 0.05921-0.85430 0.84839
   7   0  -2 18066.3 342.058   2 0.35140 0.34696 0.82271-0.83221 0.00635-0.01226
   7   0  -2 17736.1 335.888   1 0.15089 0.54747-0.02422 0.01473-0.83511 0.82920
   7   0  -1 44.1052 61.2670   2 0.35547 0.36316 0.82259-0.79062 0.00881 0.07331
   7   0  -1 7.45805 46.6445   1 0.25635 0.46229-0.09626 0.12823-0.82319 0.90532
   7   0  -1 44.9377 62.1306   0 0.25999 0.45864-0.01926 0.05122-0.79261 0.87474
   7   0   0 1654.34 201.032   2 0.36945 0.36946 0.82203-0.74860 0.01730 0.15286
   7   0   0 1919.61 165.596   0 0.36946 0.36945 0.03034 0.04308-0.71941 0.88957
   7   0   1 4668.65 230.475   2 0.39132 0.36786 0.82073-0.70584 0.03068 0.22752
   7   0   1 4506.75 197.031   0 0.47096 0.28822 0.07830 0.03659-0.63780 0.89600
   7   0   2 10914.6 312.798   2 0.41951 0.35995 0.81827-0.66192 0.04813 0.29810
   7   0   2 10747.0 297.535   0 0.56226 0.21719 0.12337 0.03298-0.55095 0.89719
   7   0   3 13608.6 370.177   2 0.45280 0.34693 0.81417-0.61635 0.06904 0.36523
   7   0   3 13782.2 357.762   0 0.64246 0.15727 0.16483 0.03298-0.46160 0.89587
   7   0   4 23738.6 488.958   2 0.49018 0.32983 0.80791-0.56864 0.09292 0.42939
   7   0   5 3662.29 284.288   2 0.53080 0.30948 0.79898-0.51825 0.11940 0.49094
   7   1  -9 63.6791 119.186   1-0.24868 0.81465 0.23638-0.44031-0.74343 0.16640
   7   1  -8 26871.8 507.692   1-0.23062 0.81685 0.22502-0.38749-0.75233 0.26332
   7   1  -7 1846.94 171.722   1-0.20245 0.80896 0.20723-0.32824-0.76522 0.36425
   7   1  -6 3326.05 244.434   1-0.16223 0.78901 0.18165-0.26120-0.78165 0.46872
   7   1  -5 6257.52 238.457   1-0.10773 0.75478 0.14666-0.18474-0.80032 0.57542
   7   1  -4 741.209 168.039   0-0.05765 0.72498-0.15264 0.15602-0.93152 0.79466
   7   1  -4 470.356 154.794   1-0.03668 0.70401 0.10051-0.09713-0.81865 0.68179
   7   1  -3 5048.58 195.792   2 0.22505 0.46256 0.81825-0.77341-0.06799 0.01917
   7   1  -3 5287.25 194.366   1 0.05255 0.63506 0.04170 0.00314-0.83228 0.78346
   7   1  -3 5360.64 210.340   0 0.04926 0.63834-0.10940 0.15424-0.89628 0.84745
   7   1  -2 3157.09 169.888   0 0.16111 0.54677-0.06238 0.14868-0.84705 0.88626
   7   1  -2 3356.42 171.626   2 0.23365 0.47423 0.81904-0.73274-0.06305 0.10226
   7   1  -1 567.580 152.532   2 0.25216 0.47599 0.82051-0.69275-0.05236 0.17961
   7   1  -1 641.747 163.024   0 0.27304 0.45511-0.01345 0.14121-0.78462 0.91187
   7   1   0 16955.2 366.035   0 0.38058 0.36785 0.03550 0.13372-0.71115 0.92643
   7   1   0 17043.3 365.075   2 0.27861 0.46982 0.82204-0.65282-0.03695 0.25224
   7   1   1 28.3784 55.1357   2 0.31147 0.45723 0.82300-0.61232-0.01757 0.32089
   7   1   1 8.78085 69.7010   0 0.48034 0.28836 0.08284 0.12784-0.62951 0.93282
   7   1   2 2068.33 262.593   2 0.34954 0.43943 0.82276-0.57061 0.00523 0.38612
   7   1   2 2210.23 208.064   0 0.57025 0.21873 0.12741 0.12474-0.54266 0.93401
   7   1   3 6918.13 310.013   2 0.39184 0.41740 0.82070-0.52709 0.03101 0.44838
   7   1   3 6729.08 259.171   0 0.64944 0.15981 0.16854 0.12507-0.45313 0.93251
   7   1   4 451.221 193.694   2 0.43755 0.39197 0.81621-0.48114 0.05942 0.50800
   7   1   5 96.8572 153.431   2 0.48596 0.36383 0.80871-0.43217 0.09020 0.56526
   7   2 -10 5379.38 347.932   1-0.29637 0.85158 0.26613-0.41572-0.71753 0.09758
   7   2  -9 46.5582 71.5635   1-0.28475 0.86023 0.25891-0.36704-0.72418 0.19226
   7   2  -8 6999.82 278.116   1-0.26403 0.85979 0.24599-0.31266-0.73549 0.29160
   7   2  -7 911.195 181.060   1-0.23226 0.84829 0.22606-0.25127-0.75154 0.39569
   7   2  -6 4947.55 216.522   1-0.18695 0.82325 0.19740-0.18114-0.77182 0.50401
   7   2  -5 5679.96 218.420   1-0.12509 0.78167 0.15785-0.10013-0.79481 0.61503
   7   2  -4 18489.8 386.952   0-0.03026 0.70711-0.14172 0.24090-0.92358 0.83184
   7   2  -3 2871.55 216.551   0 0.07640 0.62072-0.09816 0.23879-0.88550 0.88180
   7   2  -2 12488.1 325.715   0 0.18686 0.53054-0.05130 0.23340-0.83389 0.91822
   7   2  -1 3444.38 208.555   0 0.29660 0.44108-0.00290 0.22646-0.76971 0.94208
   7   2   0 21066.7 417.621   0 0.40159 0.35636 0.04531 0.21972-0.69511 0.95550
   7   2   0 20887.8 423.064   2 0.20180 0.55614 0.81578-0.55075-0.08126 0.34165
   7   2   1 856.750 230.394   2 0.24382 0.53440 0.81989-0.51341-0.05719 0.40562
   7   2   1 1118.73 203.222   0 0.49880 0.27942 0.09183 0.21465-0.61279 0.96122
   7   2   2 782.503 200.177   2 0.29026 0.50823 0.82251-0.47456-0.03011 0.46658
   7   2   2 834.214 258.907   0 0.58640 0.21209 0.13564 0.21230-0.52549 0.96196
   7   2   3 1649.83 242.868   2 0.34033 0.47844 0.82296-0.43355-0.00032 0.52483
   7   2   4 23676.5 521.207   2 0.39335 0.44569 0.82059-0.38972 0.03193 0.58061
  -7  -3  11 18.5571 73.3096   3 0.12725-0.67170 0.83902-0.74376 0.87111-0.20824
   7   3 -10 226.404 114.797   1-0.32850 0.89322 0.28598-0.33978-0.69799 0.12315
   7   3  -9 5037.74 342.075   1-0.31455 0.89956 0.27739-0.28972-0.70668 0.21988
   7   3  -8 1487.74 202.337   1-0.29080 0.89607 0.26267-0.23354-0.72075 0.32198
   7   3  -7 8018.32 273.618   1-0.25477 0.88032 0.24020-0.16961-0.74032 0.42959
   7   3  -6 11830.9 297.581   1-0.20327 0.84909 0.20775-0.09570-0.76486 0.54216
   7   3  -5 46333.1 598.796   0-0.09256 0.75865-0.16641 0.31992-0.94054 0.80588
   7   3  -4 670.215 180.767   0 0.00706 0.67931-0.12667 0.32164-0.91156 0.86493
   7   3  -3 2294.23 202.060   0 0.11323 0.59342-0.08273 0.31917-0.86969 0.91110
   7   3  -2 63.1328 68.6898   0 0.22194 0.50498-0.03603 0.31393-0.81482 0.94426
   7   3  -1 2409.31 184.078   0 0.32903 0.41816 0.01179 0.30757-0.74812 0.96560
   7   3   0 15317.0 366.208   0 0.43090 0.33656 0.05913 0.30169-0.67172 0.97724
   7   3   1 12411.2 357.863   2 0.18937 0.59837 0.81425-0.41197-0.08830 0.48185
   7   3   1 11869.1 330.517   0 0.52491 0.26283 0.10469 0.29759-0.58820 0.98175
   7   3   2 1186.19 231.539   2 0.24262 0.56540 0.81979-0.37605-0.05788 0.53947
   7   3   3 59.3470 84.2800   2 0.29918 0.52911 0.82277-0.33757-0.02485 0.59447
  -7  -4  11 178.368 124.831   3 0.09710-0.65107 0.78727-0.78781 0.90594-0.28819
   7   4 -10 2377.79 369.164   1-0.35431 0.92855 0.30182-0.25982-0.68100 0.15128
  -7  -4  10 2804.58 315.017   3 0.08427-0.65852 0.76365-0.80565 0.91812-0.38840
   7   4  -9 14976.4 399.192   1-0.33765 0.93217 0.29161-0.20815-0.69210 0.25042
   7   4  -8 608.695 171.481   1-0.31022 0.92501 0.27471-0.14978-0.70932 0.35567
   7   4  -5 1353.62 217.104   0-0.04705 0.72266-0.14843 0.39774-0.92854 0.83899
   7   4  -4 466.786 150.210   0 0.05317 0.64272-0.10778 0.39856-0.89477 0.89326
   7   4  -3 1197.15 171.373   0 0.15848 0.55769-0.06351 0.39574-0.84836 0.93489
   7   4  -2 4964.49 219.070   0 0.26501 0.47143-0.01703 0.39072-0.78956 0.96413
   7   4  -1 2167.90 200.958   0 0.36898 0.38773 0.03013 0.38503-0.71976 0.98235
   7   4   0 5426.82 251.976   0 0.46722 0.30977 0.07650 0.38012-0.64106 0.99170
   7   4   2 72.4393 161.680   2 0.20676 0.61077 0.81635-0.27681-0.07844 0.60514
   7   5 -10 394.295 156.725   1-0.37342 0.95718 0.31347-0.17567-0.66764 0.18303
  -7  -5  10 522.376 203.868   3 0.04917-0.63293 0.69443-0.83223 0.94387-0.45927
  -7  -5   9 5628.29 311.343   3 0.02850-0.63254 0.65067-0.82993 0.95406-0.55749
   7   5  -6 9838.24 304.464   0-0.08675 0.75161-0.16413 0.46777-0.93912 0.80666
   7   5  -5 2578.86 219.653   0 0.00675 0.67838-0.12679 0.47189-0.91166 0.86724
   7   5  -4 207.926 133.447   0 0.10714 0.59827-0.08530 0.47186-0.87240 0.91601
   7   5  -3 326.245 155.444   0 0.21108 0.51460-0.04078 0.46881-0.82086 0.95250
   7   5  -2 1160.31 213.125   0 0.31495 0.43101 0.00539 0.46410-0.75765 0.97733
   7   5  -1 1194.08 255.474   0 0.41531 0.35092 0.05176 0.45920-0.68431 0.99202
  -7  -6  10 1017.41 244.325   3 0.01338-0.60667 0.61729-0.85089 0.95925-0.51976
  -7  -6   9 39.0293 108.457   3-0.00907-0.60449 0.56560-0.84065 0.96345-0.61200
  -7  -6   8 18.0648 56.6919   3-0.03630-0.59754 0.49949-0.81601 0.96294-0.69952
   7   6  -6 52.5595 109.783   0-0.02656 0.70095-0.14024 0.53968-0.92246 0.83511
   7   6  -5 31.3178 60.7119   0 0.06813 0.62653-0.10159 0.54250-0.88887 0.88956
   7   6  -4 3404.56 252.226   0 0.16812 0.54681-0.05938 0.54174-0.84354 0.93226
   7   6  -3 174.932 130.615   0 0.27013 0.46507-0.01474 0.53857-0.78642 0.96318
  -7  -7   9 1312.86 240.395   3-0.04549-0.57759 0.47633-0.84718 0.96136-0.65503
  -7  -7   8 3095.36 349.685   3-0.07270-0.57065 0.40520-0.81751 0.95247-0.73417
  -7  -8   8 10159.8 378.439   3-0.10658-0.54629 0.31104-0.81915 0.93217-0.75899
   8  -6   1 103.126 116.091   1 0.46769 0.33993-0.24566-0.20375-0.74371 0.75551
   8  -6   2 647.753 184.913   1 0.51864 0.30925-0.28297-0.12497-0.71011 0.80995
   8  -6   3 208.854 147.572   2 0.86169-0.01352 0.58653-0.95301 0.37000-0.18212
   8  -5  -3 6.11862 68.9634   1 0.25118 0.48487-0.09270-0.42676-0.82416 0.52894
   8  -5  -2 4132.05 343.611   1 0.29550 0.46082-0.12340-0.35460-0.81451 0.60732
   8  -5  -1 5146.22 296.974   1 0.34521 0.43138-0.15817-0.27836-0.79985 0.68071
   8  -5   0 26069.8 519.255   1 0.39912 0.39775-0.19633-0.19874-0.77894 0.74783
   8  -5   1 664.436 183.024   1 0.45568 0.36146-0.23694-0.11666-0.75065 0.80758
   8  -5   2 2832.09 263.351   2 0.81689 0.02052 0.64052-0.95267 0.32978-0.18482
   8  -5   2 2885.86 300.643   1 0.51307 0.32434-0.27886-0.03329-0.71413 0.85909
   8  -5   3 10666.5 342.997   2 0.80894 0.04875 0.64864-0.91932 0.32300-0.09001
   8  -5   4 361.270 181.992   2 0.80643 0.07153 0.65112-0.88034 0.32089 0.00014
   8  -4  -4 3033.07 331.404   1 0.17310 0.55219-0.03928-0.42584-0.83392 0.49579
   8  -4  -3 3629.02 327.714   1 0.21713 0.52843-0.06931-0.35435-0.82951 0.57941
   8  -4  -2 9361.00 328.507   1 0.26803 0.49780-0.10434-0.27786-0.82085 0.65879
   8  -4  -1 5609.17 265.062   1 0.32486 0.46125-0.14389-0.19684-0.80636 0.73233
   8  -4   0 25446.3 504.151   1 0.38618 0.42021-0.18713-0.11215-0.78447 0.79847
   8  -4   1 1815.42 190.655   2 0.76099 0.06567 0.69076-0.94857 0.28386-0.18182
   8  -4   1 937.410 208.178   1 0.45005 0.37661-0.23287-0.02494-0.75379 0.85583
   8  -4   2 4393.34 274.961   2 0.75146 0.09547 0.69797-0.91432 0.27637-0.08630
   8  -4   2 4072.11 246.053   1 0.51419 0.33275-0.27968 0.06333-0.71333 0.90341
   8  -4   3 141.974 91.5517   2 0.74867 0.11854 0.70002-0.87491 0.27419 0.00392
   8  -4   4 74.4545 148.924   2 0.75168 0.13580 0.69781-0.83124 0.27654 0.08960
   8  -3  -5 254.691 141.577   1 0.09559 0.61894 0.01298-0.42377-0.83512 0.45406
   8  -3  -4 191.500 104.738   1 0.13773 0.59708-0.01534-0.35399-0.83549 0.54247
   8  -3  -3 113.915 99.2754   1 0.18811 0.56698-0.04948-0.27838-0.83273 0.62775
   8  -3  -2 5418.08 251.152   1 0.24620 0.52916-0.08927-0.19713-0.82505 0.70810
   8  -3  -1 20993.6 443.024   1 0.31088 0.48476-0.13411-0.11083-0.81042 0.78151
   8  -3   0 33.4303 104.779   2 0.69296 0.12295 0.73572-0.93919 0.23202-0.17290
   8  -3   0 8.49988 62.3729   1 0.38031 0.43560-0.18296-0.02052-0.78687 0.84599
   8  -3   1 6.69199 81.7899   2 0.68232 0.15386 0.74154-0.90355 0.22422-0.07706
   8  -3   1 28.0764 80.9053   1 0.45205 0.38413-0.23432 0.07230-0.75268 0.89984
   8  -3   2 4861.30 261.945   2 0.67973 0.17672 0.74291-0.86346 0.22233 0.01286
   8  -3   2 5151.74 315.585   1 0.52318 0.33328-0.28632 0.16577-0.70676 0.94195
   8  -3   3 13352.5 373.027   2 0.68394 0.19279 0.74067-0.81976 0.22540 0.09783
   8  -3   4 3919.42 269.447   2 0.69384 0.20316 0.73522-0.77285 0.23267 0.17859
   8  -2  -6 224.774 177.078   1 0.02084 0.68294 0.06270-0.41915-0.82863 0.40466
   8  -2  -5 4033.44 263.620   1 0.05956 0.66450 0.03703-0.35202-0.83291 0.49697
   8  -2  -4 9.84913 101.198   1 0.10761 0.63672 0.00493-0.27845-0.83547 0.58756
   8  -2  -3 33.9966 88.4235   1 0.16499 0.59961-0.03378-0.19829-0.83444 0.67457
   8  -2  -2 318.885 107.358   1 0.23111 0.55377-0.07889-0.11171-0.82752 0.75569
   8  -2  -1 61.0292 105.455   2 0.61231 0.19284 0.77342-0.92256 0.17446-0.15825
   8  -2  -1 43.5426 75.3482   1 0.30456 0.50059-0.12970-0.01944-0.81215 0.82835
   8  -2   0 7744.91 273.505   2 0.60133 0.22409 0.77752-0.88520 0.16688-0.06264
   8  -2   0 7795.10 264.371   1 0.38299 0.44244-0.18486 0.07718-0.78578 0.89002
   8  -2   1 23.4586 77.9604   2 0.59965 0.24605 0.77813-0.84435 0.16572 0.02655
   8  -2   1 10.9832 71.0062   1 0.46320 0.38250-0.24239 0.17617-0.74635 0.93862
   8  -2   1 51.8446 67.1888   0 0.52546 0.32024 0.10496-0.17118-0.58766 0.77994
   8  -2   2 5929.46 260.308   2 0.60565 0.26032 0.77593-0.80069 0.16985 0.11046
   8  -2   2 5879.99 278.112   0 0.60345 0.26253 0.14441-0.16917-0.50680 0.78711
   8  -2   3 5637.36 259.480   2 0.61800 0.26824 0.77120-0.75450 0.17841 0.18994
   8  -2   3 6211.92 345.340   0 0.67255 0.21370 0.18094-0.16423-0.42419 0.79253
   8  -2   4 1332.14 287.716   2 0.63561 0.27091 0.76395-0.70579 0.19073 0.26565
   8  -1  -7 648.190 187.397   1-0.04910 0.74213 0.10862-0.41073-0.81593 0.34904
   8  -1  -6 619.970 164.099   1-0.01502 0.72832 0.08632-0.34697-0.82292 0.44406
   8  -1  -5 8359.92 309.605   1 0.02903 0.70455 0.05729-0.27648-0.82970 0.53888
   8  -1  -4 1917.50 209.554   1 0.08365 0.67020 0.02097-0.19870-0.83458 0.63179
   8  -1  -3 30.0995 62.2007   0 0.13565 0.63847-0.07325-0.06302-0.85938 0.74463
   8  -1  -3 57.5994 80.3347   1 0.14893 0.62519-0.02290-0.11336-0.83518 0.72043
   8  -1  -2 309.416 153.653   1 0.22420 0.57020-0.07415-0.02066-0.82854 0.80183
   8  -1  -2 334.661 130.893   0 0.23330 0.56110-0.03105-0.06376-0.80835 0.78164
   8  -1  -1 3054.26 199.632   2 0.50935 0.30532 0.80398-0.85733 0.10535-0.04403
   8  -1  -1 3072.84 221.108   0 0.33072 0.48395 0.01256-0.06590-0.74696 0.80828
   8  -1  -1 3006.21 209.550   1 0.30763 0.50704-0.13184 0.07850-0.81132 0.87264
   8  -1   0 13066.6 345.624   0 0.42451 0.41043 0.05610-0.06798-0.67692 0.82628
   8  -1   0 12950.0 334.960   2 0.50935 0.32559 0.80398-0.81586 0.10535 0.04401
   8  -1   1 5243.90 236.654   2 0.51775 0.33747 0.80210-0.77252 0.11083 0.12656
   8  -1   1 5508.76 257.263   0 0.51206 0.34316 0.09834-0.06876-0.60045 0.83784
   8  -1   2 155.551 148.091   2 0.53302 0.34248 0.79843-0.72738 0.12087 0.20456
   8  -1   2 61.3533 76.6721   0 0.59170 0.28379 0.13836-0.06732-0.51974 0.84517
   8  -1   3 3380.22 272.811   2 0.55395 0.34182 0.79282-0.68031 0.13476 0.27870
   8  -1   4 868.226 302.542   2 0.57953 0.33651 0.78503-0.63106 0.15198 0.34951
   8   0  -8 11534.1 409.806   1-0.11250 0.79478 0.14974-0.39752-0.79884 0.28903
   8   0  -7 141.259 108.570   1-0.08389 0.78644 0.13125-0.33756-0.80721 0.38544
   8   0  -6 116.899 102.051   1-0.04513 0.76796 0.10603-0.27088-0.81682 0.48308
   8   0  -5 647.436 183.849   0-0.04866 0.79175-0.14907 0.02568-0.92900 0.68329
   8   0  -5 913.861 203.310   1 0.00488 0.73822 0.07323-0.19662-0.82630 0.58060
   8   0  -4 616.719 128.028   1 0.06699 0.69638 0.03209-0.11402-0.83351 0.67584
   8   0  -4 734.504 207.437   0 0.03923 0.72414-0.11353 0.03160-0.90007 0.74241
   8   0  -3 16060.3 359.811   0 0.13364 0.65000-0.07410 0.03363-0.86033 0.79070
   8   0  -3 15938.7 355.914   1 0.14144 0.64221-0.01784-0.02263-0.83540 0.76577
   8   0  -2 4112.04 259.071   2 0.40867 0.39525 0.81933-0.81833 0.04140-0.02299
   8   0  -2 4622.03 233.286   0 0.23125 0.57267-0.03195 0.03294-0.80953 0.82793
   8   0  -1 11412.4 324.928   2 0.41101 0.41318 0.81911-0.77665 0.04285 0.06359
   8   0  -1 11156.9 310.189   0 0.32852 0.49567 0.01155 0.03090-0.74847 0.85491
   8   0   0 39.8761 80.0778   0 0.42223 0.42223 0.05503 0.02889-0.67876 0.87323
   8   0   0 21.8145 64.7784   2 0.42223 0.42223 0.81799-0.73407 0.04983 0.14464
   8   0   1 447.279 177.688   2 0.44069 0.42404 0.81581-0.69044 0.06140 0.22111
   8   0   1 463.793 149.839   0 0.50990 0.35483 0.09728 0.02810-0.60247 0.88498
   8   0   2 220.712 121.986   2 0.46511 0.41990 0.81230-0.64546 0.07685 0.29369
   8   0   2 227.442 111.307   0 0.58991 0.29511 0.13744 0.02940-0.52170 0.89224
   8   0   3 71.0725 102.397   2 0.49443 0.41085 0.80708-0.59878 0.09567 0.36291
   8   1  -8 7016.46 407.706   1-0.14540 0.83719 0.17088-0.32286-0.78785 0.32315
   8   1  -7 207.088 137.193   1-0.11271 0.82478 0.14987-0.26039-0.79878 0.42212
   8   1  -6 3268.16 295.557   1-0.06867 0.80101 0.12136-0.19042-0.81122 0.52260
   8   1  -5 15035.1 361.176   1-0.01178 0.76440 0.08419-0.11178-0.82351 0.62292
   8   1  -5 14017.9 348.644   0-0.03932 0.79194-0.14535 0.11775-0.92629 0.72571
   8   1  -4 1259.80 182.041   1 0.05915 0.71373 0.03730-0.02343-0.83288 0.72033
   8   1  -4 1190.46 205.330   0 0.04937 0.72352-0.10935 0.12322-0.89623 0.78368
   8   1  -3 28.0625 60.3214   0 0.14392 0.64924-0.06973 0.12506-0.85545 0.83094
   8   1  -3 47.8245 68.3954   2 0.30317 0.48999 0.82286-0.76753-0.02249-0.00203
   8   1  -2 542.815 126.946   2 0.30815 0.50528 0.82296-0.72617-0.01954 0.08306
   8   1  -2 971.969 165.121   0 0.24112 0.57232-0.02760 0.12439-0.80382 0.86734
   8   1  -1 2305.29 205.226   2 0.32226 0.51145 0.82309-0.68483-0.01114 0.16270
   8   1  -1 2471.29 257.281   0 0.33764 0.49607 0.01572 0.12254-0.74217 0.89373
   8   1   0 3071.71 201.646   0 0.43050 0.42348 0.05894 0.12077-0.67205 0.91164
   8   1   0 3089.14 218.509   2 0.34383 0.51015 0.82289-0.64318 0.00179 0.23780
   8   1   1 84.5130 85.7765   2 0.37157 0.50268 0.82193-0.60075 0.01859 0.30903
   8   1   1 85.9138 101.530   0 0.51737 0.35689 0.10096 0.12022-0.59541 0.92304
   8   1   2 2725.48 260.116   2 0.40443 0.49011 0.81970-0.55706 0.03877 0.37689
   8   1   3 155.901 126.587   2 0.44152 0.47329 0.81571-0.51161 0.06191 0.44178
   8   2  -9 5582.87 405.160   1-0.19846 0.87950 0.20471-0.30235-0.76695 0.25934
   8   2  -8 172.005 77.5490   1-0.17210 0.87342 0.18795-0.24413-0.77783 0.35825
   8   2  -7 147.789 107.199   1-0.13477 0.85636 0.16407-0.17879-0.79156 0.46002
   8   2  -6 2375.24 206.247   0-0.10093 0.84279-0.16968 0.19642-0.94252 0.69901
   8   2  -6 2674.54 268.415   1-0.08455 0.82642 0.13167-0.10493-0.80703 0.56353
   8   2  -5 53.9436 59.4863   0-0.01916 0.78130-0.13726 0.20547-0.92015 0.76468
   8   2  -4 6112.21 250.207   0 0.07025 0.71215-0.10071 0.21038-0.88801 0.82058
   8   2  -3 8137.41 333.041   0 0.16471 0.63797-0.06084 0.21196-0.84525 0.86585
   8   2  -3 7816.98 275.291   2 0.20530 0.59739 0.81618-0.66505-0.07927 0.09987
   8   2  -2 500.248 187.195   2 0.22187 0.60109 0.81794-0.62536-0.06981 0.17845
   8   2  -2 1053.49 196.458   0 0.26114 0.56182-0.01875 0.21133-0.79192 0.90055
   8   2  -1 2705.46 278.221   0 0.35641 0.48682 0.02432 0.20973-0.72890 0.92557
   8   2  -1 2382.99 251.238   2 0.24603 0.59720 0.82006-0.58601-0.05591 0.25259
   8   2   0 7980.52 302.581   2 0.27652 0.58698 0.82195-0.54644-0.03817 0.32288
   8   2   1 242.428 140.936   2 0.31232 0.57145 0.82302-0.50604-0.01706 0.38980
   8   2   2 80.1352 129.967   2 0.35260 0.55145 0.82268-0.46424 0.00708 0.45370
   8   3  -9 123.130 151.678   1-0.22240 0.91296 0.21984-0.22169-0.75621 0.29372
   8   3  -8 510.021 146.484   1-0.19191 0.90275 0.20055-0.16093-0.76975 0.39529
   8   3  -6 1108.90 171.965   0-0.07263 0.82401-0.15857 0.28111-0.93554 0.73715
   8   3  -5 7716.15 281.485   0 0.01059 0.76106-0.12523 0.28923-0.91035 0.80000
   8   3  -4 8941.99 302.534   0 0.10055 0.69137-0.08806 0.29353-0.87529 0.85297
   8   3  -3 15596.8 407.781   0 0.19464 0.61756-0.04793 0.29485-0.82977 0.89549
   8   3  -2 9327.28 308.862   0 0.28991 0.54257-0.00590 0.29429-0.77401 0.92777
   8   3  -1 8.17322 68.4319   0 0.38345 0.46930 0.03684 0.29301-0.70899 0.95078
   8   3  -1 75.3119 116.614   2 0.18350 0.66925 0.81348-0.48363-0.09161 0.33340
   8   3   0 66.1279 107.814   2 0.22134 0.65168 0.81789-0.44658-0.07011 0.39994
   8   3   1 78.4681 124.651   2 0.26391 0.62938 0.82128-0.40850-0.04554 0.46340
   8   4   0 43.9041 131.531   2 0.17843 0.70411 0.81279-0.34569-0.09447 0.46941
   9  -4   1 70.0912 133.525   1 0.48545 0.44677-0.25859 0.01127-0.73279 0.85914
   9  -4   2 36.6517 82.2577   2 0.76280 0.18969 0.68935-0.89521 0.28530-0.07091
   9  -3  -3 9901.22 362.294   1 0.24695 0.61369-0.08979-0.22758-0.82492 0.64424
   9  -3  -2 291.944 166.295   1 0.30151 0.57940-0.12758-0.14833-0.81296 0.72032
   9  -3  -1 565.085 204.456   1 0.36138 0.53981-0.16957-0.06488-0.79415 0.78955
   9  -3   0 99.9728 133.553   1 0.42494 0.49652-0.21480 0.02181-0.76689 0.85032
   9  -3   1 490.362 222.865   2 0.70088 0.24086 0.73119-0.88271 0.23788-0.06642
   9  -3   1 346.971 168.527   1 0.49011 0.45163-0.26199 0.11047-0.72979 0.90126
   9  -3   2 147.103 153.304   2 0.69930 0.26271 0.73211-0.84217 0.23671 0.02279
   9  -2  -4 7369.86 347.341   1 0.17560 0.67429-0.04098-0.22206-0.83375 0.61015
   9  -2  -3 0.11015 37.1888   1 0.23038 0.63979-0.07839-0.14319-0.82763 0.69208
   9  -2  -2 1855.30 300.307   1 0.29225 0.59819-0.12113-0.05898-0.81532 0.76780
   9  -2  -1 75.8900 111.578   1 0.35984 0.55087-0.16847 0.02982-0.79472 0.83523
   9  -2   0 8863.54 311.155   2 0.62985 0.30113 0.76639-0.86358 0.18669-0.05814
   9  -2   1 1070.99 226.906   2 0.62872 0.32254 0.76687-0.82259 0.18589 0.03070
   9  -2   2 676.724 221.000   2 0.63441 0.33712 0.76447-0.77873 0.18989 0.11473
   9  -1  -5 6685.46 376.674   1 0.10540 0.73373 0.00641-0.21511-0.83542 0.56890
   9  -1  -4 490.398 158.726   1 0.15881 0.70060-0.02959-0.13765-0.83477 0.65629
   9  -1  -3 2602.08 308.685   1 0.22104 0.65864-0.07198-0.05379-0.82899 0.73855
   9  -1  -1 55.1256 132.432   0 0.39804 0.52219 0.04365-0.08650-0.69785 0.78348
   9  -1  -1 113.505 135.067   2 0.55063 0.36960 0.79375-0.83660 0.13255-0.04692
   9  -1   0 1163.01 263.291   2 0.55037 0.39013 0.79382-0.79522 0.13238 0.04129
   9  -1   1 58.8884 133.558   2 0.55762 0.40316 0.79177-0.75170 0.13722 0.12448
   9   0  -6 55.3785 152.888   1 0.03828 0.79010 0.05116-0.20552-0.83081 0.52138
   9   0  -5 1725.83 250.076   1 0.08881 0.75984 0.01752-0.13042-0.83483 0.61344
   9   0  -4 41.8155 102.230   0 0.14170 0.72723-0.07067-0.00077-0.85652 0.72316
   9   0  -4 58.9244 134.316   1 0.14961 0.71931-0.02336-0.04808-0.83516 0.70180
   9   0  -1 83.1437 124.591   2 0.46599 0.46376 0.81216-0.75922 0.07741 0.05333
   9   0   0 2026.19 251.166   2 0.47501 0.47501 0.81067-0.71626 0.08317 0.13561
   9   0   1 233.654 142.125   2 0.49072 0.47958 0.80781-0.67194 0.09327 0.21355
   9   1  -7 6384.72 390.511   1-0.02395 0.84158 0.09218-0.19220-0.82124 0.46889
   9   1  -6 129.997 99.2532   1 0.02242 0.81548 0.06166-0.12022-0.82885 0.56453
   9   1  -2 2162.42 183.920   2 0.37811 0.54089 0.82158-0.71430 0.02258 0.06525
   9   1  -1 7019.83 313.809   2 0.38891 0.55036 0.82090-0.67216 0.02920 0.14666
   9   1   0 6180.98 348.229   2 0.40672 0.55282 0.81950-0.62930 0.04019 0.22371
   9   2  -3 2407.74 205.518   2 0.28987 0.61838 0.82249-0.66088-0.03034 0.07525
   9   2  -2 0.01693 33.9766   2 0.30219 0.62632 0.82284-0.61976-0.02307 0.15601
   9   2  -1 18.0593 55.6817   2 0.32176 0.62703 0.82308-0.57854-0.01144 0.23242
   9   3  -4 158.675 155.018   2 0.20463 0.69285 0.81611-0.60015-0.07965 0.08164
   9   3  -3 625.778 180.844   2 0.21795 0.69981 0.81755-0.56014-0.07205 0.16208
   9   3  -2 1203.39 209.312   2 0.23867 0.69936 0.81947-0.52060-0.06016 0.23822
;
_shelx_hkl_checksum              49876
loop_
_space_group_symop_operation_xyz
'x, y, z'
'-x, -y, -z'
loop_
_atom_site_label
_atom_site_type_symbol
_atom_site_fract_x
_atom_site_fract_y
_atom_site_fract_z
_atom_site_U_iso_or_equiv
_atom_site_adp_type
_atom_site_occupancy
_atom_site_site_symmetry_order
_atom_site_calc_flag
_atom_site_refinement_flags_posn
_atom_site_refinement_flags_adp
_atom_site_refinement_flags_occupancy
_atom_site_disorder_assembly
_atom_site_disorder_group
O1 O 0.22167(9) 0.42469(8) 0.38829(8) 0.01345(16) Uani 1 1 d . . . . .
O2 O 0.21679(9) 0.17206(8) 0.16231(8) 0.01342(16) Uani 1 1 d . . . . .
O3 O 0.33589(10) 0.14902(9) 0.65169(8) 0.01567(17) Uani 1 1 d . . . . .
O4 O 0.08665(9) 0.05863(9) 0.42671(8) 0.01508(17) Uani 1 1 d . . . . .
C1 C 0.26845(12) 0.26749(11) 0.31685(10) 0.0103(2) Uani 1 1 d . . . . .
C2 C 0.39089(12) 0.19424(11) 0.42499(11) 0.0127(2) Uani 1 1 d . . . . .
C3 C 0.26537(12) 0.13193(11) 0.51236(11) 0.0118(2) Uani 1 1 d . . . . .
N1A1 N 0.29122(11) 0.62517(10) 0.71700(9) 0.01177(19) Uani 1 1 d . . . . .
C1A C 0.23234(12) 0.78718(11) 0.78878(11) 0.0110(2) Uani 1 1 d . . . . .
N1A2 N 0.30047(11) 0.85629(10) 0.95172(9) 0.01212(19) Uani 1 1 d . . . . .
C2A C 0.40725(13) 0.73442(11) 0.98654(11) 0.0126(2) Uani 1 1 d . . . . .
C3A C 0.40091(13) 0.58992(11) 0.83894(11) 0.0137(2) Uani 1 1 d . . . . .
N1B1 N 0.0699(2) 0.40913(19) 1.05004(18) 0.0106(4) Uani 0.5 1 d . . P A 1
C1B C 0.0045(3) 0.3765(2) 0.8932(2) 0.0110(4) Uani 0.5 1 d . . P A 1
N1B2 N -0.0628(2) 0.52312(19) 0.89048(18) 0.0116(4) Uani 0.5 1 d . . P A 1
C2B C -0.0399(2) 0.6533(2) 1.0542(2) 0.0110(4) Uani 0.5 1 d . . P A 1
C3B C 0.0431(2) 0.5817(2) 1.1512(2) 0.0103(4) Uani 0.5 1 d . . P A 1
H3B H 0.082(3) 0.633(3) 1.275(3) 0.013(6) Uiso 0.5 1 d . . P B 1
H2B H -0.072(3) 0.771(3) 1.067(3) 0.015(6) Uiso 0.5 1 d . . P C 1
H1B2 H -0.125(3) 0.539(3) 0.794(3) 0.008(5) Uiso 0.5 1 d . . P D 1
H1B1 H 0.126(4) 0.327(4) 1.087(4) 0.040(9) Uiso 0.5 1 d . . P E 1
H1B H 0.004(3) 0.265(3) 0.795(3) 0.015(6) Uiso 0.5 1 d . . P F 1
H4 H 0.0000 0.0000 0.5000 0.049(7) Uiso 1 2 d S . P . .
H21 H 0.4995(19) 0.2841(17) 0.5068(15) 0.025(3) Uiso 1 1 d . . . . .
H22 H 0.4530(18) 0.0887(16) 0.3585(14) 0.020(3) Uiso 1 1 d . . . . .
H1A1 H 0.2645(19) 0.5485(17) 0.5985(15) 0.024(3) Uiso 1 1 d . . . . .
H1A H 0.1537(18) 0.8421(16) 0.7318(14) 0.018(3) Uiso 1 1 d . . . . .
H1A2 H 0.280(3) 0.968(2) 1.030(2) 0.055(5) Uiso 1 1 d . . . . .
H2A H 0.4734(18) 0.7595(15) 1.0986(14) 0.016(3) Uiso 1 1 d . . . . .
H3A H 0.4537(18) 0.4759(16) 0.8074(14) 0.021(3) Uiso 1 1 d . . . . .
loop_
_atom_site_aniso_label
_atom_site_aniso_U_11
_atom_site_aniso_U_22
_atom_site_aniso_U_33
_atom_site_aniso_U_23
_atom_site_aniso_U_13
_atom_site_aniso_U_12
O1 0.0122(2) 0.0083(2) 0.0143(3) 0.00145(19) 0.0016(2) 0.0021(2)
O2 0.0139(3) 0.0104(2) 0.0115(3) 0.00221(19) 0.0012(2) 0.0030(2)
O3 0.0151(3) 0.0141(2) 0.0140(3) 0.0052(2) -0.0009(2) -0.0014(2)
O4 0.0112(3) 0.0178(2) 0.0153(3) 0.00847(19) -0.0009(2) -0.0036(2)
C1 0.0076(3) 0.0094(3) 0.0129(3) 0.0044(2) 0.0021(2) -0.0009(3)
C2 0.0076(3) 0.0124(3) 0.0167(4) 0.0068(3) 0.0005(3) 0.0005(3)
C3 0.0101(3) 0.0082(3) 0.0140(4) 0.0037(2) 0.0005(3) 0.0020(3)
N1A1 0.0101(3) 0.0093(3) 0.0114(3) 0.0017(2) 0.0011(2) 0.0009(2)
C1A 0.0089(3) 0.0095(3) 0.0137(3) 0.0049(2) 0.0024(2) 0.0005(3)
N1A2 0.0095(3) 0.0097(3) 0.0139(3) 0.0034(2) 0.0013(2) 0.0017(2)
C2A 0.0107(3) 0.0116(3) 0.0137(3) 0.0055(2) 0.0004(3) 0.0005(3)
C3A 0.0108(3) 0.0109(3) 0.0172(4) 0.0057(3) 0.0014(3) 0.0016(3)
N1B1 0.0086(6) 0.0103(5) 0.0103(6) 0.0046(4) -0.0024(4) -0.0017(5)
C1B 0.0116(7) 0.0107(5) 0.0121(7) 0.0079(5) -0.0001(5) 0.0064(5)
N1B2 0.0142(6) 0.0092(5) 0.0091(6) 0.0045(4) -0.0023(5) -0.0011(5)
C2B 0.0072(6) 0.0103(6) 0.0143(7) 0.0064(5) -0.0018(5) 0.0017(5)
C3B 0.0088(6) 0.0074(5) 0.0129(7) 0.0031(5) 0.0030(5) 0.0005(5)
loop_
_atom_type_symbol
_atom_type_description
_atom_type_scat_dispersion_real
_atom_type_scat_dispersion_imag
_atom_type_scat_source
C C 0.0033 0.0016 'International Tables Vol C Tables 4.2.6.8 and 6.1.1.4'
H H 0.0000 0.0000 'International Tables Vol C Tables 4.2.6.8 and 6.1.1.4'
N N 0.0061 0.0033 'International Tables Vol C Tables 4.2.6.8 and 6.1.1.4'
O O 0.0106 0.0060 'International Tables Vol C Tables 4.2.6.8 and 6.1.1.4'
loop_
_geom_angle_atom_site_label_1
_geom_angle_atom_site_label_2
_geom_angle_atom_site_label_3
_geom_angle
_geom_angle_site_symmetry_1
_geom_angle_site_symmetry_3
_geom_angle_publ_flag
C3 O4 H4 111.45(7) . . ?
O1 C1 O2 121.87(9) . . ?
O1 C1 C2 117.35(7) . . ?
O2 C1 C2 120.78(7) . . ?
C1 C2 C3 113.24(7) . . ?
C1 C2 H21 110.3(9) . . ?
C3 C2 H21 110.2(9) . . ?
C1 C2 H22 110.8(8) . . ?
C3 C2 H22 105.8(9) . . ?
H21 C2 H22 106.2(10) . . ?
O3 C3 O4 123.99(10) . . ?
O3 C3 C2 120.79(8) . . ?
O4 C3 C2 115.20(8) . . ?
C1A N1A1 C3A 108.30(7) . . ?
C1A N1A1 H1A1 124.3(9) . . ?
C3A N1A1 H1A1 127.3(9) . . ?
N1A1 C1A N1A2 108.33(9) . . ?
N1A1 C1A H1A 124.6(7) . . ?
N1A2 C1A H1A 127.1(7) . . ?
C1A N1A2 C2A 109.67(7) . . ?
C1A N1A2 H1A2 125.8(12) . . ?
C2A N1A2 H1A2 124.5(12) . . ?
C3A C2A N1A2 105.63(9) . . ?
C3A C2A H2A 131.3(7) . . ?
N1A2 C2A H2A 123.1(7) . . ?
C2A C3A N1A1 108.07(8) . . ?
C2A C3A H3A 132.9(8) . . ?
N1A1 C3A H3A 119.0(7) . . ?
N1B2 N1B1 C2B 148.0(3) 2_567 2_567 ?
N1B2 N1B1 C1B 125.2(3) 2_567 . ?
C2B N1B1 C1B 23.43(16) 2_567 . ?
N1B2 N1B1 C3B 17.4(2) 2_567 . ?
C2B N1B1 C3B 131.7(2) 2_567 . ?
C1B N1B1 C3B 108.41(16) . . ?
N1B2 N1B1 C1B 38.7(2) 2_567 2_567 ?
C2B N1B1 C1B 109.9(2) 2_567 2_567 ?
C1B N1B1 C1B 86.65(12) . 2_567 ?
C3B N1B1 C1B 21.79(10) . 2_567 ?
N1B2 N1B1 C3B 111.7(3) 2_567 2_567 ?
C2B N1B1 C3B 36.75(16) 2_567 2_567 ?
C1B N1B1 C3B 13.47(9) . 2_567 ?
C3B N1B1 C3B 94.98(13) . 2_567 ?
C1B N1B1 C3B 73.21(10) 2_567 2_567 ?
N1B2 N1B1 H1B1 107.7(16) 2_567 . ?
C2B N1B1 H1B1 103.6(16) 2_567 . ?
C1B N1B1 H1B1 127.0(16) . . ?
C3B N1B1 H1B1 124.6(16) . . ?
C1B N1B1 H1B1 146.4(16) 2_567 . ?
C3B N1B1 H1B1 140.4(16) 2_567 . ?
C2B C1B C3B 168.9(4) 2_567 2_567 ?
C2B C1B N1B2 140.3(2) 2_567 . ?
C3B C1B N1B2 30.46(16) 2_567 . ?
C2B C1B N1B1 30.88(17) 2_567 . ?
C3B C1B N1B1 139.8(2) 2_567 . ?
N1B2 C1B N1B1 109.62(14) . . ?
C2B C1B N1B1 124.0(2) 2_567 2_567 ?
C3B C1B N1B1 46.56(17) 2_567 2_567 ?
N1B2 C1B N1B1 16.34(9) . 2_567 ?
N1B1 C1B N1B1 93.35(12) . 2_567 ?
C2B C1B N1B2 46.84(18) 2_567 2_567 ?
C3B C1B N1B2 123.7(2) 2_567 2_567 ?
N1B2 C1B N1B2 93.54(13) . 2_567 ?
N1B1 C1B N1B2 16.15(8) . 2_567 ?
N1B1 C1B N1B2 77.23(10) 2_567 2_567 ?
C2B C1B H1B 95.9(17) 2_567 . ?
C3B C1B H1B 93.4(17) 2_567 . ?
N1B2 C1B H1B 123.7(17) . . ?
N1B1 C1B H1B 126.7(17) . . ?
N1B1 C1B H1B 139.9(16) 2_567 . ?
N1B2 C1B H1B 142.8(17) 2_567 . ?
N1B1 N1B2 C3B 149.9(4) 2_567 2_567 ?
N1B1 N1B2 C1B 125.0(3) 2_567 . ?
C3B N1B2 C1B 25.81(16) 2_567 . ?
N1B1 N1B2 C2B 18.8(2) 2_567 . ?
C3B N1B2 C2B 132.1(2) 2_567 . ?
C1B N1B2 C2B 106.58(16) . . ?
N1B1 N1B2 C1B 38.7(2) 2_567 2_567 ?
C3B N1B2 C1B 112.0(2) 2_567 2_567 ?
C1B N1B2 C1B 86.46(13) . 2_567 ?
C2B N1B2 C1B 20.14(10) . 2_567 ?
N1B1 N1B2 C2B 112.1(3) 2_567 2_567 ?
C3B N1B2 C2B 38.53(17) 2_567 2_567 ?
C1B N1B2 C2B 12.89(9) . 2_567 ?
C2B N1B2 C2B 93.72(13) . 2_567 ?
C1B N1B2 C2B 73.59(10) 2_567 2_567 ?
N1B1 N1B2 H1B2 106.2(12) 2_567 . ?
C3B N1B2 H1B2 102.7(12) 2_567 . ?
C1B N1B2 H1B2 128.5(12) . . ?
C2B N1B2 H1B2 124.9(12) . . ?
C1B N1B2 H1B2 144.9(12) 2_567 . ?
C2B N1B2 H1B2 141.2(12) 2_567 . ?
C1B C2B N1B1 125.7(3) 2_567 2_567 ?
C1B C2B C3B 5.72(19) 2_567 . ?
N1B1 C2B C3B 121.1(2) 2_567 . ?
C1B C2B N1B2 113.0(2) 2_567 . ?
N1B1 C2B N1B2 13.16(14) 2_567 . ?
C3B C2B N1B2 108.23(15) . . ?
C1B C2B N1B2 26.80(17) 2_567 2_567 ?
N1B1 C2B N1B2 99.10(18) 2_567 2_567 ?
C3B C2B N1B2 22.00(8) . 2_567 ?
N1B2 C2B N1B2 86.28(13) . 2_567 ?
C1B C2B C3B 95.8(2) 2_567 2_567 ?
N1B1 C2B C3B 30.09(15) 2_567 2_567 ?
C3B C2B C3B 91.05(12) . 2_567 ?
N1B2 C2B C3B 17.24(10) . 2_567 ?
N1B2 C2B C3B 69.07(9) 2_567 2_567 ?
C1B C2B H2B 133.3(14) 2_567 . ?
N1B1 C2B H2B 101.0(14) 2_567 . ?
C3B C2B H2B 137.7(13) . . ?
N1B2 C2B H2B 113.6(14) . . ?
N1B2 C2B H2B 159.5(13) 2_567 . ?
C3B C2B H2B 130.8(14) 2_567 . ?
C1B C3B N1B2 123.7(3) 2_567 2_567 ?
C1B C3B C2B 5.41(18) 2_567 . ?
N1B2 C3B C2B 119.5(2) 2_567 . ?
C1B C3B N1B1 111.7(2) 2_567 . ?
N1B2 C3B N1B1 12.74(16) 2_567 . ?
C2B C3B N1B1 107.15(15) . . ?
C1B C3B N1B1 26.73(16) 2_567 2_567 ?
N1B2 C3B N1B1 97.31(19) 2_567 2_567 ?
C2B C3B N1B1 22.15(8) . 2_567 ?
N1B1 C3B N1B1 85.02(13) . 2_567 ?
C1B C3B C2B 93.4(2) 2_567 2_567 ?
N1B2 C3B C2B 30.62(16) 2_567 2_567 ?
C2B C3B C2B 88.95(12) . 2_567 ?
N1B1 C3B C2B 18.22(10) . 2_567 ?
N1B1 C3B C2B 66.80(9) 2_567 2_567 ?
C1B C3B H3B 127.1(15) 2_567 . ?
N1B2 C3B H3B 108.8(15) 2_567 . ?
C2B C3B H3B 131.7(14) . . ?
N1B1 C3B H3B 121.2(14) . . ?
N1B1 C3B H3B 153.8(14) 2_567 . ?
C2B C3B H3B 139.4(14) 2_567 . ?
loop_
_geom_bond_atom_site_label_1
_geom_bond_atom_site_label_2
_geom_bond_distance
_geom_bond_site_symmetry_2
_geom_bond_publ_flag
O1 C1 1.2478(10) . ?
O2 C1 1.2541(10) . ?
O3 C3 1.2307(13) . ?
O4 C3 1.2997(10) . ?
O4 H4 1.2482(8) . ?
C1 C2 1.5229(14) . ?
C2 C3 1.5462(15) . ?
C2 H21 0.977(11) . ?
C2 H22 0.974(12) . ?
N1A1 C1A 1.3125(11) . ?
N1A1 C3A 1.3800(14) . ?
N1A1 H1A1 0.965(12) . ?
C1A N1A2 1.3278(12) . ?
C1A H1A 0.944(14) . ?
N1A2 C2A 1.3739(13) . ?
N1A2 H1A2 0.913(16) . ?
C2A C3A 1.3423(12) . ?
C2A H2A 0.973(12) . ?
C3A H3A 0.955(13) . ?
N1B1 N1B2 0.5940(18) 2_567 ?
N1B1 C2B 0.843(2) 2_567 ?
N1B1 C1B 1.334(3) . ?
N1B1 C3B 1.352(2) . ?
N1B1 C1B 1.730(2) 2_567 ?
N1B1 C3B 1.915(3) 2_567 ?
N1B1 H1B1 0.95(4) . ?
C1B C2B 0.653(3) 2_567 ?
C1B C3B 0.691(3) 2_567 ?
C1B N1B2 1.320(2) . ?
C1B N1B1 1.730(2) 2_567 ?
C1B N1B2 1.745(2) 2_567 ?
C1B H1B 0.96(2) . ?
N1B2 N1B1 0.5940(18) 2_567 ?
N1B2 C3B 0.805(2) 2_567 ?
N1B2 C2B 1.383(2) . ?
N1B2 C1B 1.745(2) 2_567 ?
N1B2 C2B 1.870(3) 2_567 ?
N1B2 H1B2 0.98(2) . ?
C2B C1B 0.653(3) 2_567 ?
C2B N1B1 0.843(2) 2_567 ?
C2B C3B 1.338(3) . ?
C2B N1B2 1.870(3) 2_567 ?
C2B C3B 2.013(2) 2_567 ?
C2B H2B 0.97(3) . ?
C3B C1B 0.691(3) 2_567 ?
C3B N1B2 0.805(2) 2_567 ?
C3B N1B1 1.915(3) 2_567 ?
C3B C2B 2.013(2) 2_567 ?
C3B H3B 1.00(2) . ?
loop_
_geom_hbond_atom_site_label_D
_geom_hbond_atom_site_label_H
_geom_hbond_atom_site_label_A
_geom_hbond_distance_DH
_geom_hbond_distance_HA
_geom_hbond_distance_DA
_geom_hbond_angle_DHA
_geom_hbond_site_symmetry_A
O4 H4 O3 1.2482(8) 2.4492(9) 3.1813(12) 114.79(4) 2_556
C2 H21 O1 0.977(11) 2.782(13) 3.6741(14) 152.2(12) 2_666
C2 H22 O3 0.974(12) 2.437(13) 3.3036(13) 148.1(11) 2_656
N1A1 H1A1 O1 0.965(12) 1.702(12) 2.6658(11) 176.4(14) .
C1A H1A O4 0.944(14) 2.393(14) 3.3275(14) 170.6(10) 2_566
N1A2 H1A2 O2 0.913(16) 1.707(16) 2.6165(10) 173.7(16) 1_566
C2A H2A O3 0.973(12) 2.201(11) 3.1606(14) 168.9(11) 2_667
C3A H3A O3 0.955(13) 2.483(12) 3.2672(12) 139.3(9) .
C3B H3B O1 1.00(2) 2.52(3) 3.112(2) 117.1(16) 1_556
C2B H2B O2 0.97(3) 2.42(3) 3.066(2) 123.7(15) 2_566
C2B H2B O4 0.97(3) 3.052(19) 3.5045(17) 110.0(16) 1_566
N1B2 H1B2 O1 0.98(2) 1.85(2) 2.833(2) 175(2) 2_566
N1B2 H1B2 O2 0.98(2) 2.37(2) 2.9682(19) 118.8(14) 2_566
N1B1 H1B1 O1 0.95(4) 2.48(3) 3.0546(19) 119(2) 1_556
N1B1 H1B1 O2 0.95(4) 1.80(4) 2.744(2) 176(3) 1_556
C1B H1B O3 0.96(2) 2.83(2) 3.471(2) 124.9(17) .
C1B H1B O4 0.96(2) 2.52(2) 3.4392(17) 160(2) 2_556
