#------------------------------------------------------------------------------
#$Date: 2020-08-14 07:36:26 +0300 (Fri, 14 Aug 2020) $
#$Revision: 255312 $
#$URL: file:///home/coder/svn-repositories/cod/cif/2/10/86/2108651.cif $
#------------------------------------------------------------------------------
#
# This file is available in the Crystallography Open Database (COD),
# http://www.crystallography.net/. The original data for this entry
# were provided by IUCr Journals, http://journals.iucr.org/.
#
# The file may be used within the scientific community so long as
# proper attribution is given to the journal article from which the
# data were obtained.
#
data_2108651
loop_
_publ_author_name
'Fortes, A. D.'
'Ponsonby, J.'
'Kirichek, O.'
'Garc\'ia-Sakai, V.'
_publ_section_title
;
 On the crystal structures and phase transitions of hydrates in the binary
 dimethyl sulfoxide--water system
;
_journal_issue                   5
_journal_name_full               'Acta Crystallographica Section B'
_journal_page_first
;
;
_journal_paper_doi               10.1107/S2052520620008999
_journal_volume                  76
_journal_year                    2020
_chemical_formula_moiety         'C2 D6 O S, 3(D2 O)'
_chemical_formula_sum            'C2 D12 O4 S'
_chemical_formula_weight         144.25
_chemical_melting_point          211
_chemical_name_common            'dimethyl sulfoxide trihydrate'
_chemical_name_systematic        'hexadeutero-dimethyl sulfoxide trideuterate'
_space_group_crystal_system      monoclinic
_space_group_IT_number           14
_space_group_name_Hall           '-P 2ybc'
_space_group_name_H-M_alt        'P 1 21/c 1'
_audit_creation_date             2020-04-28T15:03
_audit_creation_method           'from EXP file using GSAS2CIF'
_audit_update_record
' 2020-04-28T15:03  Initial CIF as created by GSAS2CIF'
_cell_angle_alpha                90.0
_cell_angle_beta                 101.50300(20)
_cell_angle_gamma                90.0
_cell_formula_units_Z            4
_cell_length_a                   10.266194(30)
_cell_length_b                   7.011130(21)
_cell_length_c                   10.068968(29)
_cell_measurement_temperature    195
_cell_volume                     710.183(4)
_computing_data_collection       'HRPD DAE3, IBEX'
_computing_data_reduction
'Mantid (Arnold <i>et al</i>., 2014: Mantid, 2013)'
_computing_molecular_graphics    'Diamond (Putz & Brandenburg, 2006)'
_computing_publication_material  'publCIF (Westrip, 2010)'
_computing_structure_refinement  GSAS
_computing_structure_solution    'FOX Free Objects for Crystallography'
_diffrn_ambient_pressure         10
_diffrn_ambient_temperature      195
_diffrn_measurement_device_type
'HRPD, High Resolution Neutron Powder Diffractometer'
_diffrn_radiation_probe          neutron
_diffrn_radiation_type           'white beam'
_diffrn_radiation_wavelength     0.5-8.2
_diffrn_source                   'spallation source'
_diffrn_source_type              'ISIS TS1 beamline HRPD'
_exptl_absorpt_correction_T_max  0.83333
_exptl_absorpt_correction_T_min  0.51486
_exptl_absorpt_process_details
;   GSAS Absorption/surface roughness correction: function number 1
 Linear absorption correction
Term =     0.12743    
Correction is refined.
;
_exptl_crystal_colour            Colourless
_exptl_crystal_density_diffrn    1.3491
_exptl_crystal_density_method    'not measured'
_exptl_crystal_recrystallization_method
'Devitrification of LN2-quenched amorphous solid'
_pd_block_id                     2020-04-28T15:03|DMSO_TRIHYDRATE|Fortes|HRPD
_pd_calc_method                  'Rietveld Refinement'
_pd_char_colour                  colourless
_pd_char_particle_morphology     'fine powder'
_pd_instr_dist_spec/detc         965
_pd_instr_dist_src/spec          95000
_pd_instr_location
;
High Resolution Powder Diffractometer, ISIS neutron spallation source,
 Rutherford Appleton Laboratory, Oxfordshire, U.K.
;
_pd_meas_2theta_fixed            168.33
_pd_meas_number_of_points        4610
_pd_meas_scan_method             tof
_pd_phase_name                   'DMSO-d6 trideuterate'
_pd_prep_pressure                100
_pd_prep_temperature             80
_pd_proc_info_data_reduction
'Incident-beam normalisation and instrumental efficiency correction'
_pd_proc_info_datetime           2020-04-28T15:03:10
_pd_proc_info_excluded_regions
;
Between 39.884 and 40.088 ms to remove a small prompt-pulse artefact. Between
 102.815 and 103.309 ms to remove a small isolated vanadium peak due to the CCR
 tail.
;
_pd_proc_ls_background_function
;   GSAS Background function number 1 with 12 terms.
 Shifted Chebyshev function of 1st kind
      1:    4.23683     2:  -9.935880E-02 3:  -5.649680E-02 4:  -0.135816    
      5:  -0.203796     6:   7.670750E-02 7:  -5.766730E-02 8:   3.895410E-02
      9:  -5.290950E-0210:   2.903560E-0211:  -1.609620E-0212:  -2.338790E-02
;
_pd_proc_ls_peak_cutoff          0.00050
_pd_proc_ls_profile_function
;
 TOF Profile function number 3 with  21 terms
 Profile coefficients for exponential pseudovoigt
  convolution Von Dreele, 1990 (unpublished)
 (\a) = 0.2466, (\b~0~) = 0.026586, (\b~1~) = 0.007428,
 (\s~0~) = 0, (\s~1~) = 270.3, (\s~2~) = 3.8,
 (\g~0~) = 0, (\g~1~) = 0, (\g~2~) = 0,
 (\g~2s~) = 0, (\g~1e~) = 0, (\g~2e~) = 0,
 (\e~i~) = 0, (\e~a~) = 0, (\e~A~) = 0,
 (\g~11~) = 0.162, (\g~22~) = 0.260, (\g~33~) = 0.139,
 (\g~12~) = -0.075, (\g~13~) = -0.015, (\g~23~) = 0.012.
 Peak tails are ignored  where the intensity is below 0.0005 times the peak
   Aniso. broadening axis   0.0   0.0   1.0
;
_pd_proc_ls_prof_R_factor        0.0140
_pd_proc_ls_prof_wR_expected     0.0102
_pd_proc_ls_prof_wR_factor       0.0137
_pd_proc_number_of_points        4610
_pd_spec_mounting
;
Aluminium-framed slab can with vanadium windows, shielded with Gd foil
;
_pd_spec_mount_mode              reflection
_pd_spec_size_axial              18
_pd_spec_size_equat              23
_pd_spec_size_thick              15
_refine_ls_goodness_of_fit_all   1.39
_refine_ls_matrix_type           full
_refine_ls_number_parameters     221
_refine_ls_number_restraints     0
_refine_ls_R_Fsqd_factor         0.08240
_refine_ls_shift/su_max          0.02
_refine_ls_shift/su_mean         0.00
_reflns_d_resolution_high        0.722
_reflns_d_resolution_low         2.547
_reflns_limit_h_max              14
_reflns_limit_h_min              0
_reflns_limit_k_max              9
_reflns_limit_k_min              0
_reflns_limit_l_max              13
_reflns_limit_l_min              -14
_reflns_number_total             1903
_cod_data_source_file            bm5129sup1.cif
_cod_data_source_block           DMSO_TRIHYDRATE
_cod_depositor_comments
;
The following automatic conversions were performed:

data item '_geom_angle_publ_flag' value 'N' was changed to 'n' in
accordance with the
/home/data/users/saulius/crontab/automatic-downloads/rss-feeds/IUCr/lib/dictionaries/cif_core.dic
dictionary named 'cif_core.dic' version 2.4.2 last updated on
2011-04-26 (18 times).

data item '_geom_bond_publ_flag' value 'N' was changed to 'n' in
accordance with the
/home/data/users/saulius/crontab/automatic-downloads/rss-feeds/IUCr/lib/dictionaries/cif_core.dic
dictionary named 'cif_core.dic' version 2.4.2 last updated on
2011-04-26 (72 times).

Automatic conversion script
Id: cif_fix_values 7556 2019-12-06 15:28:31Z antanas 
;
_cod_original_cell_volume        710.1830(30)
_cod_original_sg_symbol_H-M      'P 21/c'
_cod_database_code               2108651
loop_
_symmetry_equiv_pos_site_id
_symmetry_equiv_pos_as_xyz
1 +x,+y,+z
2 -x,+y+1/2,-z+1/2
-1 -x,-y,-z
-2 +x,-y+1/2,+z+1/2
loop_
_atom_site_aniso_label
_atom_site_aniso_U_11
_atom_site_aniso_U_12
_atom_site_aniso_U_13
_atom_site_aniso_U_22
_atom_site_aniso_U_23
_atom_site_aniso_U_33
O 0.0389(22) 0.0001(14) -0.0116(15) 0.0342(20) 0.0017(13) 0.0398(18)
S 0.0271(33) -0.0007(26) 0.0112(24) 0.0388(32) -0.0014(25) 0.0289(28)
C1 0.0440(24) -0.0093(16) 0.0085(16) 0.0365(21) -0.0028(16) 0.0448(20)
C2 0.0439(23) -0.0021(16) -0.0082(16) 0.0428(20) 0.0108(17) 0.0397(19)
D1 0.0719(28) -0.0071(20) 0.0222(20) 0.0487(21) 0.0095(22) 0.0879(25)
D2 0.0481(23) -0.0028(18) 0.0328(20) 0.0744(25) 0.0034(17) 0.0823(27)
D3 0.0827(33) -0.0351(24) 0.0048(20) 0.0892(29) -0.0176(22) 0.0577(24)
D4 0.0814(32) -0.0163(24) -0.0072(20) 0.0559(23) 0.0309(20) 0.0929(32)
D5 0.0657(30) 0.0402(22) 0.0043(21) 0.0768(28) 0.0186(20) 0.0797(25)
D6 0.1040(31) 0.0027(24) -0.0138(19) 0.0835(27) 0.0086(20) 0.0393(20)
Ow1 0.0566(26) -0.0063(22) -0.0061(17) 0.0521(28) 0.0052(21) 0.0279(21)
Dw1a 0.0426(22) -0.0013(16) 0.0098(18) 0.0538(22) 0.0020(17) 0.0713(23)
Dw1b 0.0467(24) -0.0040(19) 0.0070(15) 0.0670(28) 0.0050(18) 0.0367(20)
Ow2 0.0465(29) -0.0020(20) 0.0117(19) 0.0538(26) -0.0096(18) 0.0336(20)
Dw2a 0.0345(22) -0.0053(15) 0.0016(14) 0.0501(22) -0.0040(14) 0.0483(20)
Dw2b 0.0487(24) -0.0005(16) -0.0110(17) 0.0509(25) 0.0031(18) 0.0672(23)
Ow3 0.0333(25) 0.0099(18) -0.0030(18) 0.0385(23) -0.0103(18) 0.0547(24)
Dw3a 0.0414(23) -0.0060(16) 0.0022(15) 0.0453(21) -0.0013(15) 0.0455(19)
Dw3b 0.0460(22) -0.0145(17) -0.0025(15) 0.0516(22) -0.0004(15) 0.0398(18)
loop_
_atom_site_type_symbol
_atom_site_label
_atom_site_fract_x
_atom_site_fract_y
_atom_site_fract_z
_atom_site_occupancy
_atom_site_thermal_displace_type
_atom_site_U_iso_or_equiv
_atom_site_symmetry_multiplicity
O O 0.06469(33) 0.7153(4) 0.38671(29) 1.0 Uani 0.04034 4
S S 0.1129(6) 0.7978(8) 0.5271(5) 1.0 Uani 0.03084 4
C C1 0.2420(4) 0.9571(5) 0.51121(33) 1.0 Uani 0.04183 4
C C2 0.2134(4) 0.6137(5) 0.61975(33) 1.0 Uani 0.0444 4
D D1 0.1972(5) 1.0762(5) 0.4522(4) 1.0 Uani 0.06863 4
D D2 0.3129(4) 0.8866(6) 0.4602(4) 1.0 Uani 0.06554 4
D D3 0.2894(4) 1.0067(5) 0.61124(34) 1.0 Uani 0.0778 4
D D4 0.1474(5) 0.4990(6) 0.6315(4) 1.0 Uani 0.08012 4
D D5 0.2857(4) 0.5680(5) 0.5615(4) 1.0 Uani 0.07546 4
D D6 0.2615(4) 0.6692(6) 0.71781(33) 1.0 Uani 0.07949 4
O Ow1 0.4862(4) 0.6946(7) 0.3657(4) 1.0 Uani 0.04752 4
D Dw1a 0.52516(33) 0.7125(5) 0.4615(4) 1.0 Uani 0.05614 4
D Dw1b 0.45893(33) 0.5596(6) 0.36143(29) 1.0 Uani 0.0503 4
O Ow2 0.4069(5) 0.3146(6) 0.3522(4) 1.0 Uani 0.04413 4
D Dw2a 0.3105(4) 0.3176(4) 0.32599(29) 1.0 Uani 0.04522 4
D Dw2b 0.4397(4) 0.2630(5) 0.2735(4) 1.0 Uani 0.05872 4
O Ow3 0.1406(4) 0.3631(6) 0.2994(4) 1.0 Uani 0.04382 4
D Dw3a 0.11380(29) 0.4872(5) 0.32959(27) 1.0 Uani 0.04499 4
D Dw3b 0.06987(33) 0.3159(5) 0.23257(29) 1.0 Uani 0.04734 4
loop_
_atom_type_symbol
_atom_type_number_in_cell
_atom_type_scat_length_neutron
_atom_type_scat_source
O 16.0 0.5803 International_Tables_Vol_C
S 4.0 0.2847 International_Tables_Vol_C
C 8.0 0.6646 International_Tables_Vol_C
D 48.0 0.6671 International_Tables_Vol_C
loop_
_geom_angle_atom_site_label_1
_geom_angle_atom_site_label_2
_geom_angle_atom_site_label_3
_geom_angle
_geom_angle_site_symmetry_1
_geom_angle_site_symmetry_2
_geom_angle_site_symmetry_3
_geom_angle_publ_flag
O S C1 105.56(31) 1_555 . 1_555 n
O S C2 104.91(34) 1_555 . 1_555 n
C1 S C2 97.91(33) 1_555 . 1_555 n
S C1 D1 107.2(4) 1_555 . 1_555 n
S C1 D2 109.9(4) 1_555 . 1_555 n
S C1 D3 108.93(34) 1_555 . 1_555 n
D1 C1 D2 110.2(4) 1_555 . 1_555 n
D1 C1 D3 109.1(4) 1_555 . 1_555 n
D2 C1 D3 111.5(5) 1_555 . 1_555 n
S C2 D4 106.6(4) 1_555 . 1_555 n
S C2 D5 108.46(32) 1_555 . 1_555 n
S C2 D6 109.0(4) 1_555 . 1_555 n
D4 C2 D5 110.8(5) 1_555 . 1_555 n
D4 C2 D6 110.6(4) 1_555 . 1_555 n
D5 C2 D6 111.3(5) 1_555 . 1_555 n
Dw1a Ow1 Dw1b 102.9(5) 1_555 . 1_555 n
Dw2a Ow2 Dw2b 106.3(4) 1_555 . 1_555 n
Dw3a Ow3 Dw3b 108.0(5) 1_555 . 1_555 n
loop_
_geom_bond_atom_site_label_1
_geom_bond_atom_site_label_2
_geom_bond_distance
_geom_bond_site_symmetry_1
_geom_bond_site_symmetry_2
_geom_bond_publ_flag
O S 1.516(5) . 1_555 n
O Dw3a 1.805(5) . 1_555 n
O Dw3b 1.785(5) . 2_555 n
S O 1.516(5) . 1_555 n
S C1 1.765(6) . 1_555 n
S C2 1.794(6) . 1_555 n
S D1 2.321(7) . 1_555 n
S D2 2.369(7) . 1_555 n
S D3 2.353(6) . 1_555 n
S D4 2.339(7) . 1_555 n
S D5 2.370(7) . 1_555 n
S D6 2.379(6) . 1_555 n
C1 S 1.765(6) . 1_555 n
C1 D1 1.074(4) . 1_555 n
C1 D2 1.089(4) . 1_555 n
C1 D3 1.0846(35) . 1_555 n
C2 S 1.794(6) . 1_555 n
C2 D4 1.073(4) . 1_555 n
C2 D5 1.081(4) . 1_555 n
C2 D6 1.084(4) . 1_555 n
D1 S 2.321(7) . 1_555 n
D1 C1 1.074(4) . 1_555 n
D1 D2 1.773(5) . 1_555 n
D1 D3 1.758(6) . 1_555 n
D2 S 2.369(7) . 1_555 n
D2 C1 1.089(4) . 1_555 n
D2 D1 1.773(5) . 1_555 n
D2 D3 1.797(5) . 1_555 n
D3 S 2.353(6) . 1_555 n
D3 C1 1.0846(35) . 1_555 n
D3 D1 1.758(6) . 1_555 n
D3 D2 1.797(5) . 1_555 n
D4 S 2.339(7) . 1_555 n
D4 C2 1.073(4) . 1_555 n
D4 D5 1.773(6) . 1_555 n
D4 D6 1.774(6) . 1_555 n
D5 S 2.370(7) . 1_555 n
D5 C2 1.081(4) . 1_555 n
D5 D4 1.773(6) . 1_555 n
D5 D6 1.788(5) . 1_555 n
D6 S 2.379(6) . 1_555 n
D6 C2 1.084(4) . 1_555 n
D6 D4 1.774(6) . 1_555 n
D6 D5 1.788(5) . 1_555 n
Ow1 Dw1a 0.976(4) . 1_555 n
Ow1 Dw1b 0.986(4) . 1_555 n
Ow1 Dw2b 1.788(7) . 2_655 n
Dw1a Ow1 0.976(4) . 1_555 n
Dw1a Dw1b 1.534(5) . 1_555 n
Dw1a Ow2 1.876(6) . -1_666 n
Dw1b Ow1 0.986(4) . 1_555 n
Dw1b Dw1a 1.534(5) . 1_555 n
Dw1b Ow2 1.795(6) . 1_555 n
Ow2 Dw1a 1.876(6) . -1_666 n
Ow2 Dw1b 1.795(6) . 1_555 n
Ow2 Dw2a 0.972(4) . 1_555 n
Ow2 Dw2b 0.990(4) . 1_555 n
Dw2a Ow2 0.972(4) . 1_555 n
Dw2a Dw2b 1.570(5) . 1_555 n
Dw2a Ow3 1.741(6) . 1_555 n
Dw2b Ow1 1.788(7) . 2_645 n
Dw2b Ow2 0.990(4) . 1_555 n
Dw2b Dw2a 1.570(5) . 1_555 n
Ow3 Dw2a 1.741(6) . 1_555 n
Ow3 Dw3a 0.979(4) . 1_555 n
Ow3 Dw3b 0.946(4) . 1_555 n
Dw3a O 1.805(5) . 1_555 n
Dw3a Ow3 0.979(4) . 1_555 n
Dw3a Dw3b 1.557(4) . 1_555 n
Dw3b O 1.785(5) . 2_545 n
Dw3b Ow3 0.946(4) . 1_555 n
Dw3b Dw3a 1.557(4) . 1_555 n
loop_
_geom_hbond_atom_site_label_D
_geom_hbond_atom_site_label_H
_geom_hbond_atom_site_label_A
_geom_hbond_distance_DH
_geom_hbond_distance_HA
_geom_hbond_distance_DA
_geom_hbond_angle_DHA
_geom_hbond_site_symmetry_H
_geom_hbond_site_symmetry_A
_geom_hbond_publ_flag
Ow1 Dw1a Ow2 0.976(5) 1.876(5) 2.834(5) 166.6(4) . -1_666 y
Ow1 Dw1b Ow2 0.986(7) 1.796(7) 2.781(7) 179.2(5) . . y
Ow2 Dw2a Ow3 0.972(6) 1.741(6) 2.701(7) 168.6(5) . . y
Ow2 Dw2b Ow1 0.989(6) 1.788(6) 2.772(7) 172.6(5) . 2_645 y
Ow3 Dw3a O1 0.979(6) 1.805(5) 2.784(6) 179.5(4) . . y
Ow3 Dw3b O1 0.945(5) 1.786(5) 2.730(5) 176.5(4) . 2_545 y
C1 D1 Ow3 1.074(5) 2.529(6) 3.585(6) 167.5(4) . 1_565 y
C1 D2 Ow1 1.089(6) 2.561(7) 3.645(6) 173.0(4) . . y
C2 D4 O1 1.073(6) 2.622(6) 3.661(5) 162.9(4) . -1_566 y
loop_
_pd_meas_time_of_flight
_pd_proc_d_spacing
_pd_meas_intensity_total
_pd_proc_ls_weight
_pd_proc_intensity_bkg_calc
_pd_calc_intensity_total
31370.1 . 3.75(16) . . .
31379.6 . 3.73(16) . . .
31389.0 . 3.33(15) . . .
31398.4 . 3.34(14) . . .
31407.8 . 3.38(15) . . .
31417.2 . 3.46(14) . . .
31426.7 . 3.51(14) . . .
31436.1 . 3.35(14) . . .
31445.5 . 3.90(16) . . .
31454.9 . 3.62(14) . . .
31464.4 . 3.45(14) . . .
31473.8 . 3.43(14) . . .
31483.3 . 3.31(13) . . .
31492.7 . 3.38(13) . . .
31502.2 . 3.45(14) . . .
31511.6 . 3.82(15) . . .
31521.1 . 3.53(14) . . .
31530.5 . 3.43(13) . . .
31540.0 . 3.55(13) . . .
31549.4 . 3.49(13) . . .
31558.9 . 3.58(13) . . .
31568.4 . 3.73(14) . . .
31577.8 . 3.45(13) . . .
31587.3 . 3.52(13) . . .
31596.8 . 3.69(13) . . .
31606.3 . 3.39(12) . . .
31615.8 . 3.46(12) . . .
31625.2 . 3.64(13) . . .
31634.7 . 3.74(13) . . .
31644.2 . 3.51(12) . . .
31653.7 . 3.67(13) . . .
31663.2 . 3.40(12) . . .
31672.7 . 3.60(12) . . .
31682.2 . 3.83(13) . . .
31691.7 . 3.70(13) . . .
31701.2 . 3.57(12) . . .
31710.7 . 3.65(12) . . .
31720.2 . 3.60(12) . . .
31729.8 . 3.62(12) . . .
31739.3 . 3.40(11) . . .
31748.8 . 3.37(11) . . .
31758.3 . 3.66(12) . . .
31767.9 . 3.72(12) . . .
31777.4 . 3.74(12) . . .
31786.9 . 3.66(11) . . .
31796.5 . 3.69(12) . . .
31806.0 . 3.82(12) . . .
31815.5 . 3.81(12) . . .
31825.1 . 3.59(11) . . .
31834.6 . 3.55(11) . . .
31844.2 . 3.47(11) . . .
31853.7 . 3.76(11) . . .
31863.3 . 4.01(12) . . .
31872.8 . 3.77(11) . . .
31882.4 . 3.65(11) . . .
31892.0 . 3.72(11) . . .
31901.5 . 3.53(11) . . .
31911.1 . 3.64(11) . . .
31920.7 . 3.58(10) . . .
31930.3 . 3.54(10) . . .
31939.8 . 3.56(10) . . .
31949.4 . 3.58(10) . . .
31959.0 . 3.73(11) . . .
31968.6 . 3.74(11) . . .
31978.2 . 3.58(10) . . .
31987.8 . 3.77(11) . . .
31997.4 . 3.67(10) . . .
32007.0 . 3.72(10) . . .
32016.6 . 3.73(10) . . .
32026.2 . 3.56(10) . . .
32035.8 . 3.48(10) . . .
32045.4 . 3.65(10) . . .
32055.0 . 3.61(10) . . .
32064.6 . 3.60(10) . . .
32074.2 . 3.68(10) . . .
32083.9 . 3.73(10) . . .
32093.5 . 3.53(10) . . .
32103.1 . 3.59(10) . . .
32112.8 . 3.61(10) . . .
32122.4 . 3.66(10) . . .
32132.0 . 3.51(9) . . .
32141.7 . 3.48(9) . . .
32151.3 . 3.66(10) . . .
32160.9 . 3.57(9) . . .
32170.6 . 3.69(10) . . .
32180.3 . 3.68(9) . . .
32189.9 . 3.58(9) . . .
32199.6 . 3.72(10) . . .
32209.2 . 3.57(9) . . .
32218.9 . 3.72(9) . . .
32228.5 . 3.77(9) . . .
32238.2 . 3.70(9) . . .
32247.9 . 3.57(9) . . .
32257.6 . 3.66(9) . . .
32267.2 . 3.72(9) . . .
32276.9 . 3.59(9) . . .
32286.6 . 3.70(9) . . .
32296.3 . 3.81(9) . . .
32306.0 . 3.45(9) . . .
32315.7 . 3.67(9) . . .
32325.4 . 3.60(9) . . .
32335.1 . 3.60(9) . . .
32344.8 . 3.60(9) . . .
32354.5 . 3.61(9) . . .
32364.2 . 3.64(9) . . .
32373.9 . 3.78(9) . . .
32383.6 . 3.79(9) . . .
32393.3 . 3.55(9) . . .
32403.0 . 3.62(8) . . .
32412.7 . 3.57(8) . . .
32422.5 . 3.68(9) . . .
32432.2 . 3.76(9) . . .
32441.9 . 3.64(9) . . .
32451.7 . 3.66(8) . . .
32461.4 . 3.67(8) . . .
32471.1 . 3.52(8) . . .
32480.9 . 3.61(8) . . .
32490.6 . 3.57(8) . . .
32500.4 . 3.60(8) . . .
32510.1 . 3.69(8) . . .
32519.9 . 3.75(8) . . .
32529.6 . 3.62(8) . . .
32539.4 . 3.72(8) . . .
32549.1 . 3.75(8) . . .
32558.9 . 3.63(8) . . .
32568.7 . 3.64(8) . . .
32578.4 . 3.65(8) . . .
32588.2 . 3.72(8) . . .
32598.0 . 3.60(8) . . .
32607.8 . 3.61(8) . . .
32617.6 . 3.54(8) . . .
32627.3 . 3.73(8) . . .
32637.1 . 3.69(8) . . .
32646.9 . 3.75(8) . . .
32656.7 . 3.73(8) . . .
32666.5 . 3.75(8) . . .
32676.3 . 3.77(8) . . .
32686.1 . 3.65(8) . . .
32695.9 . 3.81(8) . . .
32705.7 . 3.73(8) . . .
32715.5 . 3.71(8) . . .
32725.4 . 3.69(8) . . .
32735.2 . 3.57(8) . . .
32745.0 . 3.59(8) . . .
32754.8 . 3.68(8) . . .
32764.7 . 3.64(8) . . .
32774.5 . 3.70(8) . . .
32784.3 . 3.51(7) . . .
32794.1 . 3.61(8) . . .
32804.0 . 3.59(8) . . .
32813.8 . 3.58(7) . . .
32823.7 . 3.76(8) . . .
32833.5 . 3.63(8) . . .
32843.4 . 3.57(8) . . .
32853.2 . 3.53(7) . . .
32863.1 . 3.50(7) . . .
32872.9 . 3.69(7) . . .
32882.8 . 3.50(7) . . .
32892.7 . 3.67(7) . . .
32902.5 . 3.58(7) . . .
32912.4 . 3.56(7) . . .
32922.3 . 3.57(7) . . .
32932.1 . 3.63(7) . . .
32942.0 . 3.78(8) . . .
32951.9 . 3.72(7) . . .
32961.8 . 3.72(7) . . .
32971.7 . 3.72(7) . . .
32981.6 . 3.67(7) . . .
32991.5 . 3.67(7) . . .
33001.4 . 3.62(7) . . .
33011.3 . 3.74(7) . . .
33021.2 . 3.65(7) . . .
33031.1 . 3.78(7) . . .
33041.0 . 3.80(7) . . .
33050.9 . 3.85(7) . . .
33060.8 . 3.71(7) . . .
33070.7 . 3.74(7) . . .
33080.7 . 3.71(7) . . .
33090.6 . 3.70(7) . . .
33100.5 . 3.69(7) . . .
33110.4 . 3.69(7) . . .
33120.4 . 3.67(7) . . .
33130.3 . 3.78(7) . . .
33140.2 . 3.74(7) . . .
33150.2 . 3.87(7) . . .
33160.1 . 3.69(7) . . .
33170.1 . 3.69(7) . . .
33180.0 . 3.83(7) . . .
33190.0 . 3.76(7) . . .
33199.9 . 3.70(7) . . .
33209.9 . 3.67(7) . . .
33219.9 . 3.78(7) . . .
33229.8 . 3.73(7) . . .
33239.8 . 3.69(7) . . .
33249.8 . 3.73(7) . . .
33259.8 . 3.72(7) . . .
33269.7 . 3.71(7) . . .
33279.7 . 3.81(7) . . .
33289.7 . 3.78(7) . . .
33299.7 . 3.76(7) . . .
33309.7 . 3.70(7) . . .
33319.7 . 3.66(7) . . .
33329.7 . 3.76(7) . . .
33339.7 . 3.79(7) . . .
33349.7 . 3.75(7) . . .
33359.7 . 3.77(7) . . .
33369.7 . 3.76(7) . . .
33379.7 . 3.83(7) . . .
33389.7 . 3.78(7) . . .
33399.7 . 3.81(7) . . .
33409.7 . 3.90(7) . . .
33419.8 . 3.82(7) . . .
33429.8 . 3.80(7) . . .
33439.8 . 3.78(7) . . .
33449.8 . 3.76(7) . . .
33459.9 . 3.73(7) . . .
33469.9 . 3.80(7) . . .
33480.0 . 3.76(7) . . .
33490.0 . 3.76(7) . . .
33500.0 . 3.83(7) . . .
33510.1 . 3.82(7) . . .
33520.2 . 3.84(7) . . .
33530.2 . 3.88(7) . . .
33540.3 . 3.90(7) . . .
33550.3 . 3.76(7) . . .
33560.4 . 3.81(7) . . .
33570.5 . 3.81(7) . . .
33580.5 . 3.84(7) . . .
33590.6 . 3.83(7) . . .
33600.7 . 3.81(7) . . .
33610.8 . 3.97(7) . . .
33620.8 . 3.96(7) . . .
33630.9 . 3.87(7) . . .
33641.0 . 3.90(7) . . .
33651.1 . 3.84(7) . . .
33661.2 . 3.87(7) . . .
33671.3 . 3.82(7) . . .
33681.4 . 3.82(7) . . .
33691.5 . 3.90(7) . . .
33701.6 . 3.83(7) . . .
33711.7 . 3.88(7) . . .
33721.8 . 3.83(6) . . .
33732.0 . 3.90(6) . . .
33742.1 . 4.06(7) . . .
33752.2 . 3.97(7) . . .
33762.3 . 3.92(7) . . .
33772.5 . 4.05(7) . . .
33782.6 . 4.00(7) . . .
33792.7 . 3.90(6) . . .
33802.9 . 4.10(7) . . .
33813.0 . 3.99(7) . . .
33823.1 . 3.95(6) . . .
33833.3 . 4.04(7) . . .
33843.4 . 3.93(7) . . .
33853.6 . 3.91(6) . . .
33863.8 . 3.98(7) . . .
33873.9 . 4.06(7) . . .
33884.1 . 4.08(7) . . .
33894.2 . 3.87(6) . . .
33904.4 . 3.94(6) . . .
33914.6 . 3.97(6) . . .
33924.8 . 4.01(7) . . .
33934.9 . 3.97(7) . . .
33945.1 . 3.98(6) . . .
33955.3 . 3.90(6) . . .
33965.5 . 3.93(6) . . .
33975.7 . 4.05(6) . . .
33985.9 . 3.99(6) . . .
33996.1 . 3.95(6) . . .
34006.3 . 4.05(6) . . .
34016.5 . 3.90(6) . . .
34026.7 . 3.89(6) . . .
34036.9 . 3.80(6) . . .
34047.1 . 4.03(6) . . .
34057.3 . 4.07(6) . . .
34067.5 . 3.87(6) . . .
34077.7 . 3.92(6) . . .
34088.0 . 3.97(6) . . .
34098.2 . 4.03(6) . . .
34108.4 . 4.07(6) . . .
34118.7 . 4.09(6) . . .
34128.9 . 4.13(6) . . .
34139.1 . 4.05(6) . . .
34149.4 . 4.06(6) . . .
34159.6 . 4.12(6) . . .
34169.9 . 4.08(6) . . .
34180.1 . 4.08(6) . . .
34190.4 . 4.10(6) . . .
34200.6 . 3.99(6) . . .
34210.9 . 4.07(6) . . .
34221.1 . 4.13(6) . . .
34231.4 . 4.17(6) . . .
34241.7 . 4.23(6) . . .
34252.0 . 4.25(6) . . .
34262.2 . 4.20(6) . . .
34272.5 . 4.07(6) . . .
34282.8 . 4.12(6) . . .
34293.1 . 4.12(6) . . .
34303.4 . 4.24(6) . . .
34313.7 . 4.18(6) . . .
34323.9 . 4.29(6) . . .
34334.2 . 4.22(6) . . .
34344.5 . 4.33(6) . . .
34354.8 . 4.35(6) . . .
34365.2 . 4.30(6) . . .
34375.5 . 4.39(6) . . .
34385.8 . 4.29(6) . . .
34396.1 . 4.27(6) . . .
34406.4 . 4.30(6) . . .
34416.7 . 4.27(6) . . .
34427.1 . 4.31(6) . . .
34437.4 . 4.30(6) . . .
34447.7 . 4.17(6) . . .
34458.1 . 4.14(6) . . .
34468.4 . 4.16(6) . . .
34478.7 . 4.15(6) . . .
34489.1 . 4.25(6) . . .
34499.4 . 4.15(6) . . .
34509.8 . 4.16(6) . . .
34520.1 . 4.16(6) . . .
34530.5 . 4.15(6) . . .
34540.8 . 4.14(6) . . .
34551.2 . 4.24(6) . . .
34561.6 . 4.28(6) . . .
34571.9 . 4.19(6) . . .
34582.3 . 4.05(6) . . .
34592.7 . 4.14(6) . . .
34603.1 . 4.21(6) . . .
34613.4 . 4.24(6) . . .
34623.8 . 4.29(6) . . .
34634.2 . 4.26(6) . . .
34644.6 . 4.31(6) . . .
34655.0 . 4.15(6) . . .
34665.4 . 4.16(6) . . .
34675.8 . 4.15(6) . . .
34686.2 . 4.21(6) . . .
34696.6 . 4.29(6) . . .
34707.0 . 4.24(6) . . .
34717.4 . 4.25(6) . . .
34727.8 . 4.23(6) . . .
34738.3 . 4.25(6) . . .
34748.7 . 4.18(6) . . .
34759.1 . 4.21(6) . . .
34769.5 . 4.23(6) . . .
34780.0 . 4.16(6) . . .
34790.4 . 4.09(6) . . .
34800.8 . 4.15(6) . . .
34811.3 . 4.23(6) . . .
34821.7 . 4.14(6) . . .
34832.2 . 4.19(6) . . .
34842.6 . 4.13(6) . . .
34853.1 . 4.14(6) . . .
34863.5 . 4.14(6) . . .
34874.0 . 4.15(6) . . .
34884.4 0.72237 4.16(6) 300.3 3.964 4.011
34894.9 0.72259 4.19(6) 301.2 3.967 4.026
34905.4 0.72281 4.14(6) 302.9 3.970 4.044
34915.8 0.72302 4.20(6) 295.3 3.972 4.070
34926.3 0.72324 4.12(6) 308.6 3.975 4.092
34936.8 0.72346 4.18(6) 305.3 3.978 4.093
34947.3 0.72367 4.18(6) 300.6 3.981 4.079
34957.8 0.72389 4.20(6) 299.7 3.984 4.071
34968.2 0.72411 4.16(6) 311.1 3.987 4.074
34978.7 0.72433 4.19(6) 301.3 3.990 4.084
34989.2 0.72454 4.19(6) 305.4 3.993 4.102
34999.7 0.72476 4.22(6) 302.2 3.995 4.130
35010.2 0.72498 4.31(6) 297.8 3.998 4.154
35020.7 0.72520 4.16(6) 313.1 4.001 4.158
35031.2 0.72541 4.17(6) 313.4 4.004 4.148
35041.7 0.72563 4.35(6) 297.7 4.007 4.141
35052.3 0.72585 4.24(6) 305.5 4.010 4.143
35062.8 0.72607 4.27(6) 303.3 4.012 4.153
35073.3 0.72628 4.30(6) 306.6 4.015 4.172
35084. 0.72650 4.23(6) 308.8 4.018 4.191
35094. 0.72672 4.22(6) 315.5 4.021 4.186
35105. 0.72694 4.14(6) 323.1 4.023 4.157
35115. 0.72716 4.16(6) 326.3 4.026 4.129
35126. 0.72737 4.17(6) 326.7 4.029 4.118
35136. 0.72759 4.20(6) 319.0 4.032 4.117
35147. 0.72781 4.12(6) 325.3 4.034 4.116
35158. 0.72803 4.17(6) 323.4 4.037 4.117
35168. 0.72825 4.21(6) 321.5 4.040 4.133
35179. 0.72847 4.18(6) 325.9 4.043 4.162
35189. 0.72868 4.26(6) 318.7 4.045 4.184
35200. 0.72890 4.26(6) 319.1 4.048 4.190
35210. 0.72912 4.20(6) 323.4 4.051 4.202
35221. 0.72934 4.14(5) 332.6 4.053 4.229
35231. 0.72956 4.27(6) 320.1 4.056 4.253
35242. 0.72978 4.30(6) 318.1 4.059 4.262
35253. 0.73000 4.31(6) 316.0 4.061 4.269
35263. 0.73022 4.31(6) 318.6 4.064 4.276
35274. 0.73044 4.32(6) 321.3 4.067 4.261
35284. 0.73065 4.33(6) 316.1 4.069 4.225
35295. 0.73087 4.17(5) 337.0 4.072 4.190
35306. 0.73109 4.22(5) 334.9 4.075 4.168
35316. 0.73131 4.16(5) 341.0 4.077 4.157
35327. 0.73153 4.20(5) 332.5 4.080 4.154
35337. 0.73175 4.21(5) 335.8 4.082 4.156
35348. 0.73197 4.23(5) 337.7 4.085 4.157
35359. 0.73219 4.24(5) 335.6 4.088 4.156
35369. 0.73241 4.29(5) 331.9 4.090 4.156
35380. 0.73263 4.18(5) 336.6 4.093 4.162
35390. 0.73285 4.13(5) 348.6 4.095 4.178
35401. 0.73307 4.34(6) 325.0 4.098 4.196
35412. 0.73329 4.31(5) 331.7 4.100 4.208
35422. 0.73351 4.31(5) 333.9 4.103 4.200
35433. 0.73373 4.17(5) 352. 4.106 4.182
35443. 0.73395 4.18(5) 349.4 4.108 4.168
35454. 0.73417 4.24(5) 345.1 4.111 4.165
35465. 0.73439 4.17(5) 350.0 4.113 4.174
35475. 0.73461 4.22(5) 348.1 4.116 4.193
35486. 0.73483 4.21(5) 345.9 4.118 4.214
35497. 0.73505 4.29(5) 338.6 4.121 4.236
35507. 0.73527 4.34(5) 337.2 4.123 4.257
35518. 0.73549 4.21(5) 348.4 4.126 4.265
35529. 0.73571 4.21(5) 347.1 4.128 4.255
35539. 0.73594 4.19(5) 358. 4.130 4.239
35550. 0.73616 4.21(5) 353. 4.133 4.236
35561. 0.73638 4.12(5) 363. 4.135 4.246
35571. 0.73660 4.23(5) 358. 4.138 4.251
35582. 0.73682 4.22(5) 354. 4.140 4.240
35593. 0.73704 4.20(5) 356. 4.143 4.220
35603. 0.73726 4.22(5) 354. 4.145 4.205
35614. 0.73748 4.24(5) 357. 4.147 4.201
35625. 0.73770 4.12(5) 368. 4.150 4.214
35635. 0.73793 4.21(5) 352. 4.152 4.239
35646. 0.73815 4.25(5) 354. 4.155 4.261
35657. 0.73837 4.25(5) 354. 4.157 4.262
35667. 0.73859 4.18(5) 363. 4.159 4.251
35678. 0.73881 4.25(5) 357. 4.162 4.247
35689. 0.73903 4.22(5) 358. 4.164 4.257
35700. 0.73925 4.22(5) 365. 4.167 4.275
35710. 0.73948 4.23(5) 365. 4.169 4.283
35721. 0.73970 4.32(5) 355. 4.171 4.271
35732. 0.73992 4.24(5) 367. 4.174 4.249
35742. 0.74014 4.32(5) 354. 4.176 4.235
35753. 0.74036 4.26(5) 359. 4.178 4.234
35764. 0.74059 4.21(5) 370. 4.180 4.242
35775. 0.74081 4.20(5) 372. 4.183 4.247
35785. 0.74103 4.18(5) 369. 4.185 4.245
35796. 0.74125 4.19(5) 373. 4.187 4.243
35807. 0.74148 4.22(5) 371. 4.190 4.247
35818. 0.74170 4.13(5) 377. 4.192 4.252
35828. 0.74192 4.30(5) 363. 4.194 4.258
35839. 0.74214 4.22(5) 377. 4.196 4.269
35850. 0.74237 4.25(5) 372. 4.199 4.287
35861. 0.74259 4.23(5) 377. 4.201 4.312
35871. 0.74281 4.29(5) 369. 4.203 4.348
35882. 0.74303 4.33(5) 367. 4.205 4.398
35893. 0.74326 4.46(5) 354. 4.208 4.450
35904. 0.74348 4.46(5) 356. 4.210 4.478
35914. 0.74370 4.42(5) 366. 4.212 4.486
35925. 0.74393 4.49(5) 356. 4.214 4.495
35936. 0.74415 4.44(5) 357. 4.216 4.493
35947. 0.74437 4.39(5) 368. 4.219 4.463
35957. 0.74460 4.38(5) 367. 4.221 4.427
35968. 0.74482 4.42(5) 363. 4.223 4.410
35979. 0.74504 4.31(5) 378. 4.225 4.412
35990. 0.74527 4.35(5) 373. 4.227 4.416
36001. 0.74549 4.40(5) 371. 4.229 4.424
36011. 0.74571 4.40(5) 373. 4.231 4.445
36022. 0.74594 4.34(5) 377. 4.234 4.456
36033. 0.74616 4.34(5) 380. 4.236 4.441
36044. 0.74639 4.34(5) 380. 4.238 4.429
36055. 0.74661 4.31(5) 381. 4.240 4.440
36065. 0.74683 4.31(5) 381. 4.242 4.446
36076. 0.74706 4.35(5) 376. 4.244 4.421
36087. 0.74728 4.34(5) 382. 4.246 4.383
36098. 0.74751 4.27(5) 386. 4.248 4.352
36109. 0.74773 4.31(5) 388. 4.250 4.333
36120. 0.74796 4.34(5) 387. 4.252 4.321
36130. 0.74818 4.24(5) 392. 4.255 4.313
36141. 0.74840 4.22(5) 398. 4.257 4.307
36152. 0.74863 4.30(5) 392. 4.259 4.304
36163. 0.74885 4.22(5) 400. 4.261 4.308
36174. 0.74908 4.26(5) 391. 4.263 4.315
36185. 0.74930 4.34(5) 387. 4.265 4.322
36196. 0.74953 4.27(5) 399. 4.267 4.326
36206. 0.74975 4.30(5) 394. 4.269 4.332
36217. 0.74998 4.29(5) 399. 4.271 4.343
36228. 0.75020 4.24(5) 401. 4.273 4.357
36239. 0.75043 4.27(5) 402. 4.275 4.364
36250. 0.75065 4.38(5) 387. 4.277 4.364
36261. 0.75088 4.28(5) 402. 4.279 4.361
36272. 0.75110 4.35(5) 393. 4.281 4.361
36282. 0.75133 4.25(5) 404. 4.283 4.363
36293. 0.75155 4.35(5) 393. 4.285 4.358
36304. 0.75178 4.30(5) 406. 4.286 4.351
36315. 0.75201 4.31(5) 401. 4.288 4.349
36326. 0.75223 4.29(5) 403. 4.290 4.355
36337. 0.75246 4.39(5) 393. 4.292 4.364
36348. 0.75268 4.43(5) 386. 4.294 4.380
36359. 0.75291 4.43(5) 390. 4.296 4.417
36370. 0.75313 4.44(5) 391. 4.298 4.481
36381. 0.75336 4.44(5) 389. 4.300 4.534
36391. 0.75359 4.49(5) 384. 4.302 4.537
36402. 0.75381 4.47(5) 392. 4.304 4.517
36413. 0.75404 4.49(5) 390. 4.306 4.506
36424. 0.75427 4.48(5) 393. 4.307 4.497
36435. 0.75449 4.45(5) 394. 4.309 4.476
36446. 0.75472 4.42(5) 393. 4.311 4.451
36457. 0.75494 4.43(5) 395. 4.313 4.428
36468. 0.75517 4.36(5) 410. 4.315 4.411
36479. 0.75540 4.46(5) 395. 4.317 4.401
36490. 0.75562 4.40(5) 403. 4.319 4.395
36501. 0.75585 4.41(5) 401. 4.320 4.398
36512. 0.75608 4.41(5) 406. 4.322 4.418
36523. 0.75630 4.40(5) 406. 4.324 4.450
36534. 0.75653 4.39(5) 406. 4.326 4.476
36545. 0.75676 4.49(5) 395. 4.328 4.486
36556. 0.75699 4.51(5) 398. 4.329 4.489
36567. 0.75721 4.45(5) 406. 4.331 4.492
36578. 0.75744 4.48(5) 398. 4.333 4.485
36588. 0.75767 4.38(5) 414. 4.335 4.473
36599. 0.75789 4.45(5) 408. 4.336 4.468
36610. 0.75812 4.54(5) 394. 4.338 4.466
36621. 0.75835 4.48(5) 405. 4.340 4.459
36632. 0.75858 4.37(5) 422. 4.342 4.454
36643. 0.75880 4.44(5) 412. 4.343 4.465
36654. 0.75903 4.49(5) 401. 4.345 4.506
36665. 0.75926 4.54(5) 402. 4.347 4.572
36676. 0.75949 4.57(5) 398. 4.349 4.618
36687. 0.75972 4.54(5) 407. 4.350 4.614
36698. 0.75994 4.55(5) 404. 4.352 4.595
36709. 0.76017 4.56(5) 400. 4.354 4.589
36720. 0.76040 4.54(5) 403. 4.355 4.583
36731. 0.76063 4.57(5) 405. 4.357 4.562
36742. 0.76086 4.43(5) 420. 4.359 4.535
36753. 0.76109 4.54(5) 406. 4.360 4.512
36765. 0.76131 4.51(5) 410. 4.362 4.487
36776. 0.76154 4.50(5) 410. 4.364 4.459
36787. 0.76177 4.51(5) 409. 4.365 4.438
36798. 0.76200 4.48(5) 416. 4.367 4.431
36809. 0.76223 4.40(5) 426. 4.368 4.442
36820. 0.76246 4.45(5) 419. 4.370 4.466
36831. 0.76269 4.48(5) 417. 4.372 4.487
36842. 0.76291 4.49(5) 419. 4.373 4.498
36853. 0.76314 4.54(5) 414. 4.375 4.504
36864. 0.76337 4.56(5) 413. 4.377 4.521
36875. 0.76360 4.62(5) 408. 4.378 4.555
36886. 0.76383 4.54(5) 417. 4.380 4.586
36897. 0.76406 4.53(5) 416. 4.381 4.593
36908. 0.76429 4.59(5) 415. 4.383 4.584
36919. 0.76452 4.64(5) 412. 4.384 4.578
36930. 0.76475 4.62(5) 415. 4.386 4.587
36941. 0.76498 4.67(5) 411. 4.388 4.609
36952. 0.76521 4.68(5) 416. 4.389 4.656
36964. 0.76544 4.85(5) 394. 4.391 4.732
36975. 0.76567 4.84(5) 393. 4.392 4.791
36986. 0.76590 4.70(5) 407. 4.394 4.778
36997. 0.76613 4.73(5) 406. 4.395 4.716
37008. 0.76636 4.57(5) 424. 4.397 4.642
37019. 0.76659 4.61(5) 419. 4.398 4.576
37030. 0.76682 4.60(5) 420. 4.400 4.525
37041. 0.76705 4.50(5) 429. 4.401 4.494
37052. 0.76728 4.52(5) 434. 4.403 4.490
37063. 0.76751 4.59(5) 420. 4.404 4.512
37075. 0.76774 4.53(5) 431. 4.406 4.548
37086. 0.76797 4.56(5) 431. 4.407 4.573
37097. 0.76820 4.60(5) 427. 4.408 4.591
37108. 0.76843 4.69(5) 411. 4.410 4.616
37119. 0.76866 4.58(5) 426. 4.411 4.644
37130. 0.76889 4.68(5) 419. 4.413 4.660
37141. 0.76912 4.68(5) 418. 4.414 4.661
37153. 0.76935 4.63(5) 422. 4.416 4.650
37164. 0.76958 4.63(5) 425. 4.417 4.632
37175. 0.76981 4.62(5) 428. 4.419 4.604
37186. 0.77004 4.53(5) 445. 4.420 4.572
37197. 0.77027 4.53(5) 438. 4.421 4.550
37208. 0.77050 4.54(5) 440. 4.423 4.547
37219. 0.77074 4.58(5) 436. 4.424 4.566
37231. 0.77097 4.66(5) 426. 4.425 4.613
37242. 0.77120 4.65(5) 434. 4.427 4.678
37253. 0.77143 4.72(5) 425. 4.428 4.712
37264. 0.77166 4.60(5) 433. 4.430 4.683
37275. 0.77189 4.58(5) 442. 4.431 4.630
37286. 0.77212 4.52(5) 445. 4.432 4.590
37298. 0.77236 4.63(5) 433. 4.434 4.568
37309. 0.77259 4.61(5) 432. 4.435 4.562
37320. 0.77282 4.64(5) 433. 4.436 4.579
37331. 0.77305 4.64(5) 436. 4.438 4.612
37342. 0.77328 4.64(5) 438. 4.439 4.643
37354. 0.77352 4.58(5) 443. 4.440 4.657
37365. 0.77375 4.56(5) 449. 4.442 4.645
37376. 0.77398 4.61(5) 444. 4.443 4.615
37387. 0.77421 4.64(5) 441. 4.444 4.583
37398. 0.77444 4.55(5) 453. 4.445 4.560
37410. 0.77468 4.53(5) 457. 4.447 4.557
37421. 0.77491 4.57(5) 449. 4.448 4.576
37432. 0.77514 4.67(5) 440. 4.449 4.597
37443. 0.77537 4.62(5) 448. 4.450 4.597
37455. 0.77561 4.69(5) 438. 4.452 4.578
37466. 0.77584 4.48(5) 463. 4.453 4.555
37477. 0.77607 4.53(5) 458. 4.454 4.546
37488. 0.77631 4.56(5) 454. 4.455 4.557
37500. 0.77654 4.62(5) 448. 4.457 4.582
37511. 0.77677 4.58(5) 455. 4.458 4.602
37522. 0.77700 4.53(5) 459. 4.459 4.614
37533. 0.77724 4.61(5) 454. 4.460 4.626
37545. 0.77747 4.65(5) 447. 4.461 4.630
37556. 0.77770 4.59(5) 454. 4.463 4.614
37567. 0.77794 4.45(5) 480. 4.464 4.592
37578. 0.77817 4.57(5) 462. 4.465 4.585
37590. 0.77840 4.59(5) 465. 4.466 4.602
37601. 0.77864 4.52(5) 475. 4.467 4.654
37612. 0.77887 4.65(5) 456. 4.469 4.739
37624. 0.77911 4.77(5) 448. 4.470 4.810
37635. 0.77934 4.85(5) 437. 4.471 4.817
37646. 0.77957 4.73(5) 452. 4.472 4.778
37657. 0.77981 4.71(5) 454. 4.473 4.725
37669. 0.78004 4.67(5) 463. 4.474 4.690
37680. 0.78028 4.73(5) 450. 4.475 4.677
37691. 0.78051 4.69(5) 455. 4.477 4.661
37703. 0.78074 4.62(5) 467. 4.478 4.625
37714. 0.78098 4.53(5) 480. 4.479 4.586
37725. 0.78121 4.54(5) 482. 4.480 4.556
37737. 0.78145 4.51(5) 476. 4.481 4.536
37748. 0.78168 4.51(5) 485. 4.482 4.524
37759. 0.78192 4.53(5) 479. 4.483 4.518
37771. 0.78215 4.58(5) 474. 4.484 4.515
37782. 0.78239 4.48(5) 486. 4.485 4.516
37793. 0.78262 4.47(5) 493. 4.486 4.524
37805. 0.78285 4.58(5) 479. 4.487 4.542
37816. 0.78309 4.50(5) 490. 4.489 4.564
37827. 0.78332 4.56(5) 487. 4.490 4.582
37839. 0.78356 4.62(5) 480. 4.491 4.589
37850. 0.78379 4.60(5) 483. 4.492 4.590
37861. 0.78403 4.60(5) 482. 4.493 4.594
37873. 0.78427 4.59(5) 485. 4.494 4.601
37884. 0.78450 4.60(5) 488. 4.495 4.605
37895. 0.78474 4.64(5) 480. 4.496 4.610
37907. 0.78497 4.70(5) 470. 4.497 4.627
37918. 0.78521 4.63(5) 479. 4.498 4.658
37929. 0.78544 4.69(5) 478. 4.499 4.684
37941. 0.78568 4.73(5) 475. 4.500 4.697
37952. 0.78591 4.68(5) 481. 4.501 4.694
37964. 0.78615 4.66(5) 485. 4.502 4.670
37975. 0.78639 4.57(4) 496. 4.503 4.637
37986. 0.78662 4.56(4) 498. 4.504 4.613
37998. 0.78686 4.55(4) 497. 4.505 4.600
38009. 0.78709 4.61(5) 491. 4.506 4.589
38021. 0.78733 4.58(4) 497. 4.507 4.575
38032. 0.78757 4.65(5) 487. 4.507 4.561
38043. 0.78780 4.55(4) 501. 4.508 4.553
38055. 0.78804 4.60(5) 492. 4.509 4.553
38066. 0.78828 4.62(5) 491. 4.510 4.557
38078. 0.78851 4.51(4) 511. 4.511 4.563
38089. 0.78875 4.60(4) 496. 4.512 4.569
38101. 0.78899 4.66(5) 489. 4.513 4.578
38112. 0.78922 4.61(4) 502. 4.514 4.592
38123. 0.78946 4.67(4) 497. 4.515 4.616
38135. 0.78970 4.66(4) 494. 4.516 4.647
38146. 0.78993 4.70(5) 493. 4.517 4.670
38158. 0.79017 4.66(4) 496. 4.518 4.688
38169. 0.79041 4.68(4) 500. 4.518 4.723
38181. 0.79064 4.71(5) 493. 4.519 4.780
38192. 0.79088 4.78(5) 484. 4.520 4.818
38204. 0.79112 4.77(5) 490. 4.521 4.803
38215. 0.79136 4.74(5) 489. 4.522 4.751
38226. 0.79159 4.58(4) 515. 4.523 4.690
38238. 0.79183 4.60(4) 510. 4.524 4.639
38249. 0.79207 4.60(4) 510. 4.524 4.604
38261. 0.79231 4.56(4) 519. 4.525 4.583
38272. 0.79254 4.55(4) 520. 4.526 4.573
38284. 0.79278 4.55(4) 519. 4.527 4.576
38295. 0.79302 4.53(4) 531. 4.528 4.592
38307. 0.79326 4.62(4) 515. 4.528 4.617
38318. 0.79350 4.71(4) 506. 4.529 4.656
38330. 0.79373 4.73(4) 507. 4.530 4.717
38341. 0.79397 4.78(4) 499. 4.531 4.799
38353. 0.79421 4.87(5) 487. 4.532 4.854
38364. 0.79445 4.80(4) 501. 4.532 4.832
38376. 0.79469 4.73(4) 509. 4.533 4.770
38387. 0.79493 4.59(4) 529. 4.534 4.724
38399. 0.79516 4.65(4) 522. 4.535 4.713
38410. 0.79540 4.68(4) 516. 4.536 4.730
38422. 0.79564 4.71(4) 508. 4.536 4.767
38433. 0.79588 4.81(4) 501. 4.537 4.827
38445. 0.79612 4.84(4) 498. 4.538 4.881
38456. 0.79636 4.81(4) 506. 4.539 4.902
38468. 0.79660 4.82(4) 500. 4.539 4.896
38480. 0.79684 4.75(4) 507. 4.540 4.858
38491. 0.79707 4.77(4) 511. 4.541 4.802
38503. 0.79731 4.69(4) 518. 4.541 4.752
38514. 0.79755 4.73(4) 515. 4.542 4.714
38526. 0.79779 4.68(4) 518. 4.543 4.689
38537. 0.79803 4.64(4) 529. 4.544 4.694
38549. 0.79827 4.78(4) 512. 4.544 4.749
38560. 0.79851 4.88(4) 498. 4.545 4.831
38572. 0.79875 4.84(4) 505. 4.546 4.873
38584. 0.79899 4.76(4) 519. 4.546 4.846
38595. 0.79923 4.80(4) 511. 4.547 4.789
38607. 0.79947 4.71(4) 522. 4.548 4.741
38618. 0.79971 4.73(4) 526. 4.548 4.709
38630. 0.79995 4.76(4) 522. 4.549 4.692
38641. 0.80019 4.73(4) 527. 4.550 4.688
38653. 0.80043 4.67(4) 534. 4.550 4.691
38665. 0.80067 4.65(4) 527. 4.551 4.693
38676. 0.80091 4.65(4) 539. 4.552 4.700
38688. 0.80115 4.65(4) 537. 4.552 4.721
38699. 0.80139 4.69(4) 532. 4.553 4.742
38711. 0.80163 4.76(4) 526. 4.553 4.754
38723. 0.80187 4.78(4) 525. 4.554 4.783
38734. 0.80211 4.71(4) 536. 4.555 4.834
38746. 0.80235 4.88(4) 519. 4.555 4.864
38758. 0.80259 4.82(4) 519. 4.556 4.851
38769. 0.80284 4.79(4) 519. 4.557 4.837
38781. 0.80308 4.80(4) 525. 4.557 4.846
38792. 0.80332 4.76(4) 529. 4.558 4.848
38804. 0.80356 4.76(4) 532. 4.558 4.813
38816. 0.80380 4.67(4) 545. 4.559 4.766
38827. 0.80404 4.68(4) 548. 4.559 4.736
38839. 0.80428 4.69(4) 542. 4.560 4.724
38851. 0.80452 4.72(4) 543. 4.561 4.716
38862. 0.80476 4.71(4) 540. 4.561 4.709
38874. 0.80501 4.74(4) 537. 4.562 4.721
38886. 0.80525 4.77(4) 534. 4.562 4.754
38897. 0.80549 4.85(4) 527. 4.563 4.783
38909. 0.80573 4.82(4) 527. 4.563 4.786
38921. 0.80597 4.77(4) 541. 4.564 4.786
38932. 0.80621 4.92(4) 522. 4.564 4.792
38944. 0.80646 4.89(4) 526. 4.565 4.786
38956. 0.80670 4.90(4) 526. 4.565 4.757
38967. 0.80694 4.81(4) 536. 4.566 4.719
38979. 0.80718 4.73(4) 543. 4.566 4.689
38991. 0.80742 4.64(4) 554. 4.567 4.677
39002. 0.80767 4.71(4) 543. 4.567 4.676
39014. 0.80791 4.67(4) 552. 4.568 4.672
39026. 0.80815 4.66(4) 557. 4.568 4.664
39038. 0.80839 4.65(4) 559. 4.569 4.660
39049. 0.80864 4.59(4) 573. 4.569 4.682
39061. 0.80888 4.75(4) 551. 4.570 4.739
39073. 0.80912 4.72(4) 557. 4.570 4.809
39084. 0.80936 4.77(4) 545. 4.571 4.843
39096. 0.80961 4.91(4) 525. 4.571 4.835
39108. 0.80985 4.86(4) 536. 4.572 4.828
39120. 0.81009 4.83(4) 544. 4.572 4.849
39131. 0.81034 4.93(4) 531. 4.573 4.889
39143. 0.81058 4.83(4) 548. 4.573 4.936
39155. 0.81082 4.88(4) 541. 4.574 4.980
39167. 0.81107 4.98(4) 530. 4.574 4.980
39178. 0.81131 4.92(4) 538. 4.574 4.930
39190. 0.81155 4.88(4) 539. 4.575 4.875
39202. 0.81180 4.78(4) 553. 4.575 4.843
39214. 0.81204 4.82(4) 550. 4.576 4.810
39225. 0.81228 4.76(4) 559. 4.576 4.760
39237. 0.81253 4.64(4) 572. 4.576 4.707
39249. 0.81277 4.60(4) 580. 4.577 4.667
39261. 0.81302 4.66(4) 572. 4.577 4.644
39272. 0.81326 4.67(4) 565. 4.578 4.638
39284. 0.81350 4.64(4) 568. 4.578 4.651
39296. 0.81375 4.58(4) 591. 4.578 4.675
39308. 0.81399 4.65(4) 575. 4.579 4.696
39320. 0.81424 4.63(4) 584. 4.579 4.715
39331. 0.81448 4.69(4) 571. 4.580 4.742
39343. 0.81472 4.78(4) 558. 4.580 4.787
39355. 0.81497 4.90(4) 554. 4.580 4.850
39367. 0.81521 4.97(4) 540. 4.581 4.904
39379. 0.81546 4.95(4) 548. 4.581 4.911
39390. 0.81570 4.89(4) 554. 4.581 4.886
39402. 0.81595 4.92(4) 548. 4.582 4.859
39414. 0.81619 4.79(4) 570. 4.582 4.827
39426. 0.81644 4.74(4) 573. 4.582 4.786
39438. 0.81668 4.72(4) 578. 4.583 4.750
39450. 0.81693 4.71(4) 588. 4.583 4.749
39461. 0.81717 4.83(4) 569. 4.583 4.829
39473. 0.81742 5.08(4) 534. 4.584 5.008
39485. 0.81766 5.24(4) 515. 4.584 5.205
39497. 0.81791 5.26(4) 514. 4.584 5.285
39509. 0.81815 5.19(4) 527. 4.585 5.261
39521. 0.81840 5.23(4) 523. 4.585 5.200
39532. 0.81865 5.16(4) 532. 4.585 5.116
39544. 0.81889 4.92(4) 562. 4.585 5.020
39556. 0.81914 4.91(4) 563. 4.586 4.949
39568. 0.81938 4.86(4) 567. 4.586 4.915
39580. 0.81963 4.87(4) 563. 4.586 4.905
39592. 0.81987 4.91(4) 561. 4.587 4.909
39604. 0.82012 4.97(4) 551. 4.587 4.911
39616. 0.82037 4.97(4) 554. 4.587 4.900
39627. 0.82061 4.91(4) 560. 4.587 4.888
39639. 0.82086 4.98(4) 554. 4.588 4.888
39651. 0.82111 4.91(4) 558. 4.588 4.879
39663. 0.82135 4.84(4) 573. 4.588 4.845
39675. 0.82160 4.84(4) 578. 4.588 4.812
39687. 0.82184 4.83(4) 580. 4.589 4.798
39699. 0.82209 4.84(4) 573. 4.589 4.799
39711. 0.82234 4.80(4) 581. 4.589 4.792
39723. 0.82258 4.85(4) 574. 4.589 4.779
39735. 0.82283 4.80(4) 586. 4.590 4.787
39746. 0.82308 4.88(4) 570. 4.590 4.832
39758. 0.82333 5.03(4) 558. 4.590 4.905
39770. 0.82357 5.04(4) 550. 4.590 4.982
39782. 0.82382 5.09(4) 543. 4.590 5.009
39794. 0.82407 5.00(4) 553. 4.591 4.967
39806. 0.82431 5.02(4) 555. 4.591 4.914
39818. 0.82456 5.03(4) 561. 4.591 4.892
39830. 0.82481 5.00(4) 564. 4.591 4.898
39842. 0.82506 4.99(4) 573. 4.591 4.914
39854. 0.82530 5.03(4) 565. 4.591 4.936
39866. 0.82555 5.08(4) 552. 4.592 4.973
39878. 0.82580 5.12(4) 545. 4.592 5.007
39890. 0.82605 5.11(4) 0.0 4.592 .
39902. 0.82629 5.03(4) 0.0 4.592 .
39914. 0.82654 5.07(4) 0.0 4.592 .
39926. 0.82679 5.12(4) 0.0 4.592 .
39938. 0.82704 5.27(4) 0.0 4.593 .
39950. 0.82729 5.42(5) 0.0 4.593 .
39962. 0.82754 5.36(5) 0.0 4.593 .
39974. 0.82778 5.07(5) 0.0 4.593 .
39986. 0.82803 5.02(5) 0.0 4.593 .
39998. 0.82828 4.85(5) 0.0 4.593 .
40010. 0.82853 4.77(5) 0.0 4.593 .
40022. 0.82878 4.82(5) 0.0 4.594 .
40034. 0.82903 4.71(5) 0.0 4.594 .
40046. 0.82927 4.65(5) 0.0 4.594 .
40058. 0.82952 4.80(5) 0.0 4.594 .
40070. 0.82977 4.75(5) 0.0 4.594 .
40082. 0.83002 4.87(5) 0.0 4.594 .
40094. 0.83027 4.72(5) 432. 4.594 4.790
40106. 0.83052 4.75(5) 426. 4.594 4.774
40118. 0.83077 4.83(5) 416. 4.594 4.803
40130. 0.83102 4.90(5) 410. 4.595 4.849
40142. 0.83127 4.89(5) 417. 4.595 4.869
40154. 0.83152 4.91(5) 413. 4.595 4.871
40166. 0.83177 4.92(5) 419. 4.595 4.896
40178. 0.83202 4.89(5) 423. 4.595 4.938
40190. 0.83227 4.94(5) 420. 4.595 4.950
40202. 0.83252 4.87(5) 430. 4.595 4.932
40214. 0.83277 4.87(5) 430. 4.595 4.899
40226. 0.83302 4.83(5) 436. 4.595 4.848
40238. 0.83327 4.78(5) 441. 4.595 4.789
40250. 0.83352 4.74(5) 449. 4.595 4.734
40262. 0.83377 4.76(5) 448. 4.595 4.695
40275. 0.83402 4.68(5) 457. 4.595 4.676
40287. 0.83427 4.68(5) 459. 4.595 4.686
40299. 0.83452 4.75(5) 455. 4.595 4.734
40311. 0.83477 4.80(5) 451. 4.595 4.811
40323. 0.83502 4.81(5) 445. 4.596 4.883
40335. 0.83527 4.90(5) 440. 4.596 4.920
40347. 0.83552 4.88(5) 441. 4.596 4.898
40359. 0.83577 4.84(5) 449. 4.596 4.835
40371. 0.83602 4.85(5) 449. 4.596 4.776
40383. 0.83627 4.77(5) 454. 4.596 4.747
40396. 0.83652 4.70(5) 464. 4.596 4.755
40408. 0.83677 4.76(5) 463. 4.596 4.779
40420. 0.83702 4.78(5) 460. 4.596 4.783
40432. 0.83727 4.80(5) 461. 4.596 4.760
40444. 0.83753 4.79(5) 465. 4.596 4.736
40456. 0.83778 4.80(5) 461. 4.596 4.737
40468. 0.83803 4.86(5) 459. 4.596 4.767
40480. 0.83828 4.87(5) 465. 4.596 4.807
40493. 0.83853 4.83(5) 479. 4.596 4.827
40505. 0.83878 4.86(5) 490. 4.596 4.833
40517. 0.83904 4.86(4) 496. 4.596 4.843
40529. 0.83929 4.85(4) 510. 4.596 4.844
40541. 0.83954 4.83(4) 525. 4.596 4.812
40553. 0.83979 4.84(4) 527. 4.595 4.765
40566. 0.84004 4.83(4) 540. 4.595 4.724
40578. 0.84029 4.79(4) 557. 4.595 4.699
40590. 0.84055 4.67(4) 585. 4.595 4.690
40602. 0.84080 4.72(4) 587. 4.595 4.688
40614. 0.84105 4.74(4) 595. 4.595 4.682
40626. 0.84130 4.71(4) 609. 4.595 4.671
40639. 0.84156 4.69(4) 623. 4.595 4.661
40651. 0.84181 4.69(4) 636. 4.595 4.661
40663. 0.84206 4.69(4) 635. 4.595 4.681
40675. 0.84231 4.73(4) 625. 4.595 4.716
40687. 0.84257 4.86(4) 608. 4.595 4.747
40700. 0.84282 4.80(4) 623. 4.595 4.764
40712. 0.84307 4.82(4) 621. 4.595 4.762
40724. 0.84333 4.75(4) 632. 4.595 4.746
40736. 0.84358 4.72(4) 636. 4.595 4.723
40748. 0.84383 4.75(4) 634. 4.595 4.698
40761. 0.84408 4.72(4) 635. 4.594 4.681
40773. 0.84434 4.71(4) 643. 4.594 4.689
40785. 0.84459 4.79(4) 626. 4.594 4.759
40797. 0.84484 4.95(4) 608. 4.594 4.928
40810. 0.84510 5.16(4) 582. 4.594 5.145
40822. 0.84535 5.18(4) 579. 4.594 5.253
40834. 0.84561 5.11(4) 589. 4.594 5.184
40846. 0.84586 4.97(4) 605. 4.594 5.041
40859. 0.84611 4.88(4) 613. 4.594 4.918
40871. 0.84637 4.89(4) 617. 4.594 4.847
40883. 0.84662 4.85(4) 625. 4.593 4.837
40895. 0.84688 4.84(4) 632. 4.593 4.886
40908. 0.84713 5.00(4) 601. 4.593 4.963
40920. 0.84738 5.04(4) 604. 4.593 5.043
40932. 0.84764 5.19(4) 582. 4.593 5.142
40944. 0.84789 5.27(4) 578. 4.593 5.219
40957. 0.84815 5.21(4) 586. 4.593 5.196
40969. 0.84840 5.13(4) 591. 4.592 5.085
40981. 0.84866 5.05(4) 604. 4.592 4.962
40994. 0.84891 4.93(4) 618. 4.592 4.873
41006. 0.84916 4.94(4) 615. 4.592 4.829
41018. 0.84942 4.92(4) 621. 4.592 4.833
41031. 0.84967 4.90(4) 626. 4.592 4.869
41043. 0.84993 4.97(4) 610. 4.592 4.893
41055. 0.85018 4.96(4) 613. 4.591 4.885
41067. 0.85044 4.86(4) 629. 4.591 4.869
41080. 0.85069 4.94(4) 617. 4.591 4.865
41092. 0.85095 4.86(4) 633. 4.591 4.874
41104. 0.85121 4.92(4) 627. 4.591 4.907
41117. 0.85146 5.01(4) 612. 4.591 4.985
41129. 0.85172 5.07(4) 604. 4.590 5.070
41141. 0.85197 5.07(4) 606. 4.590 5.099
41154. 0.85223 5.16(4) 591. 4.590 5.060
41166. 0.85248 5.06(4) 607. 4.590 4.969
41178. 0.85274 4.92(4) 627. 4.590 4.868
41191. 0.85299 4.80(4) 648. 4.589 4.785
41203. 0.85325 4.75(4) 653. 4.589 4.729
41216. 0.85351 4.79(4) 637. 4.589 4.694
41228. 0.85376 4.75(4) 646. 4.589 4.670
41240. 0.85402 4.75(4) 644. 4.589 4.657
41253. 0.85428 4.71(4) 654. 4.588 4.660
41265. 0.85453 4.78(4) 643. 4.588 4.697
41277. 0.85479 4.88(4) 635. 4.588 4.796
41290. 0.85504 5.04(4) 611. 4.588 4.953
41302. 0.85530 5.06(4) 613. 4.588 5.097
41315. 0.85556 5.12(4) 604. 4.587 5.140
41327. 0.85581 5.08(4) 610. 4.587 5.082
41339. 0.85607 4.99(4) 620. 4.587 4.981
41352. 0.85633 4.86(4) 645. 4.587 4.876
41364. 0.85659 4.76(4) 663. 4.587 4.798
41377. 0.85684 4.74(4) 664. 4.586 4.758
41389. 0.85710 4.71(4) 664. 4.586 4.749
41401. 0.85736 4.80(4) 645. 4.586 4.762
41414. 0.85761 4.82(4) 646. 4.586 4.804
41426. 0.85787 4.83(4) 644. 4.585 4.882
41439. 0.85813 4.98(4) 623. 4.585 4.959
41451. 0.85839 5.04(4) 618. 4.585 5.019
41464. 0.85864 5.11(4) 607. 4.585 5.109
41476. 0.85890 5.16(4) 600. 4.584 5.197
41488. 0.85916 5.16(4) 600. 4.584 5.175
41501. 0.85942 5.07(4) 613. 4.584 5.064
41513. 0.85967 4.97(4) 620. 4.584 4.951
41526. 0.85993 4.88(4) 636. 4.583 4.879
41538. 0.86019 4.82(4) 647. 4.583 4.851
41551. 0.86045 4.87(4) 638. 4.583 4.851
41563. 0.86071 4.85(4) 641. 4.583 4.842
41576. 0.86097 4.79(4) 648. 4.582 4.812
41588. 0.86122 4.82(4) 651. 4.582 4.782
41601. 0.86148 4.86(4) 642. 4.582 4.781
41613. 0.86174 4.84(4) 643. 4.581 4.832
41626. 0.86200 4.96(4) 630. 4.581 4.913
41638. 0.86226 5.10(4) 605. 4.581 4.967
41651. 0.86252 5.06(4) 612. 4.581 4.987
41663. 0.86278 5.05(4) 616. 4.580 5.024
41676. 0.86303 5.19(4) 603. 4.580 5.126
41688. 0.86329 5.29(4) 585. 4.580 5.280
41701. 0.86355 5.39(4) 571. 4.579 5.360
41713. 0.86381 5.24(4) 596. 4.579 5.287
41726. 0.86407 5.17(4) 603. 4.579 5.149
41738. 0.86433 5.10(4) 614. 4.579 5.037
41751. 0.86459 4.96(4) 636. 4.578 4.971
41763. 0.86485 4.92(4) 636. 4.578 4.935
41776. 0.86511 4.89(4) 641. 4.578 4.889
41788. 0.86537 4.85(4) 643. 4.577 4.841
41801. 0.86563 4.82(4) 649. 4.577 4.828
41813. 0.86589 4.85(4) 644. 4.577 4.856
41826. 0.86615 4.90(4) 636. 4.576 4.892
41838. 0.86641 4.84(4) 650. 4.576 4.907
41851. 0.86667 4.83(4) 648. 4.576 4.890
41863. 0.86693 4.82(4) 651. 4.575 4.839
41876. 0.86719 4.80(4) 653. 4.575 4.784
41889. 0.86745 4.74(4) 661. 4.575 4.748
41901. 0.86771 4.71(4) 672. 4.574 4.731
41914. 0.86797 4.77(4) 652. 4.574 4.727
41926. 0.86823 4.77(4) 656. 4.574 4.730
41939. 0.86849 4.73(4) 662. 4.573 4.738
41951. 0.86875 4.72(4) 662. 4.573 4.749
41964. 0.86901 4.73(4) 666. 4.573 4.746
41977. 0.86927 4.71(4) 669. 4.572 4.729
41989. 0.86953 4.68(4) 672. 4.572 4.721
42002. 0.86979 4.76(4) 662. 4.572 4.736
42014. 0.87005 4.82(4) 656. 4.571 4.775
42027. 0.87031 4.86(4) 649. 4.571 4.837
42040. 0.87058 4.99(4) 634. 4.571 4.947
42052. 0.87084 5.04(4) 630. 4.570 5.099
42065. 0.87110 5.21(4) 601. 4.570 5.195
42077. 0.87136 5.18(4) 606. 4.570 5.152
42090. 0.87162 5.08(4) 615. 4.569 5.032
42103. 0.87188 5.02(4) 623. 4.569 4.940
42115. 0.87214 5.00(4) 627. 4.569 4.932
42128. 0.87241 5.12(4) 610. 4.568 4.996
42141. 0.87267 5.07(4) 618. 4.568 5.055
42153. 0.87293 5.10(4) 615. 4.567 5.044
42166. 0.87319 4.92(4) 641. 4.567 4.971
42179. 0.87345 4.88(4) 643. 4.567 4.877
42191. 0.87372 4.77(4) 670. 4.566 4.801
42204. 0.87398 4.82(4) 657. 4.566 4.752
42217. 0.87424 4.74(4) 669. 4.566 4.719
42229. 0.87450 4.67(4) 677. 4.565 4.688
42242. 0.87476 4.68(4) 672. 4.565 4.658
42255. 0.87503 4.67(4) 677. 4.564 4.634
42267. 0.87529 4.63(4) 682. 4.564 4.616
42280. 0.87555 4.58(4) 696. 4.564 4.605
42293. 0.87582 4.56(4) 695. 4.563 4.601
42305. 0.87608 4.59(4) 692. 4.563 4.606
42318. 0.87634 4.65(4) 679. 4.563 4.618
42331. 0.87660 4.68(4) 676. 4.562 4.637
42343. 0.87687 4.65(4) 679. 4.562 4.668
42356. 0.87713 4.64(4) 686. 4.561 4.709
42369. 0.87739 4.70(4) 674. 4.561 4.751
42381. 0.87766 4.78(4) 658. 4.561 4.782
42394. 0.87792 4.80(4) 658. 4.560 4.801
42407. 0.87818 4.81(4) 659. 4.560 4.818
42420. 0.87845 4.76(4) 676. 4.559 4.813
42432. 0.87871 4.77(4) 670. 4.559 4.773
42445. 0.87897 4.74(4) 670. 4.558 4.724
42458. 0.87924 4.76(4) 664. 4.558 4.688
42471. 0.87950 4.63(4) 692. 4.558 4.667
42483. 0.87977 4.70(4) 680. 4.557 4.659
42496. 0.88003 4.67(4) 688. 4.557 4.669
42509. 0.88029 4.71(4) 676. 4.556 4.694
42522. 0.88056 4.76(4) 665. 4.556 4.708
42534. 0.88082 4.76(4) 662. 4.556 4.696
42547. 0.88109 4.67(4) 684. 4.555 4.673
42560. 0.88135 4.69(4) 675. 4.555 4.663
42573. 0.88162 4.76(4) 671. 4.554 4.678
42585. 0.88188 4.70(4) 688. 4.554 4.718
42598. 0.88214 4.72(4) 682. 4.553 4.778
42611. 0.88241 4.92(4) 644. 4.553 4.880
42624. 0.88267 4.99(4) 639. 4.553 5.019
42637. 0.88294 5.11(4) 628. 4.552 5.143
42649. 0.88320 5.28(4) 601. 4.552 5.240
42662. 0.88347 5.36(4) 595. 4.551 5.380
42675. 0.88373 5.46(4) 578. 4.551 5.519
42688. 0.88400 5.44(4) 581. 4.550 5.480
42700. 0.88426 5.29(4) 600. 4.550 5.286
42713. 0.88453 5.01(4) 641. 4.550 5.076
42726. 0.88479 4.84(4) 664. 4.549 4.919
42739. 0.88506 4.81(4) 666. 4.549 4.817
42752. 0.88533 4.77(4) 670. 4.548 4.765
42765. 0.88559 4.79(4) 669. 4.548 4.759
42777. 0.88586 4.81(4) 667. 4.547 4.772
42790. 0.88612 4.73(4) 681. 4.547 4.763
42803. 0.88639 4.73(4) 676. 4.546 4.728
42816. 0.88666 4.70(4) 687. 4.546 4.699
42829. 0.88692 4.71(4) 679. 4.546 4.704
42842. 0.88719 4.84(4) 659. 4.545 4.750
42854. 0.88745 4.83(4) 665. 4.545 4.806
42867. 0.88772 4.88(4) 658. 4.544 4.840
42880. 0.88799 4.96(4) 643. 4.544 4.854
42893. 0.88825 4.94(4) 648. 4.543 4.896
42906. 0.88852 5.03(4) 642. 4.543 5.018
42919. 0.88879 5.13(4) 626. 4.542 5.165
42932. 0.88905 5.17(4) 620. 4.542 5.207
42945. 0.88932 5.08(4) 633. 4.541 5.137
42957. 0.88959 4.97(4) 643. 4.541 5.020
42970. 0.88985 4.87(4) 661. 4.540 4.900
42983. 0.89012 4.82(4) 666. 4.540 4.797
42996. 0.89039 4.72(4) 684. 4.540 4.721
43009. 0.89065 4.65(4) 693. 4.539 4.671
43022. 0.89092 4.63(4) 697. 4.539 4.638
43035. 0.89119 4.61(4) 698. 4.538 4.618
43048. 0.89146 4.58(4) 704. 4.538 4.611
43061. 0.89172 4.70(4) 683. 4.537 4.627
43074. 0.89199 4.69(4) 685. 4.537 4.682
43086. 0.89226 4.81(4) 669. 4.536 4.794
43099. 0.89253 5.01(4) 639. 4.536 4.941
43112. 0.89279 5.07(4) 636. 4.535 5.053
43125. 0.89306 5.09(4) 630. 4.535 5.112
43138. 0.89333 5.15(4) 624. 4.534 5.142
43151. 0.89360 5.13(4) 626. 4.534 5.152
43164. 0.89387 5.09(4) 630. 4.533 5.126
43177. 0.89413 5.04(4) 637. 4.533 5.064
43190. 0.89440 5.00(4) 644. 4.532 4.971
43203. 0.89467 4.88(4) 658. 4.532 4.873
43216. 0.89494 4.82(4) 668. 4.531 4.801
43229. 0.89521 4.78(4) 673. 4.531 4.771
43242. 0.89548 4.79(4) 676. 4.530 4.798
43255. 0.89575 4.91(4) 653. 4.530 4.874
43268. 0.89601 5.07(4) 639. 4.529 4.962
43281. 0.89628 5.07(4) 631. 4.529 5.036
43294. 0.89655 4.98(4) 647. 4.528 5.075
43307. 0.89682 5.16(4) 619. 4.528 5.085
43320. 0.89709 5.15(4) 627. 4.527 5.073
43333. 0.89736 5.07(4) 633. 4.527 5.027
43346. 0.89763 5.03(4) 640. 4.526 4.964
43359. 0.89790 4.94(4) 655. 4.526 4.932
43372. 0.89817 4.89(4) 656. 4.525 4.930
43385. 0.89844 4.89(4) 660. 4.525 4.915
43398. 0.89871 4.90(4) 656. 4.524 4.895
43411. 0.89898 4.86(4) 667. 4.524 4.905
43424. 0.89925 4.85(4) 663. 4.523 4.916
43437. 0.89952 4.83(4) 673. 4.523 4.895
43450. 0.89979 4.90(4) 661. 4.522 4.886
43463. 0.90006 4.96(4) 650. 4.522 4.907
43476. 0.90033 4.93(4) 652. 4.521 4.899
43489. 0.90060 4.91(4) 654. 4.521 4.843
43502. 0.90087 4.82(4) 671. 4.520 4.782
43515. 0.90114 4.81(4) 670. 4.520 4.759
43528. 0.90141 4.87(4) 660. 4.519 4.790
43541. 0.90168 4.93(4) 663. 4.519 4.849
43554. 0.90195 4.86(4) 665. 4.518 4.890
43567. 0.90222 4.87(4) 667. 4.518 4.888
43580. 0.90249 4.91(4) 652. 4.517 4.862
43593. 0.90276 4.85(4) 665. 4.517 4.844
43607. 0.90303 4.86(4) 666. 4.516 4.843
43620. 0.90330 4.92(4) 662. 4.516 4.870
43633. 0.90357 5.01(4) 644. 4.515 4.920
43646. 0.90384 4.96(4) 649. 4.515 4.933
43659. 0.90412 4.91(4) 656. 4.514 4.871
43672. 0.90439 4.87(4) 663. 4.514 4.781
43685. 0.90466 4.75(4) 676. 4.513 4.714
43698. 0.90493 4.71(4) 687. 4.513 4.689
43711. 0.90520 4.80(4) 674. 4.512 4.707
43724. 0.90547 4.86(4) 669. 4.512 4.753
43738. 0.90574 4.84(4) 678. 4.511 4.808
43751. 0.90602 4.97(4) 650. 4.511 4.880
43764. 0.90629 4.99(4) 647. 4.510 4.951
43777. 0.90656 4.99(4) 653. 4.510 4.975
43790. 0.90683 4.88(4) 672. 4.509 4.954
43803. 0.90710 4.85(4) 673. 4.509 4.894
43816. 0.90738 4.82(4) 673. 4.508 4.812
43829. 0.90765 4.73(4) 687. 4.508 4.742
43843. 0.90792 4.67(4) 702. 4.507 4.702
43856. 0.90819 4.66(4) 701. 4.506 4.693
43869. 0.90847 4.72(4) 689. 4.506 4.707
43882. 0.90874 4.77(4) 679. 4.505 4.725
43895. 0.90901 4.81(4) 676. 4.505 4.730
43908. 0.90928 4.84(4) 678. 4.504 4.765
43922. 0.90956 4.93(4) 665. 4.504 4.919
43935. 0.90983 5.28(4) 617. 4.503 5.221
43948. 0.91010 5.60(4) 574. 4.503 5.531
43961. 0.91038 5.61(4) 575. 4.502 5.650
43974. 0.91065 5.56(4) 582. 4.502 5.610
43988. 0.91092 5.55(4) 581. 4.501 5.535
44001. 0.91120 5.47(4) 594. 4.501 5.456
44014. 0.91147 5.36(4) 604. 4.500 5.349
44027. 0.91174 5.22(4) 621. 4.500 5.214
44040. 0.91202 5.14(4) 630. 4.499 5.088
44054. 0.91229 5.00(4) 649. 4.498 4.984
44067. 0.91256 4.84(4) 683. 4.498 4.903
44080. 0.91284 4.81(4) 684. 4.497 4.869
44093. 0.91311 4.79(4) 684. 4.497 4.875
44106. 0.91339 4.76(4) 686. 4.496 4.865
44120. 0.91366 4.70(4) 703. 4.496 4.818
44133. 0.91393 4.76(4) 694. 4.495 4.789
44146. 0.91421 4.84(4) 680. 4.495 4.829
44159. 0.91448 4.93(4) 663. 4.494 4.922
44173. 0.91476 5.03(4) 650. 4.494 4.969
44186. 0.91503 4.91(4) 665. 4.493 4.917
44199. 0.91531 4.77(4) 689. 4.493 4.815
44212. 0.91558 4.70(4) 696. 4.492 4.729
44226. 0.91585 4.59(4) 725. 4.492 4.686
44239. 0.91613 4.69(4) 698. 4.491 4.686
44252. 0.91640 4.65(4) 718. 4.490 4.701
44265. 0.91668 4.66(4) 710. 4.490 4.702
44279. 0.91695 4.78(4) 689. 4.489 4.705
44292. 0.91723 4.82(4) 684. 4.489 4.729
44305. 0.91750 4.82(4) 685. 4.488 4.774
44319. 0.91778 4.82(4) 686. 4.488 4.810
44332. 0.91806 4.82(4) 680. 4.487 4.798
44345. 0.91833 4.74(4) 699. 4.487 4.770
44359. 0.91861 4.75(4) 704. 4.486 4.776
44372. 0.91888 4.81(4) 687. 4.486 4.811
44385. 0.91916 4.79(4) 689. 4.485 4.833
44398. 0.91943 4.82(4) 678. 4.484 4.811
44412. 0.91971 4.71(4) 704. 4.484 4.761
44425. 0.91999 4.72(4) 701. 4.483 4.717
44438. 0.92026 4.68(4) 708. 4.483 4.689
44452. 0.92054 4.71(4) 703. 4.482 4.674
44465. 0.92081 4.69(4) 708. 4.482 4.666
44478. 0.92109 4.63(4) 718. 4.481 4.657
44492. 0.92137 4.60(4) 729. 4.481 4.642
44505. 0.92164 4.61(4) 723. 4.480 4.637
44518. 0.92192 4.70(4) 706. 4.480 4.651
44532. 0.92220 4.64(4) 715. 4.479 4.670
44545. 0.92247 4.60(4) 723. 4.478 4.667
44559. 0.92275 4.65(4) 715. 4.478 4.644
44572. 0.92303 4.60(4) 725. 4.477 4.622
44585. 0.92330 4.51(4) 738. 4.477 4.621
44599. 0.92358 4.57(4) 729. 4.476 4.634
44612. 0.92386 4.60(4) 723. 4.476 4.646
44625. 0.92414 4.64(4) 715. 4.475 4.660
44639. 0.92441 4.67(4) 712. 4.475 4.690
44652. 0.92469 4.80(4) 697. 4.474 4.753
44666. 0.92497 4.88(4) 689. 4.474 4.851
44679. 0.92524 5.00(4) 662. 4.473 4.956
44692. 0.92552 5.01(4) 659. 4.472 5.003
44706. 0.92580 4.91(4) 681. 4.472 4.952
44719. 0.92608 4.83(4) 694. 4.471 4.868
44733. 0.92636 4.89(4) 681. 4.471 4.835
44746. 0.92663 4.92(4) 678. 4.470 4.892
44759. 0.92691 5.04(4) 662. 4.470 4.994
44773. 0.92719 5.08(4) 660. 4.469 5.069
44786. 0.92747 5.19(4) 644. 4.469 5.104
44800. 0.92775 5.17(4) 645. 4.468 5.067
44813. 0.92802 4.93(4) 680. 4.468 4.958
44827. 0.92830 4.90(4) 677. 4.467 4.843
44840. 0.92858 4.80(4) 697. 4.466 4.772
44854. 0.92886 4.76(4) 702. 4.466 4.744
44867. 0.92914 4.66(4) 718. 4.465 4.724
44880. 0.92942 4.73(4) 705. 4.465 4.699
44894. 0.92970 4.72(4) 706. 4.464 4.706
44907. 0.92998 4.75(4) 704. 4.464 4.780
44921. 0.93025 4.89(4) 683. 4.463 4.902
44934. 0.93053 4.94(4) 674. 4.463 4.985
44948. 0.93081 4.84(4) 690. 4.462 4.963
44961. 0.93109 4.83(4) 694. 4.462 4.875
44975. 0.93137 4.71(4) 709. 4.461 4.783
44988. 0.93165 4.68(4) 710. 4.460 4.720
45002. 0.93193 4.67(4) 722. 4.460 4.693
45015. 0.93221 4.74(4) 712. 4.459 4.688
45029. 0.93249 4.73(4) 713. 4.459 4.699
45042. 0.93277 4.76(4) 711. 4.458 4.743
45056. 0.93305 4.84(4) 698. 4.458 4.844
45069. 0.93333 5.03(4) 667. 4.457 5.043
45083. 0.93361 5.23(4) 638. 4.457 5.273
45096. 0.93389 5.35(4) 619. 4.456 5.348
45110. 0.93417 5.18(4) 650. 4.456 5.249
45123. 0.93445 5.06(4) 659. 4.455 5.101
45137. 0.93473 4.96(4) 678. 4.454 4.996
45151. 0.93501 5.03(4) 661. 4.454 4.956
45164. 0.93529 4.93(4) 682. 4.453 4.969
45178. 0.93557 5.01(4) 666. 4.453 5.015
45191. 0.93585 5.07(4) 658. 4.452 5.052
45205. 0.93613 5.01(4) 666. 4.452 5.020
45218. 0.93642 4.85(4) 692. 4.451 4.916
45232. 0.93670 4.76(4) 708. 4.451 4.800
45245. 0.93698 4.71(4) 713. 4.450 4.724
45259. 0.93726 4.70(4) 716. 4.450 4.708
45273. 0.93754 4.75(4) 709. 4.449 4.756
45286. 0.93782 4.89(4) 692. 4.448 4.855
45300. 0.93810 4.98(4) 675. 4.448 4.957
45313. 0.93838 4.97(4) 674. 4.447 4.982
45327. 0.93867 4.91(4) 679. 4.447 4.906
45341. 0.93895 4.83(4) 690. 4.446 4.799
45354. 0.93923 4.71(4) 713. 4.446 4.736
45368. 0.93951 4.84(4) 702. 4.445 4.756
45381. 0.93979 4.89(4) 690. 4.445 4.866
45395. 0.94007 4.99(4) 671. 4.444 5.019
45409. 0.94036 5.11(4) 662. 4.444 5.136
45422. 0.94064 5.14(4) 655. 4.443 5.177
45436. 0.94092 5.07(4) 659. 4.443 5.116
45449. 0.94120 4.90(4) 687. 4.442 4.995
45463. 0.94149 4.93(4) 682. 4.441 4.905
45477. 0.94177 4.90(4) 684. 4.441 4.873
45490. 0.94205 4.75(4) 707. 4.440 4.846
45504. 0.94233 4.76(4) 710. 4.440 4.802
45518. 0.94262 4.73(4) 715. 4.439 4.759
45531. 0.94290 4.70(4) 714. 4.439 4.713
45545. 0.94318 4.66(4) 725. 4.438 4.666
45559. 0.94347 4.64(4) 727. 4.438 4.644
45572. 0.94375 4.63(4) 728. 4.437 4.645
45586. 0.94403 4.65(4) 728. 4.437 4.633
45600. 0.94431 4.54(4) 748. 4.436 4.603
45613. 0.94460 4.49(4) 760. 4.436 4.585
45627. 0.94488 4.51(4) 749. 4.435 4.598
45641. 0.94516 4.59(4) 737. 4.434 4.640
45654. 0.94545 4.65(4) 733. 4.434 4.688
45668. 0.94573 4.68(4) 723. 4.433 4.710
45682. 0.94602 4.64(4) 727. 4.433 4.703
45696. 0.94630 4.73(4) 708. 4.432 4.679
45709. 0.94658 4.59(4) 732. 4.432 4.650
45723. 0.94687 4.58(4) 737. 4.431 4.634
45737. 0.94715 4.63(4) 728. 4.431 4.648
45750. 0.94744 4.62(4) 733. 4.430 4.674
45764. 0.94772 4.64(4) 729. 4.430 4.680
45778. 0.94800 4.62(4) 734. 4.429 4.673
45792. 0.94829 4.62(4) 737. 4.429 4.682
45805. 0.94857 4.72(4) 713. 4.428 4.728
45819. 0.94886 4.84(4) 696. 4.428 4.790
45833. 0.94914 4.94(4) 676. 4.427 4.850
45847. 0.94943 4.96(4) 673. 4.426 4.913
45860. 0.94971 5.01(4) 667. 4.426 4.977
45874. 0.95000 5.01(4) 669. 4.425 4.991
45888. 0.95028 4.91(4) 682. 4.425 4.916
45902. 0.95057 4.78(4) 704. 4.424 4.800
45915. 0.95085 4.74(4) 710. 4.424 4.714
45929. 0.95114 4.70(4) 718. 4.423 4.684
45943. 0.95142 4.71(4) 711. 4.423 4.692
45957. 0.95171 4.77(4) 701. 4.422 4.716
45970. 0.95199 4.75(4) 708. 4.422 4.769
45984. 0.95228 4.84(4) 692. 4.421 4.836
45998. 0.95257 4.81(4) 697. 4.421 4.848
46012. 0.95285 4.77(4) 704. 4.420 4.783
46026. 0.95314 4.71(4) 710. 4.420 4.698
46039. 0.95342 4.64(4) 724. 4.419 4.635
46053. 0.95371 4.71(4) 705. 4.419 4.597
46067. 0.95400 4.67(4) 714. 4.418 4.575
46081. 0.95428 4.67(4) 719. 4.418 4.566
46095. 0.95457 4.65(4) 723. 4.417 4.562
46109. 0.95486 4.61(4) 723. 4.417 4.549
46122. 0.95514 4.59(4) 727. 4.416 4.533
46136. 0.95543 4.57(4) 727. 4.415 4.539
46150. 0.95572 4.56(4) 733. 4.415 4.585
46164. 0.95600 4.60(4) 726. 4.414 4.653
46178. 0.95629 4.66(4) 723. 4.414 4.685
46192. 0.95658 4.58(4) 735. 4.413 4.654
46205. 0.95686 4.58(4) 731. 4.413 4.602
46219. 0.95715 4.52(4) 741. 4.412 4.575
46233. 0.95744 4.54(4) 732. 4.412 4.590
46247. 0.95772 4.58(4) 723. 4.411 4.619
46261. 0.95801 4.66(4) 710. 4.411 4.616
46275. 0.95830 4.59(4) 731. 4.410 4.582
46289. 0.95859 4.51(4) 743. 4.410 4.554
46303. 0.95887 4.55(4) 731. 4.409 4.555
46317. 0.95916 4.58(4) 724. 4.409 4.570
46330. 0.95945 4.53(4) 736. 4.408 4.570
46344. 0.95974 4.49(4) 742. 4.408 4.549
46358. 0.96003 4.48(4) 742. 4.407 4.519
46372. 0.96031 4.47(4) 740. 4.407 4.494
46386. 0.96060 4.46(4) 744. 4.406 4.477
46400. 0.96089 4.45(4) 747. 4.406 4.465
46414. 0.96118 4.44(4) 753. 4.405 4.459
46428. 0.96147 4.32(4) 773. 4.405 4.459
46442. 0.96176 4.37(4) 758. 4.404 4.457
46456. 0.96204 4.44(4) 749. 4.404 4.450
46470. 0.96233 4.36(4) 770. 4.403 4.444
46484. 0.96262 4.41(4) 761. 4.403 4.445
46497. 0.96291 4.41(4) 754. 4.402 4.454
46511. 0.96320 4.45(4) 746. 4.402 4.464
46525. 0.96349 4.43(4) 751. 4.401 4.467
46539. 0.96378 4.44(4) 749. 4.401 4.461
46553. 0.96407 4.40(4) 751. 4.400 4.456
46567. 0.96436 4.48(4) 739. 4.400 4.464
46581. 0.96465 4.45(4) 747. 4.399 4.483
46595. 0.96493 4.47(4) 745. 4.399 4.492
46609. 0.96522 4.51(4) 730. 4.398 4.481
46623. 0.96551 4.40(4) 748. 4.398 4.464
46637. 0.96580 4.37(4) 766. 4.397 4.454
46651. 0.96609 4.41(4) 754. 4.397 4.456
46665. 0.96638 4.46(4) 747. 4.396 4.466
46679. 0.96667 4.47(4) 741. 4.396 4.484
46693. 0.96696 4.45(4) 744. 4.395 4.509
46707. 0.96725 4.46(4) 747. 4.395 4.536
46721. 0.96754 4.53(4) 736. 4.394 4.566
46735. 0.96783 4.64(4) 712. 4.394 4.612
46749. 0.96812 4.64(4) 710. 4.393 4.656
46763. 0.96841 4.66(4) 721. 4.393 4.667
46777. 0.96871 4.70(4) 708. 4.392 4.664
46791. 0.96900 4.62(4) 722. 4.392 4.661
46805. 0.96929 4.59(4) 729. 4.391 4.647
46819. 0.96958 4.57(4) 736. 4.391 4.628
46833. 0.96987 4.60(4) 727. 4.390 4.609
46847. 0.97016 4.56(4) 733. 4.390 4.597
46862. 0.97045 4.54(4) 739. 4.389 4.602
46876. 0.97074 4.58(4) 729. 4.389 4.604
46890. 0.97103 4.54(4) 736. 4.389 4.578
46904. 0.97132 4.48(4) 747. 4.388 4.538
46918. 0.97162 4.49(4) 746. 4.388 4.513
46932. 0.97191 4.42(4) 763. 4.387 4.523
46946. 0.97220 4.54(4) 745. 4.387 4.563
46960. 0.97249 4.54(4) 747. 4.386 4.594
46974. 0.97278 4.59(4) 734. 4.386 4.589
46988. 0.97307 4.59(4) 736. 4.385 4.572
47002. 0.97337 4.52(4) 745. 4.385 4.564
47016. 0.97366 4.59(4) 732. 4.384 4.569
47030. 0.97395 4.54(4) 741. 4.384 4.583
47045. 0.97424 4.62(4) 724. 4.383 4.601
47059. 0.97454 4.60(4) 730. 4.383 4.604
47073. 0.97483 4.52(4) 743. 4.382 4.582
47087. 0.97512 4.57(4) 740. 4.382 4.546
47101. 0.97541 4.49(4) 751. 4.381 4.515
47115. 0.97571 4.49(4) 754. 4.381 4.500
47129. 0.97600 4.49(4) 755. 4.380 4.497
47143. 0.97629 4.49(4) 753. 4.380 4.501
47158. 0.97658 4.48(4) 756. 4.380 4.516
47172. 0.97688 4.47(4) 759. 4.379 4.530
47186. 0.97717 4.55(4) 740. 4.379 4.528
47200. 0.97746 4.50(4) 756. 4.378 4.523
47214. 0.97776 4.57(4) 744. 4.378 4.557
47228. 0.97805 4.70(4) 723. 4.377 4.657
47243. 0.97834 4.80(4) 699. 4.377 4.771
47257. 0.97864 4.85(4) 693. 4.376 4.803
47271. 0.97893 4.78(4) 706. 4.376 4.759
47285. 0.97922 4.69(4) 725. 4.375 4.690
47299. 0.97952 4.62(4) 733. 4.375 4.624
47313. 0.97981 4.54(4) 750. 4.374 4.584
47328. 0.98011 4.51(4) 769. 4.374 4.585
47342. 0.98040 4.67(4) 728. 4.374 4.647
47356. 0.98069 4.80(4) 705. 4.373 4.762
47370. 0.98099 4.96(4) 682. 4.373 4.870
47384. 0.98128 4.94(4) 685. 4.372 4.897
47399. 0.98158 4.83(4) 706. 4.372 4.818
47413. 0.98187 4.68(4) 721. 4.371 4.699
47427. 0.98217 4.60(4) 741. 4.371 4.603
47441. 0.98246 4.50(4) 759. 4.370 4.552
47456. 0.98276 4.50(4) 755. 4.370 4.544
47470. 0.98305 4.54(4) 750. 4.370 4.557
47484. 0.98335 4.44(4) 768. 4.369 4.551
47498. 0.98364 4.56(4) 745. 4.369 4.520
47513. 0.98394 4.44(4) 766. 4.368 4.486
47527. 0.98423 4.41(4) 771. 4.368 4.464
47541. 0.98453 4.42(4) 774. 4.367 4.466
47555. 0.98482 4.45(4) 771. 4.367 4.502
47570. 0.98512 4.54(4) 747. 4.366 4.568
47584. 0.98541 4.61(4) 737. 4.366 4.632
47598. 0.98571 4.57(4) 744. 4.366 4.656
47612. 0.98600 4.65(4) 723. 4.365 4.638
47627. 0.98630 4.51(4) 753. 4.365 4.604
47641. 0.98660 4.60(4) 739. 4.364 4.584
47655. 0.98689 4.54(4) 754. 4.364 4.584
47670. 0.98719 4.62(4) 740. 4.363 4.608
47684. 0.98749 4.69(4) 723. 4.363 4.642
47698. 0.98778 4.65(4) 734. 4.363 4.664
47713. 0.98808 4.64(4) 737. 4.362 4.652
47727. 0.98837 4.63(4) 734. 4.362 4.628
47741. 0.98867 4.61(4) 739. 4.361 4.624
47755. 0.98897 4.66(4) 734. 4.361 4.650
47770. 0.98926 4.65(4) 732. 4.360 4.698
47784. 0.98956 4.74(4) 716. 4.360 4.732
47798. 0.98986 4.77(4) 705. 4.360 4.705
47813. 0.99015 4.63(4) 733. 4.359 4.632
47827. 0.99045 4.45(4) 772. 4.359 4.558
47842. 0.99075 4.55(4) 743. 4.358 4.506
47856. 0.99105 4.49(4) 756. 4.358 4.478
47870. 0.99134 4.49(4) 758. 4.357 4.477
47885. 0.99164 4.52(4) 753. 4.357 4.510
47899. 0.99194 4.54(4) 749. 4.357 4.584
47913. 0.99224 4.64(4) 732. 4.356 4.671
47928. 0.99253 4.71(4) 718. 4.356 4.722
47942. 0.99283 4.66(4) 732. 4.355 4.725
47956. 0.99313 4.74(4) 722. 4.355 4.747
47971. 0.99343 4.82(4) 707. 4.355 4.843
47985. 0.99373 4.93(4) 687. 4.354 4.990
48000. 0.99402 5.09(4) 662. 4.354 5.113
48014. 0.99432 5.05(4) 664. 4.353 5.110
48028. 0.99462 4.95(4) 682. 4.353 4.974
48043. 0.99492 4.78(4) 708. 4.353 4.801
48057. 0.99522 4.61(4) 740. 4.352 4.662
48072. 0.99552 4.55(4) 742. 4.352 4.571
48086. 0.99582 4.52(4) 752. 4.351 4.529
48101. 0.99611 4.47(4) 765. 4.351 4.537
48115. 0.99641 4.56(4) 743. 4.351 4.581
48129. 0.99671 4.51(4) 752. 4.350 4.619
48144. 0.99701 4.56(4) 752. 4.350 4.630
48158. 0.99731 4.63(4) 738. 4.349 4.670
48173. 0.99761 4.74(4) 714. 4.349 4.775
48187. 0.99791 4.75(4) 713. 4.349 4.875
48202. 0.99821 4.81(4) 699. 4.348 4.883
48216. 0.99851 4.82(4) 702. 4.348 4.817
48231. 0.99881 4.68(4) 725. 4.347 4.748
48245. 0.99911 4.68(4) 727. 4.347 4.723
48259. 0.99941 4.70(4) 724. 4.347 4.759
48274. 0.99971 4.79(4) 708. 4.346 4.815
48288. 1.00001 4.80(4) 704. 4.346 4.807
48303. 1.00031 4.73(4) 719. 4.345 4.741
48317. 1.00061 4.72(4) 730. 4.345 4.714
48332. 1.00091 4.86(4) 711. 4.345 4.827
48346. 1.00121 5.17(4) 659. 4.344 5.115
48361. 1.00151 5.45(4) 628. 4.344 5.440
48375. 1.00181 5.53(4) 613. 4.343 5.583
48390. 1.00211 5.45(4) 623. 4.343 5.555
48404. 1.00241 5.30(4) 641. 4.343 5.411
48419. 1.00271 5.21(4) 648. 4.342 5.194
48433. 1.00301 4.95(4) 686. 4.342 4.990
48448. 1.00331 4.88(4) 701. 4.342 4.843
48463. 1.00361 4.79(4) 711. 4.341 4.754
48477. 1.00391 4.78(4) 706. 4.341 4.711
48492. 1.00422 4.74(4) 713. 4.340 4.703
48506. 1.00452 4.75(4) 712. 4.340 4.699
48521. 1.00482 4.63(4) 733. 4.340 4.662
48535. 1.00512 4.65(4) 731. 4.339 4.603
48550. 1.00542 4.53(4) 750. 4.339 4.551
48564. 1.00572 4.58(4) 736. 4.339 4.512
48579. 1.00602 4.47(4) 759. 4.338 4.478
48594. 1.00633 4.42(4) 772. 4.338 4.449
48608. 1.00663 4.46(4) 757. 4.337 4.429
48623. 1.00693 4.45(4) 763. 4.337 4.414
48637. 1.00723 4.39(4) 772. 4.337 4.402
48652. 1.00754 4.37(4) 773. 4.336 4.400
48667. 1.00784 4.37(4) 780. 4.336 4.421
48681. 1.00814 4.43(4) 771. 4.336 4.487
48696. 1.00844 4.49(4) 762. 4.335 4.598
48710. 1.00875 4.57(4) 739. 4.335 4.705
48725. 1.00905 4.70(4) 715. 4.335 4.741
48740. 1.00935 4.64(4) 732. 4.334 4.719
48754. 1.00965 4.67(4) 727. 4.334 4.721
48769. 1.00996 4.72(4) 723. 4.333 4.778
48783. 1.01026 4.85(4) 702. 4.333 4.844
48798. 1.01056 4.78(4) 710. 4.333 4.855
48813. 1.01087 4.77(4) 712. 4.332 4.811
48827. 1.01117 4.73(4) 717. 4.332 4.766
48842. 1.01147 4.70(4) 718. 4.332 4.714
48857. 1.01178 4.52(4) 757. 4.331 4.635
48871. 1.01208 4.52(4) 749. 4.331 4.555
48886. 1.01238 4.58(4) 737. 4.331 4.504
48901. 1.01269 4.51(4) 752. 4.330 4.495
48915. 1.01299 4.60(4) 736. 4.330 4.538
48930. 1.01329 4.68(4) 723. 4.330 4.642
48945. 1.01360 4.82(4) 707. 4.329 4.805
48959. 1.01390 4.95(4) 680. 4.329 4.988
48974. 1.01421 5.05(4) 665. 4.329 5.055
48989. 1.01451 4.95(4) 679. 4.328 4.948
49003. 1.01482 4.77(4) 714. 4.328 4.775
49018. 1.01512 4.59(4) 733. 4.328 4.632
49033. 1.01543 4.58(4) 732. 4.327 4.539
49048. 1.01573 4.45(4) 760. 4.327 4.487
49062. 1.01603 4.44(4) 758. 4.327 4.460
49077. 1.01634 4.41(4) 762. 4.326 4.444
49092. 1.01664 4.42(4) 766. 4.326 4.436
49106. 1.01695 4.46(4) 758. 4.326 4.440
49121. 1.01725 4.48(4) 761. 4.325 4.473
49136. 1.01756 4.64(4) 732. 4.325 4.568
49151. 1.01787 4.81(4) 710. 4.325 4.763
49165. 1.01817 5.11(4) 658. 4.324 4.989
49180. 1.01848 5.10(4) 657. 4.324 5.059
49195. 1.01878 5.01(4) 666. 4.324 4.948
49210. 1.01909 4.83(4) 696. 4.323 4.782
49224. 1.01939 4.71(4) 721. 4.323 4.645
49239. 1.01970 4.61(4) 732. 4.323 4.563
49254. 1.02000 4.53(4) 749. 4.322 4.548
49269. 1.02031 4.68(4) 712. 4.322 4.621
49283. 1.02062 4.85(4) 690. 4.322 4.770
49298. 1.02092 4.94(4) 683. 4.321 4.901
49313. 1.02123 5.00(4) 666. 4.321 4.921
49328. 1.02154 4.95(4) 667. 4.321 4.874
49343. 1.02184 4.84(4) 689. 4.320 4.810
49357. 1.02215 4.77(4) 703. 4.320 4.736
49372. 1.02246 4.62(4) 726. 4.320 4.650
49387. 1.02276 4.54(4) 741. 4.319 4.572
49402. 1.02307 4.56(4) 736. 4.319 4.529
49417. 1.02338 4.57(4) 738. 4.319 4.548
49432. 1.02368 4.71(4) 710. 4.319 4.654
49446. 1.02399 4.85(4) 688. 4.318 4.842
49461. 1.02430 5.08(4) 657. 4.318 5.050
49476. 1.02461 5.09(4) 656. 4.318 5.195
49491. 1.02491 5.23(4) 631. 4.317 5.228
49506. 1.02522 5.16(4) 644. 4.317 5.126
49521. 1.02553 4.96(4) 669. 4.317 4.938
49535. 1.02584 4.77(4) 705. 4.316 4.753
49550. 1.02614 4.62(4) 722. 4.316 4.616
49565. 1.02645 4.60(4) 726. 4.316 4.525
49580. 1.02676 4.55(4) 735. 4.316 4.469
49595. 1.02707 4.39(4) 766. 4.315 4.440
49610. 1.02738 4.44(4) 760. 4.315 4.450
49625. 1.02768 4.60(4) 728. 4.315 4.532
49640. 1.02799 4.73(4) 710. 4.314 4.700
49654. 1.02830 4.92(4) 682. 4.314 4.892
49669. 1.02861 5.08(4) 661. 4.314 5.033
49684. 1.02892 5.22(4) 633. 4.313 5.153
49699. 1.02923 5.25(4) 627. 4.313 5.193
49714. 1.02954 5.10(4) 650. 4.313 5.071
49729. 1.02984 4.85(4) 689. 4.313 4.874
49744. 1.03015 4.65(4) 718. 4.312 4.706
49759. 1.03046 4.57(4) 730. 4.312 4.616
49774. 1.03077 4.67(4) 718. 4.312 4.623
49789. 1.03108 4.73(4) 707. 4.311 4.719
49804. 1.03139 4.73(4) 706. 4.311 4.811
49819. 1.03170 4.76(4) 698. 4.311 4.793
49833. 1.03201 4.69(4) 717. 4.311 4.710
49848. 1.03232 4.71(4) 714. 4.310 4.654
49863. 1.03263 4.75(4) 705. 4.310 4.670
49878. 1.03294 4.82(4) 694. 4.310 4.753
49893. 1.03325 4.92(4) 687. 4.310 4.893
49908. 1.03356 5.17(4) 644. 4.309 5.124
49923. 1.03387 5.44(4) 620. 4.309 5.480
49938. 1.03418 5.80(4) 572. 4.309 5.855
49953. 1.03449 5.92(4) 550. 4.308 5.933
49968. 1.03480 5.54(4) 602. 4.308 5.658
49983. 1.03511 5.28(4) 629. 4.308 5.291
49998. 1.03542 4.99(4) 672. 4.308 5.013
50013. 1.03573 4.76(4) 706. 4.307 4.838
50028. 1.03604 4.69(4) 715. 4.307 4.729
50043. 1.03635 4.76(4) 704. 4.307 4.688
50058. 1.03666 4.77(4) 701. 4.307 4.722
50073. 1.03698 4.80(4) 696. 4.306 4.783
50088. 1.03729 4.86(4) 688. 4.306 4.774
50103. 1.03760 4.78(4) 698. 4.306 4.701
50118. 1.03791 4.72(4) 713. 4.305 4.645
50133. 1.03822 4.72(4) 711. 4.305 4.657
50148. 1.03853 4.74(4) 714. 4.305 4.724
50163. 1.03884 4.72(4) 716. 4.305 4.774
50178. 1.03916 4.75(4) 709. 4.304 4.774
50194. 1.03947 4.75(4) 710. 4.304 4.770
50209. 1.03978 4.83(4) 699. 4.304 4.812
50224. 1.04009 4.88(4) 684. 4.304 4.875
50239. 1.04040 4.81(4) 698. 4.303 4.855
50254. 1.04072 4.73(4) 711. 4.303 4.744
50269. 1.04103 4.63(4) 726. 4.303 4.618
50284. 1.04134 4.53(4) 741. 4.303 4.527
50299. 1.04165 4.51(4) 746. 4.302 4.479
50314. 1.04196 4.50(4) 744. 4.302 4.458
50329. 1.04228 4.40(4) 770. 4.302 4.441
50344. 1.04259 4.38(4) 772. 4.302 4.419
50359. 1.04290 4.40(4) 764. 4.301 4.402
50375. 1.04322 4.44(4) 767. 4.301 4.399
50390. 1.04353 4.46(4) 756. 4.301 4.420
50405. 1.04384 4.49(4) 756. 4.301 4.488
50420. 1.04416 4.76(4) 698. 4.300 4.616
50435. 1.04447 4.74(4) 705. 4.300 4.752
50450. 1.04478 4.80(4) 688. 4.300 4.796
50465. 1.04510 4.74(4) 703. 4.300 4.745
50480. 1.04541 4.61(4) 730. 4.299 4.680
50496. 1.04572 4.62(4) 730. 4.299 4.662
50511. 1.04604 4.68(4) 725. 4.299 4.703
50526. 1.04635 4.74(4) 707. 4.299 4.771
50541. 1.04666 4.81(4) 698. 4.299 4.837
50556. 1.04698 4.97(4) 669. 4.298 4.913
50571. 1.04729 4.97(4) 667. 4.298 4.962
50587. 1.04761 4.92(4) 675. 4.298 4.912
50602. 1.04792 4.74(4) 709. 4.298 4.782
50617. 1.04824 4.58(4) 734. 4.297 4.651
50632. 1.04855 4.62(4) 719. 4.297 4.578
50647. 1.04886 4.51(4) 743. 4.297 4.577
50662. 1.04918 4.52(4) 740. 4.297 4.608
50678. 1.04949 4.58(4) 724. 4.296 4.611
50693. 1.04981 4.57(4) 720. 4.296 4.585
50708. 1.05012 4.57(4) 730. 4.296 4.543
50723. 1.05044 4.45(4) 756. 4.296 4.492
50738. 1.05075 4.41(4) 756. 4.296 4.450
50754. 1.05107 4.46(4) 745. 4.295 4.432
50769. 1.05139 4.53(4) 735. 4.295 4.448
50784. 1.05170 4.53(4) 738. 4.295 4.505
50799. 1.05202 4.61(4) 724. 4.295 4.629
50815. 1.05233 4.85(4) 688. 4.294 4.852
50830. 1.05265 5.15(4) 642. 4.294 5.122
50845. 1.05296 5.34(4) 620. 4.294 5.320
50860. 1.05328 5.39(4) 607. 4.294 5.320
50876. 1.05360 5.18(4) 637. 4.294 5.138
50891. 1.05391 5.01(4) 662. 4.293 4.919
50906. 1.05423 4.77(4) 692. 4.293 4.758
50921. 1.05454 4.66(4) 713. 4.293 4.668
50937. 1.05486 4.61(4) 718. 4.293 4.616
50952. 1.05518 4.57(4) 726. 4.292 4.581
50967. 1.05549 4.60(4) 714. 4.292 4.583
50983. 1.05581 4.60(4) 726. 4.292 4.626
50998. 1.05613 4.64(4) 717. 4.292 4.659
51013. 1.05644 4.65(4) 711. 4.292 4.653
51028. 1.05676 4.59(4) 724. 4.291 4.632
51044. 1.05708 4.55(4) 728. 4.291 4.609
51059. 1.05740 4.56(4) 724. 4.291 4.592
51074. 1.05771 4.57(4) 717. 4.291 4.575
51090. 1.05803 4.54(4) 727. 4.291 4.535
51105. 1.05835 4.55(4) 718. 4.290 4.488
51120. 1.05867 4.49(4) 737. 4.290 4.475
51136. 1.05898 4.57(4) 731. 4.290 4.546
51151. 1.05930 4.81(4) 687. 4.290 4.726
51166. 1.05962 4.94(4) 668. 4.290 4.923
51182. 1.05994 5.09(4) 645. 4.289 4.981
51197. 1.06025 4.99(4) 663. 4.289 4.951
51212. 1.06057 5.02(4) 656. 4.289 4.971
51228. 1.06089 5.05(4) 653. 4.289 5.013
51243. 1.06121 5.04(4) 649. 4.289 4.958
51259. 1.06153 4.88(4) 675. 4.288 4.827
51274. 1.06185 4.73(4) 696. 4.288 4.693
51289. 1.06216 4.60(4) 724. 4.288 4.599
51305. 1.06248 4.63(4) 715. 4.288 4.581
51320. 1.06280 4.69(4) 706. 4.288 4.656
51336. 1.06312 4.76(4) 691. 4.287 4.754
51351. 1.06344 4.77(4) 686. 4.287 4.751
51366. 1.06376 4.71(4) 691. 4.287 4.656
51382. 1.06408 4.56(4) 726. 4.287 4.553
51397. 1.06440 4.50(4) 731. 4.287 4.490
51413. 1.06472 4.50(4) 730. 4.287 4.463
51428. 1.06504 4.40(4) 747. 4.286 4.446
51443. 1.06536 4.40(4) 751. 4.286 4.419
51459. 1.06568 4.40(4) 747. 4.286 4.395
51474. 1.06600 4.42(4) 745. 4.286 4.392
51490. 1.06632 4.44(4) 747. 4.286 4.438
51505. 1.06664 4.59(4) 718. 4.285 4.548
51521. 1.06696 4.69(4) 699. 4.285 4.684
51536. 1.06728 4.75(4) 689. 4.285 4.762
51552. 1.06760 4.77(4) 691. 4.285 4.740
51567. 1.06792 4.68(4) 701. 4.285 4.645
51582. 1.06824 4.53(4) 734. 4.285 4.541
51598. 1.06856 4.43(4) 742. 4.284 4.467
51613. 1.06888 4.44(4) 744. 4.284 4.430
51629. 1.06920 4.40(4) 748. 4.284 4.421
51644. 1.06952 4.38(4) 758. 4.284 4.424
51660. 1.06984 4.39(4) 747. 4.284 4.425
51675. 1.07016 4.39(4) 753. 4.283 4.421
51691. 1.07048 4.44(4) 744. 4.283 4.416
51706. 1.07080 4.40(4) 755. 4.283 4.431
51722. 1.07112 4.53(4) 734. 4.283 4.519
51737. 1.07145 4.77(4) 693. 4.283 4.770
51753. 1.07177 5.07(4) 649. 4.283 5.195
51768. 1.07209 5.37(4) 610. 4.282 5.555
51784. 1.07241 5.45(4) 595. 4.282 5.554
51800. 1.07273 5.20(4) 636. 4.282 5.291
51815. 1.07305 5.00(4) 657. 4.282 4.995
51831. 1.07338 4.79(4) 685. 4.282 4.769
51846. 1.07370 4.60(4) 721. 4.282 4.629
51862. 1.07402 4.53(4) 735. 4.281 4.572
51877. 1.07434 4.59(4) 720. 4.281 4.589
51893. 1.07467 4.63(4) 713. 4.281 4.648
51908. 1.07499 4.68(4) 710. 4.281 4.702
51924. 1.07531 4.77(4) 691. 4.281 4.766
51940. 1.07563 4.86(4) 679. 4.281 4.846
51955. 1.07596 4.93(4) 665. 4.280 4.878
51971. 1.07628 4.89(4) 669. 4.280 4.846
51986. 1.07660 4.78(4) 693. 4.280 4.767
52002. 1.07692 4.67(4) 700. 4.280 4.681
52018. 1.07725 4.64(4) 707. 4.280 4.621
52033. 1.07757 4.64(4) 709. 4.280 4.583
52049. 1.07789 4.57(4) 722. 4.280 4.580
52064. 1.07822 4.59(4) 716. 4.279 4.623
52080. 1.07854 4.64(4) 713. 4.279 4.654
52096. 1.07886 4.55(4) 717. 4.279 4.624
52111. 1.07919 4.49(4) 736. 4.279 4.572
52127. 1.07951 4.48(4) 738. 4.279 4.537
52143. 1.07984 4.49(4) 735. 4.279 4.515
52158. 1.08016 4.46(4) 749. 4.278 4.525
52174. 1.08048 4.61(4) 718. 4.278 4.647
52189. 1.08081 4.97(4) 664. 4.278 4.953
52205. 1.08113 5.30(4) 611. 4.278 5.329
52221. 1.08146 5.41(4) 595. 4.278 5.451
52236. 1.08178 5.29(4) 615. 4.278 5.260
52252. 1.08211 5.02(4) 648. 4.278 4.982
52268. 1.08243 4.81(4) 678. 4.277 4.776
52283. 1.08276 4.60(4) 719. 4.277 4.674
52299. 1.08308 4.65(4) 707. 4.277 4.643
52315. 1.08341 4.63(4) 710. 4.277 4.642
52331. 1.08373 4.73(4) 694. 4.277 4.669
52346. 1.08406 4.79(4) 686. 4.277 4.708
52362. 1.08438 4.77(4) 685. 4.277 4.707
52378. 1.08471 4.67(4) 700. 4.276 4.639
52393. 1.08503 4.57(4) 721. 4.276 4.544
52409. 1.08536 4.51(4) 730. 4.276 4.463
52425. 1.08568 4.44(4) 740. 4.276 4.408
52441. 1.08601 4.38(4) 754. 4.276 4.376
52456. 1.08633 4.41(4) 745. 4.276 4.366
52472. 1.08666 4.42(4) 747. 4.276 4.383
52488. 1.08699 4.44(4) 742. 4.275 4.432
52503. 1.08731 4.55(4) 724. 4.275 4.505
52519. 1.08764 4.73(4) 693. 4.275 4.619
52535. 1.08797 4.90(4) 669. 4.275 4.828
52551. 1.08829 5.19(4) 630. 4.275 5.135
52567. 1.08862 5.34(4) 610. 4.275 5.421
52582. 1.08895 5.50(4) 588. 4.275 5.582
52598. 1.08927 5.51(4) 583. 4.274 5.599
52614. 1.08960 5.45(4) 588. 4.274 5.450
52630. 1.08993 5.19(4) 631. 4.274 5.220
52645. 1.09025 4.94(4) 657. 4.274 5.023
52661. 1.09058 4.87(4) 665. 4.274 4.889
52677. 1.09091 4.73(4) 694. 4.274 4.778
52693. 1.09123 4.59(4) 715. 4.274 4.664
52709. 1.09156 4.53(4) 714. 4.273 4.562
52724. 1.09189 4.45(4) 733. 4.273 4.492
52740. 1.09222 4.51(4) 724. 4.273 4.472
52756. 1.09254 4.51(4) 722. 4.273 4.525
52772. 1.09287 4.69(4) 694. 4.273 4.634
52788. 1.09320 4.69(4) 689. 4.273 4.699
52804. 1.09353 4.62(4) 702. 4.273 4.655
52819. 1.09386 4.54(4) 723. 4.273 4.567
52835. 1.09418 4.52(4) 721. 4.272 4.506
52851. 1.09451 4.53(4) 726. 4.272 4.527
52867. 1.09484 4.65(4) 703. 4.272 4.686
52883. 1.09517 4.98(4) 646. 4.272 4.972
52899. 1.09550 5.20(4) 617. 4.272 5.209
52915. 1.09583 5.24(4) 610. 4.272 5.217
52930. 1.09616 5.04(4) 644. 4.272 5.041
52946. 1.09649 4.82(4) 677. 4.272 4.832
52962. 1.09681 4.68(4) 703. 4.271 4.685
52978. 1.09714 4.67(4) 700. 4.271 4.634
52994. 1.09747 4.72(4) 696. 4.271 4.677
53010. 1.09780 4.76(4) 682. 4.271 4.759
53026. 1.09813 4.73(4) 687. 4.271 4.780
53042. 1.09846 4.75(4) 679. 4.271 4.716
53058. 1.09879 4.63(4) 698. 4.271 4.613
53074. 1.09912 4.51(4) 723. 4.271 4.519
53089. 1.09945 4.47(4) 720. 4.270 4.457
53105. 1.09978 4.41(4) 744. 4.270 4.434
53121. 1.10011 4.45(4) 738. 4.270 4.478
53137. 1.10044 4.69(4) 695. 4.270 4.643
53153. 1.10077 4.97(4) 648. 4.270 4.926
53169. 1.10110 5.17(4) 618. 4.270 5.147
53185. 1.10143 5.09(4) 632. 4.270 5.122
53201. 1.10176 5.01(4) 640. 4.270 4.937
53217. 1.10209 4.77(4) 678. 4.269 4.745
53233. 1.10242 4.61(4) 706. 4.269 4.612
53249. 1.10275 4.56(4) 712. 4.269 4.543
53265. 1.10308 4.60(4) 704. 4.269 4.536
53281. 1.10342 4.67(4) 695. 4.269 4.610
53297. 1.10375 4.90(4) 668. 4.269 4.809
53313. 1.10408 5.23(4) 624. 4.269 5.187
53329. 1.10441 5.68(4) 572. 4.269 5.729
53345. 1.10474 6.24(4) 509. 4.269 6.250
53361. 1.10507 6.41(4) 501. 4.268 6.418
53377. 1.10540 6.15(4) 526. 4.268 6.224
53393. 1.10573 5.90(4) 549. 4.268 5.898
53409. 1.10607 5.61(4) 574. 4.268 5.562
53425. 1.10640 5.26(4) 619. 4.268 5.246
53441. 1.10673 5.06(4) 641. 4.268 5.003
53457. 1.10706 4.90(4) 663. 4.268 4.864
53473. 1.10739 4.79(4) 673. 4.268 4.790
53489. 1.10773 4.68(4) 691. 4.267 4.726
53505. 1.10806 4.68(4) 679. 4.267 4.659
53521. 1.10839 4.66(4) 690. 4.267 4.592
53537. 1.10872 4.62(4) 700. 4.267 4.560
53553. 1.10906 4.59(4) 702. 4.267 4.616
53569. 1.10939 4.79(4) 674. 4.267 4.769
53585. 1.10972 5.01(4) 638. 4.267 4.928
53601. 1.11006 5.06(4) 636. 4.267 5.013
53618. 1.11039 5.14(4) 627. 4.267 5.070
53634. 1.11072 5.07(4) 632. 4.266 5.134
53650. 1.11106 5.13(4) 617. 4.266 5.167
53666. 1.11139 5.10(4) 625. 4.266 5.087
53682. 1.11172 4.91(4) 655. 4.266 4.927
53698. 1.11206 4.87(4) 656. 4.266 4.812
53714. 1.11239 4.92(4) 652. 4.266 4.839
53730. 1.11272 4.97(4) 647. 4.266 4.974
53746. 1.11306 4.94(4) 647. 4.266 5.031
53762. 1.11339 4.95(4) 646. 4.266 4.931
53779. 1.11372 4.85(4) 659. 4.266 4.807
53795. 1.11406 4.77(4) 677. 4.265 4.794
53811. 1.11439 4.92(4) 643. 4.265 4.921
53827. 1.11473 5.06(4) 621. 4.265 5.070
53843. 1.11506 5.07(4) 621. 4.265 5.057
53859. 1.11540 4.93(4) 645. 4.265 4.901
53875. 1.11573 4.74(4) 673. 4.265 4.718
53892. 1.11607 4.56(4) 702. 4.265 4.574
53908. 1.11640 4.46(4) 718. 4.265 4.476
53924. 1.11674 4.40(4) 724. 4.265 4.416
53940. 1.11707 4.35(4) 731. 4.264 4.385
53956. 1.11741 4.42(4) 723. 4.264 4.381
53973. 1.11774 4.41(4) 720. 4.264 4.405
53989. 1.11808 4.49(4) 700. 4.264 4.443
54005. 1.11841 4.46(4) 711. 4.264 4.459
54021. 1.11875 4.41(4) 724. 4.264 4.441
54037. 1.11908 4.46(4) 708. 4.264 4.421
54054. 1.11942 4.48(4) 709. 4.264 4.445
54070. 1.11976 4.55(4) 692. 4.264 4.536
54086. 1.12009 4.71(4) 670. 4.263 4.657
54102. 1.12043 4.85(4) 645. 4.263 4.730
54118. 1.12076 4.83(4) 657. 4.263 4.788
54135. 1.12110 4.98(4) 630. 4.263 4.908
54151. 1.12144 5.14(4) 617. 4.263 5.101
54167. 1.12177 5.34(4) 594. 4.263 5.356
54183. 1.12211 5.62(4) 556. 4.263 5.576
54200. 1.12245 5.61(4) 557. 4.263 5.630
54216. 1.12278 5.48(4) 574. 4.263 5.548
54232. 1.12312 5.41(4) 583. 4.263 5.437
54248. 1.12346 5.40(4) 581. 4.262 5.356
54265. 1.12379 5.25(4) 600. 4.262 5.285
54281. 1.12413 5.21(4) 596. 4.262 5.161
54297. 1.12447 5.05(4) 626. 4.262 5.032
54314. 1.12481 5.06(4) 626. 4.262 5.021
54330. 1.12514 5.21(4) 606. 4.262 5.158
54346. 1.12548 5.37(4) 577. 4.262 5.282
54362. 1.12582 5.26(4) 597. 4.262 5.234
54379. 1.12616 5.10(4) 616. 4.262 5.110
54395. 1.12649 5.00(4) 628. 4.262 5.032
54411. 1.12683 4.97(4) 628. 4.261 4.974
54428. 1.12717 4.89(4) 643. 4.261 4.865
54444. 1.12751 4.75(4) 667. 4.261 4.728
54460. 1.12785 4.64(4) 677. 4.261 4.613
54477. 1.12819 4.57(4) 692. 4.261 4.535
54493. 1.12852 4.58(4) 690. 4.261 4.502
54509. 1.12886 4.55(4) 697. 4.261 4.557
54526. 1.12920 4.84(4) 655. 4.261 4.765
54542. 1.12954 5.14(4) 614. 4.261 5.127
54559. 1.12988 5.50(4) 567. 4.261 5.455
54575. 1.13022 5.62(4) 566. 4.260 5.604
54591. 1.13056 5.80(4) 547. 4.260 5.772
54608. 1.13090 6.20(4) 509. 4.260 6.165
54624. 1.13124 6.53(5) 473. 4.260 6.527
54640. 1.13158 6.43(5) 484. 4.260 6.408
54657. 1.13191 5.96(4) 527. 4.260 5.913
54673. 1.13225 5.45(4) 576. 4.260 5.387
54690. 1.13259 5.08(4) 619. 4.260 4.995
54706. 1.13293 4.75(4) 668. 4.260 4.738
54722. 1.13327 4.63(4) 686. 4.259 4.576
54739. 1.13361 4.53(4) 697. 4.259 4.475
54755. 1.13395 4.42(4) 713. 4.259 4.414
54772. 1.13429 4.40(4) 718. 4.259 4.378
54788. 1.13463 4.35(4) 730. 4.259 4.365
54805. 1.13498 4.38(4) 725. 4.259 4.382
54821. 1.13532 4.44(4) 710. 4.259 4.433
54837. 1.13566 4.53(4) 691. 4.259 4.495
54854. 1.13600 4.57(4) 691. 4.259 4.554
54870. 1.13634 4.68(4) 678. 4.259 4.674
54887. 1.13668 4.91(4) 644. 4.258 4.907
54903. 1.13702 5.15(4) 612. 4.258 5.138
54920. 1.13736 5.20(4) 606. 4.258 5.199
54936. 1.13770 5.26(4) 598. 4.258 5.181
54953. 1.13804 5.26(4) 602. 4.258 5.236
54969. 1.13839 5.40(4) 578. 4.258 5.324
54986. 1.13873 5.23(4) 598. 4.258 5.321
55002. 1.13907 5.20(4) 597. 4.258 5.241
55019. 1.13941 5.03(4) 623. 4.258 5.094
55035. 1.13975 4.89(4) 641. 4.258 4.920
55052. 1.14009 4.76(4) 662. 4.257 4.804
55068. 1.14044 4.77(4) 657. 4.257 4.774
55085. 1.14078 4.74(4) 661. 4.257 4.781
55101. 1.14112 4.73(4) 661. 4.257 4.745
55118. 1.14146 4.70(4) 669. 4.257 4.673
55134. 1.14181 4.56(4) 684. 4.257 4.616
55151. 1.14215 4.62(4) 679. 4.257 4.602
55167. 1.14249 4.72(4) 667. 4.257 4.673
55184. 1.14283 5.01(4) 628. 4.257 4.955
55200. 1.14318 5.47(4) 574. 4.257 5.493
55217. 1.14352 5.96(4) 518. 4.256 5.978
55234. 1.14386 6.03(4) 512. 4.256 5.982
55250. 1.14421 5.53(4) 563. 4.256 5.607
55267. 1.14455 5.18(4) 608. 4.256 5.181
55283. 1.14489 4.85(4) 647. 4.256 4.861
55300. 1.14524 4.67(4) 668. 4.256 4.654
55317. 1.14558 4.50(4) 688. 4.256 4.530
55333. 1.14592 4.51(4) 691. 4.256 4.461
55350. 1.14627 4.43(4) 701. 4.256 4.421
55366. 1.14661 4.37(4) 718. 4.255 4.392
55383. 1.14696 4.33(4) 731. 4.255 4.374
55400. 1.14730 4.42(4) 704. 4.255 4.384
55416. 1.14764 4.52(4) 696. 4.255 4.479
55433. 1.14799 4.81(4) 650. 4.255 4.739
55449. 1.14833 5.22(4) 595. 4.255 5.135
55466. 1.14868 5.56(4) 552. 4.255 5.418
55483. 1.14902 5.53(4) 557. 4.255 5.470
55499. 1.14937 5.51(4) 560. 4.255 5.469
55516. 1.14971 5.43(4) 567. 4.255 5.470
55533. 1.15006 5.32(4) 581. 4.254 5.370
55549. 1.15040 5.16(4) 600. 4.254 5.196
55566. 1.15075 5.10(4) 611. 4.254 5.032
55583. 1.15109 4.95(4) 628. 4.254 4.947
55599. 1.15144 5.02(4) 628. 4.254 5.063
55616. 1.15178 5.42(4) 574. 4.254 5.388
55633. 1.15213 5.59(4) 548. 4.254 5.621
55649. 1.15247 5.44(4) 572. 4.254 5.497
55666. 1.15282 5.14(4) 600. 4.254 5.174
55683. 1.15317 4.80(4) 648. 4.253 4.870
55699. 1.15351 4.66(4) 659. 4.253 4.660
55716. 1.15386 4.53(4) 689. 4.253 4.534
55733. 1.15420 4.50(4) 684. 4.253 4.486
55750. 1.15455 4.51(4) 688. 4.253 4.539
55766. 1.15490 4.73(4) 653. 4.253 4.712
55783. 1.15524 4.86(4) 631. 4.253 4.916
55800. 1.15559 4.94(4) 618. 4.253 4.973
55817. 1.15594 4.89(4) 629. 4.253 4.862
55833. 1.15628 4.73(4) 650. 4.252 4.698
55850. 1.15663 4.64(4) 662. 4.252 4.570
55867. 1.15698 4.58(4) 671. 4.252 4.530
55884. 1.15732 4.57(4) 674. 4.252 4.618
55900. 1.15767 4.73(4) 645. 4.252 4.813
55917. 1.15802 4.90(4) 623. 4.252 4.945
55934. 1.15837 4.81(4) 634. 4.252 4.895
55951. 1.15871 4.70(4) 652. 4.252 4.758
55967. 1.15906 4.58(4) 670. 4.252 4.631
55984. 1.15941 4.58(4) 670. 4.251 4.551
56001. 1.15976 4.54(4) 676. 4.251 4.532
56018. 1.16011 4.63(4) 665. 4.251 4.585
56035. 1.16045 4.69(4) 648. 4.251 4.673
56051. 1.16080 4.69(4) 653. 4.251 4.700
56068. 1.16115 4.66(4) 650. 4.251 4.633
56085. 1.16150 4.53(4) 675. 4.251 4.535
56102. 1.16185 4.45(4) 698. 4.251 4.458
56119. 1.16220 4.49(4) 687. 4.251 4.417
56136. 1.16254 4.45(4) 688. 4.250 4.401
56152. 1.16289 4.42(4) 684. 4.250 4.404
56169. 1.16324 4.46(4) 693. 4.250 4.449
56186. 1.16359 4.72(4) 658. 4.250 4.628
56203. 1.16394 5.26(4) 588. 4.250 5.085
56220. 1.16429 5.87(4) 522. 4.250 5.761
56237. 1.16464 6.26(5) 476. 4.250 6.162
56254. 1.16499 6.04(4) 495. 4.250 5.979
56270. 1.16534 5.56(4) 541. 4.249 5.513
56287. 1.16569 5.00(4) 607. 4.249 5.086
56304. 1.16604 4.71(4) 654. 4.249 4.792
56321. 1.16639 4.57(4) 670. 4.249 4.608
56338. 1.16674 4.49(4) 677. 4.249 4.496
56355. 1.16709 4.49(4) 675. 4.249 4.434
56372. 1.16744 4.49(4) 677. 4.249 4.416
56389. 1.16779 4.53(4) 675. 4.249 4.465
56406. 1.16814 4.65(4) 659. 4.248 4.655
56423. 1.16849 5.02(4) 615. 4.248 5.085
56439. 1.16884 5.65(4) 539. 4.248 5.719
56456. 1.16919 6.08(5) 492. 4.248 6.203
56473. 1.16954 6.20(5) 476. 4.248 6.142
56490. 1.16989 5.72(4) 530. 4.248 5.701
56507. 1.17024 5.23(4) 583. 4.248 5.238
56524. 1.17059 4.87(4) 626. 4.248 4.913
56541. 1.17095 4.66(4) 650. 4.248 4.724
56558. 1.17130 4.47(4) 684. 4.247 4.614
56575. 1.17165 4.48(4) 676. 4.247 4.530
56592. 1.17200 4.44(4) 688. 4.247 4.463
56609. 1.17235 4.39(4) 691. 4.247 4.429
56626. 1.17270 4.44(4) 691. 4.247 4.464
56643. 1.17305 4.62(4) 663. 4.247 4.617
56660. 1.17341 4.99(4) 608. 4.247 4.914
56677. 1.17376 5.36(4) 562. 4.246 5.310
56694. 1.17411 5.67(4) 528. 4.246 5.653
56711. 1.17446 5.65(4) 525. 4.246 5.664
56728. 1.17482 5.34(4) 562. 4.246 5.365
56745. 1.17517 5.02(4) 598. 4.246 5.011
56762. 1.17552 4.74(4) 641. 4.246 4.746
56779. 1.17587 4.57(4) 664. 4.246 4.578
56796. 1.17623 4.52(4) 659. 4.246 4.478
56813. 1.17658 4.43(4) 677. 4.245 4.422
56830. 1.17693 4.38(4) 684. 4.245 4.401
56847. 1.17729 4.46(4) 677. 4.245 4.431
56864. 1.17764 4.64(4) 656. 4.245 4.601
56881. 1.17799 5.06(4) 608. 4.245 5.073
56898. 1.17835 5.88(4) 510. 4.245 5.864
56915. 1.17870 6.46(5) 451. 4.245 6.498
56933. 1.17905 6.46(5) 451. 4.245 6.457
56950. 1.17941 5.93(4) 499. 4.244 5.958
56967. 1.17976 5.37(4) 556. 4.244 5.417
56984. 1.18011 4.99(4) 603. 4.244 5.019
57001. 1.18047 4.71(4) 637. 4.244 4.773
57018. 1.18082 4.65(4) 648. 4.244 4.646
57035. 1.18118 4.62(4) 645. 4.244 4.595
57052. 1.18153 4.64(4) 641. 4.244 4.576
57069. 1.18189 4.58(4) 654. 4.243 4.571
57086. 1.18224 4.72(4) 635. 4.243 4.626
57104. 1.18260 4.93(4) 610. 4.243 4.875
57121. 1.18295 5.37(4) 566. 4.243 5.470
57138. 1.18331 6.27(5) 471. 4.243 6.270
57155. 1.18366 6.81(5) 424. 4.243 6.719
57172. 1.18402 6.53(5) 447. 4.243 6.541
57189. 1.18437 6.11(5) 484. 4.242 6.093
57206. 1.18473 5.66(4) 525. 4.242 5.729
57224. 1.18508 5.41(4) 543. 4.242 5.472
57241. 1.18544 5.21(4) 567. 4.242 5.260
57258. 1.18579 5.15(4) 572. 4.242 5.133
57275. 1.18615 5.11(4) 584. 4.242 5.120
57292. 1.18650 5.12(4) 588. 4.242 5.211
57309. 1.18686 5.32(4) 555. 4.241 5.323
57327. 1.18722 5.35(4) 550. 4.241 5.274
57344. 1.18757 5.05(4) 590. 4.241 5.068
57361. 1.18793 4.93(4) 600. 4.241 4.854
57378. 1.18829 4.74(4) 624. 4.241 4.734
57396. 1.18864 4.69(4) 635. 4.241 4.727
57413. 1.18900 4.71(4) 626. 4.241 4.764
57430. 1.18936 4.72(4) 630. 4.240 4.752
57447. 1.18971 4.69(4) 627. 4.240 4.711
57464. 1.19007 4.74(4) 626. 4.240 4.700
57482. 1.19043 4.72(4) 632. 4.240 4.699
57499. 1.19078 4.73(4) 625. 4.240 4.645
57516. 1.19114 4.58(4) 649. 4.240 4.550
57533. 1.19150 4.56(4) 646. 4.239 4.459
57551. 1.19186 4.48(4) 656. 4.239 4.393
57568. 1.19221 4.42(4) 669. 4.239 4.350
57585. 1.19257 4.38(4) 675. 4.239 4.327
57602. 1.19293 4.35(4) 677. 4.239 4.326
57620. 1.19329 4.39(4) 682. 4.239 4.368
57637. 1.19365 4.42(4) 670. 4.239 4.466
57654. 1.19400 4.56(4) 651. 4.238 4.569
57672. 1.19436 4.56(4) 651. 4.238 4.591
57689. 1.19472 4.62(4) 642. 4.238 4.555
57706. 1.19508 4.55(4) 654. 4.238 4.546
57724. 1.19544 4.69(4) 634. 4.238 4.591
57741. 1.19580 4.75(4) 619. 4.238 4.623
57758. 1.19615 4.70(4) 628. 4.237 4.584
57776. 1.19651 4.64(4) 637. 4.237 4.513
57793. 1.19687 4.55(4) 654. 4.237 4.469
57810. 1.19723 4.40(4) 680. 4.237 4.486
57828. 1.19759 4.47(4) 660. 4.237 4.546
57845. 1.19795 4.53(4) 651. 4.237 4.571
57862. 1.19831 4.49(4) 658. 4.236 4.528
57880. 1.19867 4.40(4) 675. 4.236 4.465
57897. 1.19903 4.37(4) 679. 4.236 4.419
57914. 1.19939 4.38(4) 674. 4.236 4.389
57932. 1.19975 4.35(4) 680. 4.236 4.365
57949. 1.20011 4.30(4) 691. 4.236 4.360
57966. 1.20047 4.38(4) 678. 4.235 4.402
57984. 1.20083 4.52(4) 651. 4.235 4.504
58001. 1.20119 4.57(4) 642. 4.235 4.607
58019. 1.20155 4.64(4) 635. 4.235 4.648
58036. 1.20191 4.71(4) 634. 4.235 4.716
58053. 1.20227 4.95(4) 600. 4.235 4.993
58071. 1.20263 5.43(4) 541. 4.234 5.524
58088. 1.20299 5.89(5) 489. 4.234 5.986
58106. 1.20335 6.00(5) 485. 4.234 5.974
58123. 1.20371 5.74(4) 508. 4.234 5.609
58141. 1.20408 5.29(4) 552. 4.234 5.208
58158. 1.20444 4.96(4) 593. 4.233 4.938
58175. 1.20480 4.78(4) 622. 4.233 4.810
58193. 1.20516 4.78(4) 615. 4.233 4.747
58210. 1.20552 4.68(4) 626. 4.233 4.671
58228. 1.20588 4.61(4) 632. 4.233 4.592
58245. 1.20624 4.53(4) 650. 4.233 4.555
58263. 1.20661 4.59(4) 642. 4.232 4.602
58280. 1.20697 4.72(4) 624. 4.232 4.776
58298. 1.20733 4.99(4) 587. 4.232 5.057
58315. 1.20769 5.32(4) 542. 4.232 5.250
58333. 1.20806 5.23(4) 552. 4.232 5.168
58350. 1.20842 4.92(4) 595. 4.232 4.930
58368. 1.20878 4.74(4) 617. 4.231 4.707
58385. 1.20914 4.57(4) 637. 4.231 4.555
58403. 1.20951 4.47(4) 648. 4.231 4.466
58420. 1.20987 4.44(4) 659. 4.231 4.425
58438. 1.21023 4.44(4) 661. 4.231 4.441
58455. 1.21060 4.55(4) 649. 4.230 4.571
58473. 1.21096 4.94(4) 600. 4.230 4.927
58490. 1.21132 5.53(4) 528. 4.230 5.575
58508. 1.21169 6.36(5) 452. 4.230 6.409
58526. 1.21205 7.18(5) 395. 4.230 7.187
58543. 1.21241 7.58(5) 369. 4.229 7.513
58561. 1.21278 7.10(5) 398. 4.229 7.097
58578. 1.21314 6.27(5) 459. 4.229 6.325
58596. 1.21350 5.61(4) 519. 4.229 5.653
58613. 1.21387 5.16(4) 563. 4.229 5.221
58631. 1.21423 4.97(4) 585. 4.228 4.947
58649. 1.21460 4.75(4) 609. 4.228 4.741
58666. 1.21496 4.55(4) 640. 4.228 4.584
58684. 1.21533 4.46(4) 651. 4.228 4.478
58701. 1.21569 4.43(4) 653. 4.228 4.419
58719. 1.21606 4.41(4) 657. 4.227 4.414
58737. 1.21642 4.49(4) 652. 4.227 4.511
58754. 1.21678 4.70(4) 618. 4.227 4.775
58772. 1.21715 5.12(4) 557. 4.227 5.151
58789. 1.21752 5.38(4) 524. 4.227 5.427
58807. 1.21788 5.54(4) 511. 4.226 5.501
58825. 1.21825 5.36(4) 528. 4.226 5.411
58842. 1.21861 5.29(4) 541. 4.226 5.280
58860. 1.21898 5.20(4) 548. 4.226 5.163
58878. 1.21934 4.89(4) 588. 4.226 4.999
58895. 1.21971 4.72(4) 611. 4.225 4.805
58913. 1.22007 4.62(4) 614. 4.225 4.651
58931. 1.22044 4.56(4) 632. 4.225 4.589
58948. 1.22081 4.65(4) 619. 4.225 4.661
58966. 1.22117 4.86(4) 592. 4.225 4.887
58984. 1.22154 5.15(4) 555. 4.224 5.175
59001. 1.22191 5.37(4) 524. 4.224 5.346
59019. 1.22227 5.27(4) 539. 4.224 5.303
59037. 1.22264 5.17(4) 554. 4.224 5.188
59055. 1.22301 5.21(4) 546. 4.224 5.202
59072. 1.22337 5.41(4) 526. 4.223 5.414
59090. 1.22374 5.73(5) 494. 4.223 5.763
59108. 1.22411 6.07(5) 460. 4.223 6.056
59125. 1.22447 6.08(5) 457. 4.223 6.049
59143. 1.22484 5.82(5) 480. 4.223 5.756
59161. 1.22521 5.32(4) 532. 4.222 5.346
59179. 1.22558 4.92(4) 574. 4.222 4.993
59196. 1.22595 4.81(4) 584. 4.222 4.775
59214. 1.22631 4.66(4) 600. 4.222 4.672
59232. 1.22668 4.65(4) 600. 4.221 4.609
59250. 1.22705 4.51(4) 628. 4.221 4.540
59268. 1.22742 4.51(4) 620. 4.221 4.491
59285. 1.22779 4.52(4) 624. 4.221 4.517
59303. 1.22815 4.62(4) 609. 4.221 4.651
59321. 1.22852 4.79(4) 586. 4.220 4.846
59339. 1.22889 4.98(4) 557. 4.220 4.977
59356. 1.22926 5.03(4) 555. 4.220 5.004
59374. 1.22963 5.04(4) 555. 4.220 5.042
59392. 1.23000 5.11(4) 549. 4.219 5.110
59410. 1.23037 5.13(4) 540. 4.219 5.087
59428. 1.23074 5.08(4) 548. 4.219 4.964
59446. 1.23111 4.97(4) 564. 4.219 4.803
59463. 1.23147 4.96(4) 573. 4.218 4.651
59481. 1.23184 4.89(4) 587. 4.218 4.550
59499. 1.23221 5.00(4) 575. 4.218 4.541
59517. 1.23258 5.22(4) 535. 4.218 4.686
59535. 1.23295 5.53(5) 488. 4.218 5.034
59553. 1.23332 5.82(5) 461. 4.217 5.533
59571. 1.23369 6.03(5) 445. 4.217 6.065
59588. 1.23406 6.37(5) 418. 4.217 6.472
59606. 1.23443 6.43(5) 416. 4.217 6.429
59624. 1.23480 5.99(5) 449. 4.216 6.002
59642. 1.23517 5.51(5) 490. 4.216 5.516
59660. 1.23555 5.13(4) 538. 4.216 5.163
59678. 1.23592 5.03(4) 548. 4.216 5.047
59696. 1.23629 5.16(4) 524. 4.215 5.208
59714. 1.23666 5.50(5) 488. 4.215 5.466
59732. 1.23703 5.60(5) 483. 4.215 5.528
59749. 1.23740 5.51(5) 490. 4.215 5.425
59767. 1.23777 5.38(4) 511. 4.214 5.331
59785. 1.23814 5.34(4) 510. 4.214 5.278
59803. 1.23851 5.23(4) 519. 4.214 5.160
59821. 1.23889 5.03(4) 536. 4.214 4.950
59839. 1.23926 4.86(4) 554. 4.214 4.742
59857. 1.23963 4.86(4) 543. 4.213 4.621
59875. 1.24000 4.86(4) 541. 4.213 4.648
59893. 1.24037 4.95(4) 514. 4.213 4.846
59911. 1.24075 5.09(5) 472. 4.213 5.102
59929. 1.24112 5.15(5) 451. 4.212 5.171
59947. 1.24149 4.98(5) 455. 4.212 5.011
59965. 1.24186 4.85(5) 458. 4.212 4.779
59983. 1.24224 4.59(5) 487. 4.212 4.586
60001. 1.24261 4.49(4) 498. 4.211 4.454
60019. 1.24298 4.39(4) 498. 4.211 4.370
60037. 1.24335 4.35(4) 503. 4.211 4.317
60055. 1.24373 4.37(4) 496. 4.211 4.285
60073. 1.24410 4.28(4) 511. 4.210 4.265
60091. 1.24447 4.30(4) 507. 4.210 4.256
60109. 1.24485 4.41(5) 491. 4.210 4.258
60127. 1.24522 4.34(4) 497. 4.209 4.267
60145. 1.24559 4.30(4) 506. 4.209 4.270
60163. 1.24597 4.29(4) 507. 4.209 4.262
60181. 1.24634 4.25(4) 513. 4.209 4.250
60199. 1.24672 4.23(4) 517. 4.208 4.240
60217. 1.24709 4.21(4) 519. 4.208 4.233
60235. 1.24746 4.25(4) 518. 4.208 4.229
60253. 1.24784 4.28(4) 504. 4.208 4.228
60271. 1.24821 4.22(4) 515. 4.207 4.229
60290. 1.24859 4.30(4) 508. 4.207 4.235
60308. 1.24896 4.20(4) 524. 4.207 4.250
60326. 1.24934 4.21(4) 531. 4.207 4.265
60344. 1.24971 4.18(4) 532. 4.206 4.266
60362. 1.25009 4.23(4) 521. 4.206 4.258
60380. 1.25046 4.18(4) 534. 4.206 4.248
60398. 1.25084 4.25(4) 525. 4.206 4.242
60416. 1.25121 4.34(4) 512. 4.205 4.239
60434. 1.25159 4.26(4) 526. 4.205 4.240
60453. 1.25196 4.31(4) 516. 4.205 4.251
60471. 1.25234 4.31(4) 520. 4.204 4.280
60489. 1.25271 4.34(4) 518. 4.204 4.332
60507. 1.25309 4.38(4) 516. 4.204 4.383
60525. 1.25347 4.41(4) 516. 4.204 4.426
60543. 1.25384 4.54(4) 503. 4.203 4.531
60561. 1.25422 4.78(5) 474. 4.203 4.771
60580. 1.25459 5.03(5) 451. 4.203 5.071
60598. 1.25497 5.10(5) 443. 4.203 5.180
60616. 1.25535 4.90(5) 467. 4.202 5.044
60634. 1.25572 4.75(5) 487. 4.202 4.841
60652. 1.25610 4.66(4) 496. 4.202 4.729
60671. 1.25648 4.86(5) 467. 4.201 4.805
60689. 1.25686 5.08(5) 456. 4.201 5.076
60707. 1.25723 5.36(5) 426. 4.201 5.354
60725. 1.25761 5.40(5) 418. 4.201 5.373
60743. 1.25799 5.18(5) 447. 4.200 5.162
60762. 1.25836 4.81(4) 499. 4.200 4.920
60780. 1.25874 4.81(4) 511. 4.200 4.767
60798. 1.25912 4.75(4) 531. 4.199 4.719
60816. 1.25950 4.74(4) 535. 4.199 4.740
60835. 1.25988 4.72(4) 548. 4.199 4.757
60853. 1.26025 4.70(4) 563. 4.199 4.709
60871. 1.26063 4.64(4) 578. 4.198 4.620
60889. 1.26101 4.59(4) 593. 4.198 4.546
60908. 1.26139 4.47(4) 622. 4.198 4.522
60926. 1.26177 4.49(4) 619. 4.197 4.525
60944. 1.26214 4.53(4) 610. 4.197 4.524
60962. 1.26252 4.57(4) 602. 4.197 4.531
60981. 1.26290 4.55(4) 608. 4.197 4.536
60999. 1.26328 4.48(4) 620. 4.196 4.509
61017. 1.26366 4.47(4) 629. 4.196 4.475
61036. 1.26404 4.60(4) 607. 4.196 4.508
61054. 1.26442 4.84(4) 586. 4.195 4.760
61072. 1.26480 5.36(4) 526. 4.195 5.414
61091. 1.26518 6.34(5) 437. 4.195 6.362
61109. 1.26556 6.98(5) 388. 4.195 6.984
61127. 1.26594 6.93(5) 392. 4.194 6.891
61146. 1.26632 6.49(5) 425. 4.194 6.506
61164. 1.26670 6.37(5) 436. 4.194 6.331
61182. 1.26708 6.27(5) 446. 4.193 6.310
61201. 1.26746 6.07(5) 455. 4.193 6.105
61219. 1.26784 5.75(5) 493. 4.193 5.740
61237. 1.26822 5.57(4) 506. 4.192 5.510
61256. 1.26860 5.71(4) 500. 4.192 5.630
61274. 1.26898 6.15(5) 455. 4.192 6.092
61292. 1.26936 6.61(5) 426. 4.191 6.634
61311. 1.26974 7.19(5) 390. 4.191 7.233
61329. 1.27012 8.13(5) 339.4 4.191 8.207
61348. 1.27050 9.11(6) 293.2 4.191 9.098
61366. 1.27088 8.97(6) 298.5 4.190 8.908
61384. 1.27127 7.93(5) 344.8 4.190 7.894
61403. 1.27165 6.90(5) 408. 4.190 6.969
61421. 1.27203 6.55(5) 428. 4.189 6.650
61440. 1.27241 6.78(5) 408. 4.189 6.866
61458. 1.27279 7.04(5) 389. 4.189 7.060
61477. 1.27317 6.96(5) 391. 4.188 6.884
61495. 1.27356 6.48(5) 423. 4.188 6.471
61513. 1.27394 5.93(5) 469. 4.188 5.942
61532. 1.27432 5.40(4) 514. 4.187 5.440
61550. 1.27470 5.10(4) 544. 4.187 5.104
61569. 1.27508 4.97(4) 560. 4.187 4.989
61587. 1.27547 5.02(4) 548. 4.187 5.017
61606. 1.27585 5.02(4) 543. 4.186 5.000
61624. 1.27623 4.94(4) 555. 4.186 4.877
61643. 1.27662 4.78(4) 581. 4.186 4.783
61661. 1.27700 4.91(4) 569. 4.185 4.921
61680. 1.27738 5.30(4) 533. 4.185 5.461
61698. 1.27777 6.22(5) 437. 4.185 6.237
61717. 1.27815 6.58(5) 409. 4.184 6.597
61735. 1.27853 6.35(5) 425. 4.184 6.287
61754. 1.27892 5.72(5) 478. 4.184 5.724
61772. 1.27930 5.23(4) 529. 4.183 5.246
61791. 1.27968 4.89(4) 556. 4.183 4.908
61809. 1.28007 4.57(4) 605. 4.183 4.681
61828. 1.28045 4.50(4) 610. 4.182 4.547
61846. 1.28084 4.40(4) 629. 4.182 4.486
61865. 1.28122 4.50(4) 608. 4.182 4.456
61884. 1.28160 4.39(4) 621. 4.181 4.416
61902. 1.28199 4.34(4) 633. 4.181 4.366
61921. 1.28237 4.28(4) 639. 4.181 4.324
61939. 1.28276 4.26(4) 643. 4.180 4.295
61958. 1.28314 4.23(4) 648. 4.180 4.279
61976. 1.28353 4.24(4) 644. 4.180 4.275
61995. 1.28391 4.24(4) 654. 4.179 4.287
62014. 1.28430 4.30(4) 640. 4.179 4.340
62032. 1.28468 4.53(4) 609. 4.179 4.506
62051. 1.28507 4.84(4) 573. 4.178 4.891
62069. 1.28546 5.39(4) 510. 4.178 5.507
62088. 1.28584 6.09(5) 444. 4.178 6.126
62107. 1.28623 6.36(5) 422. 4.177 6.375
62125. 1.28661 6.15(5) 438. 4.177 6.228
62144. 1.28700 5.88(5) 457. 4.177 5.847
62163. 1.28738 5.38(4) 509. 4.176 5.412
62181. 1.28777 5.04(4) 546. 4.176 5.098
62200. 1.28816 5.01(4) 549. 4.176 5.008
62219. 1.28854 5.21(4) 526. 4.175 5.170
62237. 1.28893 5.56(5) 488. 4.175 5.442
62256. 1.28932 5.69(5) 472. 4.175 5.583
62275. 1.28970 5.62(5) 482. 4.174 5.559
62293. 1.29009 5.37(4) 505. 4.174 5.376
62312. 1.29048 5.11(4) 534. 4.174 5.092
62331. 1.29087 4.77(4) 577. 4.173 4.856
62349. 1.29125 4.71(4) 591. 4.173 4.806
62368. 1.29164 4.95(4) 552. 4.173 5.021
62387. 1.29203 5.31(4) 507. 4.172 5.370
62406. 1.29242 5.46(5) 491. 4.172 5.485
62424. 1.29280 5.31(4) 507. 4.172 5.272
62443. 1.29319 4.88(4) 559. 4.171 4.961
62462. 1.29358 4.71(4) 579. 4.171 4.715
62480. 1.29397 4.42(4) 619. 4.171 4.552
62499. 1.29436 4.46(4) 616. 4.170 4.474
62518. 1.29474 4.54(4) 604. 4.170 4.530
62537. 1.29513 4.70(4) 582. 4.170 4.749
62555. 1.29552 4.98(4) 538. 4.169 4.987
62574. 1.29591 4.95(4) 543. 4.169 5.002
62593. 1.29630 4.77(4) 572. 4.169 4.816
62612. 1.29669 4.59(4) 590. 4.168 4.600
62631. 1.29708 4.39(4) 618. 4.168 4.441
62649. 1.29747 4.27(4) 638. 4.168 4.340
62668. 1.29786 4.20(4) 652. 4.167 4.279
62687. 1.29824 4.21(4) 642. 4.167 4.241
62706. 1.29863 4.18(4) 645. 4.167 4.218
62725. 1.29902 4.13(4) 664. 4.166 4.203
62743. 1.29941 4.12(4) 660. 4.166 4.194
62762. 1.29980 4.16(4) 652. 4.165 4.189
62781. 1.30019 4.19(4) 638. 4.165 4.185
62800. 1.30058 4.14(4) 652. 4.165 4.183
62819. 1.30097 4.10(4) 659. 4.164 4.184
62838. 1.30136 4.11(4) 666. 4.164 4.189
62856. 1.30175 4.13(4) 665. 4.164 4.209
62875. 1.30215 4.19(4) 649. 4.163 4.250
62894. 1.30254 4.21(4) 648. 4.163 4.298
62913. 1.30293 4.30(4) 624. 4.163 4.315
62932. 1.30332 4.31(4) 628. 4.162 4.293
62951. 1.30371 4.20(4) 646. 4.162 4.256
62970. 1.30410 4.17(4) 650. 4.162 4.226
62989. 1.30449 4.12(4) 653. 4.161 4.207
63007. 1.30488 4.13(4) 659. 4.161 4.197
63026. 1.30527 4.08(4) 659. 4.160 4.194
63045. 1.30567 4.11(4) 649. 4.160 4.194
63064. 1.30606 4.09(4) 653. 4.160 4.193
63083. 1.30645 4.15(4) 645. 4.159 4.190
63102. 1.30684 4.10(4) 656. 4.159 4.191
63121. 1.30723 4.14(4) 649. 4.159 4.199
63140. 1.30763 4.25(4) 627. 4.158 4.232
63159. 1.30802 4.26(4) 629. 4.158 4.337
63178. 1.30841 4.54(4) 592. 4.158 4.554
63197. 1.30880 4.78(4) 550. 4.157 4.798
63216. 1.30920 4.93(4) 537. 4.157 4.866
63235. 1.30959 4.80(4) 555. 4.157 4.743
63254. 1.30998 4.57(4) 582. 4.156 4.570
63273. 1.31037 4.49(4) 592. 4.156 4.432
63292. 1.31077 4.37(4) 610. 4.155 4.339
63311. 1.31116 4.23(4) 627. 4.155 4.280
63330. 1.31155 4.20(4) 634. 4.155 4.241
63349. 1.31195 4.23(4) 627. 4.154 4.216
63368. 1.31234 4.20(4) 634. 4.154 4.198
63387. 1.31274 4.19(4) 630. 4.154 4.187
63406. 1.31313 4.26(4) 616. 4.153 4.181
63425. 1.31352 4.16(4) 630. 4.153 4.177
63444. 1.31392 4.15(4) 635. 4.152 4.176
63463. 1.31431 4.17(4) 633. 4.152 4.176
63482. 1.31471 4.14(4) 641. 4.152 4.179
63501. 1.31510 4.18(4) 631. 4.151 4.187
63520. 1.31550 4.16(4) 639. 4.151 4.212
63539. 1.31589 4.22(4) 634. 4.151 4.292
63558. 1.31628 4.44(4) 598. 4.150 4.476
63577. 1.31668 4.65(4) 569. 4.150 4.711
63596. 1.31707 4.81(4) 548. 4.150 4.806
63615. 1.31747 4.69(4) 563. 4.149 4.707
63634. 1.31787 4.53(4) 581. 4.149 4.544
63653. 1.31826 4.41(4) 597. 4.148 4.414
63672. 1.31866 4.29(4) 615. 4.148 4.340
63691. 1.31905 4.30(4) 613. 4.148 4.324
63711. 1.31945 4.38(4) 604. 4.147 4.404
63730. 1.31984 4.68(4) 564. 4.147 4.649
63749. 1.32024 4.96(4) 531. 4.147 5.040
63768. 1.32064 5.39(5) 482. 4.146 5.379
63787. 1.32103 5.52(5) 470. 4.146 5.554
63806. 1.32143 5.60(5) 465. 4.145 5.671
63825. 1.32182 5.64(5) 459. 4.145 5.706
63844. 1.32222 5.60(5) 461. 4.145 5.545
63864. 1.32262 5.28(5) 493. 4.144 5.225
63883. 1.32301 4.94(4) 531. 4.144 4.920
63902. 1.32341 4.82(4) 551. 4.144 4.798
63921. 1.32381 5.02(4) 538. 4.143 5.076
63940. 1.32421 5.76(5) 460. 4.143 5.913
63959. 1.32460 6.90(5) 369. 4.142 6.889
63979. 1.32500 7.12(5) 355. 4.142 7.103
63998. 1.32540 6.57(5) 390. 4.142 6.516
64017. 1.32580 5.70(5) 457. 4.141 5.747
64036. 1.32619 5.13(4) 511. 4.141 5.176
64055. 1.32659 4.82(4) 541. 4.141 4.847
64075. 1.32699 4.65(4) 556. 4.140 4.684
64094. 1.32739 4.61(4) 564. 4.140 4.600
64113. 1.32779 4.64(4) 558. 4.139 4.568
64132. 1.32818 4.62(4) 563. 4.139 4.624
64152. 1.32858 4.80(4) 541. 4.139 4.754
64171. 1.32898 4.94(4) 525. 4.138 4.878
64190. 1.32938 5.03(4) 516. 4.138 4.984
64209. 1.32978 5.07(4) 505. 4.138 5.011
64229. 1.33018 5.04(4) 504. 4.137 4.877
64248. 1.33058 4.72(4) 550. 4.137 4.666
64267. 1.33098 4.51(4) 571. 4.136 4.481
64286. 1.33138 4.31(4) 598. 4.136 4.355
64306. 1.33178 4.24(4) 607. 4.136 4.278
64325. 1.33218 4.23(4) 612. 4.135 4.234
64344. 1.33258 4.11(4) 629. 4.135 4.213
64364. 1.33297 4.16(4) 615. 4.134 4.204
64383. 1.33337 4.23(4) 606. 4.134 4.202
64402. 1.33378 4.19(4) 617. 4.134 4.210
64422. 1.33418 4.23(4) 607. 4.133 4.230
64441. 1.33458 4.22(4) 606. 4.133 4.241
64460. 1.33498 4.23(4) 607. 4.133 4.230
64480. 1.33538 4.19(4) 608. 4.132 4.207
64499. 1.33578 4.21(4) 607. 4.132 4.190
64518. 1.33618 4.11(4) 624. 4.131 4.188
64538. 1.33658 4.17(4) 615. 4.131 4.219
64557. 1.33698 4.28(4) 605. 4.131 4.299
64576. 1.33738 4.33(4) 589. 4.130 4.402
64596. 1.33778 4.53(4) 558. 4.130 4.441
64615. 1.33818 4.39(4) 577. 4.130 4.394
64635. 1.33859 4.34(4) 583. 4.129 4.320
64654. 1.33899 4.28(4) 597. 4.129 4.270
64673. 1.33939 4.21(4) 611. 4.128 4.268
64693. 1.33979 4.26(4) 598. 4.128 4.311
64712. 1.34019 4.30(4) 587. 4.128 4.355
64732. 1.34059 4.26(4) 597. 4.127 4.357
64751. 1.34100 4.24(4) 602. 4.127 4.317
64770. 1.34140 4.17(4) 608. 4.126 4.264
64790. 1.34180 4.24(4) 590. 4.126 4.219
64809. 1.34220 4.15(4) 615. 4.126 4.188
64829. 1.34261 4.09(4) 616. 4.125 4.168
64848. 1.34301 4.12(4) 619. 4.125 4.156
64868. 1.34341 4.13(4) 607. 4.125 4.150
64887. 1.34382 4.10(4) 609. 4.124 4.150
64906. 1.34422 4.09(4) 616. 4.124 4.155
64926. 1.34462 4.16(4) 608. 4.123 4.164
64945. 1.34503 4.16(4) 605. 4.123 4.171
64965. 1.34543 4.12(4) 614. 4.123 4.170
64984. 1.34583 4.15(4) 612. 4.122 4.168
65004. 1.34624 4.21(4) 603. 4.122 4.175
65023. 1.34664 4.15(4) 604. 4.121 4.212
65043. 1.34704 4.30(4) 591. 4.121 4.338
65062. 1.34745 4.69(4) 531. 4.121 4.600
65082. 1.34785 5.00(4) 498. 4.120 4.914
65101. 1.34826 5.12(5) 486. 4.120 5.077
65121. 1.34866 5.12(5) 484. 4.120 5.048
65141. 1.34907 4.86(4) 515. 4.119 4.884
65160. 1.34947 4.58(4) 547. 4.119 4.670
65180. 1.34988 4.50(4) 558. 4.118 4.492
65199. 1.35028 4.37(4) 573. 4.118 4.389
65219. 1.35069 4.30(4) 578. 4.118 4.356
65238. 1.35109 4.28(4) 579. 4.117 4.354
65258. 1.35150 4.31(4) 578. 4.117 4.331
65277. 1.35190 4.23(4) 592. 4.116 4.282
65297. 1.35231 4.11(4) 617. 4.116 4.231
65317. 1.35271 4.16(4) 594. 4.116 4.194
65336. 1.35312 4.13(4) 602. 4.115 4.170
65356. 1.35353 4.14(4) 602. 4.115 4.156
65375. 1.35393 4.16(4) 601. 4.115 4.148
65395. 1.35434 4.12(4) 606. 4.114 4.146
65415. 1.35474 4.08(4) 617. 4.114 4.146
65434. 1.35515 4.16(4) 593. 4.113 4.153
65454. 1.35556 4.18(4) 589. 4.113 4.172
65474. 1.35596 4.23(4) 594. 4.113 4.233
65493. 1.35637 4.40(4) 575. 4.112 4.383
65513. 1.35678 4.56(4) 545. 4.112 4.592
65533. 1.35719 4.71(4) 523. 4.111 4.701
65552. 1.35759 4.65(4) 532. 4.111 4.630
65572. 1.35800 4.43(4) 561. 4.111 4.485
65592. 1.35841 4.35(4) 566. 4.110 4.363
65611. 1.35882 4.27(4) 582. 4.110 4.288
65631. 1.35922 4.14(4) 607. 4.110 4.252
65651. 1.35963 4.19(4) 593. 4.109 4.242
65670. 1.36004 4.19(4) 592. 4.109 4.247
65690. 1.36045 4.24(4) 591. 4.108 4.282
65710. 1.36086 4.46(4) 559. 4.108 4.442
65729. 1.36126 4.90(4) 525. 4.108 4.990
65749. 1.36167 6.06(5) 416. 4.107 6.175
65769. 1.36208 7.61(6) 316.7 4.107 7.577
65789. 1.36249 8.26(6) 287.0 4.107 8.046
65808. 1.36290 7.55(6) 317.1 4.106 7.369
65828. 1.36331 6.46(5) 379. 4.106 6.335
65848. 1.36372 5.46(5) 454. 4.105 5.502
65868. 1.36413 4.83(4) 516. 4.105 4.966
65887. 1.36453 4.58(4) 539. 4.105 4.648
65907. 1.36494 4.41(4) 552. 4.104 4.471
65927. 1.36535 4.31(4) 567. 4.104 4.385
65947. 1.36576 4.20(4) 585. 4.103 4.345
65966. 1.36617 4.24(4) 576. 4.103 4.309
65986. 1.36658 4.20(4) 584. 4.103 4.267
66006. 1.36699 4.13(4) 591. 4.102 4.228
66026. 1.36740 4.12(4) 593. 4.102 4.201
66046. 1.36781 4.17(4) 585. 4.102 4.185
66065. 1.36822 4.16(4) 584. 4.101 4.182
66085. 1.36863 4.19(4) 576. 4.101 4.200
66105. 1.36904 4.22(4) 575. 4.100 4.271
66125. 1.36946 4.43(4) 552. 4.100 4.427
66145. 1.36987 4.50(4) 540. 4.100 4.623
66165. 1.37028 4.67(4) 518. 4.099 4.733
66184. 1.37069 4.78(4) 510. 4.099 4.793
66204. 1.37110 5.04(5) 484. 4.099 5.002
66224. 1.37151 5.54(5) 439. 4.098 5.499
66244. 1.37192 6.23(5) 379. 4.098 6.184
66264. 1.37233 6.59(5) 355. 4.097 6.569
66284. 1.37275 6.30(5) 374. 4.097 6.314
66304. 1.37316 5.64(5) 429. 4.097 5.725
66324. 1.37357 5.10(5) 470. 4.096 5.175
66343. 1.37398 4.63(4) 529. 4.096 4.804
66363. 1.37439 4.53(4) 533. 4.096 4.611
66383. 1.37481 4.58(4) 529. 4.095 4.614
66403. 1.37522 4.81(4) 507. 4.095 4.852
66423. 1.37563 5.29(5) 447. 4.095 5.247
66443. 1.37604 5.47(5) 435. 4.094 5.482
66463. 1.37646 5.48(5) 423. 4.094 5.368
66483. 1.37687 5.16(5) 465. 4.093 5.089
66503. 1.37728 4.97(5) 489. 4.093 4.904
66523. 1.37770 4.88(4) 496. 4.093 4.951
66543. 1.37811 5.04(5) 473. 4.092 5.134
66563. 1.37852 5.10(5) 470. 4.092 5.172
66583. 1.37894 5.07(5) 475. 4.092 5.035
66603. 1.37935 5.19(5) 463. 4.091 5.012
66623. 1.37977 5.47(5) 441. 4.091 5.380
66643. 1.38018 6.15(5) 382. 4.090 6.064
66663. 1.38059 6.55(5) 356. 4.090 6.464
66683. 1.38101 6.23(5) 375. 4.090 6.232
66703. 1.38142 5.65(5) 420. 4.089 5.733
66723. 1.38184 5.22(5) 458. 4.089 5.294
66743. 1.38225 4.86(5) 493. 4.089 4.945
66763. 1.38267 4.56(4) 522. 4.088 4.668
66783. 1.38308 4.41(4) 539. 4.088 4.469
66803. 1.38350 4.35(4) 545. 4.088 4.340
66823. 1.38391 4.27(4) 565. 4.087 4.261
66843. 1.38433 4.21(4) 568. 4.087 4.215
66863. 1.38474 4.21(4) 568. 4.086 4.189
66883. 1.38516 4.17(4) 570. 4.086 4.176
66903. 1.38557 4.13(4) 578. 4.086 4.172
66923. 1.38599 4.18(4) 566. 4.085 4.180
66943. 1.38640 4.20(4) 566. 4.085 4.212
66963. 1.38682 4.30(4) 562. 4.085 4.303
66983. 1.38724 4.56(4) 530. 4.084 4.527
67003. 1.38765 5.03(5) 473. 4.084 4.957
67023. 1.38807 5.50(5) 428. 4.084 5.481
67044. 1.38849 5.79(5) 399. 4.083 5.705
67064. 1.38890 5.49(5) 428. 4.083 5.504
67084. 1.38932 5.07(5) 472. 4.083 5.138
67104. 1.38974 4.83(4) 496. 4.082 4.859
67124. 1.39015 4.79(4) 501. 4.082 4.793
67144. 1.39057 5.00(5) 476. 4.081 5.002
67164. 1.39099 5.43(5) 440. 4.081 5.452
67184. 1.39140 5.94(5) 398. 4.081 5.987
67205. 1.39182 6.49(5) 367. 4.080 6.611
67225. 1.39224 7.32(6) 318.8 4.080 7.291
67245. 1.39266 7.47(6) 307.5 4.080 7.458
67265. 1.39307 6.90(5) 334.9 4.079 6.875
67285. 1.39349 6.07(5) 388. 4.079 6.026
67306. 1.39391 5.30(5) 448. 4.079 5.339
67326. 1.39433 4.91(5) 480. 4.078 4.907
67346. 1.39475 4.54(4) 524. 4.078 4.659
67366. 1.39517 4.49(4) 525. 4.078 4.532
67386. 1.39558 4.57(4) 512. 4.077 4.530
67407. 1.39600 4.76(4) 501. 4.077 4.703
67427. 1.39642 5.11(5) 458. 4.077 5.073
67447. 1.39684 5.50(5) 421. 4.076 5.552
67467. 1.39726 5.64(5) 413. 4.076 5.867
67487. 1.39768 5.72(5) 401. 4.076 5.763
67508. 1.39810 5.37(5) 431. 4.075 5.371
67528. 1.39852 4.91(5) 479. 4.075 4.959
67548. 1.39894 4.66(4) 501. 4.075 4.654
67568. 1.39936 4.49(4) 517. 4.074 4.480
67589. 1.39978 4.41(4) 528. 4.074 4.424
67609. 1.40020 4.42(4) 526. 4.074 4.429
67629. 1.40062 4.44(4) 514. 4.073 4.404
67650. 1.40104 4.42(4) 522. 4.073 4.329
67670. 1.40146 4.25(4) 543. 4.073 4.249
67690. 1.40188 4.24(4) 545. 4.072 4.191
67711. 1.40230 4.20(4) 546. 4.072 4.155
67731. 1.40272 4.12(4) 559. 4.072 4.135
67751. 1.40314 4.16(4) 550. 4.071 4.129
67771. 1.40356 4.11(4) 560. 4.071 4.142
67792. 1.40398 4.15(4) 554. 4.071 4.175
67812. 1.40440 4.16(4) 556. 4.070 4.209
67832. 1.40483 4.23(4) 535. 4.070 4.217
67853. 1.40525 4.19(4) 545. 4.070 4.207
67873. 1.40567 4.19(4) 545. 4.069 4.218
67894. 1.40609 4.32(4) 528. 4.069 4.274
67914. 1.40651 4.31(4) 527. 4.069 4.349
67934. 1.40693 4.39(4) 521. 4.068 4.396
67955. 1.40736 4.45(4) 510. 4.068 4.418
67975. 1.40778 4.44(4) 515. 4.068 4.423
67995. 1.40820 4.35(4) 525. 4.067 4.379
68016. 1.40862 4.33(4) 525. 4.067 4.300
68036. 1.40905 4.19(4) 541. 4.067 4.224
68057. 1.40947 4.14(4) 544. 4.066 4.169
68077. 1.40989 4.12(4) 551. 4.066 4.135
68098. 1.41032 4.10(4) 557. 4.066 4.115
68118. 1.41074 4.11(4) 558. 4.065 4.102
68138. 1.41116 4.16(4) 547. 4.065 4.095
68159. 1.41159 4.10(4) 555. 4.065 4.090
68179. 1.41201 4.13(4) 549. 4.064 4.088
68200. 1.41243 4.23(4) 530. 4.064 4.087
68220. 1.41286 4.13(4) 553. 4.064 4.086
68241. 1.41328 4.04(4) 561. 4.063 4.087
68261. 1.41370 4.09(4) 547. 4.063 4.086
68282. 1.41413 4.11(4) 550. 4.063 4.088
68302. 1.41455 4.11(4) 552. 4.062 4.090
68323. 1.41498 4.17(4) 542. 4.062 4.095
68343. 1.41540 4.15(4) 546. 4.062 4.100
68364. 1.41583 4.15(4) 541. 4.062 4.107
68384. 1.41625 4.18(4) 536. 4.061 4.117
68405. 1.41668 4.12(4) 545. 4.061 4.133
68425. 1.41710 4.16(4) 537. 4.061 4.166
68446. 1.41753 4.29(4) 524. 4.060 4.231
68466. 1.41795 4.42(4) 515. 4.060 4.369
68487. 1.41838 4.79(5) 476. 4.060 4.663
68507. 1.41880 5.45(5) 412. 4.059 5.211
68528. 1.41923 5.98(5) 369. 4.059 5.910
68548. 1.41965 6.14(5) 357. 4.059 6.267
68569. 1.42008 5.98(5) 366. 4.059 6.030
68590. 1.42051 5.40(5) 412. 4.058 5.509
68610. 1.42093 5.01(5) 446. 4.058 5.020
68631. 1.42136 4.68(5) 481. 4.058 4.672
68651. 1.42179 4.45(4) 503. 4.057 4.453
68672. 1.42221 4.30(4) 519. 4.057 4.319
68692. 1.42264 4.11(4) 551. 4.057 4.239
68713. 1.42307 4.21(4) 531. 4.056 4.193
68734. 1.42349 4.11(4) 541. 4.056 4.178
68754. 1.42392 4.15(4) 535. 4.056 4.212
68775. 1.42435 4.29(4) 519. 4.056 4.305
68796. 1.42477 4.39(4) 499. 4.055 4.409
68816. 1.42520 4.40(4) 496. 4.055 4.424
68837. 1.42563 4.32(4) 511. 4.055 4.359
68857. 1.42606 4.26(4) 522. 4.054 4.280
68878. 1.42649 4.18(4) 531. 4.054 4.223
68899. 1.42691 4.11(4) 539. 4.054 4.193
68919. 1.42734 4.16(4) 536. 4.054 4.194
68940. 1.42777 4.24(4) 521. 4.053 4.250
68961. 1.42820 4.40(4) 500. 4.053 4.417
68982. 1.42863 4.77(5) 462. 4.053 4.740
69002. 1.42906 5.26(5) 415. 4.053 5.161
69023. 1.42948 5.57(5) 389. 4.052 5.458
69044. 1.42991 5.48(5) 392. 4.052 5.393
69064. 1.43034 5.15(5) 427. 4.052 5.088
69085. 1.43077 4.81(5) 456. 4.051 4.775
69106. 1.43120 4.60(5) 474. 4.051 4.583
69127. 1.43163 4.58(5) 478. 4.051 4.551
69147. 1.43206 4.64(5) 473. 4.051 4.652
69168. 1.43249 4.76(5) 455. 4.050 4.758
69189. 1.43292 4.73(5) 457. 4.050 4.774
69210. 1.43335 4.78(5) 453. 4.050 4.742
69230. 1.43378 4.71(5) 463. 4.050 4.712
69251. 1.43421 4.82(5) 459. 4.049 4.825
69272. 1.43464 5.31(5) 423. 4.049 5.435
69293. 1.43507 6.73(5) 331.6 4.049 6.939
69313. 1.43550 8.87(6) 236.9 4.049 9.046
69334. 1.43593 10.63(7) 191.7 4.048 10.439
69355. 1.43636 10.62(7) 190.6 4.048 10.324
69376. 1.43679 9.33(7) 223.7 4.048 9.078
69397. 1.43722 7.61(6) 279.7 4.048 7.598
69417. 1.43766 6.33(5) 341.1 4.047 6.405
69438. 1.43809 5.45(5) 396. 4.047 5.588
69459. 1.43852 4.92(5) 442. 4.047 5.061
69480. 1.43895 4.71(5) 454. 4.047 4.747
69501. 1.43938 4.71(5) 460. 4.046 4.637
69522. 1.43981 4.86(5) 452. 4.046 4.850
69542. 1.44025 5.58(5) 390. 4.046 5.578
69563. 1.44068 6.70(6) 314.5 4.046 6.697
69584. 1.44111 7.48(6) 276.0 4.045 7.496
69605. 1.44154 7.34(6) 282.8 4.045 7.456
69626. 1.44197 6.75(6) 313.5 4.045 6.769
69647. 1.44241 5.89(5) 364. 4.045 5.909
69668. 1.44284 5.22(5) 414. 4.044 5.219
69689. 1.44327 4.78(5) 452. 4.044 4.770
69710. 1.44371 4.52(5) 482. 4.044 4.505
69730. 1.44414 4.37(5) 494. 4.044 4.353
69751. 1.44457 4.30(4) 505. 4.043 4.271
69772. 1.44501 4.28(4) 504. 4.043 4.258
69793. 1.44544 4.43(4) 501. 4.043 4.386
69814. 1.44587 4.75(5) 462. 4.043 4.795
69835. 1.44631 5.43(5) 395. 4.042 5.443
69856. 1.44674 5.86(5) 358. 4.042 5.853
69877. 1.44718 5.66(5) 377. 4.042 5.678
69898. 1.44761 5.22(5) 416. 4.042 5.202
69919. 1.44804 4.78(5) 460. 4.042 4.771
69940. 1.44848 4.52(5) 480. 4.041 4.486
69961. 1.44891 4.30(4) 511. 4.041 4.315
69982. 1.44935 4.23(4) 507. 4.041 4.216
70003. 1.44978 4.13(4) 521. 4.041 4.157
70024. 1.45022 4.16(4) 522. 4.041 4.123
70045. 1.45065 4.12(4) 525. 4.040 4.102
70066. 1.45109 4.12(4) 529. 4.040 4.089
70087. 1.45152 4.20(4) 518. 4.040 4.081
70108. 1.45196 4.14(4) 526. 4.040 4.076
70129. 1.45239 4.08(4) 531. 4.039 4.073
70150. 1.45283 4.09(4) 533. 4.039 4.072
70171. 1.45327 4.15(4) 523. 4.039 4.071
70192. 1.45370 4.11(4) 524. 4.039 4.072
70213. 1.45414 4.16(4) 520. 4.039 4.073
70234. 1.45457 4.16(4) 518. 4.038 4.077
70255. 1.45501 4.10(4) 529. 4.038 4.088
70276. 1.45545 4.18(4) 524. 4.038 4.115
70297. 1.45588 4.20(4) 513. 4.038 4.165
70319. 1.45632 4.17(4) 520. 4.038 4.212
70340. 1.45676 4.17(4) 517. 4.037 4.228
70361. 1.45720 4.19(4) 514. 4.037 4.235
70382. 1.45763 4.27(4) 514. 4.037 4.297
70403. 1.45807 4.48(5) 490. 4.037 4.492
70424. 1.45851 4.84(5) 447. 4.037 4.819
70445. 1.45894 5.16(5) 415. 4.037 5.107
70466. 1.45938 5.27(5) 410. 4.036 5.261
70487. 1.45982 5.41(5) 395. 4.036 5.411
70509. 1.46026 5.58(5) 387. 4.036 5.577
70530. 1.46070 5.63(5) 384. 4.036 5.685
70551. 1.46113 5.88(5) 368. 4.036 5.835
70572. 1.46157 6.10(5) 352. 4.035 6.132
70593. 1.46201 6.38(6) 329.0 4.035 6.381
70614. 1.46245 6.24(5) 338.6 4.035 6.201
70636. 1.46289 5.84(5) 363. 4.035 5.669
70657. 1.46333 5.29(5) 399. 4.035 5.118
70678. 1.46377 4.76(5) 452. 4.035 4.719
70699. 1.46421 4.55(5) 472. 4.034 4.484
70720. 1.46465 4.39(5) 488. 4.034 4.397
70742. 1.46509 4.53(5) 473. 4.034 4.475
70763. 1.46552 4.66(5) 463. 4.034 4.678
70784. 1.46596 4.86(5) 435. 4.034 4.811
70805. 1.46640 4.77(5) 442. 4.034 4.726
70827. 1.46684 4.62(5) 456. 4.033 4.529
70848. 1.46728 4.42(5) 480. 4.033 4.352
70869. 1.46772 4.25(4) 505. 4.033 4.233
70890. 1.46817 4.10(4) 521. 4.033 4.162
70912. 1.46861 4.09(4) 526. 4.033 4.121
70933. 1.46905 4.10(4) 521. 4.033 4.102
70954. 1.46949 4.13(4) 513. 4.032 4.110
70975. 1.46993 4.16(4) 515. 4.032 4.160
70997. 1.47037 4.23(4) 503. 4.032 4.248
71018. 1.47081 4.34(5) 490. 4.032 4.308
71039. 1.47125 4.35(5) 481. 4.032 4.286
71061. 1.47169 4.27(4) 496. 4.032 4.217
71082. 1.47213 4.14(4) 515. 4.032 4.154
71103. 1.47258 4.14(4) 518. 4.031 4.113
71125. 1.47302 4.11(4) 519. 4.031 4.094
71146. 1.47346 4.04(4) 523. 4.031 4.087
71167. 1.47390 4.09(4) 518. 4.031 4.080
71189. 1.47434 4.04(4) 529. 4.031 4.069
71210. 1.47479 4.10(4) 519. 4.031 4.060
71231. 1.47523 4.04(4) 528. 4.031 4.053
71253. 1.47567 4.06(4) 525. 4.031 4.049
71274. 1.47611 4.04(4) 525. 4.030 4.048
71296. 1.47656 4.05(4) 520. 4.030 4.050
71317. 1.47700 4.10(4) 518. 4.030 4.064
71338. 1.47744 4.10(4) 518. 4.030 4.108
71360. 1.47789 4.22(4) 499. 4.030 4.189
71381. 1.47833 4.21(4) 499. 4.030 4.265
71403. 1.47877 4.21(4) 495. 4.030 4.270
71424. 1.47922 4.19(4) 497. 4.030 4.216
71445. 1.47966 4.18(4) 507. 4.029 4.154
71467. 1.48011 4.08(4) 506. 4.029 4.107
71488. 1.48055 4.05(4) 515. 4.029 4.079
71510. 1.48099 4.11(4) 510. 4.029 4.062
71531. 1.48144 4.00(4) 523. 4.029 4.052
71553. 1.48188 4.12(4) 507. 4.029 4.047
71574. 1.48233 4.01(4) 525. 4.029 4.044
71596. 1.48277 4.02(4) 519. 4.029 4.042
71617. 1.48322 4.09(4) 508. 4.029 4.042
71639. 1.48366 4.07(4) 514. 4.029 4.042
71660. 1.48411 4.03(4) 525. 4.028 4.042
71682. 1.48455 4.09(4) 509. 4.028 4.044
71703. 1.48500 4.07(4) 507. 4.028 4.047
71725. 1.48544 4.07(4) 505. 4.028 4.052
71746. 1.48589 4.07(4) 509. 4.028 4.064
71768. 1.48634 4.16(5) 493. 4.028 4.097
71789. 1.48678 4.28(5) 475. 4.028 4.177
71811. 1.48723 4.37(5) 469. 4.028 4.325
71832. 1.48767 4.60(5) 444. 4.028 4.517
71854. 1.48812 4.71(5) 432. 4.028 4.695
71875. 1.48857 4.75(5) 427. 4.028 4.822
71897. 1.48901 4.79(5) 426. 4.027 4.803
71918. 1.48946 4.57(5) 447. 4.027 4.634
71940. 1.48991 4.51(5) 451. 4.027 4.434
71962. 1.49035 4.21(5) 483. 4.027 4.280
71983. 1.49080 4.19(5) 484. 4.027 4.183
72005. 1.49125 4.15(5) 490. 4.027 4.125
72026. 1.49170 4.11(5) 491. 4.027 4.090
72048. 1.49214 4.14(5) 480. 4.027 4.070
72070. 1.49259 4.13(5) 488. 4.027 4.058
72091. 1.49304 4.05(5) 493. 4.027 4.050
72113. 1.49349 4.07(5) 490. 4.027 4.045
72134. 1.49393 4.08(5) 488. 4.027 4.042
72156. 1.49438 4.05(5) 492. 4.027 4.040
72178. 1.49483 4.06(5) 485. 4.027 4.039
72199. 1.49528 4.14(5) 475. 4.027 4.038
72221. 1.49573 4.10(5) 481. 4.027 4.038
72243. 1.49618 4.11(5) 478. 4.026 4.038
72264. 1.49663 4.06(5) 484. 4.026 4.038
72286. 1.49708 4.10(5) 482. 4.026 4.038
72308. 1.49752 4.09(5) 479. 4.026 4.039
72329. 1.49797 4.08(5) 482. 4.026 4.040
72351. 1.49842 4.06(5) 484. 4.026 4.042
72373. 1.49887 4.14(5) 467. 4.026 4.045
72395. 1.49932 4.08(5) 477. 4.026 4.049
72416. 1.49977 4.14(5) 473. 4.026 4.055
72438. 1.50022 4.07(5) 477. 4.026 4.066
72460. 1.50067 4.16(5) 468. 4.026 4.077
72481. 1.50112 4.15(5) 476. 4.026 4.081
72503. 1.50157 4.15(5) 464. 4.026 4.081
72525. 1.50202 4.10(5) 477. 4.026 4.089
72547. 1.50247 4.17(5) 465. 4.026 4.120
72569. 1.50293 4.29(5) 452. 4.026 4.175
72590. 1.50338 4.29(5) 445. 4.026 4.217
72612. 1.50383 4.25(5) 449. 4.026 4.213
72634. 1.50428 4.24(5) 455. 4.026 4.188
72656. 1.50473 4.16(5) 460. 4.026 4.173
72677. 1.50518 4.21(5) 457. 4.026 4.178
72699. 1.50563 4.18(5) 458. 4.026 4.186
72721. 1.50608 4.25(5) 451. 4.026 4.192
72743. 1.50654 4.25(5) 454. 4.026 4.217
72765. 1.50699 4.43(5) 441. 4.026 4.316
72787. 1.50744 4.77(5) 410. 4.026 4.676
72808. 1.50789 5.52(5) 359. 4.026 5.685
72830. 1.50835 7.25(6) 260.2 4.026 7.515
72852. 1.50880 9.03(7) 196.5 4.026 9.203
72874. 1.50925 9.53(7) 183.3 4.026 9.263
72896. 1.50970 8.29(7) 218.4 4.026 8.012
72918. 1.51016 6.77(6) 274.6 4.026 6.598
72939. 1.51061 5.75(6) 324.8 4.026 5.581
72961. 1.51106 4.96(5) 383. 4.026 4.967
72983. 1.51152 4.63(5) 411. 4.026 4.631
73005. 1.51197 4.49(5) 427. 4.026 4.483
73027. 1.51242 4.49(5) 425. 4.026 4.453
73049. 1.51288 4.44(5) 432. 4.026 4.448
73071. 1.51333 4.42(5) 420. 4.026 4.397
73093. 1.51379 4.39(5) 431. 4.026 4.306
73115. 1.51424 4.39(5) 432. 4.026 4.220
73137. 1.51469 4.28(5) 440. 4.026 4.160
73159. 1.51515 4.06(5) 473. 4.026 4.124
73181. 1.51560 4.15(5) 459. 4.026 4.104
73203. 1.51606 4.17(5) 458. 4.026 4.094
73224. 1.51651 4.18(5) 454. 4.026 4.092
73246. 1.51697 4.08(5) 466. 4.026 4.099
73268. 1.51742 4.20(5) 450. 4.026 4.132
73290. 1.51788 4.35(5) 435. 4.026 4.251
73312. 1.51833 4.57(5) 421. 4.026 4.534
73334. 1.51879 4.81(5) 393. 4.026 4.911
73356. 1.51924 5.19(5) 352. 4.026 5.081
73378. 1.51970 5.01(5) 372. 4.026 4.929
73400. 1.52016 4.65(5) 407. 4.026 4.661
73422. 1.52061 4.43(5) 429. 4.026 4.452
73444. 1.52107 4.37(5) 432. 4.027 4.364
73466. 1.52153 4.40(5) 433. 4.027 4.431
73489. 1.52198 4.71(5) 396. 4.027 4.656
73511. 1.52244 4.92(5) 373. 4.027 4.886
73533. 1.52290 4.99(5) 373. 4.027 4.937
73555. 1.52335 5.02(5) 381. 4.027 4.986
73577. 1.52381 5.39(5) 359. 4.027 5.509
73599. 1.52427 6.57(6) 282.0 4.027 6.767
73621. 1.52472 8.03(7) 217.4 4.027 8.054
73643. 1.52518 8.24(7) 212.1 4.027 8.172
73665. 1.52564 7.24(6) 248.0 4.027 7.224
73687. 1.52610 6.09(6) 301.6 4.027 6.102
73709. 1.52655 5.21(5) 357. 4.027 5.281
73731. 1.52701 4.81(5) 389. 4.027 4.780
73754. 1.52747 4.44(5) 423. 4.027 4.491
73776. 1.52793 4.37(5) 433. 4.027 4.326
73798. 1.52839 4.24(5) 437. 4.028 4.233
73820. 1.52885 4.10(5) 454. 4.028 4.177
73842. 1.52930 4.11(5) 456. 4.028 4.149
73864. 1.52976 4.04(5) 467. 4.028 4.140
73886. 1.53022 4.16(5) 446. 4.028 4.158
73909. 1.53068 4.24(5) 440. 4.028 4.221
73931. 1.53114 4.28(5) 425. 4.028 4.323
73953. 1.53160 4.34(5) 425. 4.028 4.391
73975. 1.53206 4.32(5) 428. 4.028 4.375
73997. 1.53252 4.29(5) 436. 4.028 4.322
74019. 1.53298 4.26(5) 438. 4.028 4.286
74042. 1.53344 4.30(5) 430. 4.029 4.287
74064. 1.53390 4.31(5) 437. 4.029 4.337
74086. 1.53436 4.55(5) 417. 4.029 4.491
74108. 1.53482 5.06(5) 380. 4.029 4.905
74131. 1.53528 6.21(6) 306.3 4.029 5.846
74153. 1.53574 7.94(7) 234.5 4.029 7.500
74175. 1.53620 9.34(7) 193.5 4.029 9.510
74197. 1.53666 10.30(8) 169.1 4.029 10.717
74220. 1.53712 10.30(8) 166.9 4.029 10.447
74242. 1.53759 8.99(7) 197.1 4.030 9.040
74264. 1.53805 7.46(6) 246.2 4.030 7.405
74286. 1.53851 6.03(6) 308.5 4.030 6.142
74309. 1.53897 5.26(5) 358. 4.030 5.335
74331. 1.53943 4.68(5) 399. 4.030 4.856
74353. 1.53989 4.53(5) 412. 4.030 4.577
74376. 1.54036 4.30(5) 434. 4.030 4.418
74398. 1.54082 4.35(5) 433. 4.030 4.345
74420. 1.54128 4.37(5) 429. 4.031 4.382
74443. 1.54174 4.54(5) 414. 4.031 4.614
74465. 1.54221 4.98(5) 377. 4.031 5.051
74487. 1.54267 5.37(5) 342.7 4.031 5.426
74510. 1.54313 5.33(5) 349.4 4.031 5.419
74532. 1.54359 5.04(5) 375. 4.031 5.110
74554. 1.54406 4.75(5) 398. 4.031 4.777
74577. 1.54452 4.52(5) 422. 4.032 4.562
74599. 1.54498 4.63(5) 409. 4.032 4.498
74621. 1.54545 4.77(5) 400. 4.032 4.694
74644. 1.54591 5.42(5) 356. 4.032 5.384
74666. 1.54637 6.59(6) 283.7 4.032 6.574
74689. 1.54684 7.69(7) 234.7 4.032 7.499
74711. 1.54730 7.38(6) 246.9 4.032 7.340
74733. 1.54777 6.37(6) 293.8 4.033 6.475
74756. 1.54823 5.53(5) 340.3 4.033 5.601
74778. 1.54870 4.91(5) 384. 4.033 5.006
74801. 1.54916 4.52(5) 416. 4.033 4.680
74823. 1.54963 4.51(5) 424. 4.033 4.585
74846. 1.55009 4.65(5) 406. 4.033 4.712
74868. 1.55056 4.99(5) 375. 4.034 4.953
74890. 1.55102 4.94(5) 370. 4.034 5.050
74913. 1.55149 4.92(5) 381. 4.034 4.929
74935. 1.55195 4.95(5) 381. 4.034 4.847
74958. 1.55242 5.23(5) 364. 4.034 5.162
74980. 1.55288 5.96(6) 308.3 4.034 5.984
75003. 1.55335 6.77(6) 261.9 4.035 6.721
75025. 1.55382 6.66(6) 266.4 4.035 6.616
75048. 1.55428 5.88(6) 308.4 4.035 5.927
75070. 1.55475 5.20(5) 355. 4.035 5.256
75093. 1.55521 4.91(5) 379. 4.035 4.866
75115. 1.55568 4.85(5) 383. 4.036 4.833
75138. 1.55615 5.21(5) 359. 4.036 5.258
75160. 1.55661 6.01(6) 303.8 4.036 6.076
75183. 1.55708 6.85(6) 257.2 4.036 6.757
75206. 1.55755 6.86(6) 256.8 4.036 6.701
75228. 1.55802 6.32(6) 282.5 4.037 6.071
75251. 1.55848 5.34(5) 341.3 4.037 5.380
75273. 1.55895 4.92(5) 372. 4.037 4.892
75296. 1.55942 4.68(5) 385. 4.037 4.650
75318. 1.55989 4.65(5) 396. 4.037 4.671
75341. 1.56035 4.85(5) 373. 4.038 4.933
75364. 1.56082 5.17(5) 338.0 4.038 5.211
75386. 1.56129 5.19(5) 341.6 4.038 5.199
75409. 1.56176 4.94(5) 359. 4.038 4.962
75432. 1.56223 4.66(5) 383. 4.038 4.709
75454. 1.56270 4.50(5) 394. 4.039 4.509
75477. 1.56317 4.40(5) 407. 4.039 4.357
75499. 1.56363 4.34(5) 413. 4.039 4.251
75522. 1.56410 4.19(5) 429. 4.039 4.190
75545. 1.56457 4.21(5) 427. 4.040 4.159
75567. 1.56504 4.21(5) 431. 4.040 4.148
75590. 1.56551 4.27(5) 421. 4.040 4.160
75613. 1.56598 4.29(5) 418. 4.040 4.227
75635. 1.56645 4.49(5) 400. 4.040 4.437
75658. 1.56692 4.87(5) 376. 4.041 4.897
75681. 1.56739 5.55(6) 320.9 4.041 5.554
75704. 1.56786 5.94(6) 291.8 4.041 6.063
75726. 1.56833 5.94(6) 292.1 4.041 6.030
75749. 1.56880 5.58(6) 311.9 4.042 5.568
75772. 1.56927 5.09(5) 348.0 4.042 5.045
75794. 1.56974 4.63(5) 383. 4.042 4.657
75817. 1.57022 4.41(5) 399. 4.042 4.416
75840. 1.57069 4.24(5) 421. 4.043 4.275
75863. 1.57116 4.18(5) 435. 4.043 4.193
75885. 1.57163 4.19(5) 429. 4.043 4.144
75908. 1.57210 4.11(5) 436. 4.043 4.116
75931. 1.57257 4.11(5) 435. 4.044 4.099
75954. 1.57304 4.20(5) 421. 4.044 4.089
75977. 1.57352 4.20(5) 423. 4.044 4.083
75999. 1.57399 4.11(5) 429. 4.044 4.079
76022. 1.57446 4.07(5) 441. 4.045 4.077
76045. 1.57493 4.13(5) 431. 4.045 4.075
76068. 1.57541 4.21(5) 418. 4.045 4.075
76091. 1.57588 4.15(5) 428. 4.046 4.076
76113. 1.57635 4.12(5) 428. 4.046 4.078
76136. 1.57682 4.22(5) 414. 4.046 4.083
76159. 1.57730 4.19(5) 416. 4.046 4.092
76182. 1.57777 4.17(5) 422. 4.047 4.115
76205. 1.57824 4.28(5) 415. 4.047 4.196
76228. 1.57872 4.47(5) 404. 4.047 4.491
76250. 1.57919 5.16(5) 343.5 4.047 5.173
76273. 1.57967 5.90(6) 293.2 4.048 6.006
76296. 1.58014 6.26(6) 273.1 4.048 6.270
76319. 1.58061 5.76(6) 302.9 4.048 5.827
76342. 1.58109 5.22(5) 330.7 4.049 5.195
76365. 1.58156 4.72(5) 366. 4.049 4.720
76388. 1.58204 4.45(5) 391. 4.049 4.435
76411. 1.58251 4.37(5) 396. 4.049 4.275
76434. 1.58299 4.22(5) 415. 4.050 4.185
76457. 1.58346 4.23(5) 410. 4.050 4.135
76480. 1.58394 4.11(5) 426. 4.050 4.107
76502. 1.58441 4.12(5) 425. 4.051 4.090
76525. 1.58489 4.10(5) 423. 4.051 4.081
76548. 1.58536 4.12(5) 426. 4.051 4.076
76571. 1.58584 4.12(5) 420. 4.052 4.073
76594. 1.58631 4.12(5) 417. 4.052 4.072
76617. 1.58679 4.19(5) 409. 4.052 4.075
76640. 1.58727 4.20(5) 409. 4.052 4.086
76663. 1.58774 4.16(5) 413. 4.053 4.115
76686. 1.58822 4.16(5) 416. 4.053 4.162
76709. 1.58870 4.23(5) 404. 4.053 4.201
76732. 1.58917 4.29(5) 394. 4.054 4.199
76755. 1.58965 4.19(5) 413. 4.054 4.167
76778. 1.59013 4.19(5) 407. 4.054 4.132
76801. 1.59060 4.08(5) 424. 4.055 4.106
76824. 1.59108 4.22(5) 408. 4.055 4.090
76847. 1.59156 4.09(5) 425. 4.055 4.082
76871. 1.59204 4.07(5) 424. 4.056 4.076
76894. 1.59251 4.13(5) 413. 4.056 4.074
76917. 1.59299 4.17(5) 403. 4.056 4.073
76940. 1.59347 4.03(5) 425. 4.057 4.073
76963. 1.59395 4.03(5) 426. 4.057 4.074
76986. 1.59443 4.15(5) 410. 4.057 4.075
77009. 1.59490 4.13(5) 404. 4.058 4.077
77032. 1.59538 4.11(5) 412. 4.058 4.080
77055. 1.59586 4.13(5) 411. 4.058 4.083
77078. 1.59634 4.09(5) 420. 4.059 4.087
77101. 1.59682 4.19(5) 403. 4.059 4.093
77125. 1.59730 4.13(5) 406. 4.059 4.101
77148. 1.59778 4.13(5) 408. 4.060 4.111
77171. 1.59826 4.18(5) 407. 4.060 4.127
77194. 1.59874 4.08(5) 414. 4.060 4.158
77217. 1.59922 4.40(5) 385. 4.061 4.248
77240. 1.59970 4.61(5) 371. 4.061 4.533
77263. 1.60018 5.12(5) 335.3 4.061 5.204
77287. 1.60066 6.10(6) 271.4 4.062 6.166
77310. 1.60114 6.68(6) 243.5 4.062 6.729
77333. 1.60162 6.45(6) 251.0 4.063 6.441
77356. 1.60210 5.66(6) 297.0 4.063 5.735
77379. 1.60258 5.00(5) 340.6 4.063 5.104
77403. 1.60306 4.68(5) 358. 4.064 4.700
77426. 1.60354 4.51(5) 373. 4.064 4.504
77449. 1.60402 4.49(5) 378. 4.064 4.501
77472. 1.60450 4.60(5) 367. 4.065 4.676
77496. 1.60498 4.92(5) 338.8 4.065 4.874
77519. 1.60546 4.92(5) 335.3 4.065 4.868
77542. 1.60595 4.74(5) 349.8 4.066 4.686
77565. 1.60643 4.65(5) 363. 4.066 4.502
77589. 1.60691 4.39(5) 388. 4.067 4.430
77612. 1.60739 4.58(5) 366. 4.067 4.512
77635. 1.60787 4.73(5) 347.3 4.067 4.702
77658. 1.60836 4.81(5) 342.1 4.068 4.862
77682. 1.60884 4.84(5) 337.4 4.068 4.872
77705. 1.60932 4.70(5) 354. 4.068 4.732
77728. 1.60981 4.43(5) 375. 4.069 4.562
77752. 1.61029 4.40(5) 375. 4.069 4.447
77775. 1.61077 4.39(5) 373. 4.070 4.380
77798. 1.61125 4.31(5) 377. 4.070 4.317
77822. 1.61174 4.22(5) 396. 4.070 4.263
77845. 1.61222 4.13(5) 405. 4.071 4.235
77868. 1.61271 4.18(5) 397. 4.071 4.222
77892. 1.61319 4.24(5) 386. 4.072 4.207
77915. 1.61367 4.29(5) 386. 4.072 4.199
77939. 1.61416 4.34(5) 380. 4.072 4.232
77962. 1.61464 4.53(5) 366. 4.073 4.402
77985. 1.61513 4.99(5) 331.8 4.073 4.894
78009. 1.61561 5.66(6) 287.3 4.074 5.744
78032. 1.61610 6.47(6) 243.2 4.074 6.426
78055. 1.61658 6.41(6) 246.5 4.074 6.315
78079. 1.61707 5.88(6) 274.3 4.075 5.689
78102. 1.61755 5.17(6) 316.2 4.075 5.100
78126. 1.61804 4.86(5) 332.6 4.076 4.778
78149. 1.61852 4.74(5) 342.3 4.076 4.705
78173. 1.61901 4.70(5) 344.6 4.076 4.739
78196. 1.61949 4.65(5) 353. 4.077 4.691
78220. 1.61998 4.52(5) 359. 4.077 4.543
78243. 1.62046 4.41(5) 371. 4.078 4.385
78267. 1.62095 4.29(5) 372. 4.078 4.271
78290. 1.62144 4.25(5) 384. 4.079 4.203
78313. 1.62192 4.21(5) 388. 4.079 4.165
78337. 1.62241 4.22(5) 380. 4.079 4.141
78360. 1.62290 4.14(5) 392. 4.080 4.125
78384. 1.62338 4.12(5) 392. 4.080 4.114
78407. 1.62387 4.14(5) 388. 4.081 4.108
78431. 1.62436 4.19(5) 384. 4.081 4.105
78455. 1.62485 4.13(5) 392. 4.082 4.103
78478. 1.62533 4.04(5) 404. 4.082 4.103
78502. 1.62582 4.12(5) 391. 4.082 4.103
78525. 1.62631 4.10(5) 394. 4.083 4.105
78549. 1.62680 4.14(5) 388. 4.083 4.109
78572. 1.62729 4.22(5) 382. 4.084 4.112
78596. 1.62777 4.10(5) 393. 4.084 4.118
78619. 1.62826 4.19(5) 379. 4.085 4.127
78643. 1.62875 4.13(5) 390. 4.085 4.147
78667. 1.62924 4.20(5) 383. 4.085 4.210
78690. 1.62973 4.32(5) 379. 4.086 4.385
78714. 1.63022 4.68(5) 342.8 4.086 4.723
78737. 1.63071 5.07(6) 318.6 4.087 5.097
78761. 1.63120 5.19(6) 302.8 4.087 5.210
78785. 1.63168 4.99(6) 316.7 4.088 5.008
78808. 1.63217 4.64(5) 344.7 4.088 4.711
78832. 1.63266 4.45(5) 361. 4.089 4.475
78856. 1.63315 4.29(5) 372. 4.089 4.329
78879. 1.63364 4.22(5) 383. 4.089 4.249
78903. 1.63413 4.19(5) 385. 4.090 4.210
78927. 1.63462 4.27(5) 371. 4.090 4.215
78950. 1.63511 4.30(5) 375. 4.091 4.309
78974. 1.63561 4.56(5) 354. 4.091 4.576
78998. 1.63610 4.93(6) 322.9 4.092 4.986
79021. 1.63659 5.24(6) 299.1 4.092 5.239
79045. 1.63708 5.10(6) 312.3 4.093 5.118
79069. 1.63757 4.74(5) 332.9 4.093 4.811
79093. 1.63806 4.50(5) 355. 4.094 4.539
79116. 1.63855 4.32(5) 375. 4.094 4.365
79140. 1.63904 4.17(5) 386. 4.094 4.266
79164. 1.63954 4.12(5) 385. 4.095 4.213
79187. 1.64003 4.13(5) 388. 4.095 4.185
79211. 1.64052 4.07(5) 400. 4.096 4.172
79235. 1.64101 4.09(5) 389. 4.096 4.168
79259. 1.64150 4.11(5) 388. 4.097 4.170
79283. 1.64200 4.13(5) 386. 4.097 4.179
79306. 1.64249 4.17(5) 383. 4.098 4.207
79330. 1.64298 4.27(5) 378. 4.098 4.281
79354. 1.64347 4.44(5) 357. 4.099 4.466
79378. 1.64397 4.75(5) 332.8 4.099 4.766
79402. 1.64446 4.90(6) 321.4 4.100 5.003
79425. 1.64495 4.98(6) 310.0 4.100 4.994
79449. 1.64545 4.77(6) 325.6 4.101 4.850
79473. 1.64594 4.70(5) 343.1 4.101 4.780
79497. 1.64644 4.96(6) 325.6 4.102 4.990
79521. 1.64693 5.68(6) 286.0 4.102 5.783
79545. 1.64742 7.34(7) 214.9 4.103 7.338
79568. 1.64792 9.14(8) 166.1 4.103 9.106
79592. 1.64841 10.34(8) 145.3 4.104 10.142
79616. 1.64891 10.60(8) 144.0 4.104 10.685
79640. 1.64940 10.96(9) 136.1 4.104 11.042
79664. 1.64990 10.52(8) 141.2 4.105 10.490
79688. 1.65039 9.17(8) 165.0 4.105 9.135
79712. 1.65089 7.81(7) 199.5 4.106 7.750
79736. 1.65138 6.64(7) 235.0 4.106 6.628
79760. 1.65188 5.77(6) 271.3 4.107 5.760
79784. 1.65237 5.21(6) 297.3 4.107 5.154
79807. 1.65287 4.79(6) 320.1 4.108 4.791
79831. 1.65337 4.72(6) 316.3 4.108 4.652
79855. 1.65386 4.90(6) 296.6 4.109 4.845
79879. 1.65436 5.82(6) 237.8 4.109 5.559
79903. 1.65485 6.65(7) 197.1 4.110 6.589
79927. 1.65535 7.11(8) 177.3 4.110 7.045
79951. 1.65585 6.56(7) 199.3 4.111 6.562
79975. 1.65634 5.69(7) 235.5 4.111 5.743
79999. 1.65684 5.02(6) 269.2 4.112 5.096
80023. 1.65734 4.57(6) 292.9 4.112 4.706
80047. 1.65784 4.36(6) 302.7 4.113 4.494
80071. 1.65833 4.26(6) 309.7 4.113 4.384
80095. 1.65883 4.30(6) 303.0 4.114 4.336
80119. 1.65933 4.25(6) 308.2 4.114 4.343
80143. 1.65983 4.36(6) 304.2 4.115 4.446
80167. 1.66032 4.74(6) 279.7 4.115 4.779
80191. 1.66082 5.28(6) 252.6 4.116 5.455
80215. 1.66132 6.13(7) 209.2 4.116 6.225
80239. 1.66182 6.64(7) 190.8 4.117 6.458
80264. 1.66232 6.15(7) 205.1 4.117 6.071
80288. 1.66282 5.62(7) 232.5 4.118 5.549
80312. 1.66332 5.28(6) 251.3 4.119 5.275
80336. 1.66381 5.41(6) 249.2 4.119 5.466
80360. 1.66431 6.25(7) 213.5 4.120 6.323
80384. 1.66481 7.71(8) 168.6 4.120 7.804
80408. 1.66531 8.96(8) 139.3 4.121 8.969
80432. 1.66581 8.75(8) 143.3 4.121 8.701
80456. 1.66631 7.54(8) 170.7 4.122 7.471
80481. 1.66681 6.26(7) 210.0 4.122 6.233
80505. 1.66731 5.34(6) 247.0 4.123 5.388
80529. 1.66781 4.68(6) 286.8 4.123 4.908
80553. 1.66831 4.52(6) 296.0 4.124 4.697
80577. 1.66881 4.50(6) 296.1 4.124 4.693
80601. 1.66931 4.68(6) 277.0 4.125 4.786
80626. 1.66981 4.69(6) 275.0 4.125 4.786
80650. 1.67032 4.62(6) 280.7 4.126 4.655
80674. 1.67082 4.40(6) 302.3 4.126 4.503
80698. 1.67132 4.28(6) 305.9 4.127 4.399
80722. 1.67182 4.33(6) 299.5 4.127 4.358
80747. 1.67232 4.37(6) 301.3 4.128 4.422
80771. 1.67282 4.62(6) 287.6 4.128 4.727
80795. 1.67333 5.28(6) 251.5 4.129 5.396
80819. 1.67383 6.11(7) 206.8 4.129 6.136
80843. 1.67433 6.34(7) 198.4 4.130 6.300
80868. 1.67483 5.88(7) 219.0 4.131 5.883
80892. 1.67533 5.36(6) 246.8 4.131 5.436
80916. 1.67584 5.38(6) 248.3 4.132 5.368
80941. 1.67634 5.79(7) 226.9 4.132 5.736
80965. 1.67684 6.33(7) 199.5 4.133 6.193
80989. 1.67735 6.17(7) 210.4 4.133 6.254
81013. 1.67785 5.96(7) 222.3 4.134 5.981
81038. 1.67835 5.64(7) 235.6 4.134 5.686
81062. 1.67886 5.42(6) 249.1 4.135 5.403
81086. 1.67936 5.01(6) 278.8 4.135 5.078
81111. 1.67986 4.75(6) 293.4 4.136 4.778
81135. 1.68037 4.46(6) 322.6 4.136 4.561
81159. 1.68087 4.34(5) 341.2 4.137 4.430
81184. 1.68138 4.25(5) 341.1 4.137 4.358
81208. 1.68188 4.23(5) 342.6 4.138 4.323
81232. 1.68239 4.26(5) 340.6 4.139 4.311
81257. 1.68289 4.31(5) 332.4 4.139 4.315
81281. 1.68340 4.24(5) 342.2 4.140 4.335
81306. 1.68390 4.31(5) 339.3 4.140 4.372
81330. 1.68441 4.47(6) 321.8 4.141 4.444
81354. 1.68491 4.67(6) 311.3 4.141 4.620
81379. 1.68542 5.27(6) 281.5 4.142 5.133
81403. 1.68592 6.72(7) 216.2 4.142 6.402
81428. 1.68643 8.76(8) 159.8 4.143 8.560
81452. 1.68693 10.61(9) 125.3 4.143 10.548
81476. 1.68744 10.58(9) 126.0 4.144 10.672
81501. 1.68795 9.12(8) 148.9 4.144 9.222
81525. 1.68845 7.57(7) 183.8 4.145 7.516
81550. 1.68896 6.19(7) 231.1 4.146 6.305
81574. 1.68947 5.62(6) 256.7 4.146 5.712
81599. 1.68997 5.75(6) 248.0 4.147 5.662
81623. 1.69048 6.07(7) 231.5 4.147 6.042
81648. 1.69099 6.42(7) 212.0 4.148 6.480
81672. 1.69149 6.46(7) 212.3 4.148 6.435
81697. 1.69200 5.90(6) 241.5 4.149 6.047
81721. 1.69251 5.94(6) 241.7 4.149 5.917
81746. 1.69302 6.38(7) 222.1 4.150 6.343
81770. 1.69353 6.95(7) 195.1 4.150 6.914
81795. 1.69403 7.06(7) 190.7 4.151 6.878
81819. 1.69454 6.33(7) 218.2 4.152 6.294
81844. 1.69505 5.82(6) 239.9 4.152 5.753
81868. 1.69556 5.63(6) 250.7 4.153 5.658
81893. 1.69607 5.94(7) 235.5 4.153 5.992
81918. 1.69658 6.25(7) 218.8 4.154 6.243
81942. 1.69709 5.97(7) 229.3 4.154 5.984
81967. 1.69760 5.56(6) 249.3 4.155 5.443
81991. 1.69810 4.87(6) 286.4 4.155 4.960
82016. 1.69861 4.56(6) 313.0 4.156 4.643
82040. 1.69912 4.38(6) 322.2 4.157 4.459
82065. 1.69963 4.35(6) 321.8 4.157 4.355
82090. 1.70014 4.31(6) 321.8 4.158 4.296
82114. 1.70065 4.14(5) 338.5 4.158 4.261
82139. 1.70116 4.19(5) 335.5 4.159 4.241
82164. 1.70167 4.25(6) 329.6 4.159 4.228
82188. 1.70218 4.26(6) 323.9 4.160 4.219
82213. 1.70270 4.20(5) 331.2 4.160 4.215
82238. 1.70321 4.23(6) 325.2 4.161 4.214
82262. 1.70372 4.19(6) 328.8 4.162 4.212
82287. 1.70423 4.20(5) 331.0 4.162 4.211
82312. 1.70474 4.19(5) 334.9 4.163 4.212
82336. 1.70525 4.16(5) 332.4 4.163 4.212
82361. 1.70576 4.15(5) 334.3 4.164 4.213
82386. 1.70627 4.15(5) 330.9 4.164 4.216
82410. 1.70679 4.26(6) 329.4 4.165 4.221
82435. 1.70730 4.30(6) 320.2 4.165 4.226
82460. 1.70781 4.31(6) 315.3 4.166 4.233
82485. 1.70832 4.27(6) 322.8 4.167 4.243
82509. 1.70884 4.17(5) 336.8 4.167 4.260
82534. 1.70935 4.28(6) 320.8 4.168 4.301
82559. 1.70986 4.32(6) 321.9 4.168 4.413
82584. 1.71037 4.55(6) 304.9 4.169 4.673
82608. 1.71089 5.03(6) 274.5 4.169 5.136
82633. 1.71140 5.61(6) 241.6 4.170 5.704
82658. 1.71191 6.12(7) 215.2 4.170 6.017
82683. 1.71243 5.90(7) 227.6 4.171 5.810
82708. 1.71294 5.34(6) 256.2 4.172 5.356
82732. 1.71346 5.01(6) 274.5 4.172 4.982
82757. 1.71397 4.81(6) 289.0 4.173 4.823
82782. 1.71448 4.89(6) 284.8 4.173 4.996
82807. 1.71500 5.71(6) 244.2 4.174 5.810
82832. 1.71551 7.40(7) 183.8 4.174 7.483
82857. 1.71603 9.37(8) 139.0 4.175 9.397
82881. 1.71654 10.33(9) 123.7 4.175 10.198
82906. 1.71706 9.78(9) 131.9 4.176 9.608
82931. 1.71757 8.22(8) 159.7 4.177 8.210
82956. 1.71809 6.68(7) 198.1 4.177 6.795
82981. 1.71860 5.60(6) 241.7 4.178 5.812
83006. 1.71912 5.08(6) 269.4 4.178 5.283
83031. 1.71964 5.08(6) 266.6 4.179 5.102
83056. 1.72015 5.18(6) 260.7 4.179 5.308
83081. 1.72067 6.08(7) 225.0 4.180 6.235
83105. 1.72118 7.99(8) 167.7 4.180 8.173
83130. 1.72170 10.45(9) 117.9 4.181 10.426
83155. 1.72222 11.40(10) 105.3 4.182 11.178
83180. 1.72273 9.99(9) 124.5 4.182 9.841
83205. 1.72325 7.78(8) 168.3 4.183 7.878
83230. 1.72377 6.46(7) 205.2 4.183 6.454
83255. 1.72428 6.02(7) 224.7 4.184 5.862
83280. 1.72480 6.27(7) 215.2 4.184 6.157
83305. 1.72532 7.20(7) 184.7 4.185 7.256
83330. 1.72584 8.48(8) 153.7 4.185 8.552
83355. 1.72636 9.17(8) 139.9 4.186 9.284
83380. 1.72687 9.07(8) 140.9 4.187 9.025
83405. 1.72739 8.04(8) 160.6 4.187 7.848
83430. 1.72791 6.56(7) 200.9 4.188 6.519
83455. 1.72843 5.53(6) 244.6 4.188 5.548
83480. 1.72895 4.92(6) 271.2 4.189 4.973
83505. 1.72947 4.64(6) 286.0 4.189 4.656
83530. 1.72998 4.46(6) 304.0 4.190 4.481
83555. 1.73050 4.40(6) 302.1 4.190 4.384
83580. 1.73102 4.31(6) 310.7 4.191 4.328
83606. 1.73154 4.36(6) 302.5 4.192 4.295
83631. 1.73206 4.28(6) 311.9 4.192 4.274
83656. 1.73258 4.23(6) 312.1 4.193 4.261
83681. 1.73310 4.28(6) 309.5 4.193 4.253
83706. 1.73362 4.31(6) 309.6 4.194 4.247
83731. 1.73414 4.28(6) 307.0 4.194 4.242
83756. 1.73466 4.32(6) 298.4 4.195 4.240
83781. 1.73518 4.24(6) 314.3 4.195 4.238
83806. 1.73570 4.30(6) 306.8 4.196 4.237
83832. 1.73622 4.28(6) 304.2 4.197 4.237
83857. 1.73674 4.20(6) 316.5 4.197 4.238
83882. 1.73727 4.26(6) 309.7 4.198 4.241
83907. 1.73779 4.20(6) 313.1 4.198 4.244
83932. 1.73831 4.27(6) 306.8 4.199 4.248
83957. 1.73883 4.26(6) 306.2 4.199 4.251
83983. 1.73935 4.29(6) 304.1 4.200 4.256
84008. 1.73987 4.30(6) 303.1 4.200 4.264
84033. 1.74040 4.33(6) 300.1 4.201 4.279
84058. 1.74092 4.33(6) 300.8 4.202 4.329
84083. 1.74144 4.43(6) 292.3 4.202 4.463
84109. 1.74196 4.69(6) 275.9 4.203 4.707
84134. 1.74249 4.89(6) 266.2 4.203 4.954
84159. 1.74301 5.06(6) 254.4 4.204 5.021
84184. 1.74353 5.00(6) 258.7 4.204 5.029
84210. 1.74405 5.33(6) 244.9 4.205 5.355
84235. 1.74458 6.04(7) 211.8 4.205 6.283
84260. 1.74510 7.42(8) 167.4 4.206 7.516
84285. 1.74562 8.08(8) 151.6 4.206 8.244
84311. 1.74615 8.10(8) 150.3 4.207 8.117
84336. 1.74667 7.39(8) 168.0 4.208 7.267
84361. 1.74720 6.31(7) 201.0 4.208 6.227
84387. 1.74772 5.39(6) 239.4 4.209 5.414
84412. 1.74824 4.94(6) 257.3 4.209 4.904
84437. 1.74877 4.58(6) 276.4 4.210 4.622
84463. 1.74929 4.54(6) 277.3 4.210 4.469
84488. 1.74982 4.41(6) 285.9 4.211 4.387
84513. 1.75034 4.34(6) 293.1 4.211 4.349
84539. 1.75087 4.37(6) 287.8 4.212 4.355
84564. 1.75139 4.40(6) 289.5 4.212 4.449
84589. 1.75192 4.74(6) 266.4 4.213 4.690
84615. 1.75245 5.11(6) 243.5 4.214 5.018
84640. 1.75297 5.20(6) 237.3 4.214 5.163
84665. 1.75350 4.97(6) 250.1 4.215 5.013
84691. 1.75402 4.76(6) 260.6 4.215 4.754
84716. 1.75455 4.49(6) 279.4 4.216 4.546
84742. 1.75508 4.34(6) 289.4 4.216 4.419
84767. 1.75560 4.26(6) 295.6 4.217 4.350
84793. 1.75613 4.31(6) 290.3 4.217 4.314
84818. 1.75666 4.35(6) 289.3 4.218 4.296
84843. 1.75718 4.29(6) 293.9 4.218 4.290
84869. 1.75771 4.27(6) 294.0 4.219 4.290
84894. 1.75824 4.30(6) 289.6 4.219 4.296
84920. 1.75877 4.28(6) 293.1 4.220 4.307
84945. 1.75929 4.31(6) 290.0 4.221 4.325
84971. 1.75982 4.47(6) 280.1 4.221 4.357
84996. 1.76035 4.54(6) 273.7 4.222 4.431
85022. 1.76088 4.84(6) 266.9 4.222 4.701
85047. 1.76141 5.70(7) 233.1 4.223 5.628
85073. 1.76193 7.69(8) 167.4 4.223 7.685
85098. 1.76246 10.14(9) 118.4 4.224 10.098
85124. 1.76299 10.72(10) 110.0 4.224 10.731
85149. 1.76352 9.31(9) 129.3 4.225 9.300
85175. 1.76405 7.33(8) 170.5 4.225 7.397
85200. 1.76458 5.90(7) 212.2 4.226 6.018
85226. 1.76511 5.06(6) 252.6 4.226 5.225
85252. 1.76564 4.69(6) 269.1 4.227 4.800
85277. 1.76617 4.37(6) 287.1 4.227 4.574
85303. 1.76670 4.35(6) 285.4 4.228 4.455
85328. 1.76723 4.31(6) 287.8 4.229 4.394
85354. 1.76776 4.33(6) 283.9 4.229 4.367
85380. 1.76829 4.37(6) 283.1 4.230 4.374
85405. 1.76882 4.43(6) 282.8 4.230 4.453
85431. 1.76935 4.68(6) 266.4 4.231 4.673
85456. 1.76988 5.01(6) 246.2 4.231 5.040
85482. 1.77041 5.29(7) 236.4 4.232 5.456
85508. 1.77094 5.79(7) 213.4 4.232 5.937
85533. 1.77147 6.45(7) 183.4 4.233 6.405
85559. 1.77201 6.64(7) 177.9 4.233 6.404
85585. 1.77254 6.02(7) 198.9 4.234 5.911
85610. 1.77307 5.43(7) 226.7 4.234 5.388
85636. 1.77360 5.32(7) 231.0 4.235 5.233
85662. 1.77413 5.61(7) 221.7 4.235 5.655
85687. 1.77467 6.51(7) 183.5 4.236 6.428
85713. 1.77520 6.85(8) 171.4 4.236 6.753
85739. 1.77573 6.29(7) 190.2 4.237 6.295
85765. 1.77626 5.55(7) 216.5 4.237 5.567
85790. 1.77680 4.88(6) 249.5 4.238 5.003
85816. 1.77733 4.66(6) 258.9 4.238 4.668
85842. 1.77786 4.36(6) 282.6 4.239 4.486
85868. 1.77840 4.41(6) 275.9 4.239 4.388
85893. 1.77893 4.27(6) 285.3 4.240 4.335
85919. 1.77946 4.23(6) 286.3 4.240 4.305
85945. 1.78000 4.36(6) 273.9 4.241 4.288
85971. 1.78053 4.31(6) 278.5 4.242 4.278
85996. 1.78107 4.37(6) 270.9 4.242 4.273
86022. 1.78160 4.25(6) 281.8 4.243 4.268
86048. 1.78213 4.19(6) 284.4 4.243 4.266
86074. 1.78267 4.29(6) 276.7 4.244 4.264
86100. 1.78320 4.26(6) 279.1 4.244 4.262
86125. 1.78374 4.23(6) 286.2 4.245 4.259
86151. 1.78427 4.19(6) 288.0 4.245 4.258
86177. 1.78481 4.18(6) 288.6 4.246 4.258
86203. 1.78535 4.24(6) 281.5 4.246 4.258
86229. 1.78588 4.31(6) 280.4 4.247 4.259
86255. 1.78642 4.32(6) 271.1 4.247 4.263
86281. 1.78695 4.27(6) 281.0 4.248 4.276
86307. 1.78749 4.40(6) 271.5 4.248 4.307
86332. 1.78803 4.44(6) 264.4 4.249 4.343
86358. 1.78856 4.44(6) 262.5 4.249 4.352
86384. 1.78910 4.41(6) 266.4 4.250 4.331
86410. 1.78964 4.29(6) 277.5 4.250 4.304
86436. 1.79017 4.29(6) 275.4 4.251 4.284
86462. 1.79071 4.26(6) 278.3 4.251 4.273
86488. 1.79125 4.26(6) 279.1 4.252 4.268
86514. 1.79178 4.20(6) 283.1 4.252 4.266
86540. 1.79232 4.21(6) 280.5 4.253 4.265
86566. 1.79286 4.33(6) 267.7 4.253 4.265
86592. 1.79340 4.23(6) 277.5 4.254 4.265
86618. 1.79394 4.26(6) 274.1 4.254 4.265
86644. 1.79447 4.37(6) 267.6 4.255 4.266
86670. 1.79501 4.20(6) 279.4 4.255 4.267
86696. 1.79555 4.44(6) 259.6 4.256 4.269
86722. 1.79609 4.27(6) 273.0 4.256 4.269
86748. 1.79663 4.26(6) 277.7 4.256 4.272
86774. 1.79717 4.30(6) 264.7 4.257 4.274
86800. 1.79771 4.30(6) 270.3 4.257 4.277
86826. 1.79825 4.19(6) 279.9 4.258 4.281
86852. 1.79879 4.31(6) 271.0 4.258 4.285
86878. 1.79933 4.31(6) 268.7 4.259 4.292
86904. 1.79987 4.26(6) 269.7 4.259 4.299
86930. 1.80041 4.28(6) 271.5 4.260 4.309
86956. 1.80095 4.35(6) 262.9 4.260 4.324
86982. 1.80149 4.31(6) 266.2 4.261 4.347
87008. 1.80203 4.48(6) 256.9 4.261 4.396
87034. 1.80257 4.68(6) 249.5 4.262 4.557
87061. 1.80311 5.16(7) 232.5 4.262 5.074
87087. 1.80365 6.14(7) 194.1 4.263 6.204
87113. 1.80419 7.60(8) 146.4 4.263 7.578
87139. 1.80473 8.08(9) 135.0 4.264 8.025
87165. 1.80527 7.42(8) 147.6 4.264 7.284
87191. 1.80581 6.30(7) 178.6 4.265 6.207
87217. 1.80636 5.40(7) 212.8 4.265 5.414
87244. 1.80690 4.85(7) 235.2 4.266 5.014
87270. 1.80744 4.86(6) 238.4 4.266 4.931
87296. 1.80798 4.93(7) 227.3 4.267 5.022
87322. 1.80853 4.80(6) 237.8 4.267 5.052
87348. 1.80907 4.90(7) 226.6 4.267 4.914
87374. 1.80961 4.63(6) 241.8 4.268 4.709
87401. 1.81015 4.58(6) 245.1 4.268 4.541
87427. 1.81070 4.42(6) 251.2 4.269 4.435
87453. 1.81124 4.39(6) 254.3 4.269 4.375
87479. 1.81178 4.31(6) 256.1 4.270 4.341
87506. 1.81233 4.26(6) 269.8 4.270 4.322
87532. 1.81287 4.29(6) 263.3 4.271 4.310
87558. 1.81341 4.33(6) 259.3 4.271 4.303
87584. 1.81396 4.36(6) 250.3 4.272 4.299
87611. 1.81450 4.33(6) 260.3 4.272 4.297
87637. 1.81505 4.34(6) 258.8 4.273 4.295
87663. 1.81559 4.32(6) 255.9 4.273 4.294
87690. 1.81614 4.34(6) 254.4 4.273 4.294
87716. 1.81668 4.31(6) 258.6 4.274 4.294
87742. 1.81723 4.28(6) 258.1 4.274 4.295
87768. 1.81777 4.27(6) 259.1 4.275 4.296
87795. 1.81832 4.24(6) 263.8 4.275 4.299
87821. 1.81886 4.39(6) 252.3 4.276 4.303
87847. 1.81941 4.43(6) 250.1 4.276 4.319
87874. 1.81995 4.48(6) 245.5 4.277 4.365
87900. 1.82050 4.56(6) 241.7 4.277 4.454
87927. 1.82105 4.70(7) 230.1 4.278 4.544
87953. 1.82159 4.62(6) 237.7 4.278 4.554
87979. 1.82214 4.60(6) 240.3 4.278 4.493
88006. 1.82269 4.31(6) 256.9 4.279 4.427
88032. 1.82323 4.36(6) 254.7 4.279 4.383
88059. 1.82378 4.42(6) 247.3 4.280 4.363
88085. 1.82433 4.37(6) 252.2 4.280 4.361
88111. 1.82488 4.38(6) 257.4 4.281 4.377
88138. 1.82542 4.41(6) 252.2 4.281 4.429
88164. 1.82597 4.48(6) 251.7 4.282 4.551
88191. 1.82652 4.76(7) 231.0 4.282 4.763
88217. 1.82707 5.05(7) 220.4 4.282 5.054
88244. 1.82761 5.60(7) 199.6 4.283 5.605
88270. 1.82816 6.69(8) 165.5 4.283 6.881
88297. 1.82871 8.65(9) 121.2 4.284 8.636
88323. 1.82926 9.54(10) 109.1 4.284 9.327
88350. 1.82981 8.42(9) 126.4 4.285 8.354
88376. 1.83036 6.97(8) 154.9 4.285 6.859
88403. 1.83091 5.69(7) 192.3 4.285 5.745
88429. 1.83146 5.15(7) 214.7 4.286 5.142
88456. 1.83201 5.02(7) 218.6 4.286 4.939
88482. 1.83256 5.01(7) 220.0 4.287 5.054
88509. 1.83311 5.40(7) 199.9 4.287 5.327
88535. 1.83366 5.43(7) 198.6 4.288 5.425
88562. 1.83421 5.22(7) 207.6 4.288 5.213
88588. 1.83476 4.94(7) 219.0 4.288 4.896
88615. 1.83531 4.62(7) 233.9 4.289 4.650
88642. 1.83586 4.57(7) 233.6 4.289 4.505
88668. 1.83641 4.47(6) 242.2 4.290 4.428
88695. 1.83696 4.37(6) 244.4 4.290 4.388
88721. 1.83751 4.29(6) 256.0 4.291 4.369
88748. 1.83806 4.34(6) 249.2 4.291 4.362
88775. 1.83861 4.37(6) 245.6 4.291 4.362
88801. 1.83916 4.34(6) 247.0 4.292 4.368
88828. 1.83972 4.27(6) 254.1 4.292 4.382
88855. 1.84027 4.38(6) 246.4 4.293 4.407
88881. 1.84082 4.40(6) 245.9 4.293 4.478
88908. 1.84137 4.92(7) 220.1 4.293 4.767
88935. 1.84193 5.80(7) 191.4 4.294 5.757
88961. 1.84248 7.85(9) 137.7 4.294 7.826
88988. 1.84303 9.90(10) 101.6 4.295 9.947
89015. 1.84358 10.17(10) 97.0 4.295 10.126
89041. 1.84414 8.53(9) 120.2 4.295 8.561
89068. 1.84469 6.84(8) 152.3 4.296 6.822
89095. 1.84524 5.64(7) 190.6 4.296 5.664
89121. 1.84580 4.97(7) 214.3 4.297 5.032
89148. 1.84635 4.76(7) 219.1 4.297 4.704
89175. 1.84691 4.51(7) 230.0 4.298 4.533
89202. 1.84746 4.41(6) 239.3 4.298 4.443
89228. 1.84801 4.47(7) 232.3 4.298 4.394
89255. 1.84857 4.35(6) 241.8 4.299 4.367
89282. 1.84912 4.34(6) 243.8 4.299 4.351
89309. 1.84968 4.28(6) 247.7 4.300 4.342
89336. 1.85023 4.29(6) 245.3 4.300 4.337
89362. 1.85079 4.32(6) 245.4 4.300 4.335
89389. 1.85134 4.30(6) 243.5 4.301 4.337
89416. 1.85190 4.23(6) 248.8 4.301 4.351
89443. 1.85245 4.35(6) 241.1 4.301 4.404
89470. 1.85301 4.62(7) 225.0 4.302 4.529
89496. 1.85357 4.73(7) 219.4 4.302 4.693
89523. 1.85412 4.70(7) 222.1 4.303 4.759
89550. 1.85468 4.66(7) 225.8 4.303 4.677
89577. 1.85524 4.60(7) 225.1 4.303 4.548
89604. 1.85579 4.52(7) 229.3 4.304 4.446
89631. 1.85635 4.25(6) 249.1 4.304 4.388
89658. 1.85691 4.35(6) 243.3 4.305 4.359
89685. 1.85746 4.27(6) 241.6 4.305 4.347
89712. 1.85802 4.44(7) 232.4 4.305 4.351
89738. 1.85858 4.31(6) 242.9 4.306 4.394
89765. 1.85914 4.54(7) 228.0 4.306 4.517
89792. 1.85969 4.73(7) 219.7 4.307 4.710
89819. 1.86025 4.86(7) 206.9 4.307 4.828
89846. 1.86081 4.74(7) 218.7 4.307 4.764
89873. 1.86137 4.61(7) 225.6 4.308 4.613
89900. 1.86193 4.43(7) 235.9 4.308 4.485
89927. 1.86248 4.41(7) 233.9 4.308 4.405
89954. 1.86304 4.28(6) 239.6 4.309 4.365
89981. 1.86360 4.42(7) 229.5 4.309 4.344
90008. 1.86416 4.28(6) 241.6 4.310 4.334
90035. 1.86472 4.26(6) 242.1 4.310 4.330
90062. 1.86528 4.37(7) 233.4 4.310 4.330
90089. 1.86584 4.29(7) 236.6 4.311 4.335
90116. 1.86640 4.37(7) 233.9 4.311 4.352
90143. 1.86696 4.46(7) 228.8 4.311 4.410
90170. 1.86752 4.54(7) 227.8 4.312 4.540
90197. 1.86808 4.59(7) 223.0 4.312 4.716
90224. 1.86864 4.64(7) 218.7 4.312 4.799
90251. 1.86920 4.64(7) 215.1 4.313 4.724
90278. 1.86976 4.51(7) 224.4 4.313 4.586
90305. 1.87032 4.48(7) 224.7 4.314 4.473
90333. 1.87088 4.43(7) 225.1 4.314 4.404
90360. 1.87145 4.35(7) 232.2 4.314 4.366
90387. 1.87201 4.24(6) 237.2 4.315 4.347
90414. 1.87257 4.36(7) 228.1 4.315 4.336
90441. 1.87313 4.47(7) 223.8 4.315 4.331
90468. 1.87369 4.49(7) 221.5 4.316 4.329
90495. 1.87426 4.28(7) 229.7 4.316 4.328
90522. 1.87482 4.27(7) 235.2 4.316 4.327
90550. 1.87538 4.35(7) 228.2 4.317 4.329
90577. 1.87594 4.42(7) 225.8 4.317 4.335
90604. 1.87651 4.48(7) 222.1 4.318 4.349
90631. 1.87707 4.47(7) 218.3 4.318 4.368
90658. 1.87763 4.43(7) 220.8 4.318 4.377
90686. 1.87820 4.41(7) 223.7 4.319 4.369
90713. 1.87876 4.38(7) 226.2 4.319 4.356
90740. 1.87932 4.31(7) 230.4 4.319 4.345
90767. 1.87989 4.33(7) 225.7 4.320 4.338
90794. 1.88045 4.35(7) 228.4 4.320 4.335
90822. 1.88101 4.29(7) 230.1 4.320 4.334
90849. 1.88158 4.39(7) 222.4 4.321 4.334
90876. 1.88214 4.37(7) 222.1 4.321 4.335
90903. 1.88271 4.36(7) 227.3 4.321 4.335
90931. 1.88327 4.32(7) 226.0 4.322 4.337
90958. 1.88384 4.40(7) 223.0 4.322 4.339
90985. 1.88440 4.47(7) 218.2 4.322 4.341
91013. 1.88497 4.38(7) 222.7 4.323 4.344
91040. 1.88553 4.28(7) 226.5 4.323 4.347
91067. 1.88610 4.31(7) 223.1 4.323 4.352
91094. 1.88667 4.43(7) 221.9 4.324 4.358
91122. 1.88723 4.37(7) 225.2 4.324 4.368
91149. 1.88780 4.31(7) 226.5 4.324 4.384
91176. 1.88836 4.53(7) 212.8 4.325 4.432
91204. 1.88893 4.70(7) 208.2 4.325 4.612
91231. 1.88950 5.26(7) 188.3 4.325 5.120
91259. 1.89006 6.01(8) 160.9 4.326 5.946
91286. 1.89063 6.57(8) 143.4 4.326 6.496
91313. 1.89120 6.29(8) 151.4 4.326 6.266
91341. 1.89177 5.61(8) 171.0 4.327 5.634
91368. 1.89233 5.04(7) 193.3 4.327 5.097
91396. 1.89290 4.96(7) 196.6 4.327 4.808
91423. 1.89347 4.84(7) 204.1 4.328 4.747
91450. 1.89404 5.02(7) 197.6 4.328 4.880
91478. 1.89461 5.22(7) 185.1 4.328 5.089
91505. 1.89517 5.17(7) 186.0 4.329 5.148
91533. 1.89574 5.06(7) 188.8 4.329 5.002
91560. 1.89631 4.78(7) 200.1 4.329 4.794
91588. 1.89688 4.55(7) 213.0 4.330 4.636
91615. 1.89745 4.58(7) 207.6 4.330 4.555
91643. 1.89802 4.48(7) 215.5 4.330 4.550
91670. 1.89859 4.57(7) 211.8 4.331 4.625
91698. 1.89916 4.53(7) 212.8 4.331 4.762
91725. 1.89973 4.85(7) 200.1 4.331 4.926
91753. 1.90030 5.17(7) 188.9 4.332 5.226
91780. 1.90087 5.83(8) 162.6 4.332 5.888
91808. 1.90144 6.63(8) 140.9 4.332 6.767
91835. 1.90201 7.00(9) 131.2 4.333 7.131
91863. 1.90258 6.74(9) 137.7 4.333 6.705
91890. 1.90315 6.15(8) 154.1 4.333 6.094
91918. 1.90372 5.88(8) 161.4 4.334 5.927
91945. 1.90429 6.30(8) 149.4 4.334 6.421
91973. 1.90486 7.00(9) 130.5 4.334 7.117
92001. 1.90544 7.11(9) 127.5 4.335 7.139
92028. 1.90601 6.40(8) 143.9 4.335 6.458
92056. 1.90658 5.55(8) 169.5 4.335 5.669
92083. 1.90715 5.02(7) 188.8 4.336 5.113
92111. 1.90772 4.70(7) 198.9 4.336 4.798
92139. 1.90830 4.52(7) 207.3 4.336 4.635
92166. 1.90887 4.59(7) 201.6 4.337 4.558
92194. 1.90944 4.54(7) 205.3 4.337 4.529
92222. 1.91001 4.60(7) 202.1 4.337 4.545
92249. 1.91059 4.72(7) 196.9 4.337 4.680
92277. 1.91116 5.08(7) 188.0 4.338 5.170
92305. 1.91173 6.10(8) 156.2 4.338 6.280
92332. 1.91231 7.54(9) 120.6 4.338 7.653
92360. 1.91288 8.13(10) 108.7 4.339 8.102
92388. 1.91346 7.31(9) 122.0 4.339 7.339
92415. 1.91403 6.14(8) 153.6 4.339 6.234
92443. 1.91460 5.29(7) 177.8 4.340 5.414
92471. 1.91518 4.91(7) 188.5 4.340 4.951
92499. 1.91575 4.73(7) 193.2 4.340 4.740
92526. 1.91633 4.58(7) 204.9 4.341 4.706
92554. 1.91690 4.76(7) 193.9 4.341 4.787
92582. 1.91748 4.89(7) 188.1 4.341 4.864
92610. 1.91805 4.86(7) 189.6 4.341 4.861
92638. 1.91863 4.77(7) 194.6 4.342 4.793
92665. 1.91920 4.63(7) 200.1 4.342 4.694
92693. 1.91978 4.60(7) 202.5 4.342 4.608
92721. 1.92036 4.59(7) 203.6 4.343 4.561
92749. 1.92093 4.57(7) 201.2 4.343 4.568
92777. 1.92151 4.67(7) 203.9 4.343 4.707
92804. 1.92209 5.44(8) 174.3 4.344 5.293
92832. 1.92266 6.82(8) 140.2 4.344 6.815
92860. 1.92324 8.86(10) 101.5 4.344 8.994
92888. 1.92382 10.31(11) 84.1 4.345 10.054
92916. 1.92439 9.39(10) 93.4 4.345 9.101
92944. 1.92497 7.45(9) 122.6 4.345 7.387
92972. 1.92555 5.97(8) 157.7 4.345 6.054
92999. 1.92613 5.16(7) 178.2 4.346 5.293
93027. 1.92670 4.84(7) 190.7 4.346 4.910
93055. 1.92728 4.82(7) 186.1 4.346 4.731
93083. 1.92786 4.63(7) 195.6 4.347 4.672
93111. 1.92844 4.76(7) 193.9 4.347 4.738
93139. 1.92902 5.02(7) 183.8 4.347 5.066
93167. 1.92960 5.73(8) 159.7 4.347 5.866
93195. 1.93018 6.86(9) 132.0 4.348 7.033
93223. 1.93075 7.64(9) 113.6 4.348 7.749
93251. 1.93133 7.55(9) 112.7 4.348 7.405
93279. 1.93191 6.57(9) 133.8 4.349 6.529
93307. 1.93249 5.80(8) 153.1 4.349 5.795
93335. 1.93307 5.60(8) 157.0 4.349 5.473
93363. 1.93365 5.64(8) 158.0 4.350 5.617
93391. 1.93423 6.50(8) 140.6 4.350 6.336
93419. 1.93481 7.88(9) 111.6 4.350 7.694
93447. 1.93539 8.95(10) 95.5 4.350 8.954
93475. 1.93597 8.92(10) 95.0 4.351 8.880
93503. 1.93656 7.89(10) 109.0 4.351 7.707
93531. 1.93714 6.67(9) 133.0 4.351 6.478
93559. 1.93772 5.95(8) 152.5 4.352 5.812
93587. 1.93830 6.05(8) 147.8 4.352 6.001
93615. 1.93888 6.93(9) 125.4 4.352 7.085
93643. 1.93946 8.17(10) 101.1 4.352 8.215
93671. 1.94004 8.26(10) 99.4 4.353 8.124
93699. 1.94063 7.29(9) 116.3 4.353 7.036
93728. 1.94121 6.05(8) 144.5 4.353 5.923
93756. 1.94179 5.26(8) 165.9 4.354 5.207
93784. 1.94237 4.78(7) 182.4 4.354 4.823
93812. 1.94296 4.54(7) 191.8 4.354 4.626
93840. 1.94354 4.49(7) 192.0 4.355 4.523
93868. 1.94412 4.47(7) 198.7 4.355 4.468
93896. 1.94471 4.40(7) 200.2 4.355 4.437
93925. 1.94529 4.38(7) 197.8 4.355 4.419
93953. 1.94587 4.42(7) 193.6 4.356 4.407
93981. 1.94646 4.54(7) 190.9 4.356 4.399
94009. 1.94704 4.46(7) 197.6 4.356 4.394
94037. 1.94762 4.38(7) 197.0 4.357 4.389
94066. 1.94821 4.45(7) 196.4 4.357 4.386
94094. 1.94879 4.35(7) 199.3 4.357 4.384
94122. 1.94938 4.46(7) 194.9 4.357 4.382
94150. 1.94996 4.38(7) 201.3 4.358 4.380
94178. 1.95055 4.34(7) 200.1 4.358 4.378
94207. 1.95113 4.41(7) 196.1 4.358 4.377
94235. 1.95172 4.36(7) 197.3 4.359 4.377
94263. 1.95230 4.42(7) 196.1 4.359 4.376
94292. 1.95289 4.51(7) 191.9 4.359 4.376
94320. 1.95348 4.47(7) 195.8 4.359 4.375
94348. 1.95406 4.40(7) 196.0 4.360 4.375
94376. 1.95465 4.43(7) 193.9 4.360 4.374
94405. 1.95524 4.30(7) 201.6 4.360 4.374
94433. 1.95582 4.25(7) 205.9 4.361 4.374
94461. 1.95641 4.37(7) 200.8 4.361 4.374
94490. 1.95700 4.35(7) 199.5 4.361 4.374
94518. 1.95758 4.39(7) 193.1 4.361 4.374
94546. 1.95817 4.35(7) 197.6 4.362 4.374
94575. 1.95876 4.32(7) 199.7 4.362 4.375
94603. 1.95935 4.32(7) 202.3 4.362 4.372
94632. 1.95993 4.20(7) 207.6 4.363 4.373
94660. 1.96052 4.41(7) 194.1 4.363 4.373
94688. 1.96111 4.31(7) 198.3 4.363 4.375
94717. 1.96170 4.47(7) 189.7 4.363 4.375
94745. 1.96229 4.31(7) 198.7 4.364 4.377
94774. 1.96288 4.33(7) 197.0 4.364 4.374
94802. 1.96346 4.41(7) 191.7 4.364 4.376
94830. 1.96405 4.35(7) 195.7 4.365 4.378
94859. 1.96464 4.37(7) 194.1 4.365 4.381
94887. 1.96523 4.52(7) 189.1 4.365 4.385
94916. 1.96582 4.40(7) 191.4 4.365 4.389
94944. 1.96641 4.42(7) 191.3 4.366 4.397
94973. 1.96700 4.43(7) 187.2 4.366 4.410
95001. 1.96759 4.46(7) 187.0 4.366 4.431
95030. 1.96818 4.52(7) 184.6 4.367 4.475
95058. 1.96877 4.59(7) 184.2 4.367 4.598
95087. 1.96936 4.90(8) 170.1 4.367 4.884
95115. 1.96995 5.20(8) 159.5 4.367 5.303
95144. 1.97055 5.61(8) 145.3 4.368 5.559
95172. 1.97114 5.51(8) 147.0 4.368 5.429
95201. 1.97173 5.33(8) 151.5 4.368 5.107
95230. 1.97232 4.91(8) 167.6 4.369 4.837
95258. 1.97291 4.74(8) 176.6 4.369 4.735
95287. 1.97350 4.87(8) 173.3 4.369 4.917
95315. 1.97410 5.37(8) 154.0 4.369 5.512
95344. 1.97469 6.30(9) 126.8 4.370 6.294
95372. 1.97528 6.56(9) 120.4 4.370 6.547
95401. 1.97587 5.95(9) 136.3 4.370 6.083
95430. 1.97647 5.24(8) 156.3 4.371 5.425
95458. 1.97706 4.85(8) 169.3 4.371 4.946
95487. 1.97765 4.70(8) 174.8 4.371 4.678
95516. 1.97825 4.45(7) 188.5 4.371 4.541
95544. 1.97884 4.37(7) 190.8 4.372 4.472
95573. 1.97943 4.39(7) 192.7 4.372 4.436
95602. 1.98003 4.40(7) 185.3 4.372 4.420
95630. 1.98062 4.33(7) 192.6 4.373 4.410
95659. 1.98122 4.32(7) 190.3 4.373 4.404
95688. 1.98181 4.40(7) 186.2 4.373 4.401
95716. 1.98240 4.39(7) 186.2 4.373 4.404
95745. 1.98300 4.43(7) 183.1 4.374 4.404
95774. 1.98359 4.41(7) 183.4 4.374 4.406
95803. 1.98419 4.49(7) 178.8 4.374 4.409
95831. 1.98478 4.52(8) 176.6 4.375 4.415
95860. 1.98538 4.39(7) 186.1 4.375 4.436
95889. 1.98598 4.51(7) 177.8 4.375 4.503
95918. 1.98657 4.59(8) 175.5 4.375 4.670
95946. 1.98717 4.67(8) 173.9 4.376 4.923
95975. 1.98776 4.96(8) 162.0 4.376 5.084
96004. 1.98836 4.88(8) 164.5 4.376 5.007
96033. 1.98896 4.91(8) 161.5 4.377 4.809
96062. 1.98955 4.66(8) 173.1 4.377 4.635
96090. 1.99015 4.57(8) 173.4 4.377 4.528
96119. 1.99075 4.47(7) 178.1 4.378 4.473
96148. 1.99134 4.45(7) 179.2 4.378 4.448
96177. 1.99194 4.42(7) 182.0 4.378 4.444
96206. 1.99254 4.42(7) 181.7 4.378 4.459
96235. 1.99314 4.61(8) 171.0 4.379 4.478
96263. 1.99374 4.43(7) 179.9 4.379 4.480
96292. 1.99433 4.44(8) 176.8 4.379 4.464
96321. 1.99493 4.49(8) 173.8 4.380 4.448
96350. 1.99553 4.53(8) 171.9 4.380 4.438
96379. 1.99613 4.45(8) 174.2 4.380 4.435
96408. 1.99673 4.48(8) 171.9 4.380 4.436
96437. 1.99733 4.55(8) 170.1 4.381 4.439
96466. 1.99793 4.45(8) 175.1 4.381 4.444
96495. 1.99853 4.43(8) 174.5 4.381 4.451
96524. 1.99913 4.49(8) 169.2 4.382 4.459
96553. 1.99973 4.59(8) 163.0 4.382 4.470
96582. 2.00033 4.56(8) 165.8 4.382 4.482
96611. 2.00093 4.51(8) 168.3 4.383 4.500
96640. 2.00153 4.54(8) 165.4 4.383 4.523
96669. 2.00213 4.48(8) 167.7 4.383 4.556
96698. 2.00273 4.59(8) 160.4 4.383 4.603
96727. 2.00333 4.81(8) 155.8 4.384 4.684
96756. 2.00393 4.93(8) 152.7 4.384 4.894
96785. 2.00453 5.54(9) 137.8 4.384 5.599
96814. 2.00513 7.17(10) 108.7 4.385 7.508
96843. 2.00573 10.67(12) 66.4 4.385 10.742
96872. 2.00634 13.61(14) 48.1 4.385 13.296
96901. 2.00694 13.10(14) 50.5 4.386 12.800
96930. 2.00754 10.42(12) 67.2 4.386 10.324
96959. 2.00814 7.92(10) 92.3 4.386 7.971
96988. 2.00874 6.46(9) 113.8 4.386 6.558
97017. 2.00935 5.91(9) 124.6 4.387 5.977
97046. 2.00995 6.00(9) 127.2 4.387 6.164
97075. 2.01055 7.19(10) 107.4 4.387 7.549
97104. 2.01116 9.98(12) 73.1 4.388 10.460
97134. 2.01176 13.63(14) 49.0 4.388 13.596
97163. 2.01236 14.58(15) 44.4 4.388 14.135
97192. 2.01297 12.00(13) 56.2 4.389 11.952
97221. 2.01357 8.98(11) 79.2 4.389 9.189
97250. 2.01418 7.02(10) 104.1 4.389 7.181
97279. 2.01478 5.89(9) 124.5 4.389 6.087
97309. 2.01538 5.59(9) 132.5 4.390 5.744
97338. 2.01599 6.05(9) 123.4 4.390 6.193
97367. 2.01659 7.13(10) 102.7 4.390 7.402
97396. 2.01720 8.45(11) 82.6 4.391 8.551
97425. 2.01780 8.76(11) 78.5 4.391 8.450
97455. 2.01841 7.56(10) 93.3 4.391 7.348
97484. 2.01902 6.26(9) 116.1 4.392 6.188
97513. 2.01962 5.40(9) 133.0 4.392 5.410
97542. 2.02023 4.91(8) 148.6 4.392 4.980
97572. 2.02083 4.70(8) 154.6 4.393 4.756
97601. 2.02144 4.67(8) 153.6 4.393 4.637
97630. 2.02205 4.58(8) 153.9 4.393 4.572
97659. 2.02265 4.49(8) 158.6 4.393 4.535
97689. 2.02326 4.51(8) 159.0 4.394 4.513
97718. 2.02387 4.55(8) 156.3 4.394 4.499
97747. 2.02447 4.52(8) 155.8 4.394 4.491
97777. 2.02508 4.57(8) 153.0 4.395 4.487
97806. 2.02569 4.49(8) 157.1 4.395 4.486
97835. 2.02630 4.57(8) 150.4 4.395 4.488
97865. 2.02691 4.49(8) 154.4 4.396 4.497
97894. 2.02751 4.51(8) 152.2 4.396 4.507
97923. 2.02812 4.59(8) 150.1 4.396 4.524
97953. 2.02873 4.54(8) 150.3 4.397 4.552
97982. 2.02934 4.68(8) 145.8 4.397 4.603
98012. 2.02995 4.87(8) 144.4 4.397 4.754
98041. 2.03056 5.42(9) 129.3 4.398 5.307
98070. 2.03117 6.88(10) 102.6 4.398 6.855
98100. 2.03178 9.25(12) 70.3 4.398 9.445
98129. 2.03238 11.29(14) 54.4 4.398 11.336
98159. 2.03299 11.07(13) 55.6 4.399 10.738
98188. 2.03360 8.76(12) 73.9 4.399 8.678
98218. 2.03421 6.80(10) 98.0 4.399 6.814
98247. 2.03483 5.86(9) 115.3 4.400 5.681
98277. 2.03544 5.42(9) 123.6 4.400 5.100
98306. 2.03605 4.92(8) 138.4 4.400 4.824
98336. 2.03666 4.87(9) 137.8 4.401 4.710
98365. 2.03727 4.82(8) 142.2 4.401 4.660
98395. 2.03788 4.73(8) 143.5 4.401 4.613
98424. 2.03849 4.75(8) 144.1 4.402 4.562
98454. 2.03910 4.65(8) 146.7 4.402 4.525
98483. 2.03971 4.64(8) 147.8 4.402 4.502
98513. 2.04033 4.70(8) 144.9 4.403 4.491
98542. 2.04094 4.53(8) 151.2 4.403 4.482
98572. 2.04155 4.53(8) 156.4 4.403 4.496
98601. 2.04216 4.73(8) 146.7 4.404 4.532
98631. 2.04278 4.65(8) 150.6 4.404 4.585
98661. 2.04339 4.83(8) 142.7 4.404 4.615
98690. 2.04400 4.75(8) 148.7 4.405 4.602
98720. 2.04462 4.73(8) 146.8 4.405 4.573
98749. 2.04523 4.74(8) 148.7 4.405 4.559
98779. 2.04584 4.55(8) 157.9 4.406 4.564
98809. 2.04646 4.68(8) 153.3 4.406 4.590
98838. 2.04707 4.72(8) 152.7 4.406 4.645
98868. 2.04769 4.91(8) 146.0 4.407 4.788
98898. 2.04830 5.70(9) 128.9 4.407 5.324
98927. 2.04891 7.19(10) 105.1 4.407 7.032
98957. 2.04953 10.68(12) 66.1 4.408 10.443
98987. 2.05014 14.34(15) 45.4 4.408 13.928
99016. 2.05076 14.77(15) 44.6 4.408 14.827
99046. 2.05137 13.63(14) 50.2 4.409 13.963
99076. 2.05199 12.73(14) 52.8 4.409 12.925
99105. 2.05260 11.19(13) 60.5 4.409 11.190
99135. 2.05322 8.78(11) 80.1 4.410 8.868
99165. 2.05384 6.93(10) 104.2 4.410 6.932
99195. 2.05445 5.67(9) 129.8 4.410 5.757
99224. 2.05507 5.15(8) 142.0 4.411 5.149
99254. 2.05569 4.94(8) 149.0 4.411 4.847
99284. 2.05630 4.75(8) 155.1 4.411 4.695
99314. 2.05692 4.67(8) 156.3 4.412 4.624
99344. 2.05754 4.58(8) 162.4 4.412 4.601
99373. 2.05815 4.67(8) 157.2 4.412 4.637
99403. 2.05877 5.05(8) 145.4 4.413 4.856
99433. 2.05939 5.61(9) 133.5 4.413 5.564
99463. 2.06001 6.85(10) 105.4 4.413 6.839
99493. 2.06063 7.92(11) 87.6 4.414 7.816
99522. 2.06124 7.63(10) 93.6 4.414 7.535
99552. 2.06186 6.69(10) 108.7 4.414 6.494
99582. 2.06248 5.68(9) 132.8 4.415 5.564
99612. 2.06310 5.26(8) 143.7 4.415 5.013
99642. 2.06372 4.86(8) 155.8 4.415 4.735
99672. 2.06434 4.70(8) 160.8 4.416 4.599
99702. 2.06496 4.68(8) 160.1 4.416 4.532
99732. 2.06558 4.53(8) 161.0 4.416 4.499
99762. 2.06620 4.57(8) 152.5 4.417 4.486
99792. 2.06682 4.53(8) 149.2 4.417 4.498
99821. 2.06744 4.64(8) 144.1 4.417 4.556
99851. 2.06806 4.59(8) 142.6 4.418 4.662
99881. 2.06868 4.74(9) 135.1 4.418 4.743
99911. 2.06930 4.72(9) 136.0 4.418 4.719
99941. 2.06992 4.63(8) 138.7 4.419 4.630
99971. 2.07054 4.56(8) 142.1 4.419 4.548
100001. 2.07116 4.42(8) 148.9 4.419 4.498
100031. 2.07178 4.45(8) 144.0 4.420 4.473
100061. 2.07240 4.44(8) 148.4 4.420 4.458
100091. 2.07303 4.35(8) 152.0 4.420 4.454
100121. 2.07365 4.53(8) 143.9 4.421 4.453
100151. 2.07427 4.44(8) 146.8 4.421 4.453
100181. 2.07489 4.41(8) 148.9 4.421 4.461
100211. 2.07552 4.52(8) 146.0 4.422 4.471
100242. 2.07614 4.55(8) 142.1 4.422 4.491
100272. 2.07676 4.65(8) 140.7 4.422 4.552
100302. 2.07738 4.94(9) 132.3 4.423 4.758
100332. 2.07801 5.26(9) 124.4 4.423 5.265
100362. 2.07863 5.97(10) 105.3 4.423 6.003
100392. 2.07925 6.61(10) 92.4 4.424 6.411
100422. 2.07988 6.42(10) 97.5 4.424 6.126
100452. 2.08050 5.67(9) 113.1 4.425 5.531
100482. 2.08113 5.19(9) 123.7 4.425 5.040
100512. 2.08175 4.69(9) 138.2 4.425 4.752
100543. 2.08238 4.65(9) 138.2 4.426 4.603
100573. 2.08300 4.56(8) 138.9 4.426 4.530
100603. 2.08363 4.74(9) 132.3 4.426 4.494
100633. 2.08425 4.54(8) 140.1 4.427 4.475
100663. 2.08488 4.58(9) 137.7 4.427 4.465
100694. 2.08550 4.65(9) 135.1 4.427 4.459
100724. 2.08613 4.35(8) 147.1 4.428 4.456
100754. 2.08675 4.45(8) 140.7 4.428 4.454
100784. 2.08738 4.49(8) 138.6 4.428 4.453
100814. 2.08801 4.61(9) 134.7 4.429 4.453
100845. 2.08863 4.54(9) 135.9 4.429 4.453
100875. 2.08926 4.44(8) 139.9 4.429 4.454
100905. 2.08989 4.47(8) 142.2 4.430 4.455
100935. 2.09051 4.53(9) 136.7 4.430 4.456
100966. 2.09114 4.48(8) 138.7 4.430 4.458
100996. 2.09177 4.55(9) 135.9 4.431 4.460
101026. 2.09240 4.51(9) 136.3 4.431 4.463
101057. 2.09302 4.47(8) 140.0 4.431 4.466
101087. 2.09365 4.47(8) 138.8 4.432 4.470
101117. 2.09428 4.64(9) 131.1 4.432 4.475
101148. 2.09491 4.49(9) 136.2 4.433 4.481
101178. 2.09554 4.56(9) 135.1 4.433 4.488
101208. 2.09616 4.53(9) 134.9 4.433 4.505
101239. 2.09679 4.47(9) 136.4 4.434 4.520
101269. 2.09742 4.60(9) 136.0 4.434 4.542
101299. 2.09805 4.53(8) 140.7 4.434 4.589
101330. 2.09868 4.77(9) 135.5 4.435 4.731
101360. 2.09931 5.09(9) 128.7 4.435 5.132
101391. 2.09994 5.70(9) 118.2 4.435 5.903
101421. 2.10057 6.43(10) 101.7 4.436 6.701
101451. 2.10120 6.71(10) 97.1 4.436 6.852
101482. 2.10183 6.49(10) 100.9 4.436 6.494
101512. 2.10246 6.24(10) 106.8 4.437 6.286
101543. 2.10309 6.35(10) 103.9 4.437 6.391
101573. 2.10372 6.54(10) 101.9 4.437 6.414
101604. 2.10436 6.51(10) 103.7 4.438 6.385
101634. 2.10499 7.08(10) 96.3 4.438 6.896
101665. 2.10562 7.92(11) 85.3 4.438 8.131
101695. 2.10625 9.07(12) 70.3 4.439 9.141
101726. 2.10688 8.78(12) 74.0 4.439 8.832
101756. 2.10751 7.84(11) 85.0 4.439 7.748
101787. 2.10815 6.82(10) 99.2 4.440 6.866
101817. 2.10878 6.41(10) 103.0 4.440 6.384
101848. 2.10941 5.93(9) 111.6 4.440 6.007
101878. 2.11004 5.94(9) 112.9 4.441 5.807
101909. 2.11068 6.27(10) 106.3 4.441 6.185
101940. 2.11131 7.18(11) 89.0 4.441 7.262
101970. 2.11194 8.32(12) 73.5 4.442 8.254
102001. 2.11258 8.15(12) 75.3 4.442 8.082
102031. 2.11321 6.92(10) 92.4 4.442 7.047
102062. 2.11385 5.97(10) 109.0 4.443 6.020
102093. 2.11448 5.42(9) 117.4 4.443 5.371
102123. 2.11511 4.92(9) 129.7 4.444 5.048
102154. 2.11575 4.94(9) 129.0 4.444 4.922
102184. 2.11638 5.09(9) 124.0 4.444 4.939
102215. 2.11702 5.62(9) 113.1 4.445 5.258
102246. 2.11765 7.28(11) 85.5 4.445 6.648
102276. 2.11829 10.70(14) 52.7 4.445 10.464
102307. 2.11893 16.16(19) 28.54 4.446 16.270
102338. 2.11956 19.29(22) 21.32 4.446 19.491
102369. 2.12020 16.90(20) 25.49 4.446 17.134
102399. 2.12083 11.87(16) 41.6 4.447 12.408
102430. 2.12147 8.58(13) 62.4 4.447 8.676
102461. 2.12211 6.48(11) 87.7 4.447 6.587
102491. 2.12274 5.52(10) 104.1 4.448 5.559
102522. 2.12338 5.17(9) 111.3 4.448 5.061
102553. 2.12402 4.67(9) 126.5 4.448 4.815
102584. 2.12465 4.71(9) 121.7 4.449 4.687
102614. 2.12529 4.45(9) 131.9 4.449 4.617
102645. 2.12593 4.51(9) 127.5 4.449 4.577
102676. 2.12657 4.53(9) 126.3 4.450 4.551
102707. 2.12721 4.47(9) 127.0 4.450 4.533
102738. 2.12784 4.58(9) 121.5 4.450 4.520
102768. 2.12848 4.40(9) 127.7 4.450 4.510
102799. 2.12912 4.35(9) 130.9 4.451 4.503
102830. 2.12976 4.47(9) 0.0 4.451 .
102861. 2.13040 4.53(9) 0.0 4.451 .
102892. 2.13104 4.47(9) 0.0 4.452 .
102923. 2.13168 4.65(9) 0.0 4.452 .
102954. 2.13232 4.58(9) 0.0 4.452 .
102985. 2.13296 4.68(9) 0.0 4.453 .
103015. 2.13360 4.71(9) 0.0 4.453 .
103046. 2.13424 4.86(9) 0.0 4.453 .
103077. 2.13488 4.76(9) 0.0 4.454 .
103108. 2.13552 4.77(9) 0.0 4.454 .
103139. 2.13616 4.67(9) 0.0 4.454 .
103170. 2.13680 4.64(9) 0.0 4.455 .
103201. 2.13744 4.35(9) 0.0 4.455 .
103232. 2.13808 4.42(9) 0.0 4.455 .
103263. 2.13872 4.45(9) 0.0 4.456 .
103294. 2.13936 4.44(9) 122.8 4.456 4.465
103325. 2.14001 4.43(9) 123.4 4.456 4.465
103356. 2.14065 4.28(9) 131.3 4.456 4.465
103387. 2.14129 4.28(9) 128.5 4.457 4.465
103418. 2.14193 4.53(9) 119.6 4.457 4.464
103449. 2.14258 4.55(9) 117.9 4.457 4.464
103480. 2.14322 4.43(9) 123.2 4.458 4.464
103511. 2.14386 4.45(9) 124.2 4.458 4.464
103542. 2.14451 4.37(9) 128.5 4.458 4.464
103573. 2.14515 4.32(9) 130.0 4.459 4.464
103604. 2.14579 4.32(9) 129.5 4.459 4.464
103635. 2.14644 4.38(9) 125.6 4.459 4.464
103666. 2.14708 4.49(9) 120.0 4.459 4.464
103697. 2.14772 4.35(9) 128.6 4.460 4.464
103729. 2.14837 4.30(9) 129.5 4.460 4.464
103760. 2.14901 4.35(9) 128.8 4.460 4.465
103791. 2.14966 4.31(9) 128.9 4.461 4.465
103822. 2.15030 4.37(9) 126.0 4.461 4.465
103853. 2.15095 4.33(9) 128.1 4.461 4.465
103884. 2.15159 4.32(9) 129.4 4.461 4.461
103915. 2.15224 4.36(9) 127.2 4.462 4.463
103947. 2.15288 4.45(9) 123.1 4.462 4.464
103978. 2.15353 4.39(9) 126.4 4.462 4.464
104009. 2.15418 4.32(9) 128.6 4.463 4.465
104040. 2.15482 4.45(9) 121.8 4.463 4.465
104071. 2.15547 4.39(9) 127.0 4.463 4.465
104103. 2.15612 4.23(9) 130.9 4.463 4.466
104134. 2.15676 4.37(9) 124.4 4.464 4.466
104165. 2.15741 4.41(9) 124.1 4.464 4.467
104196. 2.15806 4.37(9) 125.5 4.464 4.467
104228. 2.15871 4.40(9) 123.6 4.464 4.467
104259. 2.15935 4.31(9) 127.0 4.465 4.468
104290. 2.16000 4.41(9) 126.2 4.465 4.468
104321. 2.16065 4.44(9) 125.9 4.465 4.469
104353. 2.16130 4.45(9) 122.6 4.465 4.469
104384. 2.16195 4.29(9) 133.4 4.466 4.470
104415. 2.16259 4.35(9) 129.8 4.466 4.471
104447. 2.16324 4.31(9) 129.0 4.466 4.471
104478. 2.16389 4.45(9) 127.7 4.466 4.472
104509. 2.16454 4.34(9) 131.3 4.467 4.473
104541. 2.16519 4.35(9) 134.0 4.467 4.473
104572. 2.16584 4.30(9) 135.2 4.467 4.474
104603. 2.16649 4.26(9) 137.6 4.467 4.475
104635. 2.16714 4.43(9) 129.9 4.468 4.476
104666. 2.16779 4.43(9) 128.9 4.468 4.478
104698. 2.16844 4.44(9) 131.2 4.468 4.479
104729. 2.16909 4.39(9) 134.6 4.468 4.481
104760. 2.16974 4.43(9) 132.0 4.469 4.484
104792. 2.17039 4.39(9) 138.4 4.469 4.486
104823. 2.17105 4.41(9) 136.0 4.469 4.492
104855. 2.17170 4.44(9) 136.8 4.469 4.496
104886. 2.17235 4.54(9) 133.1 4.469 4.501
104918. 2.17300 4.41(8) 139.0 4.470 4.507
104949. 2.17365 4.35(8) 140.8 4.470 4.516
104981. 2.17430 4.46(9) 137.8 4.470 4.528
105012. 2.17496 4.38(8) 142.0 4.470 4.546
105044. 2.17561 4.52(9) 136.8 4.471 4.580
105075. 2.17626 4.62(9) 135.8 4.471 4.683
105107. 2.17691 4.99(9) 126.1 4.471 5.043
105138. 2.17757 5.77(10) 110.0 4.471 5.984
105170. 2.17822 6.97(11) 86.8 4.471 7.446
105201. 2.17887 8.18(12) 71.4 4.472 8.365
105233. 2.17953 7.66(11) 77.3 4.472 7.876
105264. 2.18018 6.46(10) 94.2 4.472 6.684
105296. 2.18084 5.57(10) 109.2 4.472 5.677
105328. 2.18149 4.96(9) 124.5 4.472 5.092
105359. 2.18215 4.68(9) 133.3 4.472 4.800
105391. 2.18280 4.72(9) 128.9 4.473 4.658
105422. 2.18345 4.59(9) 132.5 4.473 4.589
105454. 2.18411 4.54(9) 135.7 4.473 4.553
105486. 2.18477 4.50(9) 134.7 4.473 4.533
105517. 2.18542 4.54(9) 133.3 4.473 4.522
105549. 2.18608 4.46(9) 136.8 4.474 4.515
105581. 2.18673 4.52(9) 133.6 4.474 4.511
105612. 2.18739 4.50(9) 132.9 4.474 4.509
105644. 2.18805 4.53(9) 133.2 4.474 4.508
105676. 2.18870 4.47(9) 134.6 4.474 4.508
105707. 2.18936 4.47(9) 134.2 4.474 4.508
105739. 2.19002 4.48(9) 133.2 4.474 4.510
105771. 2.19067 4.54(9) 127.9 4.475 4.513
105803. 2.19133 4.65(9) 124.4 4.475 4.517
105834. 2.19199 4.53(9) 132.2 4.475 4.523
105866. 2.19264 4.59(9) 130.0 4.475 4.532
105898. 2.19330 4.45(9) 133.8 4.475 4.548
105930. 2.19396 4.63(9) 126.9 4.475 4.598
105961. 2.19462 4.84(9) 123.3 4.475 4.777
105993. 2.19528 5.22(9) 113.3 4.475 5.261
106025. 2.19594 6.15(10) 91.9 4.476 6.028
106057. 2.19659 6.59(11) 84.6 4.476 6.522
106089. 2.19725 6.22(11) 90.7 4.476 6.273
106120. 2.19791 5.70(10) 102.2 4.476 5.649
106152. 2.19857 5.20(9) 111.5 4.476 5.128
106184. 2.19923 4.83(9) 121.6 4.476 4.833
106216. 2.19989 4.63(9) 125.6 4.476 4.691
106248. 2.20055 4.89(9) 116.3 4.476 4.629
106280. 2.20121 4.50(9) 133.3 4.476 4.606
106312. 2.20187 4.71(9) 123.9 4.477 4.604
106343. 2.20253 4.61(9) 128.2 4.477 4.614
106375. 2.20319 4.60(9) 127.9 4.477 4.637
106407. 2.20386 4.69(9) 127.3 4.477 4.675
106439. 2.20452 4.77(9) 123.0 4.477 4.738
106471. 2.20518 5.02(9) 118.8 4.477 4.871
106503. 2.20584 5.41(9) 113.1 4.477 5.232
106535. 2.20650 6.51(10) 94.9 4.477 6.188
106567. 2.20716 8.65(12) 66.7 4.477 8.083
106599. 2.20783 10.57(14) 52.3 4.477 10.445
106631. 2.20849 11.30(14) 48.3 4.477 11.471
106663. 2.20915 9.99(13) 56.1 4.477 10.348
106695. 2.20981 8.05(12) 72.4 4.477 8.366
106727. 2.21048 6.86(11) 84.5 4.477 6.718
106759. 2.21114 5.63(10) 103.9 4.477 5.709
106791. 2.21180 4.96(9) 118.5 4.477 5.173
106823. 2.21247 4.85(9) 119.9 4.477 4.897
106855. 2.21313 4.67(9) 128.0 4.477 4.750
106887. 2.21379 4.61(9) 129.5 4.477 4.671
106919. 2.21446 4.52(9) 127.2 4.477 4.622
106951. 2.21512 4.67(9) 122.2 4.477 4.590
106983. 2.21579 4.59(9) 127.2 4.478 4.569
107015. 2.21645 4.48(9) 128.8 4.478 4.554
107047. 2.21712 4.42(9) 130.3 4.478 4.543
107080. 2.21778 4.31(9) 136.6 4.478 4.534
107112. 2.21845 4.55(9) 128.6 4.477 4.527
107144. 2.21911 4.53(9) 126.3 4.477 4.522
107176. 2.21978 4.61(9) 122.9 4.477 4.517
107208. 2.22045 4.51(9) 125.5 4.477 4.514
107240. 2.22111 4.40(9) 129.8 4.477 4.511
107273. 2.22178 4.36(9) 132.7 4.477 4.507
107305. 2.22245 4.54(9) 126.6 4.477 4.505
107337. 2.22311 4.57(9) 124.0 4.477 4.504
107369. 2.22378 4.51(9) 125.6 4.477 4.503
107401. 2.22445 4.55(9) 125.4 4.477 4.502
107434. 2.22511 4.57(9) 122.8 4.477 4.501
107466. 2.22578 4.52(9) 127.0 4.477 4.500
107498. 2.22645 4.53(9) 124.7 4.477 4.500
107530. 2.22712 4.41(9) 130.0 4.477 4.500
107562. 2.22779 4.52(9) 126.9 4.477 4.500
107595. 2.22845 4.59(9) 124.3 4.477 4.500
107627. 2.22912 4.50(9) 128.0 4.477 4.501
107659. 2.22979 4.68(9) 118.7 4.477 4.502
107692. 2.23046 4.46(9) 126.9 4.477 4.504
107724. 2.23113 4.34(9) 132.5 4.477 4.506
107756. 2.23180 4.39(9) 130.4 4.476 4.508
107789. 2.23247 4.42(9) 129.4 4.476 4.512
107821. 2.23314 4.62(9) 120.9 4.476 4.516
107853. 2.23381 4.68(9) 120.1 4.476 4.524
107886. 2.23448 4.63(9) 118.1 4.476 4.532
107918. 2.23515 4.35(9) 131.5 4.476 4.544
107950. 2.23582 4.56(9) 125.5 4.476 4.562
107983. 2.23649 4.78(9) 117.7 4.476 4.588
108015. 2.23716 4.72(9) 123.7 4.475 4.642
108048. 2.23783 4.85(9) 120.4 4.475 4.812
108080. 2.23850 5.68(10) 103.6 4.475 5.430
108112. 2.23918 7.18(11) 78.7 4.475 7.033
108145. 2.23985 9.45(13) 55.5 4.475 9.426
108177. 2.24052 11.02(15) 45.2 4.475 10.749
108210. 2.24119 9.72(14) 53.8 4.475 9.767
108242. 2.24186 7.51(12) 73.4 4.474 7.791
108275. 2.24254 6.17(11) 89.5 4.474 6.223
108307. 2.24321 5.13(10) 110.2 4.474 5.348
108340. 2.24388 4.87(9) 115.7 4.474 4.928
108372. 2.24456 4.86(9) 113.5 4.474 4.724
108405. 2.24523 4.76(9) 114.9 4.473 4.626
108437. 2.24590 4.54(9) 122.0 4.473 4.576
108470. 2.24658 4.69(9) 116.8 4.473 4.548
108502. 2.24725 4.65(9) 117.4 4.473 4.532
108535. 2.24793 4.50(9) 121.1 4.473 4.523
108567. 2.24860 4.69(9) 114.6 4.472 4.516
108600. 2.24927 4.63(9) 117.2 4.472 4.512
108632. 2.24995 4.61(9) 118.1 4.472 4.511
108665. 2.25063 4.67(9) 114.5 4.472 4.509
108698. 2.25130 4.65(9) 115.3 4.471 4.508
108730. 2.25198 4.53(9) 118.5 4.471 4.508
108763. 2.25265 4.61(9) 115.5 4.471 4.508
108796. 2.25333 4.59(9) 115.0 4.471 4.510
108828. 2.25400 4.53(9) 120.7 4.470 4.512
108861. 2.25468 4.60(9) 116.1 4.470 4.516
108893. 2.25536 4.60(9) 114.9 4.470 4.522
108926. 2.25603 4.47(9) 120.2 4.470 4.532
108959. 2.25671 4.67(9) 111.6 4.469 4.549
108992. 2.25739 4.76(9) 112.7 4.469 4.597
109024. 2.25806 4.67(9) 114.4 4.469 4.770
109057. 2.25874 5.33(10) 100.4 4.468 5.267
109090. 2.25942 6.06(11) 89.0 4.468 6.139
109122. 2.26010 7.10(12) 71.4 4.468 6.840
109155. 2.26078 6.93(12) 72.3 4.468 6.686
109188. 2.26145 6.16(11) 83.4 4.467 5.971
109221. 2.26213 5.30(10) 100.6 4.467 5.305
109253. 2.26281 4.96(10) 107.6 4.467 4.907
109286. 2.26349 4.87(10) 108.6 4.466 4.712
109319. 2.26417 4.72(9) 113.0 4.466 4.622
109352. 2.26485 4.71(9) 111.5 4.465 4.582
109385. 2.26553 4.52(9) 118.6 4.465 4.562
109417. 2.26621 4.52(9) 120.9 4.465 4.557
109450. 2.26689 4.60(9) 116.7 4.464 4.559
109483. 2.26757 4.53(9) 117.0 4.464 4.567
109516. 2.26825 4.53(9) 117.8 4.464 4.580
109549. 2.26893 4.53(9) 117.2 4.463 4.603
109582. 2.26961 4.66(9) 115.0 4.463 4.633
109614. 2.27029 4.69(9) 112.5 4.462 4.680
109647. 2.27097 4.82(9) 113.0 4.462 4.775
109680. 2.27165 5.30(10) 100.6 4.462 5.060
109713. 2.27233 6.14(11) 89.4 4.461 5.933
109746. 2.27302 7.91(12) 67.6 4.461 7.844
109779. 2.27370 10.37(14) 48.7 4.460 10.312
109812. 2.27438 11.54(15) 43.5 4.460 11.618
109845. 2.27506 11.61(15) 44.0 4.460 11.648
109878. 2.27575 11.86(15) 41.8 4.459 11.928
109911. 2.27643 11.98(16) 39.9 4.459 12.056
109944. 2.27711 10.13(14) 49.0 4.458 10.650
109977. 2.27779 7.98(12) 64.7 4.458 8.461
110010. 2.27848 6.75(11) 76.6 4.457 6.760
110043. 2.27916 5.98(11) 87.3 4.457 5.927
110076. 2.27985 5.93(11) 88.9 4.456 5.959
110109. 2.28053 6.92(11) 77.0 4.456 6.907
110142. 2.28121 8.14(13) 62.0 4.455 8.393
110175. 2.28190 9.09(14) 53.2 4.455 9.105
110208. 2.28258 8.39(13) 57.9 4.454 8.336
110241. 2.28327 7.28(12) 67.4 4.454 6.968
110274. 2.28395 6.05(11) 82.9 4.453 5.866
110307. 2.28464 5.33(10) 95.7 4.453 5.226
110340. 2.28532 4.96(10) 106.3 4.452 4.904
110373. 2.28601 4.96(10) 100.4 4.452 4.745
110406. 2.28670 4.74(10) 106.2 4.451 4.665
110440. 2.28738 4.55(9) 112.6 4.451 4.622
110473. 2.28807 4.58(9) 112.0 4.450 4.602
110506. 2.28875 4.56(10) 110.7 4.450 4.595
110539. 2.28944 4.65(10) 109.1 4.449 4.609
110572. 2.29013 4.80(10) 104.8 4.448 4.687
110605. 2.29081 5.00(10) 102.9 4.448 4.925
110638. 2.29150 5.52(10) 92.5 4.447 5.360
110672. 2.29219 5.95(11) 84.5 4.447 5.739
110705. 2.29288 5.83(11) 88.3 4.446 5.701
110738. 2.29357 5.38(10) 96.2 4.445 5.360
110771. 2.29425 5.13(10) 98.1 4.445 5.034
110805. 2.29494 4.95(10) 102.6 4.444 4.864
110838. 2.29563 4.70(10) 109.8 4.444 4.841
110871. 2.29632 5.02(10) 104.2 4.443 5.070
110904. 2.29701 5.62(10) 94.0 4.442 5.935
110938. 2.29770 7.60(12) 68.6 4.442 7.854
110971. 2.29839 10.23(15) 47.2 4.441 10.181
111004. 2.29908 11.43(16) 40.9 4.440 10.868
111037. 2.29977 9.68(14) 49.8 4.440 9.435
111071. 2.30046 7.46(12) 67.8 4.439 7.464
111104. 2.30115 5.90(11) 88.4 4.438 6.065
111137. 2.30184 5.48(10) 91.1 4.438 5.325
111171. 2.30253 4.91(10) 105.2 4.437 4.980
111204. 2.30322 4.64(10) 109.9 4.436 4.826
111237. 2.30391 4.60(9) 111.7 4.436 4.769
111271. 2.30460 4.67(10) 108.3 4.435 4.763
111304. 2.30529 4.58(9) 112.2 4.434 4.794
111338. 2.30598 4.79(10) 104.2 4.434 4.865
111371. 2.30668 5.05(10) 100.1 4.433 5.020
111404. 2.30737 5.51(10) 93.4 4.432 5.460
111438. 2.30806 6.81(11) 76.2 4.431 6.817
111471. 2.30875 9.53(14) 53.2 4.431 10.067
111505. 2.30945 14.35(18) 31.13 4.430 15.063
111538. 2.31014 17.91(21) 23.08 4.429 18.548
111572. 2.31083 17.39(21) 23.58 4.429 17.331
111605. 2.31152 13.42(17) 33.02 4.428 13.265
111639. 2.31222 9.65(14) 49.0 4.427 9.460
111672. 2.31291 6.95(12) 70.7 4.426 7.082
111706. 2.31361 5.84(11) 85.3 4.425 5.856
111739. 2.31430 5.15(10) 95.8 4.425 5.255
111773. 2.31499 4.90(10) 99.4 4.424 4.959
111806. 2.31569 4.63(10) 105.1 4.423 4.804
111840. 2.31638 4.77(10) 100.6 4.422 4.719
111873. 2.31708 4.65(10) 105.8 4.422 4.669
111907. 2.31777 4.50(10) 108.9 4.421 4.640
111940. 2.31847 4.57(10) 106.0 4.420 4.625
111974. 2.31916 4.48(10) 109.8 4.419 4.618
112007. 2.31986 4.67(10) 104.1 4.418 4.621
112041. 2.32056 4.74(10) 103.2 4.417 4.634
112075. 2.32125 4.63(10) 103.0 4.417 4.657
112108. 2.32195 4.53(10) 109.5 4.416 4.697
112142. 2.32265 4.70(10) 104.2 4.415 4.762
112176. 2.32334 4.81(10) 103.1 4.414 4.889
112209. 2.32404 5.26(10) 95.6 4.413 5.246
112243. 2.32474 6.74(12) 74.9 4.412 6.432
112277. 2.32544 9.29(14) 53.8 4.411 9.502
112310. 2.32613 13.86(18) 32.46 4.411 14.501
112344. 2.32683 18.03(21) 22.82 4.410 18.206
112378. 2.32753 17.43(21) 23.65 4.409 17.058
112411. 2.32823 13.13(17) 34.12 4.408 12.933
112445. 2.32893 9.14(14) 52.4 4.407 9.131
112479. 2.32962 6.78(12) 72.0 4.406 6.826
112513. 2.33032 5.66(11) 88.4 4.405 5.667
112546. 2.33102 5.02(10) 98.0 4.404 5.113
112580. 2.33172 4.73(10) 104.8 4.403 4.841
112614. 2.33242 4.52(10) 110.4 4.402 4.698
112648. 2.33312 4.62(10) 105.8 4.402 4.617
112681. 2.33382 4.54(10) 108.6 4.401 4.567
112715. 2.33452 4.54(10) 106.7 4.400 4.534
112749. 2.33522 4.56(10) 106.9 4.399 4.512
112783. 2.33592 4.45(10) 110.1 4.398 4.495
112817. 2.33662 4.44(10) 110.2 4.397 4.481
112851. 2.33732 4.47(9) 111.8 4.396 4.472
112884. 2.33803 4.54(10) 108.7 4.395 4.463
112918. 2.33873 4.47(10) 110.8 4.394 4.456
112952. 2.33943 4.63(10) 105.2 4.393 4.449
112986. 2.34013 4.52(10) 106.4 4.392 4.444
113020. 2.34083 4.63(10) 105.1 4.391 4.439
113054. 2.34154 4.55(10) 107.0 4.390 4.435
113088. 2.34224 4.46(10) 108.4 4.389 4.424
113122. 2.34294 4.48(10) 107.8 4.388 4.421
113156. 2.34364 4.42(10) 110.1 4.387 4.418
113190. 2.34435 4.32(9) 113.2 4.386 4.416
113224. 2.34505 4.38(10) 109.9 4.385 4.416
113258. 2.34575 4.32(9) 113.6 4.384 4.414
113292. 2.34646 4.38(10) 110.1 4.383 4.413
113325. 2.34716 4.26(9) 115.5 4.382 4.411
113359. 2.34787 4.28(9) 112.5 4.381 4.410
113394. 2.34857 4.39(10) 107.9 4.380 4.409
113428. 2.34928 4.46(10) 108.2 4.379 4.409
113462. 2.34998 4.46(10) 107.3 4.378 4.408
113496. 2.35069 4.37(10) 110.4 4.377 4.408
113530. 2.35139 4.56(10) 102.3 4.376 4.408
113564. 2.35210 4.35(9) 111.1 4.374 4.409
113598. 2.35280 4.22(9) 115.5 4.373 4.409
113632. 2.35351 4.34(10) 109.9 4.372 4.410
113666. 2.35421 4.50(10) 107.7 4.371 4.412
113700. 2.35492 4.27(9) 112.1 4.370 4.414
113734. 2.35563 4.32(9) 111.6 4.369 4.417
113768. 2.35633 4.30(9) 113.5 4.368 4.421
113802. 2.35704 4.37(9) 110.8 4.367 4.419
113837. 2.35775 4.54(10) 103.3 4.366 4.425
113871. 2.35846 4.53(10) 104.3 4.365 4.434
113905. 2.35916 4.37(9) 111.3 4.364 4.444
113939. 2.35987 4.58(10) 103.4 4.362 4.459
113973. 2.36058 4.42(10) 108.6 4.361 4.477
114007. 2.36129 4.71(10) 100.4 4.360 4.503
114042. 2.36200 4.43(10) 108.7 4.359 4.540
114076. 2.36270 4.52(10) 105.1 4.358 4.596
114110. 2.36341 4.75(10) 101.2 4.357 4.695
114144. 2.36412 4.94(10) 98.1 4.356 4.956
114179. 2.36483 5.64(11) 90.1 4.354 5.795
114213. 2.36554 7.69(12) 65.4 4.353 8.009
114247. 2.36625 11.55(16) 39.8 4.352 11.812
114281. 2.36696 15.28(19) 27.52 4.351 15.102
114316. 2.36767 15.76(19) 26.80 4.350 15.109
114350. 2.36838 13.10(17) 34.22 4.349 13.002
114384. 2.36909 11.56(16) 39.5 4.348 11.525
114418. 2.36980 10.68(15) 41.8 4.346 10.758
114453. 2.37051 9.04(14) 50.3 4.345 9.304
114487. 2.37123 7.18(12) 66.1 4.344 7.418
114521. 2.37194 5.97(11) 79.6 4.343 5.983
114556. 2.37265 5.15(10) 92.0 4.342 5.191
114590. 2.37336 4.81(10) 98.4 4.340 4.814
114625. 2.37407 4.60(10) 103.4 4.339 4.634
114659. 2.37478 4.43(10) 106.6 4.338 4.545
114693. 2.37550 4.58(10) 101.1 4.337 4.499
114728. 2.37621 4.37(10) 107.7 4.336 4.471
114762. 2.37692 4.47(10) 103.8 4.334 4.455
114797. 2.37764 4.55(10) 99.4 4.333 4.450
114831. 2.37835 4.46(10) 104.7 4.332 4.472
114866. 2.37906 4.64(10) 98.3 4.331 4.568
114900. 2.37978 4.81(10) 96.0 4.330 4.782
114934. 2.38049 4.96(10) 91.1 4.328 5.016
114969. 2.38121 5.06(11) 89.6 4.327 5.043
115003. 2.38192 4.80(10) 96.5 4.326 4.862
115038. 2.38263 4.73(10) 97.3 4.325 4.658
115072. 2.38335 4.70(10) 95.6 4.323 4.529
115107. 2.38406 4.43(10) 104.3 4.322 4.468
115141. 2.38478 4.42(10) 105.1 4.321 4.444
115176. 2.38550 4.35(10) 106.9 4.320 4.437
115211. 2.38621 4.35(10) 106.6 4.318 4.441
115245. 2.38693 4.40(10) 104.7 4.317 4.450
115280. 2.38764 4.54(10) 106.2 4.316 4.467
115314. 2.38836 4.39(10) 106.6 4.315 4.491
115349. 2.38908 4.48(10) 102.1 4.313 4.527
115384. 2.38979 4.66(10) 98.8 4.312 4.581
115418. 2.39051 4.90(10) 96.2 4.311 4.682
115453. 2.39123 5.22(11) 90.7 4.310 4.989
115487. 2.39194 6.59(11) 75.8 4.308 6.157
115522. 2.39266 9.17(14) 53.6 4.307 9.470
115557. 2.39338 14.87(19) 28.41 4.306 14.938
115591. 2.39410 18.25(21) 21.69 4.305 18.629
115626. 2.39482 16.88(20) 23.87 4.303 16.918
115661. 2.39553 12.39(17) 36.0 4.302 12.473
115695. 2.39625 9.28(14) 51.5 4.301 9.162
115730. 2.39697 8.14(13) 58.8 4.299 8.380
115765. 2.39769 9.77(15) 46.1 4.298 9.680
115800. 2.39841 11.62(17) 36.1 4.297 11.182
115834. 2.39913 11.09(16) 38.0 4.296 10.717
115869. 2.39985 9.05(14) 48.5 4.294 8.748
115904. 2.40057 7.06(12) 64.4 4.293 6.845
115939. 2.40129 5.71(11) 82.3 4.292 5.669
115973. 2.40201 5.02(10) 91.0 4.290 5.090
116008. 2.40273 4.78(10) 95.8 4.289 4.838
116043. 2.40345 4.65(10) 101.2 4.288 4.776
116078. 2.40417 4.89(10) 93.5 4.287 4.948
116113. 2.40490 5.67(11) 81.4 4.285 5.636
116147. 2.40562 7.12(13) 63.0 4.284 7.118
116182. 2.40634 8.95(15) 47.1 4.283 8.858
116217. 2.40706 9.93(16) 40.9 4.281 9.323
116252. 2.40778 8.73(14) 47.6 4.280 8.205
116287. 2.40851 6.74(12) 66.2 4.279 6.701
116322. 2.40923 5.64(11) 80.0 4.277 5.652
116357. 2.40995 5.13(11) 89.6 4.276 5.165
116392. 2.41067 5.29(11) 86.8 4.275 5.168
116426. 2.41140 5.92(11) 76.6 4.274 5.756
116461. 2.41212 7.28(13) 58.7 4.272 6.985
116496. 2.41284 8.39(14) 49.7 4.271 8.258
116531. 2.41357 8.39(14) 49.7 4.270 8.412
116566. 2.41429 7.46(13) 57.1 4.268 7.421
116601. 2.41502 6.18(12) 71.9 4.267 6.201
116636. 2.41574 5.15(11) 87.8 4.266 5.329
116671. 2.41647 4.96(11) 87.4 4.264 4.849
116706. 2.41719 4.66(10) 95.2 4.263 4.612
116741. 2.41792 4.54(10) 98.4 4.262 4.495
116776. 2.41864 4.41(10) 101.5 4.260 4.435
116811. 2.41937 4.35(10) 105.4 4.259 4.403
116846. 2.42009 4.39(10) 104.5 4.258 4.391
116881. 2.42082 4.42(10) 104.8 4.257 4.422
116916. 2.42155 4.44(10) 103.3 4.255 4.559
116952. 2.42227 4.85(10) 92.7 4.254 4.850
116987. 2.42300 5.13(11) 85.1 4.253 5.121
117022. 2.42373 5.05(11) 87.0 4.251 5.101
117057. 2.42445 4.84(10) 91.2 4.250 4.849
117092. 2.42518 4.60(10) 97.4 4.249 4.600
117127. 2.42591 4.67(10) 93.9 4.247 4.453
117162. 2.42664 4.36(10) 104.9 4.246 4.384
117197. 2.42736 4.26(10) 106.5 4.245 4.355
117232. 2.42809 4.31(10) 104.6 4.243 4.344
117268. 2.42882 4.26(10) 104.6 4.242 4.343
117303. 2.42955 4.45(10) 98.7 4.241 4.349
117338. 2.43028 4.40(10) 100.4 4.239 4.360
117373. 2.43101 4.46(10) 97.6 4.238 4.372
117408. 2.43174 4.42(10) 99.4 4.237 4.402
117444. 2.43247 4.49(10) 99.8 4.235 4.466
117479. 2.43320 4.77(10) 92.2 4.234 4.675
117514. 2.43393 5.20(11) 89.4 4.233 5.434
117549. 2.43466 7.10(13) 62.6 4.231 7.369
117585. 2.43539 10.42(16) 37.4 4.230 10.163
117620. 2.43612 12.00(18) 31.15 4.229 11.563
117655. 2.43685 10.33(16) 37.4 4.227 10.250
117691. 2.43758 8.06(14) 50.7 4.226 7.895
117726. 2.43831 5.89(12) 73.5 4.225 6.120
117761. 2.43904 5.17(11) 82.6 4.224 5.182
117796. 2.43978 4.71(11) 90.4 4.222 4.762
117832. 2.44051 4.63(10) 91.7 4.221 4.585
117867. 2.44124 4.52(10) 93.0 4.220 4.520
117903. 2.44197 4.51(10) 93.0 4.218 4.512
117938. 2.44271 4.47(10) 93.6 4.217 4.552
117973. 2.44344 4.92(11) 85.4 4.216 4.680
118009. 2.44417 5.22(11) 82.4 4.214 5.060
118044. 2.44490 6.41(12) 65.5 4.213 6.022
118079. 2.44564 8.16(14) 49.5 4.212 7.770
118115. 2.44637 9.94(16) 38.6 4.210 9.659
118150. 2.44711 9.93(16) 39.1 4.209 10.095
118186. 2.44784 8.89(15) 44.4 4.208 8.841
118221. 2.44857 7.13(13) 57.9 4.206 7.145
118257. 2.44931 5.85(12) 72.0 4.205 5.874
118292. 2.45004 5.21(11) 81.1 4.204 5.161
118328. 2.45078 4.96(11) 82.5 4.202 4.815
118363. 2.45151 4.51(10) 94.1 4.201 4.660
118399. 2.45225 4.52(10) 91.8 4.200 4.604
118434. 2.45299 4.57(10) 94.6 4.199 4.609
118470. 2.45372 4.65(10) 92.0 4.197 4.678
118505. 2.45446 5.14(11) 83.2 4.196 4.898
118541. 2.45519 5.80(11) 77.0 4.195 5.619
118576. 2.45593 7.85(14) 54.7 4.193 7.565
118612. 2.45667 11.37(17) 35.4 4.192 11.118
118648. 2.45741 14.89(20) 25.32 4.191 14.635
118683. 2.45814 15.20(20) 24.53 4.189 14.896
118719. 2.45888 12.21(18) 31.94 4.188 12.082
118754. 2.45962 8.90(15) 46.3 4.187 8.839
118790. 2.46036 6.67(13) 63.6 4.185 6.640
118826. 2.46109 5.46(11) 77.4 4.184 5.487
118861. 2.46183 4.87(11) 83.9 4.183 4.941
118897. 2.46257 4.84(11) 85.7 4.181 4.691
118933. 2.46331 4.36(10) 95.6 4.180 4.595
118968. 2.46405 4.83(11) 85.2 4.179 4.662
119004. 2.46479 5.14(11) 80.6 4.177 5.062
119040. 2.46553 6.16(12) 65.6 4.176 5.972
119075. 2.46627 7.25(14) 53.9 4.175 7.054
119111. 2.46701 7.59(14) 49.5 4.174 7.325
119147. 2.46775 6.53(13) 61.0 4.172 6.587
119183. 2.46849 5.75(12) 68.7 4.171 5.613
119218. 2.46923 4.87(11) 85.1 4.170 4.931
119254. 2.46997 4.43(11) 90.7 4.168 4.570
119290. 2.47071 4.39(11) 89.1 4.167 4.399
119326. 2.47145 4.22(10) 96.2 4.166 4.317
119361. 2.47219 4.13(10) 97.2 4.164 4.274
119397. 2.47294 4.27(10) 91.8 4.163 4.248
119433. 2.47368 4.10(10) 94.7 4.162 4.232
119469. 2.47442 4.38(11) 90.6 4.160 4.220
119505. 2.47516 4.46(11) 90.2 4.159 4.211
119541. 2.47590 4.25(10) 93.9 4.158 4.204
119576. 2.47665 4.28(10) 93.7 4.156 4.198
119612. 2.47739 4.38(11) 90.4 4.155 4.194
119648. 2.47813 4.25(11) 87.9 4.154 4.189
119684. 2.47888 4.17(11) 90.3 4.152 4.189
119720. 2.47962 4.26(11) 86.7 4.151 4.185
119756. 2.48037 4.15(11) 87.6 4.149 4.182
119792. 2.48111 4.31(11) 79.9 4.148 4.179
119828. 2.48185 4.34(11) 80.0 4.147 4.176
119864. 2.48260 4.25(11) 84.5 4.145 4.174
119900. 2.48334 4.31(11) 81.6 4.144 4.171
119936. 2.48409 4.38(11) 78.0 4.143 4.169
119972. 2.48483 4.05(11) 86.1 4.141 4.167
120008. 2.48558 4.01(11) 90.0 4.140 4.165
120044. 2.48632 4.28(11) 77.9 4.139 4.163
120080. 2.48707 4.17(11) 82.3 4.137 4.158
120116. 2.48782 4.19(11) 83.3 4.136 4.156
120152. 2.48856 4.03(11) 85.4 4.134 4.155
120188. 2.48931 4.08(11) 85.5 4.133 4.153
120224. 2.49006 4.23(11) 80.2 4.132 4.152
120260. 2.49080 3.98(11) 85.8 4.130 4.151
120296. 2.49155 4.16(11) 81.7 4.129 4.150
120332. 2.49230 4.30(11) 76.1 4.127 4.149
120368. 2.49305 4.16(11) 80.4 4.126 4.148
120404. 2.49380 4.11(11) 85.6 4.124 4.142
120440. 2.49454 4.06(11) 85.6 4.123 4.142
120477. 2.49529 4.08(11) 85.5 4.122 4.142
120513. 2.49604 4.14(11) 82.2 4.120 4.142
120549. 2.49679 4.23(11) 78.4 4.119 4.142
120585. 2.49754 4.28(11) 77.1 4.117 4.142
120621. 2.49829 4.13(11) 78.4 4.116 4.143
120657. 2.49904 4.30(12) 74.0 4.114 4.142
120694. 2.49979 4.08(11) 78.2 4.113 4.144
120730. 2.50054 4.33(12) 75.4 4.111 4.145
120766. 2.50129 4.23(11) 76.2 4.110 4.148
120802. 2.50204 4.13(12) 75.1 4.108 4.151
120838. 2.50279 3.94(11) 81.8 4.107 4.155
120875. 2.50354 4.04(11) 80.5 4.105 4.159
120911. 2.50429 4.12(11) 78.3 4.104 4.166
120947. 2.50504 4.07(11) 76.8 4.102 4.174
120984. 2.50579 4.15(11) 77.3 4.100 4.185
121020. 2.50655 4.12(11) 76.2 4.099 4.199
121056. 2.50730 4.07(11) 77.4 4.097 4.217
121092. 2.50805 4.03(11) 78.8 4.096 4.243
121129. 2.50880 4.08(12) 75.4 4.094 4.279
121165. 2.50956 4.12(12) 74.8 4.092 4.332
121201. 2.51031 4.22(12) 74.3 4.091 4.418
121238. 2.51106 4.73(12) 65.8 4.089 4.600
121274. 2.51181 5.16(13) 62.4 4.088 5.135
121311. 2.51257 6.85(14) 47.7 4.086 6.675
121347. 2.51332 10.43(19) 28.30 4.084 9.900
121383. 2.51408 14.15(23) 19.21 4.082 13.982
121420. 2.51483 15.86(25) 16.32 4.081 15.752
121456. 2.51559 13.24(22) 20.21 4.079 13.748
121493. 2.51634 10.09(19) 27.93 4.077 10.213
121529. 2.51710 7.02(15) 43.7 4.075 7.378
121566. 2.51785 5.72(14) 54.5 4.074 5.757
121602. 2.51861 4.83(12) 67.0 4.072 4.966
121638. 2.51936 4.57(12) 70.1 4.070 4.593
121675. 2.52012 4.31(11) 77.5 4.068 4.408
121711. 2.52087 4.33(12) 75.2 4.066 4.308
121748. 2.52163 4.09(11) 79.8 4.064 4.249
121785. 2.52239 4.16(11) 77.1 4.063 4.210
121821. 2.52314 4.06(11) 80.2 4.061 4.184
121858. 2.52390 3.89(11) 84.8 4.059 4.164
121894. 2.52466 4.04(11) 78.3 4.057 4.149
121931. 2.52542 4.10(11) 76.6 4.055 4.137
121967. 2.52617 4.08(11) 76.8 4.053 4.128
122004. 2.52693 4.08(11) 77.4 4.051 4.120
122041. 2.52769 4.11(11) 77.0 4.049 4.114
122077. 2.52845 4.23(12) 75.3 4.047 4.109
122114. 2.52921 3.91(11) 84.3 4.044 4.104
122150. 2.52996 4.06(11) 78.4 4.042 4.101
122187. 2.53072 4.30(12) 70.5 4.040 4.098
122224. 2.53148 4.10(12) 73.4 4.038 4.096
122260. 2.53224 4.02(12) 75.0 4.036 4.095
122297. 2.53300 3.95(11) 76.4 4.033 4.095
122334. 2.53376 4.04(12) 75.4 4.031 4.095
122370. 2.53452 4.21(12) 70.0 4.029 4.096
122407. 2.53528 4.04(12) 74.8 4.027 4.099
122444. 2.53604 4.12(12) 71.5 4.024 4.103
122481. 2.53680 4.17(12) 69.9 4.022 4.109
122517. 2.53757 3.92(11) 76.5 4.019 4.117
122554. 2.53833 4.02(12) 74.4 4.017 4.128
122591. 2.53909 3.95(12) 74.1 4.014 4.143
122628. 2.53985 4.05(12) 70.8 4.012 4.163
122664. 2.54061 4.06(12) 71.2 4.009 4.193
122701. 2.54138 3.99(12) 72.0 4.007 4.234
122738. 2.54214 4.12(12) 69.5 4.004 4.297
122775. 2.54290 4.36(12) 64.6 4.001 4.398
122812. 2.54366 4.84(13) 59.7 3.999 4.626
122849. 2.54443 5.79(14) 51.5 3.996 5.399
122885. 2.54519 8.72(17) 33.54 3.993 7.952
122922. 2.54595 14.05(23) 18.97 3.990 13.652
122959. 2.54672 19.90(29) 11.64 3.987 20.691
122996. 2.54748 22.47(32) 9.64 3.984 22.842
123033. 2.54825 17.94(28) 13.10 3.981 18.404
123070. 2.54901 12.06(22) 21.43 3.978 12.312
123107. 2.54978 7.93(17) 34.67 3.975 8.088
123144. 2.55054 6.01(15) 45.6 3.972 5.942
123181. 2.55131 4.98(14) 54.7 3.969 4.970
123218. 2.55207 4.40(13) 61.9 3.966 4.533
123255. 2.55284 3.96(12) 68.8 3.963 4.322
123292. 2.55360 4.18(12) 65.1 3.959 4.210
123328. 2.55437 4.18(13) 63.6 3.956 4.144
123365. 2.55514 4.03(12) 64.6 3.953 4.100
123402. 2.55590 3.90(12) 67.8 3.949 4.069
123440. 2.55667 4.12(13) 62.3 3.946 4.045
123477. 2.55744 3.84(12) 66.2 3.942 4.027
123514. 2.55820 4.00(13) 63.8 3.938 4.011
123551. 2.55897 4.03(13) 61.8 3.935 3.998
123588. 2.55974 3.89(12) 66.4 3.931 3.986
123625. 2.56051 3.74(12) 68.9 3.927 3.976
123662. 2.56128 4.02(13) 61.2 3.923 3.967
123699. 2.56204 3.98(13) 61.9 3.919 3.958
123736. 2.56281 3.92(13) 62.2 3.915 3.950
123773. 2.56358 4.05(13) 57.5 3.911 3.943
123810. 2.56435 3.81(13) 63.7 3.907 3.936
123847. 2.56512 3.80(13) 61.3 3.903 3.929
123885. 2.56589 4.00(13) 58.1 3.898 3.923
123922. 2.56666 3.79(13) 63.5 3.894 3.917
123959. 2.56743 3.89(13) 59.6 3.890 3.910
123996. 2.56820 4.05(13) 58.6 3.885 3.904
124033. 2.56897 3.91(13) 58.9 3.880 3.898
124071. 2.56974 3.74(13) 60.6 3.876 3.892
124108. 2.57051 3.89(13) 59.5 3.871 3.887
124145. 2.57128 3.84(13) 60.7 3.866 3.881
124182. 2.57205 3.97(13) 56.0 3.861 3.875
124220. 2.57283 4.00(14) 53.3 3.856 3.869
124257. 2.57360 3.83(13) 57.7 3.851 3.863
124294. 2.57437 3.91(13) 56.4 3.846 3.857
124331. 2.57514 3.94(14) 54.1 3.841 3.852
124369. 2.57592 4.11(14) 49.8 3.835 3.846
124406. 2.57669 3.94(13) 56.3 3.830 3.840
124443. 2.57746 3.87(13) 55.4 3.824 3.824
124481. 2.57823 4.00(14) 52.2 3.819 3.819
124518. 2.57901 4.03(14) 53.6 3.813 3.813
124555. 2.57978 4.13(14) 50.1 3.807 3.807
124593. 2.58056 3.87(14) 54.1 3.801 3.801
124630. 2.58133 3.85(14) 52.0 3.795 3.795
124667. 2.58210 3.70(13) 56.6 3.789 3.789
124705. 2.58288 3.82(14) 54.1 3.783 3.783
124742. 2.58365 3.81(14) 53.0 3.777 3.777
124780. 2.58443 3.99(14) 50.6 3.770 3.770
124817. 2.58521 4.19(15) 47.3 3.764 3.764
124855. 2.58598 3.89(14) 48.0 3.757 3.769
124892. 2.58676 3.81(14) 52.3 3.750 3.763
124929. 2.58753 3.71(13) 55.3 3.743 3.757
124967. 2.58831 3.81(14) 52.9 3.736 3.750
125005. . -0.00119(4) . . .
loop_
_refln_index_h
_refln_index_k
_refln_index_l
_refln_observed_status
_refln_F_squared_meas
_refln_F_squared_calc
_refln_phase_calc
_refln_d_spacing
_gsas_i100_meas
3 0 2 o 122.944 126.026 0.00 2.54719 14.30
1 0 -4 o 42.675 44.067 0.00 2.51450 6.59
4 0 0 o 21.813 22.853 0.00 2.51500 2.77
0 0 4 o 15.353 14.508 180.00 2.46668 2.53
3 1 -3 o 28.948 27.911 0.00 2.45768 9.23
3 2 -1 o 20.734 20.445 180.00 2.43598 5.35
4 0 -2 o 47.977 45.935 0.00 2.44675 5.25
3 2 0 o 2.396 2.419 180.00 2.42319 0.58
1 2 -3 o 0.927 0.916 0.00 2.41368 0.24
2 0 -4 o 20.563 20.007 180.00 2.41310 3.25
4 1 -1 o 20.795 19.793 180.00 2.40674 4.00
3 1 2 o 50.160 50.246 0.00 2.39408 10.01
0 2 3 o 21.276 20.524 180.00 2.39855 5.14
2 1 3 o 1.857 1.793 180.00 2.38079 0.48
2 2 2 o 12.264 12.622 180.00 2.36984 2.95
4 1 0 o 21.573 21.563 0.00 2.36730 4.37
1 1 -4 o 16.316 16.449 180.00 2.36688 3.86
0 1 4 o 40.585 41.065 180.00 2.32687 10.21
3 2 -2 o 2.429 2.482 0.00 2.31074 0.59
4 1 -2 o 55.718 57.688 0.00 2.31012 9.92
2 2 -3 o 18.302 18.335 0.00 2.29878 4.58
1 0 4 o 7.097 6.353 180.00 2.29232 0.96
3 2 1 o 0.167 0.171 0.00 2.27844 0.03
1 3 0 o 23.728 24.457 0.00 2.27642 3.96
2 1 -4 o 14.444 14.038 180.00 2.28174 3.45
0 3 1 o 25.116 24.732 180.00 2.27412 4.66
1 2 3 o 8.629 7.672 180.00 2.26017 1.86
1 3 -1 o 27.667 26.452 0.00 2.24041 4.47
4 1 1 o 0.021 0.023 180.00 2.20979 0.00
3 0 -4 o 41.887 41.930 0.00 2.20829 5.44
1 3 1 o 8.720 8.400 0.00 2.19655 1.41
1 1 4 o 8.718 12.146 0.00 2.17882 1.89
2 3 0 o 75.646 78.109 180.00 2.11945 9.22
4 1 -3 o 0.174 0.180 0.00 2.11918 0.03
2 3 -1 o 4.395 4.341 0.00 2.10888 0.56
0 3 2 o 17.252 17.157 0.00 2.11204 2.52
1 3 -2 o 6.579 6.382 180.00 2.10341 0.93
3 1 -4 o 16.119 15.986 180.00 2.10628 3.23
3 2 -3 o 7.931 8.193 180.00 2.10079 1.50
4 0 2 o 29.517 25.172 0.00 2.07914 1.54
4 2 -1 o 1.368 1.393 180.00 2.06870 0.19
3 2 2 o 16.454 15.076 0.00 2.06065 2.29
2 0 4 o 0.114 0.100 180.00 2.05838 0.01
2 2 3 o 20.800 20.746 180.00 2.05215 3.19
3 1 3 o 45.166 43.642 0.00 2.05030 6.17
4 2 0 o 0.010 0.006 0.00 2.04349 0.00
1 2 -4 o 1.097 0.611 0.00 2.04323 0.15
2 3 1 o 0.821 0.476 180.00 2.03733 0.10
1 3 2 o 34.929 33.101 0.00 2.03239 4.68
0 2 4 o 19.501 19.422 180.00 2.01732 2.71
2 3 -2 o 0.499 0.527 0.00 2.00955 0.06
5 0 0 o 111.866 113.611 180.00 2.01200 6.60
4 2 -2 o 43.669 43.314 0.00 2.00638 5.83
5 0 -2 o 0.009 0.010 180.00 2.00832 0.00
4 1 2 o 0.481 0.395 0.00 1.99334 0.05
2 2 -4 o 2.776 3.100 0.00 1.98770 0.40
2 1 4 o 8.303 9.048 180.00 1.97502 1.22
5 1 -1 o 8.381 7.929 180.00 1.97046 0.81
4 0 -4 o 0.190 0.155 180.00 1.96814 0.02
4 2 1 o 20.836 20.373 180.00 1.93959 2.32
1 1 -5 o 24.944 24.048 0.00 1.93553 3.00
5 1 0 o 2.433 2.320 0.00 1.93394 0.24
3 3 -1 o 33.414 32.947 0.00 1.92365 3.41
5 1 -2 o 24.761 24.900 180.00 1.93067 2.18
3 3 0 o 1.949 2.056 180.00 1.91734 0.19
1 2 4 o 0.792 0.832 180.00 1.91855 0.10
1 3 -3 o 20.404 21.184 180.00 1.91262 2.20
0 3 3 o 15.447 16.197 0.00 1.90506 1.61
2 1 -5 o 13.793 14.199 180.00 1.90180 1.67
0 1 5 o 1.276 1.516 180.00 1.89954 0.16
2 3 2 o 12.752 11.944 180.00 1.89058 1.35
4 1 -4 o 4.071 3.786 0.00 1.89490 0.54
4 2 -3 o 0.619 0.273 180.00 1.87745 0.07
3 2 -4 o 2.098 2.389 0.00 1.86847 0.26
3 3 -2 o 2.755 2.916 180.00 1.86016 0.29
2 3 -3 o 2.335 2.474 180.00 1.85391 0.25
3 3 1 o 38.109 38.437 180.00 1.84319 3.39
1 3 3 o 6.064 5.950 180.00 1.83348 0.59
5 1 1 o 0.618 0.605 180.00 1.83268 0.05
3 2 3 o 29.656 29.328 0.00 1.82905 2.81
3 0 4 o 4.047 2.909 180.00 1.82120 0.21
5 1 -3 o 3.795 3.867 180.00 1.82712 0.32
1 1 5 o 19.871 19.487 180.00 1.80447 2.27
3 1 -5 o 3.223 3.610 0.00 1.80834 0.37
4 2 2 o 1.121 0.672 0.00 1.78827 0.09
2 2 4 o 13.923 14.082 180.00 1.77501 1.34
4 1 3 o 5.474 5.748 0.00 1.77024 0.39
5 2 -1 o 15.074 14.767 0.00 1.77170 1.14
3 1 4 o 40.401 40.951 180.00 1.76270 3.63
0 4 0 o 14.137 14.282 0.00 1.75278 0.52
3 3 -3 o 14.734 15.014 0.00 1.74526 1.36
5 2 0 o 1.852 1.901 0.00 1.74501 0.14
1 2 -5 o 14.142 14.025 180.00 1.74617 1.14
5 0 2 o 0.974 0.991 0.00 1.74529 0.03
5 2 -2 o 5.467 5.574 0.00 1.74261 0.39
5 0 -4 o 0.081 0.071 0.00 1.73810 0.00
4 3 -1 o 21.320 21.100 180.00 1.72674 1.60
1 4 0 o 0.322 0.319 180.00 1.72677 0.02
3 3 2 o 42.324 42.098 180.00 1.72205 3.21
0 4 1 o 24.270 24.123 180.00 1.72576 1.71
2 2 -5 o 8.952 9.124 180.00 1.72129 0.74
2 3 3 o 11.699 11.939 180.00 1.71708 0.93
0 2 5 o 0.774 0.836 0.00 1.71961 0.06
4 3 0 o 1.078 1.085 180.00 1.71200 0.08
4 2 -4 o 31.363 31.787 0.00 1.71617 2.85
1 3 -4 o 10.668 10.836 0.00 1.71184 0.79
1 4 -1 o 2.411 2.659 0.00 1.71089 0.15
5 1 2 o 14.622 14.358 0.00 1.69360 0.78
0 3 4 o 14.302 14.665 0.00 1.69652 1.02
1 4 1 o 16.270 16.403 0.00 1.69112 1.04
4 3 -2 o 1.849 1.855 0.00 1.68999 0.14
6 0 -2 o 25.920 25.570 0.00 1.69373 0.72
5 1 -4 o 53.383 53.092 180.00 1.68704 4.12
2 3 -4 o 0.136 0.147 180.00 1.67878 0.01
2 1 5 o 12.957 13.393 0.00 1.67401 1.11
4 1 -5 o 3.858 4.167 180.00 1.67865 0.36
1 0 -6 o 22.074 22.414 180.00 1.67703 0.85
6 0 0 o 8.234 8.307 180.00 1.67666 0.26
5 2 1 o 3.451 4.243 0.00 1.66954 0.22
5 2 -3 o 39.026 40.065 180.00 1.66533 2.61
2 0 -6 o 4.695 4.817 180.00 1.66413 0.18
6 1 -1 o 23.588 23.972 0.00 1.66154 1.28
2 4 0 o 29.114 29.296 0.00 1.65517 1.50
4 3 1 o 35.133 35.142 180.00 1.64950 2.22
2 4 -1 o 7.714 7.680 180.00 1.65012 0.40
0 4 2 o 0.011 0.011 0.00 1.65164 0.00
3 2 -5 o 5.851 5.778 180.00 1.65108 0.46
1 4 -2 o 5.236 5.313 0.00 1.64750 0.30
1 2 5 o 32.064 32.197 180.00 1.64813 2.44
6 1 -2 o 0.827 0.873 180.00 1.64637 0.04
0 0 6 o 10.421 11.335 0.00 1.64445 0.42
1 3 4 o 8.425 9.200 180.00 1.63650 0.56
1 1 -6 o 6.378 6.637 180.00 1.63102 0.43
6 1 0 o 3.447 3.584 0.00 1.63068 0.19
4 2 3 o 0.107 0.066 0.00 1.62192 0.01
3 2 4 o 20.093 18.881 0.00 1.61612 1.30
2 4 1 o 0.791 0.688 180.00 1.61516 0.04
2 1 -6 o 4.639 4.384 0.00 1.61915 0.31
1 4 2 o 0.582 0.550 0.00 1.61269 0.03
4 3 -3 o 0.884 0.982 180.00 1.61077 0.06
4 0 4 o 5.981 6.045 0.00 1.60802 0.18
3 3 -4 o 6.016 5.677 0.00 1.60508 0.43
3 0 -6 o 7.243 7.610 0.00 1.60874 0.28
2 4 -2 o 3.033 3.030 180.00 1.60121 0.15
0 1 6 o 19.074 18.773 0.00 1.60101 1.34
6 1 -3 o 2.909 1.770 0.00 1.58874 0.14
3 3 3 o 20.957 19.561 0.00 1.57989 1.22
1 0 6 o 0.120 0.046 0.00 1.57372 0.00
4 1 4 o 4.053 3.931 0.00 1.56732 0.22
5 2 2 o 1.426 1.314 0.00 1.56237 0.07
3 1 -6 o 15.350 14.849 0.00 1.56799 1.03
6 1 1 o 12.726 12.762 180.00 1.56089 0.57
3 4 -1 o 6.763 6.626 0.00 1.55673 0.29
4 3 2 o 19.306 19.159 0.00 1.55338 1.00
3 4 0 o 7.448 7.390 180.00 1.55338 0.31
5 2 -4 o 21.753 21.041 0.00 1.55721 1.27
1 4 -3 o 7.255 7.358 180.00 1.55086 0.35
2 2 5 o 2.030 2.049 0.00 1.54694 0.12
4 2 -5 o 1.428 1.467 180.00 1.55061 0.09
2 3 4 o 0.150 0.143 180.00 1.54467 0.01
0 4 3 o 35.381 35.557 0.00 1.54683 1.73
5 1 3 o 10.213 10.657 0.00 1.54287 0.40
5 3 -1 o 5.211 5.495 180.00 1.54248 0.26
2 4 2 o 0.009 0.011 0.00 1.53905 0.00
6 2 -1 o 26.985 27.777 0.00 1.53709 1.17
1 1 6 o 2.133 2.009 180.00 1.53551 0.14
3 1 5 o 2.071 2.295 0.00 1.53151 0.12
5 1 -5 o 2.195 2.187 180.00 1.53625 0.14
6 0 -4 o 109.642 110.109 180.00 1.53640 2.76
5 3 0 o 33.066 33.645 0.00 1.52478 1.59
1 3 -5 o 0.198 0.202 0.00 1.52555 0.01
5 3 -2 o 0.160 0.160 180.00 1.52317 0.01
3 4 -2 o 7.739 7.582 180.00 1.52250 0.34
6 2 -2 o 12.338 12.526 180.00 1.52505 0.51
2 4 -3 o 11.667 11.092 0.00 1.51907 0.54
4 0 -6 o 1.222 1.194 180.00 1.52242 0.04
3 4 1 o 1.580 1.263 180.00 1.51315 0.06
6 2 0 o 1.220 1.054 0.00 1.51256 0.05
1 2 -6 o 1.222 1.020 180.00 1.51283 0.06
1 4 3 o 0.404 0.379 180.00 1.50777 0.02
2 3 -5 o 57.169 54.828 0.00 1.50887 2.94
0 3 5 o 0.031 0.029 180.00 1.50775 0.00
4 3 -4 o 0.593 0.500 180.00 1.50542 0.03
2 2 -6 o 2.344 1.689 180.00 1.50334 0.11
6 0 2 o 0.387 0.119 0.00 1.49902 0.01
6 1 -4 o 0.882 0.409 0.00 1.50079 0.04
0 2 6 o 6.738 6.144 0.00 1.48879 0.34
4 1 -6 o 4.068 3.420 180.00 1.48775 0.25
2 0 6 o 3.813 4.067 0.00 1.47839 0.11
5 3 1 o 0.251 0.272 0.00 1.47365 0.01
6 2 -3 o 0.187 0.199 180.00 1.47890 0.01
5 3 -3 o 3.037 2.761 180.00 1.47076 0.14
6 1 2 o 11.713 11.055 180.00 1.46589 0.37
4 2 4 o 3.182 3.094 180.00 1.46159 0.13
3 3 -5 o 4.051 3.982 0.00 1.46091 0.20
3 2 -6 o 18.904 18.000 180.00 1.46213 0.93
3 4 -3 o 0.176 0.187 180.00 1.45755 0.01
1 3 5 o 9.414 9.204 0.00 1.45886 0.43
6 2 1 o 1.616 1.637 0.00 1.45637 0.06
7 0 -2 o 30.783 30.199 180.00 1.46019 0.51
4 4 -1 o 15.702 15.373 180.00 1.44671 0.56
2 1 6 o 6.238 6.100 0.00 1.44658 0.32
3 4 2 o 0.053 0.050 0.00 1.44395 0.00
5 2 3 o 13.798 13.804 180.00 1.44169 0.47
4 3 3 o 4.626 4.620 0.00 1.44060 0.18
2 4 3 o 29.505 29.559 0.00 1.44101 1.20
4 4 0 o 0.327 0.341 180.00 1.43800 0.01
3 3 4 o 1.292 1.283 0.00 1.43652 0.05
1 4 -4 o 0.805 0.837 180.00 1.43791 0.03
1 2 6 o 45.366 45.471 0.00 1.43569 2.14
3 2 5 o 4.833 4.846 0.00 1.43241 0.21
5 2 -5 o 28.699 28.487 0.00 1.43629 1.35
7 0 0 o 6.072 6.142 0.00 1.43714 0.11
7 1 -1 o 3.424 3.456 0.00 1.43346 0.11
0 4 4 o 3.494 3.387 180.00 1.42880 0.13
4 4 -2 o 3.576 4.103 0.00 1.42489 0.13
5 0 4 o 0.255 0.316 0.00 1.42604 0.00
7 1 -2 o 22.311 21.327 180.00 1.42952 0.66
2 4 -4 o 1.138 0.988 180.00 1.41815 0.04
5 0 -6 o 46.358 45.337 0.00 1.41951 1.23
7 1 0 o 3.463 3.365 180.00 1.40787 0.11
1 1 -7 o 2.838 2.786 180.00 1.40660 0.11
6 2 -4 o 0.382 0.371 180.00 1.40718 0.01
4 4 1 o 3.640 3.250 180.00 1.40037 0.12
2 1 -7 o 1.377 1.513 0.00 1.40450 0.05
5 3 2 o 0.657 0.657 180.00 1.39838 0.02
5 1 4 o 10.499 10.785 180.00 1.39743 0.33
5 3 -4 o 0.706 0.734 0.00 1.39468 0.03
4 1 5 o 13.850 13.921 180.00 1.39265 0.53
4 2 -6 o 3.122 3.128 180.00 1.39642 0.14
6 1 -5 o 10.817 11.041 180.00 1.39711 0.43
7 1 -3 o 1.230 1.247 0.00 1.39675 0.03
1 4 4 o 23.199 23.355 180.00 1.39239 0.82
1 5 0 o 2.014 2.031 0.00 1.38880 0.06
4 3 -5 o 0.001 0.001 180.00 1.38993 0.00
2 3 5 o 0.972 0.951 180.00 1.38729 0.04
0 5 1 o 21.953 21.753 0.00 1.38828 0.71
5 1 -6 o 13.937 14.138 0.00 1.39128 0.66
1 5 -1 o 33.137 33.123 180.00 1.38050 0.99
6 3 -1 o 1.970 1.929 0.00 1.38017 0.06
0 1 7 o 3.228 3.475 0.00 1.38188 0.13
6 2 2 o 13.927 13.944 180.00 1.37830 0.40
4 4 -3 o 1.132 1.104 180.00 1.37644 0.04
3 4 -4 o 1.738 1.851 180.00 1.37288 0.06
3 0 6 o 46.039 47.403 180.00 1.37225 0.95
3 1 -7 o 15.784 15.602 180.00 1.37592 0.64
6 3 -2 o 5.513 5.567 180.00 1.37143 0.18
1 5 1 o 7.212 7.860 0.00 1.37005 0.22
6 3 0 o 18.363 18.639 180.00 1.36233 0.58
2 2 6 o 28.477 28.991 0.00 1.36221 1.13
1 3 -6 o 3.989 4.075 0.00 1.36253 0.13
6 1 3 o 0.305 0.419 180.00 1.35977 0.01
7 0 -4 o 2.206 3.659 180.00 1.36587 0.03
3 4 3 o 5.658 6.077 0.00 1.35702 0.19
7 1 1 o 2.121 2.317 0.00 1.35717 0.06
2 3 -6 o 0.095 0.107 180.00 1.35558 0.00
2 5 0 o 0.249 0.339 0.00 1.35072 0.01
7 2 -1 o 1.672 2.558 180.00 1.35124 0.04
2 5 -1 o 11.373 11.358 0.00 1.34798 0.29
0 5 2 o 5.814 6.182 180.00 1.34880 0.17
3 1 6 o 0.014 0.016 0.00 1.34670 0.00
1 5 -2 o 0.001 0.001 0.00 1.34654 0.00
7 2 -2 o 2.406 2.429 0.00 1.34793 0.06
4 4 2 o 1.309 2.124 0.00 1.34011 0.04
0 3 6 o 0.198 0.411 0.00 1.34488 0.01
6 3 -3 o 4.151 4.551 0.00 1.33758 0.13
2 4 4 o 0.984 1.154 0.00 1.33450 0.03
7 1 -4 o 0.897 1.654 180.00 1.34067 0.02
5 4 -1 o 0.259 0.353 0.00 1.33309 0.01
1 1 7 o 0.023 0.027 180.00 1.33431 0.00
2 5 1 o 7.728 7.321 0.00 1.32871 0.19
7 2 0 o 11.348 10.905 0.00 1.32974 0.30
1 5 2 o 2.425 2.357 0.00 1.32734 0.07
1 2 -7 o 0.354 0.337 180.00 1.32867 0.01
4 3 4 o 41.045 41.670 0.00 1.32473 1.24
2 2 -7 o 0.703 0.699 0.00 1.32690 0.02
5 4 0 o 9.865 9.980 180.00 1.32161 0.27
3 3 -6 o 1.717 1.739 0.00 1.32513 0.06
5 2 4 o 1.499 1.533 0.00 1.32093 0.04
2 5 -2 o 0.603 0.617 180.00 1.32092 0.01
6 3 1 o 0.013 0.014 0.00 1.32084 0.00
1 4 -5 o 9.230 9.242 0.00 1.32212 0.27
5 4 -2 o 9.010 9.248 180.00 1.32057 0.26
4 1 -7 o 0.078 0.079 0.00 1.32539 0.00
4 2 5 o 8.440 9.314 0.00 1.31689 0.26
6 2 -5 o 2.154 2.217 0.00 1.32066 0.07
7 2 -3 o 4.439 4.582 180.00 1.32035 0.11
5 2 -6 o 0.071 0.108 180.00 1.31574 0.00
5 3 3 o 0.239 0.234 180.00 1.30986 0.01
2 4 -5 o 0.003 0.003 180.00 1.31122 0.00
7 0 2 o 0.296 0.302 180.00 1.31135 0.00
0 4 5 o 0.255 0.258 0.00 1.31048 0.01
4 4 -4 o 9.529 9.916 0.00 1.30895 0.31
0 2 7 o 0.043 0.072 0.00 1.30778 0.00
6 0 -6 o 0.068 0.060 180.00 1.31210 0.00
1 3 6 o 0.000 0.038 180.00 1.30535 0.00
5 3 -5 o 0.000 0.152 180.00 1.30581 0.00
3 3 5 o 0.003 0.009 180.00 1.30289 0.00
3 2 -7 o 0.536 2.203 180.00 1.30272 0.02
3 5 -1 o 14.442 16.790 180.00 1.29561 0.31
3 5 0 o 0.992 1.120 0.00 1.29368 0.02
1 5 -3 o 20.930 22.404 180.00 1.29222 0.51
5 4 1 o 0.928 0.927 180.00 1.28790 0.02
6 2 3 o 0.055 0.053 180.00 1.28899 0.00
7 1 2 o 21.561 21.119 0.00 1.28900 0.44
0 5 3 o 11.198 11.447 180.00 1.28988 0.28
5 4 -3 o 24.297 25.110 0.00 1.28597 0.70
7 2 1 o 12.566 12.817 0.00 1.28677 0.29
2 5 2 o 6.075 6.390 180.00 1.28536 0.15
6 1 -6 o 0.349 0.355 0.00 1.28971 0.01
6 3 -4 o 0.019 0.025 180.00 1.28382 0.00
3 4 -5 o 1.544 1.668 0.00 1.27937 0.05
3 2 6 o 0.280 0.289 180.00 1.27784 0.01
1 4 5 o 38.312 39.395 180.00 1.27800 1.01
8 0 -2 o 5.180 6.036 0.00 1.28122 0.05
3 5 -2 o 9.449 9.364 180.00 1.27568 0.20
2 5 -3 o 1.505 1.512 180.00 1.27365 0.03
4 3 -6 o 1.093 1.086 180.00 1.27563 0.03
6 0 4 o 25.683 25.794 0.00 1.27359 0.26
3 5 1 o 0.800 0.805 0.00 1.27016 0.02
2 1 7 o 56.479 56.747 0.00 1.27057 1.84
7 2 -4 o 43.453 43.813 180.00 1.27268 0.98
4 4 3 o 12.482 12.437 0.00 1.26566 0.31
1 2 7 o 12.797 12.717 180.00 1.26724 0.39
1 5 3 o 9.906 9.863 0.00 1.26697 0.24
4 0 6 o 25.846 25.744 180.00 1.26560 0.37
5 1 5 o 21.399 21.267 180.00 1.26529 0.53
3 4 4 o 2.945 2.835 180.00 1.26290 0.08
7 1 -5 o 34.754 34.662 0.00 1.26930 0.88
6 3 2 o 2.860 2.873 180.00 1.26177 0.07
8 1 -2 o 1.841 1.833 0.00 1.26035 0.04
4 2 -7 o 0.231 0.230 180.00 1.25959 0.01
8 1 -1 o 1.992 1.974 0.00 1.25902 0.04
5 1 -7 o 4.478 4.468 0.00 1.25982 0.15
8 0 0 o 11.066 11.015 180.00 1.25750 0.12
2 0 -8 o 31.009 30.799 0.00 1.25725 0.41
6 1 4 o 2.946 2.762 180.00 1.25309 0.06
1 0 -8 o 29.798 31.457 180.00 1.25477 0.41
2 3 6 o 0.348 0.719 180.00 1.24939 0.01
4 1 6 o 1.097 0.639 180.00 1.24547 0.03
7 3 -1 o 18.510 16.779 0.00 1.24091 0.40
5 4 2 o 10.981 10.453 0.00 1.23675 0.25
8 1 -3 o 1.252 1.090 180.00 1.24155 0.02
7 3 -2 o 12.458 10.811 0.00 1.23835 0.26
3 5 -3 o 9.923 9.435 0.00 1.23674 0.21
3 0 -8 o 2.925 2.514 180.00 1.24044 0.04
8 1 0 o 4.068 3.680 180.00 1.23775 0.08
2 1 -8 o 2.436 2.229 0.00 1.23751 0.06
5 4 -4 o 29.580 28.684 0.00 1.23418 0.78
1 1 -8 o 2.467 2.436 180.00 1.23515 0.06
0 0 8 o 33.666 27.444 0.00 1.23334 0.47
4 5 -1 o 15.714 12.997 180.00 1.23009 0.29
4 4 -5 o 3.987 2.710 0.00 1.23089 0.11
3 5 2 o 2.394 2.373 180.00 1.22839 0.05
2 4 5 o 0.091 0.086 0.00 1.22905 0.00
7 2 2 o 0.000 0.000 180.00 1.22823 0.00
2 5 3 o 3.368 3.321 180.00 1.22659 0.07
4 5 0 o 9.738 9.706 0.00 1.22473 0.17
6 4 -1 o 19.010 18.929 180.00 1.22409 0.41
6 2 -6 o 10.315 9.855 180.00 1.22884 0.27
1 5 -4 o 1.222 1.217 0.00 1.22467 0.03
7 3 0 o 4.949 4.925 0.00 1.22420 0.10
1 3 -7 o 8.887 8.895 0.00 1.22336 0.20
2 3 -7 o 12.636 12.767 180.00 1.22198 0.28
5 3 4 o 15.347 15.903 0.00 1.21731 0.32
6 4 -2 o 10.787 11.039 180.00 1.21799 0.24
3 1 -8 o 8.212 8.345 180.00 1.22147 0.21
8 0 -4 o 1.259 1.259 0.00 1.22338 0.01
4 5 -2 o 0.165 0.174 180.00 1.21660 0.00
0 5 4 o 9.098 9.607 0.00 1.21903 0.19
6 3 -5 o 0.167 0.174 180.00 1.21710 0.00
7 3 -3 o 0.290 0.305 180.00 1.21686 0.01
4 3 5 o 2.899 2.963 180.00 1.21415 0.07
0 1 8 o 0.038 0.039 180.00 1.21469 0.00
6 4 0 o 10.801 10.908 180.00 1.21160 0.22
2 5 -4 o 46.406 46.816 0.00 1.21240 0.94
2 2 7 o 3.420 3.448 0.00 1.21225 0.09
5 3 -6 o 0.003 0.003 0.00 1.21325 0.00
1 4 -6 o 12.231 12.344 0.00 1.21174 0.26
7 1 3 o 3.179 3.211 180.00 1.21148 0.05
5 2 5 o 18.047 17.829 180.00 1.20767 0.37
7 2 -5 o 2.167 2.188 180.00 1.21116 0.05
2 4 -6 o 0.665 0.682 0.00 1.20684 0.01
0 3 7 o 1.264 1.289 180.00 1.20700 0.03
4 5 1 o 6.953 7.249 0.00 1.20123 0.12
7 0 -6 o 0.123 0.120 180.00 1.20807 0.00
4 0 -8 o 1.360 1.394 0.00 1.20655 0.02
8 2 -2 o 2.584 2.537 0.00 1.20337 0.04
3 3 -7 o 27.158 27.130 180.00 1.20302 0.63
8 1 -4 o 7.069 7.011 0.00 1.20517 0.12
8 2 -1 o 0.071 0.073 180.00 1.20221 0.00
5 2 -7 o 4.512 4.532 0.00 1.20291 0.12
3 1 7 o 3.755 4.453 180.00 1.19781 0.10
6 2 4 o 0.182 0.188 180.00 1.19704 0.00
8 1 1 o 0.019 0.023 0.00 1.19939 0.00
0 4 6 o 0.838 0.996 0.00 1.19927 0.02
1 5 4 o 0.671 0.566 0.00 1.19618 0.01
1 0 8 o 11.240 9.269 0.00 1.19571 0.15
6 3 3 o 0.089 0.065 0.00 1.19218 0.00
6 4 -3 o 6.610 6.286 0.00 1.19409 0.14
7 3 1 o 0.074 0.063 0.00 1.19042 0.00
4 2 6 o 3.034 2.581 0.00 1.19039 0.07
4 4 4 o 7.052 7.224 0.00 1.18492 0.14
4 5 -3 o 4.364 4.423 0.00 1.18602 0.08
7 1 -6 o 3.798 3.183 180.00 1.19052 0.09
4 1 -8 o 6.724 6.661 0.00 1.18907 0.17
3 4 -6 o 2.247 2.296 180.00 1.18521 0.05
3 5 -4 o 13.576 13.600 180.00 1.18374 0.26
3 3 6 o 7.321 7.295 180.00 1.18334 0.16
6 4 1 o 1.217 1.130 180.00 1.18213 0.02
8 2 -3 o 23.412 23.216 0.00 1.18697 0.36
8 2 0 o 14.380 14.382 0.00 1.18365 0.25
6 1 -7 o 1.148 1.157 0.00 1.18626 0.03
2 2 -8 o 19.655 19.592 180.00 1.18344 0.39
1 2 -8 o 2.663 2.467 180.00 1.18137 0.05
1 1 8 o 39.527 39.729 0.00 1.17869 0.97
7 3 -4 o 1.031 1.042 0.00 1.17924 0.02
5 4 3 o 25.445 25.197 180.00 1.17424 0.48
3 5 3 o 9.164 8.970 180.00 1.17353 0.17
1 3 7 o 0.019 0.019 0.00 1.17491 0.00
5 4 -5 o 1.481 1.761 180.00 1.17132 0.03
1 4 6 o 0.051 0.060 180.00 1.17099 0.00
3 4 5 o 29.778 30.810 0.00 1.16921 0.60
0 6 0 o 7.189 7.248 0.00 1.16852 0.06
3 2 -8 o 4.109 4.259 180.00 1.16939 0.08
4 3 -7 o 4.090 4.192 180.00 1.16881 0.09
5 0 6 o 81.725 78.083 180.00 1.16455 0.82
4 5 2 o 0.892 0.759 180.00 1.16254 0.01
8 0 2 o 0.170 0.158 0.00 1.16423 0.00
0 2 8 o 0.746 0.664 180.00 1.16344 0.02
1 6 0 o 7.096 6.684 0.00 1.16072 0.11
7 2 3 o 0.576 0.544 0.00 1.16061 0.01
0 6 1 o 2.939 2.777 180.00 1.16041 0.05
5 5 -1 o 14.859 16.032 180.00 1.15795 0.23
2 5 4 o 1.123 1.153 180.00 1.15887 0.02
1 6 -1 o 1.273 1.231 180.00 1.15586 0.02
5 0 -8 o 1.376 1.330 0.00 1.15958 0.02
6 4 -4 o 12.695 12.583 180.00 1.15537 0.26
6 1 5 o 30.209 31.025 0.00 1.15209 0.49
5 5 0 o 0.976 0.981 0.00 1.15040 0.01
8 2 -4 o 1.262 1.262 0.00 1.15506 0.02
5 5 -2 o 11.729 11.761 0.00 1.14971 0.19
1 5 -5 o 4.572 4.582 180.00 1.15074 0.08
8 1 -5 o 0.021 0.020 180.00 1.15562 0.00
1 6 1 o 2.783 2.788 180.00 1.14970 0.04
5 1 6 o 1.788 1.708 180.00 1.14881 0.03
8 2 1 o 3.707 3.730 180.00 1.14997 0.06
3 2 7 o 19.607 18.459 0.00 1.14858 0.41
4 4 -6 o 0.566 0.560 180.00 1.14939 0.01
8 1 2 o 0.991 0.929 0.00 1.14851 0.01
7 0 4 o 1.202 1.211 0.00 1.14630 0.01
2 0 8 o 0.597 0.598 0.00 1.14616 0.01
7 3 2 o 15.337 15.375 180.00 1.14362 0.24
2 5 -5 o 25.778 25.786 180.00 1.14353 0.44
4 5 -4 o 0.013 0.013 0.00 1.14202 0.00
0 5 5 o 1.349 1.329 0.00 1.14304 0.02
6 3 -6 o 0.287 0.289 0.00 1.14411 0.01
6 4 2 o 7.763 8.148 0.00 1.13922 0.13
5 1 -8 o 0.371 0.372 180.00 1.14403 0.01
4 2 -8 o 6.343 6.460 0.00 1.14087 0.13
7 2 -6 o 2.390 2.341 180.00 1.14215 0.04
2 6 0 o 0.002 0.002 180.00 1.13821 0.00
2 6 -1 o 0.019 0.019 0.00 1.13657 0.00
0 6 2 o 21.924 21.515 180.00 1.13706 0.34
1 6 -2 o 4.630 4.405 180.00 1.13571 0.07
9 0 -2 o 3.519 3.635 0.00 1.14025 0.02
6 2 -7 o 14.898 15.075 180.00 1.13838 0.31
7 1 4 o 57.860 55.932 180.00 1.13128 0.72
2 1 8 o 2.670 2.588 0.00 1.13114 0.06
2 3 7 o 2.333 2.272 0.00 1.13069 0.04
1 2 8 o 1.507 1.438 180.00 1.13169 0.03
5 5 1 o 1.055 0.955 0.00 1.12796 0.02
2 4 6 o 8.056 7.827 180.00 1.13009 0.14
5 3 5 o 4.787 4.579 180.00 1.12696 0.08
5 5 -3 o 5.190 5.044 0.00 1.12667 0.08
7 3 -5 o 19.704 19.020 180.00 1.12980 0.34
7 4 -1 o 9.669 9.446 0.00 1.12380 0.15
2 6 1 o 0.197 0.189 180.00 1.12495 0.00
1 6 2 o 3.584 3.474 180.00 1.12411 0.05
8 3 -1 o 9.003 9.010 0.00 1.12253 0.13
8 3 -2 o 0.082 0.081 0.00 1.12347 0.00
3 5 -5 o 3.462 3.452 0.00 1.12222 0.06
4 1 7 o 13.049 12.965 180.00 1.12206 0.25
7 4 -2 o 0.127 0.126 0.00 1.12190 0.00
9 1 -2 o 29.159 28.175 180.00 1.12546 0.37
1 5 5 o 9.488 9.094 180.00 1.12129 0.15
5 3 -7 o 6.987 6.944 180.00 1.12309 0.14
2 6 -2 o 11.158 10.022 0.00 1.12020 0.15
6 3 4 o 3.590 3.339 180.00 1.11832 0.05
9 1 -1 o 1.098 1.074 180.00 1.12167 0.01
9 0 0 o 1.910 1.764 0.00 1.11778 0.01
4 5 3 o 15.399 15.358 0.00 1.11293 0.23
4 3 6 o 0.178 0.178 0.00 1.11289 0.00
7 4 0 o 0.689 0.679 0.00 1.11134 0.01
3 5 4 o 7.078 7.038 180.00 1.11105 0.11
9 1 -3 o 26.723 26.548 180.00 1.11479 0.32
1 4 -7 o 0.097 0.097 180.00 1.11072 0.00
6 2 5 o 3.157 2.949 0.00 1.10808 0.04
8 3 -3 o 1.270 1.228 180.00 1.11009 0.02
5 4 4 o 2.409 2.340 0.00 1.10618 0.04
2 4 -7 o 12.416 11.858 180.00 1.10968 0.20
8 3 0 o 4.962 4.781 180.00 1.10737 0.07
8 2 -5 o 6.495 6.417 0.00 1.11122 0.09
7 1 -7 o 6.307 6.190 0.00 1.11046 0.12
5 2 6 o 0.003 0.003 180.00 1.10517 0.00
8 0 -6 o 1.514 1.481 0.00 1.11159 0.01
2 3 -8 o 0.786 0.758 0.00 1.10720 0.01
7 4 -3 o 1.705 1.671 0.00 1.10584 0.03
3 6 -1 o 2.743 2.725 180.00 1.10465 0.03
4 4 5 o 0.046 0.043 180.00 1.10381 0.00
8 2 2 o 45.166 45.001 180.00 1.10489 0.56
6 4 -5 o 4.135 4.032 180.00 1.10602 0.07
3 6 0 o 0.398 0.361 0.00 1.10345 0.00
1 3 -8 o 8.352 8.258 0.00 1.10551 0.13
1 6 -3 o 0.121 0.111 180.00 1.10254 0.00
2 1 -9 o 3.826 3.786 0.00 1.10460 0.06
5 4 -6 o 0.459 0.413 180.00 1.10313 0.01
9 1 0 o 1.004 0.943 0.00 1.10384 0.01
0 6 3 o 26.320 25.287 180.00 1.10109 0.36
2 6 2 o 1.956 1.951 0.00 1.09827 0.03
9 0 -4 o 18.180 17.659 0.00 1.10427 0.11
1 1 -9 o 0.112 0.111 0.00 1.10024 0.00
6 0 -8 o 9.237 8.896 180.00 1.10414 0.10
5 2 -8 o 0.003 0.003 180.00 1.10091 0.00
0 4 7 o 0.752 0.750 180.00 1.09842 0.01
5 5 2 o 10.094 10.119 0.00 1.09312 0.14
3 4 -7 o 16.210 16.174 0.00 1.09542 0.26
3 3 -8 o 1.916 1.903 0.00 1.09567 0.03
8 1 -6 o 10.406 10.311 180.00 1.09787 0.16
3 6 -2 o 0.415 0.413 180.00 1.09221 0.00
3 1 -9 o 6.320 6.268 180.00 1.09579 0.10
5 5 -4 o 0.383 0.411 180.00 1.09135 0.01
2 6 -3 o 0.520 0.564 180.00 1.09094 0.01
7 2 4 o 0.357 0.375 180.00 1.08953 0.00
8 1 3 o 2.915 3.104 180.00 1.09004 0.03
3 6 1 o 12.477 12.816 0.00 1.08875 0.14
7 3 3 o 15.173 15.140 0.00 1.08844 0.19
6 4 3 o 2.891 2.518 180.00 1.08722 0.04
0 3 8 o 0.199 0.216 180.00 1.09077 0.00
2 2 8 o 5.151 5.397 180.00 1.08941 0.09
3 0 8 o 16.931 17.712 180.00 1.08929 0.16
4 5 -5 o 0.698 0.727 0.00 1.08907 0.01
7 4 1 o 0.014 0.012 0.00 1.08589 0.00
2 5 5 o 3.166 2.896 180.00 1.08780 0.05
9 1 -4 o 0.483 0.521 180.00 1.09082 0.01
6 1 -8 o 3.524 3.796 0.00 1.09070 0.07
1 6 3 o 0.000 0.000 180.00 1.08673 0.00
6 5 -1 o 3.172 2.779 0.00 1.08435 0.04
9 2 -2 o 6.279 5.520 180.00 1.08433 0.07
8 3 -4 o 4.070 3.649 0.00 1.08385 0.05
4 2 7 o 26.446 26.581 180.00 1.08128 0.43
0 1 9 o 3.550 3.396 180.00 1.08314 0.06
3 4 6 o 0.621 0.663 180.00 1.08050 0.01
6 5 -2 o 0.114 0.127 180.00 1.08010 0.00
8 3 1 o 2.182 2.546 180.00 1.07965 0.03
9 2 -1 o 0.315 0.322 180.00 1.08094 0.00
3 3 7 o 5.737 6.533 0.00 1.07850 0.09
6 5 0 o 1.159 1.126 180.00 1.07564 0.01
3 1 8 o 4.553 4.419 0.00 1.07638 0.08
7 4 -4 o 2.991 2.983 180.00 1.07738 0.04
1 5 -6 o 9.835 9.544 0.00 1.07574 0.13
1 4 7 o 0.011 0.011 0.00 1.07407 0.00
6 0 6 o 5.122 5.543 0.00 1.07201 0.04
9 1 1 o 0.001 0.001 0.00 1.07387 0.00
2 5 -6 o 1.622 1.743 180.00 1.07231 0.02
9 2 -3 o 8.082 8.214 180.00 1.07477 0.08
4 1 -9 o 1.165 1.189 0.00 1.07470 0.02
7 3 -6 o 0.430 0.448 180.00 1.07317 0.01
4 3 -8 o 27.186 29.338 180.00 1.07210 0.43
4 4 -7 o 1.090 1.252 0.00 1.06941 0.02
6 3 -7 o 1.053 1.168 0.00 1.07004 0.02
3 6 -3 o 7.196 7.177 180.00 1.06747 0.08
7 2 -7 o 0.345 0.363 180.00 1.07089 0.01
0 5 6 o 9.188 8.978 0.00 1.06699 0.12
4 6 -1 o 15.410 14.480 0.00 1.06319 0.16
9 2 0 o 2.662 2.676 0.00 1.06495 0.03
6 5 -3 o 0.541 0.509 0.00 1.06333 0.01
1 3 8 o 0.040 0.039 0.00 1.06448 0.00
2 2 -9 o 0.007 0.007 0.00 1.06564 0.00
3 6 2 o 0.210 0.195 180.00 1.06209 0.00
2 6 3 o 16.783 15.542 180.00 1.06093 0.21
4 6 0 o 10.002 9.168 180.00 1.05972 0.10
6 1 6 o 0.094 0.087 180.00 1.05970 0.00
1 6 -4 o 11.768 10.785 0.00 1.05969 0.14
1 2 -9 o 1.955 1.811 0.00 1.06172 0.03
4 5 4 o 2.505 2.668 0.00 1.05684 0.03
6 5 1 o 2.909 2.949 0.00 1.05486 0.03
8 2 -6 o 1.442 1.321 0.00 1.05959 0.02
3 5 -6 o 0.548 0.576 180.00 1.05704 0.01
4 6 -2 o 1.185 1.180 180.00 1.05444 0.01
3 2 -9 o 4.291 4.150 180.00 1.05772 0.06
0 6 4 o 3.512 3.685 180.00 1.05602 0.04
1 1 9 o 0.032 0.033 180.00 1.05502 0.00
7 1 5 o 5.002 4.811 0.00 1.05295 0.05
8 2 3 o 14.338 13.897 0.00 1.05255 0.14
2 6 -4 o 2.596 2.377 0.00 1.05170 0.03
7 4 2 o 2.525 2.599 180.00 1.05001 0.03
9 1 -5 o 5.490 5.746 180.00 1.05603 0.06
5 5 3 o 5.515 6.127 0.00 1.04925 0.07
9 2 -4 o 1.175 1.126 180.00 1.05325 0.01
6 2 -8 o 16.231 15.579 0.00 1.05314 0.26
6 4 -6 o 0.231 0.231 0.00 1.05039 0.00
5 1 7 o 1.665 1.738 180.00 1.04752 0.02
5 5 -5 o 1.106 1.131 0.00 1.04716 0.02
6 3 5 o 3.538 3.585 180.00 1.04476 0.04
1 5 6 o 3.837 3.904 0.00 1.04692 0.05
3 5 5 o 1.117 1.195 0.00 1.04565 0.01
4 6 1 o 1.129 1.076 0.00 1.04439 0.01
8 3 -5 o 10.089 10.444 180.00 1.04739 0.12
0 2 9 o 6.535 6.768 180.00 1.04633 0.09
9 0 2 o 1.157 1.211 180.00 1.04611 0.01
5 3 6 o 0.278 0.276 0.00 1.04232 0.00
8 3 2 o 1.882 1.851 0.00 1.04209 0.02
3 2 8 o 9.319 9.337 0.00 1.04023 0.14
2 4 7 o 1.813 1.822 0.00 1.03998 0.02
1 6 4 o 0.123 0.119 0.00 1.04106 0.00
5 1 -9 o 0.470 0.412 180.00 1.04338 0.01
7 0 -8 o 17.368 16.940 180.00 1.04452 0.14
8 0 4 o 0.796 0.806 0.00 1.03957 0.00
5 4 5 o 11.367 10.130 180.00 1.03708 0.14
7 4 -5 o 2.902 2.961 180.00 1.03928 0.04
9 2 1 o 0.888 0.816 180.00 1.03797 0.01
5 3 -8 o 0.079 0.079 180.00 1.03874 0.00
4 2 -9 o 8.682 8.692 0.00 1.03871 0.12
6 5 -4 o 2.701 2.698 0.00 1.03572 0.04
4 6 -3 o 5.187 5.328 0.00 1.03435 0.05
8 4 -2 o 36.100 37.061 0.00 1.03435 0.41
8 4 -1 o 8.699 8.638 180.00 1.03362 0.10
9 1 2 o 0.058 0.060 180.00 1.03466 0.00
5 4 -7 o 4.125 4.196 0.00 1.03406 0.06
3 6 -4 o 2.831 2.628 0.00 1.03284 0.03
6 4 4 o 0.044 0.046 180.00 1.03033 0.00
4 5 -6 o 11.806 11.836 180.00 1.03140 0.16
8 1 -7 o 1.824 1.700 180.00 1.03637 0.02
7 3 4 o 0.475 0.466 180.00 1.02917 0.00
4 0 8 o 31.965 31.423 0.00 1.02919 0.23
2 3 8 o 0.228 0.223 0.00 1.02906 0.00
8 1 4 o 22.750 21.450 0.00 1.02833 0.19
7 1 -8 o 4.518 4.307 0.00 1.03312 0.07
4 4 6 o 0.037 0.033 0.00 1.02608 0.00
3 6 3 o 0.058 0.052 180.00 1.02603 0.00
6 2 6 o 7.867 7.525 180.00 1.02515 0.09
6 5 2 o 0.179 0.174 180.00 1.02403 0.00
8 4 -3 o 1.356 1.299 180.00 1.02388 0.02
9 3 -2 o 13.963 13.624 0.00 1.02478 0.13
4 3 7 o 2.995 2.923 180.00 1.02221 0.04
10 0 -2 o 0.556 0.500 0.00 1.02661 0.00
8 4 0 o 2.602 2.469 0.00 1.02175 0.03
9 3 -1 o 0.003 0.003 0.00 1.02192 0.00
2 4 -8 o 2.604 2.450 180.00 1.02161 0.03
7 2 5 o 0.732 0.657 180.00 1.01904 0.01
4 6 2 o 0.791 0.712 0.00 1.01866 0.01
1 2 9 o 14.760 13.435 0.00 1.02091 0.20
9 0 -6 o 37.110 36.126 0.00 1.02427 0.20
1 4 -8 o 1.017 0.920 0.00 1.02028 0.01
2 1 9 o 3.326 2.988 180.00 1.01838 0.05
4 1 8 o 16.987 15.218 180.00 1.01827 0.23
9 2 -5 o 0.119 0.114 0.00 1.02183 0.00
2 5 6 o 1.649 1.481 180.00 1.01738 0.02
5 6 -1 o 0.018 0.019 0.00 1.01557 0.00
2 6 4 o 0.855 0.919 180.00 1.01619 0.01
9 3 -3 o 0.571 0.565 180.00 1.01670 0.01
5 2 7 o 17.320 17.592 180.00 1.01411 0.21
7 5 -1 o 0.392 0.352 180.00 1.01279 0.00
10 1 -2 o 0.446 0.480 0.00 1.01578 0.00
7 5 -2 o 5.877 6.280 180.00 1.01140 0.06
5 6 0 o 9.542 10.435 180.00 1.01047 0.08
3 4 -8 o 0.026 0.023 0.00 1.01253 0.00
5 6 -2 o 5.439 6.025 0.00 1.01000 0.05
7 3 -7 o 4.584 4.396 0.00 1.01341 0.06
1 6 -5 o 0.606 0.661 180.00 1.01069 0.01
9 1 -6 o 1.697 1.645 0.00 1.01351 0.02
7 4 3 o 0.417 0.442 180.00 1.00682 0.00
10 1 -1 o 0.176 0.191 180.00 1.01090 0.00
9 3 0 o 0.431 0.607 180.00 1.00837 0.00
5 2 -9 o 0.577 0.632 180.00 1.01035 0.01
2 3 -9 o 6.001 7.419 0.00 1.00896 0.07
0 4 8 o 4.165 5.470 0.00 1.00866 0.05
10 1 -3 o 0.498 0.553 0.00 1.00997 0.00
4 6 -4 o 1.942 1.844 0.00 1.00477 0.02
2 6 -5 o 0.245 0.238 180.00 1.00580 0.00
7 5 0 o 0.922 0.852 180.00 1.00364 0.01
2 0 -10 o 0.178 0.195 180.00 1.00689 0.00
1 3 -9 o 1.128 1.087 180.00 1.00563 0.01
0 6 5 o 0.046 0.044 180.00 1.00546 0.00
10 0 0 o 1.254 1.241 0.00 1.00600 0.01
8 4 -4 o 1.896 1.809 180.00 1.00319 0.02
1 5 -7 o 0.518 0.495 180.00 1.00318 0.01
9 2 2 o 2.457 2.490 0.00 1.00243 0.02
2 5 -7 o 3.790 3.843 0.00 1.00242 0.04
5 5 4 o 1.254 1.297 180.00 0.99984 0.01
8 3 -6 o 1.964 1.819 180.00 1.00382 0.02
3 3 -9 o 10.742 10.982 0.00 1.00223 0.12
8 4 1 o 7.851 8.116 0.00 0.99985 0.08
6 1 -9 o 4.911 4.629 0.00 1.00447 0.07
7 5 -3 o 2.487 2.627 180.00 0.99959 0.03
1 0 -10 o 61.431 62.278 0.00 1.00156 0.37
8 2 -7 o 0.066 0.061 180.00 1.00399 0.00
3 4 7 o 2.059 2.259 0.00 0.99894 0.02
3 0 -10 o 0.795 0.812 180.00 1.00222 0.00
6 5 -5 o 0.085 0.089 0.00 0.99972 0.00
4 5 5 o 4.815 5.439 0.00 0.99808 0.05
10 0 -4 o 0.682 0.637 180.00 1.00416 0.00
8 3 3 o 9.078 10.387 180.00 0.99783 0.08
8 2 4 o 0.057 0.072 0.00 0.99667 0.00
5 5 -6 o 0.147 0.170 180.00 0.99758 0.00
5 6 1 o 0.100 0.115 180.00 0.99516 0.00
7 2 -8 o 0.009 0.009 0.00 1.00103 0.00
9 3 -4 o 0.584 0.648 0.00 0.99843 0.01
1 7 0 o 1.049 1.317 180.00 0.99666 0.01
0 7 1 o 0.176 0.221 180.00 0.99647 0.00
6 3 -8 o 1.140 1.271 0.00 0.99833 0.01
2 1 -10 o 4.437 5.545 0.00 0.99667 0.05
5 6 -3 o 9.890 10.767 180.00 0.99427 0.09
10 1 0 o 0.158 0.191 180.00 0.99580 0.00
1 7 -1 o 8.134 8.744 0.00 0.99358 0.07
7 4 -6 o 0.137 0.152 0.00 0.99469 0.00
0 5 7 o 4.736 5.137 0.00 0.99410 0.05
4 4 -8 o 0.315 0.340 180.00 0.99385 0.00
3 5 -7 o 0.001 0.001 180.00 0.99187 0.00
0 3 9 o 6.663 7.235 180.00 0.99252 0.07
3 6 -5 o 0.194 0.194 0.00 0.99121 0.00
6 4 -7 o 0.014 0.016 180.00 0.99220 0.00
1 6 5 o 0.251 0.259 180.00 0.99057 0.00
1 1 -10 o 0.382 0.392 0.00 0.99149 0.00
10 1 -4 o 7.178 7.779 0.00 0.99402 0.06
3 1 -10 o 3.536 3.821 0.00 0.99213 0.04
1 7 1 o 8.128 8.292 0.00 0.98966 0.07
9 1 3 o 4.077 4.170 180.00 0.98935 0.03
7 0 6 o 6.468 6.653 0.00 0.98883 0.03
4 2 8 o 0.009 0.009 180.00 0.98751 0.00
3 3 8 o 2.413 2.428 180.00 0.98731 0.03
6 5 3 o 2.810 3.237 0.00 0.98577 0.03
1 4 8 o 2.204 2.231 180.00 0.98776 0.02
2 2 9 o 0.462 0.465 180.00 0.98761 0.01
4 6 3 o 0.310 0.421 180.00 0.98479 0.00
7 5 1 o 0.136 0.185 180.00 0.98478 0.00
9 3 1 o 4.378 5.235 0.00 0.98538 0.04
4 0 -10 o 6.569 6.703 0.00 0.98794 0.04
0 0 10 o 3.628 3.847 180.00 0.98667 0.02
4 3 -9 o 0.912 1.030 180.00 0.98602 0.01
3 6 4 o 0.000 0.000 0.00 0.98349 0.00
10 2 -2 o 1.331 1.628 180.00 0.98523 0.01
2 7 0 o 0.005 0.006 0.00 0.98231 0.00
2 7 -1 o 13.836 13.939 180.00 0.98125 0.11
3 5 6 o 1.178 1.153 180.00 0.98075 0.01
0 7 2 o 0.010 0.011 180.00 0.98156 0.00
9 2 -6 o 4.371 5.801 0.00 0.98316 0.04
1 7 -2 o 0.816 0.802 0.00 0.98069 0.01
7 1 6 o 3.111 3.210 0.00 0.97914 0.03
10 2 -1 o 7.810 7.685 180.00 0.98078 0.06
8 0 -8 o 0.160 0.230 180.00 0.98407 0.00
7 5 -4 o 12.881 12.454 180.00 0.97842 0.13
6 1 7 o 1.432 1.617 0.00 0.97676 0.01
10 2 -3 o 1.638 1.759 180.00 0.97993 0.01
6 3 6 o 2.559 2.758 0.00 0.97439 0.02
3 1 9 o 0.754 0.857 180.00 0.97600 0.01
1 5 7 o 0.585 0.664 0.00 0.97594 0.01
0 1 10 o 1.855 2.000 180.00 0.97704 0.02
4 1 -10 o 0.143 0.138 0.00 0.97827 0.00
2 7 1 o 2.726 2.912 180.00 0.97374 0.02
6 4 5 o 0.009 0.012 0.00 0.97195 0.00
8 4 -5 o 0.311 0.333 0.00 0.97407 0.00
5 6 2 o 0.934 1.248 0.00 0.97098 0.01
1 7 2 o 1.568 1.675 0.00 0.97320 0.01
6 2 -9 o 1.174 1.294 0.00 0.97491 0.01
4 5 -7 o 4.684 5.477 180.00 0.97243 0.05
5 4 6 o 0.469 0.578 180.00 0.96998 0.00
8 4 2 o 0.208 0.255 180.00 0.96979 0.00
2 7 -2 o 3.524 4.575 0.00 0.97066 0.03
7 3 5 o 1.670 1.971 180.00 0.96914 0.01
5 6 -4 o 2.056 2.513 180.00 0.96974 0.02
8 1 -8 o 1.430 1.557 180.00 0.97452 0.02
1 3 9 o 0.387 0.505 180.00 0.97075 0.00
10 1 1 o 0.008 0.011 0.00 0.97179 0.00
9 3 -5 o 0.000 0.000 180.00 0.97154 0.00
5 0 8 o 4.977 5.715 0.00 0.96893 0.03
4 6 -5 o 6.700 7.229 180.00 0.96814 0.06
2 6 5 o 2.355 3.030 0.00 0.96725 0.02
8 1 5 o 0.468 0.681 0.00 0.96662 0.00
5 3 7 o 0.394 0.644 0.00 0.96490 0.00
6 6 -1 o 1.535 2.441 0.00 0.96482 0.01
10 2 0 o 0.075 0.102 180.00 0.96697 0.00
2 2 -10 o 0.152 0.172 0.00 0.96776 0.00
5 4 -8 o 0.121 0.161 0.00 0.96710 0.00
10 1 -5 o 0.461 0.552 0.00 0.96930 0.00
6 6 -2 o 0.000 0.062 0.00 0.96183 0.00
1 0 10 o 0.779 1.412 180.00 0.96347 0.00
1 2 -10 o 0.405 0.951 180.00 0.96302 0.00
10 2 -4 o 0.023 0.047 180.00 0.96534 0.00
5 0 -10 o 0.007 0.014 180.00 0.96524 0.00
9 1 -7 o 0.610 1.023 180.00 0.96633 0.01
3 2 -10 o 0.249 0.439 0.00 0.96361 0.00
9 2 3 o 0.011 0.083 180.00 0.96106 0.00
3 7 -1 o 0.205 0.438 180.00 0.96048 0.00
7 4 4 o 1.090 1.471 180.00 0.95936 0.01
5 1 8 o 0.260 0.407 0.00 0.95981 0.00
6 6 0 o 0.027 0.032 180.00 0.95867 0.00
3 7 0 o 0.481 0.728 180.00 0.95970 0.00
5 3 -9 o 0.000 0.978 0.00 0.96166 0.00
1 7 -3 o 1.428 1.808 180.00 0.95910 0.01
7 5 2 o 5.235 5.767 180.00 0.95778 0.05
2 4 8 o 0.925 1.222 0.00 0.95927 0.01
1 6 -6 o 0.002 0.002 180.00 0.95874 0.00
0 7 3 o 0.022 0.024 180.00 0.95814 0.00
6 5 -6 o 0.610 0.666 0.00 0.95807 0.01
2 6 -6 o 0.570 0.683 180.00 0.95631 0.00
2 7 2 o 0.511 0.612 0.00 0.95629 0.00
7 1 -9 o 0.112 0.324 180.00 0.96074 0.00
9 4 -2 o 0.433 0.470 180.00 0.95580 0.00
9 3 2 o 1.560 1.194 0.00 0.95482 0.01
8 3 -7 o 5.626 6.575 0.00 0.95617 0.05
4 4 7 o 2.190 1.549 180.00 0.95371 0.02
9 4 -1 o 0.219 0.164 180.00 0.95347 0.00
1 1 10 o 2.605 1.868 0.00 0.95450 0.03
7 2 6 o 1.369 1.303 180.00 0.95169 0.01
5 1 -10 o 1.043 1.224 180.00 0.95622 0.01
3 7 -2 o 7.489 7.148 180.00 0.95228 0.05
2 7 -3 o 5.561 5.270 0.00 0.95144 0.04
0 6 6 o 9.902 9.216 0.00 0.95253 0.08
7 3 -8 o 0.163 0.119 180.00 0.95361 0.00
8 3 4 o 3.841 3.704 180.00 0.94984 0.03
6 2 7 o 1.542 1.458 0.00 0.94951 0.01
2 5 7 o 3.465 3.376 0.00 0.95015 0.03
3 7 1 o 8.255 8.012 180.00 0.94998 0.06
6 6 -3 o 1.099 1.065 0.00 0.94993 0.01
7 5 -5 o 0.044 0.042 0.00 0.94962 0.00
5 5 5 o 1.717 1.936 180.00 0.94794 0.02
3 2 9 o 4.672 4.481 0.00 0.94881 0.05
0 2 10 o 1.014 0.976 0.00 0.94977 0.01
4 2 -10 o 0.034 0.032 180.00 0.95090 0.00
9 0 4 o 0.085 0.080 180.00 0.94943 0.00
9 4 -3 o 4.165 3.905 0.00 0.94923 0.03
1 7 3 o 1.854 1.827 180.00 0.94864 0.01
10 0 2 o 7.025 6.620 0.00 0.94935 0.02
8 5 -1 o 0.617 0.776 0.00 0.94529 0.01
4 6 4 o 0.534 0.671 0.00 0.94529 0.00
8 5 -2 o 0.591 0.679 180.00 0.94585 0.00
3 6 -6 o 1.297 1.575 180.00 0.94544 0.01
7 4 -7 o 0.372 0.436 180.00 0.94656 0.00
6 6 1 o 4.450 5.515 180.00 0.94387 0.03
5 5 -7 o 3.096 3.643 0.00 0.94563 0.03
8 2 -8 o 4.824 5.639 0.00 0.94745 0.05
6 5 4 o 4.018 4.402 0.00 0.94277 0.03
10 2 1 o 1.175 1.628 180.00 0.94494 0.01
9 4 0 o 0.179 0.198 0.00 0.94245 0.00
2 3 9 o 3.259 3.560 0.00 0.94198 0.03
4 3 8 o 3.895 4.234 180.00 0.94190 0.04
2 4 -9 o 0.232 0.255 180.00 0.94293 0.00
10 0 -6 o 8.002 9.211 180.00 0.94626 0.03
8 2 5 o 0.013 0.014 180.00 0.94018 0.00
5 6 3 o 0.712 0.705 180.00 0.93984 0.01
9 1 4 o 0.108 0.115 180.00 0.94084 0.00
4 5 6 o 0.181 0.174 180.00 0.93951 0.00
10 1 2 o 19.162 20.352 0.00 0.94076 0.13
10 2 -5 o 0.004 0.005 180.00 0.94265 0.00
1 4 -9 o 13.411 13.811 180.00 0.94020 0.11
10 3 -2 o 0.895 0.895 180.00 0.93992 0.01
5 6 -5 o 11.881 11.596 180.00 0.93834 0.10
8 5 -3 o 5.129 5.041 180.00 0.93783 0.04
8 4 -6 o 0.033 0.032 180.00 0.93873 0.00
8 5 0 o 2.424 2.535 0.00 0.93619 0.02
3 6 5 o 0.891 0.900 180.00 0.93726 0.01
1 6 6 o 0.522 0.511 180.00 0.93817 0.00
9 2 -7 o 4.000 4.007 0.00 0.93992 0.03
3 4 -9 o 0.701 0.702 0.00 0.93742 0.01
9 3 -6 o 3.593 3.520 0.00 0.93812 0.03
3 7 -3 o 9.710 9.971 0.00 0.93575 0.07
5 2 8 o 2.015 2.084 0.00 0.93391 0.02
2 5 -8 o 6.757 7.032 0.00 0.93608 0.06
10 3 -1 o 0.306 0.318 180.00 0.93606 0.00
8 4 3 o 2.802 2.896 180.00 0.93382 0.02
10 1 -6 o 0.494 0.488 0.00 0.93776 0.00
10 3 -3 o 4.949 5.018 0.00 0.93531 0.03
4 7 -1 o 6.402 6.323 180.00 0.93286 0.04
1 5 -8 o 3.796 3.832 180.00 0.93506 0.03
2 0 10 o 40.910 42.184 180.00 0.93369 0.22
3 7 2 o 4.110 4.016 0.00 0.93212 0.03
9 4 -4 o 2.713 2.795 0.00 0.93431 0.02
6 4 -8 o 1.142 1.178 0.00 0.93423 0.01
6 0 -10 o 0.816 0.840 180.00 0.93584 0.00
4 7 0 o 6.085 6.815 180.00 0.93051 0.04
2 7 3 o 1.127 1.240 180.00 0.93133 0.01
7 2 -9 o 1.368 1.389 0.00 0.93477 0.01
1 7 -4 o 10.041 11.203 0.00 0.93049 0.07
4 1 9 o 0.034 0.038 0.00 0.93043 0.00
6 6 -4 o 2.743 2.954 180.00 0.93008 0.02
11 0 -2 o 0.006 0.006 0.00 0.93319 0.00
6 3 -9 o 2.203 2.475 0.00 0.93094 0.02
0 4 9 o 0.299 0.307 180.00 0.92947 0.00
5 2 -10 o 0.383 0.428 0.00 0.93061 0.00
4 7 -2 o 10.434 9.731 0.00 0.92693 0.07
3 5 -8 o 0.362 0.367 0.00 0.92908 0.00
1 2 10 o 4.192 4.230 180.00 0.92902 0.04
4 6 -6 o 6.182 5.769 180.00 0.92695 0.05
0 7 4 o 0.422 0.399 180.00 0.92801 0.00
7 5 3 o 0.740 0.722 180.00 0.92466 0.01
2 1 10 o 10.968 10.790 180.00 0.92552 0.11
3 4 8 o 0.615 0.597 0.00 0.92519 0.01
2 7 -4 o 0.901 0.871 180.00 0.92507 0.01
0 5 8 o 0.765 0.742 0.00 0.92609 0.01
9 4 1 o 2.276 2.979 180.00 0.92359 0.02
6 1 -10 o 14.051 13.159 0.00 0.92761 0.15
10 3 0 o 0.891 1.001 0.00 0.92403 0.01
6 6 2 o 0.253 0.277 180.00 0.92160 0.00
2 3 -10 o 2.434 2.382 0.00 0.92472 0.02
4 4 -9 o 1.258 1.374 180.00 0.92412 0.01
11 1 -2 o 0.049 0.048 0.00 0.92504 0.00
8 5 -4 o 0.226 0.249 0.00 0.92185 0.00
10 3 -4 o 1.517 1.879 180.00 0.92260 0.01
4 7 1 o 2.537 2.551 180.00 0.92008 0.02
8 5 1 o 4.852 5.052 180.00 0.91925 0.04
9 0 -8 o 10.684 10.426 0.00 0.92511 0.05
3 3 -10 o 2.926 3.129 180.00 0.92109 0.02
9 3 3 o 6.012 6.288 180.00 0.91886 0.04
1 3 -10 o 2.115 2.131 180.00 0.92058 0.02
11 1 -3 o 6.057 7.003 0.00 0.92222 0.04
3 5 7 o 0.359 0.374 180.00 0.91854 0.00
1 7 4 o 11.045 10.671 0.00 0.91780 0.08
11 1 -1 o 0.028 0.029 0.00 0.91978 0.00
2 6 6 o 0.004 0.004 180.00 0.91674 0.00
9 2 4 o 6.574 6.664 180.00 0.91641 0.04
10 2 2 o 0.527 0.543 180.00 0.91634 0.00
11 0 -4 o 7.478 7.757 0.00 0.91934 0.02
6 4 6 o 2.888 2.962 180.00 0.91453 0.02
7 5 -6 o 0.345 0.382 0.00 0.91524 0.00
8 0 6 o 24.624 25.615 0.00 0.91476 0.08
4 5 -8 o 0.016 0.017 180.00 0.91458 0.00
7 6 -1 o 0.014 0.017 0.00 0.91337 0.00
4 7 -3 o 3.870 4.709 0.00 0.91319 0.02
9 1 -8 o 3.767 3.415 0.00 0.91716 0.03
7 6 -2 o 3.246 3.566 0.00 0.91235 0.02
6 5 -7 o 4.283 5.170 0.00 0.91330 0.04
3 7 -4 o 1.813 1.927 180.00 0.91215 0.01
7 4 5 o 35.520 34.937 0.00 0.91018 0.25
11 0 0 o 8.744 9.039 180.00 0.91454 0.03
7 1 7 o 13.643 13.646 180.00 0.91108 0.10
7 3 6 o 4.485 4.490 0.00 0.91067 0.03
10 2 -6 o 0.946 1.104 180.00 0.91356 0.01
8 1 -9 o 0.361 0.374 180.00 0.91460 0.00
9 4 -5 o 1.972 2.102 180.00 0.91217 0.01
6 0 8 o 8.988 8.988 180.00 0.91060 0.04
1 4 9 o 9.694 9.774 180.00 0.91152 0.08
1 5 8 o 4.071 3.887 0.00 0.90984 0.03
6 3 7 o 5.445 4.766 0.00 0.90875 0.04
4 3 -10 o 4.516 4.366 180.00 0.90997 0.04
7 6 0 o 0.940 0.951 0.00 0.90665 0.01
3 7 3 o 0.309 0.317 180.00 0.90745 0.00
8 1 6 o 1.440 1.492 180.00 0.90707 0.01
3 3 9 o 1.553 1.507 180.00 0.90814 0.01
11 1 -4 o 2.127 2.150 180.00 0.91154 0.01
4 2 9 o 0.021 0.021 0.00 0.90679 0.00
0 3 10 o 0.671 0.586 0.00 0.90898 0.01
5 4 7 o 0.529 0.536 180.00 0.90666 0.00
2 1 -11 o 0.090 0.092 180.00 0.90745 0.00
1 6 -7 o 13.746 13.130 180.00 0.90631 0.10
5 6 4 o 7.640 6.516 0.00 0.90384 0.05
2 6 -7 o 1.496 1.285 180.00 0.90574 0.01
11 1 0 o 0.559 0.572 0.00 0.90686 0.00
10 1 3 o 0.377 0.306 180.00 0.90482 0.00
10 3 1 o 0.005 0.004 180.00 0.90474 0.00
7 6 -3 o 6.414 5.521 180.00 0.90365 0.05
8 3 -8 o 5.418 5.560 180.00 0.90695 0.05
6 1 8 o 4.449 3.987 180.00 0.90301 0.04
6 6 -5 o 1.793 1.536 0.00 0.90375 0.01
4 6 5 o 0.333 0.307 0.00 0.90254 0.00
4 7 2 o 0.309 0.288 180.00 0.90235 0.00
3 1 -11 o 7.059 5.867 0.00 0.90551 0.06
5 4 -9 o 0.633 0.536 0.00 0.90397 0.01
2 2 10 o 1.162 1.085 180.00 0.90224 0.01
5 6 -6 o 0.585 0.547 0.00 0.90217 0.00
6 2 -10 o 0.045 0.038 180.00 0.90417 0.00
8 3 5 o 0.001 0.000 0.00 0.90057 0.00
10 3 -5 o 2.665 2.430 0.00 0.90274 0.02
5 7 -1 o 15.535 13.854 0.00 0.90019 0.09
1 1 -11 o 5.245 4.878 0.00 0.90206 0.04
11 2 -2 o 4.417 4.021 180.00 0.90179 0.02
2 7 4 o 1.527 1.320 0.00 0.90063 0.01
6 5 5 o 0.750 0.713 0.00 0.89743 0.01
9 4 2 o 9.830 10.183 180.00 0.89829 0.06
3 0 10 o 14.456 14.952 0.00 0.89923 0.07
8 5 -5 o 1.391 1.451 180.00 0.89910 0.01
5 7 0 o 2.105 2.000 0.00 0.89663 0.01
0 6 7 o 0.095 0.093 0.00 0.89959 0.00
8 4 -7 o 0.136 0.138 180.00 0.89941 0.00
7 0 -10 o 8.370 7.497 180.00 0.90163 0.04
9 3 -7 o 0.218 0.193 0.00 0.90034 0.00
5 5 6 o 3.831 3.563 0.00 0.89588 0.03
3 6 -7 o 1.319 1.324 0.00 0.89794 0.01
10 1 -7 o 0.916 0.809 180.00 0.90148 0.01
8 5 2 o 0.287 0.267 0.00 0.89573 0.00
5 7 -2 o 4.037 3.812 0.00 0.89631 0.02
11 2 -3 o 0.573 0.592 0.00 0.89918 0.00
1 7 -5 o 0.100 0.095 0.00 0.89679 0.00
8 4 4 o 2.585 2.551 0.00 0.89413 0.02
7 4 -8 o 7.641 7.222 0.00 0.89728 0.06
5 3 8 o 1.119 1.061 0.00 0.89505 0.01
11 2 -1 o 8.792 8.284 0.00 0.89692 0.05
6 6 3 o 1.970 1.983 0.00 0.89341 0.01
7 6 1 o 7.315 7.040 0.00 0.89267 0.05
4 1 -11 o 8.725 8.262 180.00 0.89638 0.07
4 7 -4 o 10.060 9.664 180.00 0.89265 0.06
5 5 -8 o 6.093 6.122 0.00 0.89361 0.05
7 3 -9 o 4.362 4.072 180.00 0.89581 0.04
2 7 -5 o 0.111 0.112 0.00 0.89337 0.00
9 2 -8 o 0.005 0.005 0.00 0.89448 0.00
0 7 5 o 9.426 9.380 0.00 0.89313 0.06
3 1 10 o 0.015 0.014 0.00 0.89193 0.00
9 1 5 o 0.014 0.013 0.00 0.89146 0.00
5 3 -10 o 0.449 0.410 180.00 0.89214 0.00
3 6 6 o 0.251 0.264 180.00 0.88967 0.00
1 3 10 o 0.490 0.509 0.00 0.89075 0.00
7 1 -10 o 4.503 4.399 180.00 0.89427 0.04
11 1 -5 o 8.095 8.079 0.00 0.89380 0.04
7 2 7 o 22.307 23.011 0.00 0.88884 0.15
8 2 -9 o 1.326 1.211 0.00 0.89212 0.01
7 5 4 o 0.425 0.367 180.00 0.88749 0.00
7 6 -4 o 6.394 5.721 180.00 0.88792 0.04
4 4 8 o 0.016 0.014 0.00 0.88750 0.00
0 1 11 o 2.439 2.558 180.00 0.88972 0.02
5 7 1 o 0.050 0.048 180.00 0.88589 0.00
2 4 9 o 0.240 0.210 0.00 0.88757 0.00
2 5 8 o 7.203 6.239 180.00 0.88742 0.05
11 2 -4 o 9.531 10.020 180.00 0.88927 0.05
5 7 -3 o 0.036 0.035 0.00 0.88526 0.00
8 2 6 o 0.003 0.003 0.00 0.88512 0.00
11 1 1 o 0.624 0.542 0.00 0.88721 0.00
1 6 7 o 3.931 3.736 180.00 0.88607 0.03
10 4 -2 o 4.755 4.510 180.00 0.88585 0.03
9 5 -2 o 0.274 0.286 0.00 0.88467 0.00
5 1 9 o 28.130 29.264 0.00 0.88381 0.22
2 2 -11 o 0.136 0.130 0.00 0.88547 0.00
3 7 -5 o 0.005 0.005 0.00 0.88310 0.00
4 5 7 o 2.026 2.066 180.00 0.88302 0.01
9 5 -1 o 4.439 4.522 0.00 0.88283 0.03
11 2 0 o 1.424 1.445 0.00 0.88493 0.01
4 6 -7 o 0.007 0.007 0.00 0.88344 0.00
9 4 -6 o 1.094 1.146 0.00 0.88434 0.01
10 2 3 o 14.338 14.612 0.00 0.88303 0.07
1 7 5 o 6.718 6.835 0.00 0.88264 0.04
10 4 -1 o 0.185 0.188 180.00 0.88261 0.00
3 2 -11 o 2.016 2.084 0.00 0.88367 0.01
6 2 8 o 0.107 0.092 180.00 0.88135 0.00
10 4 -3 o 5.433 5.304 180.00 0.88199 0.03
9 3 4 o 0.188 0.163 0.00 0.87961 0.00
4 7 3 o 1.705 1.649 0.00 0.87855 0.01
10 3 2 o 0.269 0.234 0.00 0.87955 0.00
9 5 -3 o 1.252 1.089 0.00 0.87946 0.01
1 2 -11 o 5.405 4.461 180.00 0.88046 0.04
3 7 4 o 5.226 5.659 180.00 0.87762 0.03
5 1 -11 o 1.180 0.973 180.00 0.88070 0.01
10 2 -7 o 0.182 0.156 180.00 0.87993 0.00
7 5 -7 o 1.080 1.216 0.00 0.87733 0.01
6 4 -9 o 6.172 6.146 180.00 0.87832 0.05
0 8 0 o 2.286 2.273 180.00 0.87639 0.01
10 3 -6 o 0.850 0.943 0.00 0.87709 0.00
9 5 0 o 2.066 1.892 0.00 0.87405 0.01
7 6 2 o 1.079 0.971 180.00 0.87241 0.01
2 5 -9 o 1.588 1.462 0.00 0.87443 0.01
4 2 -11 o 0.165 0.175 180.00 0.87518 0.00
6 6 -6 o 5.260 4.864 0.00 0.87263 0.04
10 4 0 o 1.480 1.347 180.00 0.87250 0.01
11 0 -6 o 4.888 5.285 180.00 0.87699 0.01
2 4 -10 o 0.230 0.222 0.00 0.87309 0.00
1 8 0 o 2.731 2.638 0.00 0.87308 0.02
0 8 1 o 2.942 2.815 0.00 0.87295 0.02
10 0 4 o 21.207 19.646 180.00 0.87264 0.05
1 5 -9 o 1.900 1.691 180.00 0.87226 0.01
4 3 9 o 5.763 5.414 180.00 0.87109 0.04
3 2 10 o 1.115 1.051 180.00 0.87103 0.01
1 8 -1 o 11.544 10.898 180.00 0.87101 0.06
9 2 5 o 4.843 4.586 180.00 0.87060 0.02
10 4 -4 o 0.180 0.166 0.00 0.87130 0.00
1 1 11 o 5.002 4.624 0.00 0.87127 0.04
8 5 -6 o 3.808 3.577 0.00 0.87108 0.03
7 2 -10 o 1.797 1.736 180.00 0.87321 0.01
5 7 2 o 0.023 0.024 180.00 0.86870 0.00
11 2 -5 o 1.940 1.824 180.00 0.87278 0.01
9 4 3 o 2.032 1.946 180.00 0.86815 0.01
3 5 -9 o 0.194 0.182 180.00 0.87004 0.00
3 4 -10 o 3.331 3.124 0.00 0.87003 0.02
1 4 -10 o 0.036 0.036 0.00 0.86960 0.00
8 5 3 o 0.118 0.120 180.00 0.86716 0.00
0 2 11 o 0.180 0.190 180.00 0.86898 0.00
5 7 -4 o 0.402 0.386 0.00 0.86781 0.00
1 8 1 o 0.122 0.120 180.00 0.86837 0.00
4 7 -5 o 1.386 1.485 0.00 0.86667 0.01
2 6 7 o 1.613 1.731 180.00 0.86663 0.01
6 3 -10 o 2.973 3.098 0.00 0.86877 0.02
11 0 2 o 0.005 0.005 0.00 0.86871 0.00
9 5 -4 o 1.128 1.109 0.00 0.86755 0.01
6 5 -8 o 0.335 0.331 0.00 0.86749 0.00
7 6 -5 o 3.448 3.698 0.00 0.86623 0.02
2 7 5 o 0.141 0.149 180.00 0.86603 0.00
5 6 5 o 7.488 7.557 180.00 0.86495 0.05
2 3 10 o 0.064 0.066 180.00 0.86705 0.00
11 3 -2 o 1.444 1.544 0.00 0.86666 0.01
11 1 -6 o 3.138 2.944 180.00 0.87021 0.02
11 2 1 o 3.578 3.833 180.00 0.86664 0.02
6 7 -1 o 0.481 0.472 0.00 0.86428 0.00
10 1 4 o 8.150 8.582 0.00 0.86596 0.03
10 0 -8 o 4.528 4.723 180.00 0.86905 0.01
8 6 -2 o 0.282 0.274 0.00 0.86337 0.00
8 6 -1 o 3.391 3.179 0.00 0.86294 0.02
5 2 9 o 21.424 20.880 0.00 0.86347 0.15
2 8 0 o 0.630 0.611 180.00 0.86338 0.00
9 1 -9 o 0.992 0.954 180.00 0.86800 0.01
5 6 -7 o 0.125 0.120 180.00 0.86320 0.00
6 7 -2 o 4.010 3.474 0.00 0.86213 0.02
2 8 -1 o 3.721 3.381 180.00 0.86267 0.02
0 5 9 o 7.874 7.710 180.00 0.86367 0.05
1 8 -2 o 1.514 1.326 0.00 0.86229 0.01
7 4 6 o 1.288 1.126 180.00 0.86123 0.01
11 3 -3 o 5.355 5.266 180.00 0.86434 0.03
6 6 4 o 0.611 0.548 180.00 0.86102 0.00
4 0 10 o 2.997 2.586 180.00 0.86193 0.01
0 8 2 o 2.067 1.925 180.00 0.86288 0.01
11 3 -1 o 0.112 0.099 180.00 0.86233 0.00
11 1 2 o 11.654 10.127 180.00 0.86212 0.06
6 7 0 o 0.826 0.815 180.00 0.85985 0.00
6 4 7 o 0.003 0.002 0.00 0.85961 0.00
3 5 8 o 0.129 0.126 0.00 0.86023 0.00
9 5 1 o 23.559 23.631 180.00 0.85895 0.14
1 7 -6 o 0.647 0.637 0.00 0.85990 0.00
8 0 -10 o 0.558 0.551 0.00 0.86447 0.00
4 6 6 o 0.005 0.005 0.00 0.85854 0.00
4 4 -10 o 2.876 2.699 0.00 0.86064 0.02
3 4 9 o 0.984 0.984 180.00 0.85909 0.01
0 4 10 o 0.169 0.167 180.00 0.85981 0.00
5 2 -11 o 4.450 4.206 180.00 0.86056 0.03
4 5 -9 o 0.283 0.281 0.00 0.85937 0.00
2 7 -6 o 11.545 11.530 0.00 0.85815 0.06
9 3 -8 o 0.917 0.894 0.00 0.86017 0.01
10 1 -8 o 1.634 1.457 180.00 0.86245 0.01
2 8 1 o 0.932 0.933 180.00 0.85755 0.00
8 6 -3 o 0.448 0.458 180.00 0.85725 0.00
1 8 2 o 2.734 2.816 180.00 0.85718 0.01
8 6 0 o 4.705 4.889 0.00 0.85600 0.03
10 4 1 o 0.007 0.007 0.00 0.85622 0.00
7 3 7 o 9.012 8.086 0.00 0.85514 0.05
6 1 -11 o 1.224 1.210 0.00 0.85946 0.01
2 6 -8 o 0.237 0.244 0.00 0.85592 0.00
8 4 -8 o 0.919 0.918 180.00 0.85808 0.01
8 3 -9 o 0.475 0.474 180.00 0.85806 0.00
4 1 10 o 0.217 0.213 0.00 0.85549 0.00
2 8 -2 o 0.067 0.065 180.00 0.85545 0.00
7 0 8 o 18.580 17.970 180.00 0.85542 0.06
1 6 -8 o 0.814 0.725 180.00 0.85514 0.00
8 1 -10 o 2.015 2.012 180.00 0.85797 0.02
6 7 -3 o 1.419 0.844 180.00 0.85353 0.01
0 7 6 o 2.584 2.482 0.00 0.85541 0.01
8 4 5 o 0.554 0.423 180.00 0.85268 0.00
10 4 -5 o 0.701 0.487 180.00 0.85452 0.00
11 3 -4 o 8.835 8.649 180.00 0.85553 0.04
8 3 6 o 2.969 2.643 0.00 0.85183 0.02
6 5 6 o 10.134 9.244 180.00 0.85164 0.06
12 0 -2 o 2.383 2.102 0.00 0.85513 0.01
4 7 4 o 2.000 1.753 180.00 0.85016 0.01
2 3 -11 o 12.605 10.580 0.00 0.85214 0.07
8 1 7 o 6.679 6.198 180.00 0.85092 0.04
1 2 11 o 3.465 3.099 180.00 0.85176 0.02
11 3 0 o 0.415 0.376 0.00 0.85166 0.00
3 6 -8 o 1.903 1.725 180.00 0.85056 0.01
3 7 -6 o 0.261 0.231 180.00 0.85026 0.00
9 4 -7 o 2.380 1.880 180.00 0.85248 0.01
6 7 1 o 1.438 1.151 180.00 0.84913 0.01
10 3 3 o 6.293 5.416 0.00 0.84997 0.03
6 3 8 o 0.793 0.672 0.00 0.84847 0.00
3 3 -11 o 0.375 0.339 0.00 0.85054 0.00
7 5 5 o 3.854 3.408 0.00 0.84813 0.02
7 1 8 o 0.010 0.008 0.00 0.84912 0.00
9 0 6 o 0.790 0.635 0.00 0.84906 0.00
5 4 8 o 15.692 14.061 180.00 0.84799 0.10
3 8 0 o 1.760 1.587 180.00 0.84791 0.01
9 5 -5 o 7.274 6.125 0.00 0.84974 0.04
3 8 -1 o 0.861 0.731 0.00 0.84846 0.00
7 6 3 o 11.335 10.815 0.00 0.84716 0.06
1 5 9 o 0.491 0.396 0.00 0.84921 0.00
2 1 11 o 0.085 0.078 180.00 0.84783 0.00
7 4 -9 o 0.039 0.032 180.00 0.84863 0.00
1 8 -3 o 0.204 0.189 0.00 0.84750 0.00
11 2 -6 o 0.355 0.325 180.00 0.85077 0.00
5 7 3 o 1.431 1.422 0.00 0.84619 0.01
0 6 8 o 0.006 0.006 180.00 0.84826 0.00
10 2 4 o 2.490 2.408 0.00 0.84680 0.01
12 1 -2 o 0.044 0.036 180.00 0.84884 0.00
1 3 -11 o 8.815 8.084 180.00 0.84768 0.05
5 5 7 o 22.536 23.310 180.00 0.84528 0.13
0 8 3 o 0.278 0.268 0.00 0.84684 0.00
2 8 2 o 2.031 2.125 0.00 0.84556 0.01
9 2 -9 o 1.147 0.948 180.00 0.84871 0.01
5 7 -5 o 6.665 6.713 180.00 0.84509 0.04
8 6 -4 o 0.324 0.321 180.00 0.84500 0.00
10 3 -7 o 0.007 0.007 180.00 0.84720 0.00
12 1 -3 o 0.026 0.023 180.00 0.84788 0.00
5 4 -10 o 1.605 1.669 180.00 0.84551 0.01
3 7 5 o 0.141 0.119 180.00 0.84430 0.00
8 6 1 o 1.913 1.536 0.00 0.84300 0.01
1 7 6 o 0.010 0.010 0.00 0.84497 0.00
3 8 -2 o 3.728 2.923 0.00 0.84278 0.02
12 0 -4 o 0.700 0.673 0.00 0.84686 0.00
1 4 10 o 0.079 0.067 180.00 0.84432 0.00
11 2 2 o 1.831 1.496 0.00 0.84321 0.01
9 1 6 o 0.234 0.186 0.00 0.84290 0.00
3 6 7 o 4.366 3.363 0.00 0.84245 0.03
3 8 1 o 0.279 0.196 0.00 0.84119 0.00
2 8 -3 o 1.224 0.942 180.00 0.84220 0.01
5 5 -9 o 0.057 0.046 0.00 0.84310 0.00
4 3 -11 o 0.246 0.196 0.00 0.84296 0.00
12 1 -1 o 0.872 0.711 180.00 0.84357 0.00
1 8 3 o 0.006 0.004 0.00 0.84026 0.00
10 2 -8 o 1.774 1.450 180.00 0.84352 0.01
6 7 -4 o 1.045 0.878 0.00 0.83904 0.01
7 6 -6 o 1.145 0.797 0.00 0.83990 0.01
9 3 5 o 0.052 0.044 180.00 0.83886 0.00
9 5 2 o 0.746 0.627 0.00 0.83848 0.00
4 6 -8 o 0.433 0.338 180.00 0.83939 0.00
3 3 10 o 6.203 5.018 180.00 0.83925 0.04
7 3 -10 o 1.272 0.901 0.00 0.84120 0.01
11 1 -7 o 0.169 0.130 0.00 0.84219 0.00
6 1 9 o 0.635 0.482 0.00 0.83769 0.00
11 3 -5 o 1.144 0.820 0.00 0.84081 0.01
6 2 -11 o 1.183 0.851 180.00 0.84072 0.01
6 6 -7 o 1.534 1.271 180.00 0.83840 0.01
8 5 -7 o 0.080 0.063 180.00 0.83939 0.00
12 1 -4 o 1.340 0.964 0.00 0.84075 0.01
4 2 10 o 4.200 3.648 0.00 0.83700 0.03
4 7 -6 o 4.355 4.044 180.00 0.83675 0.02
7 5 -8 o 0.001 0.001 180.00 0.83766 0.00
0 3 11 o 0.080 0.063 0.00 0.83741 0.00
2 0 -12 o 8.319 6.988 180.00 0.83852 0.02
8 5 4 o 0.610 0.626 0.00 0.83510 0.00
12 0 0 o 5.150 4.215 180.00 0.83833 0.01
3 0 -12 o 7.277 5.797 0.00 0.83817 0.02
8 2 -10 o 1.939 1.537 0.00 0.83933 0.01
9 4 4 o 7.310 7.581 0.00 0.83482 0.03
10 4 2 o 0.566 0.585 180.00 0.83477 0.00
11 3 1 o 13.161 13.085 0.00 0.83532 0.06
6 7 2 o 0.133 0.136 0.00 0.83280 0.00
1 6 8 o 1.469 1.375 0.00 0.83572 0.01
8 2 7 o 4.764 4.908 180.00 0.83272 0.02
5 3 9 o 0.109 0.114 0.00 0.83248 0.00
3 8 -3 o 5.738 5.436 0.00 0.83126 0.02
7 2 8 o 7.196 6.782 0.00 0.83104 0.04
1 0 -12 o 2.685 2.604 0.00 0.83309 0.01
11 1 3 o 1.953 1.912 0.00 0.83304 0.01
10 4 -6 o 0.523 0.540 0.00 0.83267 0.00
2 1 -12 o 0.032 0.033 180.00 0.83258 0.00
12 1 0 o 0.876 0.917 0.00 0.83240 0.00
7 1 -11 o 0.057 0.053 0.00 0.83390 0.00
3 1 -12 o 0.937 0.980 0.00 0.83224 0.01
4 0 -12 o 23.068 23.861 180.00 0.83207 0.07
12 2 -2 o 0.511 0.495 180.00 0.83077 0.00
8 6 2 o 0.000 0.000 180.00 0.82475 0.00
10 5 -1 o 0.326 0.257 180.00 0.82569 0.00
9 2 6 o 0.995 0.778 0.00 0.82520 0.00
4 8 -2 o 1.973 1.535 180.00 0.82506 0.01
5 6 6 o 5.097 3.927 180.00 0.82486 0.03
10 5 -3 o 4.731 3.698 180.00 0.82518 0.02
6 4 -10 o 5.336 4.203 180.00 0.82554 0.03
2 4 10 o 0.820 0.654 180.00 0.82406 0.00
2 8 -4 o 21.960 17.815 0.00 0.82375 0.10
7 7 0 o 0.987 0.864 180.00 0.82172 0.00
11 4 -2 o 1.938 1.573 180.00 0.82372 0.01
5 0 10 o 1.601 1.299 0.00 0.82335 0.00
5 6 -8 o 0.364 0.298 180.00 0.82309 0.00
11 2 -7 o 5.664 4.382 0.00 0.82453 0.03
1 3 11 o 0.062 0.053 180.00 0.82197 0.00
11 4 -3 o 1.358 1.189 0.00 0.82173 0.01
1 7 -7 o 0.396 0.352 180.00 0.82147 0.00
6 2 9 o 0.146 0.129 180.00 0.82031 0.00
4 8 1 o 0.355 0.316 180.00 0.82022 0.00
0 0 12 o 10.226 8.687 180.00 0.82223 0.03
6 5 -9 o 0.617 0.526 180.00 0.82217 0.00
2 7 -7 o 6.942 6.165 180.00 0.82105 0.03
12 2 -4 o 11.274 9.197 0.00 0.82318 0.04
3 1 11 o 0.459 0.403 0.00 0.82067 0.00
5 7 4 o 1.183 1.174 0.00 0.81963 0.01
6 7 -5 o 2.163 2.173 180.00 0.81956 0.01
7 7 -3 o 1.808 1.844 180.00 0.81949 0.01
7 6 4 o 2.980 3.086 180.00 0.81830 0.01
11 4 -1 o 6.473 5.937 0.00 0.82001 0.03
4 7 5 o 2.859 3.018 180.00 0.81866 0.01
5 7 -6 o 3.958 4.110 0.00 0.81838 0.02
10 1 -9 o 0.986 0.835 0.00 0.82231 0.01
11 3 -6 o 4.965 4.416 180.00 0.82108 0.02
5 1 10 o 25.380 25.386 0.00 0.81773 0.15
1 8 4 o 6.166 6.476 180.00 0.81860 0.03
10 3 4 o 1.924 1.907 180.00 0.81751 0.01
10 5 0 o 0.285 0.284 180.00 0.81740 0.00
5 0 -12 o 2.845 2.507 0.00 0.82058 0.01
2 6 8 o 0.754 0.778 180.00 0.81825 0.00
2 5 -10 o 1.629 1.648 0.00 0.81788 0.01
9 6 -2 o 2.104 2.217 0.00 0.81609 0.01
9 4 -8 o 2.336 2.400 180.00 0.81814 0.01
9 3 -9 o 2.882 3.027 180.00 0.81923 0.02
9 1 -10 o 5.394 4.823 180.00 0.82026 0.03
10 5 -4 o 0.003 0.003 0.00 0.81641 0.00
4 8 -3 o 0.536 0.508 0.00 0.81533 0.00
11 2 3 o 0.028 0.029 180.00 0.81594 0.00
7 4 7 o 0.174 0.270 0.00 0.81382 0.00
9 5 3 o 1.859 2.889 180.00 0.81382 0.01
4 6 7 o 0.030 0.031 180.00 0.81479 0.00
9 6 -1 o 0.925 1.003 180.00 0.81464 0.00
3 8 -4 o 0.942 1.051 0.00 0.81459 0.00
0 1 12 o 0.117 0.128 0.00 0.81663 0.00
0 7 7 o 0.206 0.227 180.00 0.81645 0.00
3 5 -10 o 2.739 2.613 180.00 0.81536 0.01
8 4 -9 o 1.211 1.317 180.00 0.81633 0.01
3 7 -7 o 1.953 1.851 180.00 0.81522 0.01
1 5 -10 o 0.513 0.496 0.00 0.81501 0.00
12 1 1 o 4.018 4.187 180.00 0.81603 0.02
7 2 -11 o 0.200 0.215 180.00 0.81675 0.00
2 2 -12 o 2.436 2.357 0.00 0.81551 0.01
11 3 2 o 0.051 0.068 180.00 0.81428 0.00
12 2 0 o 1.804 1.722 180.00 0.81534 0.01
3 2 -12 o 6.159 5.883 180.00 0.81519 0.03
6 7 3 o 2.021 2.294 180.00 0.81182 0.01
7 7 1 o 0.234 0.255 180.00 0.81127 0.00
11 0 -8 o 0.374 0.406 180.00 0.81665 0.00
11 4 -4 o 1.525 2.155 0.00 0.81415 0.01
9 6 -3 o 3.632 4.218 180.00 0.81199 0.02
8 4 6 o 9.302 10.328 0.00 0.81096 0.04
5 1 -12 o 1.630 1.588 0.00 0.81502 0.01
10 3 -8 o 1.599 1.813 0.00 0.81456 0.01
3 8 3 o 1.552 1.696 0.00 0.81124 0.01
12 0 -6 o 0.005 0.005 180.00 0.81558 0.00
2 4 -11 o 0.474 0.518 180.00 0.81123 0.00
6 3 -11 o 1.175 1.374 180.00 0.81204 0.01
11 4 0 o 3.192 3.572 0.00 0.81081 0.01
10 4 3 o 4.927 5.292 180.00 0.80935 0.02
7 6 -7 o 5.280 5.686 0.00 0.81031 0.03
10 2 5 o 8.041 8.993 180.00 0.80920 0.03
7 5 6 o 0.858 0.979 180.00 0.80811 0.00
3 7 6 o 1.722 2.019 180.00 0.80901 0.01
3 4 -11 o 0.673 0.684 180.00 0.80985 0.00
4 3 10 o 0.204 0.256 0.00 0.80869 0.00
1 2 -12 o 1.615 1.786 0.00 0.81052 0.01
6 4 8 o 0.223 0.251 180.00 0.80806 0.00
12 2 -5 o 1.522 1.673 0.00 0.81112 0.01
6 5 7 o 2.523 1.872 180.00 0.80677 0.01
9 6 0 o 0.547 0.560 180.00 0.80773 0.00
7 7 -4 o 0.853 0.867 180.00 0.80770 0.00
4 8 2 o 1.718 1.692 0.00 0.80758 0.01
8 3 -10 o 0.573 0.640 180.00 0.81078 0.00
4 2 -12 o 1.501 1.550 0.00 0.80957 0.01
2 6 -9 o 0.455 0.506 0.00 0.80803 0.00
11 1 -8 o 1.422 1.561 0.00 0.81117 0.01
4 5 -10 o 0.016 0.016 0.00 0.80762 0.00
2 8 4 o 0.054 0.039 0.00 0.80635 0.00
1 4 -11 o 0.015 0.014 0.00 0.80737 0.00
3 5 9 o 2.800 2.049 0.00 0.80634 0.01
5 8 -1 o 0.963 0.740 0.00 0.80604 0.00
12 1 -6 o 3.353 3.521 0.00 0.81012 0.01
11 0 4 o 1.953 1.443 180.00 0.80667 0.00
1 0 12 o 0.753 0.549 0.00 0.80654 0.00
1 6 -9 o 3.506 2.579 180.00 0.80632 0.02
1 7 7 o 3.413 2.518 0.00 0.80630 0.02
10 4 -7 o 0.028 0.022 0.00 0.80696 0.00
8 3 7 o 0.316 0.291 180.00 0.80482 0.00
0 5 10 o 0.018 0.014 180.00 0.80693 0.00
8 5 -8 o 7.957 6.619 180.00 0.80550 0.04
5 8 0 o 0.670 0.865 0.00 0.80348 0.00
8 6 -6 o 0.167 0.141 180.00 0.80539 0.00
4 7 -7 o 0.504 0.537 0.00 0.80432 0.00
8 0 8 o 1.019 1.211 180.00 0.80401 0.00
10 5 1 o 0.047 0.057 0.00 0.80396 0.00
3 6 -9 o 1.721 1.697 0.00 0.80456 0.01
7 3 8 o 0.025 0.032 0.00 0.80330 0.00
3 2 11 o 0.425 0.455 180.00 0.80431 0.00
8 6 3 o 7.300 8.551 0.00 0.80228 0.03
5 8 -2 o 0.002 0.003 180.00 0.80324 0.00
10 2 -9 o 0.732 0.585 180.00 0.80585 0.00
9 6 -4 o 0.245 0.290 180.00 0.80259 0.00
1 8 -5 o 0.112 0.143 0.00 0.80359 0.00
8 1 -11 o 2.408 2.067 180.00 0.80529 0.02
8 5 5 o 0.004 0.005 0.00 0.80103 0.00
5 2 10 o 0.002 0.003 180.00 0.80154 0.00
10 5 -5 o 1.457 1.720 0.00 0.80255 0.01
6 6 -8 o 0.743 0.877 0.00 0.80254 0.00
4 4 -11 o 7.793 9.911 0.00 0.80330 0.04
2 3 11 o 1.710 2.002 180.00 0.80220 0.01
2 8 -5 o 0.001 0.001 0.00 0.80112 0.00
6 0 -12 o 3.274 3.428 180.00 0.80437 0.01
12 3 -2 o 1.942 2.418 180.00 0.80306 0.01
9 4 5 o 0.006 0.005 180.00 0.79975 0.00
9 2 -10 o 0.011 0.013 180.00 0.80392 0.00
4 8 -4 o 0.693 0.844 180.00 0.80061 0.00
11 1 4 o 5.690 6.977 0.00 0.80138 0.02
1 1 12 o 0.852 1.070 180.00 0.80126 0.00
12 3 -3 o 1.557 1.823 0.00 0.80225 0.01
3 4 10 o 1.576 1.543 0.00 0.80009 0.01
0 8 5 o 0.159 0.206 180.00 0.80095 0.00
9 5 -7 o 0.355 0.456 180.00 0.80086 0.00
7 4 -10 o 0.798 0.932 180.00 0.80177 0.00
11 4 -5 o 1.227 1.488 0.00 0.80144 0.00
12 2 1 o 0.343 0.327 0.00 0.79994 0.00
8 1 8 o 8.447 8.770 180.00 0.79877 0.04
12 0 2 o 2.331 2.745 180.00 0.80054 0.00
0 2 12 o 1.622 1.885 0.00 0.80050 0.01
9 3 6 o 0.121 0.128 180.00 0.79803 0.00
12 3 -1 o 9.332 9.598 180.00 0.79859 0.04
0 6 9 o 2.926 2.836 180.00 0.79952 0.01
5 5 8 o 0.266 0.312 0.00 0.79714 0.00
7 7 2 o 0.014 0.017 0.00 0.79597 0.00
5 2 -12 o 0.293 0.304 0.00 0.79898 0.00
3 6 8 o 1.749 2.147 0.00 0.79678 0.01
9 6 1 o 0.030 0.036 180.00 0.79577 0.00
5 8 1 o 2.141 2.650 180.00 0.79572 0.01
11 4 1 o 7.593 9.378 0.00 0.79667 0.03
7 5 -9 o 0.645 0.701 0.00 0.79767 0.00
0 4 11 o 1.725 1.770 0.00 0.79849 0.01
9 1 7 o 1.359 1.662 0.00 0.79627 0.01
6 7 -6 o 0.362 0.440 0.00 0.79614 0.00
6 1 -12 o 0.310 0.318 180.00 0.79913 0.00
11 3 -7 o 3.236 3.627 0.00 0.79742 0.01
5 8 -3 o 0.061 0.084 180.00 0.79526 0.00
4 6 -9 o 9.301 11.282 0.00 0.79610 0.05
12 1 2 o 1.639 2.187 180.00 0.79537 0.01
5 4 9 o 12.173 14.207 180.00 0.79421 0.06
12 3 -4 o 0.081 0.098 180.00 0.79620 0.00
5 5 -10 o 0.154 0.220 180.00 0.79508 0.00
3 8 -5 o 2.044 2.120 0.00 0.79369 0.01
6 3 9 o 1.914 1.976 0.00 0.79360 0.01
7 1 9 o 1.321 1.663 180.00 0.79313 0.01
1 5 10 o 0.005 0.005 180.00 0.79409 0.00
1 8 5 o 0.081 0.090 180.00 0.79336 0.00
11 2 -8 o 2.613 3.476 180.00 0.79536 0.01
2 7 7 o 0.221 0.320 0.00 0.79158 0.00
5 7 5 o 0.984 1.133 180.00 0.79030 0.00
7 7 -5 o 2.361 3.171 180.00 0.79127 0.01
12 2 -6 o 1.327 1.632 0.00 0.79437 0.00
4 1 11 o 1.211 1.548 180.00 0.79103 0.01
6 6 6 o 3.056 3.079 180.00 0.78995 0.01
4 8 3 o 0.716 0.844 0.00 0.79039 0.00
8 7 -2 o 0.841 0.597 180.00 0.78909 0.00
5 4 -11 o 0.186 0.277 180.00 0.79195 0.00
10 0 6 o 27.022 33.702 0.00 0.79082 0.04
8 7 -1 o 0.611 0.433 0.00 0.78876 0.00
3 8 4 o 0.727 0.658 180.00 0.78971 0.00
11 3 3 o 2.812 2.468 180.00 0.78964 0.01
5 7 -7 o 0.265 0.187 180.00 0.78896 0.00
9 6 -5 o 0.105 0.074 0.00 0.78843 0.00
6 7 4 o 0.130 0.091 180.00 0.78730 0.00
7 3 -11 o 0.150 0.174 180.00 0.79038 0.00
2 3 -12 o 0.194 0.145 0.00 0.78925 0.00
7 6 5 o 1.284 0.986 180.00 0.78714 0.01
12 3 0 o 0.611 0.439 180.00 0.78910 0.00
3 3 -12 o 0.319 0.226 0.00 0.78896 0.00
9 5 4 o 0.160 0.187 0.00 0.78617 0.00
10 5 2 o 0.438 0.507 0.00 0.78612 0.00
1 6 9 o 0.488 0.318 0.00 0.78800 0.00
8 2 -11 o 1.175 1.112 0.00 0.78981 0.01
11 2 4 o 2.173 2.498 180.00 0.78613 0.01
5 6 7 o 0.483 0.434 0.00 0.78486 0.00
10 1 6 o 5.793 6.236 180.00 0.78584 0.02
2 0 12 o 3.062 2.876 0.00 0.78686 0.01
13 0 -2 o 1.097 0.787 180.00 0.78896 0.00
4 7 6 o 4.194 4.122 0.00 0.78540 0.02
8 7 -3 o 1.048 0.986 180.00 0.78441 0.00
12 1 -7 o 2.406 1.687 180.00 0.78835 0.01
1 2 12 o 0.521 0.581 180.00 0.78600 0.00
6 0 10 o 1.014 0.919 180.00 0.78470 0.00
8 7 0 o 0.021 0.022 180.00 0.78345 0.00
5 8 2 o 0.494 0.562 180.00 0.78319 0.00
1 4 11 o 0.157 0.145 0.00 0.78507 0.00
1 3 -12 o 0.639 0.581 0.00 0.78473 0.00
8 2 8 o 0.697 0.686 180.00 0.78366 0.00
10 3 5 o 2.847 2.889 0.00 0.78352 0.01
2 7 -8 o 0.007 0.007 180.00 0.78339 0.00
10 5 -6 o 0.774 0.732 0.00 0.78437 0.00
12 3 -5 o 4.329 4.154 0.00 0.78527 0.01
10 0 -10 o 0.821 0.603 180.00 0.78726 0.00
1 7 -8 o 0.018 0.023 180.00 0.78279 0.00
5 8 -4 o 0.093 0.125 180.00 0.78254 0.00
11 4 -6 o 0.279 0.266 0.00 0.78430 0.00
10 4 4 o 0.181 0.222 0.00 0.78118 0.00
5 6 -9 o 1.906 2.233 180.00 0.78312 0.01
13 1 -2 o 0.534 0.517 180.00 0.78402 0.00
6 2 -12 o 0.077 0.074 180.00 0.78399 0.00
4 3 -12 o 0.015 0.014 180.00 0.78387 0.00
4 8 -5 o 0.163 0.165 180.00 0.78170 0.00
9 2 7 o 0.200 0.239 0.00 0.78129 0.00
2 8 5 o 0.006 0.007 0.00 0.78123 0.00
13 0 -4 o 0.097 0.092 0.00 0.78439 0.00
7 0 -12 o 0.060 0.057 180.00 0.78427 0.00
13 1 -3 o 2.542 2.437 180.00 0.78423 0.01
6 8 -1 o 1.224 1.266 180.00 0.77995 0.00
2 1 12 o 0.232 0.223 0.00 0.78195 0.00
9 4 -9 o 0.097 0.129 0.00 0.78268 0.00
9 6 2 o 0.203 0.221 0.00 0.77941 0.00
4 5 9 o 0.011 0.011 0.00 0.78007 0.00
6 1 10 o 0.049 0.052 0.00 0.77984 0.00
12 2 2 o 8.572 9.055 0.00 0.78045 0.03
6 8 -2 o 0.743 1.082 0.00 0.77837 0.00
7 2 9 o 0.510 0.747 180.00 0.77833 0.00
3 7 -8 o 0.264 0.295 180.00 0.77927 0.00
8 6 -7 o 0.053 0.055 0.00 0.78014 0.00
10 1 -10 o 0.188 0.216 180.00 0.78234 0.00
3 3 11 o 11.526 13.542 180.00 0.77908 0.06
10 3 -9 o 0.045 0.048 0.00 0.78049 0.00
11 4 2 o 0.140 0.203 180.00 0.77836 0.00
7 6 -8 o 0.034 0.045 0.00 0.77875 0.00
6 8 0 o 1.257 1.429 0.00 0.77669 0.00
8 6 4 o 0.017 0.019 180.00 0.77669 0.00
7 7 3 o 0.458 0.516 180.00 0.77666 0.00
6 5 -10 o 0.333 0.476 0.00 0.77840 0.00
2 5 10 o 1.364 1.725 0.00 0.77716 0.01
11 5 -2 o 1.270 1.524 180.00 0.77688 0.00
13 1 -1 o 0.001 0.001 180.00 0.77890 0.00
1 8 -6 o 0.414 0.476 180.00 0.77673 0.00
1 9 0 o 0.121 0.137 0.00 0.77669 0.00
9 3 -10 o 0.527 0.693 0.00 0.77873 0.00
5 3 10 o 0.093 0.103 180.00 0.77657 0.00
10 4 -8 o 0.127 0.173 180.00 0.77860 0.00
0 7 8 o 5.176 6.963 0.00 0.77750 0.02
4 2 11 o 0.327 0.351 0.00 0.77634 0.00
13 1 -4 o 8.859 9.564 0.00 0.77953 0.03
7 1 -12 o 0.147 0.160 0.00 0.77941 0.00
0 9 1 o 2.577 2.866 0.00 0.77660 0.01
2 8 -6 o 0.301 0.268 180.00 0.77543 0.00
6 4 -11 o 0.176 0.191 0.00 0.77640 0.00
1 9 -1 o 1.557 1.364 0.00 0.77523 0.01
11 5 -3 o 0.002 0.001 0.00 0.77521 0.00
11 1 -9 o 0.068 0.095 0.00 0.77845 0.00
12 3 1 o 5.915 5.219 0.00 0.77511 0.02
8 7 -4 o 0.044 0.039 0.00 0.77499 0.00
0 3 12 o 1.567 1.481 0.00 0.77562 0.01
8 7 1 o 5.756 6.311 0.00 0.77344 0.02
11 5 -1 o 2.341 2.540 180.00 0.77376 0.01
4 4 10 o 0.210 0.230 180.00 0.77347 0.00
1 9 1 o 0.406 0.433 0.00 0.77336 0.00
8 4 -10 o 1.467 1.298 180.00 0.77530 0.01
3 7 7 o 5.616 5.329 0.00 0.77302 0.02
6 8 -3 o 0.624 0.642 180.00 0.77202 0.00
0 8 6 o 0.280 0.302 180.00 0.77341 0.00
2 6 9 o 0.165 0.149 0.00 0.77238 0.00
4 6 8 o 2.398 2.182 0.00 0.77233 0.01
5 3 -12 o 1.514 1.486 180.00 0.77424 0.01
13 0 0 o 4.363 4.608 0.00 0.77385 0.01
9 1 -11 o 0.423 0.396 180.00 0.77479 0.00
10 2 6 o 12.896 14.036 180.00 0.77143 0.04
10 6 -2 o 4.280 4.520 180.00 0.77124 0.02
9 5 -8 o 0.109 0.104 0.00 0.77219 0.00
8 4 7 o 0.883 0.945 0.00 0.77009 0.00
7 7 -6 o 0.156 0.159 0.00 0.77105 0.00
4 7 -8 o 2.368 2.402 0.00 0.77066 0.01
12 2 -7 o 0.245 0.260 180.00 0.77381 0.00
4 8 4 o 0.458 0.471 0.00 0.76952 0.00
12 1 3 o 1.643 1.785 0.00 0.77144 0.00
9 6 -6 o 0.060 0.064 180.00 0.77025 0.00
10 6 -1 o 5.660 5.677 180.00 0.76910 0.02
6 7 -7 o 0.004 0.005 180.00 0.76989 0.00
2 9 0 o 0.830 0.876 180.00 0.76984 0.00
6 8 1 o 2.678 2.650 180.00 0.76876 0.01
7 4 8 o 0.772 0.764 0.00 0.76876 0.00
8 5 -9 o 0.122 0.124 0.00 0.77067 0.00
3 8 -6 o 2.334 2.418 180.00 0.76960 0.01
7 5 7 o 0.742 0.722 180.00 0.76855 0.00
2 9 -1 o 0.250 0.254 180.00 0.76933 0.00
1 9 -2 o 0.080 0.080 0.00 0.76906 0.00
11 5 -4 o 0.000 0.000 0.00 0.76883 0.00
11 3 -8 o 1.137 1.155 180.00 0.77094 0.00
10 6 -3 o 3.689 3.632 0.00 0.76869 0.01
0 9 2 o 0.469 0.481 0.00 0.76948 0.00
11 1 5 o 3.031 2.912 180.00 0.76838 0.01
12 3 -6 o 0.499 0.529 180.00 0.77004 0.00
2 1 -13 o 0.464 0.461 180.00 0.76892 0.00
2 4 11 o 4.399 3.962 0.00 0.76779 0.02
13 2 -3 o 0.145 0.153 180.00 0.76991 0.00
2 2 12 o 0.070 0.063 0.00 0.76776 0.00
13 2 -2 o 0.237 0.247 0.00 0.76971 0.00
5 8 3 o 1.457 1.239 180.00 0.76658 0.00
12 4 -2 o 0.333 0.324 180.00 0.76854 0.00
3 1 -13 o 2.641 2.724 0.00 0.76957 0.01
8 5 6 o 3.138 2.985 180.00 0.76615 0.01
13 1 0 o 0.042 0.042 180.00 0.76917 0.00
13 1 -5 o 0.053 0.056 180.00 0.77017 0.00
12 4 -3 o 2.155 1.957 0.00 0.76783 0.01
1 7 8 o 0.851 0.769 0.00 0.76781 0.00
6 2 10 o 0.023 0.022 180.00 0.76575 0.00
6 6 -9 o 0.165 0.153 180.00 0.76626 0.00
11 5 0 o 0.994 0.955 180.00 0.76602 0.00
10 5 3 o 0.237 0.204 180.00 0.76479 0.00
5 8 -5 o 0.002 0.002 0.00 0.76576 0.00
2 9 1 o 0.080 0.075 0.00 0.76569 0.00
1 8 6 o 20.390 19.035 0.00 0.76567 0.07
1 9 2 o 1.625 1.464 0.00 0.76543 0.01
2 5 -11 o 1.040 0.937 180.00 0.76637 0.00
3 8 5 o 0.460 0.402 0.00 0.76517 0.00
9 4 6 o 0.505 0.486 0.00 0.76413 0.00
10 2 -10 o 0.834 0.788 0.00 0.76813 0.00
6 5 8 o 0.578 0.548 0.00 0.76370 0.00
12 4 -1 o 1.033 0.900 0.00 0.76462 0.00
2 9 -2 o 0.797 0.757 180.00 0.76419 0.00
3 5 -11 o 2.227 1.957 0.00 0.76521 0.01
3 0 12 o 3.406 3.282 0.00 0.76411 0.01
13 2 -1 o 7.511 6.490 180.00 0.76487 0.02
8 3 -11 o 0.295 0.281 0.00 0.76589 0.00
12 0 -8 o 3.195 3.030 0.00 0.76820 0.01
4 1 -13 o 2.434 2.288 180.00 0.76574 0.01
10 6 0 o 0.404 0.401 0.00 0.76239 0.00
13 2 -4 o 0.117 0.105 180.00 0.76546 0.00
7 2 -12 o 0.114 0.102 0.00 0.76535 0.00
1 5 -11 o 2.644 2.408 0.00 0.76312 0.01
1 1 -13 o 6.778 6.547 180.00 0.76384 0.03
2 6 -10 o 0.150 0.144 180.00 0.76278 0.00
11 4 -7 o 0.862 0.803 180.00 0.76360 0.00
11 3 4 o 1.814 1.815 180.00 0.76253 0.01
6 8 -4 o 2.559 2.110 0.00 0.76125 0.01
10 5 -7 o 3.172 3.061 180.00 0.76277 0.01
10 6 -4 o 0.054 0.041 0.00 0.76159 0.00
12 4 -4 o 0.625 0.620 0.00 0.76253 0.00
1 3 12 o 0.466 0.461 180.00 0.76241 0.00
8 7 -5 o 0.659 0.530 0.00 0.76132 0.00
6 7 5 o 0.483 0.533 180.00 0.76031 0.00
8 3 8 o 0.102 0.113 180.00 0.76028 0.00
6 4 9 o 3.784 4.208 0.00 0.76024 0.02
11 2 -9 o 1.987 1.785 0.00 0.76445 0.01
3 6 -10 o 0.960 0.969 0.00 0.76074 0.00
9 6 3 o 10.053 11.920 180.00 0.75948 0.04
1 6 -10 o 3.388 3.641 0.00 0.76045 0.01
12 1 -8 o 1.404 1.315 180.00 0.76363 0.00
5 7 6 o 0.295 0.349 0.00 0.75937 0.00
8 7 2 o 0.035 0.041 180.00 0.75928 0.00
3 9 -1 o 2.569 3.065 180.00 0.75920 0.01
5 1 11 o 0.289 0.331 180.00 0.76001 0.00
3 9 0 o 1.569 1.951 180.00 0.75881 0.00
3 1 12 o 0.664 0.784 180.00 0.75961 0.00
4 8 -6 o 0.009 0.011 180.00 0.75953 0.00
9 3 7 o 3.345 3.568 0.00 0.75811 0.01
9 2 -11 o 1.061 0.983 180.00 0.76098 0.01
4 5 -11 o 1.247 1.466 180.00 0.75967 0.01
1 9 -3 o 0.994 1.185 180.00 0.75851 0.00
6 3 -12 o 1.183 1.237 0.00 0.76058 0.01
5 7 -8 o 0.093 0.101 0.00 0.75798 0.00
8 0 -12 o 0.002 0.001 0.00 0.76121 0.00
13 0 -6 o 3.142 2.777 0.00 0.76110 0.00
12 2 3 o 0.646 0.726 180.00 0.75780 0.00
11 4 3 o 0.363 0.433 0.00 0.75676 0.00
9 5 5 o 1.156 1.409 0.00 0.75667 0.00
6 8 2 o 0.138 0.172 180.00 0.75658 0.00
7 5 -10 o 0.083 0.095 180.00 0.75838 0.00
12 3 2 o 4.023 4.749 180.00 0.75734 0.01
2 9 2 o 1.748 2.034 0.00 0.75712 0.01
11 5 -5 o 0.938 1.008 0.00 0.75810 0.00
0 9 3 o 0.063 0.067 180.00 0.75804 0.00
3 5 10 o 0.411 0.478 0.00 0.75696 0.00
9 0 8 o 3.803 4.730 180.00 0.75656 0.01
7 3 9 o 0.467 0.461 0.00 0.75540 0.00
7 4 -11 o 0.802 0.947 0.00 0.75741 0.00
12 4 0 o 0.233 0.291 0.00 0.75628 0.00
7 7 4 o 3.424 3.912 180.00 0.75424 0.01
3 9 -2 o 0.471 0.486 0.00 0.75513 0.00
7 6 6 o 1.738 1.898 0.00 0.75483 0.01
5 1 -13 o 0.048 0.056 180.00 0.75763 0.00
2 4 -12 o 2.733 3.432 180.00 0.75642 0.01
3 4 -12 o 0.527 0.637 180.00 0.75616 0.00
11 5 1 o 0.311 0.360 0.00 0.75406 0.00
3 2 -13 o 0.354 0.409 0.00 0.75602 0.00
3 9 1 o 0.300 0.350 180.00 0.75398 0.00
11 2 5 o 0.011 0.012 0.00 0.75490 0.00
6 6 7 o 0.126 0.152 180.00 0.75374 0.00
2 9 -3 o 0.418 0.464 180.00 0.75471 0.00
13 2 0 o 0.366 0.374 180.00 0.75565 0.00
0 5 11 o 0.496 0.503 180.00 0.75561 0.00
13 2 -5 o 0.525 0.643 180.00 0.75660 0.00
4 6 -10 o 1.090 1.236 0.00 0.75444 0.00
2 2 -13 o 0.882 0.880 180.00 0.75541 0.00
13 1 1 o 0.011 0.011 180.00 0.75533 0.00
2 7 8 o 1.925 2.208 180.00 0.75420 0.01
2 8 6 o 0.452 0.534 0.00 0.75388 0.00
4 3 11 o 0.392 0.481 0.00 0.75359 0.00
0 1 13 o 0.003 0.003 180.00 0.75457 0.00
8 1 -12 o 0.004 0.005 180.00 0.75676 0.00
9 7 -2 o 0.040 0.044 180.00 0.75251 0.00
13 1 -6 o 0.296 0.359 0.00 0.75666 0.00
3 6 9 o 7.970 9.783 0.00 0.75339 0.03
1 9 3 o 3.848 4.661 180.00 0.75331 0.01
9 1 8 o 0.024 0.035 180.00 0.75219 0.00
7 8 -1 o 0.001 0.002 0.00 0.75201 0.00
5 5 9 o 0.288 0.517 0.00 0.75197 0.00
0 6 10 o 0.126 0.150 180.00 0.75387 0.00
8 6 -8 o 0.715 0.746 180.00 0.75271 0.00
4 7 7 o 0.044 0.104 180.00 0.75148 0.00
1 4 -12 o 1.433 1.678 0.00 0.75243 0.01
10 6 1 o 0.324 0.782 180.00 0.75145 0.00
7 8 -2 o 0.012 0.030 0.00 0.75144 0.00
9 7 -1 o 0.133 0.329 0.00 0.75137 0.00
10 4 5 o 0.740 1.831 0.00 0.75137 0.00
12 4 -5 o 0.234 0.251 0.00 0.75291 0.00
8 1 9 o 0.553 1.364 180.00 0.75078 0.00
4 2 -13 o 0.422 0.511 0.00 0.75239 0.00
8 6 5 o 0.013 0.064 180.00 0.74905 0.00
4 4 -12 o 0.025 0.055 180.00 0.75167 0.00
10 6 -5 o 0.376 1.511 0.00 0.75030 0.00
9 7 -3 o 0.184 0.593 0.00 0.74929 0.00
10 3 6 o 0.185 0.813 180.00 0.74909 0.00
1 2 -13 o 0.307 0.853 0.00 0.75059 0.00
7 8 0 o 0.203 1.508 0.00 0.74824 0.00
12 3 -7 o 0.301 0.733 180.00 0.75127 0.00
5 5 -11 o 0.355 1.562 180.00 0.75005 0.00
9 6 -7 o 0.099 0.650 0.00 0.74892 0.00
12 0 4 o 1.162 3.580 0.00 0.74951 0.00
12 2 -8 o 0.405 1.370 180.00 0.75039 0.00
1 8 -7 o 0.074 0.284 180.00 0.74805 0.00
7 7 -7 o 0.014 0.046 180.00 0.74797 0.00
5 2 11 o 0.072 0.148 180.00 0.74695 0.00
7 0 10 o 2.357 4.887 0.00 0.74688 0.00
3 9 -3 o 0.004 0.009 180.00 0.74680 0.00
2 8 -7 o 0.232 0.549 0.00 0.74773 0.00
10 4 -9 o 0.003 0.032 180.00 0.74869 0.00
5 8 4 o 0.118 0.251 0.00 0.74666 0.00
6 8 -5 o 0.008 0.017 180.00 0.74661 0.00
7 8 -3 o 0.228 0.484 0.00 0.74656 0.00
3 4 11 o 0.117 0.245 180.00 0.74745 0.00
9 7 0 o 4.195 7.498 0.00 0.74594 0.01
4 8 5 o 0.697 1.241 0.00 0.74593 0.00
5 6 8 o 0.730 1.265 0.00 0.74587 0.00
10 1 7 o 4.279 8.972 0.00 0.74680 0.01
5 8 -6 o 0.331 0.538 180.00 0.74572 0.00
13 3 -3 o 0.218 0.508 0.00 0.74770 0.00
3 2 12 o 0.014 0.030 180.00 0.74658 0.00
13 3 -2 o 0.422 0.903 0.00 0.74752 0.00
4 9 -1 o 0.056 0.083 0.00 0.74533 0.00
7 6 -9 o 0.170 0.344 180.00 0.74631 0.00
5 4 10 o 2.342 3.430 0.00 0.74523 0.01
2 7 -9 o 0.010 0.019 0.00 0.74617 0.00
11 0 -10 o 0.246 0.783 0.00 0.74936 0.00
9 4 -10 o 0.010 0.021 0.00 0.74714 0.00
3 9 2 o 1.894 2.648 180.00 0.74495 0.01
2 3 12 o 0.668 1.093 0.00 0.74573 0.00
12 1 4 o 1.533 2.262 0.00 0.74526 0.00
4 9 0 o 0.002 0.003 180.00 0.74413 0.00
6 3 10 o 1.399 1.708 0.00 0.74389 0.01
1 7 -9 o 0.650 0.888 0.00 0.74482 0.00
2 9 3 o 0.014 0.018 0.00 0.74455 0.00
1 5 11 o 3.658 4.661 0.00 0.74420 0.01
5 6 -10 o 0.037 0.047 180.00 0.74418 0.00
1 9 -4 o 1.957 2.464 0.00 0.74412 0.01
8 7 -6 o 2.108 2.640 180.00 0.74409 0.01
10 3 -10 o 0.174 0.325 0.00 0.74606 0.00
12 4 1 o 0.138 0.170 0.00 0.74394 0.00
5 2 -13 o 0.082 0.110 0.00 0.74470 0.00
7 1 10 o 0.863 1.393 0.00 0.74268 0.00
8 7 3 o 0.629 1.744 180.00 0.74164 0.00
11 5 -6 o 0.787 0.945 180.00 0.74354 0.00
6 1 -13 o 0.007 0.011 0.00 0.74564 0.00
3 7 -9 o 1.108 1.329 0.00 0.74344 0.00
1 6 10 o 3.401 4.118 180.00 0.74337 0.01
0 4 12 o 0.573 0.746 0.00 0.74439 0.00
3 8 -7 o 3.045 3.697 0.00 0.74332 0.01
4 9 -2 o 1.561 2.768 180.00 0.74230 0.00
0 8 7 o 1.008 1.294 0.00 0.74426 0.00
9 7 -4 o 0.059 0.123 0.00 0.74188 0.00
0 9 4 o 1.534 2.262 180.00 0.74285 0.00
6 8 3 o 1.338 3.042 180.00 0.74075 0.00
13 3 -4 o 0.516 0.623 0.00 0.74362 0.00
13 2 1 o 0.333 0.567 180.00 0.74252 0.00
7 3 -12 o 0.264 0.318 180.00 0.74352 0.00
7 8 1 o 0.021 0.022 0.00 0.74032 0.00
5 4 -12 o 0.114 0.145 0.00 0.74317 0.00
13 3 -1 o 2.122 2.786 180.00 0.74308 0.01
10 5 4 o 0.200 0.604 0.00 0.74089 0.00
11 1 -10 o 0.333 0.483 180.00 0.74512 0.00
6 7 -8 o 0.091 0.195 180.00 0.74184 0.00
8 2 -12 o 0.491 0.605 0.00 0.74387 0.00
13 2 -6 o 0.063 0.077 180.00 0.74378 0.00
1 1 13 o 0.104 0.296 0.00 0.74157 0.00
2 9 -4 o 0.074 0.260 0.00 0.74134 0.00
13 0 2 o 0.016 0.029 0.00 0.74217 0.00
9 5 -9 o 0.000 0.001 180.00 0.74216 0.00
0 2 13 o 0.002 0.005 180.00 0.74179 0.00
11 3 -9 o 0.003 0.005 180.00 0.74269 0.00
9 2 8 o 1.865 1.906 0.00 0.73953 0.01
10 1 -11 o 2.018 2.468 0.00 0.74342 0.01
4 9 1 o 0.667 0.917 0.00 0.73877 0.00
3 8 6 o 0.198 0.276 0.00 0.73861 0.00
11 5 2 o 0.154 0.216 180.00 0.73848 0.00
11 4 -8 o 0.414 0.419 180.00 0.74025 0.00
4 0 12 o 2.063 2.546 0.00 0.73919 0.00
8 2 9 o 3.118 4.444 180.00 0.73819 0.01
11 0 6 o 1.108 1.412 180.00 0.73910 0.00
9 6 4 o 0.089 0.109 0.00 0.73686 0.00
10 6 2 o 0.033 0.042 0.00 0.73682 0.00
7 8 -4 o 0.085 0.114 0.00 0.73761 0.00
12 4 -6 o 3.126 3.372 180.00 0.73945 0.01
0 7 9 o 0.666 0.718 180.00 0.73945 0.00
9 7 1 o 2.434 3.765 0.00 0.73648 0.01
3 7 8 o 0.000 0.000 0.00 0.73729 0.00
10 5 -8 o 0.001 0.001 180.00 0.73869 0.00
1 9 4 o 0.408 0.537 180.00 0.73759 0.00
12 3 3 o 0.756 1.079 180.00 0.73660 0.00
9 3 -11 o 0.336 0.352 0.00 0.73951 0.00
13 1 2 o 1.771 2.559 180.00 0.73805 0.00
4 7 -9 o 0.040 0.052 180.00 0.73675 0.00
1 8 7 o 0.431 0.630 180.00 0.73655 0.00
13 1 -7 o 0.000 0.000 180.00 0.73964 0.00
4 9 -3 o 0.063 0.061 180.00 0.73519 0.00
4 8 -7 o 1.122 1.030 0.00 0.73504 0.00
6 5 -11 o 0.966 1.217 180.00 0.73681 0.00
3 9 -4 o 3.795 3.206 180.00 0.73464 0.01
10 2 7 o 0.166 0.131 0.00 0.73441 0.00
10 6 -6 o 1.724 1.875 0.00 0.73538 0.01
4 5 10 o 0.085 0.065 180.00 0.73430 0.00
4 1 12 o 0.736 0.694 180.00 0.73512 0.00
11 1 6 o 0.653 0.598 180.00 0.73503 0.00
11 3 5 o 0.638 0.455 0.00 0.73393 0.00
8 5 -10 o 0.043 0.066 180.00 0.73587 0.00
8 4 -11 o 0.804 1.150 0.00 0.73577 0.00
13 3 0 o 0.224 0.188 0.00 0.73462 0.00
13 3 -5 o 5.406 6.362 180.00 0.73549 0.01
2 3 -13 o 0.029 0.022 0.00 0.73440 0.00
3 3 -13 o 0.780 0.704 180.00 0.73496 0.00
11 4 4 o 0.142 0.087 180.00 0.73279 0.00
6 7 6 o 2.707 1.452 0.00 0.73186 0.01
12 1 -9 o 0.292 0.349 180.00 0.73695 0.00
8 5 7 o 0.567 0.360 0.00 0.73141 0.00
3 9 3 o 1.773 0.915 0.00 0.73218 0.01
12 2 4 o 0.886 0.546 0.00 0.73295 0.00
9 0 -12 o 0.298 0.465 0.00 0.73610 0.00
4 6 9 o 0.001 0.001 0.00 0.73183 0.00
8 4 8 o 0.054 0.039 180.00 0.73079 0.00
1 4 12 o 0.202 0.121 0.00 0.73269 0.00
6 2 -13 o 8.248 5.066 180.00 0.73331 0.03
7 5 8 o 0.007 0.005 0.00 0.73026 0.00
9 7 -5 o 0.295 0.219 180.00 0.73065 0.00
7 7 5 o 4.983 4.453 0.00 0.72963 0.02
7 2 10 o 0.004 0.003 0.00 0.73049 0.00
9 4 7 o 0.309 0.256 180.00 0.72887 0.00
11 2 -10 o 3.099 1.895 180.00 0.73281 0.01
4 3 -13 o 1.550 0.907 0.00 0.73162 0.01
7 8 2 o 7.429 5.703 180.00 0.72865 0.02
4 9 2 o 3.098 2.858 180.00 0.72949 0.01
6 6 -10 o 0.514 0.388 180.00 0.73045 0.00
1 7 9 o 4.971 3.816 180.00 0.73032 0.02
11 6 -2 o 0.374 0.345 180.00 0.72920 0.00
14 0 -2 o 4.357 2.302 180.00 0.73220 0.01
12 5 -2 o 1.389 1.108 0.00 0.73008 0.00
6 4 -12 o 0.583 0.410 180.00 0.73106 0.00
1 3 -13 o 1.943 1.582 0.00 0.72997 0.01
9 1 -12 o 0.023 0.012 0.00 0.73207 0.00
6 8 -6 o 1.926 1.540 0.00 0.72878 0.01
2 9 4 o 1.479 1.113 0.00 0.72858 0.00
6 1 11 o 0.242 0.179 180.00 0.72852 0.00
12 5 -3 o 0.064 0.059 0.00 0.72947 0.00
2 5 11 o 0.106 0.098 0.00 0.72944 0.00
1 2 13 o 1.836 1.692 180.00 0.72943 0.01
2 6 10 o 1.274 1.178 180.00 0.72943 0.00
5 9 -1 o 0.186 0.132 0.00 0.72835 0.00
12 4 2 o 0.336 0.232 0.00 0.72818 0.00
10 2 -11 o 1.531 1.038 0.00 0.73120 0.01
11 6 -3 o 0.325 0.219 0.00 0.72781 0.00
5 7 7 o 1.133 0.764 0.00 0.72781 0.00
7 1 -13 o 5.773 4.415 0.00 0.73033 0.03
9 5 6 o 0.594 0.395 0.00 0.72629 0.00
14 0 -4 o 1.285 1.018 180.00 0.73010 0.00
12 5 -1 o 3.037 2.298 0.00 0.72672 0.01
12 3 -8 o 0.008 0.006 0.00 0.72978 0.00
5 3 11 o 3.616 2.690 0.00 0.72662 0.01
11 6 -1 o 2.588 1.924 180.00 0.72662 0.01
7 4 9 o 0.730 0.518 180.00 0.72646 0.00
5 9 0 o 0.790 0.561 0.00 0.72646 0.00
5 9 -2 o 1.460 0.968 0.00 0.72629 0.00
14 1 -2 o 1.206 0.843 0.00 0.72824 0.00
14 1 -3 o 1.318 1.186 0.00 0.72918 0.00
1 9 -5 o 2.319 1.686 180.00 0.72655 0.01
5 7 -9 o 0.122 0.085 180.00 0.72642 0.00
3 3 12 o 0.000 0.000 180.00 0.72627 0.00
5 8 5 o 3.579 1.885 0.00 0.72428 0.01
13 2 2 o 3.921 2.424 0.00 0.72608 0.01
7 8 -5 o 5.371 3.295 0.00 0.72503 0.02
11 5 -7 o 5.816 3.421 180.00 0.72583 0.02
4 4 11 o 3.371 2.007 0.00 0.72485 0.01
2 9 -5 o 0.184 0.107 0.00 0.72472 0.00
13 2 -7 o 5.901 3.982 180.00 0.72759 0.01
2 1 13 o 2.154 1.302 0.00 0.72542 0.01
9 7 2 o 0.044 0.023 0.00 0.72346 0.00
4 9 -4 o 1.112 0.593 180.00 0.72434 0.00
9 6 -8 o 1.031 0.632 180.00 0.72532 0.00
2 8 7 o 0.377 0.233 180.00 0.72527 0.00
8 8 -2 o 4.802 2.483 180.00 0.72335 0.01
8 7 -7 o 1.325 0.671 0.00 0.72404 0.00
8 8 -1 o 0.417 0.202 180.00 0.72310 0.00
12 5 -4 o 0.035 0.021 0.00 0.72492 0.00
0 9 5 o 0.431 0.243 180.00 0.72460 0.00
4 2 12 o 2.687 1.374 180.00 0.72329 0.01
5 8 -7 o 3.001 1.525 180.00 0.72325 0.01
7 6 7 o 1.780 0.575 0.00 0.72230 0.01
11 2 6 o 3.179 1.596 0.00 0.72320 0.01
14 1 -4 o 0.007 0.004 180.00 0.72617 0.00
8 6 -9 o 0.453 0.230 0.00 0.72405 0.00
6 5 9 o 0.868 0.388 0.00 0.72295 0.00
11 6 -4 o 5.558 1.957 0.00 0.72253 0.02
5 3 -13 o 1.266 0.707 180.00 0.72454 0.00
7 7 -8 o 0.915 0.406 180.00 0.72293 0.00
12 2 -9 o 6.228 3.786 180.00 0.72503 0.02
8 3 -12 o 0.555 0.279 0.00 0.72378 0.00
13 3 -6 o 0.544 0.275 0.00 0.72369 0.00
13 3 1 o 1.163 0.412 180.00 0.72253 0.00
14 1 -1 o 1.397 0.715 0.00 0.72337 0.00
12 4 -7 o 0.107 0.044 0.00 0.72279 0.00
13 0 -8 o 0.003 0.002 180.00 0.72368 0.00
