#------------------------------------------------------------------------------
#$Date: 2021-02-05 16:52:16 +0200 (Fri, 05 Feb 2021) $
#$Revision: 261797 $
#$URL: file:///home/coder/svn-repositories/cod/cif/2/10/87/2108745.cif $
#------------------------------------------------------------------------------
#
# This file is available in the Crystallography Open Database (COD),
# http://www.crystallography.net/. The original data for this entry
# were provided by IUCr Journals, http://journals.iucr.org/.
#
# The file may be used within the scientific community so long as
# proper attribution is given to the journal article from which the
# data were obtained.
#
data_2108745
loop_
_publ_author_name
'\/Lawniczak, Pawe\/l'
'Pogorzelec-Glaser, Katarzyna'
'Pietraszko, Adam'
'Hilczer, Bo\.zena'
_publ_section_title
;
 Effect of disordered imidazole substructure on proton dynamics in
 imidazolium malonic acid salt
;
_journal_issue                   1
_journal_name_full               'Acta Crystallographica Section B'
_journal_page_first              31
_journal_page_last               40
_journal_paper_doi               10.1107/S2052520620014365
_journal_volume                  77
_journal_year                    2021
_chemical_formula_moiety         'C6 H5 O8, 3(C3 H5 N2)'
_chemical_formula_sum            'C7.5 H10 N3 O4'
_chemical_formula_weight         206.18
_space_group_crystal_system      triclinic
_space_group_IT_number           2
_space_group_name_Hall           '-P 1'
_space_group_name_H-M_alt        'P -1'
_atom_sites_solution_hydrogens   difmap
_audit_creation_method           SHELXL-2013
_cell_angle_alpha                115.79(3)
_cell_angle_beta                 103.12(3)
_cell_angle_gamma                91.91(3)
_cell_formula_units_Z            2
_cell_length_a                   7.2950(10)
_cell_length_b                   8.280(2)
_cell_length_c                   9.249(2)
_cell_measurement_reflns_used    4538
_cell_measurement_temperature    330(2)
_cell_measurement_theta_max      56.12
_cell_measurement_theta_min      4
_cell_volume                     484.3(2)
_computing_cell_refinement       'CrysAlis v171.33.42'
_computing_data_collection       'CrysAlis v171.33.42'
_computing_data_reduction        'CrysAlis v171.33.42'
_computing_molecular_graphics    'DIAMOND 3.2'
_computing_structure_refinement  'SHELXL-2013 (Sheldrick, 2013)'
_computing_structure_solution    'SHELXS-97 (Sheldrick, 1990)'
_diffrn_ambient_temperature      330(2)
_diffrn_measured_fraction_theta_full 0.993
_diffrn_measured_fraction_theta_max 0.922
_diffrn_measurement_device_type  'Xcalibur-Oxford Diffraction'
_diffrn_measurement_method       CCD
_diffrn_radiation_type           MoK\a
_diffrn_radiation_wavelength     0.71073
_diffrn_reflns_av_R_equivalents  0.0929
_diffrn_reflns_av_unetI/netI     0.0807
_diffrn_reflns_Laue_measured_fraction_full 0.993
_diffrn_reflns_Laue_measured_fraction_max 0.922
_diffrn_reflns_limit_h_max       8
_diffrn_reflns_limit_h_min       -9
_diffrn_reflns_limit_k_max       10
_diffrn_reflns_limit_k_min       -10
_diffrn_reflns_limit_l_max       11
_diffrn_reflns_limit_l_min       -11
_diffrn_reflns_number            4534
_diffrn_reflns_point_group_measured_fraction_full 0.993
_diffrn_reflns_point_group_measured_fraction_max 0.922
_diffrn_reflns_theta_full        25.242
_diffrn_reflns_theta_max         28.088
_diffrn_reflns_theta_min         2.900
_diffrn_source                   'fine-focus sealed tube'
_exptl_absorpt_coefficient_mu    0.116
_exptl_absorpt_correction_T_max  1.253
_exptl_absorpt_correction_T_min  0.9681
_exptl_absorpt_correction_type   numerical
_exptl_absorpt_process_details   'CrysAlis v171.33.42'
_exptl_crystal_colour            colorless
_exptl_crystal_density_diffrn    1.414
_exptl_crystal_density_meas      ?
_exptl_crystal_description       unshaped
_exptl_crystal_F_000             216
_exptl_crystal_size_max          0.34
_exptl_crystal_size_mid          0.32
_exptl_crystal_size_min          0.21
_refine_diff_density_max         0.171
_refine_diff_density_min         -0.197
_refine_diff_density_rms         0.047
_refine_ls_extinction_coef       0.114(3)
_refine_ls_extinction_expression Fc^*^=kFc[1+0.001xFc^2^\l^3^/sin(2\q)]^-1/4^
_refine_ls_extinction_method     SHELXL
_refine_ls_goodness_of_fit_ref   1.089
_refine_ls_hydrogen_treatment    refall
_refine_ls_matrix_type           full
_refine_ls_number_parameters     204
_refine_ls_number_reflns         2174
_refine_ls_number_restraints     6
_refine_ls_restrained_S_all      1.088
_refine_ls_R_factor_all          0.0849
_refine_ls_R_factor_gt           0.0498
_refine_ls_shift/su_max          0.085
_refine_ls_shift/su_mean         0.011
_refine_ls_structure_factor_coef Fsqd
_refine_ls_weighting_details
;
 w=1/[\s^2^(Fo^2^)+(0.0250P)^2^+0.0250P]
 where P=(Fo^2^+2Fc^2^)/3
;
_refine_ls_weighting_scheme      calc
_refine_ls_wR_factor_gt          0.1048
_refine_ls_wR_factor_ref         0.1162
_reflns_Friedel_coverage         0.000
_reflns_number_gt                1217
_reflns_number_total             2174
_reflns_threshold_expression     'I > 2\s(I)'
_cod_data_source_file            lo5078sup1.cif
_cod_data_source_block           m330
_cod_depositor_comments
;
The following automatic conversions were performed:

data item '_exptl_crystal_density_meas' value 'not measured' was
changed to '?' -- the value is perceived as not measured.

Automatic conversion script
Id: cif_fix_values 7556 2019-12-06 15:28:31Z antanas 

 Adding full bibliography for 2108742--2108745.cif.
;
_cod_original_formula_sum        'C7.50 H10 N3 O4'
_cod_database_code               2108745
_cod_database_fobs_code          2108745
_shelx_space_group_comment
;
The symmetry employed for this shelxl refinement is uniquely defined
by the following loop, which should always be used as a source of
symmetry information in preference to the above space-group names.
They are only intended as comments.
;
_shelxl_version_number           2013-2
_shelx_res_file
;
TITL k1000 in P-1
CELL 0.71073   7.295   8.280   9.249 115.79 103.12  91.91
ZERR    2.00   0.001   0.002   0.002   0.03   0.03   0.03
LATT  1
SFAC C H N O
UNIT 15 20 6 8

L.S. 51
DAMP 2500
ACTA
BOND $H
FMAP 2
PLAN 20
HTAB 2.5
OMIT 1 -1 1
OMIT 1 -3 1
OMIT -4 -1 1
OMIT -7 3 2
EQIV $1 -x, -y, -z+1
HTAB O4 O3_$1
HTAB O4 O4_$1
EQIV $2 -x+1, -y+1, -z+1
HTAB C2 O1_$2
EQIV $3 -x+1, -y, -z+1
HTAB C2 O3_$3
HTAB N1A1 O1
EQIV $4 -x, -y+1, -z+1
HTAB C1A O4_$4
EQIV $5 x, y+1, z+1
HTAB N1A2 O2_$5
EQIV $6 -x+1, -y+1, -z+2
HTAB C2A O3_$6
HTAB C3A O3
EQIV $7 x, y, z+1
HTAB C3B O1_$7
HTAB C2B O2_$4
HTAB C2B O4_$5
HTAB N1B2 O1_$4
HTAB N1B2 O2_$4
HTAB N1B1 O1_$7
HTAB N1B1 O2_$7
HTAB C1B O3
HTAB C1B O4_$1

MPLA C1B C2B C3B N1B1 N1B2
MPLA C1 C2 O1 O2
MPLA C1A C2A C3A N1A1 N1A2
MPLA C1B C2B C3B N1B1 N1B2
MPLA C2 C3 O3 O4
MPLA C1A C2A C3A N1A1 N1A2
MPLA C1 C2 O1 O2
MPLA C2 C3 O3 O4

WGHT    0.025000    0.025000
EXTI    0.114273
FVAR       7.91392
O1    4    0.225079    0.421683    0.390094    11.00000    0.08225    0.04291 =
         0.03779    0.01629    0.00973    0.01821
O2    4    0.214722    0.171679    0.165365    11.00000    0.08291    0.05188 =
         0.03350    0.01616    0.01035    0.02300
O3    4    0.327324    0.143126    0.652138    11.00000    0.07705    0.09838 =
         0.04293    0.04156   -0.00372    0.00424
O4    4    0.087729    0.057453    0.429366    11.00000    0.07139    0.11040 =
         0.06319    0.06219   -0.01213   -0.02661
C1    1    0.264202    0.264481    0.319476    11.00000    0.04517    0.04207 =
         0.03639    0.02015    0.01042    0.00517
C2    1    0.378572    0.188458    0.427500    11.00000    0.04852    0.05834 =
         0.04668    0.02933    0.00517    0.01233
C3    1    0.260364    0.128185    0.514785    11.00000    0.05954    0.04083 =
         0.03731    0.02241    0.00051    0.00991
FLAT  N1A1 C1A N1A2 C2A C3A
N1A1  3    0.291266    0.633475    0.719054    11.00000    0.05498    0.04555 =
         0.03380    0.01461    0.00725    0.00950
C1A   1    0.230643    0.790291    0.787168    11.00000    0.05331    0.04691 =
         0.04053    0.02002    0.00775    0.00937
N1A2  3    0.295072    0.860331    0.949569    11.00000    0.05682    0.04140 =
         0.03702    0.01411    0.00773    0.00759
C2A   1    0.400436    0.744355    0.987080    11.00000    0.06187    0.05260 =
         0.03677    0.01955    0.00138    0.00897

C3A   1    0.398710    0.602836    0.843721    11.00000    0.06443    0.04938 =
         0.04587    0.02215    0.00680    0.01661
PART 1
FLAT  N1B1 C1B N1B2 C2B C3B
DFIX  0.98 0.05 N1B1 H1B1 N1B2 H1B2
N1B1  3    0.068706    0.409466    1.050478    10.50000    0.05990    0.04006 =
         0.03967    0.01855    0.00446    0.00636
C1B   1    0.006312    0.381530    0.894284    10.50000    0.06530    0.06701 =
         0.04592    0.03407    0.00515    0.01319
N1B2  3   -0.062682    0.524286    0.892445    10.50000    0.06608    0.04410 =
         0.03536    0.02122    0.00347    0.00866
C2B   1   -0.036716    0.651992    1.052110    10.50000    0.06871    0.04933 =
         0.05208    0.02384    0.01339    0.02192
C3B   1    0.048822    0.583012    1.155208    10.50000    0.06927    0.05723 =
         0.04611    0.02415    0.01231    0.01532

H3B   2    0.070947    0.627248    1.275711    10.50000    0.04757
H2B   2   -0.075072    0.753658    1.075762    10.50000    0.04328
H1B2  2   -0.112125    0.557706    0.799686    10.50000    0.06453
H1B1  2    0.120038    0.309154    1.080205    10.50000    0.10634
H1B   2    0.001973    0.278861    0.801010    10.50000    0.08315
PART 0
H4    2    0.000000    0.000000    0.500000    10.50000    0.11409
H21   2    0.481380    0.283466    0.511639    11.00000    0.07143
H22   2    0.427610    0.086043    0.356614    11.00000    0.06607
H1A1  2    0.271604    0.557694    0.605503    11.00000    0.07017
H1A   2    0.153564    0.845911    0.729746    11.00000    0.07335
H1A2  2    0.276963    0.965064    1.032291    11.00000    0.07068
H2A   2    0.457754    0.777907    1.099670    11.00000    0.06615
H3A   2    0.450255    0.505493    0.825241    11.00000    0.08970

HKLF 4

REM  k1000 in P-1
REM R1 =  0.0498 for    1217 Fo > 4sig(Fo)  and  0.0849 for all    2174 data
REM    204 parameters refined using      6 restraints

END

WGHT      0.0687      0.0000

REM Instructions for potential hydrogen bonds
HTAB C3B O1_$7
HTAB C2B O2_$4
HTAB C2B O4_$5
HTAB N1B2 O1_$4
HTAB N1B2 O2_$4
HTAB N1B1 O1_$7
HTAB N1B1 O2_$7
HTAB C1B O3
HTAB C1B O4_$1
HTAB O4 O3_$1
HTAB C2 O1_$2
HTAB C2 O3_$3
HTAB N1A1 O1
EQIV $8 x, y+1, z
HTAB C1A O3_$8
HTAB C1A O4_$4
HTAB N1A2 O2_$5
HTAB C2A O3_$6
HTAB C3A O3

REM Highest difference peak  0.171,  deepest hole -0.197,  1-sigma level  0.047
Q1    1   0.1706 -0.0313  0.4432  11.00000  0.05    0.17
Q2    1   0.3543  0.7107  0.6178  11.00000  0.05    0.17
Q3    1   0.3224  0.7837  1.0032  11.00000  0.05    0.17
Q4    1   0.2819  0.0532  0.5825  11.00000  0.05    0.17
Q5    1   0.1045  0.1609  0.5068  11.00000  0.05    0.16
Q6    1   0.2549  0.3978  0.5092  11.00000  0.05    0.15
Q7    1   0.2485  0.2248  0.0919  11.00000  0.05    0.15
Q8    1   0.0583  0.0655  0.3144  11.00000  0.05    0.14
Q9    1   0.3334  0.5977  0.7973  11.00000  0.05    0.14
Q10   1   0.5873  0.2505  0.4599  11.00000  0.05    0.14
Q11   1   0.2200  0.6488  0.5731  11.00000  0.05    0.14
Q12   1   0.3459  0.1146  0.2632  11.00000  0.05    0.13
Q13   1   0.4552  0.8705  1.2547  11.00000  0.05    0.13
Q14   1   0.1680  0.1551  0.3863  11.00000  0.05    0.13
Q15   1   0.3188  0.4826  0.2945  11.00000  0.05    0.13
Q16   1   0.1042  0.9984  0.7176  11.00000  0.05    0.13
Q17   1   0.6797  0.2167  0.4759  11.00000  0.05    0.13
Q18   1   0.2525 -0.0647  0.6041  11.00000  0.05    0.13
Q19   1   0.2882  0.6611  0.4974  11.00000  0.05    0.12
Q20   1   0.3136  0.1358  0.7438  11.00000  0.05    0.12
;
_shelx_res_checksum              6165
_shelx_hkl_file
;
   0   0   2 9619.93 137.007   4 0.90490-0.85745-0.28359 0.36401 0.08842 0.08842
   0   0   2 9898.03 130.375   3 0.08205-0.03460-0.84298 0.92340 0.08842 0.08842
   0   0  -2 12132.7 133.340   1 0.04977-0.09722 0.84608-0.92650-0.08842-0.08842
   0   0   2 7930.01 114.193   5 0.62026-0.57281-0.63587 0.71629 0.08841 0.08842
   0   0   3 629.392 71.0745   3 0.07419-0.00302-0.82003 0.94066 0.13262 0.13263
   0   0  -3 797.656 71.2471   1 0.00648-0.07765 0.82238-0.94301-0.13263-0.13262
   0   0   3 693.879 71.7355   4 0.92032-0.84915-0.24417 0.36480 0.13263 0.13263
   0   0   3 543.717 58.9277   5 0.65389-0.58272-0.59291 0.71353 0.13262 0.13263
   0   0   4 6841.47 166.460   4 0.93360-0.83870-0.20385 0.36469 0.17684 0.17683
   0   0  -4 8543.23 166.375   1-0.03724-0.05766 0.79593-0.95677-0.17684-0.17683
   0   0   4 5719.69 138.301   5 0.68580-0.59090-0.54768 0.70852 0.17683 0.17684
   0   0   4 7276.19 175.923   3 0.06611 0.02879-0.79493 0.95576 0.17683 0.17684
   0   0   5 2344.10 131.298   3 0.05777 0.06085-0.76762 0.96867 0.22104 0.22105
   0   0  -5 2739.72 116.454   1-0.08138-0.03724 0.76665-0.96770-0.22105-0.22104
   0   0   5 1939.32 117.477   5 0.71591-0.59729-0.50012 0.70117 0.22104 0.22104
   0   0   5 2124.83 136.481   4 0.94467-0.82604-0.16262 0.36366 0.22105 0.22104
   0   0   6 1529.59 127.718   4 0.95345-0.81110-0.12044 0.36169 0.26526 0.26525
   0   0   6 1511.64 126.152   3 0.04919 0.09316-0.73804 0.97930 0.26525 0.26526
   0   0  -6 1743.44 129.994   1-0.12598-0.01637 0.73442-0.97567-0.26526-0.26525
   0   0   7 353.220 89.3642   3 0.04036 0.12572-0.70609 0.98755 0.30946 0.30947
   0   0   7 288.599 101.478   4 0.95985-0.79377-0.07727 0.35873 0.30946 0.30946
   0   0   8 327.898 127.049   3 0.03124 0.15856-0.67164 0.99331 0.35367 0.35367
   0   0   8 205.017 82.5762   4 0.96374-0.77394-0.03305 0.35473 0.35367 0.35367
   0   0   9 498.721 161.886   4 0.96495-0.75143 0.01227 0.34961 0.39788 0.39788
   0   0   9 546.492 131.820   3 0.02184 0.19169-0.63453 0.99641 0.39788 0.39788
   0   0  10 78.4923 109.249   3 0.01212 0.22513-0.59456 0.99665 0.44209 0.44209
   0  -1  10 11.5183 64.6093   3 0.03651 0.18624-0.69175 0.99760 0.32826 0.51215
   0  -1   9 31.3960 73.8148   3 0.04803 0.15100-0.73390 0.99955 0.27117 0.48082
   0   1  -8 1902.64 147.988   1-0.07154-0.10376 0.77341-0.99884-0.21123-0.45235
   0  -1   8 1766.94 158.298   3 0.05966 0.11564-0.77393 0.99936 0.21115 0.45242
   0  -1   7 251.919 97.8792   3 0.07161 0.07997-0.81216 0.99739 0.14689 0.42827
   0   1  -7 220.263 88.3892   1-0.00725-0.14433 0.81435-0.99957-0.14655-0.42860
   0  -1   7 252.307 90.9737   4 0.95117-0.79959-0.13265 0.31788 0.25256 0.32260
   0  -1   7 239.079 106.314   5 0.69511-0.54353-0.53353 0.71876 0.19022 0.38494
   0  -1   6 2420.46 145.600   4 0.93881-0.81096-0.18558 0.33059 0.19656 0.29018
   0  -1   6 2391.26 133.786   3 0.08418 0.04368-0.84895 0.99397 0.07621 0.41053
   0  -1   6 1822.17 112.757   5 0.64482-0.51697-0.60493 0.74995 0.12048 0.36626
   0   1  -6 3083.10 156.223   1 0.06227-0.19013 0.85246-0.99748-0.07557-0.41117
   0  -1   5 7065.84 160.132   5 0.58112-0.47700-0.68078 0.78559 0.03955 0.35877
   0  -1   5 8966.20 199.141   3 0.09786 0.00627-0.88450 0.98931-0.00479 0.40312
   0  -1   5 8576.58 181.035   4 0.92112-0.81699-0.24195 0.34676 0.13509 0.26324
   0   1  -5 10456.0 200.620   1 0.14036-0.24449 0.88757-0.99238 0.00546-0.40378
   0   1  -4 47.4376 37.3268   0 0.91136-0.99176-0.01907-0.04553-0.15135-0.15855
   0  -1   4 32.5278 47.3163   3 0.11353-0.03313-0.91845 0.98305-0.10376 0.41367
   0  -1   4 6.32496 22.8934   5 0.49307-0.41267-0.76582 0.83042-0.06223 0.37213
   0   1  -4 20.7181 34.0597   1 0.23323-0.31363 0.91823-0.98283 0.10370-0.41360
   0  -1   4 6.85603 29.3151   4 0.89504-0.81463-0.30593 0.37053 0.06292 0.24699
   0  -1   3 98.7645 43.7445   5 0.35093-0.29425-0.86745 0.89184-0.20841 0.42990
   0  -1   3 94.2670 45.8100   3 0.13283-0.07615-0.94728 0.97167-0.23737 0.45886
   0  -1   3 90.5273 40.2269   4 0.85084-0.79417-0.38884 0.41322-0.03476 0.25624
   0  -1   2 22092.8 174.087   3 0.15809-0.12514-0.94853 0.93271-0.44537 0.57844
   0  -1   2 17473.2 126.373   5 0.05496-0.02201-0.97661 0.96079-0.46066 0.59373
   0   1   1 185194. 475.061   4 0.95396-0.91574-0.11752 0.25397 0.26827-0.13609
   0   1   2 6547.31 148.637   4 0.94833-0.88638-0.14647 0.32313 0.23809-0.01749
   0   1   2 6799.73 127.126   3 0.00621 0.05574-0.56944 0.74610 0.46827-0.24767
   0   1   3 1307.68 89.4108   3 0.01752 0.06815-0.61698 0.83384 0.41770-0.10868
   0  -1  -3 1523.70 73.6620   1-0.27829 0.19261 0.60305-0.81992-0.41265 0.10363
   0   1   3 1398.76 107.706   4 0.94966-0.86398-0.14016 0.35703 0.24471 0.06431
   0   1   4 11457.1 216.013   3 0.02035 0.08904-0.62853 0.88561 0.40472-0.00729
   0   1   4 10880.7 217.597   4 0.95361-0.84422-0.11951 0.37658 0.26622 0.13122
   0   1   5 272.447 116.620   3 0.01901 0.11412-0.62305 0.92033 0.41091 0.07494
   0  -1  -5 272.007 76.4654   1-0.27304 0.13992 0.60815-0.90544-0.40768-0.07818
   0   1   5 207.863 94.6158   4 0.95805-0.82493-0.09133 0.38862 0.29517 0.19068
   0   1   6 38.4356 61.6368   4 0.96183-0.80498-0.05850 0.39599 0.32836 0.24591
   0   1   6 50.7801 57.1615   3 0.01526 0.14159-0.60764 0.94514 0.42797 0.14630
   0  -1  -6 59.4987 54.2513   1-0.29117 0.13432 0.59032-0.92782-0.42484-0.14943
   0   1   7 2135.52 175.961   4 0.96428-0.78370-0.02237 0.40007 0.36419 0.29850
   0   1   7 2530.95 173.411   3 0.00995 0.17062-0.58543 0.96313 0.45174 0.21095
   0   1   8 6001.91 283.112   3 0.00354 0.20076-0.55793 0.97584 0.47989 0.27121
   0   1   8 5447.60 300.585   4 0.96492-0.76063 0.01631 0.40160 0.40177 0.34934
   0   1   9 926.916 222.150   4 0.96339-0.73537 0.05715 0.40097 0.44056 0.39897
   0   1   9 1092.66 201.042   3-0.00373 0.23176-0.52588 0.98399 0.51106 0.32846
   0   1  10 542.298 183.989   4 0.95933-0.70759 0.09994 0.39839 0.48021 0.44773
   0  -2  11 217.913 135.057   3 0.04770 0.18427-0.73276 0.98258 0.27280 0.61227
   0  -2  10 876.614 186.379   3 0.06057 0.14769-0.77693 0.98655 0.20637 0.59027
   0  -2   9 2766.89 204.021   3 0.07364 0.11089-0.81836 0.98777 0.13568 0.57255
   0  -2   8 1501.08 133.122   3 0.08713 0.07368-0.85704 0.98623 0.05911 0.56070
   0   2  -8 2119.48 163.254   1 0.07923-0.24003 0.86079-0.98998-0.05810-0.56171
   0   2  -7 1855.31 127.627   1 0.16047-0.29755 0.89525-0.98424 0.02655-0.55794
   0  -2   7 1753.91 155.560   4 0.93795-0.80087-0.18873 0.27771 0.19317 0.33822
   0  -2   6 6365.62 202.374   3 0.11637-0.00301-0.92369 0.97247-0.12249 0.56547
   0  -2   6 6003.54 166.438   4 0.91610-0.80275-0.25561 0.30439 0.11990 0.32307
   0  -2   6 5095.19 138.435   5 0.48929-0.37593-0.76905 0.81783-0.06639 0.50936
   0   2  -6 7295.41 194.235   1 0.25036-0.36371 0.92249-0.97127 0.12206-0.56503
   0  -2   5 8554.63 155.292   4 0.88117-0.79154-0.33455 0.34312 0.02976 0.32480
   0  -2   5 8816.24 191.586   3 0.13278-0.04315-0.94723 0.95580-0.23699 0.59155
   0  -2   4 52738.1 285.774   4 0.81688-0.75098-0.44015 0.40851-0.09786 0.36400
   0  -2   4 50235.6 364.671   3 0.15060-0.08470-0.95461 0.92298-0.37784 0.64398
   0   2  -3 81.8331 53.1929   0 0.91398-0.95616-0.04225 0.11410-0.14559-0.03213
   0  -2   3 42.7622 28.6057   5-0.14785 0.19003-0.98456 0.91271-0.59950 0.77722
   0  -2   3 51.6096 52.9481   3 0.16845-0.12627-0.92264 0.85079-0.55456 0.73228
   0  -2   2 75285.3 356.623   3 0.17891-0.16045-0.79356 0.68150-0.75811 0.84741
   0  -2   2 69973.8 284.020   5-0.55428 0.57273-0.81835 0.70629-0.78509 0.87440
   0   2  -1 29404.9 211.193   0 0.90793-0.90266 0.00421 0.14805-0.15701 0.15612
   0  -2   1 24442.7 190.594   1-0.78693 0.78166-0.44462 0.29235-0.80172 0.80261
   0   2   0 20137.1 171.337   0 0.88647-0.85748 0.09624 0.09623-0.17801 0.26554
   0   2   0 13969.1 153.625   4 0.95979-0.93079 0.09624 0.09624 0.47681-0.38928
   0  -2   0 16791.0 168.410   1-0.72202 0.69302-0.09624-0.09624-0.78844 0.70091
   0   2   1 539.010 59.8354   4 0.96458-0.91186-0.01421 0.24690 0.37219-0.19624
   0  -2  -1 707.957 67.3354   1-0.60666 0.55394 0.16688-0.39957-0.70452 0.52857
   0  -2  -2 15961.2 202.491   1-0.51451 0.43806 0.31871-0.59160-0.62759 0.36323
   0   2   2 13154.1 204.600   4 0.96250-0.88605-0.05083 0.32372 0.33603-0.07166
   0   2   3 5400.63 171.494   4 0.96204-0.86187-0.05614 0.36924 0.33073 0.02206
   0   2   3 5793.93 166.531   3-0.02532 0.12549-0.42542 0.73853 0.59869-0.24591
   0  -2  -4 78.6502 71.9709   1-0.43002 0.30613 0.43424-0.78755-0.55306 0.11186
   0   2   4 19.8537 42.4751   4 0.96292-0.83903-0.04539 0.39870 0.34145 0.09975
   0   2   4 44.3781 58.7288   3-0.01762 0.14151-0.46218 0.81549 0.56827-0.12707
   0   2   5 1997.57 155.582   3-0.01489 0.16251-0.47496 0.86848 0.55726-0.02764
   0   2   5 1833.99 166.105   4 0.96415-0.81653-0.02518 0.41870 0.36144 0.16818
   0   2   6 3213.02 190.371   4 0.96491-0.79357 0.00126 0.43247 0.38725 0.23079
   0   2   6 3459.49 190.100   3-0.01537 0.18672-0.47272 0.90645 0.55921 0.05883
   0   2   7 289.609 115.970   3-0.01805 0.21312-0.46013 0.93407 0.57001 0.13644
   0   2   7 388.876 165.519   4 0.96460-0.76953 0.03216 0.44178 0.41693 0.28953
   0   2   8 88.6990 98.2611   4 0.96272-0.74393 0.06649 0.44765 0.44930 0.34558
   0   2   8 27.8398 73.2812   3-0.02234 0.24114-0.43975 0.95390 0.58705 0.20783
   0   2   9 101.901 120.136   4 0.95886-0.71634 0.10367 0.45069 0.48361 0.39968
   0  -3  11 7.92272 62.6150   3 0.06944 0.14804-0.80546 0.95904 0.15875 0.68255
   0  -3  10 54.8081 83.7064   3 0.08325 0.11051-0.84635 0.95973 0.08156 0.67132
   0  -3   9 166.025 102.059   3 0.09731 0.07272-0.88318 0.95635-0.00148 0.66594
   0   3  -9 142.854 79.5544   1 0.13771-0.30774 0.88651-0.95968 0.00268-0.66714
   0   3  -8 5308.16 223.526   1 0.22257-0.36888 0.91535-0.94831 0.09232-0.66836
   0  -3   8 4564.63 221.881   3 0.11176 0.03455-0.91502 0.94798-0.09219 0.66823
   0  -3   7 67.7191 61.4468   3 0.12666-0.00408-0.93993 0.93268-0.19295 0.68058
   0   3  -7 97.4053 46.6238   1 0.31338-0.43596 0.93418-0.92693 0.19027-0.67790
   0  -3   6 2802.72 150.239   3 0.14194-0.04309-0.95405 0.90659-0.30670 0.70591
   0  -3   6 2283.48 105.324   5 0.27174-0.17288-0.90890 0.86144-0.28213 0.68134
   0   3  -5 73.7104 51.9219   0 0.90288-0.97802 0.03149 0.05618-0.16346-0.14733
   0  -3   5 83.9502 52.8277   4 0.81017-0.73504-0.44938 0.36172-0.10946 0.42025
   0  -3   5 53.2468 40.2430   5 0.06573 0.00940-0.97472 0.88705-0.45254 0.76333
   0  -3   5 47.6436 53.3282   3 0.15712-0.08199-0.94976 0.86209-0.43624 0.74703
   0  -3   4 866.967 86.1864   3 0.17062-0.11921-0.91259 0.78471-0.58159 0.80397
   0  -3   4 766.730 69.4345   5-0.20578 0.25719-0.97695 0.84907-0.63414 0.85651
   0  -3   3 42411.6 275.963   5-0.50622 0.53390-0.85435 0.68627-0.77146 0.90542
   0  -3   3 48940.7 358.912   3 0.17856-0.15087-0.81858 0.65049-0.73252 0.86648
   0  -3   2 3152.97 123.269   3 0.17439-0.17044-0.64307 0.43478-0.85712 0.90265
   0  -3   2 2656.70 94.5931   5-0.73745 0.74141-0.60800 0.39970-0.79984 0.84538
   0   3  -1 2201.03 90.9724   0 0.89511-0.87534 0.06526 0.18324-0.17118 0.21406
   0   3  -1 2010.15 77.5542   4 0.89525-0.87548 0.32269-0.07419 0.66942-0.62654
   0  -3   0 35137.2 294.612   1-0.73724 0.69374-0.14436-0.14436-0.79724 0.66594
   0   3   0 28742.1 253.293   4 0.95243-0.90893 0.14435 0.14436 0.52028-0.38899
   0   3   0 42197.4 290.286   0 0.87017-0.82668 0.14436 0.14435-0.18812 0.31942
   0   3   1 1169.62 111.612   4 0.96307-0.89585 0.06184 0.26708 0.44495-0.22524
   0  -3  -1 1336.50 87.3248   1-0.67212 0.60490 0.03304-0.36196-0.75476 0.53504
   0  -3  -1 1359.04 74.0842   2 0.41998-0.48720 0.01443-0.34335-0.69402 0.47430
   0   3   2 24.1479 52.3224   4 0.96475-0.87381 0.02674 0.34240 0.41175-0.10362
   0  -3  -2 0.35196 21.0955   1-0.61275 0.52180 0.15557-0.52470-0.70938 0.40125
   0   3   2 17.0578 34.3301   0 0.69880-0.60786 0.42174-0.05261-0.23317 0.54130
   0   3   3 119.090 64.2550   4 0.96492-0.85025 0.01706 0.39228 0.40248-0.00594
   0  -3  -3 238.128 93.7715   1-0.56932 0.45465 0.23243-0.64177-0.67403 0.27748
   0  -3  -4 1344.54 117.734   1-0.54236 0.40397 0.27616-0.72571-0.65141 0.16645
   0   3   4 1073.24 119.526   4 0.96484-0.82645 0.02245 0.42710 0.40766 0.07731
   0  -3  -5 1597.91 146.300   1-0.52925 0.36713 0.29651-0.78627-0.64025 0.06687
   0   3   5 1326.27 176.040   4 0.96441-0.80229 0.03758 0.45218 0.42208 0.15130
   0   3   6 1003.11 170.757   4 0.96324-0.77739 0.05949 0.47048 0.44274 0.21906
   0   3   7 2627.56 224.537   4 0.96089-0.75132 0.08642 0.48376 0.46778 0.28244
   0   3   8 698.332 169.886   4 0.95696-0.72367 0.11731 0.49308 0.49601 0.34263
   0  -4  11 36.3567 105.878   3 0.08940 0.11358-0.86312 0.92047 0.04579 0.75174
   0  -4  10 3777.38 253.370   3 0.10357 0.07569-0.89780 0.91494-0.04006 0.74917
   0   4  -9 8978.94 320.789   1 0.25894-0.41447 0.92446-0.90139 0.13128-0.75198
   0  -4   9 7326.89 275.064   3 0.11781 0.03772-0.92624 0.90317-0.13215 0.75284
   0  -4   8 1889.77 152.145   3 0.13206-0.00025-0.94648 0.88320-0.23174 0.76402
   0  -4   7 1029.97 121.684   3 0.14608-0.03800-0.95516 0.85167-0.33996 0.78382
   0   4  -7 1524.94 120.772   0 0.88032-0.98840 0.11567-0.01219-0.18217-0.26169
   0  -4   6 8873.97 226.813   3 0.15932-0.07496-0.94675 0.80306-0.45714 0.81258
   0  -4   6 7141.66 168.152   5 0.02625 0.05811-0.98093 0.83724-0.48194 0.83738
   0  -4   5 1697.57 93.1457   5-0.20986 0.27050-0.97624 0.79234-0.63649 0.90352
   0  -4   5 2287.68 136.340   3 0.17058-0.10995-0.91275 0.72884-0.58120 0.84822
   0   4  -5 2997.36 137.551   0 0.89834-0.95897 0.05211 0.13180-0.16821-0.09882
   0  -4   4 9710.82 199.323   3 0.17777-0.14086-0.84180 0.61769-0.70498 0.88359
   0  -4   4 7983.14 151.995   5-0.45503 0.49194-0.88677 0.66266-0.75393 0.93254
   0  -4   3 1981.23 80.8132   2-0.93625 0.94944-0.48033 0.21601-0.46020 0.55039
   0  -4   3 1895.36 132.754   3 0.17795-0.16477-0.72376 0.45943-0.81346 0.90365
   0   4  -3 1866.44 103.190   0 0.89930-0.91248 0.04798 0.21634-0.16727 0.07708
   0   4  -2 8860.30 135.962   4 0.76072-0.75018 0.52516-0.22062 0.81085-0.81263
   0  -4   2 10219.5 203.813   3 0.16881-0.17935-0.55984 0.25531-0.88636 0.88813
   0   4  -1 9854.96 189.490   0 0.87875-0.84448 0.12035 0.22439-0.18316 0.26980
   0  -4   1 8540.28 196.393   1-0.78024 0.74598-0.34859 0.00384-0.81054 0.72390
   0   4  -1 6812.01 153.809   4 0.89888-0.86461 0.31475 0.03000 0.66321-0.57657
   0  -4   0 25989.6 299.965   1-0.75058 0.69259-0.19247-0.19248-0.80395 0.62889
   0  -4   0 24990.9 208.575   2 0.03382-0.09181-0.19248-0.19247-0.92406 0.74899
   0   4   0 30584.0 299.147   0 0.85025-0.79226 0.19248 0.19247-0.19762 0.37268
   0   4   0 20672.7 255.992   4 0.94176-0.88377 0.19247 0.19248 0.56243-0.38737
   0  -4  -1 8434.17 211.194   1-0.71058 0.62886-0.06339-0.36177-0.78126 0.51778
   0   4   1 6419.78 169.039   4 0.95547-0.87375 0.12692 0.29824 0.50468-0.24120
   0  -4  -1 7984.85 165.445   2 0.28780-0.36952-0.06080-0.36436-0.79257 0.52909
   0   4   1 9371.23 175.497   0 0.79667-0.71495 0.29227 0.13289-0.21520 0.47868
   0  -4  -2 1471.76 101.526   2 0.41054-0.51598 0.00889-0.47426-0.70183 0.34994
   0   4   2 1375.49 121.052   4 0.95993-0.85449 0.09500 0.37037 0.47568-0.12378
   0   4   3 2858.11 160.964   4 0.96116-0.83200 0.08382 0.42176 0.46538-0.02507
   0  -4  -3 3713.12 169.761   1-0.64129 0.51212 0.09970-0.60528-0.73171 0.29140
   0  -4  -3 3749.25 164.360   2 0.46945-0.59862 0.04399-0.54957-0.65086 0.21055
   0  -4  -4 765.086 131.072   1-0.62022 0.46733 0.14140-0.68719-0.71530 0.18657
   0   4   4 748.859 138.685   4 0.96092-0.80802 0.08619 0.45960 0.46758 0.06116
   0  -4  -4 957.058 141.596   2 0.49550-0.64839 0.05989-0.60568-0.62659 0.09786
   0   4   5 477.312 117.934   4 0.95958-0.78296 0.09797 0.48803 0.47840 0.13875
   0   4   6 537.554 121.307   4 0.95707-0.75673 0.11660 0.50960 0.49537 0.21020
   0   4   7 18.3759 90.3213   4 0.95314-0.72907 0.14050 0.52591 0.51685 0.27714
   0  -5  11 309.044 147.679   3 0.10695 0.08154-0.90518 0.86629-0.06133 0.81510
   0  -5  10 807.474 183.278   3 0.12084 0.04392-0.93132 0.85222-0.15265 0.81800
   0   5 -10 1112.17 213.734   1 0.27720-0.44196 0.92826-0.84916 0.15098-0.81633
   0  -5   9 963.077 118.499   3 0.13443 0.00660-0.94885 0.82955-0.24923 0.82616
   0  -5   8 5021.02 244.449   3 0.14746-0.03015-0.95520 0.79568-0.35128 0.83980
   0   5  -7 1520.53 135.291   0 0.87842-0.97200 0.12133 0.07840-0.18336-0.21674
   0  -5   7 1167.93 138.127   3 0.15943-0.06585-0.94658 0.74685-0.45824 0.85833
   0  -5   6 45.3888 73.8283   3 0.16954-0.09968-0.91788 0.67795-0.56790 0.87958
   0   5  -6 20.5206 42.6605   0 0.88665-0.95651 0.09566 0.14427-0.17789-0.13379
   0  -5   5 3685.46 135.765   5-0.40054 0.44668-0.91541 0.63527-0.73229 0.95555
   0  -5   5 4724.97 194.210   3 0.17654-0.13041-0.86319 0.58304-0.67544 0.89870
   0   5  -5 6042.62 191.797   0 0.89064-0.93677 0.08195 0.19819-0.17489-0.04837
   0  -5   4 2317.10 146.069   3 0.17891-0.15650-0.77760 0.45725-0.77262 0.90747
   0   5  -4 2593.03 131.403   0 0.89082-0.91323 0.08130 0.23906-0.17475 0.03991
   0  -5   3 851.878 111.584   5-0.72003 0.71872-0.63525 0.27468-0.80212 0.84855
   0  -5   3 985.972 100.090   3 0.17536-0.17668-0.66102 0.30046-0.84889 0.89531
   0   5  -2 37962.6 402.771   0 0.87716-0.85212 0.12500 0.27577-0.18413 0.22612
   0  -5   2 31743.3 361.724   1-0.78671 0.76167-0.48471 0.08394-0.79469 0.75270
   0   5  -2 26047.7 259.076   4 0.79847-0.77343 0.48031-0.07954 0.78271-0.74072
   0   5  -1 2460.48 130.330   0 0.85880-0.81004 0.17289 0.26809-0.19383 0.32424
   0  -5   1 2188.98 130.282   1-0.78125 0.73248-0.35737-0.08361-0.81017 0.67976
   0   5   0 14454.4 260.900   0 0.82655-0.75407 0.24060 0.24059-0.20646 0.42529
   0   5   0 9974.64 231.262   4 0.92768-0.85519 0.24059 0.24060 0.60321-0.38438
   0  -5   0 12475.5 255.473   1-0.76201 0.68952-0.24059-0.24060-0.80853 0.58970
   0  -5  -1 21.7068 35.3718   1-0.73668 0.64047-0.14249-0.37891-0.79693 0.48969
   0   5   1 9.49153 35.7539   4 0.94327-0.84705 0.18652 0.33488 0.55729-0.25005
   0  -5  -2 756.101 107.588   1-0.71157 0.59163-0.06616-0.49545-0.78190 0.38624
   0   5   2 486.298 95.1091   4 0.94976-0.82982 0.15789 0.40371 0.53228-0.13662
   0   5   3 2408.56 186.828   4 0.95203-0.80836 0.14648 0.45534 0.52217-0.03809
   0  -5  -3 3386.08 190.422   1-0.69060 0.54693-0.01104-0.59077-0.76787 0.28379
   0   5   4 698.777 151.550   4 0.95190-0.78451 0.14716 0.49486 0.52278 0.04972
   0  -5  -4 938.955 149.435   1-0.67554 0.50815 0.02515-0.66718-0.75723 0.18473
   0   5   5 1338.82 201.701   4 0.95001-0.75890 0.15668 0.52556 0.53120 0.12971
   0   5   6 117.468 97.4137   4 0.94650-0.73166 0.17291 0.54953 0.54546 0.20387
   0  -6  11 10.1270 83.7764   3 0.12172 0.05227-0.93271 0.79758-0.15864 0.86864
   0  -6  10 679.791 158.350   3 0.13478 0.01548-0.94918 0.77384-0.25183 0.87342
   0  -6   9 16.5391 84.3737   3 0.14710-0.02056-0.95520 0.73966-0.34834 0.88150
   0  -6   8 154.334 88.0970   3 0.15830-0.05549-0.94825 0.69250-0.44732 0.89207
   0   6  -8 225.672 108.690   0 0.86216-0.96497 0.16480 0.09095-0.19223-0.25251
   0  -6   7 74.9591 108.001   3 0.16781-0.08872-0.92519 0.62922-0.54693 0.90326
   0   6  -7 2.28784 62.5399   0 0.87232-0.95140 0.13858 0.15739-0.18694-0.16939
   0  -6   6 712.192 126.044   3 0.17486-0.11949-0.88267 0.54649-0.64383 0.91174
   0   6  -6 820.879 114.398   0 0.87803-0.93339 0.12248 0.21370-0.18360-0.08431
   0  -6   5 798.789 115.686   3 0.17857-0.14693-0.81812 0.44174-0.73302 0.91252
   0   6  -5 906.289 115.212   0 0.87981-0.91145 0.11719 0.25919-0.18249 0.00299
   0  -6   4 5906.98 223.395   3 0.17817-0.17025-0.73132 0.31473-0.80838 0.89946
   0   6  -4 7311.91 222.835   0 0.87764-0.88556 0.12359 0.29300-0.18383 0.09276
   0  -6   3 4685.04 195.381   5-0.74478 0.72897-0.59583 0.13903-0.79853 0.80119
   0  -6   3 5783.87 228.926   3 0.17339-0.18920-0.62603 0.16923-0.86425 0.86691
   0   6  -3 7153.35 234.188   0 0.87077-0.85496 0.14275 0.31405-0.18779 0.18513
   0   6  -2 4690.17 211.487   0 0.85755-0.81802 0.17584 0.32117-0.19440 0.28016
   0  -6   2 3956.80 180.000   1-0.78686 0.74732-0.47908-0.01793-0.79581 0.71005
   0   6  -1 2992.87 138.737   4 0.87545-0.81219 0.36243 0.17479 0.69983-0.52565
   0   6  -1 4363.77 192.965   0 0.83511-0.77184 0.22412 0.31310-0.20351 0.37768
   0  -6   1 3733.82 182.186   1-0.78341 0.72014-0.37913-0.15809-0.80889 0.63472
   0   6   0 484.018 122.945   0 0.79888-0.71189 0.28871 0.28871-0.21463 0.47722
   0   6   0 372.137 97.1134   4 0.91001-0.82302 0.28871 0.28871 0.64255-0.37996
   0  -6   0 419.755 110.626   1-0.77144 0.68446-0.28871-0.28872-0.81088 0.54829
   0   6   1 444.434 110.919   4 0.92688-0.81617 0.24301 0.37462 0.60523-0.25422
   0  -6  -1 534.834 117.042   1-0.75552 0.64481-0.21226-0.40538-0.80610 0.45509
   0  -6  -2 137.130 82.6717   1-0.73940 0.60496-0.15170-0.50614-0.79840 0.35897
   0   6   2 69.8862 85.0160   4 0.93490-0.80046 0.21743 0.44041 0.58376-0.14433
   0   6   3 27.1468 65.7204   4 0.93804-0.77988 0.20641 0.49165 0.57438-0.04654
   0  -6  -3 6.55306 52.6251   1-0.72561 0.56745-0.10708-0.59097-0.79060 0.26275
   0   6   4 1255.17 201.945   4 0.93811-0.75622 0.20617 0.53209 0.57418 0.04208
   0   6   5 139.606 112.936   4 0.93585-0.73023 0.21417 0.56430 0.58099 0.12369
   0  -7  11 425.791 138.024   3 0.13365 0.02584-0.94811 0.71674-0.24346 0.90970
   0  -7  10 226.530 147.275   3 0.14552-0.00975-0.95509 0.68352-0.33532 0.91314
   0  -7   9 2464.72 226.786   3 0.15626-0.04422-0.95074 0.63895-0.42819 0.91759
   0   7  -9 3323.03 237.318   0 0.84301-0.95504 0.20804 0.10374-0.20055-0.28885
   0   7  -8 27.4618 75.4827   0 0.85521-0.94353 0.18128 0.17071-0.19546-0.20552
   0  -7   8 56.6836 103.539   3 0.16548-0.07717-0.93308 0.58109-0.52055 0.92153
   0   7  -7 4079.66 203.399   0 0.86275-0.92734 0.16334 0.22886-0.19194-0.12062
   0  -7   7 3634.89 220.591   3 0.17269-0.10810-0.90017 0.50796-0.61005 0.92262
   0  -7   6 952.895 132.682   3 0.17734-0.13647-0.85055 0.41814-0.69345 0.91760
   0   7  -6 1260.81 158.002   0 0.86621-0.90707 0.15468 0.27773-0.19021-0.03394
   0   7  -5-8.84964 40.0496   0 0.86574-0.88288 0.15586 0.31675-0.19045 0.05472
   0  -7   5 8.16868 69.3662   3 0.17893-0.16179-0.78410 0.31148-0.76687 0.90260
   0  -7   5 6.21467 50.9799   5-0.57662 0.59376-0.79952 0.32690-0.79037 0.92610
   0  -7   4 7646.62 254.491   3 0.17724-0.18382-0.70278 0.18995-0.82657 0.87388
   0  -7   4 6409.97 228.790   5-0.67980 0.67322-0.69073 0.17790-0.80361 0.85092
   0  -7   3 1981.98 193.379   5-0.75270 0.72239-0.58218 0.02915-0.79685 0.75574
   0   7  -3 2837.49 190.391   0 0.85103-0.82072 0.19075 0.36229-0.19729 0.23839
   0  -7   3 2359.69 188.726   3 0.17244-0.20275-0.61100 0.05796-0.87002 0.82892
   0  -7   2 2804.96 207.016   1-0.78661 0.73257-0.48805-0.10520-0.79401 0.66448
   0   7  -2 2522.44 163.489   0 0.83410-0.78006 0.22611 0.36713-0.20387 0.33339
   0  -7   1 93.7604 71.0120   1-0.78554 0.70778-0.40826-0.22520-0.80633 0.58839
   0   7  -1 70.5143 90.0536   0 0.80745-0.72969 0.27456 0.35889-0.21230 0.43024
   0   7   0 1159.66 160.299   4 0.88853-0.78705 0.33683 0.33683 0.68037-0.37401
   0  -7   0 1218.68 171.879   1-0.77878 0.67730-0.33683-0.33684-0.81091 0.50455
   0   7   1 159.642 120.455   4 0.90635-0.78114 0.29758 0.41630 0.64964-0.25486
   0  -7  -1 32.8498 62.8863   1-0.76924 0.64403-0.27646-0.43741-0.81050 0.41573
   0  -7  -2 121.952 69.7176   1-0.75932 0.61038-0.22847-0.52561-0.80758 0.32439
   0   7   2 158.782 109.209   4 0.91552-0.76658 0.27475 0.47934 0.63129-0.14809
   0   7   3 20.4079 64.2030   4 0.91939-0.74673 0.26442 0.52987 0.62288-0.05127
   0   7   4 63.8923 71.0531   4 0.91963-0.72324 0.26377 0.57073 0.62235 0.03768
   0  -8  10 49.9499 122.397   3 0.15346-0.03219-0.95316 0.58535-0.40280 0.93685
   0   8  -9 79.0802 108.049   0 0.83517-0.93271 0.22399 0.18403-0.20348-0.24215
   0  -8   9-6.85336 56.2741   3 0.16260-0.06505-0.94060 0.53257-0.48983 0.93547
   0   8  -8 6031.79 305.581   0 0.84466-0.91848 0.20456 0.24367-0.19990-0.15732
   0  -8   8 4645.82 288.196   3 0.17003-0.09621-0.91558 0.46735-0.57401 0.93122
   0   8  -7 23.9533 69.7748   0 0.84988-0.89998 0.19328 0.29516-0.19777-0.07103
   0  -8   7 17.8199 86.5789   3 0.17539-0.12530-0.87729 0.38885-0.65310 0.92189
   0   8  -6 4517.94 276.503   0 0.85111-0.87748 0.19056 0.33809-0.19725 0.01687
   0  -8   6 3549.28 259.145   3 0.17837-0.15200-0.82570 0.29705-0.72451 0.90489
   0  -8   5 3534.12 229.777   3 0.17878-0.17614-0.76198 0.19312-0.78567 0.87764
   0   8  -5 4689.71 241.929   0 0.84824-0.85088 0.19688 0.37198-0.19845 0.10649
   0   8  -4 3430.87 234.874   0 0.84070-0.81962 0.21282 0.39625-0.20144 0.19789
   0  -8   4 2387.12 196.601   3 0.17667-0.19775-0.68874 0.07967-0.83460 0.83815
   0   8  -3 4109.42 241.336   0 0.82741-0.78260 0.23899 0.41029-0.20618 0.29105
   0  -8   3 3310.21 243.800   3 0.17237-0.21718-0.60990-0.03937-0.87042 0.78555
   0  -8   2 133.231 93.6114   1-0.78578 0.71725-0.50629-0.18319-0.79000 0.61671
   0   8  -2 249.513 116.310   0 0.80658-0.73804 0.27603 0.41346-0.21254 0.38583
   0  -8   1 755.802 172.350   1-0.78688 0.69462-0.44193-0.28776-0.80212 0.54041
   0  -8   0 495.287 166.958   1-0.78390 0.66792-0.38495-0.38496-0.80846 0.45834
   0  -8  -1 110.069 106.302   1-0.77882 0.63911-0.33711-0.47300-0.81090 0.37236
   0   8   2 83.2746 112.226   4 0.89157-0.72814 0.33052 0.51980 0.67550-0.14854
   0  -8  -2 100.604 130.983   1-0.77325 0.60982-0.29938-0.55094-0.81109 0.28414
   0   8   3 101.629 120.270   4 0.89600-0.70884 0.32107 0.56946 0.66816-0.05278
   0   9 -10 311.665 154.952   0 0.81195-0.91872 0.26687 0.19717-0.21101-0.27928
   0   9  -9 83.7417 111.379   0 0.82357-0.90661 0.24615 0.25811-0.20744-0.19443
   0  -9   9 176.130 158.297   3 0.16682-0.08378-0.92876 0.42451-0.53555 0.93742
   0  -9   8 822.342 211.481   3 0.17279-0.11347-0.89953 0.35506-0.61139 0.92485
   0   9  -8 1041.14 185.939   0 0.83068-0.89000 0.23276 0.31171-0.20507-0.10839
   0  -9   7 683.453 173.335   3 0.17680-0.14121-0.85939 0.27471-0.68103 0.90607
   0   9  -7 1257.51 207.419   0 0.83367-0.86926 0.22695 0.35772-0.20402-0.02101
   0  -9   6 977.274 213.708   3 0.17874-0.16687-0.80914 0.18425-0.74262 0.87924
   0   9  -6 1244.92 216.027   0 0.83258-0.84445 0.22908 0.39580-0.20441 0.06779
   0   9  -5 150.657 110.500   0 0.82710-0.81525 0.23956 0.42553-0.20628 0.15808
   0  -9   5 40.0852 75.5316   3 0.17860-0.19046-0.75044 0.08535-0.79464 0.84284
   0  -9   4 2957.91 243.015   3 0.17655-0.21213-0.68587-0.01943-0.83617 0.79595
   0   9  -4 3989.92 263.363   0 0.81654-0.78096 0.25884 0.44646-0.20964 0.24986
   0  -9   3 63.8507 84.1706   5-0.74369 0.68439-0.59767-0.14784-0.79874 0.67010
   0  -9   3 509.404 175.033   3 0.17293-0.23223-0.61862-0.12689-0.86715 0.73852
   0   9  -3 476.064 192.868   0 0.79969-0.74038 0.28740 0.45811-0.21441 0.34305
   0  -9   2 41.7537 80.4986   5-0.77928 0.69625-0.53177-0.25396-0.78887 0.57181
   0   9  -2 499.660 136.366   0 0.77471-0.69168 0.32571 0.46002-0.22041 0.43746
   0  -9   1 87.5156 86.8743   1-0.78687 0.68011-0.47862-0.34731-0.79590 0.49042
   0  -9   0 197.392 135.221   1-0.78665 0.65617-0.43307-0.43307-0.80336 0.40948
   0  -9  -1 80.4443 150.443   1-0.78470 0.63050-0.39535-0.51100-0.80759 0.32528
   0 -10   8 9.83070 77.9771   3 0.17439-0.12957-0.88697 0.24626-0.63607 0.90576
   0  10  -8 114.066 179.520   0 0.81323-0.85805 0.26465 0.37605-0.21063-0.05905
   0  10  -7 476.646 194.373   0 0.81394-0.83504 0.26342 0.41749-0.21042 0.02915
   0 -10   7 279.857 133.175   3 0.17750-0.15640-0.84742 0.16651-0.69766 0.87892
   0  10  -6 921.862 247.278   0 0.81037-0.80774 0.26959 0.45154-0.21147 0.11861
   0 -10   6 810.573 221.564   3 0.17886-0.18148-0.80040 0.07928-0.75148 0.84433
   0 -10   5 146.140 112.915   3 0.17855-0.20490-0.74767-0.01366-0.79672 0.80115
   0  10  -5 455.606 171.653   0 0.80209-0.77573 0.28349 0.47785-0.21377 0.20934
   0  10  -4 49.5908 77.8198   0 0.78824-0.73817 0.30548 0.49606-0.21730 0.30129
   0 -10   4 63.8719 113.230   5-0.68759 0.63751-0.68069-0.12085-0.80368 0.71970
   0 -10   4 51.8397 100.505   3 0.17679-0.22687-0.69149-0.11005-0.83307 0.74909
   0  10  -3 95.7644 82.4407   0 0.76755-0.69374 0.33595 0.50580-0.22193 0.39433
   0 -10   3 107.571 136.111   5-0.73133 0.65752-0.61783-0.22392-0.80078 0.62837
   0 -10   3 379.594 173.355   3 0.17389-0.24769-0.63438-0.20737-0.86083 0.68843
   0 -10   2 338.087 179.161   3 0.17023-0.26776-0.57887-0.30309-0.88085 0.62003
   1 -10   2 126.129 105.414   3 0.16862-0.16516-0.55738-0.30937-0.88703 0.65331
  -1  10  -3 5.90241 59.3001   0 0.71289-0.74008 0.40574 0.42080-0.23129 0.37659
   1 -10   3 48.7441 100.840   5-0.68213 0.70932-0.68776-0.13878-0.80365 0.65834
   1 -10   4-0.05721 44.4227   5-0.63236 0.68328-0.74576-0.04056-0.80007 0.74319
   1 -10   4 53.6519 131.815   3 0.17610-0.12519-0.67610-0.11023-0.84136 0.78448
  -1  10  -4 24.9141 88.0662   0 0.73525-0.78617 0.37880 0.40753-0.22789 0.28477
   1 -10   5 14.4490 101.573   5-0.56890 0.64354-0.80619 0.06007-0.78863 0.82016
  -1  10  -5 162.163 128.406   0 0.75030-0.82494 0.35947 0.38665-0.22528 0.19375
   1 -10   5 169.333 145.799   3 0.17828-0.10364-0.73552-0.01060-0.80547 0.83701
   1 -10   6 53.5012 117.069   3 0.17892-0.08055-0.79142 0.08551-0.76013 0.88008
  -1  10  -6 16.3913 59.6275   0 0.75916-0.85752 0.34758 0.35833-0.22361 0.10366
  -1  10  -7 207.785 140.706   0 0.76256-0.88465 0.34291 0.32279-0.22294 0.01457
   1 -10   7 181.721 151.582   3 0.17779-0.05570-0.84136 0.17566-0.70555 0.91392
   1  -9   1 28.2532 80.6740   5-0.76437 0.75861-0.56098-0.24974-0.79382 0.51545
  -1   9  -2 87.2026 109.515   0 0.71512-0.73308 0.40314 0.36737-0.23097 0.42093
   1  -9   2 112.950 122.345   5-0.73261 0.75058-0.61579-0.15472-0.80059 0.61064
   1  -9   3 636.816 181.514   3 0.17169-0.13000-0.59969-0.13061-0.87406 0.77252
  -1   9  -3 509.653 110.348   0 0.74279-0.78448 0.36924 0.36106-0.22662 0.32816
   1  -9   4 354.484 137.265   3 0.17583-0.11042-0.67042-0.01967-0.84427 0.83115
  -1   9  -4 474.179 167.394   0 0.76183-0.82724 0.34392 0.34617-0.22309 0.23621
   1  -9   5 1293.34 210.266   3 0.17835-0.08921-0.73858 0.08870-0.80332 0.87862
  -1   9  -5 1632.10 215.055   0 0.77382-0.86296 0.32699 0.32289-0.22060 0.14530
  -1   9  -6 327.093 104.431   0 0.77983-0.89270 0.31819 0.29149-0.21927 0.05555
   1  -9   6 488.166 169.214   3 0.17885-0.06599-0.80076 0.19109-0.75112 0.91484
   1  -9   7 26.0467 110.393   3 0.17713-0.04054-0.85413 0.28467-0.68852 0.94065
  -1   9  -7 122.969 101.058   0 0.78049-0.91708 0.31721 0.25225-0.21912-0.03301
  -1   9  -8 77.8533 130.046   0 0.77604-0.93636 0.32376 0.20549-0.22012-0.12044
   1  -9   8 67.4339 94.6407   3 0.17317-0.01286-0.89678 0.36753-0.61708 0.95763
  -1   9  -9-3.32716 79.4640   0 0.76640-0.95044 0.33756 0.15148-0.22216-0.20680
   1  -9   9 28.5645 69.6376   3 0.16710 0.01694-0.92779 0.43874-0.53874 0.96771
  -1   9 -10 29.2678 81.9740   0 0.75113-0.95889 0.35837 0.09046-0.22513-0.29225
  -1   8   3 114.804 136.117   4 0.85643-0.77027 0.39603 0.47928 0.72462-0.13635
  -1   8   2 11.5366 63.2161   4 0.84619-0.78375 0.41268 0.42243 0.73658-0.23672
  -1   8   1 1526.71 199.786   4 0.82791-0.78920 0.44032 0.35457 0.75593-0.34449
   1  -8   0 78.9374 78.4587   1-0.78685 0.77186-0.47958-0.27511-0.79571 0.47269
  -1   8  -1 201.710 113.822   0 0.70862-0.71735 0.41067 0.30381-0.23188 0.46648
   1  -8   1 45.8985 86.7907   5-0.77673 0.78547-0.53694-0.17754-0.78981 0.55520
  -1   8  -2 2546.43 193.148   0 0.74374-0.77620 0.36803 0.30624-0.22645 0.37264
   1  -8   2 475.602 93.3511   5-0.74038 0.77284-0.60320-0.07107-0.79935 0.65316
   1  -8   3 1160.00 192.232   3 0.17106-0.11487-0.59053-0.04353-0.87715 0.81938
   1  -8   3 109.698 72.9414   5-0.68956 0.74574-0.67811 0.04405-0.80367 0.74590
  -1   8  -3 1198.65 178.773   0 0.76814-0.82433 0.33511 0.29895-0.22181 0.27958
   1  -8   4 279.938 116.344   3 0.17597-0.09606-0.67329 0.07944-0.84281 0.87346
  -1   8  -4 462.462 141.844   0 0.78411-0.86402 0.31179 0.28206-0.21829 0.18764
   1  -8   4 19.8382 61.4350   5-0.62108 0.70099-0.75750 0.16365-0.79855 0.82919
   1  -8   5 896.864 160.518   3 0.17860-0.07497-0.75060 0.19696-0.79452 0.91358
  -1   8  -5 1245.86 194.481   0 0.79320-0.89683 0.29777 0.25587-0.21608 0.09702
  -1   8  -6 118.336 109.665   0 0.79640-0.92376 0.29269 0.22074-0.21527 0.00779
   1  -8   6-5.10706 68.0089   5-0.42438 0.55174-0.90357 0.39014-0.74211 0.94959
   1  -8   6 137.643 127.517   3 0.17856-0.05120-0.81818 0.30475-0.73296 0.94044
  -1   8  -7-1.74928 54.8572   0 0.79423-0.94532 0.29615 0.17708-0.21582-0.08008
   1  -8   7 31.7602 78.3853   3 0.17577-0.02468-0.87305 0.39982-0.66009 0.95599
   1  -8   8 796.980 192.658   3 0.17039 0.00442-0.91377 0.48076-0.57862 0.96294
  -1   8  -8 839.842 192.517   0 0.78676-0.96157 0.30775 0.12526-0.21766-0.16666
  -1   8  -9 705.726 185.049   0 0.77369-0.97223 0.32718 0.06562-0.22063-0.25210
   1  -8   9 488.254 173.588   3 0.16274 0.03579-0.94026 0.54745-0.49137 0.96411
   1  -8  10 15.0878 114.953   3 0.15323 0.06903-0.95331 0.60071-0.40082 0.96197
  -1   7   4 108.930 102.135   4 0.88592-0.79053 0.34212 0.47716 0.68443-0.05150
  -1   7   3 838.353 178.943   4 0.88131-0.80964 0.35126 0.42782 0.69139-0.14688
  -1   7   2 1426.90 195.238   4 0.87087-0.82292 0.37089 0.36798 0.70615-0.25006
  -1   7   1 679.228 124.794   4 0.85189-0.82767 0.40354 0.29512 0.73004-0.36236
   1  -7  -1 1122.10 166.193   1-0.78374 0.75952-0.38301-0.31565-0.80861 0.44093
   1  -7   0 72.2933 54.6811   1-0.78697 0.78648-0.44717-0.21128-0.80134 0.52208
  -1   7   0 132.839 96.1305   4 0.81965-0.81916 0.45206 0.20639 0.76394-0.48469
  -1   7  -1 65.3746 56.9727   4 0.76611-0.78934 0.51913 0.09911 0.80720-0.61636
  -1   7  -1 96.5008 63.0058   0 0.73535-0.75859 0.37867 0.23957-0.22787 0.41871
   1  -7   2 480.747 142.653   5-0.74224 0.78920-0.60011 0.02208-0.79901 0.69659
  -1   7  -2 665.674 119.150   0 0.76757-0.81453 0.33591 0.24212-0.22192 0.32435
   1  -7   3 102.293 103.365   3 0.17110-0.10042-0.59111 0.05328-0.87696 0.86296
  -1   7  -3 7.45012 42.7093   0 0.78904-0.85972 0.30426 0.23357-0.21711 0.23112
   1  -7   3 12.8160 56.8009   5-0.68046 0.75114-0.68989 0.15207-0.80362 0.78961
  -1   7  -4 67.7213 73.6914   0 0.80211-0.89652 0.28344 0.21417-0.21377 0.13935
   1  -7   4 6.00444 61.6766   5-0.59618 0.69058-0.78183 0.28422-0.79437 0.86878
   1  -7   4 132.108 101.365   3 0.17662-0.08221-0.68747 0.18985-0.83530 0.90971
   1  -7   5 552.094 137.960   3 0.17889-0.06076-0.77351 0.31611-0.77615 0.93898
  -1   7  -5 816.690 144.579   0 0.80836-0.92649 0.27302 0.18438-0.21204 0.04921
  -1   7  -6 680.081 150.800   0 0.80867-0.95053 0.27249 0.14471-0.21195-0.03929
   1  -7   6 438.608 133.234   3 0.17766-0.03580-0.84423 0.42703-0.70185 0.95310
  -1   7  -7 6966.47 265.659   0 0.80341-0.96899 0.28131 0.09568-0.21342-0.12625
   1  -7   7 5461.07 255.675   3 0.17312-0.00753-0.89718 0.52019-0.61627 0.95594
  -1   7  -8 554.250 150.530   0 0.79240-0.98171 0.29902 0.03776-0.21628-0.21180
   1  -7   8 481.224 149.129   3 0.16576 0.02355-0.93224 0.59546-0.52360 0.95168
   1  -7   9 6.74474 50.4129   3 0.15618 0.05685-0.95082 0.65425-0.42745 0.94395
   1  -7  10 7.54843 109.509   3 0.14493 0.09183-0.95499 0.69863-0.33053 0.93544
  -1   7 -11 59.8788 130.262   1 0.30352-0.56400 0.93279-0.71664 0.17952-0.87286
   1  -7  11 13.7282 78.7764   3 0.13244 0.12804-0.94688 0.73073-0.23456 0.92790
  -1   6   5 118.998 139.051   4 0.90748-0.80286 0.29487 0.46839 0.64748 0.03011
  -1   6   4 1369.14 176.400   4 0.90691-0.82601 0.29625 0.42680 0.64858-0.05941
  -1   6   3 51.1761 66.9632   4 0.90219-0.84502 0.30727 0.37557 0.65733-0.15658
  -1   6   2 7281.10 260.861   4 0.89155-0.85810 0.33058 0.31206 0.67554-0.26321
   1  -6  -2 8942.92 276.058   1-0.76757 0.73413-0.26767-0.37496-0.81013 0.39781
  -1   6   1 2858.45 179.941   4 0.87157-0.86185 0.36961 0.23281 0.70520-0.38129
   1  -6  -1 3731.29 203.897   1-0.77883 0.76911-0.33721-0.26521-0.81090 0.48699
  -1   6   0 2743.37 166.035   0 0.71193-0.72594 0.40685 0.15536-0.23142 0.46691
   1  -6   0 2540.69 175.329   1-0.78614 0.80014-0.41983-0.14239-0.80504 0.56955
  -1   6  -1 5947.18 194.976   0 0.75660-0.79433 0.35106 0.17095-0.22411 0.37118
   1  -6   1 5335.25 209.856   1-0.78548 0.82322-0.51121-0.01079-0.78883 0.64176
   1  -6   2 1288.49 135.011   5-0.73561 0.79706-0.61099 0.12920-0.80014 0.74148
  -1   6  -2 1905.85 139.165   0 0.78649-0.84794 0.30817 0.17362-0.21772 0.27638
  -1   6  -2 1274.61 100.362   4 0.66410-0.72555 0.61706-0.13527 0.86081-0.80216
   1  -6   3 576.207 130.081   3 0.17208-0.08690-0.60555 0.16397-0.87200 0.90176
   1  -6   3 369.149 94.2006   5-0.65682 0.74200-0.71861 0.27702-0.80252 0.83228
  -1   6  -3 600.717 125.906   0 0.80532-0.89050 0.27814 0.16345-0.21289 0.18313
   1  -6   4 1974.31 146.143   3 0.17772-0.06882-0.71645 0.31507-0.81818 0.93636
   1  -6   4 1607.49 127.302   5-0.54911 0.65802-0.82250 0.42112-0.78377 0.90195
   1  -6   5 4356.73 181.532   5-0.41424 0.54687-0.90874 0.54757-0.73800 0.94459
   1  -6   5 5431.67 247.376   3 0.17875-0.04612-0.80882 0.44766-0.74295 0.94954
  -1   6  -5 6903.60 239.088   0 0.81894-0.95157 0.25456 0.10660-0.20890 0.00231
  -1   6  -6 1059.58 133.346   0 0.81607-0.97243 0.25967 0.06129-0.20978-0.08523
   1  -6   6 813.366 133.997   3 0.17532-0.01897-0.87797 0.55701-0.65194 0.94695
  -1   6  -7 1606.78 158.668   0 0.80711-0.98719 0.27513 0.00562-0.21239-0.17104
   1  -6   7 1359.53 175.023   3 0.16821 0.01187-0.92359 0.64284-0.55175 0.93518
   1  -6   8 70.5374 78.4687   3 0.15837 0.04544-0.94816 0.70762-0.44797 0.91982
  -1   6  -8 63.8088 85.0619   0 0.79156-0.99536 0.30034-0.05980-0.21649-0.25536
   1  -6   9 101.395 70.5958   3 0.14663 0.08090-0.95519 0.75486-0.34447 0.90474
  -1   6 -10 134.373 104.319   1 0.30713-0.55839 0.93332-0.77320 0.18346-0.83214
   1  -6  10 12.2347 61.0740   3 0.13366 0.11760-0.94811 0.78799-0.24347 0.89216
   1  -6  11 146.693 153.565   3 0.11987 0.15512-0.92972 0.80981-0.14600 0.88310
  -1   6 -11 140.843 95.3673   1 0.23206-0.50704 0.91792-0.79801 0.10245-0.83955
  -1   5   6 245.353 152.441   4 0.92273-0.80888 0.25514 0.45209 0.61526 0.10697
  -1   5   5 633.974 169.663   4 0.92491-0.83479 0.24884 0.41818 0.61006 0.02376
  -1   5   4 393.757 153.736   4 0.92414-0.85775 0.25108 0.37573 0.61191-0.06651
  -1   5   3 7780.74 256.395   4 0.91940-0.87673 0.26440 0.32221 0.62286-0.16588
   1  -5  -3 9852.16 248.893   1-0.73302 0.69035-0.13044-0.45616-0.79490 0.33792
  -1   5   2 975.766 131.667   4 0.90851-0.88956 0.29239 0.25400 0.64550-0.27694
   1  -5  -2 1166.42 117.497   1-0.75278 0.73383-0.20111-0.34528-0.80494 0.43637
  -1   5   1 27.8134 42.7195   4 0.88696-0.89174 0.34002 0.16616 0.68282-0.40267
   1  -5  -1 26.0482 40.2545   1-0.77207 0.77685-0.29236-0.21382-0.81097 0.53082
  -1   5   1 76.5784 67.0951   0 0.66084-0.66562 0.46165 0.04454-0.23737 0.51751
  -1   5   0 572.870 97.4179   4 0.84569-0.87419 0.41347 0.05250 0.73715-0.54542
  -1   5   0 880.833 102.106   0 0.72728-0.75579 0.38863 0.07735-0.22916 0.42089
   1  -5   0 863.941 122.991   1-0.78507 0.81358-0.40075-0.06522-0.80709 0.61536
  -1   5  -1 1596.28 117.879   0 0.77160-0.82383 0.33019 0.09557-0.22108 0.32439
  -1   5  -1 1174.40 118.106   4 0.76705-0.81928 0.51806-0.09230 0.80655-0.70324
   1  -5   2 794.673 102.719   5-0.71481 0.79076-0.64299 0.25744-0.80260 0.78770
  -1   5  -2 723.717 74.5213   4 0.62115-0.69711 0.65013-0.26457 0.87551-0.86062
  -1   5  -3 6450.32 204.204   0 0.81637-0.91605 0.25915 0.08619-0.20969 0.13617
   1  -5   3 5054.53 204.260   3 0.17422-0.07454-0.64004 0.29469-0.85843 0.93196
   1  -5   3 4077.68 167.926   5-0.60838 0.70806-0.77018 0.42483-0.79655 0.87007
  -1   5  -4 1002.56 113.631   0 0.82389-0.94729 0.24556 0.05957-0.20734 0.04539
   1  -5   4 753.382 120.357   3 0.17880-0.05540-0.76386 0.45872-0.78416 0.94610
   1  -5   4 737.864 102.691   5-0.46636 0.58976-0.88008 0.57494-0.75806 0.92000
   1  -5   5 969.298 108.314   3 0.17702-0.02989-0.85596 0.59103-0.68594 0.93630
   1  -5   5 1067.47 107.914   5-0.29896 0.44609-0.95483 0.68990-0.68482 0.93518
   1  -5   6 12374.9 297.612   3 0.17010 0.00075-0.91521 0.69049-0.57495 0.91372
  -1   5  -6 15299.4 281.086   0 0.81721-0.98807 0.25766-0.03294-0.20944-0.12934
  -1   5  -7 859.562 148.616   0 0.80331-0.99788 0.28148-0.09697-0.21344-0.21375
   1  -5   7 528.284 125.001   3 0.15967 0.03491-0.94620 0.76169-0.46049 0.88769
   1  -5   8 1388.21 190.928   3 0.14710 0.07120-0.95520 0.81090-0.34833 0.86395
   1  -5   9 4513.15 225.858   3 0.13335 0.10868-0.94781 0.84372-0.24121 0.84524
  -1   5  -9 5819.54 276.893   1 0.30098-0.54301 0.93240-0.82831 0.17677-0.78080
   1  -5  10 1205.60 194.331   3 0.11897 0.14678-0.92823 0.86435-0.13997 0.83242
  -1   5 -10 1516.68 186.169   1 0.22415-0.48991 0.91579-0.85190 0.09400-0.78645
  -1   5 -11 167.952 107.350   1 0.14847-0.43795 0.89073-0.86706 0.01395-0.79482
   1  -5  11 302.278 153.728   3 0.10428 0.18520-0.89937 0.87570-0.04447 0.82534
  -1   4   7 18.5225 96.9485   4 0.93303-0.80996 0.22368 0.42752 0.58904 0.17785
  -1   4   6 273.136 141.520   4 0.93704-0.83769 0.21001 0.40099 0.57745 0.10102
  -1   4   5 154.935 105.425   4 0.93880-0.86318 0.20365 0.36714 0.57203 0.01802
  -1   4   4 11015.3 305.166   4 0.93791-0.88601 0.20689 0.32368 0.57479-0.07316
   1  -4  -3 706.040 99.8839   1-0.69964 0.67146-0.03404-0.45632-0.77404 0.36083
  -1   4   3 562.542 116.450   4 0.93320-0.90503 0.22312 0.26724 0.58857-0.17535
  -1   4   2 3740.88 117.870   0 0.55185-0.54741 0.55597-0.10581-0.24400 0.56880
   1  -4  -2 3377.96 142.480   1-0.73173 0.72728-0.12625-0.32391-0.79417 0.46937
   1  -4  -1 4883.42 145.561   1-0.76385 0.78313-0.24920-0.16074-0.80912 0.57274
  -1   4   1 5729.83 155.601   0 0.66011-0.67939 0.46237-0.05242-0.23744 0.47382
  -1   4   1 3721.18 159.778   4 0.89770-0.91697 0.31736 0.09259 0.66526-0.42888
  -1   4   0 7498.25 166.111   0 0.73219-0.77519 0.38260-0.01287-0.22839 0.37635
   1  -4   0 6419.19 160.345   1-0.78478 0.82778-0.39639 0.02666-0.80749 0.65953
  -1   4   0 5132.86 162.684   4 0.84628-0.88929 0.41253-0.04280 0.73648-0.58852
   1  -4   1 8529.15 196.200   5-0.76982 0.83655-0.55060 0.22107-0.79216 0.73262
  -1   4  -1 9055.43 173.307   4 0.73763-0.80435 0.54977-0.22024 0.82534-0.76580
  -1   4  -2 3468.73 105.119   4 0.52343-0.61388 0.71218-0.42286 0.89623-0.92511
   1  -4   2 3167.49 122.645   5-0.66664 0.75710-0.70699 0.41767-0.80314 0.83201
   1  -4   3 32.9625 29.3458   3 0.17724-0.06307-0.70293 0.45382-0.82648 0.94377
  -1   4  -3 10.2639 33.2314   0 0.82057-0.93475 0.25163-0.00252-0.20840 0.09111
   1  -4   3 48.9928 50.5080   5-0.51474 0.62892-0.84838 0.59927-0.77409 0.89139
   1  -4   4 33223.7 357.131   3 0.17821-0.04031-0.83063 0.62173-0.71875 0.92446
   1  -4   4 27098.9 305.320   5-0.32777 0.46567-0.94536 0.73646-0.69915 0.90486
   1  -4   5 1164.81 123.676   3 0.17135-0.00972-0.90857 0.73988-0.59132 0.88544
   1  -4   5 1029.00 93.4765   5-0.13166 0.29329-0.98587 0.81718-0.58941 0.88354
   1  -4   6 171.530 68.8948   5 0.05137 0.13398-0.97721 0.84872-0.46334 0.84589
   1  -4   6 221.548 88.8499   3 0.15976 0.02560-0.94606 0.81758-0.46137 0.84392
   1  -4   7 4129.03 210.575   3 0.14583 0.06325-0.95513 0.86686-0.33786 0.80882
   1  -4   7 3017.08 152.609   5 0.21083-0.00175-0.93440 0.84613-0.33558 0.80654
  -1   4  -8 136.679 100.752   1 0.28187-0.51467 0.92915-0.88108 0.15603-0.71541
   1  -4   8 65.9499 60.1890   3 0.13096 0.10184-0.94527 0.89721-0.22375 0.78313
  -1   4  -9 11.0945 50.4322   1 0.20367-0.46020 0.90983-0.90197 0.07220-0.72000
   1  -4   9 10.3970 62.2109   3 0.11584 0.14069-0.92274 0.91489-0.11901 0.76680
   1  -4  10 109.004 79.1260   3 0.10075 0.17951-0.89135 0.92370-0.02252 0.75873
  -1   4 -10 214.409 128.325   1 0.12803-0.40828 0.88257-0.91493-0.00744-0.72877
  -1   3   8 36.7277 122.129   4 0.93950-0.80720 0.20110 0.39407 0.56984 0.24169
  -1   3   7 287.474 115.675   4 0.94473-0.83615 0.18052 0.37445 0.55209 0.17103
  -1   3   6 11.2129 54.0344   4 0.94803-0.86318 0.16605 0.34871 0.53945 0.09525
  -1   3   5 2667.34 169.368   4 0.94941-0.88829 0.15959 0.31495 0.53378 0.01251
   1  -3  -4 877.971 89.6943   1-0.60953 0.57213 0.16156-0.59590-0.70682 0.24895
  -1   3   4 739.047 102.614   4 0.94846-0.91106 0.16410 0.27023 0.53774-0.07988
   1  -3  -3 96.5216 45.2017   1-0.64796 0.63429 0.08589-0.48002-0.73680 0.36735
  -1   3   3 82.3215 62.7170   4 0.94381-0.93014 0.18430 0.20983 0.55536-0.18591
  -1   3   2 29128.5 259.041   0 0.50293-0.51298 0.59074-0.23683-0.24495 0.52599
  -1   3   2 20383.9 282.181   4 0.93177-0.94182 0.22780 0.12611 0.59251-0.31148
  -1   3   1 12872.5 212.169   4 0.90242-0.93619 0.30675 0.00696 0.65691-0.46430
  -1   3   1 19056.8 224.793   0 0.63397-0.66774 0.48742-0.17371-0.23968 0.43229
   1  -3  -1 16186.1 203.761   1-0.75486 0.78863-0.20952-0.10419-0.80582 0.61321
   1  -3   0 19099.8 221.123   1-0.78623 0.84373-0.42183 0.14833-0.80480 0.70060
  -1   3   0 22086.0 230.958   0 0.71917-0.77667 0.39838-0.12488-0.23039 0.33458
   1  -3   1 15074.3 196.164   5-0.72509 0.80631-0.62756 0.39427-0.80158 0.78580
  -1   3  -1 15928.2 182.403   4 0.65710-0.73833 0.62273-0.38944 0.86348-0.84770
   1  -3   2 21244.7 241.559   3 0.17237-0.06742-0.60996 0.41688-0.87040 0.94304
   1  -3   2 18001.9 221.285   5-0.55916 0.66411-0.81435 0.62127-0.78631 0.85895
   1  -3   3 5431.76 132.797   5-0.34116 0.46984-0.94052 0.78764-0.70559 0.86664
  -1   3  -3 8756.25 167.930   0 0.81356-0.94223 0.26409-0.11121-0.21054 0.04948
   1  -3   3 6879.90 165.169   3 0.17885-0.05018-0.80060 0.64773-0.75128 0.91234
   1  -3   4 12910.8 209.981   3 0.17173-0.01933-0.90636 0.79369-0.59644 0.84592
   1  -3   4 10455.7 184.006   5-0.11651 0.26891-0.98680 0.87413-0.57981 0.82928
   1  -3   5 24781.8 308.258   3 0.15784 0.01828-0.94886 0.87641-0.44301 0.78090
  -1   3  -5 33154.6 316.011   0 0.80396-0.98008 0.28040-0.20794-0.21327-0.12463
   1  -3   5 19381.3 268.440   5 0.08154 0.09458-0.97166 0.89921-0.44047 0.77836
   1  -3   5 24643.8 267.128   4 0.64567-0.46954-0.61920 0.54675-0.33916 0.67705
   1  -3   6 8371.11 194.840   4 0.76680-0.56695-0.50353 0.47128-0.17905 0.60536
   1  -3   6 8853.27 227.262   3 0.14175 0.05810-0.95397 0.92172-0.30520 0.73151
  -1   3  -6 10763.7 241.846   1 0.32777-0.52762 0.93593-0.90368 0.20600-0.63231
  -1   3  -6 11602.6 208.847   0 0.78229-0.98214 0.31452-0.28228-0.21871-0.20760
   1  -3   6 7033.51 202.473   5 0.24398-0.04413-0.92118 0.88894-0.30683 0.73314
   1  -3   7 3755.17 150.858   5 0.37465-0.15107-0.85307 0.86103-0.18533 0.70005
   1  -3   7 4765.66 201.566   3 0.12544 0.09814-0.93826 0.94622-0.18440 0.69913
  -1   3  -7 5750.76 225.601   1 0.24472-0.46830 0.92114-0.92910 0.11601-0.63074
  -1   3  -8 7627.41 272.948   1 0.16673-0.41403 0.89753-0.94570 0.03314-0.63628
   1  -3   8 6992.54 260.382   3 0.10955 0.13775-0.91060 0.95877-0.07793 0.68107
   1  -3   9 26.3404 82.8909   3 0.09419 0.17683-0.87548 0.96386 0.01735 0.67421
  -1   3  -9 64.8779 90.2641   1 0.09276-0.36379 0.86715-0.95553-0.04410-0.64746
  -1   3 -10 80.0961 80.2598   1 0.02188-0.31663 0.83110-0.95969-0.11695-0.66303
  -1   2   9 31.1179 114.563   4 0.94291-0.80138 0.18794 0.35120 0.55852 0.29767
  -1   2   9 26.1746 68.3960   3-0.02250 0.16402-0.43902 0.97816 0.58765 0.26854
  -1   2   8 7.64275 68.0848   3-0.01731 0.13511-0.46362 0.96256 0.56704 0.20073
  -1   2   8 0.43393 38.5079   4 0.94911-0.83131 0.16104 0.33789 0.53505 0.23272
  -1   2   7 349.076 133.364   3-0.01336 0.10744-0.48205 0.94078 0.55106 0.12830
  -1   2   7 234.875 114.074   4 0.95338-0.85931 0.13913 0.31959 0.51563 0.16373
  -1   2   6 11088.6 302.539   4 0.95598-0.88563 0.12372 0.29480 0.50180 0.08914
  -1   2   6 11789.3 332.072   3-0.01101 0.08136-0.49290 0.91141 0.54143 0.04951
  -1   2   5 1857.87 156.808   3-0.01085 0.05747-0.49367 0.87197 0.54074-0.03822
  -1   2   5 1601.09 143.132   4 0.95698-0.91036 0.11717 0.26113 0.49589 0.00663
  -1   2   4 387.886 90.7721   3-0.01384 0.03674-0.47986 0.81796 0.55298-0.13888
   1  -2  -4 374.876 60.6223   1-0.50621 0.48331 0.33091-0.66901-0.62042 0.20632
  -1   2   4 280.480 63.9016   4 0.95602-0.93312 0.12348 0.21462 0.50158-0.08748
  -1   2   3 649.923 92.3912   4 0.95145-0.95227 0.14950 0.14839 0.52485-0.19917
  -1   2   3 598.956 71.7112   3-0.02165 0.02083-0.44305 0.74094 0.58432-0.25864
   1  -2  -3 879.309 83.2908   1-0.55871 0.55953 0.24996-0.54785-0.66518 0.33950
  -1   2   3 916.380 60.4167   0 0.13186-0.13268 0.75262-0.45474-0.22485 0.55053
  -1   2   2 2323.97 71.9846   0 0.37554-0.40009 0.66451-0.40683-0.24293 0.48020
  -1   2   2 1574.70 98.5498   4 0.93770-0.96225 0.20763 0.05005 0.57542-0.33816
   1  -2  -2 1965.07 74.7477   1-0.64496 0.66951 0.09214-0.34982-0.73452 0.49725
   1  -2  -1 66274.0 302.276   1-0.74704 0.79532-0.17902-0.03845-0.80229 0.65344
  -1   2   1 76414.9 338.278   0 0.55085-0.59912 0.55672-0.33925-0.24403 0.39288
  -1   2   1 52074.2 332.162   4 0.89666-0.94493 0.31965-0.10218 0.66704-0.51820
  -1   2   0 146756. 471.579   0 0.66567-0.73767 0.45680-0.27954-0.23690 0.29733
  -1   2   0 99103.6 382.297   4 0.77189-0.84389 0.51253-0.33527 0.80315-0.74272
  -1   2  -1 6005.86 118.308   0 0.73396-0.82969 0.38041-0.24335-0.22810 0.20011
  -1   2  -1 3986.55 95.0778   4 0.44820-0.54393 0.74976-0.61271 0.90235-0.93034
   1  -2   1 3866.89 110.076   5-0.59878 0.69450-0.77938 0.64233-0.79485 0.82284
   1  -2   2 8318.92 140.086   5-0.32612 0.44556-0.94594 0.84910-0.69835 0.81475
  -1   2  -2 13162.9 160.650   0 0.76936-0.88881 0.33338-0.23654-0.22155 0.10515
   1  -2   2 10376.4 157.936   3 0.17877-0.05933-0.76156 0.66472-0.78601 0.90241
  -1   2  -3 20802.4 208.951   0 0.78162-0.92480 0.31552-0.25889-0.21886 0.01404
   1  -2   3 12655.5 177.514   5-0.06088 0.20406-0.98762 0.93099-0.54326 0.74808
   1  -2   3 16068.3 202.863   3 0.17033-0.02716-0.91406 0.85742-0.57791 0.78273
   1  -2   4 1953.70 99.9833   4 0.63851-0.47161-0.62484 0.60841-0.34746 0.64070
  -1   2  -4 2448.40 85.5169   0 0.77588-0.94278 0.32400-0.30757-0.22015-0.07309
   1  -2   4 1485.03 91.0885   5 0.14878 0.01812-0.95506 0.93864-0.38734 0.68058
   1  -2   4 1955.52 95.7220   3 0.15174 0.01516-0.95415 0.93772-0.38768 0.68092
   1  -2   5 24447.4 282.073   4 0.76037-0.56975-0.51084 0.53463-0.18869 0.57035
   1  -2   5 25051.2 294.337   3 0.13252 0.05810-0.94697 0.97075-0.23514 0.61680
  -1   2  -5 33263.0 265.867   0 0.75329-0.94391 0.35550-0.37929-0.22473-0.15693
   1  -2   5 19519.4 261.666   5 0.30592-0.11530-0.89220 0.91599-0.25091 0.63257
  -1   2  -5 30773.6 362.316   1 0.26277-0.45339 0.92530-0.94908 0.13540-0.51706
   1  -2   6 799.531 105.871   4 0.83495-0.62060-0.41388 0.47787-0.06528 0.53535
   1  -2   6 585.308 79.4095   5 0.42536-0.21101-0.81902 0.88302-0.13430 0.60437
   1  -2   6 865.080 107.967   3 0.11480 0.09955-0.92083 0.98483-0.11212 0.58219
  -1   2  -6 855.589 97.1360   1 0.18186-0.39621 0.90280-0.96680 0.04910-0.51917
   1  -2   7 15219.5 291.741   4 0.88380-0.64573-0.32935 0.43355 0.03583 0.52266
  -1   2  -7 18621.3 366.019   1 0.10801-0.34608 0.87403-0.97823-0.02828-0.53021
   1  -2   7 12691.1 273.206   5 0.51907-0.28099-0.74275 0.84695-0.03322 0.59171
   1  -2   7 16323.8 335.375   3 0.09858 0.13949-0.88625 0.99045-0.00923 0.56772
   1  -2   8 257.962 108.757   3 0.08350 0.17829-0.84708 0.99149 0.08007 0.56684
  -1   2  -8 340.180 124.602   1 0.03907-0.30087 0.84046-0.98487-0.09938-0.54753
   1  -2   8 255.251 86.0472   4 0.91704-0.65524-0.25311 0.39752 0.12269 0.52422
   1  -2   9 137.173 105.631   3 0.06921 0.21631-0.80473 0.98935 0.16002 0.57530
  -1   2  -9 219.781 108.352   1-0.02643-0.25909 0.80271-0.98733-0.16595-0.56938
  -1   1  10 37.8840 114.651   3-0.00661 0.15737-0.51293 0.99605 0.52318 0.37767
  -1   1  10 36.5512 67.8004   4 0.94369-0.79294 0.18478 0.29833 0.55578 0.34506
  -1   1   9 192.039 91.0339   3 0.00094 0.12609-0.54655 0.98946 0.49115 0.32128
  -1   1   9 108.089 82.3985   4 0.95092-0.82389 0.15216 0.29074 0.52721 0.28521
  -1   1   8 936.063 166.294   4 0.95600-0.85269 0.12361 0.27909 0.50170 0.22231
  -1   1   8 842.953 185.191   3 0.00775 0.09556-0.57605 0.97874 0.46150 0.26251
  -1   1   7 1456.23 153.108   3 0.01366 0.06592-0.60102 0.96351 0.43516 0.20043
  -1   1   7 1307.96 152.313   4 0.95930-0.87972 0.10019 0.26229 0.48044 0.15515
  -1   1   6 38.4269 68.1540   3 0.01842 0.03743-0.62066 0.94294 0.41360 0.13358
  -1   1   6 52.5238 71.9781   4 0.96117-0.90532 0.08372 0.23856 0.46529 0.08188
  -1   1   5 1709.90 127.820   4 0.96180-0.92967 0.07726 0.20481 0.45931-0.00056
   1  -1  -5 2038.80 103.105   1-0.31961 0.28748 0.56123-0.84330-0.45160-0.00716
  -1   1   5 1766.13 121.639   3 0.02155 0.01058-0.63337 0.91544 0.39921 0.05955
   1  -1  -4 25106.3 241.481   1-0.32951 0.32110 0.55079-0.79265-0.46085 0.09051
  -1   1   4 20538.9 278.152   4 0.96089-0.95249 0.08639 0.15547 0.46776-0.09742
  -1   1   4 20727.9 288.611   3 0.02219-0.01378-0.63594 0.87780 0.39626-0.02592
  -1   1   3 19172.3 234.545   4 0.95625-0.97157 0.12202 0.07963 0.50027-0.21835
  -1   1   3 19773.0 245.047   3 0.01857-0.03389-0.62125 0.82291 0.41293-0.13101
  -1   1   2 12990.8 181.659   3 0.00662-0.04566-0.57121 0.73265 0.46647-0.27297
  -1   1   2 12393.8 172.651   4 0.93789-0.97694 0.20695-0.04551 0.57485-0.38135
  -1   1   1 104479. 370.246   4 0.86189-0.92467 0.38677-0.26553 0.71787-0.61279
  -1   1   1 86609.0 336.506   3-0.02433-0.03844-0.43021 0.55144 0.59483-0.48975
   1  -1   0 4079.06 77.1610   5-0.63059 0.71709-0.74764 0.66662-0.79985 0.78318
   1  -1   1 108451. 355.735   5-0.24385 0.35407-0.96943 0.92862-0.65561 0.72736
   1  -1   2 15647.7 169.134   5 0.06819 0.06575-0.97426 0.97366-0.45066 0.61083
  -1   1  -2 23993.6 215.227   1 0.32631-0.46025 0.93577-0.93516 0.20440-0.36457
   1  -1   2 20231.6 165.672   3 0.16227-0.02832-0.94132 0.94071-0.48646 0.64663
  -1   1  -3 1773.60 97.3077   1 0.22844-0.38611 0.91695-0.95656 0.09858-0.34717
   1  -1   3 1313.46 92.2152   5 0.26816-0.11049-0.91055 0.95015-0.28534 0.53393
   1  -1   3 1570.12 94.3776   4 0.65813-0.50046-0.60913 0.64873-0.32445 0.57304
  -1   1  -3 2157.97 68.6850   0 0.66809-0.82576 0.45435-0.49396-0.23665-0.01193
   1  -1   3 1571.06 78.6623   3 0.13430 0.02337-0.94873 0.98833-0.24822 0.49681
  -1   1  -4 2196.01 113.029   1 0.15049-0.33189 0.89151-0.97132 0.01607-0.35308
   1  -1   4 1603.69 102.117   4 0.77125-0.58985-0.49837 0.57818-0.17230 0.50931
   1  -1   4 1374.13 74.9336   5 0.40160-0.22020-0.83555 0.91537-0.15850 0.49551
   1  -1   4 1912.91 102.931   3 0.11266 0.06873-0.91679 0.99660-0.09810 0.43510
  -1   1  -4 2421.98 74.7293   0 0.64639-0.82779 0.47574-0.55555-0.23867-0.09833
   1  -1   5 44.8584 64.3345   5 0.49827-0.29315-0.76133 0.88135-0.05649 0.48191
  -1   1  -5 40.6757 32.3043   1 0.08295-0.28807 0.86256-0.98258-0.05426-0.37116
   1  -1   5 74.9458 72.0632   3 0.09541 0.10971-0.87852 0.99854 0.01004 0.41538
   1  -1   5 39.9071 53.6360   4 0.83919-0.63407-0.40738 0.52741-0.05732 0.48274
   1  -1   6 15695.5 278.870   5 0.57324-0.34439-0.68925 0.84948 0.03000 0.48384
   1  -1   6 19825.6 309.095   3 0.08060 0.14824-0.83887 0.99910 0.09664 0.41720
  -1   1  -6 24290.8 374.946   1 0.02132-0.25016 0.83078-0.99102-0.11752-0.39632
   1  -1   6 19035.2 316.069   4 0.88396-0.65511-0.32903 0.48926 0.03620 0.47764
   1  -1   7 184.129 95.6781   4 0.91499-0.66242-0.25852 0.45896 0.11665 0.48560
   1  -1   7 61.7497 60.2808   5 0.63421-0.38164-0.61858 0.81902 0.10648 0.49578
   1  -1   7 149.679 96.9094   3 0.06718 0.18539-0.79833 0.99877 0.17105 0.43120
  -1   1  -7 120.265 58.8542   1-0.03675-0.21582 0.79624-0.99668-0.17635-0.42591
   1  -1   8 6248.21 226.747   3 0.05452 0.22178-0.75657 0.99722 0.23797 0.45271
   1  -1   8 5884.30 242.066   4 0.93679-0.66049-0.19288 0.43353 0.18870 0.50198
  -1   1  -9 142.224 111.671   1-0.14714-0.15288 0.71817-0.99902-0.28608-0.49302
   1  -1   9 149.389 133.399   4 0.95163-0.65161-0.13024 0.41110 0.25507 0.52402
  -1   0  10 56.6167 103.557   3 0.01644 0.11982-0.61252 0.99939 0.42263 0.43444
  -1   0   9 1433.32 160.758   4 0.95653-0.84400 0.12016 0.22651 0.49858 0.27008
  -1   0   9 1369.36 185.945   3 0.02558 0.08695-0.64950 0.99617 0.38043 0.38823
  -1   0   8 366.715 136.997   3 0.03436 0.05444-0.68360 0.99006 0.33869 0.34155
  -1   0   8 479.746 116.524   4 0.96052-0.87172 0.08982 0.21664 0.47092 0.20932
  -1   0   7 1224.13 147.260   3 0.04276 0.02232-0.71492 0.98117 0.29758 0.29425
  -1   0   7 1288.89 159.246   4 0.96285-0.89777 0.06480 0.20144 0.44772 0.14410
  -1   0   6 6241.90 197.959   4 0.96397-0.92262 0.04730 0.17874 0.43128 0.07213
  -1   0   6 6819.55 227.106   3 0.05073-0.00938-0.74345 0.96949 0.25742 0.24598
  -1   0   5 10500.7 219.484   3 0.05821-0.04058-0.76908 0.95491 0.21877 0.19622
  -1   0   5 9860.61 208.548   4 0.96425-0.94662 0.04146 0.14437 0.42576-0.01077
  -1   0   4 35493.9 332.913   3 0.06501-0.07110-0.79142 0.93704 0.18272 0.14385
  -1   0   4 34770.2 305.519   4 0.96348-0.96957 0.05580 0.08982 0.43929-0.11272
  -1   0   3 3687.64 122.498   3 0.07074-0.10055-0.80947 0.91489 0.15168 0.08647
  -1   0   3 3313.16 95.7911   4 0.95799-0.98781 0.11013-0.00472 0.48950-0.25135
  -1   0   2 2996.91 83.7460   4 0.92208-0.97562 0.25698-0.19177 0.61677-0.46704
  -1   0   2 3297.05 89.4552   3 0.07421-0.12775-0.82007 0.88528 0.13254 0.01720
  -1   0   2 3541.16 101.125   2-0.93838 0.88484-0.47798 0.54319-0.44577 0.59551
   1   0   0 1092.49 46.1074   5 0.05049 0.05050-0.97735 0.99257-0.46400 0.49110
  -1   0  -1 5436.27 114.224   2 0.46244-0.58716 0.03975-0.09517-0.65721 0.54169
  -1   0  -1 5756.41 109.382   1 0.00473-0.12945 0.82137-0.87680-0.13440 0.01888
   1   0   2 11767.6 165.918   4 0.70902-0.56057-0.56404 0.65967-0.26057 0.46450
  -1   0  -2 14123.0 179.476   1-0.00325-0.14519 0.81671-0.91235-0.14250-0.06143
   1   0   2 9568.03 148.272   5 0.44752-0.29908-0.80264 0.89827-0.11124 0.31517
   1   0   2 12041.1 133.505   3 0.08028 0.06817-0.83793 0.93356 0.09851 0.10543
   1   0   3 45988.9 301.778   3 0.07067 0.10150-0.80927 0.94511 0.15204 0.14031
  -1   0  -3 54693.3 377.382   1-0.02855-0.14362 0.80139-0.93723-0.16808-0.12427
   1   0   3 45386.2 337.394   4 0.80046-0.62829-0.46231 0.59815-0.12581 0.41816
   1   0   3 36876.2 307.949   5 0.52864-0.35647-0.73385 0.86969-0.02233 0.31468
   1   0   4 6990.31 194.421   4 0.85528-0.65939-0.38147 0.55752-0.02588 0.40665
  -1   0  -4 8667.63 200.670   1-0.06119-0.13470 0.78037-0.95642-0.20088-0.17989
   1   0   4 7472.27 163.598   3 0.06163 0.13427-0.78043 0.95648 0.20075 0.18001
   1   0   4 5704.22 169.459   5 0.58964-0.39375-0.67143 0.84748 0.04997 0.33080
   1   0   5 1755.24 126.950   4 0.89219-0.67257-0.31206 0.52832 0.05586 0.41332
   1   0   5 2065.59 131.207   3 0.05264 0.16698-0.75010 0.96636 0.24765 0.22154
  -1   0  -5 2294.25 128.751   1-0.09777-0.12185 0.75512-0.97138-0.23735-0.23184
   1   0   5 1441.19 116.463   5 0.63960-0.41998-0.61170 0.82796 0.11356 0.35563
   1   0   6 920.085 120.736   5 0.68243-0.43909-0.55269 0.80916 0.17205 0.38556
   1   0   6 1093.14 118.206   3 0.04354 0.19980-0.71778 0.97425 0.29367 0.26393
   1   0   6 1078.33 153.186   4 0.91851-0.67517-0.24914 0.50561 0.12711 0.43049
  -1   0  -6 1264.77 127.824   1-0.13681-0.10654 0.72618-0.98265-0.27592-0.28168
  -1   0  -7 273.078 120.212   1-0.17757-0.08950 0.69370-0.99038-0.31583-0.33020
   1   0   7 153.986 82.5814   3 0.03425 0.23281-0.68319 0.97987 0.33921 0.30681
   1   0   7 156.614 105.828   4 0.93760-0.67053-0.18999 0.48667 0.19181 0.45421
   1   0   7 293.326 132.220   5 0.72003-0.45296-0.49319 0.78987 0.22731 0.41871
   1   0   8 1417.34 180.821   4 0.95110-0.66030-0.13301 0.46989 0.25219 0.48225
  -1   0  -8 1547.26 190.771   1-0.21967-0.07112 0.65766-0.99455-0.35662-0.37782
   1   0   9 457.191 179.361   4 0.95986-0.64534-0.07716 0.45426 0.30957 0.51329
   1   0  10 15.0700 65.8038   4 0.96430-0.62606-0.02174 0.43905 0.36481 0.54647
  -1  -1  11 92.3690 110.113   3 0.02899 0.11649-0.66291 0.99376 0.36436 0.53737
  -1  -1  10 14.1338 79.8693   3 0.03988 0.08187-0.70435 0.99499 0.31177 0.50154
  -1  -1   9 563.385 165.827   3 0.05069 0.04734-0.74332 0.99375 0.25762 0.46728
  -1  -1   8 188.720 96.1649   3 0.06153 0.01278-0.78011 0.99033 0.20128 0.43520
  -1  -1   8 139.600 84.6680   4 0.96311-0.88880 0.06135 0.14887 0.44449 0.19198
  -1  -1   7 3116.46 182.952   3 0.07254-0.02195-0.81500 0.98501 0.14179 0.40627
  -1  -1   7 3068.75 158.270   4 0.96451-0.91393 0.03485 0.13516 0.41949 0.12857
  -1  -1   6 16259.0 255.403   4 0.96492-0.93806 0.01680 0.11301 0.40223 0.05741
  -1  -1   6 16114.9 292.300   3 0.08394-0.05708-0.84829 0.97809 0.07758 0.38206
   1   1  -6 20188.1 265.458   1 0.09746-0.12431 0.86930-0.99910-0.03924-0.42040
   1   1  -5 1153.65 73.2731   1 0.19960-0.20273 0.90857-0.99816 0.06788-0.43910
  -1  -1   5 1020.54 116.326   3 0.09610-0.09297-0.88023 0.96983 0.00584 0.36539
  -1  -1   5 899.395 63.8596   5 0.72572-0.72258-0.48343 0.57302 0.23605 0.13517
  -1  -1   5 1017.83 91.8353   4 0.96495-0.96181 0.01325 0.07634 0.39883-0.02760
  -1  -1   4 13225.6 167.911   4 0.96434-0.98494 0.03928 0.01011 0.42369-0.14088
  -1  -1   4 13835.5 214.763   3 0.10970-0.13029-0.91092 0.96030-0.07892 0.36173
  -1  -1   3 29542.2 248.811   3 0.12606-0.17038-0.93912 0.94830-0.18877 0.38316
  -1  -1   3 32238.6 266.122   2-0.94082 0.89650-0.47467 0.48384-0.42647 0.62085
  -1  -1   2 8101.70 130.661   2-0.86230 0.79426-0.50032 0.46928-0.68390 0.78987
  -1  -1   2 7790.86 117.119   3 0.14785-0.21589-0.95518 0.92415-0.35453 0.46050
   1   1   0 32107.9 195.194   5 0.66343-0.54794-0.57989 0.69134 0.14558-0.07472
  -1  -1   0 46177.4 241.209   1-0.47206 0.35657 0.37907-0.49052-0.59054 0.51968
  -1  -1  -1 27970.4 227.605   2 0.40342-0.54264 0.00472-0.15638-0.70764 0.54836
   1   1   1 19404.9 195.686   5 0.65579-0.51657-0.59035 0.74201 0.13518 0.02410
  -1  -1  -1 28002.8 233.020   1-0.33074 0.19152 0.54948-0.70114-0.46200 0.30272
   1   1   1 23660.2 219.656   4 0.79000-0.65078-0.47568 0.62735-0.14291 0.30219
  -1  -1  -2 5429.40 141.718   1-0.26813 0.10519 0.61290-0.80477-0.40301 0.15531
   1   1   2 3608.60 115.719   5 0.66848-0.50554-0.57282 0.76469 0.15254 0.09516
   1   1   2 4597.97 106.238   3-0.00371 0.16665-0.52598 0.71785 0.51096-0.26326
   1   1   2 4468.03 143.434   4 0.84587-0.68293-0.39688 0.58875-0.04451 0.29221
   1   1   3 3376.36 117.660   3 0.00950 0.17717-0.58349 0.81557 0.45377-0.11766
   1   1   3 2587.29 129.663   5 0.68854-0.50187-0.54357 0.77565 0.18075 0.15537
   1   1   3 3128.56 139.678   4 0.88171-0.69504-0.33350 0.56558 0.03099 0.30513
  -1  -1  -3 3884.79 126.275   1-0.24605 0.05939 0.63374-0.86582-0.38195 0.04583
   1   1   4 35405.6 390.358   4 0.90756-0.69717-0.27722 0.54951 0.09563 0.32891
   1   1   4 36694.9 352.603   3 0.01295 0.19744-0.59803 0.87031 0.43838-0.01385
   1   1   4 29736.2 358.610   5 0.71144-0.50105-0.50753 0.77982 0.21430 0.21024
  -1  -1  -4 43167.0 412.629   1-0.24578 0.03539 0.63399-0.90628-0.38169-0.04285
   1   1   5 2711.57 170.428   4 0.92711-0.69299-0.22451 0.53700 0.15431 0.35864
   1   1   5 2760.17 154.624   3 0.01177 0.22235-0.59309 0.90559 0.44365 0.06930
  -1  -1  -5 3156.15 159.535   1-0.25833 0.02422 0.62224-0.93474-0.39368-0.11928
   1   1   6 116.622 83.0537   3 0.00800 0.24984-0.57712 0.92983 0.46039 0.14098
  -1  -1  -6 73.4458 73.4331   1-0.27904 0.02120 0.60231-0.95502-0.41337-0.18800
   1   1   6 131.514 115.433   4 0.94196-0.68412-0.17358 0.52629 0.20939 0.39198
   1   1   7 1079.18 164.427   3 0.00257 0.27899-0.55371 0.94663 0.48409 0.20570
  -1  -1  -7 1160.86 158.533   1-0.30530 0.02374 0.57604-0.96895-0.43817-0.25162
   1   1   7 1118.77 171.588   4 0.95290-0.67134-0.12346 0.51637 0.26212 0.42766
   1   1   8 21.4484 76.3826   4 0.96028-0.65499-0.07351 0.50664 0.31326 0.46495
   1   1   9 4.14108 69.4192   4 0.96423-0.63522-0.02332 0.49666 0.36326 0.50336
  -1  -2  11 195.858 136.191   3 0.05080 0.08018-0.74370 0.97831 0.25706 0.60090
  -1  -2  10 351.611 147.702   3 0.06293 0.04434-0.78468 0.97908 0.19386 0.57569
  -1  -2   9 2365.49 197.240   3 0.07519 0.00834-0.82302 0.97721 0.12708 0.55404
  -1  -2   8 40.0302 53.5745   3 0.08776-0.02795-0.85874 0.97272 0.05543 0.53728
  -1  -2   7 1982.52 140.199   3 0.10084-0.06475-0.89156 0.96533-0.02308 0.52737
   1   2  -7 2428.72 124.058   1 0.21141-0.24750 0.91215-0.98593 0.08043-0.58472
  -1  -2   6 9505.47 175.726   4 0.96486-0.95250-0.00275 0.03631 0.38336 0.03252
  -1  -2   6 9803.76 241.372   3 0.11471-0.10235-0.92067 0.95423-0.11152 0.52740
  -1  -2   5 7096.66 110.491   5 0.50890-0.52027-0.75196 0.74532-0.04466 0.37212
  -1  -2   5 8573.21 204.224   3 0.12973-0.14109-0.94384 0.93719-0.21482 0.54228
  -1  -2   5 8511.96 138.417   4 0.96492-0.97628 0.00165-0.00830 0.38763-0.06017
  -1  -2   4 2231.36 112.089   3 0.14619-0.18127-0.95517 0.90831-0.34080 0.57984
  -1  -2   4 862.158 43.4924   5 0.27824-0.31333-0.90586 0.85901-0.27626 0.51530
  -1  -2   3 47438.4 310.258   2-0.90512 0.84630-0.49586 0.40880-0.58634 0.73696
  -1  -2   3 44452.4 313.653   3 0.16361-0.22242-0.93821 0.85114-0.50040 0.65102
  -1  -2   2 72125.7 333.871   1-0.78680 0.70426-0.43843 0.31116-0.80262 0.86483
  -1  -2   2 63438.6 322.713   3 0.17749-0.26003-0.84766 0.72039-0.69733 0.75954
  -1  -2   2 67860.0 319.625   2-0.74716 0.66462-0.48708 0.35981-0.83294 0.89515
  -1  -2   1 78917.1 325.344   3 0.17154-0.27780-0.59748 0.43000-0.87482 0.84861
  -1  -2   1 81517.1 329.981   2-0.36596 0.25970-0.36834 0.20086-0.98997 0.96376
  -1  -2   0 400.817 64.9549   1-0.60092 0.47094 0.17737-0.38506-0.69991 0.58528
  -1  -2   0 322.504 42.9567   2 0.06999-0.19998-0.17468-0.03301-0.90959 0.79496
   1   2   0 326.802 53.8169   4 0.88521-0.75522-0.32652 0.53421 0.03912 0.07551
  -1  -2  -1 792.720 81.9563   2 0.33284-0.48655-0.03573-0.21216-0.76154 0.55849
  -1  -2  -1 706.668 64.9195   1-0.50251 0.34880 0.33628-0.58418-0.61721 0.41416
   1   2   1 611.608 72.5240   4 0.89973-0.74601-0.29554 0.54344 0.07482 0.12823
  -1  -2  -2 23964.8 280.378   1-0.43954 0.26210 0.42211-0.71022-0.56161 0.27015
  -1  -2  -2 24010.1 284.618   2 0.46086-0.63830 0.03879-0.32690-0.65863 0.36716
   1   2   2 19543.5 267.590   4 0.91426-0.73682-0.26043 0.54854 0.11451 0.17695
   1   2   3 5569.72 174.005   4 0.92761-0.72644-0.22298 0.55130 0.15598 0.22390
  -1  -2  -3 6861.42 201.145   1-0.40512 0.20396 0.46501-0.79333-0.53054 0.15066
   1   2   4 252.031 88.7714   4 0.93927-0.71438-0.18386 0.55239 0.19839 0.26991
   1   2   4 248.098 62.5053   3-0.02638 0.25127-0.42028 0.78881 0.60280-0.13450
  -1  -2  -4 314.833 104.660   1-0.39071 0.16582 0.48222-0.85075-0.51740 0.04910
   1   2   5 1914.49 134.518   3-0.02325 0.27186-0.43540 0.84414 0.59061-0.03389
  -1  -2  -5 2393.31 170.005   1-0.39012 0.14151 0.48291-0.89165-0.51687-0.03985
   1   2   5 1897.84 170.928   4 0.94899-0.70038-0.14336 0.55209 0.24136 0.31536
   1   2   6 5219.88 230.275   3-0.02356 0.29590-0.43389 0.88284 0.59184 0.05330
   1   2   6 4943.36 231.255   4 0.95656-0.68422-0.10159 0.55053 0.28469 0.36045
   1   2   7-26.3800 53.0887   4 0.96182-0.66576-0.05859 0.54774 0.32827 0.40528
  -1  -2  -7 9.19860 70.3495   1-0.41544 0.11938 0.45242-0.94158-0.53990-0.19365
   1   2   8-2.98720 44.4748   4 0.96458-0.64479-0.01437 0.54373 0.37203 0.44994
  -1  -3  11 32.7371 77.2628   3 0.07162 0.04487-0.81219 0.95056 0.14685 0.66735
  -1  -3  10 44.9845 71.1233   3 0.08463 0.00814-0.85020 0.94836 0.07361 0.65217
  -1  -3   9 80.1074 85.3535   3 0.09784-0.02880-0.88446 0.94242-0.00469 0.64206
  -1  -3   8 20856.3 411.525   3 0.11136-0.06605-0.91425 0.93200-0.08965 0.63860
   1   3  -8 25120.2 367.917   1 0.27705-0.32236 0.92823-0.94598 0.15081-0.69976
  -1  -3   7 4468.04 193.200   3 0.12530-0.10371-0.93805 0.91559-0.18340 0.64392
  -1  -3   6 8895.03 233.713   3 0.13964-0.14177-0.95286 0.89019-0.28867 0.66078
  -1  -3   5 1579.53 100.798   3 0.15410-0.17997-0.95269 0.84981-0.40857 0.69227
  -1  -3   5 1362.43 60.7295   5 0.08876-0.11462-0.97016 0.86728-0.43491 0.71861
  -1  -3   4 6147.56 154.195   2-0.92914 0.87956-0.48611 0.34302-0.49904 0.69431
  -1  -3   4 4856.48 91.8074   5-0.33403 0.28444-0.94313 0.80004-0.70218 0.89745
  -1  -3   4 6110.48 169.774   3 0.16763-0.21721-0.92587 0.78278-0.54483 0.74010
  -1  -3   3 35172.7 276.537   2-0.85219 0.77888-0.50023 0.31693-0.70180 0.80866
  -1  -3   3 33502.9 291.101   3 0.17728-0.25060-0.85149 0.66819-0.69216 0.79902
  -1  -3   2 47693.7 288.607   2-0.64739 0.55036-0.46328 0.23977-0.90674 0.92518
  -1  -3   2 43925.4 319.286   3 0.17723-0.27427-0.70268 0.47917-0.82663 0.84507
  -1  -3   2 50936.2 351.452   1-0.78124 0.68420-0.35732 0.13381-0.81018 0.82861
   1   3  -1 111.371 46.8326   4 0.95581-0.83505-0.10641 0.37013 0.27973-0.20975
  -1  -3   1 104.885 42.7876   2-0.29854 0.17778-0.34154 0.07782-0.99170 0.92172
  -1  -3   1 82.7557 49.9270   1-0.73269 0.61192-0.12934-0.13437-0.79471 0.72473
  -1  -3   0 5.87561 22.6948   2 0.03789-0.18237-0.19049-0.11344-0.92250 0.76410
   1   3   0 28.7232 52.5464   4 0.94669-0.80220-0.15392 0.45784 0.23025-0.07185
  -1  -3   0 4.90667 20.8064   1-0.66256 0.51807 0.05453-0.35846-0.74775 0.58935
  -1  -3  -1 2837.24 119.911   2 0.25444-0.42265-0.07901-0.26512-0.81396 0.56715
  -1  -3  -1 3010.26 126.766   1-0.59763 0.42942 0.18331-0.52745-0.69725 0.45043
  -1  -3  -2 7937.01 203.110   1-0.54883 0.35689 0.26592-0.65026-0.65688 0.32165
  -1  -3  -2 7627.89 183.860   2 0.37455-0.56649-0.01201-0.37234-0.73050 0.39527
  -1  -3  -3 366.699 89.3425   2 0.43837-0.65403 0.02532-0.44988-0.67841 0.25476
   1   3   3 430.153 116.771   4 0.95235-0.73669-0.12647 0.55103 0.25899 0.16466
  -1  -3  -3 413.492 95.0276   1-0.51707 0.30141 0.31489-0.73945-0.62980 0.20616
  -1  -3  -4 1625.30 135.650   1-0.49982 0.26043 0.34017-0.80493-0.61487 0.10280
  -1  -3  -4 1790.65 159.191   2 0.47003-0.70942 0.04434-0.50910-0.65033 0.13827
  -1  -3  -5 6566.68 237.533   1-0.49406 0.23095 0.34841-0.85338-0.60985 0.00937
  -1  -3  -5 6636.03 250.054   2 0.48219-0.74530 0.05173-0.55671-0.63913 0.03865
   1   3   5 5353.99 230.888   4 0.96097-0.69785-0.06725 0.57222 0.31958 0.28091
  -1  -3  -6 2143.43 201.402   2 0.48156-0.76839 0.05135-0.59653-0.63972-0.04918
  -1  -3  -6 1965.02 209.883   1-0.49722 0.21038 0.34390-0.88908-0.61261-0.07630
  -1  -3  -7 104.608 88.5066   2 0.47181-0.78237 0.04542-0.63081-0.64871-0.12861
   1   3   7 44.9221 82.2664   4 0.96494-0.65438 0.00492 0.58048 0.39078 0.38653
  -1  -3  -8 48.0696 105.538   2 0.45506-0.78935 0.03531-0.66091-0.66380-0.20194
  -1  -4  11 10.3761 87.0864   3 0.09072 0.01127-0.86659 0.90872 0.03801 0.73243
  -1  -4  10 61.2533 76.7993   3 0.10410-0.02584-0.89899 0.90091-0.04339 0.72541
  -1  -4   9 1656.68 184.562   3 0.11754-0.06300-0.92577 0.88748-0.13033 0.72393
  -1  -4   8 729.108 103.040   3 0.13100-0.10018-0.94531 0.86682-0.22401 0.72919
  -1  -4   7 2707.06 184.324   3 0.14432-0.13723-0.95486 0.83615-0.32563 0.74239
  -1  -4   6 6015.25 210.036   3 0.15709-0.17372-0.94981 0.79090-0.43589 0.76424
  -1  -4   5 2270.66 140.725   3 0.16839-0.20875-0.92288 0.72376-0.55386 0.79379
  -1  -4   5 2145.97 113.837   2-0.94200 0.90164-0.47271 0.27359-0.41555 0.65547
  -1  -4   4 8975.51 210.359   3 0.17650-0.24059-0.86375 0.62442-0.67459 0.82610
  -1  -4   4 7377.42 136.228   5-0.60872 0.54463-0.76984 0.53051-0.79661 0.94811
  -1  -4   3 1962.40 110.074   1-0.78552 0.69771-0.51059 0.23105-0.78898 0.85207
  -1  -4   3 1794.03 127.189   3 0.17877-0.26658-0.76154 0.48200-0.78602 0.84911
  -1  -4   3 1952.83 92.2601   2-0.80202 0.71421-0.49614 0.21660-0.77429 0.83738
  -1  -4   2 18133.9 252.043   3 0.17258-0.28412-0.61325 0.29350-0.86919 0.84386
  -1  -4   2 20013.2 259.355   1-0.77879 0.66725-0.33687 0.01712-0.81090 0.78558
  -1  -4   2 19280.5 209.007   2-0.58639 0.47485-0.44556 0.12581-0.93761 0.91229
   1   4  -2 16265.4 165.602   4 0.94733-0.83579 0.16925 0.15050 0.54225-0.51693
   1   4  -1 8.13462 27.3364   4 0.96477-0.82951 0.02595 0.33401 0.41100-0.29726
  -1  -4   1 7.37125 28.5018   1-0.74546 0.61020-0.17318-0.18678-0.80151 0.68777
  -1  -4   1 17.2071 37.4252   2-0.28738 0.15212-0.33698-0.02297-0.99144 0.87769
   1   4   0 2119.98 109.428   4 0.96380-0.80482-0.03192 0.43208 0.35479-0.15263
  -1  -4   0 2772.97 124.612   1-0.70080 0.54182-0.03708-0.36309-0.77483 0.57266
  -1  -4   0 2604.70 111.946   2-0.01633-0.14266-0.21666-0.18351-0.94184 0.73968
   1   4   0 3240.37 119.152   0 0.91124-0.75225-0.01813 0.41829-0.15159 0.35375
  -1  -4  -1 16102.1 270.849   1-0.65740 0.47469 0.06581-0.50619-0.74391 0.45333
   1   4   1 13179.0 253.466   4 0.96241-0.77970-0.05190 0.49227 0.33496-0.04438
   1   4   1 19544.9 247.716   0 0.88996-0.70725 0.08433 0.35604-0.17542 0.46600
  -1  -4  -1 16241.5 252.248   2 0.16977-0.35247-0.12396-0.31641-0.86250 0.57192
   1   4   2 384.312 83.9364   4 0.96241-0.75597-0.05193 0.53251 0.33493 0.04406
  -1  -4  -2 555.373 121.479   2 0.28327-0.48971-0.06329-0.41729-0.79555 0.41655
  -1  -4  -2 478.187 93.7226   1-0.62199 0.41556 0.13800-0.61858-0.71670 0.33771
   1   4   3 488.401 102.975   4 0.96330-0.73314-0.04004 0.56083 0.34676 0.12065
  -1  -4  -3 721.023 104.384   2 0.34904-0.57920-0.02658-0.49421-0.74975 0.28234
  -1  -4  -3 689.861 114.067   1-0.59675 0.36659 0.18489-0.70568-0.69653 0.22912
  -1  -4  -4 4172.44 197.383   2 0.38468-0.63856-0.00617-0.55483-0.72261 0.16678
   1   4   4 3664.59 200.827   4 0.96436-0.71048-0.02032 0.58132 0.36621 0.18962
  -1  -4  -4 4528.31 252.080   1-0.58143 0.32754 0.21185-0.77285-0.68403 0.12820
   1   4   5 60.9010 89.5733   4 0.96495-0.68734 0.00497 0.59624 0.39083 0.25342
  -1  -4  -5 101.070 83.7203   1-0.57482 0.29721 0.22315-0.82436-0.67858 0.03433
  -1  -4  -5 77.3566 86.5931   2 0.40070-0.67830 0.00313-0.60434-0.70985 0.06561
  -1  -4  -6 688.448 156.996   2 0.40320-0.70454 0.00459-0.64601-0.70783-0.02484
   1   4   6 782.791 189.495   4 0.96453-0.66319 0.03446 0.60696 0.41911 0.31355
   1   4   7 145.151 95.2774   4 0.96266-0.63760 0.06734 0.61429 0.45008 0.37100
  -1  -5  11 156.436 118.617   3 0.10755-0.02005-0.90644 0.85234-0.06512 0.79179
  -1  -5  10 468.761 166.945   3 0.12072-0.05695-0.93112 0.83680-0.15180 0.79005
  -1  -5   9-0.71969 50.0754   3 0.13363-0.09359-0.94809 0.81357-0.24330 0.79313
  -1  -5   8 5879.43 241.813   3 0.14608-0.12976-0.95516 0.78043-0.33994 0.80135
   1   5  -8 8348.92 249.174   0 0.90803-0.92434 0.00362 0.17111-0.15687-0.30455
  -1  -5   7 6485.90 232.776   3 0.15768-0.16509-0.94907 0.73413-0.44148 0.81448
   1   5  -7 9064.41 262.201   0 0.91309-0.90568-0.03357 0.24851-0.14776-0.22523
  -1  -5   6 12626.4 299.764   3 0.16776-0.19890-0.92535 0.67020-0.54642 0.83100
  -1  -5   5 8221.17 228.150   3 0.17527-0.23013-0.87849 0.58313-0.65106 0.84722
  -1  -5   5 8426.01 183.994   2-0.93407 0.87922-0.48238 0.18703-0.47335 0.66951
  -1  -5   4 437.532 86.8857   5-0.70418 0.62559-0.65824 0.32267-0.80328 0.91103
  -1  -5   4 415.738 99.6375   3 0.17882-0.25741-0.80334 0.46777-0.74855 0.85629
  -1  -5   4 398.258 83.7482   2-0.88464 0.80606-0.49921 0.16364-0.63845 0.74619
  -1  -5   3 10086.9 228.091   1-0.78689 0.68458-0.47763 0.10186-0.79609 0.81541
  -1  -5   3 9861.25 172.487   2-0.76774 0.66543-0.49090 0.11513-0.81287 0.83219
   1   5  -2 9.30253 41.4133   0 0.91347-0.78744-0.03717 0.45315-0.14686 0.21596
  -1  -5   2 20.4537 45.5286   1-0.77955 0.65351-0.34285-0.07313-0.81074 0.74165
  -1  -5   2 12.1658 46.9826   3 0.16950-0.29553-0.56890 0.15292-0.88382 0.81473
   1   5  -2 2.81481 28.9365   4 0.93031-0.80428 0.23244 0.18354 0.59640-0.52731
  -1  -5   2 31.7697 39.6618   2-0.56328 0.43725-0.43836 0.02237-0.94711 0.87801
  -1  -5   1 1626.14 85.5093   2-0.31055 0.16079-0.34641-0.10979-0.99181 0.83430
   1   5  -1 2042.55 138.704   0 0.90697-0.75721 0.00989 0.44631-0.15837 0.31588
  -1  -5   1 1701.99 134.095   1-0.75705 0.60729-0.21868-0.23751-0.80672 0.64921
   1   5  -1 1401.42 90.1981   4 0.95653-0.80677 0.12021 0.33599 0.49863-0.34112
   1   5   0 243.677 69.2920   0 0.89137-0.71788 0.07933 0.41708-0.17432 0.42024
   1   5   0 173.340 89.9175   4 0.96289-0.78941 0.06431 0.43209 0.44726-0.20134
  -1  -5   0 304.249 94.0137   1-0.72774 0.55426-0.11366-0.38274-0.79186 0.54593
  -1  -5  -1 267.349 96.6653   1-0.69848 0.50127-0.03103-0.50558-0.77326 0.43892
   1   5   1 156.436 81.7302   4 0.96434-0.76713 0.03944 0.49717 0.42385-0.08950
   1   5   2 684.925 144.885   4 0.96457-0.74363 0.03324 0.54359 0.41795 0.00481
  -1  -5  -2 907.684 133.494   1-0.67352 0.45258 0.02983-0.60665-0.75577 0.33301
   1   5   3 8274.79 291.781   4 0.96435-0.71969 0.03918 0.57785 0.42360 0.08758
  -1  -5  -3 9947.29 305.341   1-0.65482 0.41016 0.07137-0.68840-0.74198 0.23080
   1   5   4 206.371 109.354   4 0.96362-0.69524 0.05356 0.60368 0.43718 0.16242
  -1  -5  -4 156.722 95.3732   1-0.64286 0.37448 0.09648-0.75372-0.73291 0.13332
  -1  -5  -5 20.5865 62.8816   1-0.63732 0.34521 0.10778-0.80522-0.72865 0.04064
   1   5   5 39.2835 105.270   4 0.96208-0.66998 0.07416 0.62328 0.45644 0.23157
   1   5   6 144.998 110.197   4 0.95938-0.64355 0.09957 0.63809 0.47987 0.29657
  -1  -6  11 6.95054 67.1333   3 0.12175-0.04876-0.93276 0.78242-0.15885 0.84175
  -1  -6  10 1354.66 187.207   3 0.13421-0.08494-0.94864 0.75809-0.24755 0.84203
   1   6  -9 3.54185 57.5647   0 0.89427-0.91981 0.06853 0.16223-0.17192-0.33415
  -1  -6   9-0.83957 38.5426   3 0.14602-0.12047-0.95515 0.72439-0.33942 0.84549
  -1  -6   8 5617.10 257.033   3 0.15687-0.15505-0.95006 0.67909-0.43387 0.85152
   1   6  -8 7454.81 247.180   0 0.90264-0.90446 0.03268 0.23828-0.16374-0.25391
   1   6  -7 116.092 94.4179   0 0.90757-0.88566 0.00637 0.30481-0.15753-0.17170
  -1  -6   7 144.561 100.797   3 0.16629-0.18819-0.93057 0.61939-0.52948 0.85871
   1   6  -6 6757.56 233.429   0 0.91011-0.86448-0.00997 0.36136-0.15358-0.08723
  -1  -6   6 5175.43 221.431   3 0.17360-0.21923-0.89355 0.54217-0.62355 0.86436
  -1  -6   5 1225.65 138.977   3 0.17800-0.24736-0.83633 0.44474-0.71184 0.86424
   1   6  -5 1777.23 137.784   0 0.91091-0.84155-0.01564 0.40724-0.15220-0.00020
   1   6  -4 1882.06 139.129   0 0.91007-0.81699-0.00965 0.44146-0.15366 0.08968
  -1  -6   4 1221.56 128.992   3 0.17873-0.27181-0.75803 0.32623-0.78880 0.85278
  -1  -6   4 381.489 55.3124   5-0.73998 0.64690-0.60385 0.17205-0.79942 0.86339
  -1  -6   3 1652.87 145.348   1-0.78702 0.67021-0.46936-0.00265-0.79763 0.77319
  -1  -6   3 1545.06 134.891   3 0.17537-0.29218-0.66120 0.18918-0.84880 0.82436
   1   6  -2 10.0905 45.6020   0 0.90048-0.75995 0.04277 0.46945-0.16607 0.27893
  -1  -6   2 37.1161 46.1518   1-0.78179 0.64126-0.36241-0.14981-0.80992 0.69707
  -1  -6   1 2243.72 159.144   1-0.76706 0.60280-0.26504-0.28740-0.81001 0.60874
   1   6  -1 2656.60 171.844   0 0.88750-0.72325 0.09280 0.45963-0.17727 0.37854
   1   6  -1 1792.07 133.905   4 0.94047-0.77621 0.19745 0.35498 0.56672-0.36544
  -1  -6   0 1770.15 153.581   1-0.74783 0.55985-0.18196-0.41068-0.80267 0.51297
   1   6   0 1534.73 130.148   4 0.95207-0.76409 0.14624 0.44641 0.52196-0.23226
   1   6   1 622.165 127.891   4 0.95652-0.74482 0.12023 0.51262 0.49865-0.12054
  -1  -6  -1 634.988 118.606   1-0.72824 0.51654-0.11522-0.51763-0.79215 0.41404
   1   6   2 3716.41 223.020   4 0.95789-0.72246 0.11089 0.56217 0.49019-0.02366
  -1  -6  -2 4571.34 228.147   1-0.71109 0.47566-0.06482-0.60824-0.78159 0.31506
  -1  -6  -3 31.3749 79.3821   1-0.69794 0.43879-0.02964-0.68363-0.77290 0.21795
   1   6   3 9.44523 75.0834   4 0.95757-0.69841 0.11315 0.60011 0.49224 0.06270
   1   6   4 1597.31 181.168   4 0.95596-0.67308 0.12387 0.62961 0.50194 0.14143
  -1  -6  -4 1900.41 216.880   1-0.68941 0.40653-0.00811-0.74537-0.76705 0.12369
   1   6   5 36.3891 90.5217   4 0.95304-0.64643 0.14103 0.65266 0.51732 0.21446
  -1  -7  11 17.3869 80.5723   3 0.13328-0.07478-0.94774 0.70116-0.24068 0.87982
  -1  -7  10 268.033 131.666   3 0.14467-0.10989-0.95494 0.66815-0.32842 0.87914
  -1  -7   9 818.996 154.574   3 0.15507-0.14402-0.95189 0.62490-0.41730 0.87960
   1   7  -9 1175.17 186.353   0 0.88739-0.89844 0.09319 0.23381-0.17735-0.28495
   1   7  -8 1690.85 180.536   0 0.89476-0.88208 0.06664 0.30057-0.17149-0.20239
  -1  -7   8 1140.30 158.937   3 0.16415-0.17683-0.93684 0.56963-0.50609 0.87997
  -1  -7   7 3778.51 232.414   3 0.17146-0.20786-0.90793 0.50051-0.59282 0.87829
   1   7  -7 4860.71 229.214   0 0.89908-0.86268 0.04891 0.35850-0.16748-0.11798
   1   7  -6 16.2463 65.2715   0 0.90098-0.84085 0.04047 0.40715-0.16554-0.03150
  -1  -7   6 21.3440 66.4899   3 0.17651-0.23664-0.86368 0.41606-0.67469 0.87174
  -1  -7   5 4653.56 237.703   3 0.17882-0.26267-0.80367 0.31583-0.74822 0.85685
   1   7  -5 5518.67 243.581   0 0.90065-0.81680 0.04196 0.44587-0.16589 0.05726
   1   7  -4 13.0265 49.7690   0 0.89784-0.79026 0.05423 0.47381-0.16869 0.14848
  -1  -7   4 16.3884 46.2330   3 0.17811-0.28569-0.72924 0.20119-0.80980 0.83001
  -1  -7   4 20.7548 61.1012   5-0.75223 0.64465-0.58302 0.05498-0.79696 0.81717
  -1  -7   3 112.057 71.1054   1-0.78692 0.65562-0.47614-0.09212-0.79637 0.72817
   1   7  -3 156.507 114.881   0 0.89165-0.76034 0.07832 0.48993-0.17409 0.24230
  -1  -7   3 147.269 105.397   3 0.17445-0.30575-0.64402 0.07577-0.85670 0.78850
  -1  -7   2 46.8189 70.9762   3 0.16833-0.32336-0.55364-0.05482-0.88802 0.73140
  -1  -7   2 113.326 107.600   1-0.78429 0.62926-0.38983-0.21863-0.80807 0.65144
   1   7  -2-1.29893 54.0659   0 0.88037-0.72534 0.11551 0.49296-0.18213 0.33876
   1   7  -1 315.671 89.9311   0 0.86115-0.68239 0.16726 0.48141-0.19272 0.43776
  -1  -7   1 241.330 101.917   1-0.77525 0.59649-0.31189-0.33678-0.81119 0.56615
  -1  -7   0 515.862 153.213   1-0.76301 0.56053-0.24523-0.44365-0.80886 0.47540
   1   7   1 3908.10 224.786   4 0.94135-0.71515 0.19406 0.53503 0.56380-0.14192
  -1  -7  -1 4864.94 256.025   1-0.75026 0.52406-0.19121-0.53788-0.80380 0.38193
   1   7   2 23.0294 73.6441   4 0.94406-0.69413 0.18327 0.58602 0.55448-0.04419
  -1  -7  -2-4.89229 57.5179   1-0.73892 0.48899-0.15007-0.61923-0.79814 0.28785
   1   7   3 305.314 145.487   4 0.94406-0.67041 0.18328 0.62623 0.55448 0.04423
  -1  -7  -3 371.500 162.758   1-0.73018 0.45653-0.12132-0.68819-0.79328 0.19457
   1   7   4 41.5003 70.6826   4 0.94202-0.64464 0.19147 0.65825 0.56157 0.12556
  -1  -8  10 141.082 124.280   3 0.15246-0.13219-0.95377 0.57075-0.39401 0.90096
   1   8 -10 119.357 134.207   0 0.86800-0.88828 0.15005 0.23298-0.18928-0.31767
   1   8  -9 89.0555 112.318   0 0.87781-0.87436 0.12309 0.30014-0.18373-0.23481
  -1  -8   9 96.2618 101.843   3 0.16141-0.16486-0.94309 0.51985-0.47773 0.89627
  -1  -8   8 325.176 157.556   3 0.16883-0.19601-0.92104 0.45759-0.55918 0.88929
   1   8  -8 316.712 162.109   0 0.88406-0.85688 0.10408 0.35936-0.17970-0.15042
  -1  -8   7 9.20001 88.8643   3 0.17441-0.22531-0.88679 0.38314-0.63640 0.87810
   1   8  -7 21.0881 84.8621   0 0.88735-0.83645 0.09332 0.41033-0.17738-0.06432
   1   8  -6 19.6649 75.4812   0 0.88796-0.81334 0.09124 0.45262-0.17693 0.02365
  -1  -8   6 36.8695 91.9811   3 0.17784-0.25247-0.84017 0.29631-0.70706 0.86034
   1   8  -5 562.375 118.393   0 0.88581-0.78746 0.09842 0.48565-0.17848 0.11362
  -1  -8   5 598.584 178.792   3 0.17893-0.27728-0.78201 0.19794-0.76874 0.83361
  -1  -8   4 388.152 145.833   3 0.17766-0.29973-0.71447 0.09018-0.81943 0.79588
  -1  -8   4 77.6129 79.8240   5-0.75279 0.63071-0.58203-0.04225-0.79683 0.77328
   1   8  -4 373.154 129.790   0 0.88035-0.75827 0.11559 0.50869-0.18215 0.20570
  -1  -8   3 1487.55 183.396   3 0.17427-0.32007-0.64099-0.02349-0.85802 0.74605
  -1  -8   3 1474.38 179.670   1-0.78644 0.64064-0.49258-0.17191-0.79305 0.68108
   1   8  -3 1860.35 193.971   0 0.87046-0.72466 0.14358 0.52091-0.18796 0.29993
  -1  -8   2 82.0419 89.4448   1-0.78624 0.61672-0.42216-0.28254-0.80476 0.60437
  -1  -8   2 126.687 112.971   3 0.16927-0.33879-0.56586-0.13884-0.88469 0.68430
   1   8  -2 72.0389 85.0623   0 0.85429-0.68476 0.18341 0.52129-0.19587 0.39626
  -1  -8   1 183.152 107.188   1-0.78143 0.58818-0.35907-0.38584-0.81009 0.52129
  -1  -8   0 1549.21 222.459   1-0.77420 0.55723-0.30523-0.47989-0.81116 0.43394
  -1  -8  -1 762.444 184.201   1-0.76639 0.52569-0.26165-0.56368-0.80984 0.34420
   1   8   2 250.099 139.889   4 0.92387-0.65945 0.25185 0.61368 0.61255-0.05849
  -1  -8  -2 478.332 177.220   1-0.75936 0.49493-0.22863-0.63690-0.80760 0.25354
   1   9 -10 306.359 196.979   0 0.85702-0.86280 0.17708 0.30218-0.19465-0.26854
  -1  -9   9 560.025 190.579   3 0.16568-0.18363-0.93249 0.41302-0.52270 0.89747
   1   9  -9 410.507 148.149   0 0.86534-0.84739 0.15688 0.36259-0.19065-0.18412
  -1  -9   8 32.3253 93.0367   3 0.17173-0.21340-0.90634 0.34666-0.59648 0.88283
   1   9  -8-13.5842 69.1676   0 0.87025-0.82858 0.14413 0.41555-0.18808-0.09827
   1   9  -7 17.5771 94.0566   0 0.87211-0.80672 0.13913 0.46076-0.18705-0.01088
  -1  -9   7 39.7142 84.5780   3 0.17602-0.24142-0.87008 0.27019-0.66484 0.86277
  -1  -9   6 765.063 174.482   3 0.17841-0.26753-0.82432 0.18422-0.72609 0.83561
   1   9  -6 806.547 159.880   0 0.87095-0.78183 0.14227 0.49783-0.18770 0.07818
   1   9  -5 12.3863 82.9950   0 0.86645-0.75360 0.15407 0.52624-0.19009 0.16899
  -1  -9   5 23.8889 84.3726   3 0.17887-0.29172-0.77045 0.09014-0.77873 0.79983
   1   9  -4 53.2440 88.3415   0 0.85786-0.72128 0.17513 0.54539-0.19427 0.26158
  -1  -9   4 37.8430 101.470   3 0.17753-0.31410-0.71073-0.00979-0.82176 0.75444
  -1  -9   3 658.485 164.060   3 0.17467-0.33497-0.64805-0.11268-0.85491 0.69917
   1   9  -3 852.860 189.560   0 0.84391-0.68361 0.20615 0.55457-0.20020 0.35593
  -1  -9   2 41.8888 77.6695   3 0.17071-0.35474-0.58559-0.21535-0.87875 0.63460
  -1  -9   2 14.5065 64.4684   1-0.78707 0.60304-0.45776-0.34318-0.79965 0.55550
  -1  -9   1 45.9290 126.587   1-0.78543 0.57768-0.40646-0.43469-0.80652 0.47395
  -1  -9   0 243.171 141.178   1-0.78185 0.55038-0.36301-0.51835-0.80989 0.38890
  -1 -10   8 58.0282 124.429   3 0.17344-0.22961-0.89478 0.23886-0.62112 0.86371
   1  10  -8 237.410 170.901   0 0.85307-0.79690 0.18618 0.46974-0.19641-0.04618
   1  10  -7 40.6534 118.504   0 0.85314-0.77324 0.18601 0.51012-0.19638 0.04221
  -1 -10   7 24.1928 91.3082   3 0.17684-0.25674-0.85886 0.16273-0.68179 0.83596
   1  10  -6 406.713 205.093   0 0.84978-0.74616 0.19351 0.54283-0.19781 0.13206
  -1 -10   6 237.180 152.719   3 0.17862-0.28224-0.81589 0.07955-0.73545 0.80121
   1  10  -5 425.180 207.900   0 0.84249-0.71514 0.20912 0.56742-0.20075 0.22342
  -1 -10   5 329.270 140.672   3 0.17884-0.30619-0.76741-0.00914-0.78126 0.75860
   1  10  -4 259.580 180.570   0 0.83037-0.67930 0.23335 0.58340-0.20517 0.31626
  -1 -10   4 54.9322 138.373   3 0.17769-0.32876-0.71545-0.10130-0.81881 0.70773
  -1 -10   3 322.508 149.543   3 0.17543-0.35023-0.66237-0.19460-0.84824 0.64874
  -1 -10   3 41.4833 115.268   5-0.77147 0.59667-0.54739-0.30957-0.79163 0.59212
  -1 -10   2 293.864 178.369   3 0.17241-0.37093-0.61054-0.28663-0.87019 0.58227
  -2  10  -2 44.8066 120.640   0 0.61681-0.72127 0.50294 0.34859-0.24090 0.44752
   2 -10   3 109.570 165.539   3 0.17217-0.04399-0.60690-0.20442-0.87152 0.75331
  -2  10  -3 126.063 106.069   0 0.64893-0.77711 0.47330 0.33802-0.23845 0.35666
   2 -10   4 14.3108 72.9999   5-0.56972 0.72163-0.80548 0.03437-0.78882 0.75903
  -2  10  -4 93.4431 127.339   0 0.67209-0.82400 0.45027 0.32084-0.23624 0.26603
   2 -10   4 15.9628 101.189   3 0.17579-0.02388-0.66956-0.10156-0.84470 0.81491
   2 -10   5 16.8041 68.3201   3 0.17817-0.00253-0.73131 0.00040-0.80839 0.86702
  -2  10  -5 26.4862 107.626   0 0.68764-0.86327 0.43394 0.29696-0.23453 0.17589
  -2  10  -6 568.280 208.524   0 0.69650-0.89586 0.42429 0.26640-0.23346 0.08641
   2 -10   6 635.150 210.762   3 0.17892 0.02043-0.78934 0.09864-0.76207 0.90912
   2 -10   7 197.106 134.010   3 0.17780 0.04528-0.84106 0.19057-0.70593 0.94140
  -2  10  -7 446.759 209.384   0 0.69927-0.92235 0.42122 0.22926-0.23311-0.00236
   2  -9   1 57.7819 119.937   5-0.71382 0.80905-0.64444-0.15106-0.80268 0.55140
  -2   9  -1 677.613 171.853   0 0.60571-0.70094 0.51262 0.28288-0.24160 0.49287
   2  -9   2 53.9081 104.761   5-0.67528 0.79423-0.69642-0.05888-0.80349 0.64064
  -2   9  -2 56.4683 119.977   0 0.64542-0.76438 0.47666 0.27863-0.23876 0.40161
   2  -9   3 699.662 190.100   3 0.17112-0.02844-0.59141-0.12367-0.87686 0.80242
  -2   9  -3 784.946 190.136   0 0.67449-0.81717 0.44780 0.26728-0.23599 0.31043
  -2   9  -4 1685.21 228.151   0 0.69469-0.86109 0.42628 0.24859-0.23368 0.21970
   2  -9   4 1235.79 198.314   3 0.17555-0.00914-0.66466-0.01021-0.84712 0.86110
   2  -9   5 634.736 171.432   3 0.17827 0.01186-0.73528 0.10061-0.80565 0.90804
  -2   9  -5 798.268 198.152   0 0.70732-0.89745 0.41215 0.22252-0.23205 0.12965
   2  -9   6 21.4201 87.2617   5-0.39315 0.60700-0.91887 0.32441-0.72913 0.91994
   2  -9   6 70.1760 89.2781   3 0.17886 0.03499-0.79963 0.20517-0.75224 0.94305
  -2   9  -6 42.3715 76.3641   0 0.71326-0.92712 0.40531 0.18915-0.23123 0.04042
  -2   9  -7 575.177 145.552   0 0.71300-0.95058 0.40561 0.14864-0.23127-0.04796
   2  -9   7 394.552 170.417   3 0.17710 0.06048-0.85471 0.30046-0.68770 0.96694
   2  -9   8 390.036 152.986   3 0.17294 0.08837-0.89844 0.38440-0.61367 0.98132
  -2   9  -8 435.652 160.886   0 0.70671-0.96802 0.41284 0.10119-0.23213-0.13552
   2  -9   9 307.360 161.789   3 0.16653 0.11850-0.92977 0.45594-0.53219 0.98826
  -2   9  -9 395.914 180.648   0 0.69421-0.97925 0.42680 0.04703-0.23374-0.22233
  -2   8   3 42.4934 127.770   4 0.80487-0.81970 0.47203 0.38807 0.77729-0.21611
  -2   8   2 4.83068 69.8029   4 0.78744-0.82600 0.49407 0.32582 0.79157-0.31881
  -2   8   1 1059.70 164.532   4 0.75977-0.82205 0.52621 0.25347 0.81149-0.42715
   2  -8  -1 184.198 91.0121   5-0.77835 0.84063-0.53365-0.24603-0.78921 0.40487
  -2   8   0 94.8312 93.9162   4 0.71789-0.80390 0.56936 0.17012 0.83634-0.54041
   2  -8   0 74.3673 63.8557   5-0.75452 0.84052-0.57897-0.16050-0.79642 0.50050
  -2   8  -1 99.1546 112.107   0 0.63104-0.74077 0.49012 0.20915-0.23990 0.44741
   2  -8   1 35.5314 92.8032   5-0.72123 0.83096-0.63344-0.06583-0.80200 0.59450
  -2   8  -2 71.6653 98.1772   0 0.66815-0.80160 0.45430 0.20476-0.23665 0.35574
   2  -8   2 3.75958 79.2424   5-0.67616 0.80962-0.69531 0.03626-0.80352 0.68443
   2  -8   3 2529.41 197.876   3 0.17053-0.01335-0.58305-0.03580-0.87955 0.84888
  -2   8  -3 2992.97 249.927   0 0.69453-0.85171 0.42646 0.19239-0.23370 0.26437
  -2   8  -4 1672.01 181.054   0 0.71198-0.89288 0.40680 0.17184-0.23141 0.17367
   2  -8   4 1295.19 200.623   3 0.17574 0.00517-0.66848 0.08985-0.84523 0.90298
  -2   8  -5 7494.44 286.451   0 0.72175-0.92638 0.39531 0.14312-0.23000 0.08384
   2  -8   5 6034.74 300.521   3 0.17856 0.02607-0.74837 0.20994-0.79620 0.94236
  -2   8  -6 25.2390 63.0231   0 0.72465-0.95301 0.39182 0.10640-0.22957-0.00501
   2  -8   6 9.36957 43.4247   5-0.34628 0.57463-0.93859 0.44037-0.70801 0.94259
  -2   8  -7 137.131 128.381   0 0.72108-0.97316 0.39610 0.06191-0.23010-0.09289
   2  -8   7 72.6482 75.1544   3 0.17564 0.07644-0.87453 0.41652-0.65768 0.98068
   2  -8   8 113.623 88.5563   3 0.16995 0.10586-0.91595 0.49815-0.57303 0.98444
  -2   8  -8 42.2479 79.9748   0 0.71103-0.98684 0.40789 0.00991-0.23155-0.17987
   2  -8   9 75.2723 99.7887   3 0.16184 0.13769-0.94222 0.56463-0.48209 0.98192
   2  -8  10 18.8946 104.854   3 0.15172 0.17153-0.95415 0.61677-0.38756 0.97581
  -2   7   4 114.401 92.7387   4 0.83952-0.84512 0.42306 0.38101 0.74392-0.13809
  -2   7   3 12.4251 66.7847   4 0.82863-0.85796 0.43928 0.32458 0.75521-0.23780
  -2   7   2 217.120 134.475   4 0.80955-0.86260 0.46585 0.25780 0.77320-0.34420
  -2   7   1 219.905 119.503   4 0.77888-0.85566 0.50437 0.17908 0.79807-0.45749
  -2   7   0 3546.55 232.875   4 0.73148-0.83198 0.55601 0.08723 0.82890-0.57674
   2  -7   0 2947.92 245.286   5-0.76211 0.86261-0.56519-0.07804-0.79446 0.54230
  -2   7  -1 53.5340 84.9198   0 0.64943-0.77365 0.47282 0.13020-0.23841 0.40215
   2  -7   1 81.1559 87.5620   5-0.72264 0.84686-0.63131 0.02828-0.80185 0.63811
   2  -7   2 1564.28 131.954   5-0.66834 0.81629-0.70494 0.14212-0.80322 0.72790
  -2   7  -2 11254.7 322.047   0 0.68451-0.83246 0.43729 0.12553-0.23489 0.31021
   2  -7   3 3258.46 184.990   3 0.17064 0.00104-0.58459 0.06198-0.87907 0.89216
  -2   7  -3 3889.83 216.113   0 0.70854-0.88021 0.41076 0.11185-0.23189 0.21879
  -2   7  -4 2637.54 178.426   0 0.72334-0.91874 0.39340 0.08900-0.22977 0.12825
   2  -7   4 1811.66 179.872   3 0.17646 0.01895-0.68381 0.20141-0.83729 0.93880
   2  -7   5 4.48337 45.2322   5-0.39911 0.61824-0.91609 0.47390-0.73168 0.92161
   2  -7   5 66.8420 91.5962   3 0.17888 0.04024-0.77253 0.33033-0.77698 0.96691
  -2   7  -5 9.71500 47.5650   0 0.73016-0.94929 0.38511 0.05709-0.22871 0.03878
  -2   7  -6 4572.95 228.964   0 0.72973-0.97259 0.38563 0.01635-0.22878-0.04957
   2  -7   6 3413.47 219.051   3 0.17761 0.06525-0.84532 0.44334-0.70042 0.97877
  -2   7  -7 2332.82 184.252   0 0.72229-0.98886 0.39466-0.03289-0.22992-0.13684
   2  -7   7 2016.94 190.930   3 0.17280 0.09378-0.89943 0.53766-0.61160 0.97837
  -2   7  -8 106.001 87.3058   0 0.70761-0.99791 0.41182-0.09026-0.23201-0.22317
   2  -7   8 178.041 119.839   3 0.16498 0.12532-0.93457 0.61300-0.51501 0.97019
   2  -7   9 582.037 164.526   3 0.15477 0.15925-0.95215 0.67080-0.41460 0.95820
   2  -7  10 474.478 189.256   3 0.14278 0.19497-0.95439 0.71324-0.31332 0.94534
  -2   7 -10 767.086 222.014   1 0.31621-0.65396 0.93455-0.69341 0.19336-0.82537
  -2   6   5 53.3541 79.7200   4 0.86596-0.86233 0.37968 0.36836 0.71267-0.06218
  -2   6   4 110.693 88.4169   4 0.86027-0.88037 0.38955 0.31829 0.71991-0.15784
  -2   6   3 34.9796 48.8087   4 0.84813-0.89196 0.40959 0.25803 0.73438-0.26073
  -2   6   2 17.3178 58.6877   4 0.82682-0.89437 0.44190 0.18551 0.75701-0.37178
  -2   6   1 655.463 129.163   4 0.79187-0.88315 0.48862 0.09859 0.78808-0.49127
   2  -6  -1 730.237 111.445   1-0.78668 0.87795-0.48582-0.10139-0.79446 0.49765
   2  -6   0 22.8002 58.1111   5-0.76436 0.87936-0.56100 0.01400-0.79382 0.58543
  -2   6   0 24.2100 60.9685   4 0.73626-0.85126 0.55116-0.00416 0.82614-0.61775
  -2   6   0 87.1644 77.2651   0 0.61157-0.72657 0.50755 0.03945-0.24124 0.44964
  -2   6  -1 7279.37 216.162   4 0.64991-0.78864 0.62843-0.12164 0.86610-0.74613
  -2   6  -1 11249.8 292.514   0 0.65962-0.79835 0.46285 0.04394-0.23748 0.35746
   2  -6   1 7169.56 242.924   5-0.71568 0.85441-0.64171 0.13492-0.80252 0.68255
   2  -6   2 1988.57 145.375   5-0.64773 0.81018-0.72899 0.26241-0.80175 0.77020
  -2   6  -2 2200.01 125.936   4 0.52081-0.68326 0.71363-0.24705 0.89658-0.86502
  -2   6  -3 14625.6 324.274   0 0.71529-0.90147 0.40294 0.02343-0.23095 0.17409
   2  -6   3 11603.5 294.601   3 0.17172 0.01445-0.60018 0.17381-0.87389 0.93075
   2  -6   3 8819.36 251.976   5-0.55818 0.74436-0.81516 0.38878-0.78607 0.84293
  -2   6  -4 2861.44 169.482   0 0.72746-0.93736 0.38841-0.00225-0.22913 0.08386
   2  -6   4 1990.09 157.223   3 0.17765 0.03225-0.71416 0.32800-0.81962 0.96490
   2  -6   4 1982.69 168.480   5-0.44767 0.65757-0.89097 0.50481-0.75118 0.89646
   2  -6   5 148.516 94.4396   5-0.32041 0.55404-0.94791 0.60195-0.69555 0.92925
   2  -6   5 255.856 121.704   3 0.17874 0.05488-0.80925 0.46330-0.74250 0.97620
  -2   6  -5 268.709 103.322   0 0.73104-0.96466 0.38403-0.03807-0.22857-0.00512
  -2   6  -6 172.487 98.9119   0 0.72664-0.98399 0.38941-0.08366-0.22926-0.09285
   2  -6   6 202.232 88.4182   3 0.17511 0.08224-0.88015 0.57440-0.64822 0.97034
  -2   6  -7 10.7923 52.6545   0 0.71429-0.99536 0.40411-0.13858-0.23109-0.17944
   2  -6   7 26.6556 54.8392   5-0.04378 0.32486-0.98707 0.72154-0.53161 0.94214
   2  -6   7 28.0324 62.7826   3 0.16754 0.11354-0.92620 0.66067-0.54378 0.95431
   2  -6   8 5085.46 249.192   3 0.15702 0.14778-0.94988 0.72456-0.43530 0.93424
  -2   6  -9 50.8467 80.4764   1 0.31779-0.64631 0.93476-0.74964 0.19508-0.78245
   2  -6   9 39.2242 93.1949   3 0.14449 0.18403-0.95490 0.76978-0.32704 0.91440
  -2   6 -10 1879.53 279.594   1 0.24840-0.60065 0.92203-0.77712 0.11996-0.79574
  -2   5   6 97.0494 99.9187   4 0.88552-0.87266 0.34294 0.34907 0.68506 0.01008
  -2   5   5 2822.06 211.696   4 0.88387-0.89474 0.34622 0.30559 0.68756-0.08084
  -2   5   4 102.007 99.3689   4 0.87718-0.91178 0.35917 0.25242 0.69738-0.17908
  -2   5   3 53.9783 68.5162   4 0.86339-0.92172 0.38417 0.18722 0.71597-0.28609
  -2   5   2 354.404 80.6862   4 0.83888-0.92092 0.42404 0.10714 0.74461-0.40315
  -2   5   2 689.531 125.481   0 0.44968-0.53173 0.62430-0.09312-0.24484 0.58630
   2  -5  -1 4.61063 35.3056   1-0.78694 0.89271-0.47489-0.01608-0.79661 0.54356
  -2   5   1 11.7023 33.0402   0 0.54197-0.64774 0.56332-0.07235-0.24428 0.49733
   2  -5   0 18.4259 41.8906   5-0.75889 0.88838-0.57112 0.12036-0.79533 0.63070
  -2   5   0 31.1852 59.1951   4 0.72894-0.85844 0.55854-0.10778 0.83033-0.66570
  -2   5  -1 941.281 87.0276   4 0.61939-0.77261 0.65140-0.24085 0.87603-0.79982
  -2   5  -1 1670.53 148.928   0 0.65904-0.81226 0.46343-0.05288-0.23754 0.31375
   2  -5   1 1000.11 138.394   5-0.69558 0.84880-0.67007 0.25952-0.80359 0.72738
  -2   5  -2 21607.4 290.533   4 0.45455-0.63150 0.74689-0.37654 0.90213-0.91433
   2  -5   2 20433.1 307.558   5-0.60667 0.78362-0.77183 0.40149-0.79626 0.80847
  -2   5  -3 8251.43 222.012   0 0.71233-0.91300 0.40639-0.07626-0.23137 0.13074
   2  -5   3 6662.83 206.456   3 0.17399 0.02669-0.63603 0.30590-0.86014 0.96076
   2  -5   3 5279.78 181.579   5-0.49180 0.69247-0.86406 0.53393-0.76682 0.86745
  -2   5  -4 247.114 94.5333   0 0.72166-0.94606 0.39541-0.10548-0.23002 0.04098
   2  -5   4 244.306 93.6662   3 0.17880 0.04560-0.76321 0.47329-0.78468 0.97372
   2  -5   4 151.847 90.0022   5-0.35611 0.58050-0.93476 0.64484-0.71259 0.90163
   2  -5   5 4349.89 199.102   3 0.17690 0.07122-0.85786 0.60814-0.68324 0.96070
   2  -5   5 3551.46 173.820   5-0.20897 0.45709-0.97640 0.72668-0.63597 0.91343
  -2   5  -6 19.5929 51.0220   0 0.71172-0.98357 0.40709-0.19758-0.23145-0.13443
   2  -5   6 22.7211 44.1169   5-0.06056 0.33241-0.98761 0.77811-0.54304 0.90892
   2  -5   6 117.674 97.4055   3 0.16951 0.10234-0.91803 0.70852-0.56752 0.93339
   2  -5   7 36.4984 51.7864   5 0.08113 0.21444-0.97175 0.80245-0.44079 0.89508
   2  -5   7 22.5224 54.9871   3 0.15834 0.13724-0.94820 0.77891-0.44767 0.90197
  -2   5  -8 710.204 174.624   1 0.30940-0.62870 0.93364-0.80455 0.18593-0.72864
   2  -5   8 561.178 145.789   3 0.14488 0.17442-0.95498 0.82589-0.33017 0.87288
  -2   5  -9 505.112 172.037   1 0.23868-0.58171 0.91963-0.83076 0.10954-0.74067
  -2   5 -10 14.9268 77.4903   1 0.16887-0.53561 0.89829-0.84962 0.03539-0.75493
  -2   4   7 104.523 85.9871   4 0.89933-0.87725 0.31375 0.32224 0.66242 0.07736
  -2   4   6 1295.32 203.927   4 0.90079-0.90243 0.31046 0.28531 0.65984-0.00847
  -2   4   5 501.087 142.534   4 0.89826-0.92363 0.31613 0.23944 0.66429-0.10134
  -2   4   4 5354.40 239.141   4 0.89030-0.93939 0.33319 0.18217 0.67756-0.20303
  -2   4   3 165.564 88.2291   4 0.87414-0.94696 0.36488 0.11027 0.70167-0.31555
  -2   4   2 1918.28 122.065   0 0.41767-0.51422 0.64253-0.20759-0.24425 0.54195
   2  -4  -2 1708.17 117.245   1-0.78020 0.87674-0.34821-0.08674-0.81056 0.51286
   2  -4  -1 55511.1 397.781   1-0.78675 0.90703-0.48317 0.08843-0.79500 0.58572
  -2   4   1 62893.9 470.116   0 0.51757-0.63784 0.58075-0.18602-0.24478 0.45406
   2  -4   0 8345.43 210.092   5-0.74023 0.88422-0.60345 0.24892-0.79937 0.67851
  -2   4   0 8798.42 207.404   4 0.70261-0.84661 0.58370-0.22918 0.84406-0.72320
   2  -4   1 1843.50 128.037   5-0.65223 0.81995-0.72390 0.40959-0.80215 0.76971
  -2   4  -1 1981.59 114.847   4 0.55552-0.72324 0.69361-0.37929 0.89117-0.85872
   2  -4   2 4470.00 169.464   5-0.53098 0.72243-0.83653 0.56242-0.77886 0.83483
  -2   4  -2 6423.24 175.302   0 0.67583-0.86728 0.44641-0.17231-0.23585 0.17988
  -2   4  -3 3960.76 99.0513   2 0.51038-0.72555 0.06909 0.16481-0.61222 0.46783
   2  -4   3 2624.54 134.561   5-0.38298 0.59815-0.92347 0.68957-0.72471 0.86910
   2  -4   3 3160.86 132.740   3 0.17716 0.03802-0.70062 0.46672-0.82784 0.97223
  -2   4  -3 4187.53 148.518   0 0.69448-0.90965 0.42651-0.19261-0.23371 0.08932
   2  -4   4 1540.44 127.162   3 0.17817 0.06073-0.83191 0.63823-0.71721 0.95002
   2  -4   4 1361.63 119.423   5-0.22194 0.46083-0.97401 0.78032-0.64338 0.87618
   2  -4   5 1715.42 123.193   3 0.17082 0.09180-0.91149 0.75801-0.58430 0.90553
   2  -4   5 1289.86 110.941   5-0.06221 0.32483-0.98765 0.83417-0.54415 0.86538
  -2   4  -5 2037.42 123.546   0 0.69471-0.95733 0.42626-0.27278-0.23368-0.08755
   2  -4   6 318.715 97.1356   4 0.58761-0.30126-0.66187 0.54860-0.40357 0.81321
   2  -4   6 213.812 77.3118   3 0.15836 0.12799-0.94817 0.83490-0.44789 0.85753
  -2   4  -6 291.684 101.519   0 0.67746-0.96381 0.44471-0.33145-0.23567-0.17397
   2  -4   6 151.780 85.1121   5 0.08632 0.20002-0.97068 0.85741-0.43679 0.84644
  -2   4  -7 1547.43 156.299   1 0.28768-0.59775 0.93020-0.85714 0.16232-0.66038
   2  -4   7 1330.14 129.723   3 0.14339 0.16668-0.95459 0.88154-0.31818 0.81624
   2  -4   8 1042.11 142.835   5 0.33581-0.00202-0.87613 0.84328-0.22287 0.80935
  -2   4  -8 1453.94 177.778   1 0.21626-0.55006 0.91356-0.88071 0.08559-0.67207
   2  -4   8 1233.67 149.498   3 0.12747 0.20633-0.94101 0.90816-0.19868 0.78516
  -2   4  -9 27.7972 73.6200   1 0.14687-0.50439 0.89012-0.89748 0.01227-0.68717
  -2   4 -10 664.453 174.797   1 0.07915-0.46040 0.86075-0.90832-0.05818-0.70513
  -2   3   8 245.668 124.126   4 0.90829-0.87698 0.29291 0.28705 0.64592 0.13852
  -2   3   7 3696.08 252.085   4 0.91218-0.90460 0.28330 0.25645 0.63820 0.05782
  -2   3   6 26.9411 71.8458   4 0.91278-0.92893 0.28179 0.21775 0.63698-0.02938
  -2   3   5 2991.25 205.208   4 0.90918-0.94904 0.29076 0.16857 0.64419-0.12501
  -2   3   4 3486.69 175.289   4 0.89940-0.96300 0.31358 0.10555 0.66229-0.23152
  -2   3   3 2612.78 152.469   4 0.87946-0.96677 0.35484 0.02408 0.69410-0.35175
  -2   3   3 4038.65 138.052   0 0.20388-0.29120 0.73295-0.35404-0.23190 0.57425
   2  -3  -2 499.993 80.2980   1-0.77838 0.88943-0.33381-0.00489-0.81098 0.55704
  -2   3   2 468.952 61.3622   0 0.34816-0.45921 0.67762-0.33891-0.24176 0.49569
  -2   3   2 309.714 66.2159   4 0.84138-0.95243 0.42019-0.08149 0.74190-0.48797
  -2   3   1 239.114 68.5478   4 0.77031-0.90508 0.51435-0.21585 0.80427-0.63875
   2  -3  -1 208.299 56.3199   5-0.78151 0.91627-0.52716 0.22867-0.78801 0.62249
   2  -3   0 59803.6 415.452   5-0.69502 0.85351-0.67083 0.41254-0.80360 0.72650
  -2   3   0 61804.5 411.799   4 0.64258-0.80107 0.63414-0.37585 0.86866-0.79157
   2  -3   1 272.672 57.7623   5-0.56405 0.74627-0.81029 0.59221-0.78749 0.79881
  -2   3  -1 376.461 64.9785   4 0.43525-0.61747 0.75545-0.53738 0.90266-0.91398
  -2   3  -2 20538.1 168.770   2 0.34377-0.54971-0.02957 0.20743-0.75362 0.65389
   2  -3   2 14252.8 213.044   5-0.39715 0.60310-0.91701 0.73914-0.73084 0.83058
   2  -3   2 18117.6 226.125   3 0.17206 0.03388-0.60529 0.42743-0.87209 0.97183
  -2   3  -2 23128.4 273.158   0 0.63347-0.83942 0.48788-0.31001-0.23972 0.13998
   2  -3   3 16749.1 253.757   5-0.21630 0.44597-0.97508 0.83742-0.64017 0.82833
   2  -3   3 21126.1 246.154   3 0.17885 0.05082-0.80066 0.66300-0.75123 0.93938
  -2   3  -3 27046.0 297.680   0 0.65052-0.88019 0.47177-0.33411-0.23832 0.05016
  -2   3  -4 123.140 75.3627   0 0.65155-0.90494 0.47077-0.37332-0.23822-0.03835
   2  -3   4 76.2036 53.5731   5-0.04276 0.29615-0.98703 0.88958-0.53091 0.80748
   2  -3   4 66.3668 52.9062   3 0.17122 0.08217-0.90928 0.81183-0.58964 0.86621
  -2   3  -5 348.837 97.6091   1 0.32166-0.59878 0.93523-0.87799 0.19931-0.56430
  -2   3  -5 418.988 103.452   0 0.63734-0.91446 0.48429-0.42705-0.23942-0.12557
   2  -3   5 204.319 80.4198   5 0.11196 0.16515-0.96488 0.90765-0.41680 0.78179
   2  -3   5 246.885 81.2427   3 0.15622 0.12090-0.95078 0.89354-0.42780 0.79279
   2  -3   6 72.5844 77.1481   3 0.13884 0.16200-0.95236 0.93533-0.28255 0.73595
   2  -3   6 83.2456 77.5076   5 0.24516 0.05569-0.92068 0.90365-0.30579 0.75920
  -2   3  -6 12.7653 55.2006   1 0.24738-0.54822 0.92178-0.90475 0.11885-0.57226
   2  -3   6 69.9494 71.5102   4 0.68529-0.38444-0.58590 0.56887-0.29116 0.74457
  -2   3  -7 2623.87 171.252   1 0.17714-0.50170 0.90119-0.92437 0.04411-0.58593
   2  -3   7 2246.65 153.709   3 0.12132 0.20324-0.93208 0.95526-0.15592 0.69775
   2  -3   7 1741.27 148.998   5 0.35851-0.03394-0.86296 0.88613-0.20108 0.74291
   2  -3   7 2227.94 142.901   4 0.77626-0.45169-0.49245 0.51563-0.16458 0.70641
   2  -3   8 10517.8 292.855   5 0.45506-0.10676-0.79685 0.86023-0.10328 0.73352
  -2   3  -8 15952.7 389.953   1 0.11000-0.45829 0.87490-0.93829-0.02622-0.60402
  -2   3  -9 224.499 140.053   1 0.04519-0.41721 0.84369-0.94729-0.09312-0.62554
  -2   3 -10 226.448 123.936   1-0.01792-0.37782 0.80793-0.95174-0.15736-0.64972
  -2   2   9-0.05382 61.7691   3-0.01981 0.06034-0.45183 0.97576 0.57702 0.25207
  -2   2   9 8.37725 62.1078   4 0.91302-0.87249 0.28119 0.24274 0.63650 0.19259
  -2   2   8 694.746 163.571   4 0.91894-0.90213 0.26564 0.21808 0.62388 0.11680
  -2   2   8 584.255 181.244   3-0.01515 0.03196-0.47374 0.95746 0.55833 0.18235
  -2   2   7 173.080 97.4595   4 0.92195-0.92886 0.25734 0.18617 0.61707 0.03519
  -2   2   7 160.906 92.4684   3-0.01178 0.00486-0.48939 0.93290 0.54456 0.10769
  -2   2   6 1806.63 172.675   3-0.01006-0.02058-0.49726 0.90057 0.53750 0.02634
  -2   2   6 1562.44 152.019   4 0.92154-0.95218 0.25848 0.14483 0.61800-0.05417
  -2   2   5 4.55443 46.5778   4 0.91644-0.97081 0.27232 0.09077 0.62932-0.15390
  -2   2   5 37.4885 68.9748   3-0.01060-0.04376-0.49478 0.85787 0.53974-0.06432
  -2   2   4 1549.33 126.012   4 0.90373-0.98183 0.30371 0.01917 0.65451-0.26751
  -2   2   4 1708.45 148.729   3-0.01438-0.06371-0.47732 0.80020 0.55521-0.16821
  -2   2   3 2924.53 137.841   3-0.02303-0.07878-0.43643 0.71911 0.58976-0.29118
  -2   2   3 3800.42 107.677   0 0.06395-0.16577 0.76664-0.48396-0.21698 0.51557
   2  -2  -3 3522.30 88.3645   1-0.71292 0.81474-0.06992-0.21275-0.78276 0.48417
  -2   2   3 2679.73 145.864   4 0.87702-0.97884 0.35948-0.07681 0.69761-0.39902
   2  -2  -2 12239.5 132.554   1-0.78148 0.90702-0.35950 0.11704-0.81007 0.59990
  -2   2   2 13536.9 190.194   0 0.21931-0.34485 0.72808-0.48561-0.23323 0.44340
  -2   2   1 6608.33 134.950   0 0.34410-0.49337 0.67949-0.47723-0.24156 0.36331
  -2   2   1 5825.16 98.7960   2-0.91339 0.76413-0.49351 0.69577-0.56078 0.68253
  -2   2   1 4471.27 123.581   4 0.71467-0.86394 0.57244-0.37018 0.83802-0.71627
   2  -2  -1 4463.76 119.954   5-0.73531 0.88457-0.61148 0.40922-0.80019 0.67844
   2  -2   0 35.9136 32.3844   5-0.58827 0.76126-0.78913 0.62708-0.79282 0.75949
  -2   2   0 80.7947 50.8615   0 0.43780-0.61079 0.63123-0.46918-0.24466 0.27799
  -2   2   0 58.1485 55.6977   4 0.51786-0.69085 0.71524-0.55319 0.89696-0.86362
   2  -2   1 5298.20 136.364   5-0.38996 0.58668-0.92033 0.79849-0.72776 0.78284
  -2   2  -1 8433.28 164.024   0 0.50217-0.69889 0.59125-0.46941-0.24496 0.18988
  -2   2  -2 65040.9 334.544   2 0.41091-0.63136 0.00910 0.07252-0.70153 0.55802
  -2   2  -2 71392.4 395.467   0 0.54009-0.76053 0.56470-0.48308-0.24433 0.10083
   2  -2   2 55697.0 309.208   3 0.17874 0.04170-0.75891 0.67728-0.78811 0.93162
   2  -2   2 43876.6 339.467   5-0.18052 0.40096-0.98083 0.89920-0.61932 0.76282
  -2   2  -3 30919.0 276.022   0 0.55427-0.79844 0.55414-0.51272-0.24393 0.01201
  -2   2  -3 29221.3 299.822   1 0.32753-0.57170 0.93590-0.89448 0.20575-0.43767
   2  -2   3 24903.3 236.855   3 0.16976 0.07441-0.91687 0.87545-0.57062 0.80254
   2  -2   3 19164.5 253.272   5 0.00775 0.23641-0.98316 0.94174-0.49537 0.72729
  -2   2  -4 16124.1 215.354   0 0.54630-0.81419 0.56012-0.55891-0.24417-0.07617
   2  -2   4 10090.5 219.736   5 0.16477 0.10312-0.95024 0.94903-0.37425 0.69459
   2  -2   4 13005.0 206.237   3 0.14946 0.11844-0.95494 0.95373-0.36806 0.68840
  -2   2  -4 15309.2 257.710   1 0.25036-0.51825 0.92249-0.92128 0.12206-0.44239
   2  -2   5 1922.97 145.566   5 0.29315-0.00153-0.89865 0.93765-0.26268 0.67144
   2  -2   5 2016.53 139.573   4 0.67429-0.38268-0.59552 0.63451-0.30484 0.71360
  -2   2  -6 22.1825 41.0082   1 0.11594-0.43128 0.87748-0.95669-0.02003-0.47714
   2  -2   6 18.5867 41.2676   3 0.10953 0.20581-0.91057 0.98977-0.07782 0.57500
   2  -2   6 6.16826 38.2058   5 0.39870-0.08336-0.83750 0.91670-0.16141 0.65859
   2  -2   6 10.7339 47.7170   4 0.76589-0.45055-0.50457 0.58378-0.18043 0.67760
  -2   2  -7 53.5941 80.4705   1 0.05458-0.39365 0.84856-0.96798-0.08348-0.50211
   2  -2   7 46.6529 61.5172   5 0.48678-0.14771-0.77117 0.89059-0.06913 0.65472
   2  -2   7 83.0800 84.5528   4 0.83122-0.49216-0.41947 0.53889-0.07217 0.65776
   2  -2   8 2491.82 178.881   5 0.56141-0.19861-0.70161 0.86124 0.01585 0.65816
   2  -2   8 3175.98 195.906   4 0.87855-0.51576-0.33965 0.49928 0.02379 0.65022
  -2   2  -8 3949.57 228.466   1-0.00450-0.35830 0.81598-0.97560-0.14376-0.53024
  -2   2  -9 1853.39 193.900   1-0.06205-0.32447 0.77980-0.97963-0.20174-0.56069
  -2   2 -10 460.269 159.811   1-0.11861-0.29163 0.73993-0.97997-0.25799-0.59286
  -2   1  10 621.881 203.791   3-0.00413 0.05389-0.52409 0.99199 0.51275 0.36099
  -2   1   9 1814.08 223.805   4 0.92159-0.89555 0.25835 0.16934 0.61790 0.16743
  -2   1   9 2102.37 233.871   3 0.00282 0.02322-0.55478 0.98247 0.48303 0.30230
  -2   1   8 691.788 135.817   4 0.92661-0.92430 0.24383 0.14365 0.60590 0.09100
  -2   1   8 659.981 168.939   3 0.00897-0.00666-0.58124 0.96872 0.45612 0.24079
  -2   1   7 6468.36 265.529   3 0.01412-0.03554-0.60293 0.95021 0.43310 0.17539
  -2   1   7 5750.19 244.205   4 0.92862-0.95003 0.23773 0.10954 0.60083 0.00766
  -2   1   6 8.86726 44.1586   3 0.01798-0.06312-0.61887 0.92593 0.41559 0.10448
  -2   1   6 1.67912 44.6363   4 0.92686-0.97200 0.24308 0.06399 0.60528-0.08520
  -2   1   5 3539.03 174.316   3 0.02002-0.08888-0.62716 0.89402 0.40627 0.02538
  -2   1   5 3260.59 137.635   4 0.91932-0.98819 0.26461 0.00224 0.62303-0.19138
  -2   1   4 1456.49 130.298   3 0.01927-0.11186-0.62411 0.85076 0.40972-0.06648
  -2   1   4 1940.98 90.7804   0-0.30490 0.21231 0.76697-0.54033-0.15394 0.49718
  -2   1   4 1434.56 101.688   4 0.90112-0.99371 0.30972-0.08307 0.65926-0.31602
  -2   1   3 7221.25 165.790   4 0.86052-0.97683 0.38913-0.20270 0.71960-0.46478
  -2   1   3 7859.18 171.998   3 0.01384-0.13015-0.60175 0.78818 0.43438-0.17956
   2  -1  -2 181.875 36.3835   5-0.77357 0.91361-0.54326 0.39703-0.79092 0.62452
  -2   1   2 246.697 48.8921   0 0.00801-0.14805 0.77496-0.62873-0.20964 0.37604
  -2   1   2 246.774 64.9578   3-0.00038-0.13966-0.54074 0.68697 0.49681-0.33041
  -2   1   2 247.210 63.2921   2-0.91098 0.77094-0.49428 0.64050-0.56859 0.73499
  -2   1   2 224.224 65.0713   4 0.77085-0.91089 0.51372-0.36750 0.80388-0.63748
  -2   1   1 32821.2 212.906   2-0.72676 0.56300-0.48286 0.58888-0.85095 0.92893
  -2   1   1 26137.5 226.963   4 0.58490-0.74866 0.67511-0.56909 0.88509-0.80711
  -2   1   1 38009.9 264.839   0 0.13539-0.29916 0.75177-0.64576-0.22523 0.30321
   2  -1  -1 25774.8 203.358   5-0.59607 0.75983-0.78193 0.67591-0.79435 0.71636
  -2   1   0 812.469 86.1160   0 0.23500-0.42248 0.72287-0.65706-0.23452 0.22409
   2  -1   0 473.097 60.6703   5-0.33907 0.52656-0.94129 0.87548-0.70459 0.71502
  -2   1   0 650.602 50.4976   2-0.26572 0.07823-0.32804 0.39385-0.99050 0.98007
  -2   1  -1 39089.8 264.277   0 0.30358-0.51479 0.69711-0.67151-0.23935 0.14050
  -2   1  -1 37926.4 265.546   1 0.25212-0.46333 0.92291-0.89731 0.12395-0.22280
  -2   1  -2 986.618 71.6387   1 0.18715-0.42209 0.90457-0.91918 0.05468-0.24195
  -2   1  -2 960.001 78.3070   2 0.41896-0.65390 0.01383-0.02844-0.69487 0.50760
  -2   1  -2 1072.71 61.3090   0 0.33998-0.57492 0.68136-0.69597-0.24136 0.05409
  -2   1  -3 5866.47 114.723   0 0.34374-0.60240 0.67965-0.73447-0.24155-0.03414
  -2   1  -3 5374.13 148.316   1 0.13030-0.38897 0.88351-0.93833-0.00506-0.27063
   2  -1   3 4622.84 107.371   3 0.12973 0.12894-0.94384 0.99866-0.21484 0.49053
   2  -1   3 3661.81 138.638   5 0.25285 0.00582-0.91738 0.97220-0.29900 0.57468
  -2   1  -4 629.545 55.3126   0 0.31302-0.59541 0.69317-0.78819-0.23991-0.12419
   2  -1   4 460.283 76.8981   4 0.67904-0.39665-0.59140 0.68643-0.29897 0.66308
   2  -1   4 395.160 82.9278   5 0.36668-0.08429-0.85801 0.95303-0.19313 0.55724
  -2   1  -4 629.340 107.247   1 0.07741-0.35980 0.85991-0.95494-0.05998-0.30412
   2  -1   4 575.109 63.6323   3 0.10624 0.17615-0.90365 0.99868-0.05681 0.42091
   2  -1   5 1417.58 128.285   4 0.76714-0.46102-0.50314 0.63838-0.17855 0.63107
   2  -1   5 1619.63 105.138   3 0.08797 0.21815-0.85929 0.99453 0.05422 0.39830
  -2   1  -5 1843.70 130.020   1 0.02659-0.33271 0.83370-0.96894-0.11214-0.34038
   2  -1   5 1136.29 123.351   5 0.45756-0.15144-0.79490 0.93014-0.10063 0.55315
   2  -1   6 4068.29 212.454   4 0.82965-0.49981-0.42181 0.59725-0.07505 0.61599
   2  -1   6 3465.44 187.964   5 0.53253-0.20269-0.73017 0.90562-0.01787 0.55881
  -2   1  -7 1443.76 140.465   1-0.07217-0.28139 0.77298-0.98863-0.21186-0.41750
   2  -1   7 993.218 132.613   5 0.59598-0.24242-0.66432 0.87997 0.05780 0.57155
   2  -1   7 1205.37 136.090   4 0.87516-0.52159-0.34613 0.56179 0.01618 0.61318
  -2   1  -8 27.4473 74.4694   1-0.12102-0.25627 0.73813-0.99399-0.26037-0.45741
   2  -1   8 4.81982 65.6120   4 0.90861-0.53132-0.27466 0.53052 0.09852 0.61925
   2  -1   8 32.1313 67.4845   5 0.65067-0.27338-0.59721 0.85308 0.12829 0.58948
   2  -1   9 71.6874 135.005   4 0.93291-0.53190-0.20614 0.50221 0.17436 0.63183
  -2   1  -9 88.7824 107.170   1-0.16986-0.23115 0.70002-0.99609-0.30831-0.49788
  -2   0  10 381.802 172.507   3 0.01809 0.01717-0.61932 0.99098 0.41509 0.41488
  -2   0   9 3218.62 247.584   3 0.02652-0.01498-0.65320 0.98465 0.37604 0.36551
  -2   0   8 1738.52 152.905   4 0.93114-0.94333 0.22982 0.06143 0.59420 0.05894
  -2   0   8 1701.99 186.915   3 0.03447-0.04666-0.68402 0.97527 0.33815 0.31499
  -2   0   7 3277.39 173.022   4 0.93183-0.96775 0.22759 0.02345 0.59233-0.02760
  -2   0   7 3547.46 200.299   3 0.04189-0.07780-0.71173 0.96277 0.30189 0.26283
  -2   0   6 1222.03 116.990   4 0.92785-0.98749 0.24007-0.02925 0.60278-0.12647
  -2   0   6 1377.11 153.901   3 0.04865-0.10828-0.73611 0.94693 0.26803 0.20828
  -2   0   5 3437.89 154.678   4 0.91552-0.99888 0.27474-0.10412 0.63128-0.24339
  -2   0   5 3511.43 151.519   3 0.05453-0.13789-0.75662 0.92723 0.23790 0.14999
  -2   0   4 40.6348 42.6313   4 0.88504-0.99213 0.34388-0.21348 0.68578-0.38631
  -2   0   4 22.2395 32.8374   3 0.05910-0.16619-0.77208 0.90249 0.21407 0.08540
  -2   0   3 515.423 80.3685   3 0.06138-0.19219-0.77962 0.86981 0.20207 0.00899
  -2   0   3 715.460 71.6062   0-0.38250 0.25169 0.74936-0.65916-0.13594 0.34699
  -2   0   3 633.312 81.2272   2-0.91827 0.78746-0.49172 0.58192-0.54392 0.75497
  -2   0   3 454.700 60.4149   4 0.81040-0.94121 0.46471-0.37451 0.77244-0.56138
  -2   0   2 35078.2 247.630   4 0.63247-0.78701 0.64179-0.59180 0.87201-0.74937
  -2   0   2 38276.3 252.398   3 0.05863-0.21317-0.77050 0.82049 0.21655-0.09391
  -2   0   2 42418.9 282.477   2-0.80527 0.65074-0.49655 0.54654-0.77024 0.89287
  -2   0   2 46843.0 294.804   0-0.27194 0.11740 0.77241-0.72242-0.16104 0.28368
   2   0  -2 32741.4 170.959   5-0.55697 0.71151-0.81615 0.76616-0.78577 0.66313
  -2   0   1 150194. 493.535   0-0.17545-0.00281 0.78183-0.77205-0.18008 0.21430
  -2   0   1 142030. 455.400   2-0.51801 0.33975-0.42356 0.43334-0.96265 0.99687
  -2   0   0 85022.5 331.991   1-0.10100-0.10099 0.75281-0.78324-0.24055 0.18635
  -2   0   0 87921.1 365.875   0-0.10099-0.10100 0.78285-0.81328-0.19310 0.13890
  -2   0   0 82134.4 364.264   2-0.10100-0.10099-0.25615 0.22572-0.96589 0.91169
  -2   0  -1 3436.52 125.152   2 0.22103-0.44674-0.09696 0.02633-0.83408 0.69146
  -2   0  -1 3736.99 96.2691   0-0.05643-0.16929 0.78095-0.85159-0.20022 0.05760
  -2   0  -1 3506.28 101.310   1-0.05768-0.16803 0.78270-0.85334-0.19736 0.05475
  -2   0  -2 9231.54 174.743   2 0.39771-0.64715 0.00139-0.11224-0.71226 0.48122
  -2   0  -2 9731.78 176.966   1-0.05522-0.19421 0.78432-0.89516-0.19490-0.03613
   2   0   2 8284.99 170.684   4 0.58322-0.33378-0.66483 0.77568-0.40819 0.63923
  -2   0  -2 10670.0 139.348   0-0.04965-0.19978 0.78050-0.89135-0.20126-0.02978
   2   0   2 6547.41 148.971   5 0.38187-0.13243-0.84850 0.95935-0.17821 0.40924
  -2   0  -3 25182.4 292.417   2 0.48703-0.76020 0.05469-0.20575-0.63460 0.31515
  -2   0  -3 25527.0 301.147   1-0.07042-0.20274 0.77417-0.92522-0.21011-0.10934
   2   0   3 22402.9 208.030   3 0.05807 0.21510-0.76861 0.91966 0.21951 0.09994
  -2   0  -3 27708.0 191.331   0-0.09049-0.18267 0.78257-0.93363-0.19482-0.12463
   2   0   3 17366.0 246.176   5 0.46627-0.19311-0.78801 0.93907-0.09133 0.41079
   2   0   3 20931.3 286.024   4 0.70149-0.42832-0.57114 0.72220-0.27044 0.58989
  -2   0  -4 865.883 108.349   1-0.09491-0.20197 0.75716-0.94842-0.23451-0.17336
   2   0   4 847.498 77.8555   3 0.05022 0.24667-0.74166 0.93292 0.26003 0.14784
   2   0   4 645.995 114.907   5 0.53395-0.23706-0.72882 0.92008-0.01624 0.42411
   2   0   4 683.174 109.762   4 0.78094-0.48405-0.48684 0.67810-0.15729 0.56516
   2   0   5 125.674 67.6157   3 0.04181 0.27880-0.71144 0.94292 0.30228 0.19400
  -2   0  -5 126.830 82.9490   1-0.12499-0.19562 0.73516-0.96663-0.26428-0.23201
   2   0   5 95.3466 56.0944   5 0.59083-0.27022-0.67011 0.90158 0.05143 0.44485
   2   0   5 125.498 102.885   4 0.83718-0.51657-0.41048 0.64195-0.06111 0.55740
   2   0   6 2521.64 161.222   4 0.87841-0.53407-0.33993 0.61162 0.02346 0.56125
   2   0   6 2019.30 146.186   5 0.64008-0.29574-0.61108 0.88277 0.11420 0.47051
  -2   0  -7 86.3553 94.2436   1-0.19517-0.17290 0.67895-0.99085-0.33293-0.34019
   2   0   7 10.1348 41.1703   4 0.90912-0.54106-0.27341 0.58531 0.09993 0.57319
   2   0   7 14.9022 58.2798   5 0.68349-0.31543-0.55111 0.86301 0.17356 0.49957
   2   0   8 393.093 143.857   5 0.72212-0.33033-0.48964 0.84174 0.23050 0.53104
  -2   0  -8 469.494 150.121   1-0.23359-0.15819 0.64517-0.99727-0.37000-0.39153
   2   0   8 449.066 185.040   4 0.93186-0.54007-0.20958 0.56169 0.17061 0.59093
   2   0   9 83.4154 96.6575   4 0.94812-0.53260-0.14745 0.53976 0.23706 0.61290
  -2   0  -9 36.5265 105.161   1-0.27365-0.14186 0.60756-0.99988-0.40825-0.44170
  -2  -1  11-2.88200 72.4752   3 0.03049 0.01400-0.66874 0.98438 0.35724 0.51739
  -2  -1  10 687.049 167.473   3 0.04064-0.01987-0.70714 0.98256 0.30806 0.47815
  -2  -1   9 2766.10 233.624   3 0.05061-0.05357-0.74303 0.97825 0.25803 0.43976
  -2  -1   8 1941.04 158.587   3 0.06048-0.08716-0.77664 0.97165 0.20683 0.40254
  -2  -1   7 117.957 80.5427   4 0.93031-0.98072 0.23247-0.07767 0.59642-0.07546
  -2  -1   7 91.6899 67.6086   3 0.07032-0.12073-0.80819 0.96299 0.15395 0.36701
  -2  -1   6 5466.87 167.060   4 0.92166-0.99580 0.25815-0.14356 0.61773-0.18519
  -2  -1   6 5705.32 196.090   3 0.08027-0.15440-0.83791 0.95250 0.09855 0.33399
  -2  -1   5 2623.96 114.068   4 0.89752-0.99538 0.31775-0.24337 0.66556-0.32144
  -2  -1   5 2451.50 121.543   3 0.09053-0.18839-0.86609 0.94047 0.03914 0.30498
  -2  -1   4 6741.23 166.732   3 0.10149-0.22308-0.89308 0.92725-0.02713 0.28284
  -2  -1   4 7114.36 182.233   2-0.92797 0.80638-0.48687 0.52104-0.50454 0.76024
  -2  -1   3 30732.4 284.227   2-0.85676 0.71145-0.50031 0.49427-0.69387 0.86116
  -2  -1   3 29391.9 260.898   3 0.11397-0.25928-0.91929 0.91325-0.10668 0.27397
  -2  -1   2 95659.3 362.466   3 0.13000-0.29903-0.94416 0.89791-0.21679 0.29566
  -2  -1   2 101410. 437.400   2-0.68066 0.51162-0.47204 0.42579-0.88581 0.96468
  -2  -1   1 338565. 2938.17   2-0.37153 0.17877-0.37050 0.28404-0.98957 0.98002
  -2  -1   1 343633. 2562.16   1-0.53452 0.34176 0.28839-0.37485-0.64475 0.63521
  -2  -1   0 48117.6 281.386   0-0.47985 0.26337 0.71662-0.84329-0.11050 0.01254
  -2  -1   0 45735.3 298.968   1-0.37622 0.15973 0.49910-0.62577-0.50412 0.40616
  -2  -1  -1 12913.5 199.120   2 0.21414-0.45435-0.10063-0.06625-0.83807 0.65169
   2   1   1 11169.9 194.978   4 0.64486-0.40465-0.61984 0.78672-0.34010 0.52648
  -2  -1  -1 14024.5 152.636   0-0.49277 0.25256 0.71128-0.87816-0.10686-0.07952
   2   1   1 9227.95 175.345   5 0.54465-0.30444-0.71845 0.88533-0.00385 0.19024
  -2  -1  -1 13171.5 200.004   1-0.29370 0.05349 0.58779-0.75467-0.42723 0.24085
  -2  -1  -2 1666.13 107.938   2 0.35862-0.62256-0.02113-0.18596-0.74262 0.46782
   2   1   2 1377.11 99.5041   4 0.74241-0.47847-0.53047 0.73755-0.21482 0.48962
   2   1   2 1218.87 99.2509   5 0.58507-0.32113-0.67648 0.88357 0.04436 0.23044
  -2  -1  -2 1750.99 116.222   1-0.25618-0.00776 0.62428-0.83136-0.39162 0.11682
  -2  -1  -3 576.359 83.1498   1-0.24441-0.04325 0.63527-0.88256-0.38037 0.01715
  -2  -1  -3 507.680 92.5632   2 0.43804-0.72570 0.02513-0.27242-0.67869 0.31547
   2   1   3 571.897 75.7593   3-0.00740 0.29506-0.50940 0.75669 0.52644-0.16322
   2   1   3 523.410 97.8903   4 0.80731-0.51965-0.45324 0.70053-0.11432 0.47753
   2   1   4 252.661 82.7933   5 0.65787-0.34648-0.58753 0.87503 0.13800 0.31363
   2   1   4 267.929 93.4384   4 0.85366-0.54227-0.38418 0.67169-0.02914 0.48077
   2   1   4 488.734 91.2980   3-0.00128 0.31267-0.53678 0.82428 0.50064-0.04901
  -2  -1  -4 448.683 122.671   2 0.47968-0.79106 0.05020-0.33770-0.64147 0.18983
  -2  -1  -4 390.686 94.3896   1-0.24821-0.06318 0.63174-0.91925-0.38401-0.06763
   2   1   5 13.1893 48.2548   5 0.69089-0.35578-0.53999 0.86770 0.18413 0.35592
  -2  -1  -5 48.1894 69.1917   2 0.49867-0.83378 0.06185-0.38956-0.62356 0.08351
  -2  -1  -5 33.5466 70.0845   1-0.26204-0.07306 0.61872-0.94643-0.39721-0.14284
   2   1   5 41.3228 53.9086   4 0.88819-0.55308-0.32042 0.64814 0.04620 0.49385
   2   1   6 1718.26 170.239   4 0.91441-0.55557-0.26005 0.62797 0.11494 0.51353
   2   1   6 1580.74 179.688   5 0.72180-0.36297-0.49017 0.85809 0.23002 0.39845
  -2  -1  -7 26.9587 76.0247   2 0.49766-0.88021 0.06122-0.46935-0.62453-0.09235
   2   1   7 56.2336 91.5679   4 0.93422-0.55166-0.20177 0.60990 0.17909 0.53780
  -2  -1  -7 19.8627 57.9822   1-0.30836-0.07419 0.57290-0.98103-0.44105-0.27584
   2   1   8 701.114 188.181   4 0.94871-0.54242-0.14471 0.59305 0.23994 0.56536
  -2  -1  -8 686.700 175.928   2 0.48468-0.89096 0.05325-0.50159-0.63681-0.16849
  -2  -1  -8 585.705 170.351   1-0.33769-0.06859 0.54202-0.99036-0.46848-0.33682
   2   1   9 15.1114 114.413   4 0.95847-0.52846-0.08821 0.57676 0.29836 0.59537
  -2  -2  11 74.0397 97.0260   3 0.05147-0.02148-0.74603 0.96542 0.25366 0.57721
  -2  -2  10 24.8466 102.309   3 0.06278-0.05651-0.78420 0.96339 0.19463 0.54781
  -2  -2   9 9.93718 69.5829   3 0.07414-0.09160-0.81986 0.95884 0.13293 0.52110
  -2  -2   8 1193.75 136.963   3 0.08567-0.12685-0.85307 0.95184 0.06758 0.49803
  -2  -2   7 6193.54 198.580   3 0.09755-0.16246-0.88376 0.94232-0.00292 0.48011
  -2  -2   6 676.169 100.988   3 0.11001-0.19864-0.91154 0.92989-0.08091 0.46968
  -2  -2   5 239.491 45.6105   4 0.83433-0.94668 0.43090-0.45276 0.74941-0.44905
  -2  -2   5 224.188 66.7434   3 0.12340-0.23576-0.93530 0.91344-0.17022 0.47058
  -2  -2   5 266.342 61.2969   2-0.93686 0.82450-0.47971 0.45785-0.45629 0.75665
  -2  -2   4 10560.2 196.857   3 0.13817-0.27426-0.95191 0.88984-0.27742 0.48936
  -2  -2   4 11743.6 215.615   2-0.89276 0.75668-0.49822 0.43615-0.61929 0.83123
  -2  -2   3 22391.9 231.750   3 0.15465-0.31446-0.95226 0.84998-0.41350 0.53702
  -2  -2   3 25063.3 211.786   1-0.78658 0.62678-0.48869 0.38641-0.79387 0.91740
  -2  -2   3 23772.5 258.262   2-0.78399 0.62419-0.49358 0.39131-0.79545 0.91897
  -2  -2   2 162553. 582.237   2-0.57733 0.39380-0.44277 0.30028-0.94147 0.97657
  -2  -2   2 157293. 495.550   3 0.17144-0.35498-0.90802 0.76554-0.59259 0.62770
  -2  -2   1 19259.5 221.380   2-0.29065 0.08339-0.33832 0.15563-0.99153 0.93822
   2   2  -1 18027.1 189.439   4 0.62536-0.41810-0.63490 0.81759-0.36243 0.41575
  -2  -2   1 20878.4 227.093   1-0.62289 0.41563 0.13626-0.31896-0.71741 0.66410
  -2  -2   1 19171.9 170.702   3 0.17845-0.38570-0.74276 0.56007-0.80032 0.74701
  -2  -2   0 59276.6 387.870   2-0.01558-0.21540-0.21630-0.00660-0.94160 0.79987
   2   2   0 52586.5 347.218   4 0.73479-0.50381-0.53844 0.76135-0.22556 0.36729
  -2  -2   0 62601.4 402.194   1-0.51900 0.28802 0.31201-0.53491-0.63147 0.48974
   2   2   0 42529.6 324.495   5 0.70905-0.47806-0.51144 0.73434 0.21072-0.06899
  -2  -2  -1 15900.0 245.534   2 0.18295-0.43765-0.11708-0.14603-0.85547 0.62532
   2   2   1 13646.8 214.330   4 0.79987-0.54516-0.46308 0.72619-0.12679 0.35694
   2   2   1 11322.6 202.355   5 0.70565-0.45094-0.51693 0.78005 0.20567 0.02448
  -2  -2  -1 16927.9 250.768   1-0.44714 0.19243 0.41228-0.67540-0.56841 0.33826
   2   2   2 3382.34 141.604   5 0.71343-0.43500-0.50424 0.80756 0.21730 0.10127
  -2  -2  -2 4885.10 160.237   2 0.30709-0.58552-0.05013-0.25319-0.77958 0.46102
   2   2   2 4112.06 161.106   4 0.84456-0.56613-0.39897 0.70229-0.04705 0.36562
  -2  -2  -2 5144.24 179.870   1-0.40401 0.12557 0.46636-0.76968-0.52953 0.21096
   2   2   3 3248.02 161.758   4 0.87784-0.57568-0.34103 0.68456 0.02217 0.38481
  -2  -2  -3 3957.42 173.195   2 0.38008-0.68224-0.00882-0.33471-0.72621 0.31923
  -2  -2  -3 4025.62 171.656   1-0.38207 0.07991 0.49233-0.83587-0.50949 0.10251
   2   2   3 2894.04 166.420   5 0.72719-0.42504-0.48086 0.82439 0.23834 0.16864
  -2  -2  -4 16.2470 53.7829   2 0.42063-0.74651 0.01481-0.39855-0.69347 0.19807
   2   2   4 36.0999 76.8538   4 0.90363-0.57775-0.28656 0.67030 0.08505 0.41035
  -2  -2  -4 11.0186 54.6949   1-0.37519 0.04931 0.50028-0.88403-0.50318 0.00778
  -2  -2  -5 868.652 142.684   1-0.37907 0.02946 0.49581-0.91976-0.50674-0.07708
  -2  -2  -5 898.516 140.805   2 0.44029-0.78989 0.02646-0.45041-0.67675 0.09293
   2   2   5 692.381 166.866   4 0.92389-0.57429-0.23403 0.65798 0.14384 0.43998
  -2  -2  -6 3398.29 248.133   2 0.44582-0.81915 0.02977-0.49392-0.67194-0.00030
  -2  -2  -6 3225.01 204.282   1-0.39082 0.01749 0.48209-0.94625-0.51750-0.15473
   2   2   7 568.584 179.774   4 0.95142-0.55436-0.13136 0.63573 0.25390 0.50675
  -2  -2  -7 594.308 181.044   2 0.44122-0.83828 0.02702-0.53139-0.67594-0.08471
  -2  -2  -7 871.565 205.096   1-0.40847 0.01142 0.46095-0.96531-0.53359-0.22707
   2   2   8 35.2708 103.228   4 0.95950-0.53872-0.08017 0.62474 0.30653 0.54254
  -2  -2  -8 79.8721 95.7284   1-0.43069 0.00990 0.43340-0.97798-0.55366-0.29541
  -2  -2  -8 60.7290 111.716   2 0.42887-0.84965 0.01968-0.56426-0.68653-0.16254
  -2  -3  11 89.1114 105.873   3 0.07150-0.05600-0.81181 0.93497 0.14752 0.63958
  -2  -3  10 321.261 133.125   3 0.08367-0.09191-0.84755 0.93050 0.07910 0.61958
  -2  -3   9 1106.32 181.011   3 0.09599-0.12794-0.87995 0.92269 0.00654 0.60372
  -2  -3   8 39.3680 56.4584   3 0.10854-0.16422-0.90853 0.91106-0.07148 0.59333
  -2  -3   7 1462.52 152.050   3 0.12145-0.20086-0.93229 0.89461-0.15680 0.59022
  -2  -3   6 1632.91 128.455   3 0.13479-0.23792-0.94919 0.87130-0.25192 0.59693
  -2  -3   6 1742.55 120.550   2-0.94328 0.84015-0.47014 0.39225-0.40168 0.74669
  -2  -3   5 12370.2 247.974   3 0.14851-0.27536-0.95511 0.83702-0.36006 0.61665
  -2  -3   5 13033.8 240.249   2-0.91803 0.79117-0.49182 0.37372-0.54480 0.80139
  -2  -3   4 5086.60 156.865   2-0.85151 0.70093-0.50021 0.34190-0.70295 0.87113
  -2  -3   4 4913.24 162.631   3 0.16207-0.31266-0.94173 0.78342-0.48450 0.65267
  -2  -3   3 3780.01 127.672   1-0.78434 0.61004-0.39049 0.19197-0.80801 0.88777
  -2  -3   3 3496.28 118.596   3 0.17370-0.34801-0.89274 0.69422-0.62514 0.70490
  -2  -3   3 3426.78 120.764   2-0.71922 0.54492-0.48121 0.28269-0.85717 0.93693
  -2  -3   2 28.8139 35.8868   2-0.50949 0.31146-0.42069 0.18196-0.96515 0.95649
  -2  -3   2 16.9488 35.9721   1-0.74096 0.54293-0.15711-0.08161-0.79922 0.79056
   2   3  -2 34.1279 35.9423   4 0.81168-0.61364-0.44733 0.68606-0.10687 0.11553
  -2  -3   2 27.8650 30.2807   3 0.17893-0.37696-0.78201 0.54329-0.76874 0.76008
  -2  -3   1 6226.90 147.172   2-0.25804 0.03628-0.32484 0.04591-0.99003 0.89296
   2   3  -1 5729.00 139.178   4 0.84212-0.62036-0.40283 0.68176-0.05175 0.14882
  -2  -3   1 6888.24 171.771   1-0.67072 0.44896 0.03624-0.31517-0.75374 0.65666
  -2  -3   1 6181.73 137.238   3 0.17106-0.39281-0.59048 0.31155-0.87717 0.78009
   2   3   0 1328.96 86.4470   4 0.86701-0.62153-0.36112 0.68026-0.00155 0.18704
  -2  -3   0 1712.12 116.969   2-0.03112-0.21436-0.22368-0.09547-0.94659 0.76109
  -2  -3   0 1732.18 121.963   1-0.60187 0.35639 0.17564-0.49478-0.70067 0.51518
  -2  -3  -1 2013.57 120.598   2 0.13588-0.40509-0.14145-0.21790-0.87969 0.60578
   2   3   1 1664.76 113.180   4 0.88839-0.61918-0.32003 0.67938 0.04666 0.22725
  -2  -3  -1 2073.41 130.859   1-0.54748 0.27828 0.26806-0.62741-0.65574 0.38183
  -2  -3  -2 4117.01 170.568   2 0.24600-0.53893-0.08358-0.31598-0.81917 0.45684
  -2  -3  -2 4293.96 184.298   1-0.50991 0.21698 0.32549-0.72505-0.62362 0.26129
  -2  -3  -3 205.046 85.0094   2 0.31440-0.63106-0.04606-0.39370-0.77455 0.32380
  -2  -3  -3 262.350 94.8428   1-0.48726 0.17061 0.35802-0.79779-0.60391 0.15316
   2   3   3 129.255 82.3721   4 0.92285-0.60620-0.23703 0.67680 0.14053 0.31022
  -2  -3  -4 2729.13 200.588   2 0.35434-0.69472-0.02357-0.45641-0.74582 0.20666
  -2  -3  -4 2979.32 161.370   1-0.47672 0.13634 0.37268-0.85265-0.59465 0.05549
   2   3   5 73.4834 88.9331   4 0.94725-0.58315-0.15139 0.67158 0.23291 0.39467
  -2  -3  -5 18.9303 58.7999   1-0.47572 0.11161 0.37406-0.89425-0.59376-0.03382
  -2  -3  -5 16.0946 75.4366   2 0.37478-0.73889-0.01187-0.50832-0.73032 0.10273
  -2  -3  -6 3644.77 246.404   2 0.38142-0.76925-0.00805-0.55234-0.72517 0.00917
  -2  -3  -6 4057.61 252.274   1-0.48218 0.09434 0.36513-0.92553-0.59945-0.11655
   2   3   6 3169.96 259.790   4 0.95568-0.56785-0.10728 0.66768 0.27884 0.43716
  -2  -3  -7 1072.61 219.821   2 0.37777-0.78933-0.01015-0.59045-0.72800-0.07641
  -2  -3  -7 1083.85 209.581   1-0.49454 0.08298 0.34774-0.94834-0.61027-0.19415
   2   3   7 482.576 150.927   4 0.96148-0.54992-0.06218 0.66278 0.32467 0.47974
  -2  -4  11 735.627 174.672   3 0.08992-0.08892-0.86448 0.89140 0.04275 0.70059
  -2  -4  10 170.626 114.866   3 0.10252-0.12524-0.89542 0.88213-0.03348 0.68840
  -2  -4   9 8539.10 310.786   3 0.11515-0.16161-0.92149 0.86799-0.11446 0.68096
  -2  -4   8 5514.93 238.725   3 0.12784-0.19802-0.94149 0.84778-0.20132 0.67940
  -2  -4   7 5700.76 233.982   3 0.14049-0.23439-0.95335 0.81943-0.29530 0.68496
  -2  -4   6 5978.96 223.336   3 0.15286-0.27049-0.95354 0.77942-0.39752 0.69877
  -2  -4   6 6127.89 208.224   2-0.93477 0.81714-0.48176 0.30764-0.46930 0.77055
  -2  -4   5 429.565 97.4092   2-0.89614 0.75479-0.49769 0.28335-0.61078 0.82361
  -2  -4   5 412.605 79.9839   3 0.16434-0.30570-0.93632 0.72198-0.50819 0.72102
  -2  -4   4 12745.6 249.509   3 0.17368-0.33876-0.89291 0.63836-0.62481 0.74922
  -2  -4   4 13481.7 227.516   2-0.81420 0.64912-0.49758 0.24304-0.75873 0.88314
  -2  -4   3 746.184 100.987   3 0.17869-0.36749-0.81241 0.51766-0.73919 0.77518
  -2  -4   3 733.219 82.2947   2-0.67299 0.48419-0.47008 0.17533-0.89092 0.92692
  -2  -4   3 868.662 90.7520   1-0.78127 0.59247-0.35761 0.06286-0.81016 0.84615
  -2  -4   2 779.789 81.2409   1-0.74919 0.53666-0.18710-0.14786-0.80331 0.75088
  -2  -4   2 681.565 72.2933   3 0.17662-0.38915-0.68756 0.35260-0.83525 0.78282
  -2  -4   2 755.987 87.8816   2-0.47565 0.26313-0.40898 0.07402-0.97387 0.92145
   2   4  -2 658.450 60.3746   4 0.93645-0.72392-0.19407 0.52903 0.18741-0.13499
   2   4  -1 1411.10 103.040   4 0.92954-0.69328-0.21701 0.59218 0.16251-0.02167
  -2  -4   1 1527.23 104.175   2-0.25864 0.02238-0.32509-0.05008-0.99007 0.84923
  -2  -4   0 2126.12 119.264   2-0.06725-0.19272-0.24061-0.17477-0.95721 0.72795
   2   4   0 1907.20 111.304   4 0.93094-0.67096-0.21257 0.62795 0.16736 0.06190
  -2  -4   0 2133.52 123.027   1-0.65619 0.39621 0.06841-0.48379-0.74301 0.51375
  -2  -4  -1 1666.24 129.107   2 0.07728-0.36099-0.17105-0.28454-0.90651 0.58883
   2   4   1 1491.32 130.494   4 0.93612-0.65241-0.19523 0.65082 0.18616 0.13152
  -2  -4  -1 1817.39 129.910   1-0.61654 0.33283 0.14842-0.60401-0.71239 0.39471
   2   4   2 137.707 69.0688   4 0.94274-0.63531-0.17052 0.66632 0.21265 0.19344
  -2  -4  -2 152.251 90.8990   2 0.17695-0.48437-0.12022-0.37558-0.85869 0.45260
  -2  -4  -2 188.316 86.2361   1-0.58688 0.27945 0.20239-0.69818-0.68850 0.28240
   2   4   3 430.393 136.665   4 0.94949-0.61834-0.14097 0.67698 0.24386 0.25066
  -2  -4  -3 492.113 142.350   2 0.24175-0.57290-0.08587-0.45014-0.82176 0.32724
  -2  -4  -3 537.825 146.384   1-0.56733 0.23618 0.23574-0.77175-0.67238 0.17786
  -2  -4  -4 2833.71 216.963   2 0.28122-0.63610-0.06442-0.51180-0.79689 0.21396
   2   4   4 2490.44 206.565   4 0.95557-0.60069-0.10795 0.68417 0.27815 0.30478
  -2  -4  -4 3233.77 238.979   1-0.55688 0.20200 0.25294-0.82915-0.66365 0.08072
   2   4   5 187.071 111.316   4 0.96043-0.58183-0.07219 0.68862 0.31459 0.35676
  -2  -4  -5 157.708 130.860   2 0.30239-0.68100-0.05274-0.56368-0.78279 0.11144
   2   4   6 24.3603 75.1079   4 0.96367-0.56135-0.03415 0.69079 0.35259 0.40718
  -2  -4  -6 48.7594 95.5769   2 0.31003-0.71236-0.04850-0.60813-0.77757 0.01780
  -2  -4  -6 42.2769 105.613   1-0.55795 0.15562 0.25120-0.90783-0.66455-0.09522
  -2  -4  -7 82.5853 118.915   2 0.30725-0.73330-0.05004-0.64680-0.77947-0.06871
  -2  -5  11 1098.68 209.755   3 0.10621-0.11972-0.90360 0.83428-0.05667 0.75623
  -2  -5  10 2323.14 205.817   3 0.11871-0.15593-0.92778 0.81825-0.13817 0.74932
  -2  -5   9 672.257 114.615   3 0.13100-0.19195-0.94531 0.79557-0.22400 0.74673
  -2  -5   8 3781.72 231.707   3 0.14294-0.22762-0.95444 0.76450-0.31461 0.74893
  -2  -5   7-5.09143 42.5147   3 0.15428-0.26268-0.95256 0.72241-0.41012 0.75602
  -2  -5   6 1233.81 139.734   3 0.16449-0.29662-0.93592 0.66555-0.50977 0.76725
  -2  -5   6 1270.62 139.268   2-0.92470 0.79258-0.48874 0.21838-0.51888 0.77635
  -2  -5   5 6079.15 217.243   3 0.17277-0.32862-0.89965 0.58908-0.61113 0.78019
  -2  -5   5 6421.27 197.590   2-0.87679 0.72094-0.49984 0.18927-0.65549 0.82455
  -2  -5   4 3380.21 155.187   1-0.78634 0.60676-0.49512 0.14434-0.79251 0.87315
  -2  -5   4 3160.48 163.388   3 0.17791-0.35749-0.83857 0.48778-0.70907 0.78972
  -2  -5   4 3547.87 149.848   2-0.78734 0.60776-0.49409 0.14331-0.79168 0.87232
  -2  -5   3 464.390 89.4371   1-0.78097 0.57767-0.35486-0.03613-0.81029 0.80251
  -2  -5   3 419.640 67.2124   2-0.64820 0.44490-0.46350 0.07251-0.90627 0.89850
  -2  -5   2 11861.2 232.636   2-0.46960 0.24257-0.40685-0.02435-0.97523 0.87904
  -2  -5   2 12555.3 257.953   1-0.75827 0.53125-0.22391-0.20728-0.80719 0.71100
  -2  -5   2 11657.3 271.869   3 0.17392-0.40094-0.63486 0.20366-0.86063 0.76444
  -2  -5   1 4699.86 161.309   2-0.28244 0.03169-0.33496-0.13645-0.99127 0.80667
  -2  -5   1 5075.84 194.877   1-0.72708 0.47632-0.11160-0.35981-0.79147 0.60686
   2   5   0 2021.97 140.121   4 0.95838-0.68391-0.08888 0.60050 0.29767-0.02465
  -2  -5   0 2441.22 175.415   1-0.69485 0.42038-0.02174-0.48988-0.77080 0.49777
  -2  -5   0 2473.50 146.151   2-0.11801-0.15646-0.26388-0.24774-0.96981 0.69678
  -2  -5  -1 69.8258 68.7711   2 0.00952-0.30772-0.20427-0.34756-0.93300 0.57156
   2   5   1 69.4017 56.6788   4 0.95877-0.66056-0.08598 0.63781 0.30062 0.06082
  -2  -5  -1 50.5148 48.9429   1-0.66642 0.36821 0.04596-0.59778-0.75059 0.38915
  -2  -5  -2 2992.60 184.278   2 0.10085-0.42277-0.15924-0.43279-0.89617 0.44630
   2   5   2 2435.58 167.712   4 0.96041-0.63848-0.07242 0.66446 0.31436 0.13550
  -2  -5  -2 3053.70 210.213   1-0.64414 0.32221 0.09385-0.68588-0.73389 0.28403
   2   5   3 61.9409 91.4310   4 0.96242-0.61677-0.05171 0.68395 0.33515 0.20313
  -2  -5  -3 22.2030 60.8247   1-0.62873 0.28308 0.12489-0.75713-0.72199 0.18371
   2   5   4 24.5898 79.1277   4 0.96412-0.59474-0.02582 0.69828 0.36080 0.26590
  -2  -5  -4 18.7612 63.1644   1-0.62000 0.25063 0.14182-0.81427-0.71513 0.08844
  -2  -5  -5 1150.48 197.648   1-0.61734 0.22424 0.14689-0.85956-0.71303-0.00209
   2   5   5 831.600 205.820   4 0.96494-0.57184 0.00404 0.70862 0.38994 0.32517
  -2  -5  -6 7.68307 73.7506   1-0.62000 0.20317 0.14182-0.89469-0.71513-0.08840
  -2  -6  11 1054.58 247.210   3 0.12005-0.14805-0.93003 0.76447-0.14727 0.80308
  -2  -6  10 1709.57 169.796   3 0.13197-0.18370-0.94639 0.74062-0.23112 0.79850
  -2  -6   9 117.031 96.5718   3 0.14337-0.21882-0.95459 0.70861-0.31798 0.79695
  -2  -6   8 107.680 58.6535   3 0.15399-0.25316-0.95278 0.66660-0.40757 0.79811
  -2  -6   7 359.449 93.0106   2-0.94082 0.81792-0.47467 0.14828-0.42652 0.72865
  -2  -6   7 336.357 116.948   3 0.16347-0.28637-0.93856 0.61216-0.49891 0.80104
  -2  -6   6 548.008 109.594   2-0.91638 0.76976-0.49246 0.12586-0.55064 0.76435
  -2  -6   6 526.517 128.451   3 0.17125-0.31788-0.90911 0.54251-0.59003 0.80374
  -2  -6   5 539.290 86.2446   3 0.17665-0.34699-0.86174 0.45493-0.67759 0.80289
  -2  -6   5 639.705 97.2810   2-0.86390 0.69355-0.50030 0.09349-0.68093 0.80623
  -2  -6   4 1097.48 121.650   1-0.78682 0.59274-0.48074 0.03372-0.79548 0.83236
  -2  -6   4 1045.37 148.082   3 0.17890-0.37297-0.79489 0.34787-0.75684 0.79372
  -2  -6   3 1040.44 140.997   1-0.78237 0.56457-0.36810-0.11913-0.80961 0.75807
  -2  -6   3 773.454 131.450   3 0.17749-0.39529-0.70973 0.22250-0.82237 0.77083
  -2  -6   2 22.1893 48.0975   1-0.76691 0.52539-0.26431-0.26313-0.80997 0.67002
  -2  -6   2 95.0675 92.0243   3 0.17246-0.41398-0.61127 0.08383-0.86992 0.72997
  -2  -6   1 2295.18 180.233   1-0.74584 0.48059-0.17459-0.39306-0.80170 0.57333
   2   6  -1 2741.89 161.285   0 0.91261-0.64737-0.02929 0.59694-0.14883 0.37720
   2   6   0 396.965 110.107   4 0.96492-0.67594 0.01694 0.59092 0.40237-0.08558
  -2  -6   0 616.919 129.194   1-0.72371 0.43474-0.10131-0.50655-0.78946 0.47267
   2   6   1 10.3522 68.9003   4 0.96495-0.65226 0.01141 0.63666 0.39705 0.00816
  -2  -6  -1 43.7742 73.8520   1-0.70367 0.39097-0.04466-0.60340-0.77674 0.37153
   2   6   2 189.232 102.856   4 0.96491-0.62849 0.01761 0.67066 0.40302 0.09061
  -2  -6  -2 192.423 107.911   1-0.68756 0.35113-0.00354-0.68473-0.76576 0.27213
   2   6   3 45.5520 78.6019   4 0.96460-0.60446 0.03203 0.69645 0.41680 0.16524
  -2  -6  -3 178.562 115.396   1-0.67617 0.31602 0.02367-0.75215-0.75768 0.17564
   2   6   4 337.714 185.303   4 0.96368-0.57981 0.05254 0.71616 0.43622 0.23425
  -2  -6  -4 253.749 141.807   1-0.66966 0.28579 0.03863-0.80732-0.75297 0.08251
  -2  -7  11 96.6469 120.468   3 0.13136-0.17386-0.94572 0.68393-0.22668 0.83871
  -2  -7  10 191.241 129.367   3 0.14237-0.20860-0.95423 0.65223-0.31009 0.83371
   2   7 -10 298.801 132.083   0 0.90482-0.83859 0.02172 0.28028-0.16117-0.36245
  -2  -7   9 14.4846 63.7407   3 0.15255-0.24250-0.95372 0.61151-0.39480 0.83000
   2   7  -9 31.8977 107.308   0 0.91042-0.82048-0.01214 0.35435-0.15305-0.28215
   2   7  -8 66.1285 94.9030   0 0.91353-0.79985-0.03766 0.42009-0.14674-0.20004
  -2  -7   8 26.7015 77.0033   3 0.16162-0.27529-0.94266 0.56024-0.47990 0.82668
  -2  -7   7 544.782 149.025   3 0.16921-0.30661-0.91937 0.49674-0.56385 0.82222
  -2  -7   6 305.713 124.405   3 0.17489-0.33601-0.88236 0.41952-0.64436 0.81431
  -2  -7   5 114.758 104.159   3 0.17820-0.36305-0.83089 0.32784-0.71844 0.79997
  -2  -7   4 6342.36 256.664   1-0.78677 0.57820-0.48262-0.06064-0.79511 0.78822
  -2  -7   4 5320.82 231.515   3 0.17882-0.38739-0.76563 0.22238-0.78272 0.77583
   2   7  -4 6414.62 226.535   0 0.91457-0.70600-0.04871 0.59196-0.14396 0.15084
   2   7  -3 518.301 132.144   0 0.91207-0.67978-0.02472 0.60819-0.14996 0.24527
  -2  -7   3 501.529 132.091   1-0.78436 0.55207-0.39076-0.19271-0.80799 0.71268
  -2  -7   3 283.296 107.831   3 0.17669-0.40899-0.68928 0.10581-0.83430 0.73900
  -2  -7   2 2037.04 204.059   1-0.77446 0.51843-0.30682-0.31685-0.81117 0.62745
   2   7  -2 2237.59 173.581   0 0.90650-0.65048 0.01257 0.61111-0.15901 0.34273
  -2  -7   1 1726.44 201.593   1-0.76057 0.48082-0.23403-0.42985-0.80804 0.53590
  -2  -7   0 53.6624 89.0818   1-0.74567 0.44220-0.17396-0.53013-0.80162 0.44106
   2   7   1 94.4461 101.379   4 0.95933-0.63213 0.09999 0.64431 0.48025-0.03128
  -2  -7  -1 12.2980 70.9369   1-0.73195 0.40475-0.12695-0.61735-0.79429 0.34532
   2   7   2 57.3927 79.3230   4 0.95915-0.60823 0.10141 0.68310 0.48155 0.05585
  -2  -7  -2 81.2068 92.6638   1-0.72077 0.36984-0.09252-0.69199-0.78767 0.25028
   2   7   3 93.8426 115.270   4 0.95782-0.58318 0.11136 0.71336 0.49062 0.13519
  -2  -7  -3 351.078 158.874   1-0.71287 0.33822-0.06979-0.75493-0.78273 0.15692
   2   8 -10 240.241 127.487   0 0.89749-0.81677 0.05568 0.34256-0.16902-0.31083
  -2  -8  10 200.107 133.378   3 0.15021-0.23093-0.95474 0.55650-0.37450 0.85435
  -2  -8   9 692.915 180.829   3 0.15909-0.26353-0.94711 0.50866-0.45488 0.84632
   2   8  -9 1309.14 232.712   0 0.90324-0.79880 0.02973 0.40872-0.16305-0.22839
   2   8  -8 294.546 146.141   0 0.90667-0.77850 0.01160 0.46706-0.15878-0.14424
  -2  -8   8 221.944 137.494   3 0.16666-0.29483-0.92934 0.45068-0.53364 0.83666
   2   8  -7 52.1829 96.5233   0 0.90835-0.75646 0.00159 0.51727-0.15638-0.05822
  -2  -8   7 16.5703 81.2841   3 0.17263-0.32452-0.90060 0.38173-0.60914 0.82374
  -2  -8   6 30.5452 65.7648   3 0.17673-0.35235-0.86053 0.30146-0.67936 0.80554
   2   8  -6 8.78644 54.3279   0 0.90858-0.73296 0.00016 0.55891-0.15604 0.02985
  -2  -8   5 1848.04 202.678   3 0.17873-0.37808-0.80965 0.21036-0.74209 0.77985
   2   8  -5 2246.36 201.925   0 0.90730-0.70796 0.00793 0.59135-0.15790 0.12014
  -2  -8   4 404.712 141.574   1-0.78634 0.56327-0.49513-0.14437-0.79251 0.74185
  -2  -8   4 437.566 169.506   3 0.17858-0.40165-0.74957 0.11007-0.79530 0.74465
   2   8  -4 728.278 157.009   0 0.90404-0.68097 0.02573 0.61377-0.16211 0.21277
   2   8  -3 360.998 134.578   0 0.89775-0.65095 0.05460 0.62511-0.16878 0.30785
  -2  -8   3 179.085 123.000   1-0.78612 0.53932-0.41940-0.26030-0.80509 0.66602
  -2  -8   3 163.445 87.3066   3 0.17643-0.42322-0.68315 0.00345-0.83764 0.69857
  -2  -8   2 108.161 95.6943   1-0.78049 0.50997-0.35070-0.36921-0.81046 0.58297
   2   8  -2 27.2784 73.6471   0 0.88659-0.61607 0.09585 0.62406-0.17793 0.40542
  -2  -8   2 89.7396 86.5433   3 0.17264-0.44316-0.61417-0.10574-0.86884 0.64136
  -2  -8   1 26.0358 80.5475   1-0.77187 0.47762-0.29115-0.46897-0.81094 0.49504
  -2  -8   0 584.019 175.220   1-0.76229 0.44432-0.24188-0.55845-0.80862 0.40430
  -2  -8  -1 1.45241 61.3631   1-0.75332 0.41163-0.20328-0.63726-0.80517 0.31243
   2   9 -10 702.425 210.038   0 0.88745-0.79223 0.09298 0.40150-0.17730-0.25878
  -2  -9   9 81.1460 126.943   3 0.16356-0.28250-0.93833 0.40364-0.49988 0.84755
   2   9  -9 26.6543 98.6711   0 0.89290-0.77396 0.07369 0.46099-0.17307-0.17460
   2   9  -8 1214.47 230.592   0 0.89598-0.75331 0.06183 0.51306-0.17041-0.08884
  -2  -9   8 1562.71 261.178   3 0.16984-0.31251-0.91645 0.34155-0.57172 0.83097
   2   9  -7 683.756 184.889   0 0.89700-0.73060 0.05770 0.55740-0.16948-0.00135
  -2  -9   7 560.273 175.519   3 0.17457-0.34096-0.88535 0.27024-0.63904 0.80987
   2   9  -6 778.527 199.242   0 0.89600-0.70588 0.06175 0.59356-0.17039 0.08798
  -2  -9   6 629.910 181.490   3 0.17760-0.36772-0.84542 0.19010-0.70030 0.78272
  -2  -9   5 637.347 181.440   3 0.17888-0.39272-0.79776 0.10224-0.75406 0.74806
   2   9  -5 588.207 162.381   0 0.89267-0.67883 0.07456 0.62096-0.17326 0.17926
   2   9  -4 1554.59 233.787   0 0.88629-0.64872 0.09686 0.63887-0.17815 0.27257
  -2  -9   4 1309.37 202.328   3 0.17848-0.41605-0.74426 0.00853-0.79923 0.70481
  -2  -9   3 23.6172 71.0546   1-0.78703 0.52574-0.45208-0.32387-0.80057 0.61774
  -2  -9   3 47.0701 108.417   3 0.17662-0.43791-0.68744-0.08850-0.83531 0.65248
   2   9  -3 24.3934 73.9810   0 0.87556-0.61426 0.12958 0.64636-0.18508 0.36792
  -2  -9   2 936.005 210.962   1-0.78471 0.49970-0.39550-0.42065-0.80758 0.53632
  -2  -9   1 188.942 136.676   1-0.78001 0.47127-0.34667-0.50969-0.81061 0.45094
  -2 -10   8 54.7630 94.4861   3 0.17177-0.32893-0.90611 0.23497-0.59701 0.81250
   2  10  -7 301.531 158.403   0 0.88096-0.70007 0.11373 0.59762-0.18176 0.05469
  -2 -10   7 451.769 170.701   3 0.17560-0.35650-0.87492 0.16358-0.65703 0.78410
   2  10  -6 33.7206 79.2928   0 0.87805-0.67343 0.12241 0.62914-0.18359 0.14494
  -2 -10   6 55.3507 127.892   3 0.17797-0.38259-0.83712 0.08557-0.71087 0.74952
   2  10  -5 884.027 213.973   0 0.87200-0.64366 0.13944 0.65232-0.18712 0.23688
  -2 -10   5 842.536 227.071   3 0.17891-0.40725-0.79402 0.00226-0.75767 0.70791
   2  10  -4 32.7864 89.6796   0 0.86189-0.60982 0.16546 0.66651-0.19236 0.33055
  -2 -10   4-17.9484 68.4562   3 0.17854-0.43061-0.74739-0.08458-0.79693 0.65874
  -3  10  -2 67.0324 125.099   0 0.54535-0.75080 0.56083 0.27549-0.24419 0.42372
  -3  10  -3-16.0883 52.8052   0 0.57719-0.80636 0.53629 0.25981-0.24307 0.33417
   3 -10   3 106.130 109.501   3 0.17221 0.05697-0.60751-0.18860-0.87130 0.78019
   3 -10   4 22.4596 91.2290   3 0.17590 0.07700-0.67188-0.08402-0.84353 0.84084
  -3  10  -4 74.6043 150.909   0 0.60021-0.85311 0.51732 0.23858-0.24192 0.24460
   3 -10   5 16.9359 94.4596   3 0.17826 0.09836-0.73510 0.01941-0.80577 0.89150
  -3  10  -5 69.6582 145.740   0 0.61546-0.89208 0.50414 0.21155-0.24099 0.15526
   3 -10   6 114.473 149.883   3 0.17890 0.12145-0.79424 0.11876-0.75746 0.93161
  -3   9   1 6.10356 66.4536   4 0.66060-0.80938 0.61991 0.24080 0.86216-0.46115
  -3   9  -1 36.7194 71.4798   0 0.52864-0.72486 0.57298 0.20731-0.24459 0.46876
   3  -9   1-2.90644 100.717   5-0.65279 0.84901-0.72326-0.05703-0.80220 0.57803
  -3   9  -2 226.912 129.170   0 0.56794-0.78789 0.54362 0.19646-0.24345 0.37920
   3  -9   2-5.63733 90.6533   5-0.60844 0.82839-0.77012 0.03004-0.79656 0.66080
  -3   9  -3 40.1603 77.8773   0 0.59702-0.84070 0.52001 0.17986-0.24209 0.28943
   3  -9   3 139.671 120.673   3 0.17128 0.07240-0.59370-0.10617-0.87610 0.82876
   3  -9   3 29.5590 83.8465   5-0.55324 0.79692-0.81918 0.11931-0.78483 0.73749
   3  -9   4 42.4196 108.048   3 0.17575 0.09165-0.66862 0.00896-0.84517 0.88625
  -3   9  -4 149.818 125.323   0 0.61726-0.88465 0.50255 0.15711-0.24088 0.19980
   3  -9   4 91.7963 110.296   5-0.48646 0.75386-0.86754 0.20788-0.76504 0.80612
  -3   9  -5 842.632 230.893   0 0.62961-0.92073 0.49143 0.12802-0.24001 0.11051
   3  -9   5 498.778 170.697   3 0.17840 0.11273-0.74058 0.12113-0.80189 0.93139
   3  -9   5 17.0533 76.5728   5-0.40804 0.69917-0.91180 0.29235-0.73543 0.86493
  -3   9  -6 49.4307 80.7101   0 0.63475-0.94960 0.48670 0.09254-0.23962 0.02170
   3  -9   6 103.254 127.110   3 0.17879 0.13606-0.80583 0.22658-0.74603 0.96395
   3  -9   6 50.5331 117.327   5-0.31877 0.63362-0.94846 0.36922-0.69475 0.91266
   3  -9   7 65.4226 125.261   5-0.22030 0.55888-0.97432 0.43529-0.64245 0.94878
   3  -9   7 175.148 115.072   3 0.17668 0.16189-0.86117 0.32214-0.67843 0.98476
   3  -9   8 452.624 160.800   3 0.17204 0.19026-0.90443 0.40560-0.60079 0.99554
  -3   9  -8 592.116 217.814   0 0.62447-0.98677 0.49610 0.00272-0.24038-0.15437
  -3   8   3 232.192 156.537   4 0.74168-0.85750 0.54559 0.29930 0.82293-0.28886
  -3   8   2 78.7677 88.5845   4 0.71651-0.85606 0.57068 0.23399 0.83706-0.39140
   3  -8  -2 58.3984 102.435   5-0.74720 0.88675-0.59173-0.21295-0.79805 0.35239
  -3   8   1 269.426 113.783   4 0.67953-0.84281 0.60415 0.16032 0.85454-0.49730
   3  -8  -1 75.1520 100.466   5-0.72478 0.88805-0.62804-0.13643-0.80161 0.44437
  -3   8   0 16.5370 80.3154   4 0.62717-0.81417 0.64573 0.07853 0.87368-0.60485
   3  -8   0 39.3690 74.0702   5-0.69409 0.88109-0.67207-0.05219-0.80362 0.53479
  -3   8  -1 15.6998 62.2203   0 0.54634-0.75706 0.56009 0.12396-0.24417 0.42457
   3  -8   1 0.43475 63.8729   5-0.65351 0.86423-0.72244 0.03838-0.80226 0.62185
  -3   8  -2 535.791 159.782   0 0.58337-0.81782 0.53130 0.11254-0.24279 0.33478
   3  -8   2 39.2725 76.9411   5-0.60145 0.83590-0.77685 0.13301-0.79534 0.70335
  -3   8  -3 621.001 185.322   0 0.61001-0.86818 0.50891 0.09472-0.24134 0.24491
   3  -8   3 731.992 181.876   3 0.17083 0.08734-0.58734-0.01630-0.87819 0.87462
   3  -8   4 568.869 161.468   3 0.17602 0.10588-0.67432 0.11089-0.84228 0.92713
  -3   8  -4 756.208 187.617   0 0.62755-0.90945 0.49331 0.07012-0.24016 0.15531
   3  -8   5 18.5411 52.3776   5-0.36922 0.67484-0.92940 0.40619-0.71858 0.89185
  -3   8  -5 60.3254 105.376   0 0.63695-0.94257 0.48466 0.03856-0.23945 0.06619
   3  -8   5 21.9202 60.5312   3 0.17868 0.12694-0.75532 0.23211-0.79091 0.96417
   3  -8   6 36.3718 72.1461   3 0.17837 0.15098-0.82559 0.34258-0.72464 0.98632
  -3   8  -6 90.3245 88.2139   0 0.63877-0.96812 0.48295 0.00006-0.23930-0.02238
   3  -8   6 75.9729 80.6137   5-0.26887 0.59822-0.96336 0.48035-0.66916 0.93084
   3  -8   7 19.2632 77.2038   3 0.17496 0.17811-0.88169 0.43890-0.64554 0.99564
  -3   8  -7 47.3533 77.1887   0 0.63326-0.98633 0.48808-0.04528-0.23973-0.11036
   3  -8   7 62.0373 105.979   5-0.16086 0.51393-0.98324 0.54045-0.60748 0.95757
   3  -8   8 87.7914 107.754   3 0.16862 0.20818-0.92192 0.51934-0.55663 0.99515
  -3   8  -8 108.583 111.785   0 0.62028-0.99708 0.49986-0.09727-0.24067-0.19784
  -3   7   4 279.161 136.821   4 0.78023-0.88683 0.50276 0.28609 0.79707-0.21834
  -3   7   3 65.7314 120.675   4 0.76189-0.89222 0.52386 0.22479 0.81007-0.31976
   3  -7  -3-7.60456 62.9372   5-0.77613 0.90645-0.53816-0.21049-0.79002 0.29971
   3  -7  -2 2221.74 250.143   5-0.75758 0.91163-0.57347-0.13497-0.79566 0.39377
  -3   7   2 2204.37 214.143   4 0.73334-0.88739 0.55412 0.15432 0.82783-0.42594
  -3   7   1 309.869 140.478   0 0.44512-0.62289 0.62698 0.04125-0.24478 0.55825
  -3   7   1 185.806 94.3596   4 0.69116-0.86893 0.59403 0.07421 0.84943-0.53595
   3  -7  -1 70.6507 89.6231   5-0.73101 0.90878-0.61833-0.04990-0.80082 0.48734
  -3   7   0 1377.98 174.782   4 0.63082-0.83231 0.64303-0.01501 0.87253-0.64747
   3  -7   0 1495.99 212.260   5-0.69442 0.89591-0.67164 0.04362-0.80361 0.57855
  -3   7  -1 432.023 106.551   4 0.54694-0.77216 0.69873-0.11092 0.89268-0.75603
  -3   7  -1 626.154 118.664   0 0.55533-0.78055 0.55334 0.03448-0.24389 0.38054
  -3   7  -2 569.860 139.373   0 0.59055-0.83949 0.52542 0.02219-0.24244 0.29066
  -3   7  -2 417.982 119.956   4 0.43445-0.68340 0.75580-0.20819 0.90267-0.85445
   3  -7   3 204.671 126.626   3 0.17111 0.10156-0.59125 0.08386-0.87691 0.91711
  -3   7  -3 212.089 102.915   0 0.61494-0.88761 0.50459 0.00280-0.24103 0.20083
   3  -7   3 81.6242 83.0982   5-0.50621 0.77888-0.85436 0.34696-0.77146 0.81166
   3  -7   4 813.182 128.082   3 0.17680 0.11960-0.69177 0.22458-0.83291 0.96153
  -3   7  -4 1003.58 174.095   0 0.62980-0.92619 0.49126-0.02408-0.23999 0.11138
  -3   7  -5 23.6989 80.7496   0 0.63599-0.95611 0.48554-0.05857-0.23952 0.02249
   3  -7   5 57.2818 89.6522   3 0.17893 0.14119-0.78118 0.35421-0.76948 0.98651
   3  -7   5 27.1176 76.8601   5-0.31198 0.63211-0.95071 0.52373-0.69138 0.90841
   3  -7   6 333.096 108.593   3 0.17715 0.16670-0.85383 0.46706-0.68893 0.99438
  -3   7  -6 530.382 158.768   0 0.63401-0.97786 0.48738-0.10061-0.23968-0.06577
   3  -7   7 2547.14 202.253   3 0.17166 0.19591-0.90677 0.56021-0.59550 0.98936
  -3   7  -7 3602.54 272.555   0 0.62392-0.99149 0.49659-0.15004-0.24042-0.15344
   3  -7   8 26.9428 93.3003   5 0.03331 0.35799-0.97997 0.67362-0.47675 0.95904
  -3   7  -9 158.264 127.114   1 0.31650-0.73152 0.93459-0.66845 0.19368-0.76438
  -3   6   5 19.2672 97.2882   4 0.81051-0.90788 0.46456 0.26827 0.77234-0.14896
  -3   6   4 1142.37 194.274   4 0.79797-0.91906 0.48095 0.21167 0.78312-0.24816
  -3   6   3 2256.78 211.312   4 0.77669-0.92151 0.50695 0.14546 0.79968-0.35314
  -3   6   2 35.8898 87.0797   4 0.74356-0.91210 0.54363 0.06857 0.82180-0.46367
   3  -6  -2 6.85978 57.2029   5-0.76351 0.93205-0.56260-0.04961-0.79407 0.43594
  -3   6   1 1991.86 158.906   4 0.69409-0.88636 0.59142-0.01942 0.84809-0.57838
   3  -6  -1 1866.24 198.234   5-0.73115 0.92342-0.61811 0.04612-0.80080 0.53109
  -3   6   0 1973.81 151.498   4 0.62247-0.83846 0.64917-0.11739 0.87512-0.69382
  -3   6   0 2945.29 211.411   0 0.50651-0.72251 0.58833-0.05655-0.24492 0.42622
   3  -6   0 1926.17 195.151   5-0.68614 0.90213-0.68259 0.15080-0.80368 0.62239
  -3   6  -1 6923.10 233.857   4 0.52223-0.76195 0.71284-0.22127 0.89639-0.80352
   3  -6   1 6732.36 246.102   5-0.62602 0.86574-0.75242 0.26085-0.79924 0.70637
  -3   6  -2 843.570 138.876   0 0.58738-0.85082 0.52803-0.07666-0.24259 0.24705
   3  -6   2 471.152 134.915   5-0.54928 0.81272-0.82236 0.37100-0.78382 0.77936
  -3   6  -3 88.2350 92.1312   0 0.60965-0.89682 0.50922-0.09806-0.24136 0.15740
   3  -6   3 39.1408 60.4028   5-0.45619 0.74336-0.88609 0.47494-0.75436 0.83832
  -3   6  -4 104.656 101.095   0 0.62163-0.93252 0.49865-0.12771-0.24058 0.06820
   3  -6   4 106.828 100.655   3 0.17797 0.13292-0.72442 0.35347-0.81302 0.98540
   3  -6   4 19.7342 54.0517   5-0.34913 0.66003-0.93749 0.56654-0.70935 0.88172
  -3   6  -5 79.7988 72.2761   0 0.62412-0.95874 0.49642-0.16568-0.24041-0.02039
   3  -6   5 49.7270 58.1317   3 0.17854 0.15608-0.81943 0.48869-0.73158 0.99238
   3  -6   5 64.4494 88.2510   5-0.23230 0.56692-0.97193 0.64119-0.64921 0.91000
   3  -6   6 1966.78 174.200   3 0.17415 0.18420-0.88909 0.59856-0.63214 0.98135
  -3   6  -6 2591.61 190.661   0 0.61744-0.97579 0.50238-0.21185-0.24086-0.10835
   3  -6   6 1460.61 169.423   5-0.11072 0.46906-0.98707 0.69654-0.57610 0.92531
   3  -6   7 47.6517 76.9364   5 0.01085 0.37122-0.98282 0.73250-0.49314 0.93077
   3  -6   7 46.4883 89.3604   3 0.16562 0.21644-0.93266 0.68234-0.52210 0.95973
  -3   6  -7 26.6156 67.6572   0 0.60143-0.98350 0.51629-0.26597-0.24185-0.19578
  -3   6  -8 96.7637 112.937   1 0.31509-0.72088 0.93441-0.72430 0.19213-0.71818
   3  -6   8-1.68281 61.7445   5 0.12858 0.27721-0.96067 0.75056-0.40362 0.92966
  -3   6  -9 431.999 182.552   1 0.25142-0.68094 0.92274-0.75284 0.12320-0.73766
  -3   5   6 4.70317 66.8201   4 0.83352-0.92167 0.43210 0.24470 0.75024-0.08220
  -3   5   5 485.864 120.748   4 0.82582-0.93769 0.44334 0.19325 0.75800-0.17838
  -3   5   4 166.083 94.5496   4 0.81070-0.94629 0.46431 0.13208 0.77217-0.28097
  -3   5   3 8431.02 268.142   4 0.78540-0.94472 0.49656 0.05961 0.79315-0.39037
  -3   5   2 471.970 140.862   4 0.74571-0.92875 0.54137-0.02541 0.82048-0.50612
   3  -5  -2 385.793 111.124   5-0.76362 0.94666-0.56238 0.04642-0.79404 0.47967
  -3   5   2 482.508 83.1830   0 0.34471-0.52776 0.67920-0.16324-0.24159 0.55596
  -3   5   1 443.985 100.217   4 0.68562-0.89239 0.59889-0.12314 0.85191-0.62596
   3  -5  -1 502.692 133.646   5-0.72259 0.92936-0.63138 0.15562-0.80186 0.57591
  -3   5   0 1179.00 127.618   0 0.49032-0.72081 0.59907-0.16352-0.24503 0.38256
   3  -5   0 794.243 140.128   5-0.66495 0.89544-0.70902 0.27348-0.80305 0.66552
  -3   5   0 752.267 122.719   4 0.59762-0.82811 0.66663-0.23108 0.88200-0.74447
  -3   5  -1 42.2865 42.2564   0 0.53740-0.79162 0.56666-0.17133-0.24440 0.29351
   3  -5   1 12.4092 44.6581   5-0.58818 0.84239-0.78921 0.39387-0.79280 0.74369
  -3   5  -2 786.027 114.235   0 0.57017-0.84811 0.54187-0.18674-0.24336 0.20405
   3  -5   2 563.037 108.029   5-0.49202 0.76996-0.86392 0.50879-0.76690 0.80620
   3  -5   3 3057.40 170.291   5-0.37932 0.68099-0.92508 0.61016-0.72310 0.85082
  -3   5  -3 4671.43 192.796   0 0.59026-0.89193 0.52565-0.21073-0.24245 0.11473
   3  -5   3 3919.56 169.044   3 0.17471 0.12696-0.64873 0.33381-0.85460 0.98233
   3  -5   4 439.339 109.702   3 0.17890 0.14649-0.77568 0.50097-0.77429 0.99043
  -3   5  -4 722.596 113.629   0 0.59888-0.92427 0.51845-0.24374-0.24199 0.02585
   3  -5   4 455.579 112.614   5-0.25555 0.58094-0.96670 0.69199-0.66201 0.87815
   3  -5   5 10721.1 264.348   3 0.17612 0.17300-0.86882 0.63432-0.66683 0.97139
  -3   5  -5 13431.6 310.823   0 0.59666-0.94578 0.52032-0.28582-0.24211-0.06244
   3  -5   5 8181.01 275.725   5-0.12727 0.47639-0.98617 0.75167-0.58664 0.89120
   3  -5   6 505.867 119.715   3 0.16760 0.20524-0.92596 0.73167-0.54453 0.93751
   3  -5   6 381.615 116.679   5-0.00041 0.37326-0.98401 0.78972-0.50123 0.89420
  -3   5  -6 413.034 82.5082   0 0.58370-0.95655 0.53103-0.33674-0.24277-0.15021
  -3   5  -7 384.623 127.816   1 0.30313-0.69970 0.93273-0.77865 0.17910-0.66050
   3  -5   7 98.6974 76.3738   5 0.12069 0.27588-0.96272 0.80864-0.40990 0.89130
   3  -5   8 492.279 163.182   5 0.23352 0.18677-0.92552 0.81165-0.31599 0.88580
  -3   5  -8 641.314 168.086   1 0.23882-0.65911 0.91967-0.80580 0.10968-0.67949
  -3   5  -9 1355.20 218.128   1 0.17508-0.61909 0.90048-0.82681 0.04193-0.70016
  -3   5 -10 774.569 240.642   1 0.11183-0.57957 0.87570-0.84225-0.02431-0.72233
  -3   4   7 8.41751 64.4929   4 0.85012-0.92903 0.40640 0.21437 0.73210-0.01941
  -3   4   6 522.588 139.914   4 0.84643-0.94907 0.41230 0.16826 0.73631-0.11204
  -3   4   5 597.645 132.035   4 0.83641-0.96278 0.42777 0.11258 0.74722-0.21137
  -3   4   4 6555.13 240.782   4 0.81772-0.96781 0.45474 0.04540 0.76575-0.31832
  -3   4   3 12.4494 46.2005   4 0.78653-0.96035 0.49518-0.03525 0.79228-0.43326
  -3   4   3 83.9395 77.5788   0 0.19576-0.36957 0.73542-0.27549-0.23117 0.59019
  -3   4   2 815.769 102.319   0 0.30233-0.49987 0.69762-0.27790-0.23928 0.50988
  -3   4   2 667.011 137.367   4 0.73695-0.93449 0.55046-0.13073 0.82574-0.55514
  -3   4   1 8929.93 224.980   0 0.38739-0.60866 0.65855-0.27903-0.24336 0.42554
   3  -4  -1 6045.75 211.954   5-0.69995 0.92121-0.66412 0.28460-0.80346 0.62128
  -3   4   1 6168.53 201.954   4 0.66075-0.88201 0.61979-0.24027 0.86210-0.67992
  -3   4   0 1799.54 137.388   0 0.45280-0.69779 0.62245-0.28314-0.24488 0.33864
   3  -4   0 1110.84 103.329   5-0.62252 0.86751-0.75603 0.41672-0.79875 0.70499
  -3   4   0 1160.20 119.565   4 0.54853-0.79352 0.69779-0.35848 0.89241-0.79864
  -3   4  -1 5.04015 28.9562   0 0.50052-0.76923 0.59236-0.29326-0.24497 0.25032
   3  -4   1 18.1795 28.7834   5-0.52158 0.79030-0.84347 0.54437-0.77614 0.77079
  -3   4  -2 3363.72 153.520   0 0.53237-0.82481 0.57030-0.31141-0.24451 0.16144
   3  -4   2 2302.76 143.956   5-0.40066 0.69309-0.91536 0.65647-0.73233 0.81540
  -3   4  -3 12294.5 260.529   0 0.54987-0.86603 0.55746-0.33878-0.24406 0.07257
   3  -4   3 7940.41 219.568   5-0.26733 0.58349-0.96376 0.74508-0.66833 0.83982
   3  -4   3 9936.05 228.463   3 0.17773 0.13844-0.71665 0.49797-0.81806 0.98954
   3  -4   4 203.908 73.5371   3 0.17759 0.16230-0.84569 0.66721-0.69995 0.95985
   3  -4   4 162.875 93.9269   5-0.13051 0.47040-0.98596 0.80748-0.58869 0.84859
  -3   4  -5 3247.74 165.535   2 0.47734-0.84095 0.04878 0.08949-0.64363 0.29531
  -3   4  -5 3132.73 165.027   0 0.54522-0.90884 0.56092-0.42266-0.24420-0.10413
  -3   4  -6 143.617 75.0786   2 0.51610-0.90344 0.07265 0.02540-0.60659 0.16985
   3  -4   6 31.4252 50.5247   5 0.12658 0.26076-0.96120 0.86315-0.40521 0.84196
  -3   4  -6 148.087 95.3204   1 0.27702-0.66436 0.92822-0.83017 0.15078-0.58752
  -3   4  -7 11662.6 347.339   1 0.21303-0.62410 0.91263-0.85478 0.08215-0.60731
   3  -4   7 7969.72 295.817   5 0.24002 0.17104-0.92284 0.86500-0.31030 0.83546
  -3   4  -8 129.101 103.785   1 0.15044-0.58523 0.89149-0.87385 0.01602-0.62960
   3  -4   8 111.435 99.0937   5 0.34226 0.09252-0.87247 0.85483-0.21672 0.83029
  -3   4  -9 84.6236 119.587   1 0.08894-0.54745 0.86538-0.88795-0.04806-0.65393
  -3   4 -10 63.6465 123.856   1 0.02822-0.51046 0.83460-0.89738-0.11047-0.67994
  -3   4 -10 66.9256 120.900   2 0.51346-0.99570 0.07101-0.13379-0.60920-0.18121
  -3   3   8 9.96420 84.2844   4 0.86093-0.93062 0.38842 0.17633 0.71908 0.03826
  -3   3   7 104.092 70.9419   4 0.86060-0.95401 0.38899 0.13555 0.71950-0.05058
  -3   3   6-10.8599 52.6823   4 0.85477-0.97191 0.39880 0.08553 0.72663-0.14612
  -3   3   5 5142.36 217.979   4 0.84151-0.98237 0.42000 0.02412 0.74176-0.24968
  -3   3   4 437.101 114.275   4 0.81747-0.98206 0.45509-0.05118 0.76599-0.36232
  -3   3   3 1736.29 126.946   4 0.77707-0.96539 0.50650-0.14280 0.79940-0.48415
  -3   3   3 2447.85 119.025   0 0.11898-0.30729 0.75562-0.39192-0.22345 0.53870
  -3   3   2 5896.98 184.189   4 0.71176-0.92379 0.57520-0.25171 0.83952-0.61268
   3  -3  -2 6074.06 189.707   5-0.73072 0.94276-0.61879 0.29530-0.80086 0.57403
  -3   3   1 17878.4 268.719   0 0.31615-0.55192 0.69184-0.40856-0.24009 0.37851
  -3   3   1 12350.2 240.835   4 0.61027-0.84603 0.65789-0.37461 0.87864-0.74022
   3  -3  -1 11832.4 232.328   5-0.65156 0.88732-0.72466 0.44138-0.80210 0.66368
  -3   3   1 15758.0 174.224   2-0.91052 0.67476-0.49441 0.77769-0.57003 0.70844
  -3   3   0 749.325 112.655   4 0.46261-0.72210 0.74316-0.50009 0.90177-0.85177
   3  -3   0 692.989 86.5880   5-0.54289 0.80238-0.82741 0.58434-0.78214 0.73214
  -3   3   0 860.044 46.7540   2-0.69985 0.44036-0.47674 0.71981-0.87220 0.92220
  -3   3   0 1027.82 112.143   0 0.38375-0.64324 0.66040-0.41733-0.24323 0.29323
  -3   3  -1 14204.5 234.267   0 0.43210-0.71532 0.63448-0.43162-0.24456 0.20614
  -3   3  -1 12360.0 147.716   2-0.26845-0.01477-0.32918 0.53204-0.99065 0.95223
  -3   3  -2 2432.31 90.3049   2 0.10400-0.41094-0.15765 0.32031-0.89473 0.76790
   3  -3   2 1820.40 121.218   5-0.26283 0.56976-0.96491 0.80226-0.66593 0.79276
  -3   3  -2 2800.76 128.224   0 0.46254-0.76947 0.61658-0.45392-0.24497 0.11813
   3  -3   2 2342.12 117.108   3 0.17351 0.13343-0.62800 0.46535-0.86346 0.99029
  -3   3  -3 4036.35 140.217   2 0.31617-0.64683-0.04508 0.16752-0.77332 0.55806
   3  -3   3 3857.35 134.096   3 0.17855 0.15211-0.81890 0.69646-0.73216 0.94742
  -3   3  -4 10849.8 251.187   1 0.29510-0.64949 0.93146-0.84923 0.17038-0.47405
  -3   3  -4 11251.0 240.201   0 0.47350-0.82789 0.60981-0.52757-0.24503-0.05864
  -3   3  -4 10054.4 220.971   2 0.42723-0.78161 0.01871 0.06352-0.68792 0.38425
   3  -3   4 9098.89 192.292   3 0.16884 0.18555-0.92100 0.83876-0.55928 0.86295
   3  -3   4 6796.96 210.612   5 0.02346 0.33092-0.98130 0.89906-0.48398 0.78765
  -3   3  -5 737.935 142.047   1 0.23120-0.60931 0.91769-0.87567 0.10153-0.49362
  -3   3  -5 829.255 122.198   2 0.48475-0.86286 0.05330-0.01127-0.63675 0.24466
  -3   3  -5 824.226 108.301   0 0.45441-0.83252 0.62148-0.57946-0.24489-0.14720
  -3   3  -6 10.0755 52.6441   1 0.16994-0.57178 0.89868-0.89686 0.03652-0.51703
   3  -3   6 83.7164 81.2102   4 0.63716-0.23532-0.62588 0.62407-0.34901 0.82952
  -3   3  -6 133.646 107.773   2 0.51272-0.91455 0.07054-0.06873-0.60993 0.12942
   3  -3   6 45.4151 55.4527   5 0.26172 0.14012-0.91346 0.91165-0.29111 0.77161
   3  -3   7 3623.73 249.194   5 0.36080 0.06477-0.86158 0.89997-0.19886 0.76779
   3  -3   7 4381.94 228.541   4 0.73077-0.30520-0.54258 0.58097-0.23116 0.80008
   3  -3   8 2321.83 201.175   4 0.80245-0.35316-0.45970 0.53830-0.12250 0.77984
   3  -3   8 1872.01 183.663   5 0.44819 0.00109-0.80213 0.88073-0.11053 0.76787
  -3   3  -9 94.8150 92.4095   2 0.51178-0.98479 0.06996-0.18877-0.61085-0.13491
   3  -3   9 73.6144 81.7815   5 0.52540-0.05239-0.73689 0.85570-0.02603 0.77179
  -3   3 -10 651.536 209.634   2 0.49561-0.99235 0.05996-0.21898-0.62649-0.20769
  -3   3 -10 183.910 118.446   1-0.06081-0.43592 0.78062-0.93964-0.20050-0.63368
  -3   2   9 72.6880 121.866   3-0.01958-0.04088-0.45291 0.96162 0.57612 0.22588
  -3   2   9 63.8501 90.1105   4 0.86632-0.92678 0.37904 0.12968 0.71219 0.08980
  -3   2   8 25.5666 77.6196   4 0.86887-0.95306 0.37449 0.09402 0.70882 0.00475
  -3   2   8 9.80061 89.3024   3-0.01561-0.06857-0.47159 0.94009 0.56019 0.15338
  -3   2   7 1441.15 173.635   4 0.86649-0.97440 0.37874 0.04955 0.71197-0.08682
  -3   2   7 1547.18 189.976   3-0.01301-0.09490-0.48367 0.91197 0.54963 0.07553
  -3   2   6 3041.40 190.862   4 0.85761-0.98925 0.39405-0.00597 0.72319-0.18645
  -3   2   6 3793.16 215.258   3-0.01219-0.11945-0.48748 0.87557 0.54626-0.00952
  -3   2   5 39.6044 40.3950   4 0.83937-0.99473 0.42329-0.07541 0.74408-0.29576
  -3   2   5 22.1376 63.4713   3-0.01377-0.14159-0.48015 0.82802 0.55273-0.10441
  -3   2   4 431.061 88.0616   4 0.80663-0.98571 0.46972-0.16205 0.77576-0.41586
  -3   2   4 460.457 101.183   3-0.01877-0.16032-0.45675 0.76442 0.57287-0.21297
  -3   2   4 685.586 92.0340   0-0.12128-0.05781 0.78310-0.47543-0.18969 0.54960
  -3   2   3 8904.28 222.851   4 0.75081-0.95362 0.53596-0.26850 0.81730-0.54582
   3  -2  -3 8005.24 182.365   5-0.75679 0.95960-0.57491 0.30745-0.79587 0.52438
  -3   2   2 634.551 72.5502   2-0.90189 0.67536-0.49659 0.72384-0.59546 0.77853
  -3   2   2 659.735 91.7688   0 0.11215-0.33868 0.75714-0.52989-0.22269 0.40575
  -3   2   2 329.962 86.3619   4 0.65918-0.88572 0.62105-0.39380 0.86270-0.67963
   3  -2  -2 439.495 64.6757   5-0.67371 0.90024-0.69837 0.47111-0.80344 0.62037
  -3   2   1 13675.8 212.284   0 0.20037-0.45063 0.73403-0.54699-0.23159 0.32624
   3  -2  -1 9267.50 173.917   5-0.55175 0.80201-0.82039 0.63335-0.78445 0.68980
  -3   2   1 12330.8 161.374   2-0.75037 0.50011-0.48771 0.67475-0.82994 0.92459
  -3   2   1 10052.3 206.960   4 0.51780-0.76806 0.71527-0.52823 0.89696-0.80231
  -3   2   0 528.877 89.6429   0 0.26809-0.54207 0.71106-0.56423-0.23702 0.24325
   3  -2   0 328.280 66.1240   5-0.39852 0.67250-0.91637 0.76953-0.73143 0.72519
  -3   2   0 419.122 47.1747   2-0.43392 0.15993-0.39398 0.54082-0.98208 0.98831
  -3   2  -1 7336.28 142.629   2-0.06850-0.22921-0.24119 0.34781-0.95755 0.87537
  -3   2  -1 7990.63 182.795   0 0.31512-0.61283 0.69228-0.58565-0.24003 0.15785
   3  -2   2 310.628 91.4752   5-0.07379 0.39522-0.98779 0.92137-0.55192 0.72252
  -3   2  -2 498.833 69.5384   0 0.34168-0.66312 0.68059-0.61417-0.24145 0.07084
  -3   2  -2 553.315 97.1021   2 0.19347-0.51491-0.11156 0.17797-0.84972 0.67912
   3  -2   2 432.163 58.1333   3 0.17893 0.14250-0.78594 0.71952-0.76520 0.93581
  -3   2  -2 505.588 77.7481   1 0.27240-0.59384 0.92731-0.86090 0.14579-0.31640
  -3   2  -3 86.3661 64.1206   1 0.21333-0.55849 0.91271-0.88651 0.08247-0.34149
  -3   2  -3 54.9364 48.3484   2 0.34606-0.69122-0.02827 0.05447-0.75194 0.49292
   3  -2   3 98.6518 58.4447   3 0.16625 0.17891-0.93068 0.90447-0.52908 0.78810
   3  -2   3 30.2751 35.4447   5 0.06930 0.27586-0.97405 0.94785-0.44982 0.70884
  -3   2  -3 50.5100 38.7832   0 0.34791-0.69306 0.67774-0.65153-0.24175-0.01727
  -3   2  -4 11199.7 259.816   1 0.15770-0.52659 0.89423-0.90823 0.02364-0.37108
  -3   2  -4 10755.6 248.729   2 0.43026-0.79914 0.02051-0.03451-0.68535 0.33791
  -3   2  -4 11823.1 207.728   0 0.33333-0.70221 0.68435-0.69836-0.24103-0.10641
  -3   2  -5 18048.7 354.694   1 0.10418-0.49679 0.87233-0.92654-0.03227-0.40359
  -3   2  -5 17668.1 346.921   2 0.47515-0.86776 0.04744-0.10166-0.64565 0.20979
   3  -2   5 14781.7 305.631   4 0.62407-0.23146-0.63586 0.69007-0.36388 0.79973
   3  -2   5 12201.2 280.929   5 0.30121 0.09140-0.89461 0.94882-0.25527 0.69112
  -3   2  -6 350.479 103.717   2 0.49661-0.91294 0.06057-0.15499-0.62554 0.10127
   3  -2   6 157.233 77.4634   4 0.71860-0.30227-0.55476 0.64918-0.24778 0.77205
   3  -2   6 186.548 65.6879   5 0.39401 0.02233-0.84062 0.93504-0.16612 0.69039
  -3   2  -6 355.184 126.489   1 0.05195-0.46828 0.84721-0.94163-0.08619-0.43809
  -3   2  -7 870.542 157.939   1 0.00050-0.44056 0.81891-0.95354-0.13870-0.47399
  -3   2  -7 886.810 154.145   2 0.50308-0.94314 0.06457-0.19920-0.61932 0.00663
   3  -2   7 605.720 159.515   5 0.47475-0.03469-0.78116 0.91579-0.08221 0.69490
   3  -2   7 923.515 153.921   4 0.79080-0.35074-0.47468 0.60931-0.14161 0.75430
   3  -2   8 117.272 106.702   4 0.84602-0.38224-0.39664 0.57148-0.04422 0.74533
   3  -2   8 108.850 102.538   5 0.54552-0.08173-0.71760 0.89244-0.00284 0.70395
  -3   2  -8 81.0222 69.5364   1-0.05053-0.41326 0.78739-0.96223-0.19019-0.51091
   3  -2   9 18.0106 75.5241   4 0.88806-0.40055-0.32070 0.53575 0.04587 0.74365
  -3   2  -9 32.5109 70.2657   2 0.48774-0.97525 0.05513-0.27018-0.63394-0.15559
  -3   2  -9 18.5630 76.4640   1-0.10140-0.38611 0.75252-0.96757-0.24095-0.54858
  -3   1  10 355.577 170.541   3-0.00406-0.04718-0.52443 0.97712 0.51243 0.33422
  -3   1   9 104.203 101.716   4 0.87143-0.94639 0.36986 0.04262 0.70538 0.05284
  -3   1   9 340.927 168.489   3 0.00216-0.07711-0.55189 0.96437 0.48589 0.27234
  -3   1   8 992.494 173.919   4 0.87196-0.97064 0.36890 0.00337 0.70466-0.03486
  -3   1   8 1170.50 198.144   3 0.00746-0.10614-0.57482 0.94709 0.46276 0.20704
  -3   1   7 2120.63 163.979   4 0.86660-0.98901 0.37855-0.04649 0.71183-0.13044
  -3   1   7 2531.20 203.535   3 0.01163-0.13404-0.59249 0.92455 0.44429 0.13710
  -3   1   6 1849.69 150.799   4 0.85288-0.99901 0.40191-0.11006 0.72887-0.23590
  -3   1   6 2235.68 155.020   3 0.01429-0.16042-0.60362 0.89547 0.43235 0.06063
  -3   1   5 296.265 99.3411   3 0.01483-0.18468-0.60586 0.85750 0.42992-0.02537
  -3   1   5 471.845 83.8373   0-0.38082 0.21096 0.74982-0.49818-0.13635 0.54090
  -3   1   5 291.772 76.0180   4 0.82616-0.99602 0.44285-0.19121 0.75766-0.35311
  -3   1   4 3041.33 152.014   4 0.77800-0.97159 0.50540-0.29397 0.79872-0.48258
  -3   1   4 3414.96 155.030   3 0.01215-0.20573-0.59467 0.80610 0.44197-0.12584
  -3   1   4 4114.18 133.189   0-0.25991 0.06633 0.77410-0.56267-0.16355 0.47969
  -3   1   4 3456.88 145.508   2-0.94259 0.74901-0.47158 0.68302-0.40942 0.72556
   3  -1  -4 2757.80 104.552   5-0.77716 0.97074-0.53608 0.32465-0.78965 0.47351
  -3   1   3 23886.1 295.162   3 0.00416-0.22147-0.56063 0.73185 0.47719-0.24947
  -3   1   3 21934.8 279.098   4 0.69452-0.91183 0.59104-0.41981 0.84789-0.62017
  -3   1   3 30463.9 312.104   0-0.14877-0.06854 0.78281-0.61158-0.18491 0.41263
  -3   1   3 26696.2 290.422   2-0.90546 0.68815-0.49578 0.66700-0.58534 0.81306
   3  -1  -3 20784.6 221.618   5-0.68525 0.90256-0.68374 0.51252-0.80368 0.57596
  -3   1   2 689.011 79.8776   4 0.55779-0.79882 0.69223-0.56122 0.89075-0.75145
  -3   1   2 1003.71 86.0410   2-0.79569 0.55466-0.49529 0.62631-0.78196 0.92126
   3  -1  -2 675.396 62.2503   5-0.53778 0.77882-0.83136 0.70035-0.78075 0.64145
  -3   1   2 838.721 85.2789   3-0.01338-0.22765-0.48196 0.61297 0.55114-0.41184
  -3   1   2 1055.96 88.0921   0-0.05133-0.18970 0.78062-0.64961-0.20100 0.34030
  -3   1   1 59.8704 27.4539   1 0.12077-0.38552 0.87954-0.78873-0.01501 0.06590
  -3   1   1 50.4401 47.9079   0 0.02904-0.29380 0.77217-0.68136-0.21249 0.26338
   3  -1  -1 37.1332 28.9290   5-0.35059 0.61534-0.93693 0.84612-0.71003 0.65914
  -3   1   1 73.8735 48.8186   2-0.56976 0.30500-0.44040 0.53120-0.94456 0.99544
  -3   1   0 2065.47 90.7992   1 0.12806-0.41655 0.88259-0.83199-0.00740-0.03013
  -3   1   0 2061.88 105.515   0 0.08971-0.37819 0.76183-0.71124-0.22010 0.18257
  -3   1   0 1837.45 87.0025   2-0.25507-0.03341-0.32360 0.37419-0.98984 0.95230
  -3   1  -1 27517.8 271.461   1 0.10950-0.42171 0.87468-0.86430-0.02674-0.09921
  -3   1  -1 28867.5 286.053   0 0.12869-0.44089 0.75337-0.74299-0.22451 0.09856
  -3   1  -2 23125.5 271.197   1 0.08082-0.41675 0.86155-0.89137-0.05646-0.15791
  -3   1  -2 21641.1 273.628   2 0.22887-0.56480-0.09278 0.06296-0.82948 0.61511
  -3   1  -2 24592.2 266.651   0 0.14431-0.48024 0.74958-0.77940-0.22616 0.01180
  -3   1  -3 514.604 89.2220   1 0.04696-0.40662 0.84462-0.91465-0.09130-0.21149
  -3   1  -3 400.537 78.2377   2 0.34744-0.70710-0.02748-0.04255-0.75093 0.44814
   3  -1   3 402.428 81.5175   5 0.26430 0.09536-0.91230 0.98233-0.28880 0.59159
  -3   1  -3 556.439 64.6930   0 0.13472-0.49437 0.75194-0.82197-0.22515-0.07763
  -3   1  -4 13150.9 282.362   1 0.00999-0.39337 0.82440-0.93464-0.12905-0.26215
  -3   1  -4 12301.3 266.331   2 0.41562-0.79900 0.01187-0.12211-0.69764 0.30644
   3  -1   4 10723.0 257.125   4 0.62466-0.24128-0.63542 0.74566-0.36321 0.75442
   3  -1   4 8500.14 246.367   5 0.36088 0.02250-0.86153 0.97177-0.19878 0.58998
   3  -1   5 3827.03 197.407   4 0.71721-0.31010-0.55612 0.70657-0.24965 0.72927
  -3   1  -5 4625.14 206.271   2 0.45275-0.85986 0.03392-0.18437-0.66585 0.18623
   3  -1   5 2923.85 186.736   5 0.44290-0.03579-0.80613 0.95659-0.11609 0.59571
  -3   1  -5 4504.52 214.326   1-0.02909-0.37802 0.80106-0.95151-0.16863-0.31100
  -3   1  -6 14530.9 357.290   2 0.47016-0.90099 0.04442-0.23508-0.65021 0.08218
   3  -1   6 9813.67 283.499   5 0.51371-0.08288-0.74764 0.93830-0.03926 0.60730
  -3   1  -6 14678.1 339.551   1-0.06972-0.36111 0.77464-0.96530-0.20941-0.35863
   3  -1   6 11884.6 319.021   4 0.78753-0.35669-0.47876 0.66942-0.14686 0.71490
   3  -1   7 1407.88 178.503   4 0.84138-0.38682-0.40398 0.63485-0.05315 0.70961
  -3   1  -7 1693.16 214.596   2 0.47430-0.92886 0.04693-0.27780-0.64643-0.01003
  -3   1  -7 1479.96 202.036   1-0.11160-0.34296 0.74511-0.97597-0.25105-0.40540
  -3   1  -8 98.6208 133.853   2 0.46892-0.94720 0.04366-0.31474-0.65135-0.09353
   3  -1   8 31.9520 61.2028   4 0.88268-0.40440-0.33157 0.60265 0.03323 0.71164
  -3   1  -8 70.4936 115.124   1-0.15453-0.32375 0.71234-0.98342-0.29332-0.45155
   3  -1   8 8.25017 78.1957   5 0.63045-0.15217-0.62331 0.89439 0.10158 0.64330
   3  -1   9 36.1062 81.3502   4 0.91402-0.41201-0.26105 0.57234 0.11382 0.71948
  -3   1  -9 82.1369 159.068   2 0.45624-0.95825 0.03601-0.34730-0.66275-0.17054
   3  -1   9 35.5302 85.5639   5 0.67913-0.17712-0.55754 0.86883 0.16739 0.66591
  -3   1  -9 130.120 138.947   1-0.19841-0.30360 0.67619-0.98747-0.33607-0.49722
  -3   0  10 34.2586 91.5315   3 0.01732-0.08305-0.61613 0.97258 0.41863 0.38424
  -3   0   9 10.0175 40.2534   3 0.02488-0.11434-0.64670 0.96294 0.38373 0.33073
  -3   0   8 1296.56 143.155   4 0.86853-0.98171 0.37511-0.09908 0.70928-0.08324
  -3   0   8 1383.67 166.837   3 0.03182-0.14500-0.67388 0.94991 0.35089 0.27515
  -3   0   7 125.534 69.3218   4 0.85822-0.99513 0.39303-0.15721 0.72244-0.18482
  -3   0   7 122.390 89.0721   3 0.03802-0.17492-0.69740 0.93322 0.32093 0.21669
  -3   0   6 330.443 75.8353   4 0.83584-0.99647 0.42864-0.23303 0.74783-0.29862
  -3   0   6 336.852 97.8575   3 0.04324-0.20387-0.71669 0.91230 0.29516 0.15404
  -3   0   5 5671.87 169.016   4 0.79309-0.97745 0.48710-0.33169 0.78710-0.42631
  -3   0   5 6127.19 199.158   3 0.04710-0.23146-0.73061 0.88601 0.27584 0.08495
  -3   0   5 6220.41 192.775   2-0.94318 0.75882-0.47036 0.62576-0.40283 0.76362
  -3   0   4 7.88786 33.7432   4 0.71501-0.92309 0.57211-0.45692 0.83784-0.56547
  -3   0   4 16.8521 38.1692   3 0.04882-0.25690-0.73673 0.85192 0.26714 0.00523
  -3   0   4 6.10890 29.6256   0-0.41286 0.20478 0.74050-0.62531-0.12837 0.40074
   3   0  -4 8.15188 19.1713   5-0.67489 0.88298-0.69689 0.58170-0.80348 0.53111
  -3   0   3 19102.3 238.861   4 0.57952-0.81133 0.67861-0.60362 0.88631-0.70236
  -3   0   3 21533.9 253.504   3 0.04673-0.27853-0.72927 0.80425 0.27773-0.09378
   3   0  -3 17254.1 157.646   5-0.46764 0.69945-0.87931 0.80432-0.75852 0.57456
  -3   0   3 26384.5 293.483   0-0.32690 0.09509 0.76268-0.68770-0.14903 0.33298
  -3   0   3 23092.0 274.824   2-0.83497 0.60317-0.49943 0.57441-0.72937 0.91333
  -3   0   2 534.274 54.8606   3 0.03637-0.29190-0.69119 0.72597 0.32898-0.23344
  -3   0   2 681.930 90.2059   0-0.25205-0.00348 0.77513-0.74035-0.16518 0.26071
   3   0  -2 493.868 52.8397   5-0.21884 0.47437-0.97460 0.93983-0.64162 0.54608
  -3   0   2 592.747 78.1568   2-0.67490 0.41937-0.47057 0.50535-0.88967 0.98520
  -3   0   1 4523.93 132.985   0-0.19230-0.08696 0.78086-0.78629-0.17694 0.18406
  -3   0   1 4418.73 97.4587   1-0.25448-0.02478 0.62588-0.63131-0.39000 0.39712
  -3   0   1 3953.51 120.947   2-0.42756 0.14830-0.39165 0.38621-0.98310 0.99022
  -3   0   0 37698.4 311.785   0-0.15149-0.15149 0.78274-0.82838-0.18443 0.10313
  -3   0   0 35925.9 279.745   1-0.15149-0.15149 0.71475-0.76039-0.29034 0.20905
  -3   0  -1 9.32632 23.3266   2 0.07652-0.40323-0.17143 0.08558-0.90683 0.73712
   3   0   1 18.8543 34.1096   5 0.27071 0.05599-0.90937 0.99523-0.28305 0.45277
  -3   0  -1 10.4490 32.6997   0-0.13336-0.19334 0.78306-0.86891-0.18762 0.01790
  -3   0  -1 8.34155 24.7760   1-0.11413-0.21258 0.74325-0.82910-0.25355 0.08384
  -3   0  -2 4154.10 149.899   1-0.10680-0.24363 0.74861-0.87467-0.24630-0.01183
  -3   0  -2 4551.49 131.536   0-0.14191-0.20852 0.78295-0.90901-0.18612-0.07201
  -3   0  -2 4046.12 151.049   2 0.23237-0.58280-0.09091-0.03515-0.82740 0.56926
   3   0   3 1986.24 125.753   4 0.64073-0.26657-0.62310 0.78937-0.34490 0.69145
   3   0   3 1720.30 115.069   5 0.44160-0.06744-0.80711 0.97338-0.11745 0.46400
  -3   0  -3 2435.82 139.896   2 0.32982-0.70397-0.03743-0.12884-0.76370 0.41715
  -3   0  -3 2501.12 128.570   1-0.11556-0.25860 0.74219-0.90846-0.25497-0.09158
  -3   0  -4 77.6838 49.5194   2 0.38781-0.78569-0.00435-0.20212-0.72014 0.28518
   3   0   4 153.507 81.8481   5 0.50718-0.10930-0.75350 0.95998-0.04658 0.48155
   3   0   4 168.542 76.4108   4 0.72766-0.32978-0.54573 0.75221-0.23545 0.67042
  -3   0  -4 145.112 71.8139   1-0.13398-0.26390 0.72835-0.93483-0.27314-0.16183
   3   0   5 17657.6 382.714   4 0.79332-0.37172-0.47149 0.71818-0.13753 0.66091
  -3   0  -5 21073.0 415.835   2 0.41999-0.84160 0.01444-0.26113-0.69400 0.17062
   3   0   5 14710.9 345.236   5 0.56437-0.14276-0.69855 0.94524 0.01938 0.50401
  -3   0  -5 21907.0 419.331   1-0.15870-0.26290 0.70902-0.95571-0.29741-0.22598
   3   0   6 478.344 154.688   4 0.84367-0.39834-0.40038 0.68727-0.04876 0.66057
  -3   0  -6 522.003 139.143   2 0.43486-0.88019 0.02323-0.31013-0.68143 0.06962
  -3   0  -6 577.053 161.850   1-0.18783-0.25750 0.68516-0.97206-0.32580-0.28600
   3   0   7 19.8327 71.6469   4 0.88253-0.41348-0.33187 0.65897 0.03289 0.66733
  -3   0  -7 88.8323 109.984   2 0.43755-0.90660 0.02483-0.35194-0.67912-0.02111
  -3   0  -7 52.2121 73.2670   1-0.22020-0.24885 0.65719-0.98430-0.35713-0.34310
   3   0   7 32.1235 76.7133   5 0.66050-0.19144-0.58393 0.91103 0.14158 0.55864
   3   0   8 85.2617 113.773   4 0.91236-0.41958-0.26529 0.63261 0.10906 0.67958
  -3   0  -8 76.9155 95.6766   2 0.43119-0.92397 0.02106-0.38837-0.68456-0.10408
   3   0   8 84.3189 119.963   5 0.70141-0.20863-0.52369 0.89100 0.19942 0.58922
  -3   0  -8 114.830 121.035   1-0.25510-0.23768 0.62529-0.99261-0.39059-0.39805
  -3   0  -9 41.0399 102.066   1-0.29204-0.22447 0.58945-0.99698-0.42567-0.45139
  -3  -1  11 27.2966 99.5025   3 0.02968-0.08619-0.66560 0.96602 0.36109 0.48644
  -3  -1  10 120.154 110.370   3 0.03898-0.11921-0.70100 0.96121 0.31620 0.44291
  -3  -1   9 149.391 105.635   3 0.04799-0.15194-0.73377 0.95377 0.27136 0.39933
  -3  -1   8 3099.20 192.473   3 0.05671-0.18439-0.76404 0.94383 0.22659 0.35569
  -3  -1   7 93.9044 74.4258   3 0.06516-0.21657-0.79191 0.93150 0.18189 0.31196
  -3  -1   6 13816.9 245.329   4 0.79489-0.97002 0.48484-0.38547 0.78564-0.38020
  -3  -1   6 15077.7 307.832   3 0.07335-0.24848-0.81747 0.91685 0.13731 0.26813
  -3  -1   5 14437.7 218.255   4 0.71807-0.91693 0.56918-0.51002 0.83624-0.51922
  -3  -1   5 16465.5 297.125   2-0.92449 0.72563-0.48886 0.54802-0.51979 0.83682
  -3  -1   5 15448.1 267.810   3 0.08127-0.28012-0.84076 0.89993 0.09288 0.22414
  -3  -1   4 9134.23 165.601   4 0.57745-0.80003 0.67994-0.66099 0.88677-0.65816
  -3  -1   4 9988.24 196.688   3 0.08890-0.31148-0.86180 0.88076 0.04872 0.17989
  -3  -1   4 10790.2 222.337   2-0.86818 0.64560-0.50022 0.51917-0.67280 0.90141
  -3  -1   3 26352.6 256.143   3 0.09623-0.34254-0.88055 0.85930 0.00506 0.13513
  -3  -1   3 28048.7 307.463   2-0.75523 0.50893-0.48863 0.46738-0.82531 0.96550
  -3  -1   2 9260.65 193.270   0-0.45816 0.18813 0.72504-0.78651-0.11647 0.16824
  -3  -1   2 7923.26 132.464   3 0.10315-0.37318-0.89685 0.83539-0.03742 0.08920
  -3  -1   2 8862.20 128.978   1-0.62202 0.35199 0.13795-0.19941-0.71672 0.76849
  -3  -1   2 8154.41 176.577   2-0.57090 0.30087-0.44076 0.37930-0.94410 0.99587
  -3  -1   1 6163.11 159.917   0-0.42772 0.13396 0.73574-0.83741-0.12455 0.08790
  -3  -1   1 5977.91 119.546   1-0.45351 0.15976 0.40393-0.50561-0.57409 0.53745
  -3  -1   0 516.862 95.4452   2-0.10005-0.21743-0.25572 0.11384-0.96566 0.84060
  -3  -1   0 446.549 79.3981   0-0.41615 0.09868 0.73947-0.88135-0.12753 0.00246
  -3  -1   0 436.074 65.4638   1-0.34939 0.03192 0.52928-0.67116-0.47936 0.35429
  -3  -1  -1 3041.48 123.252   1-0.29307-0.04813 0.58842-0.77051-0.42664 0.21316
  -3  -1  -1 2654.38 137.746   2 0.08578-0.42699-0.16680-0.01528-0.90285 0.68936
   3   1   1 2435.40 135.042   4 0.56850-0.22729-0.67452 0.85661-0.42343 0.63691
  -3  -1  -1 3163.22 116.787   0-0.42801 0.08681 0.73564-0.91773-0.12447-0.08901
   3   1   1 2030.33 123.299   5 0.49245-0.15125-0.76635 0.94844-0.06291 0.27639
  -3  -1  -2 15444.2 275.874   2 0.21486-0.57979-0.10025-0.12205-0.83765 0.53576
   3   1   2 13110.3 265.271   4 0.67362-0.30869-0.59609 0.81839-0.30567 0.60757
  -3  -1  -2 16574.0 212.909   0-0.46859 0.10367 0.72108-0.94338-0.11362-0.18828
   3   1   2 10170.6 213.469   5 0.54046-0.17553-0.72254 0.94484-0.00872 0.31062
  -3  -1  -2 15709.7 283.532   1-0.26663-0.09830 0.61434-0.83664-0.40158 0.09968
  -3  -1  -3 739.506 133.283   2 0.29832-0.68697-0.05500-0.20751-0.78555 0.39523
   3   1   3 502.227 102.018   4 0.75050-0.36185-0.52178 0.78428-0.20319 0.59350
  -3  -1  -3 659.404 110.475   1-0.25905-0.12960 0.62156-0.88407-0.39437 0.00405
   3   1   3 365.323 82.7833   5 0.58417-0.19552-0.67746 0.93997 0.04327 0.34704
   3   1   4-2.15783 28.4036   5 0.62448-0.21210-0.63071 0.93343 0.09384 0.38489
  -3  -1  -4-4.03568 43.6823   2 0.34948-0.76186-0.02633-0.27639-0.74943 0.27069
  -3  -1  -4 4.24391 51.9240   1-0.26391-0.14847 0.61695-0.91966-0.39899-0.07975
   3   1   5 1689.39 164.373   4 0.85303-0.41692-0.38523 0.72816-0.03041 0.59756
  -3  -1  -5 1930.51 173.813   2 0.37838-0.81449-0.00980-0.33313-0.72753 0.16038
   3   1   5 1415.13 155.486   5 0.66186-0.22576-0.58205 0.92498 0.14344 0.42371
  -3  -1  -5 2154.67 164.993   1-0.27734-0.15876 0.60398-0.94690-0.41175-0.15540
  -3  -1  -6 4852.17 288.348   2 0.39163-0.85146-0.00214-0.38099-0.71712 0.06155
  -3  -1  -6 4600.17 246.971   1-0.29695-0.16288 0.58452-0.96766-0.43030-0.22527
  -3  -1  -7 103.064 101.464   2 0.39343-0.87698-0.00110-0.42225-0.71569-0.02830
  -3  -1  -7 115.178 104.753   1-0.32117-0.16238 0.55960-0.98295-0.45306-0.29093
   3   1   7 83.8313 64.7509   5 0.72879-0.24524-0.47805 0.90140 0.24083 0.50316
   3   1   8 22.3577 103.638   4 0.93522-0.42794-0.19836 0.66191 0.18278 0.64962
  -3  -1  -8 33.6333 91.0254   2 0.38646-0.89373-0.00514-0.45841-0.72122-0.11119
  -3  -2  11 244.095 157.898   3 0.04989-0.12089-0.74048 0.94466 0.26173 0.54203
  -3  -2  10 928.721 176.277   3 0.06030-0.15503-0.77605 0.94002 0.20778 0.50757
  -3  -2   9 900.977 157.336   3 0.07064-0.18909-0.80917 0.93293 0.15222 0.47471
  -3  -2   8 1223.65 152.823   3 0.08099-0.22316-0.83997 0.92353 0.09446 0.44405
  -3  -2   7 26.1550 37.4766   3 0.09147-0.25737-0.86853 0.91187 0.03359 0.41650
  -3  -2   6 1001.71 130.193   3 0.10225-0.29188-0.89482 0.89795-0.03184 0.39352
  -3  -2   6 1061.64 119.913   2-0.93395 0.74433-0.48249 0.48562-0.47403 0.83571
  -3  -2   5 3874.37 170.423   3 0.11361-0.32696-0.91860 0.88152-0.10427 0.37753
  -3  -2   5 3841.51 173.436   2-0.89543 0.68208-0.49780 0.46073-0.61260 0.88586
  -3  -2   4 14228.3 229.771   3 0.12597-0.36305-0.93899 0.86171-0.18811 0.37295
  -3  -2   4 14868.4 267.153   2-0.81661 0.57953-0.49784 0.42056-0.75551 0.94035
  -3  -2   3 2644.75 89.6934   1-0.76281 0.50201-0.24430 0.12680-0.80879 0.90522
  -3  -2   3 2538.53 114.483   3 0.14005-0.40085-0.95310 0.83561-0.29184 0.38827
  -3  -2   3 2434.98 118.579   2-0.68345 0.42265-0.47274 0.35524-0.88391 0.98033
   3   2  -2 21.4496 40.2589   5 0.64906-0.36454-0.59935 0.75705 0.12613-0.13414
  -3  -2   2 3.43357 12.6082   3 0.15670-0.44122-0.95026 0.79256-0.43225 0.44026
  -3  -2   2 20.2880 31.3523   1-0.66418 0.37965 0.05095-0.20865-0.74894 0.75695
  -3  -2   2 1.72455 23.1179   2-0.49589 0.21136-0.41603 0.25833-0.96889 0.97690
  -3  -2   1 1372.30 109.561   2-0.28189-0.02637-0.33473 0.13682-0.99125 0.91084
  -3  -2   1 1443.35 71.3455   3 0.17423-0.48248-0.88837 0.69046-0.63348 0.55307
  -3  -2   1 1614.86 106.736   1-0.55841 0.25015 0.25046-0.44836-0.66493 0.58452
  -3  -2   0 4240.41 153.447   2-0.08389-0.24809-0.24830 0.01019-0.96164 0.79281
   3   2   0 4002.36 146.774   4 0.63855-0.30657-0.62480 0.86292-0.34741 0.51624
  -3  -2  -1 7745.93 208.530   2 0.07181-0.42751-0.17377-0.10456-0.90883 0.65158
   3   2   1 7123.09 203.395   4 0.72350-0.36780-0.54990 0.82823-0.24113 0.49838
   3   2   1 5398.80 165.758   5 0.64847-0.29277-0.60014 0.87847 0.12534 0.13191
  -3  -2  -1 8686.31 211.127   1-0.42431 0.06861 0.44141-0.71974-0.54792 0.29067
  -3  -2  -2 4158.29 198.902   2 0.18231-0.56174-0.11741-0.20112-0.85581 0.51015
   3   2   2 3597.85 183.587   4 0.78536-0.40593-0.48145 0.79998-0.15032 0.49599
   3   2   2 2891.12 172.705   5 0.66780-0.28837-0.57378 0.89232 0.15159 0.19407
  -3  -2  -2 4466.81 178.598   1-0.39308 0.01366 0.47942-0.79795-0.51957 0.17391
  -3  -2  -3 14979.8 329.758   2 0.25593-0.65908-0.07821-0.28054-0.81303 0.37895
   3   2   3 12144.7 288.287   4 0.83234-0.42919-0.41780 0.77655-0.07011 0.50419
   3   2   3 10477.2 287.855   5 0.68980-0.28665-0.54165 0.90040 0.18256 0.25152
  -3  -2  -3 15068.5 323.313   1-0.37821-0.02494 0.49681-0.85555-0.50595 0.07187
  -3  -2  -4 94.2040 79.8201   2 0.30227-0.72915-0.05281-0.34615-0.78287 0.26037
   3   2   4 66.6339 63.2294   4 0.86902-0.44214-0.35750 0.75645 0.00275 0.51975
  -3  -2  -5 5410.70 258.586   2 0.32890-0.77950-0.03795-0.40121-0.76435 0.15344
   3   2   5 4187.62 261.719   4 0.89800-0.44740-0.29941 0.73858 0.07040 0.54052
  -3  -2  -5 5520.51 246.813   1-0.38135-0.06925 0.49317-0.93234-0.50883-0.10209
   3   2   6 351.551 173.365   4 0.92084-0.44652-0.24272 0.72209 0.13423 0.56510
  -3  -2  -6 382.263 139.684   2 0.34107-0.81540-0.03109-0.44828-0.75559 0.05626
  -3  -2  -6 516.627 159.365   1-0.39410-0.08022 0.47821-0.95758-0.52050-0.17883
   3   2   7 366.145 181.855   4 0.93848-0.44043-0.18679 0.70637 0.19525 0.59250
  -3  -2  -7 283.607 137.775   2 0.34231-0.84036-0.03039-0.48919-0.75469-0.03306
  -3  -3  11 38.0556 111.879   3 0.06922-0.15472-0.80476 0.91271 0.15996 0.60004
  -3  -3  10 18.8132 76.6446   3 0.08051-0.18973-0.83859 0.90633 0.09720 0.57438
  -3  -3   9 2990.77 212.376   3 0.09184-0.22479-0.86948 0.89700 0.03140 0.55176
  -3  -3   8 8009.29 277.643   3 0.10331-0.25999-0.89722 0.88454-0.03845 0.53319
  -3  -3   7 38.9919 64.3912   3 0.11505-0.29545-0.92130 0.86841-0.11379 0.52012
  -3  -3   7 13.3139 56.2035   2-0.94130 0.76090-0.47391 0.42102-0.42220 0.82853
  -3  -3   6 123.736 79.8639   2-0.91686 0.71273-0.49228 0.39917-0.54896 0.86687
  -3  -3   6 104.534 65.0960   3 0.12719-0.33131-0.94064 0.84754-0.19670 0.51461
  -3  -3   5 793.241 102.450   3 0.13983-0.36768-0.95297 0.81966-0.29017 0.51966
  -3  -3   5 761.036 113.397   2-0.86330 0.63545-0.50031 0.36700-0.68204 0.91153
  -3  -3   4 1337.55 105.835   2-0.76948 0.51791-0.49121 0.31769-0.81107 0.95214
  -3  -3   4 1540.02 86.4164   1-0.78707 0.53549-0.45860 0.28508-0.79951 0.94059
  -3  -3   4 1287.18 108.036   3 0.15294-0.40451-0.95349 0.77997-0.39823 0.53930
  -3  -3   3 70753.7 454.265   1-0.75776 0.48246-0.22171 0.00799-0.80699 0.85965
  -3  -3   3 63452.9 409.735   3 0.16588-0.44118-0.93186 0.71814-0.52494 0.57760
  -3  -3   3 66597.4 488.319   2-0.62887 0.35357-0.45811 0.24438-0.91707 0.96973
   3   3  -2 5670.55 141.956   4 0.65169-0.35266-0.61438 0.86832-0.33209 0.36785
  -3  -3   2 6856.56 175.996   1-0.69298 0.39396-0.01701-0.23693-0.76952 0.73376
  -3  -3   2 6352.59 140.036   3 0.17622-0.47525-0.86752 0.61358-0.66885 0.63309
  -3  -3   2 6088.13 201.132   2-0.45040 0.15138-0.39998 0.14604-0.97916 0.94340
   3   3  -1 317.266 76.6153   4 0.73217-0.40942-0.54114 0.83528-0.22920 0.35338
  -3  -3   1 338.702 72.9864   2-0.26147-0.06127-0.32628 0.03213-0.99025 0.86607
  -3  -3   1 381.985 75.4839   1-0.62278 0.30003 0.13647-0.43062-0.71732 0.59315
  -3  -3   1 326.123 63.3122   3 0.17818-0.50093-0.73185 0.43770-0.80802 0.68384
  -3  -3   0 1792.67 134.589   2-0.09226-0.25421-0.25215-0.08220-0.96376 0.75117
   3   3   0 1553.80 114.692   4 0.78809-0.44162-0.47806 0.81242-0.14596 0.35855
  -3  -3   0 2036.93 125.596   1-0.56340 0.21692 0.24226-0.57662-0.66910 0.45651
  -3  -3  -1 37.7257 45.6293   2 0.04128-0.41147-0.18883-0.18573-0.92119 0.62018
   3   3   1 112.738 78.7628   4 0.83022-0.46002-0.42096 0.79552-0.07400 0.37501
  -3  -3  -1 45.0490 45.7184   1-0.51957 0.14937 0.31116-0.68573-0.63195 0.33094
  -3  -3  -2 6895.63 231.583   2 0.13820-0.53212-0.14026-0.27451-0.87856 0.48913
  -3  -3  -2 6972.66 223.557   1-0.49064 0.09672 0.35326-0.76803-0.60687 0.21744
   3   3   2 5774.78 237.329   4 0.86351-0.46958-0.36735 0.78212-0.00895 0.39838
  -3  -3  -3 1568.17 180.200   2 0.20450-0.62215-0.10574-0.34924-0.84356 0.36572
  -3  -3  -3 1705.53 160.260   1-0.47431 0.05666 0.37599-0.83097-0.59253 0.11468
  -3  -3  -4 70.9462 98.9137   2 0.24722-0.68860-0.08292-0.41228-0.81842 0.25215
   3   3   4 24.1361 79.0655   4 0.91240-0.47103-0.26519 0.76039 0.10917 0.45709
  -3  -3  -4 50.1994 76.0821   1-0.46813 0.02676 0.38440-0.87959-0.58707 0.02081
   3   3   5 104.088 110.909   4 0.93013-0.46504-0.21512 0.75052 0.16458 0.49011
  -3  -3  -5 68.3480 69.4886   1-0.47004 0.00494 0.38182-0.91722-0.58875-0.06593
   3   3   6 94.2335 94.5159   4 0.94407-0.45525-0.16508 0.74069 0.21843 0.52467
  -3  -3  -6 51.3652 116.118   2 0.28356-0.77238-0.06313-0.51248-0.79536 0.05226
  -3  -3  -6 58.2751 85.0452   1-0.47839-0.01043 0.37038-0.94599-0.59612-0.14698
  -3  -3  -7 66.2531 137.720   2 0.28438-0.79693-0.06268-0.55314-0.79482-0.03670
  -3  -3  -7 16.1920 78.8930   1-0.49192-0.02063 0.35145-0.96727-0.60798-0.22354
  -3  -4  11 109.236 79.9020   3 0.08709-0.18709-0.85694 0.86864 0.05933 0.65691
  -3  -4  10 199.058 101.176   3 0.09887-0.22259-0.88692 0.85842-0.01096 0.63878
  -3  -4   9 1826.04 197.866   3 0.11066-0.25810-0.91284 0.84413-0.08507 0.62447
  -3  -4   8 41.8186 79.6773   3 0.12250-0.29367-0.93393 0.82501-0.16401 0.61499
  -3  -4   7 4906.83 209.403   3 0.13440-0.32930-0.94882 0.79969-0.24899 0.61155
  -3  -4   7 4785.37 230.314   2-0.93252 0.73762-0.48368 0.33455-0.48197 0.84453
  -3  -4   6 170.315 98.1587   2-0.89813 0.67950-0.49734 0.30800-0.60562 0.87977
  -3  -4   6 157.651 90.9929   3 0.14626-0.36488-0.95517 0.76583-0.34137 0.61552
  -3  -4   5 10169.8 231.737   3 0.15777-0.40012-0.94896 0.71941-0.44233 0.62806
  -3  -4   5 11132.9 274.089   2-0.83413 0.59178-0.49937 0.26982-0.73064 0.91637
  -3  -4   4 1865.21 118.580   1-0.78547 0.51939-0.40700 0.13725-0.80646 0.90377
  -3  -4   4 1825.76 113.816   3 0.16821-0.43429-0.92359 0.65384-0.55174 0.64905
  -3  -4   4 1725.09 121.260   2-0.73305 0.46698-0.48420 0.21445-0.84558 0.94290
  -3  -4   3 131.980 68.8838   1-0.75981 0.47002-0.23066-0.07931-0.80776 0.81666
  -3  -4   3 68.9917 40.7888   3 0.17607-0.46587-0.86946 0.55949-0.66582 0.67471
  -3  -4   3 119.959 71.6914   2-0.59431 0.30452-0.44797 0.13800-0.93409 0.94298
   3   4  -2 554.192 89.6919   4 0.83971-0.52619-0.40658 0.75675-0.05633 0.13585
  -3  -4   2 609.223 110.168   1-0.71555 0.40203-0.07736-0.27281-0.78443 0.70490
  -3  -4   2 567.441 77.4530   3 0.17891-0.49243-0.77641 0.42624-0.77366 0.69413
  -3  -4   2 553.363 97.4878   2-0.43053 0.11700-0.39274 0.04256-0.98263 0.90311
   3   4  -1 2063.45 118.713   4 0.86072-0.52347-0.37220 0.76259-0.01475 0.18270
  -3  -4   1 2125.58 151.546   2-0.26484-0.07241-0.32768-0.06271-0.99045 0.82251
  -3  -4   1 2191.68 110.724   3 0.17437-0.51162-0.64277 0.25238-0.85725 0.68931
  -3  -4   0 7830.44 235.054   2-0.11849-0.24248-0.26410-0.16650-0.96992 0.71356
  -3  -4   0 8148.59 250.792   1-0.62412 0.26315 0.13388-0.56447-0.71838 0.46202
  -3  -4  -1 17.6658 50.2000   2-0.00184-0.38285-0.20973-0.26107-0.93697 0.59220
   3   4   1 37.6226 69.9246   4 0.89879-0.51409-0.29765 0.76845 0.07241 0.27236
  -3  -4  -1-1.62898 42.5846   1-0.59007 0.20537 0.19677-0.66758-0.69111 0.34633
  -3  -4  -2 192.776 93.3587   2 0.08464-0.49306-0.16738-0.34363-0.90334 0.47015
   3   4   2 170.557 88.7271   4 0.91510-0.50668-0.25824 0.76925 0.11697 0.31623
  -3  -4  -2 263.413 109.991   1-0.56595 0.15752 0.23804-0.74906-0.67122 0.23803
  -3  -4  -3 131.111 95.7743   2 0.14519-0.57734-0.13667-0.41455-0.87509 0.35348
  -3  -4  -3 159.614 86.9069   1-0.55109 0.11894 0.26230-0.81352-0.65878 0.13717
  -3  -4  -4 3359.53 244.030   2 0.18499-0.64086-0.11601-0.47542-0.85436 0.24433
   3   4   4 2782.08 230.366   4 0.94140-0.48553-0.17579 0.76722 0.20703 0.40300
  -3  -4  -4 3358.64 244.325   1-0.54432 0.08845 0.27308-0.86451-0.65307 0.04304
  -3  -4  -5 1232.15 227.479   2 0.20853-0.68813-0.10361-0.52803-0.84128 0.14283
  -3  -4  -5 1281.62 216.880   1-0.54440 0.06480 0.27295-0.90459-0.65314-0.04531
   3   4   5 1282.60 266.830   4 0.95113-0.47154-0.13282 0.76446 0.25238 0.44607
  -3  -4  -6 181.782 135.662   2 0.21927-0.72259-0.09791-0.57394-0.83511 0.04824
  -3  -4  -6 110.150 98.5957   1-0.55021 0.04689 0.26371-0.93556-0.65804-0.12882
  -3  -5  11 367.415 173.227   3 0.10300-0.21749-0.89651 0.81198-0.03649 0.70895
  -3  -5  10 1050.34 204.518   3 0.11481-0.25303-0.92084 0.79610-0.11216 0.69621
  -3  -5   9 188.689 114.335   3 0.12646-0.28840-0.93966 0.77471-0.19154 0.68718
  -3  -5   8 1474.90 159.030   3 0.13788-0.32355-0.95171 0.74655-0.27521 0.68242
  -3  -5   8 1518.27 187.252   2-0.94238 0.75671-0.47198 0.26682-0.41159 0.81880
  -3  -5   7 2865.51 187.361   3 0.14893-0.35832-0.95505 0.70968-0.36358 0.68238
  -3  -5   7 3136.36 202.321   2-0.92286 0.71346-0.48968 0.24431-0.52644 0.84524
  -3  -5   6 88.6467 76.8827   2-0.88157 0.64845-0.49949 0.21391-0.64527 0.87565
  -3  -5   6 89.2760 88.5665   3 0.15926-0.39238-0.94684 0.66126-0.45659 0.68697
  -3  -5   5 1022.76 128.617   3 0.16833-0.42517-0.92313 0.59734-0.55312 0.69508
  -3  -5   5 1029.04 105.156   2-0.81204 0.55519-0.49735 0.17156-0.76156 0.90353
  -3  -5   4 2656.01 170.927   1-0.78438 0.50381-0.39097 0.02498-0.80797 0.86152
  -3  -5   4 2208.66 153.295   3 0.17522-0.45579-0.87910 0.51310-0.65003 0.70357
  -3  -5   4 2258.43 162.132   2-0.71016 0.42959-0.47916 0.11316-0.86437 0.91792
  -3  -5   3 2393.73 164.119   1-0.76482 0.46053-0.25390-0.15231-0.80941 0.77453
  -3  -5   3 2194.78 145.379   3 0.17872-0.48302-0.81044 0.40424-0.74126 0.70639
  -3  -5   3 2386.45 146.007   2-0.57903 0.27473-0.44329 0.03709-0.94076 0.90588
  -3  -5   2 166.843 74.0536   1-0.73410 0.40608-0.13394-0.31247-0.79551 0.67222
  -3  -5   2 189.906 94.4822   3 0.17772-0.50574-0.71641 0.27000-0.81820 0.69491
  -3  -5   2 223.971 79.8575   2-0.43158 0.10356-0.39313-0.05329-0.98246 0.85917
   3   5  -1 1090.52 118.520   4 0.92831-0.57657-0.22082 0.70744 0.15836 0.05335
  -3  -5   1 1243.48 136.436   1-0.70036 0.34862-0.03593-0.45069-0.77453 0.56282
  -3  -5   1 1034.85 141.104   2-0.28626-0.06548-0.33653-0.15010-0.99140 0.77970
  -3  -5   0 107.267 79.9898   2-0.15833-0.21714-0.28193-0.24490-0.97786 0.67773
   3   5   0 158.784 98.4110   4 0.93300-0.55753-0.20584 0.73267 0.17468 0.12544
  -3  -5   0 129.081 92.0881   1-0.66918 0.29371 0.03973-0.56656-0.75262 0.45249
  -3  -5  -1 114.288 97.1330   2-0.05510-0.34410-0.23495-0.33209-0.95379 0.56525
   3   5   1 158.312 93.4097   4 0.93945-0.54026-0.18321 0.75025 0.19909 0.18945
  -3  -5  -1 98.8323 72.0933   1-0.64354 0.24435 0.09508-0.66212-0.73343 0.34489
  -3  -5  -2 11.9970 52.9102   2 0.02294-0.44586-0.19777-0.40948-0.92814 0.45118
   3   5   2 38.0998 65.8670   4 0.94634-0.52342-0.15546 0.76271 0.22862 0.24834
  -3  -5  -2 22.7225 71.8948   1-0.62458 0.20166 0.13299-0.74024-0.71874 0.24178
  -3  -5  -3 2792.01 224.727   2 0.07869-0.52533-0.17035-0.47711-0.90591 0.34053
   3   5   3 2980.85 243.550   4 0.95281-0.50617-0.12396 0.77142 0.26160 0.30378
  -3  -5  -3 2902.07 241.708   1-0.61237 0.16572 0.15628-0.80374-0.70908 0.14370
  -3  -5  -4 15.9182 71.1594   2 0.11594-0.58631-0.15162-0.53605-0.88923 0.23543
  -3  -5  -4 22.2700 91.4810   1-0.60642 0.13605 0.16732-0.85499-0.70432 0.05053
   3   5   4 37.0644 107.290   4 0.95830-0.48793-0.08951 0.77718 0.29703 0.35677
   3   5   5 5.03977 78.7655   4 0.96235-0.46826-0.05260 0.78047 0.33426 0.40795
  -3  -5  -5 50.5580 123.908   1-0.60606 0.11196 0.16799-0.89587-0.70403-0.03818
  -3  -6  11 415.344 153.838   3 0.11663-0.24562-0.92416 0.74339-0.12423 0.75294
  -3  -6  10 158.269 113.483   3 0.12803-0.28075-0.94174 0.72076-0.20269 0.74297
  -3  -6   9 76.8295 101.739   3 0.13902-0.31546-0.95248 0.69129-0.28393 0.73579
  -3  -6   8 234.801 114.659   3 0.14944-0.34961-0.95495 0.65355-0.36793 0.73138
  -3  -6   8 278.632 113.379   2-0.93857 0.73840-0.47776 0.17636-0.44442 0.80787
  -3  -6   7 1128.07 148.914   3 0.15902-0.38291-0.94722 0.60561-0.45420 0.72923
  -3  -6   7 1355.83 173.839   2-0.91479 0.69089-0.49303 0.15143-0.55612 0.83116
  -3  -6   6 915.233 134.246   3 0.16734-0.41496-0.92692 0.54510-0.54152 0.72813
  -3  -6   6 616.414 130.182   2-0.86991 0.62229-0.50017 0.11835-0.66942 0.85603
  -3  -6   5 776.599 118.874   1-0.78546 0.51412-0.51153 0.08951-0.78876 0.88695
  -3  -6   5 838.458 127.689   3 0.17386-0.44520-0.89149 0.46947-0.62756 0.72576
  -3  -6   5 824.946 106.270   2-0.79928 0.52793-0.49578 0.07376-0.77764 0.87584
  -3  -6   4 249.358 85.9577   3 0.17790-0.47296-0.83891 0.37668-0.70864 0.71842
  -3  -6   4 282.681 77.8775   2-0.70131 0.40624-0.47709 0.01486-0.87111 0.88089
  -3  -6   3 241.864 107.360   1-0.77076 0.45196-0.28482-0.21762-0.81078 0.73214
  -3  -6   3 281.105 121.249   3 0.17886-0.49765-0.76895 0.26650-0.77999 0.70135
  -3  -6   3 285.116 110.198   2-0.58081 0.26202-0.44384-0.05860-0.94000 0.86137
  -3  -6   2 2030.99 162.128   1-0.74952 0.40701-0.18838-0.35427-0.80346 0.63641
  -3  -6   2 2020.28 155.259   2-0.44951 0.10699-0.39966-0.14299-0.97933 0.81227
  -3  -6   1 2683.10 182.958   1-0.72595 0.35971-0.10813-0.47473-0.79080 0.53533
  -3  -6   0 1086.49 172.952   1-0.70366 0.31369-0.04462-0.57845-0.77673 0.43284
   3   6   1 4.84716 66.2231   4 0.95980-0.54611-0.07767 0.74094 0.30906 0.12325
  -3  -6  -1 29.0393 67.6303   1-0.68486 0.27116 0.00304-0.66632-0.76386 0.33155
   3   6   2 1258.28 215.263   4 0.96179-0.52438-0.05887 0.76235 0.32799 0.19273
  -3  -6  -2 1373.87 240.959   1-0.67062 0.23320 0.03646-0.73994-0.75367 0.23294
   3   6   3 48.5530 97.6137   4 0.96364-0.50250-0.03463 0.77833 0.35211 0.25703
  -3  -6  -3 68.5686 117.908   1-0.66130 0.20015 0.05731-0.80101-0.74681 0.13767
   3   6   4 147.155 142.056   4 0.96479-0.47993-0.00620 0.79010 0.38000 0.31756
  -3  -7  11-12.7982 77.0129   3 0.12787-0.27136-0.94154 0.66453-0.20157 0.78650
  -3  -7  10 1774.97 239.356   3 0.13854-0.30576-0.95216 0.63495-0.28023 0.77675
  -3  -7   9 80.1477 102.741   3 0.14854-0.33948-0.95511 0.59768-0.36032 0.76842
  -3  -7   8 472.704 106.004   3 0.15766-0.37232-0.94911 0.55147-0.44122 0.76091
  -3  -7   7 1382.50 177.241   3 0.16560-0.40399-0.93272 0.49488-0.52187 0.75314
  -3  -7   6 169.250 94.6903   3 0.17202-0.43414-0.90453 0.42648-0.60057 0.74342
  -3  -7   5 75.1609 74.7655   1-0.78578 0.49994-0.50629-0.01197-0.79000 0.84443
  -3  -7   5 18.2007 73.2562   3 0.17652-0.46236-0.86355 0.34529-0.67489 0.72932
  -3  -7   4 357.670 123.505   1-0.78563 0.47606-0.40982-0.14865-0.80617 0.77218
  -3  -7   4 516.745 135.680   3 0.17873-0.48830-0.80982 0.25135-0.74191 0.70793
  -3  -7   3 543.638 157.094   1-0.77651 0.44322-0.32035-0.27833-0.81117 0.68876
  -3  -7   3 364.997 109.462   3 0.17849-0.51178-0.74496 0.14628-0.79872 0.67631
  -3  -7   2 45.9155 69.1306   1-0.76221 0.40519-0.24150-0.39738-0.80860 0.59777
  -3  -7   1 140.863 93.0262   1-0.74602 0.36528-0.17524-0.50386-0.80179 0.50255
  -3  -7   0 607.490 167.996   1-0.73043 0.32596-0.12209-0.59721-0.79342 0.40576
  -3  -7  -1 2351.23 247.913   1-0.71706 0.28887-0.08171-0.67781-0.78538 0.30930
   3   7   2 77.5044 76.4301   4 0.96460-0.51268 0.03228 0.76745 0.41704 0.14745
  -3  -7  -2 234.928 134.518   1-0.70686 0.25495-0.05322-0.74651-0.77884 0.21435
   3   7   3 79.4118 92.4082   4 0.96378-0.48814 0.05087 0.78907 0.43465 0.21826
   3   8 -11 604.207 198.382   0 0.90797-0.74998 0.00395 0.36929-0.15695-0.38422
  -3  -8  10 161.629 99.6517   3 0.14657-0.32829-0.95519 0.54174-0.34399 0.79674
   3   8 -10 408.827 161.664   0 0.91246-0.73074-0.02793 0.44138-0.14917-0.30359
  -3  -8   9 84.4095 95.9522   3 0.15544-0.36088-0.95155 0.49789-0.42071 0.78505
  -3  -8   8 79.7127 105.082   3 0.16323-0.39240-0.93912 0.44525-0.49645 0.77237
  -3  -8   7 93.3855 96.5411   3 0.16970-0.42259-0.91712 0.38304-0.56994 0.75744
  -3  -8   6 1287.36 185.322   3 0.17460-0.45121-0.88508 0.31079-0.63951 0.73859
  -3  -8   5 24.3641 66.1773   1-0.78537 0.48503-0.51304-0.10146-0.78839 0.79906
  -3  -8   5-7.33155 58.1310   3 0.17771-0.47805-0.84316 0.22866-0.70324 0.71391
  -3  -8   4 27.6138 96.6430   1-0.78664 0.46257-0.43276-0.22195-0.80341 0.72565
  -3  -8   4 58.4097 83.2007   3 0.17891-0.50298-0.79242 0.13771-0.75919 0.68144
   3   8  -3 35.9025 103.676   0 0.91191-0.56412-0.02338 0.71829-0.15029 0.31646
  -3  -8   3 100.665 99.2987   1-0.78141 0.43362-0.35886-0.33606-0.81010 0.64393
  -3  -8   2 28.7887 88.6455   1-0.77231 0.40080-0.29377-0.44136-0.81100 0.55641
  -3  -8   1 16.5589 79.3231   1-0.76163 0.36639-0.23885-0.53649-0.80840 0.46540
  -3  -8   0 1256.36 220.026   1-0.75113 0.33217-0.19461-0.62093-0.80420 0.37278
   3   9  -9 309.670 137.030   0 0.90867-0.68874-0.00041 0.55031-0.15590-0.16467
  -3  -9   9 137.089 127.674   3 0.16026-0.38020-0.94520 0.39530-0.46636 0.78693
  -3  -9   8 129.256 98.0679   3 0.16687-0.41053-0.92861 0.33850-0.53605 0.76821
   3   9  -8 76.2235 98.4383   0 0.91028-0.66662-0.01114 0.60125-0.15330-0.07886
  -3  -9   7 88.4241 123.903   3 0.17214-0.43953-0.90380 0.27348-0.60218 0.74592
   3   9  -7 213.823 153.103   0 0.91072-0.64333-0.01429 0.64461-0.15253 0.00879
   3   9  -6 437.493 188.839   0 0.91003-0.61892-0.00936 0.67989-0.15373 0.09841
  -3  -9   6 137.882 83.4729   3 0.17594-0.46705-0.87099 0.20046-0.66339 0.71871
   3   9  -5 108.666 127.205   0 0.90792-0.59309 0.00425 0.70649-0.15702 0.19012
  -3  -9   5 38.4776 107.840   3 0.17820-0.49304-0.83097 0.12023-0.71834 0.68524
  -3  -9   4 561.251 141.882   1-0.78707 0.44851-0.46087-0.29008-0.79913 0.67761
   3   9  -4 795.681 204.624   0 0.90371-0.56515 0.02740 0.72354-0.16251 0.28402
  -3  -9   3 581.424 198.990   1-0.78498 0.42270-0.39941-0.39174-0.80722 0.59728
  -3  -9   2 490.234 183.308   1-0.77986 0.39385-0.34544-0.48592-0.81065 0.51230
  -3 -10   7 159.224 105.780   3 0.17349-0.45538-0.89438 0.16782-0.62191 0.72188
   3  10  -6 15.7707 107.577   0 0.89673-0.59112 0.05880 0.70796-0.16973 0.15818
  -3 -10   6 1.12358 84.7170   3 0.17657-0.48218-0.86286 0.09610-0.67592 0.68748
   3  10  -5 49.8813 114.305   0 0.89200-0.56267 0.07701 0.72996-0.17380 0.25067
  -4   9   1 64.4707 150.626   4 0.57839-0.82816 0.67934 0.16616 0.88656-0.51265
  -4   9   0 73.5353 88.4271   4 0.52503-0.79852 0.71130 0.09399 0.89602-0.61053
  -4   9  -1 244.432 143.026   0 0.44756-0.74478 0.62555 0.13953-0.24481 0.44188
  -4   9  -2 28.4548 91.3771   0 0.48513-0.80608 0.60243 0.12244-0.24504 0.35370
  -4   9  -3-3.23385 98.0208   0 0.51302-0.85768 0.58390 0.10076-0.24485 0.26508
   4  -9   3 8.98205 66.3081   5-0.47547 0.82013-0.87451 0.18985-0.76128 0.74104
  -4   9  -4 46.2441 84.6040   0 0.53219-0.90059 0.57043 0.07402-0.24452 0.17634
   4  -9   4 34.5058 87.1751   3 0.17638 0.19201-0.68206 0.03762-0.83822 0.90640
   4  -9   4-0.12778 64.5060   5-0.40727 0.77567-0.91217 0.26773-0.73511 0.80329
  -4   9  -5 247.125 117.903   0 0.54337-0.93549 0.56229 0.04194-0.24425 0.08765
   4  -9   5 330.458 165.115   3 0.17867 0.21345-0.75429 0.15005-0.79171 0.94830
  -4   9  -6 2.83892 94.4300   0 0.54699-0.96283 0.55961 0.00442-0.24415-0.00087
   4  -9   6 124.678 128.616   3 0.17854 0.23730-0.81908 0.25505-0.73197 0.97698
  -4   9  -7 22.0593 88.9307   0 0.54324-0.98281 0.56239-0.03857-0.24425-0.08918
  -4   8   2 82.7072 115.235   4 0.63567-0.87621 0.63940 0.15007 0.87097-0.45241
   4  -8  -1 19.9484 83.4618   5-0.65873 0.92300-0.71638-0.03287-0.80265 0.47251
  -4   8   1 502.756 160.475   4 0.59062-0.85489 0.67133 0.07793 0.88373-0.55359
  -4   8   0 27.6366 90.9565   4 0.53031-0.81830 0.70834 0.00071 0.89528-0.65355
  -4   8   0 12.8023 102.571   0 0.41140-0.69939 0.64595 0.06310-0.24409 0.48582
   4  -8   1 90.0794 99.0064   5-0.57578 0.88749-0.80026 0.13142-0.79018 0.63687
  -4   8  -1 909.425 203.033   0 0.45777-0.76949 0.61946 0.04937-0.24493 0.39824
  -4   8  -1 502.863 151.970   4 0.45187-0.76358 0.74811-0.07927 0.90223-0.74892
  -4   8  -2 43.8004 78.5814   0 0.49304-0.82848 0.59730 0.03133-0.24502 0.30991
   4  -8   2 11.2701 94.3449   5-0.51904 0.85448-0.84530 0.21668-0.77539 0.71050
  -4   8  -3 405.885 167.393   0 0.51840-0.87757 0.58018 0.00824-0.24477 0.22124
   4  -8   3 505.111 164.399   3 0.17191 0.18725-0.60302 0.01461-0.87290 0.89642
  -4   8  -4 3028.84 286.579   0 0.53477-0.91766 0.56857-0.02036-0.24446 0.13252
   4  -8   4 2453.39 234.219   3 0.17675 0.20615-0.69048 0.14227-0.83363 0.94558
  -4   8  -5 698.176 149.892   0 0.54276-0.94938 0.56274-0.05474-0.24426 0.04390
   4  -8   5 752.958 169.740   3 0.17887 0.22774-0.77116 0.26316-0.77814 0.97850
   4  -8   6 50.2880 109.376   5-0.19267 0.62301-0.97907 0.51128-0.62650 0.91528
  -4   8  -6 0.82544 46.6846   0 0.54274-0.97308 0.56276-0.09497-0.24426-0.04452
  -4   8  -7 83.6331 113.770   0 0.53474-0.98881 0.56859-0.14101-0.24446-0.13274
   4  -8   7 12.0081 74.6744   5-0.09339 0.54746-0.98763 0.56004-0.56486 0.94206
  -4   7   4 212.600 165.060   4 0.70913-0.91672 0.57766 0.19598 0.84084-0.28921
  -4   7   3 27.0418 82.0491   4 0.68313-0.91445 0.60105 0.13238 0.85299-0.38978
   4  -7  -3 33.9157 99.6854   5-0.71628 0.94759-0.64083-0.09260-0.80247 0.33926
  -4   7   2 74.7022 81.9568   4 0.64569-0.90073 0.63173 0.06150 0.86759-0.49279
   4  -7  -2 69.8040 91.8526   5-0.69127 0.94631-0.67585-0.01738-0.80366 0.42886
  -4   7   1 1144.83 176.432   4 0.59390-0.87266 0.66914-0.01612 0.88293-0.59656
  -4   7   1 1873.10 164.379   0 0.35583-0.63459 0.67404-0.02102-0.24211 0.52849
   4  -7  -1 363.515 87.7887   5-0.65749 0.93626-0.71783 0.06481-0.80257 0.51619
  -4   7   0 47.3195 79.9720   4 0.52447-0.82696 0.71160-0.09880 0.89609-0.69813
  -4   7   0 27.9594 74.1234   0 0.41328-0.71577 0.64493-0.03212-0.24414 0.44210
  -4   7  -1 1148.98 181.398   0 0.45792-0.78414 0.61938-0.04678-0.24493 0.35447
   4  -7   1 710.832 200.281   5-0.55842 0.88463-0.81496 0.24236-0.78612 0.67658
  -4   7  -1 701.630 148.074   4 0.43433-0.76055 0.75585-0.18325 0.90267-0.79313
  -4   7  -2 3849.58 232.726   0 0.49113-0.84107 0.59854-0.06615-0.24503 0.26615
   4  -7   2 545.513 77.6016   5-0.49144 0.84138-0.86430 0.33191-0.76670 0.74558
  -4   7  -3 575.751 155.314   0 0.51401-0.88768 0.58321-0.09103-0.24483 0.17754
   4  -7   3 654.235 152.089   3 0.17241 0.20125-0.61061 0.11843-0.87017 0.93746
  -4   7  -4 1908.31 193.738   0 0.52740-0.92479 0.57385-0.12188-0.24461 0.08890
   4  -7   4 1550.06 188.111   3 0.17753 0.21985-0.71091 0.25894-0.82165 0.97736
  -4   7  -5 1326.61 166.225   0 0.53182-0.95293 0.57070-0.15894-0.24452 0.00040
   4  -7   5 1251.08 178.655   3 0.17887 0.24225-0.79903 0.38727-0.75283 0.99696
  -4   7  -6 53.4583 71.7390   0 0.52749-0.97233 0.57379-0.20223-0.24461-0.08793
   4  -7   6-6.12786 54.7218   5-0.12536 0.57020-0.98629 0.61474-0.58544 0.91798
  -4   7  -7 13.8074 91.5077   0 0.51430-0.98286 0.58302-0.25167-0.24483-0.17613
   4  -7   7 58.8974 97.8851   5-0.02078 0.48934-0.98575 0.65440-0.51565 0.93661
   4  -7   8 15.9697 88.6068   5 0.08364 0.40865-0.97124 0.68010-0.43886 0.94824
  -4   7  -8 96.6466 75.9233   1 0.30458-0.79686 0.93294-0.64181 0.18067-0.69005
  -4   6   5 127.644 122.323   4 0.74181-0.94018 0.54545 0.17217 0.82285-0.22657
  -4   6   4 128.304 97.3514   4 0.72163-0.94371 0.56574 0.11166 0.83435-0.32648
   4  -6  -4 40.1511 108.482   5-0.74155 0.96364-0.60126-0.07615-0.79914 0.29127
  -4   6   3 27.8136 74.7908   4 0.69103-0.93684 0.59414 0.04305 0.84949-0.43004
   4  -6  -3 57.4004 74.6966   5-0.71961 0.96542-0.63588-0.00132-0.80217 0.38272
  -4   6   2 34.9992 67.2498   4 0.64710-0.91663 0.63063-0.03365 0.86710-0.53607
   4  -6  -2 21.9721 77.8861   5-0.68873 0.95827-0.67919 0.08221-0.80368 0.47265
  -4   6   1 1389.21 169.258   4 0.58626-0.87952 0.67422-0.11744 0.88477-0.64216
   4  -6  -1 1124.42 157.034   5-0.64720 0.94047-0.72958 0.17280-0.80170 0.55909
  -4   6   0 24.1413 74.5035   0 0.40245-0.71944 0.65073-0.13416-0.24384 0.39804
   4  -6   0-0.30549 33.4650   5-0.59346 0.91045-0.78436 0.26779-0.79385 0.63965
  -4   6   0 11.3020 39.8594   4 0.50472-0.82171 0.72228-0.20571 0.89848-0.74429
  -4   6  -1 11440.9 342.826   0 0.44568-0.78640 0.62665-0.15029-0.24478 0.31056
   4  -6   1 7359.03 288.481   5-0.52659 0.86730-0.83980 0.36344-0.77760 0.71182
   4  -6   2 3783.10 216.632   5-0.44674 0.81117-0.89150 0.45535-0.75083 0.77347
  -4   6  -2 5869.36 258.354   0 0.47693-0.84137 0.60765-0.17150-0.24504 0.22240
  -4   6  -3 5661.75 254.025   0 0.49719-0.88535 0.59456-0.19862-0.24500 0.13394
   4  -6   3 4734.02 210.848   3 0.17383 0.21434-0.63330 0.23736-0.86128 0.97234
  -4   6  -4 416.643 138.678   0 0.50720-0.91908 0.58787-0.23213-0.24491 0.04544
   4  -6   4 331.335 89.1638   3 0.17853 0.23336-0.74661 0.39087-0.79751 0.99698
  -4   6  -5 2496.75 195.253   0 0.50733-0.94294 0.58778-0.27225-0.24491-0.04298
   4  -6   5 355.363 78.7502   5-0.14926 0.58487-0.98442 0.66890-0.60037 0.88826
  -4   6  -6 72.3904 100.937   0 0.49763-0.95697 0.59427-0.31896-0.24499-0.13132
   4  -6   6 79.1108 88.8596   5-0.04132 0.50065-0.98696 0.71165-0.52992 0.90623
  -4   6  -7 3043.82 221.816   1 0.29909-0.78215 0.93210-0.69700 0.17471-0.63943
   4  -6   7 414.173 94.0590   5 0.06569 0.41737-0.97472 0.73962-0.45256 0.91729
   4  -6   8-2.01801 67.6578   5 0.16940 0.33738-0.94877 0.75388-0.37043 0.92358
  -4   6  -8 41.5577 82.0010   1 0.24149-0.74828 0.92034-0.72545 0.11255-0.66569
  -4   6  -9-0.08485 85.9388   1 0.18346-0.71397 0.90334-0.74865 0.05079-0.69235
  -4   5   6 109.721 105.646   4 0.76699-0.95612 0.51814 0.14345 0.80659-0.16566
  -4   5   5 354.259 125.669   4 0.75188-0.96474 0.53481 0.08657 0.81662-0.26411
  -4   5   4 156.625 90.1459   4 0.72734-0.96393 0.56013 0.02104 0.83122-0.36712
   4  -5  -4 142.210 111.989   5-0.74367 0.98025-0.59771 0.01655-0.79874 0.33464
  -4   5   3 14.0942 50.9936   4 0.69051-0.95082 0.59460-0.05364 0.84972-0.47404
   4  -5  -3 32.8149 66.4976   5-0.71567 0.97598-0.64174 0.10078-0.80252 0.42684
  -4   5   2 189.598 91.2944   4 0.63766-0.92170 0.63789-0.13714 0.87032-0.58305
   4  -5  -2 250.681 130.221   5-0.67643 0.96046-0.69498 0.19423-0.80353 0.51626
  -4   5   1 1286.57 162.920   4 0.56444-0.87220 0.68815-0.22761 0.88947-0.69063
   4  -5  -1 998.535 138.636   5-0.62385 0.93161-0.75466 0.29412-0.79894 0.60010
  -4   5   0 2901.20 171.466   0 0.37548-0.70696 0.66454-0.24420-0.24293 0.35336
  -4   5   0 1991.37 162.842   4 0.46680-0.79828 0.74120-0.32087 0.90155-0.79112
   4  -5   0 1985.19 176.944   5-0.55652 0.88800-0.81652 0.39619-0.78565 0.67522
  -4   5  -1 6131.52 224.546   0 0.41739-0.77260 0.64269-0.26256-0.24424 0.26625
   4  -5   1 4214.12 196.145   5-0.47436 0.82957-0.87519 0.49507-0.76089 0.73888
  -4   5  -2 7205.82 257.405   0 0.44654-0.82548 0.62615-0.28623-0.24480 0.17839
   4  -5   2 4491.01 206.346   5-0.37909 0.75803-0.92518 0.58526-0.72300 0.78940
  -4   5  -3 372.970 117.322   0 0.46375-0.86641 0.61584-0.31613-0.24498 0.09015
   4  -5   3 304.931 90.8800   3 0.17615 0.22651-0.67716 0.37745-0.84081 0.99564
  -4   5  -4 1.02562 60.2559   0 0.46956-0.89595 0.61226-0.35276-0.24501 0.00177
   4  -5   4-3.93517 46.5442   5-0.16342 0.58981-0.98296 0.72346-0.60904 0.85228
  -4   5  -5 267.545 94.8936   0 0.46419-0.91430 0.61557-0.39628-0.24498-0.08668
   4  -5   5 44.9726 59.0194   5-0.05146 0.50157-0.98736 0.76808-0.53686 0.86852
  -4   5  -6 3018.07 215.971   1 0.28213-0.75596 0.92919-0.75012 0.15631-0.57639
  -4   5  -6 3173.32 214.151   0 0.44735-0.92118 0.62567-0.44660-0.24481-0.17527
  -4   5  -7 33.0427 83.5974   1 0.22486-0.72242 0.91598-0.77711 0.09476-0.60325
   4  -5   7 29.2320 72.0457   5 0.16359 0.33397-0.95061 0.81174-0.37523 0.88372
  -4   5  -8 232.505 128.063   1 0.16770-0.68898 0.89788-0.79922 0.03416-0.63107
   4  -5   8 422.075 174.972   5 0.26266 0.25862-0.91304 0.81438-0.29026 0.88717
   4  -5   9 74.8690 126.412   5 0.35486 0.19015-0.86513 0.80668-0.20461 0.88994
  -4   5  -9 361.165 179.006   1 0.11058-0.65559 0.87516-0.81671-0.02561-0.65971
  -4   4   7 19.6429 75.5745   4 0.78519-0.96510 0.49682 0.10874 0.79331-0.10773
  -4   4   6 1600.00 190.424   4 0.77450-0.97813 0.50951 0.05584 0.80128-0.20411
  -4   4   5 721.666 195.658   4 0.75523-0.98259 0.53119-0.00605 0.81447-0.30572
  -4   4   4 328.722 135.321   4 0.72468-0.97576 0.56276-0.07783 0.83269-0.41236
   4  -4  -4 263.227 133.573   5-0.73803 0.98912-0.60705 0.12212-0.79975 0.37941
  -4   4   3 18.3499 41.9903   4 0.67906-0.95387 0.60456-0.15983 0.85474-0.52282
  -4   4   3 48.6185 49.9774   0 0.11593-0.39074 0.75630-0.31158-0.22311 0.55502
   4  -4  -3 72.3964 76.3636   5-0.70088 0.97569-0.66283 0.21810-0.80343 0.47151
  -4   4   2 1712.01 161.151   4 0.61359-0.91212 0.65554-0.25103 0.87771-0.63421
   4  -4  -2 1811.57 138.696   5-0.64901 0.94754-0.72755 0.32304-0.80187 0.55837
  -4   4   1 3578.23 182.256   4 0.52324-0.84550 0.71229-0.34798 0.89626-0.74118
   4  -4  -1 3406.12 177.261   5-0.58029 0.90254-0.79629 0.43199-0.79116 0.63608
  -4   4   0 13.1792 49.3787   0 0.32727-0.67326 0.68703-0.36294-0.24071 0.30737
   4  -4   0 62.7929 75.1836   5-0.49436 0.84034-0.86237 0.53828-0.76766 0.70100
  -4   4  -1 15274.3 303.462   0 0.36756-0.73727 0.66842-0.38454-0.24261 0.22086
   4  -4   1 9706.77 270.576   5-0.39339 0.76310-0.91876 0.63487-0.72924 0.75099
  -4   4  -2 1133.12 116.051   0 0.39400-0.78743 0.65515-0.41148-0.24358 0.13341
   4  -4   2 1020.65 117.736   3 0.17027 0.22316-0.57945 0.33578-0.88067 0.99084
  -4   4  -3 1289.98 124.108   0 0.40717-0.82433 0.64822-0.44475-0.24398 0.04539
   4  -4   3 794.825 131.741   5-0.16517 0.58233-0.98276 0.77929-0.61010 0.80869
  -4   4  -4 7484.73 247.030   1 0.30590-0.74678 0.93314-0.76988 0.18211-0.46912
  -4   4  -4 7264.00 229.580   0 0.40735-0.84823 0.64813-0.48487-0.24398-0.04302
  -4   4  -5 949.221 141.247   1 0.24973-0.71433 0.92234-0.79930 0.12138-0.49680
  -4   4  -5 1151.06 124.723   0 0.39435-0.85896 0.65497-0.53192-0.24359-0.13183
  -4   4  -6 1703.92 176.983   1 0.19426-0.68259 0.90688-0.82404 0.06222-0.52606
   4  -4   6 1183.23 158.468   5 0.17005 0.31828-0.94857 0.86573-0.36990 0.83374
  -4   4  -7 152.377 97.0016   1 0.13931-0.65137 0.88715-0.84452 0.00435-0.55661
  -4   4  -7 149.467 98.3862   2 0.39500-0.90706-0.00019 0.04282-0.71443 0.16217
   4  -4   7 305.951 135.605   4 0.63743-0.12537-0.62567 0.58304-0.34870 0.90096
   4  -4   7 233.977 147.809   5 0.26854 0.24352-0.91037 0.86774-0.28501 0.83726
  -4   4  -8 824.930 205.898   1 0.08466-0.62045 0.86337-0.86095-0.05248-0.58819
  -4   4  -8 631.961 186.153   2 0.40887-0.94465 0.00791-0.00548-0.70321 0.06253
  -4   4  -9 32.4543 102.339   1 0.03016-0.58967 0.83566-0.87344-0.10849-0.62060
  -4   4  -9-8.46583 63.6473   2 0.41082-0.97032 0.00905-0.04684-0.70161-0.02749
   4  -4   9-12.7054 60.3473   5 0.44181 0.11770-0.80696 0.84474-0.11723 0.84632
  -4   3   8 245.953 136.943   4 0.79676-0.96744 0.48248 0.06705 0.78412-0.05388
  -4   3   7 2546.53 225.132   4 0.78990-0.98430 0.49106 0.01826 0.78965-0.14782
  -4   3   6 359.410 137.661   4 0.77515-0.99329 0.50875-0.03963 0.80080-0.24740
  -4   3   5 3319.87 204.129   4 0.75001-0.99186 0.53682-0.10791 0.81781-0.35282
  -4   3   4 925.856 149.995   4 0.71071-0.97629 0.57618-0.18749 0.84005-0.46348
  -4   3   4 1246.23 124.015   0-0.05410-0.21148 0.78080-0.39211-0.20058 0.57715
   4  -3  -4 968.693 139.417   5-0.71988 0.98546-0.63546 0.24677-0.80214 0.42557
  -4   3   3 371.710 92.3231   4 0.65221-0.94151 0.62663-0.27814 0.86528-0.57713
  -4   3   3 686.071 113.949   0 0.04539-0.33470 0.76972-0.42123-0.21463 0.50278
   4  -3  -3 393.072 78.4310   5-0.66784 0.95715-0.70555 0.35706-0.80320 0.51504
  -4   3   2 3618.92 179.244   4 0.56857-0.88160 0.68557-0.37730 0.88864-0.68891
   4  -3  -2 3308.78 155.055   5-0.59613 0.90916-0.78188 0.47360-0.79436 0.59462
   4  -3  -1 111.149 83.6199   5-0.50402 0.84078-0.85586 0.58780-0.77077 0.65946
  -4   3   1 115.434 82.9105   4 0.45480-0.79156 0.74677-0.47871 0.90212-0.79080
  -4   3   1 231.586 101.514   0 0.19810-0.53485 0.73472-0.46665-0.23138 0.34270
  -4   3   0 2436.60 131.733   0 0.25099-0.61147 0.71731-0.48945-0.23577 0.25867
   4  -3   0 1515.41 125.927   5-0.39457 0.75505-0.91821 0.69036-0.72974 0.70684
  -4   3  -1 8476.21 168.787   2-0.29129-0.09291-0.33859 0.52623-0.99155 0.92603
  -4   3  -1 9860.15 239.677   0 0.28844-0.67265 0.70323-0.51558-0.23840 0.17288
  -4   3  -2 350.171 71.6167   2-0.03704-0.37089-0.22647 0.37391-0.94842 0.79448
  -4   3  -2 327.012 88.5186   0 0.31071-0.71864 0.69414-0.54670-0.23978 0.08584
  -4   3  -2 423.054 87.1392   1 0.29927-0.70720 0.93213-0.78469 0.17490-0.32884
   4  -3   2 250.759 77.1407   5-0.15012 0.55805-0.98434 0.83690-0.60090 0.75484
  -4   3  -3 29.1799 38.8076   0 0.31791-0.74957 0.69109-0.58386-0.24019-0.00216
  -4   3  -3 10.6321 37.7059   2 0.14312-0.57477-0.13774 0.24497-0.87612 0.63377
  -4   3  -3 28.7386 42.9977   1 0.24715-0.67880 0.92173-0.81450 0.11861-0.36096
   4  -3   3 29.8647 51.8119   5-0.02888 0.46054-0.98629 0.87906-0.52131 0.76366
   4  -3   4 10.2857 36.1318   5 0.08552 0.36986-0.97085 0.90383-0.43741 0.76818
  -4   3  -4 22.3963 37.5998   0 0.30981-0.76519 0.69452-0.62750-0.23973-0.09105
  -4   3  -4 24.8919 47.3344   1 0.19601-0.65139 0.90744-0.84042 0.06407-0.39484
  -4   3  -4 23.5334 65.6985   2 0.25898-0.71436-0.07656 0.14358-0.81113 0.48036
  -4   3  -5 105.476 62.5963   1 0.14545-0.62455 0.88956-0.86275 0.01078-0.42997
  -4   3  -5 97.9714 94.3791   2 0.33031-0.80941-0.03716 0.06397-0.76335 0.34416
   4  -3   5 49.7660 74.3348   5 0.19114 0.28797-0.94153 0.91471-0.35229 0.77148
  -4   3  -6 600.242 149.463   1 0.09521-0.59804 0.86827-0.88167-0.04157-0.46603
  -4   3  -6 394.354 123.022   2 0.37220-0.87503-0.01335-0.00004-0.73231 0.22470
   4  -3   6 594.380 158.654   4 0.61335-0.11052-0.64377 0.65717-0.37581 0.88341
   4  -3   6 579.230 155.349   5 0.28746 0.21537-0.90144 0.91484-0.26788 0.77549
  -4   3  -7 1854.91 174.782   2 0.39430-0.92086-0.00059-0.05302-0.71499 0.11897
   4  -3   7 1472.18 178.700   4 0.70379-0.17724-0.56898 0.62259-0.26743 0.86346
   4  -3   7 1212.91 182.328   5 0.37480 0.15176-0.85297 0.90658-0.18518 0.78120
  -4   3  -7 2136.81 217.268   1 0.04507-0.57163 0.84363-0.89724-0.09324-0.50279
  -4   3  -8 60.9924 79.1146   1-0.00511-0.54517 0.81562-0.90943-0.14439-0.54006
   4  -3   8 13.3322 67.5877   4 0.77654-0.22626-0.49212 0.58594-0.16415 0.84859
  -4   3  -8 16.7414 80.9887   2 0.40251-0.95279 0.00419-0.09801-0.70838 0.02394
   4  -3   8 18.9296 75.2588   5 0.45380 0.09648-0.79782 0.89164-0.10461 0.78905
  -4   3  -9 102.751 89.5219   2 0.40048-0.97448 0.00300-0.13703-0.71003-0.06283
  -4   3  -9 132.790 139.321   1-0.05547-0.51853 0.78415-0.91818-0.19515-0.57771
  -4   2   9 40.2325 90.7611   4 0.80174-0.96319 0.47610 0.01740 0.77996-0.00507
  -4   2   9-8.58169 73.3847   3-0.02164-0.13981-0.44309 0.93659 0.58429 0.19060
  -4   2   8 2113.79 232.058   4 0.79824-0.98342 0.48060-0.02731 0.78290-0.09642
  -4   2   8 2147.39 240.392   3-0.01851-0.16667-0.45798 0.91127 0.57184 0.11464
  -4   2   7 8.60130 58.5082   4 0.78734-0.99625 0.49420-0.08111 0.79165-0.19359
  -4   2   7 12.9082 64.9491   3-0.01687-0.19204-0.46571 0.87879 0.56525 0.03280
  -4   2   6 3091.03 200.643   4 0.76672-0.99935 0.51844-0.14557 0.80678-0.29714
  -4   2   6 3169.09 200.501   3-0.01716-0.21547-0.46434 0.83721 0.56643-0.05679
  -4   2   5 1558.54 159.763   4 0.73273-0.98908 0.55475-0.22208 0.82819-0.40696
  -4   2   5 1585.89 147.780   3-0.02006-0.23629-0.45064 0.78330 0.57802-0.15680
  -4   2   5 1894.04 136.287   0-0.24973-0.00662 0.77542-0.44275-0.16565 0.58687
  -4   2   4 111.320 46.1339   4 0.68013-0.96021 0.60364-0.31119 0.85429-0.52148
  -4   2   4 174.626 72.5030   3-0.02660-0.25347-0.41918 0.71164 0.60368-0.27087
  -4   2   4 141.535 69.9264   2-0.94222 0.66214-0.47229 0.76475-0.41327 0.74607
   4  -2  -4 106.963 46.6178   5-0.67819 0.95827-0.69277 0.40031-0.80357 0.47077
  -4   2   3 7547.45 215.817   4 0.60224-0.90604 0.66347-0.41122 0.88081-0.63642
  -4   2   3 10772.6 238.846   0-0.05216-0.25164 0.78068-0.52843-0.20087 0.44526
  -4   2   3 9358.19 208.796   2-0.90785 0.60404-0.49517 0.74741-0.57827 0.82266
   4  -2  -3 7202.82 199.357   5-0.60047 0.90427-0.77779 0.52554-0.79516 0.55078
  -4   2   2 3991.19 142.126   2-0.81642 0.48890-0.49782 0.70986-0.75576 0.91172
  -4   2   2 4600.88 165.292   0 0.02676-0.35429 0.77249-0.56045-0.21219 0.36816
   4  -2  -2 3045.30 135.971   5-0.49789 0.82542-0.86002 0.64798-0.76881 0.61284
  -4   2   2 3367.29 169.636   4 0.49255-0.82007 0.72857-0.51654 0.89968-0.74371
  -4   2   1 21313.9 319.879   0 0.09073-0.44198 0.76163-0.58980-0.22022 0.28777
  -4   2   1 18199.4 235.534   2-0.64312 0.29187-0.46211 0.63394-0.90920 0.97675
  -4   2   0 60.3187 30.7573   1 0.21645-0.59143 0.91362-0.78200 0.08580-0.10666
  -4   2   0 78.5402 58.9836   2-0.40067 0.02569-0.38162 0.51324-0.98675 0.96589
   4  -2   0 126.963 65.1559   5-0.24312 0.61810-0.96959 0.83797-0.65521 0.67608
  -4   2   0 73.5907 62.3403   0 0.13894-0.51391 0.75091-0.61929-0.22560 0.20473
  -4   2  -1 25049.8 297.612   1 0.18601-0.58471 0.90419-0.81278 0.05348-0.16277
  -4   2  -1 25964.1 342.532   0 0.17082-0.56952 0.74261-0.65120-0.22883 0.11955
  -4   2  -2 8498.08 200.614   2 0.04694-0.46937-0.18606 0.23726-0.91897 0.72127
  -4   2  -2 9336.29 231.088   1 0.15092-0.57335 0.89167-0.84047 0.01652-0.21423
  -4   2  -2 9990.95 228.846   0 0.18590-0.60833 0.73834-0.68714-0.23027 0.03257
  -4   2  -3 126.169 84.9368   1 0.11301-0.55916 0.87621-0.86522-0.02309-0.26303
  -4   2  -3 167.711 89.7617   2 0.18597-0.63212-0.11550 0.12649-0.85383 0.56771
  -4   2  -3 198.241 75.4804   0 0.18353-0.62969 0.73902-0.72803-0.23005-0.05607
  -4   2  -4 512.734 114.268   1 0.07315-0.54303 0.85785-0.88706-0.06437-0.31016
  -4   2  -4 424.703 113.638   2 0.27650-0.74637-0.06701 0.03779-0.79996 0.42543
   4  -2   4 326.502 105.613   5 0.22974 0.24013-0.92705 0.95627-0.31927 0.69381
  -4   2  -4 616.434 104.590   0 0.16259-0.63247 0.74485-0.77406-0.22802-0.14651
  -4   2  -5 522.822 121.512   1 0.03185-0.52545 0.83657-0.90600-0.10677-0.35619
  -4   2  -5 403.010 135.546   2 0.33280-0.82640-0.03576-0.03367-0.76156 0.29861
   4  -2   5 470.423 148.249   4 0.59973-0.10612-0.65351 0.72293-0.39065 0.85361
   4  -2   5 401.077 133.168   5 0.32126 0.17234-0.88413 0.95355-0.23661 0.69956
  -4   2  -6 597.095 165.517   1-0.01061-0.50672 0.81234-0.92198-0.14996-0.40141
  -4   2  -6 550.216 120.259   2 0.36557-0.88290-0.01716-0.09248-0.73737 0.18600
   4  -2   6 421.189 137.873   4 0.69088-0.17355-0.58088 0.69051-0.28408 0.83545
   4  -2   6 370.451 114.234   5 0.40311 0.11422-0.83454 0.94417-0.15698 0.70835
  -4   2  -7 650.711 127.716   2 0.38185-0.92290-0.00780-0.14204-0.72483 0.08504
   4  -2   7 520.966 130.683   4 0.76411-0.22305-0.50661 0.65646-0.18311 0.82290
   4  -2   7 597.079 176.577   5 0.47649 0.06456-0.77973 0.92958-0.08033 0.72012
  -4   2  -7 725.399 171.473   1-0.05406-0.48699 0.78508-0.93492-0.19374-0.44605
   4  -2   8 638.100 163.711   4 0.82256-0.25778-0.43211 0.62217-0.08783 0.81604
  -4   2  -8 628.032 176.317   2 0.38611-0.95088-0.00534-0.18471-0.72149-0.00672
   4  -2   8 723.466 189.300   5 0.54248 0.02230-0.72058 0.91063-0.00638 0.73458
  -4   2  -8 838.524 184.020   1-0.09840-0.46638 0.75467-0.94472-0.23797-0.49023
   4  -2   9 230.866 219.586   4 0.86877-0.28027-0.35794 0.58820 0.00223 0.81439
  -4   1   9 747.889 212.231   3-0.00088-0.17507-0.53856 0.93582 0.49893 0.23219
  -4   1   8 67.6274 87.8027   4 0.79164-0.99132 0.48890-0.13185 0.78826-0.14555
  -4   1   8 63.4717 108.614   3 0.00341-0.20309-0.55738 0.91443 0.48044 0.16226
  -4   1   7 4319.38 207.997   4 0.77469-0.99809 0.50929-0.19244 0.80114-0.24685
  -4   1   7 4725.66 244.827   3 0.00638-0.22978-0.57019 0.88703 0.46751 0.08678
  -4   1   6 590.975 138.054   4 0.74489-0.99202 0.54223-0.26559 0.82098-0.35511
  -4   1   6 578.343 141.529   3 0.00758-0.25470-0.57531 0.85195 0.46225 0.00362
  -4   1   5 2059.63 138.690   4 0.69687-0.96772 0.58893-0.35250 0.84680-0.46934
  -4   1   5 2435.72 149.238   3 0.00628-0.27713-0.56974 0.80616 0.46797-0.09051
  -4   1   5 3072.18 159.674   0-0.34742 0.07657 0.75819-0.52176-0.14431 0.52177
  -4   1   5 2466.63 141.930   2-0.94162 0.67077-0.47337 0.70979-0.41919 0.79664
  -4   1   4 34.1838 43.2726   4 0.62327-0.91784 0.64859-0.45237 0.87487-0.58584
  -4   1   4 20.3359 31.3030   0-0.25647-0.03810 0.77456-0.57834-0.16427 0.45330
   4  -1  -3 59.9884 49.2056   5-0.46355 0.78185-0.88176 0.72576-0.75705 0.55643
  -4   1   3 134.748 71.1204   3-0.00987-0.30843-0.49815 0.65416 0.53670-0.33608
  -4   1   3 58.3408 66.9121   0-0.17557-0.14273 0.78183-0.62582-0.18006 0.38068
  -4   1   3 43.8576 39.4071   2-0.83825 0.51995-0.49963 0.65564-0.72437 0.92500
  -4   1   3 110.416 71.0053   4 0.51611-0.83441 0.71619-0.56019 0.89717-0.69655
  -4   1   2 2480.97 124.321   0-0.10693-0.23509 0.78296-0.66716-0.19211 0.30432
  -4   1   2 2016.99 102.228   2-0.70369 0.36166-0.47765 0.59345-0.86933 0.98153
   4  -1  -2 1670.97 102.297   5-0.32100 0.66303-0.94770 0.83190-0.69584 0.58364
  -4   1   1 1572.60 107.397   0-0.05245-0.31330 0.78069-0.70510-0.20083 0.22462
  -4   1   1 1403.20 94.7839   2-0.50588 0.14012-0.41946 0.49505-0.96618 0.98996
  -4   1   1 1454.37 75.9749   1-0.04734-0.31841 0.78946-0.71387-0.18699 0.21078
  -4   1   0 150.935 50.8195   1-0.00458-0.38490 0.81593-0.78055-0.14385 0.07921
  -4   1   0 117.145 60.5466   2-0.27835-0.11113-0.33327 0.36865-0.99112 0.92648
  -4   1   0 142.368 68.0588   0-0.01375-0.37573 0.77741-0.74203-0.20657 0.14194
   4  -1   0 151.246 72.5719   5-0.03611 0.42559-0.98671 0.95132-0.52632 0.59096
  -4   1  -1 19035.3 269.384   0 0.00773-0.42093 0.77499-0.77982-0.20960 0.05655
  -4   1  -1 18786.1 273.931   1 0.00250-0.41570 0.82008-0.82491-0.13667-0.01638
  -4   1  -1 17409.4 278.613   2-0.07077-0.34243-0.24224 0.23742-0.95817 0.80512
  -4   1  -2 7867.81 210.786   1-0.00767-0.42926 0.81410-0.85914-0.14698-0.09449
  -4   1  -2 7405.48 211.960   2 0.08927-0.52619-0.16506 0.12002-0.90132 0.65985
  -4   1  -2 8317.60 199.804   0 0.01051-0.44744 0.77464-0.81968-0.20998-0.03148
  -4   1  -3 3557.74 174.751   1-0.02766-0.43299 0.80195-0.88719-0.16718-0.16270
  -4   1  -3 3352.23 182.731   2 0.20106-0.66171-0.10756 0.02231-0.84550 0.51562
  -4   1  -3 3652.04 145.783   0-0.00719-0.45347 0.77672-0.86196-0.20751-0.12237
  -4   1  -4 8407.63 267.000   2 0.27478-0.75916-0.06794-0.05751-0.80107 0.38277
   4  -1   4 7394.51 254.145   4 0.59801-0.11363-0.65471 0.78016-0.39250 0.81080
   4  -1   4 5870.35 238.297   5 0.37157 0.11281-0.85499 0.98045-0.18835 0.60665
  -4   1  -4 9167.58 272.582   1-0.05386-0.43051 0.78521-0.91067-0.19354-0.22477
  -4   1  -5 5017.33 244.769   2 0.32094-0.82904-0.04241-0.12325-0.76998 0.26326
   4  -1   5 4307.38 245.836   4 0.68776-0.17965-0.58369 0.74936-0.28805 0.79477
   4  -1   5 3582.46 206.546   5 0.44477 0.06334-0.80473 0.97039-0.11413 0.62085
  -4   1  -5 5385.54 231.179   1-0.08432-0.42378 0.76461-0.93027-0.22398-0.28274
  -4   1  -6 6415.51 276.574   2 0.34743-0.87925-0.02749-0.17838-0.75094 0.15580
   4  -1   6 5453.60 265.220   4 0.75959-0.22776-0.51173 0.71760-0.18986 0.78500
   4  -1   6 4996.68 279.382   5 0.51013 0.02170-0.75086 0.95674-0.04328 0.63842
  -4   1  -6 6797.35 268.667   1-0.11790-0.41393 0.74046-0.94633-0.25728-0.33786
  -4   1  -7 30.3712 103.890   2 0.35962-0.91517-0.02056-0.22552-0.74187 0.05832
   4  -1   7 112.127 128.965   4 0.81697-0.26142-0.44002 0.68611-0.09770 0.78126
   4  -1   7 22.5733 81.5870   5 0.56887-0.01332-0.69386 0.93994 0.02475 0.65880
  -4   1  -7 73.2001 93.1102   1-0.15387-0.40168 0.71287-0.95895-0.29268-0.39088
   4  -1   8 12.8844 79.9915   4 0.86257-0.28330-0.36898 0.65527-0.01090 0.78288
  -4   1  -8 11.6516 60.7100   2 0.36103-0.94031-0.01975-0.26654-0.74081-0.03117
  -4   1  -8 214.808 160.540   1-0.19177-0.38750 0.68183-0.96812-0.32964-0.44234
   4  -1   8 14.3476 79.9019   5 0.62189-0.04262-0.63388 0.92017 0.09051 0.68146
  -4   0  10 1455.25 234.584   3 0.01426-0.18098-0.60349 0.94473 0.43249 0.34329
  -4   0   9 835.625 181.976   3 0.02082-0.21127-0.63041 0.93143 0.40259 0.28477
  -4   0   8 198.844 108.429   3 0.02657-0.24074-0.65340 0.91421 0.37580 0.22314
  -4   0   7 1872.44 146.093   4 0.74638-0.98428 0.54066-0.32005 0.82007-0.30954
  -4   0   7 1807.39 157.862   3 0.03131-0.26921-0.67190 0.89251 0.35334 0.15719
  -4   0   6 44.9816 48.1470   4 0.70130-0.96292 0.58491-0.40451 0.84469-0.42259
  -4   0   6 47.0465 46.7191   3 0.03469-0.29632-0.68487 0.86526 0.33708 0.08503
  -4   0   6 98.9868 70.8436   2-0.94279 0.68116-0.47118 0.65158-0.40726 0.82937
  -4   0   5 699.437 92.2952   4 0.62991-0.91526 0.64370-0.50352 0.87282-0.53913
  -4   0   5 1077.13 109.680   0-0.45396 0.16861 0.72659-0.58641-0.11761 0.45130
  -4   0   5 831.920 92.9874   3 0.03611-0.32146-0.69023 0.83042 0.33022 0.00347
  -4   0   5 1013.89 128.874   2-0.91872 0.63337-0.49154 0.63173-0.54230 0.87599
  -4   0   4 1814.76 129.321   4 0.52281-0.83188 0.71253-0.61255 0.89632-0.65105
  -4   0   4 1778.42 132.694   3 0.03441-0.34348-0.68378 0.78376 0.33846-0.09318
  -4   0   4 1925.72 133.747   2-0.86166 0.55259-0.50032 0.60030-0.68507 0.93034
  -4   0   3 237.680 58.3172   3 0.02713-0.35993-0.65561 0.71538 0.37317-0.21631
  -4   0   3 311.126 87.8025   0-0.31718-0.01562 0.76464-0.70487-0.15122 0.30807
  -4   0   3 307.666 86.0162   2-0.75802 0.42522-0.48915 0.54892-0.82260 0.97946
   4   0  -3 231.687 64.6354   5-0.19397 0.52677-0.97887 0.91910-0.62727 0.47041
  -4   0   2 50.3620 41.5536   3 0.00810-0.36462-0.57755 0.59711 0.45995-0.39151
  -4   0   2 4.86312 30.0788   0-0.26442-0.09210 0.77348-0.75392-0.16262 0.23106
  -4   0   2 36.9059 32.3362   1-0.43878 0.08226 0.42309-0.40352-0.56093 0.62937
   4   0  -2 0.88972 20.5046   5-0.03761 0.39413-0.98678 0.96722-0.52736 0.45892
  -4   0   2 72.1288 77.1517   2-0.60082 0.24429-0.44993 0.46949-0.93110 0.99954
  -4   0   1 1623.37 103.687   0-0.22527-0.15498 0.77814-0.79879-0.17057 0.15059
  -4   0   1 1726.58 82.6616   1-0.27825-0.10200 0.60309-0.62374-0.41262 0.39264
  -4   0   0 7944.85 200.269   2-0.20199-0.20198-0.30103 0.24017-0.98457 0.87617
  -4   0   0 8984.28 198.104   0-0.20199-0.20199 0.78017-0.84103-0.17510 0.06670
  -4   0   0 9025.57 182.234   1-0.20199-0.20199 0.67312-0.73397-0.33954 0.23114
  -4   0  -1 1903.98 117.910   1-0.16825-0.25945 0.70133-0.80240-0.30674 0.10993
  -4   0  -1 1621.62 124.577   2-0.02840-0.39930-0.22239 0.12132-0.94573 0.74892
  -4   0  -1 1777.90 125.839   0-0.19685-0.23085 0.78055-0.88162-0.17608-0.02074
  -4   0  -2 7252.86 220.554   1-0.15818-0.29324 0.70944-0.85072-0.29690 0.01166
  -4   0  -2 7513.47 185.359   0-0.21237-0.23906 0.77934-0.92061-0.17310-0.11214
  -4   0  -3 308.866 110.047   2 0.19656-0.67171-0.10993-0.07155-0.84801 0.47436
   4   0   3 295.533 106.147   4 0.60966-0.13451-0.64644 0.82793-0.37986 0.75351
  -4   0  -3 336.539 105.795   1-0.16252-0.31263 0.70597-0.88745-0.30114-0.07251
   4   0   3 139.954 101.998   5 0.43908 0.03607-0.80899 0.99047-0.12007 0.49372
  -4   0  -4 2837.53 214.143   2 0.25861-0.75749-0.07675-0.14494-0.81135 0.34929
   4   0   4 2294.12 184.010   4 0.69538-0.19650-0.57679 0.79848-0.27833 0.74040
   4   0   4 1896.72 180.120   5 0.49974-0.00086-0.76005 0.98175-0.05487 0.51694
  -4   0  -4 3030.10 204.104   1-0.17629-0.32258 0.69475-0.91645-0.31458-0.14749
  -4   0  -5 2227.85 232.988   2 0.29764-0.82024-0.05537-0.20653-0.78600 0.23551
   4   0   5 1936.80 182.821   4 0.76365-0.24105-0.50714 0.76904-0.18380 0.73428
   4   0   5 1655.18 168.582   5 0.55432-0.03173-0.70882 0.97072 0.00748 0.54301
  -4   0  -5 2512.47 185.169   1-0.19663-0.32597 0.67771-0.93961-0.33434-0.21614
  -4   0  -6 576.850 166.730   2 0.31966-0.86598-0.04313-0.25898-0.77088 0.13198
   4   0   6 577.887 173.951   4 0.81818-0.27186-0.43832 0.74043-0.09557 0.73448
   4   0   6 376.960 127.541   5 0.60386-0.05753-0.65530 0.95742 0.06763 0.57128
  -4   0  -6 717.812 186.476   1-0.22174-0.32458 0.65582-0.95794-0.35861-0.28029
  -4   0  -7 842.576 200.177   2 0.32888-0.89893-0.03796-0.30436-0.76436 0.03704
   4   0   7 678.899 179.095   4 0.86170-0.29165-0.37051 0.71283-0.01273 0.74005
  -4   0  -7 812.572 188.603   1-0.25050-0.31955 0.62961-0.97193-0.38620-0.34112
   4   0   7 622.945 168.668   5 0.64902-0.07897-0.59941 0.94173 0.12608 0.60125
   4   0   8 66.6744 122.847   4 0.89612-0.30235-0.30356 0.68609 0.06564 0.75010
  -4   0  -8 36.1022 94.1593   1-0.28213-0.31164 0.59928-0.98181-0.41630-0.39944
  -4  -1  10 128.703 90.0385   3 0.03504-0.21627-0.68619 0.93119 0.33539 0.39662
  -4  -1   9 5185.09 264.362   3 0.04293-0.24788-0.71557 0.92035 0.29669 0.34690
  -4  -1   8 105.746 92.7235   3 0.05033-0.27900-0.74204 0.90662 0.25948 0.29570
  -4  -1   7 319.229 121.695   3 0.05714-0.30954-0.76549 0.88986 0.22435 0.24241
  -4  -1   6 1897.49 155.019   3 0.06322-0.33934-0.78563 0.86979 0.19229 0.18605
  -4  -1   6 1831.01 167.380   2-0.92725 0.65113-0.48731 0.57147-0.50782 0.88617
  -4  -1   5 335.132 94.0880   2-0.88419 0.58434-0.49925 0.54320-0.63947 0.92939
  -4  -1   5 376.926 92.3639   3 0.06829-0.36814-0.80185 0.84580 0.16502 0.12490
  -4  -1   5 413.376 81.7676   4 0.50788-0.80773 0.72061-0.67666 0.89814-0.60821
  -4  -1   4 2209.04 124.848   3 0.07179-0.39536-0.81272 0.81647 0.14589 0.05562
  -4  -1   4 2567.51 145.305   2-0.80542 0.48184-0.49657 0.50031-0.77005 0.97156
  -4  -1   3 38764.9 412.224   0-0.46302 0.11572 0.72322-0.75968-0.11515 0.22824
  -4  -1   3 31751.6 289.628   3 0.07243-0.41973-0.81469 0.77822 0.14235-0.02926
   4   1  -3 24803.1 225.169   5 0.22325 0.12405-0.92963 0.96610-0.32490 0.21181
  -4  -1   3 33097.3 389.582   2-0.68307 0.33577-0.47264 0.43617-0.88416 0.99725
  -4  -1   2 21461.1 314.647   0-0.42949 0.05847 0.73515-0.81182-0.12409 0.14876
  -4  -1   2 16873.0 173.205   3 0.06635-0.43737-0.79570 0.71903 0.17552-0.15085
  -4  -1   2 20265.8 226.583   1-0.55091 0.17988 0.26259-0.33926-0.65863 0.68330
   4   1  -2 13624.6 197.724   5 0.30151 0.06952-0.89446 0.97114-0.25500 0.23032
  -4  -1   2 18019.5 289.514   2-0.52009 0.14906-0.42426 0.34758-0.96202 0.98669
  -4  -1   1 15372.2 267.694   0-0.40928 0.01454 0.74161-0.85849-0.12928 0.06553
  -4  -1   1 14798.3 224.715   1-0.42893 0.03419 0.43561-0.55250-0.55208 0.48834
  -4  -1   0 3765.60 158.158   2-0.16056-0.25792-0.28291 0.12582-0.97825 0.82608
  -4  -1   0 4595.56 165.110   0-0.40493-0.01354 0.74293-0.90002-0.13038-0.02179
  -4  -1   0 4218.66 154.962   1-0.35307-0.06540 0.52522-0.68232-0.48276 0.33060
   4   1   0 2927.71 132.290   5 0.42339-0.00492-0.82043 0.97753-0.13632 0.28849
  -4  -1  -1 1179.24 132.288   2-0.01367-0.42853-0.21539 0.01809-0.94097 0.70038
  -4  -1  -1 1400.84 104.831   0-0.41912-0.02308 0.73853-0.93583-0.12677-0.11381
  -4  -1  -1 1236.52 109.486   1-0.31010-0.13210 0.57112-0.76842-0.44267 0.20209
  -4  -1  -2 3217.67 179.281   2 0.09789-0.56382-0.16073-0.07678-0.89749 0.56849
   4   1   2 2958.47 173.700   4 0.63596-0.17004-0.62681 0.86432-0.35038 0.67938
  -4  -1  -2 3415.32 192.542   1-0.28920-0.17672 0.59228-0.82979-0.42299 0.09399
  -4  -1  -3 42.2622 74.3009   2 0.17733-0.66698-0.12002-0.15770-0.85849 0.44107
   4   1   3 4.36467 45.6122   4 0.71444-0.22479-0.55882 0.83654-0.25337 0.67079
   4   1   3 12.4882 52.1627   5 0.56647-0.07682-0.69637 0.97410 0.02188 0.39554
  -4  -1  -3 31.6379 52.3637   1-0.28334-0.20631 0.59809-0.87582-0.41743 0.00002
  -4  -1  -4 397.936 131.811   2 0.23096-0.74433-0.09166-0.22627-0.82824 0.32240
   4   1   4 417.220 129.729   4 0.77669-0.26332-0.49194 0.80988-0.16392 0.66975
  -4  -1  -4 338.002 100.502   1-0.28802-0.22535 0.59345-0.91138-0.42187-0.08396
  -4  -1  -5 276.232 116.160   2 0.26477-0.80187-0.07341-0.28473-0.80748 0.21322
   4   1   5 294.919 164.623   4 0.82645-0.28936-0.42649 0.78463-0.08085 0.67510
  -4  -1  -5 172.070 100.606   1-0.30037-0.23673 0.58106-0.93920-0.43352-0.16073
   4   1   5 122.997 71.5167   5 0.64620-0.10910-0.60313 0.96127 0.12231 0.47194
  -4  -1  -6 63.4683 101.856   2 0.28348-0.84431-0.06317-0.33517-0.79541 0.11274
   4   1   6 54.6387 75.9867   4 0.86634-0.30552-0.36232 0.76067-0.00298 0.68564
  -4  -1  -6 21.2967 66.2649   1-0.31846-0.24236 0.56244-0.96079-0.45052-0.23215
   4   1   6 24.7103 84.5025   5 0.68224-0.12142-0.55296 0.95131 0.17178 0.51088
   4   1   7 81.2822 110.649   4 0.89813-0.31358-0.29913 0.73769 0.07071 0.70037
  -4  -1  -7 107.559 120.871   2 0.29048-0.87503-0.05932-0.37924-0.79079 0.01970
  -4  -2  11 706.678 186.263   3 0.04615-0.21815-0.72722 0.91619 0.28061 0.49606
  -4  -2  10 394.126 170.531   3 0.05556-0.25128-0.76014 0.90890 0.23256 0.45569
  -4  -2   9 58.5983 83.6528   3 0.06475-0.28419-0.79057 0.89912 0.18413 0.41570
  -4  -2   8 52.1966 77.8988   3 0.07373-0.31690-0.81863 0.88697 0.13519 0.37622
  -4  -2   7 1168.90 130.430   3 0.08256-0.34945-0.84442 0.87255 0.08551 0.33749
  -4  -2   7 1183.05 156.994   2-0.93533 0.66844-0.48124 0.50937-0.46593 0.88892
  -4  -2   6 4.25428 30.6873   3 0.09128-0.38190-0.86804 0.85597 0.03470 0.29988
  -4  -2   6 88.0209 91.7899   2-0.90436 0.61374-0.49604 0.48396-0.58851 0.92308
  -4  -2   5 88.4387 69.6611   3 0.09999-0.41433-0.88958 0.83729-0.01785 0.26401
  -4  -2   5 45.5292 45.9988   2-0.84577 0.53143-0.50002 0.44773-0.71247 0.95863
  -4  -2   4 182.420 81.5997   3 0.10883-0.44690-0.90913 0.81664-0.07334 0.23109
  -4  -2   4 80.7890 74.6292   2-0.75244 0.41437-0.48810 0.39561-0.82799 0.98573
  -4  -2   3 1131.68 90.3453   3 0.11813-0.47993-0.92679 0.79409-0.13429 0.20362
  -4  -2   3 1062.31 117.612   2-0.62231 0.26052-0.45624 0.32353-0.92052 0.98984
  -4  -2   2 74005.4 467.839   1-0.61382 0.22831 0.15354-0.32645-0.71024 0.69115
  -4  -2   2 69726.5 538.994   2-0.46424 0.07872-0.40494 0.23203-0.97639 0.95729
  -4  -2   1 26222.9 364.589   2-0.29805-0.11120-0.34134 0.12822-0.99169 0.88418
  -4  -2   1 28091.4 345.731   1-0.52651 0.11726 0.30068-0.51381-0.63791 0.53040
  -4  -2   0 2439.98 148.596   2-0.14528-0.28769-0.27613 0.02280-0.97544 0.77951
   4   2   0 2332.66 142.931   4 0.59107-0.15810-0.65951 0.91284-0.39991 0.59584
  -4  -2   0 2465.59 135.852   1-0.46317 0.03020 0.39109-0.64442-0.58268 0.38675
  -4  -2  -1 5467.73 214.441   2-0.01918-0.43752-0.21801-0.07553-0.94277 0.65843
   4   2   1 4531.31 193.264   4 0.67760-0.22090-0.59266 0.88620-0.30076 0.58511
  -4  -2  -1 5826.54 216.907   1-0.42179-0.03491 0.44457-0.73811-0.54564 0.26129
   4   2   1 3606.93 162.801   5 0.61635-0.15965-0.64059 0.93413 0.08341 0.20093
  -4  -2  -2 419.215 106.450   2 0.07709-0.55751-0.17115-0.16260-0.90659 0.53383
   4   2   2 359.001 118.784   4 0.74507-0.26465-0.52763 0.86138-0.21101 0.58378
   4   2   2 290.851 86.7519   5 0.64117-0.16075-0.60968 0.94343 0.11564 0.25713
  -4  -2  -3 235.571 97.6190   2 0.14643-0.65057-0.13604-0.23792-0.87447 0.41329
   4   2   3 203.992 117.955   4 0.79861-0.29446-0.46471 0.83867-0.12887 0.59006
  -4  -2  -3 300.361 130.798   1-0.38696-0.11719 0.48663-0.86059-0.51397 0.05279
   4   2   3 113.814 69.6809   5 0.66726-0.16311-0.57454 0.94850 0.15085 0.31033
  -4  -2  -4 19.2982 51.6818   2 0.19371-0.72158-0.11143-0.30273-0.84959 0.29999
   4   2   4 50.0799 73.6564   4 0.84162-0.31375-0.40360 0.81777-0.05270 0.60229
   4   2   4 25.8985 77.3884   5 0.69369-0.16582-0.53572 0.94989 0.18816 0.36143
  -4  -2  -4 31.6284 66.6908   1-0.38616-0.14171 0.48757-0.90174-0.51324-0.03636
  -4  -2  -5 1255.90 217.791   2 0.22356-0.77516-0.09561-0.35876-0.83260 0.19458
   4   2   5 940.173 170.374   4 0.87636-0.32476-0.34386 0.79824 0.01885 0.61917
   4   2   5 1062.27 205.938   5 0.71984-0.16825-0.49351 0.94789 0.22702 0.41100
  -4  -2  -5 1281.39 217.300   1-0.39304-0.15855 0.47946-0.93384-0.51953-0.11848
  -4  -2  -6 55.0319 96.9226   2 0.23972-0.81504-0.08696-0.40763-0.82298 0.09655
   4   2   6 5.70960 75.5932   4 0.90429-0.32897-0.28502 0.77961 0.08680 0.63964
  -4  -2  -6 65.2402 112.177   1-0.40591-0.16941 0.46405-0.95864-0.53126-0.19518
  -4  -3  11 143.066 131.941   3 0.06485-0.25134-0.79091 0.88364 0.18357 0.54933
  -4  -3  10 3.41806 65.2380   3 0.07515-0.28537-0.82290 0.87542 0.12732 0.51716
  -4  -3   9 583.124 164.966   3 0.08537-0.31931-0.85225 0.86456 0.06931 0.48676
  -4  -3   8 1232.27 170.301   3 0.09559-0.35326-0.87897 0.85108 0.00892 0.45873
  -4  -3   8 1325.29 164.672   2-0.94176 0.68409-0.47313 0.44523-0.41788 0.88552
  -4  -3   7 635.873 144.577   3 0.10591-0.38730-0.90295 0.83484-0.05475 0.43398
  -4  -3   7 740.953 134.495   2-0.92125 0.63986-0.49044 0.42233-0.53276 0.91199
  -4  -3   6 2194.32 158.271   3 0.11645-0.42157-0.92384 0.81552-0.12305 0.41386
  -4  -3   6 2132.80 164.485   2-0.87920 0.57409-0.49967 0.39136-0.65039 0.94120
  -4  -3   5 520.023 88.3704   3 0.12739-0.45623-0.94091 0.79238-0.19813 0.40053
  -4  -3   5 666.618 109.965   2-0.80971 0.48087-0.49708 0.34855-0.76459 0.96698
  -4  -3   4 252.462 68.3008   1-0.77623 0.42366-0.31841 0.12968-0.81118 0.92516
  -4  -3   4 246.718 88.7443   3 0.13895-0.49152-0.95244 0.76370-0.28341 0.39738
  -4  -3   4 82.9335 51.5774   2-0.70894 0.35637-0.47888 0.29014-0.86532 0.97929
  -4  -3   3 22217.0 264.154   3 0.15135-0.52764-0.95432 0.72538-0.38431 0.40987
  -4  -3   3 23289.9 364.260   2-0.57917 0.20288-0.44334 0.21439-0.94070 0.96626
   4   3  -2 6210.42 177.802   4 0.57898-0.17896-0.66766 0.93681-0.41261 0.47547
  -4  -3   2 6402.08 237.147   2-0.43154 0.03152-0.39311 0.12396-0.98247 0.91961
  -4  -3   1 67.8717 67.8531   2-0.28322-0.14053-0.33528 0.02591-0.99130 0.84002
  -4  -3   1 48.1109 45.4248   1-0.59375 0.17001 0.19026-0.49962-0.69410 0.54282
   4   3  -1 87.3174 73.3019   5 0.71363-0.28989-0.50392 0.81328 0.21760-0.06632
  -4  -3   0 6.33085 46.7365   2-0.14985-0.29762-0.27817-0.07140-0.97631 0.73662
   4   3   0 12.4915 39.9096   4 0.73403-0.28656-0.53923 0.88880-0.22662 0.46632
  -4  -3   0 34.5176 47.9503   1-0.54408 0.09661 0.27345-0.62302-0.65287 0.41317
   4   3   0 31.5881 46.8681   5 0.71141-0.26394-0.50758 0.85715 0.21425 0.02544
  -4  -3  -1 85.1210 77.3341   2-0.04011-0.43108-0.22792-0.16186-0.94936 0.62125
   4   3   1 108.046 80.3044   4 0.78644-0.31525-0.48011 0.86989-0.14860 0.47671
  -4  -3  -1 101.843 88.0526   1-0.50857 0.03738 0.32746-0.71724-0.62246 0.29435
   4   3   1 176.332 91.9211   5 0.71746-0.24627-0.49753 0.88731 0.22339 0.10472
  -4  -3  -2 3.68827 39.8989   2 0.04432-0.53924-0.18734-0.24265-0.92000 0.50347
   4   3   2-1.58279 50.4162   4 0.82858-0.33366-0.42339 0.85337-0.07700 0.49353
  -4  -3  -2-4.41113 47.4196   1-0.48581-0.00911 0.36006-0.79005-0.60263 0.18610
   4   3   2 6.87224 52.9486   5 0.72870-0.23378-0.47822 0.90821 0.24068 0.17585
  -4  -3  -3 71.5554 70.5467   2 0.10583-0.62448-0.15673-0.31347-0.89390 0.38895
   4   3   3 126.298 127.964   4 0.86296-0.34432-0.36830 0.83850-0.01009 0.51504
  -4  -3  -3 173.668 90.5023   1-0.47371-0.04493 0.37681-0.84701-0.59199 0.08705
  -4  -3  -4 34.5933 97.3946   2 0.14812-0.69049-0.13516-0.37524-0.87362 0.28026
  -4  -3  -4 23.6966 62.3147   1-0.47030-0.07207 0.38147-0.89187-0.58898-0.00438
  -4  -3  -5 42.2916 63.8818   2 0.17481-0.74090-0.12134-0.42928-0.85983 0.17805
   4   3   5 15.6532 82.5312   4 0.91416-0.34807-0.26068 0.81130 0.11423 0.56755
  -4  -3  -5 10.1695 68.5873   1-0.47391-0.09218 0.37654-0.92715-0.59217-0.08961
  -4  -3  -6 725.419 189.712   2 0.18888-0.77870-0.11397-0.47685-0.85224 0.08205
  -4  -3  -6 523.498 152.499   1-0.48323-0.10658 0.36366-0.95449-0.60037-0.16982
  -4  -4  11 36.9016 110.790   3 0.08225-0.28324-0.84354 0.84003 0.08729 0.60185
  -4  -4  10 58.3171 73.8176   3 0.09312-0.31783-0.87276 0.82904 0.02377 0.57694
  -4  -4   9 1480.98 180.705   3 0.10395-0.35239-0.89865 0.81472-0.04244 0.55474
  -4  -4   8 118.861 105.236   3 0.11480-0.38697-0.92084 0.79670-0.11214 0.53602
  -4  -4   8 66.1976 86.0697   2-0.93421 0.66205-0.48226 0.35813-0.47256 0.89645
  -4  -4   7 280.546 107.359   3 0.12572-0.42161-0.93865 0.77430-0.18635 0.52181
  -4  -4   7 387.463 126.591   2-0.90587 0.60997-0.49568 0.33133-0.58416 0.91962
  -4  -4   6 19.9587 47.8007   3 0.13672-0.45634-0.95083 0.74628-0.26641 0.51346
  -4  -4   6 0.30243 45.9807   2-0.85591 0.53629-0.50030 0.29574-0.69537 0.94242
  -4  -4   5 468.056 75.4439   1-0.78680 0.44346-0.48135 0.23658-0.79536 0.95399
  -4  -4   5 548.348 121.510   2-0.78029 0.43694-0.49300 0.24824-0.79955 0.95818
  -4  -4   5 508.220 105.754   3 0.14778-0.49112-0.95518 0.71042-0.35395 0.51258
  -4  -4   4 2809.34 158.683   3 0.15864-0.52570-0.94778 0.66280-0.45057 0.52078
  -4  -4   4 2927.18 175.382   2-0.67797 0.31091-0.47136 0.18638-0.88762 0.95783
  -4  -4   3 401.977 123.572   1-0.73541 0.34462-0.13826-0.18692-0.79624 0.77803
  -4  -4   3 348.818 106.956   2-0.55377 0.16298-0.43532 0.11014-0.95070 0.93249
  -4  -4   2 8149.69 258.408   1-0.68831 0.27379-0.00538-0.36001-0.76628 0.65966
  -4  -4   2 7641.87 249.754   2-0.41880 0.00429-0.38841 0.02302-0.98440 0.87778
  -4  -4   1 1704.73 159.239   2-0.28704-0.15120-0.33685-0.06875-0.99143 0.79639
   4   4  -1 1411.85 135.599   4 0.80235-0.36411-0.45982 0.86542-0.12266 0.31770
  -4  -4   1 1722.06 166.334   1-0.64304 0.20480 0.09610-0.50170-0.73305 0.53801
  -4  -4   0 1794.26 170.368   2-0.16988-0.29208-0.28703-0.15878-0.97984 0.69638
   4   4   0 1598.54 161.006   4 0.83610-0.37414-0.41212 0.85793-0.06312 0.34658
  -4  -4   0 1853.75 165.714   1-0.60512 0.14315 0.16972-0.61553-0.70328 0.41982
  -4  -4  -1 248.551 136.592   2-0.07330-0.41239-0.24341-0.24260-0.95885 0.58698
   4   4   1 113.069 76.5994   4 0.86466-0.37897-0.36532 0.85133-0.00654 0.37841
  -4  -4  -2 1232.15 166.144   2 0.00168-0.51110-0.20804-0.31819-0.93576 0.47546
   4   4   2 1088.71 167.473   4 0.88896-0.37955-0.31883 0.84505 0.04805 0.41225
  -4  -4  -2 1389.97 180.008   1-0.55682 0.04740 0.25304-0.77927-0.66360 0.20330
  -4  -4  -3 2.35725 68.8598   2 0.05685-0.58999-0.18118-0.38526-0.91501 0.36629
   4   4   3-6.02201 39.1762   4 0.90958-0.37644-0.27227 0.83870 0.10122 0.44749
  -4  -4  -4 913.653 222.448   2 0.09502-0.65189-0.16217-0.44447-0.89878 0.26165
   4   4   4 862.508 196.814   4 0.92683-0.36996-0.22535 0.83200 0.15338 0.48375
  -4  -4  -4 1056.75 199.334   1-0.54139-0.01547 0.27768-0.88433-0.65059 0.01346
  -4  -4  -5 87.6974 88.8136   2 0.11903-0.69962-0.15005-0.49681-0.88778 0.16223
   4   4   5 432.400 180.455   4 0.94086-0.36027-0.17787 0.82472 0.20481 0.52074
  -4  -4  -5 414.748 169.637   1-0.54336-0.03723 0.27460-0.92145-0.65226-0.07329
  -4  -5  11 215.844 126.713   3 0.09787-0.31335-0.88453 0.78478-0.00486 0.65023
  -4  -5  10 78.6600 100.419   3 0.10892-0.34813-0.90931 0.76936-0.07390 0.63085
  -4  -5   9 30.4864 98.0523   3 0.11984-0.38278-0.92969 0.74952-0.14586 0.61439
  -4  -5   9 45.8006 71.4042   2-0.94271 0.67977-0.47134 0.29118-0.40811 0.87665
  -4  -5   8 73.1448 60.7720   3 0.13063-0.41729-0.94489 0.72452-0.22131 0.60143
  -4  -5   8 140.436 92.4957   2-0.92586 0.63920-0.48811 0.26774-0.51395 0.89407
  -4  -5   7 1047.90 174.999   3 0.14120-0.45159-0.95371 0.69313-0.30087 0.59257
  -4  -5   7 972.026 165.254   2-0.89199 0.58160-0.49833 0.23775-0.62120 0.91289
  -4  -5   6 530.935 118.694   3 0.15143-0.48554-0.95429 0.65350-0.38500 0.58828
  -4  -5   6 488.752 131.317   2-0.83746 0.50335-0.49959 0.19879-0.72559 0.92887
  -4  -5   5 175.775 73.0601   1-0.78699 0.42916-0.44876 0.10776-0.80109 0.91596
  -4  -5   5 204.351 96.8974   3 0.16101-0.51884-0.94386 0.60286-0.47371 0.58857
  -4  -5   5 228.530 102.048   2-0.75994 0.40210-0.48951 0.14851-0.82072 0.93558
  -4  -5   4 280.439 103.810   1-0.77441 0.39285-0.30655-0.07466-0.81117 0.83762
  -4  -5   4 270.366 89.2620   2-0.66039 0.27882-0.46679 0.08558-0.89894 0.92539
  -4  -5   3 13.9239 43.6715   1-0.74700 0.34171-0.17886-0.24256-0.80227 0.74030
  -4  -5   3 62.1209 75.7317   2-0.54465 0.13936-0.43237 0.01095-0.95398 0.89200
  -4  -5   2 711.539 112.155   1-0.71364 0.28463-0.07196-0.38966-0.78322 0.63283
  -4  -5   2 520.643 109.359   2-0.42278-0.00624-0.38988-0.07175-0.98383 0.83344
  -4  -5   1 74.6186 78.1841   2-0.30584-0.14690-0.34450-0.15733-0.99179 0.75298
  -4  -5   1 74.9921 82.0749   1-0.68082 0.22809 0.01272-0.51456-0.76101 0.52220
  -4  -5   0 1245.90 162.443   2-0.20232-0.27414-0.30117-0.24088-0.98461 0.65738
   4   5   0 1112.38 154.257   4 0.90331-0.42684-0.28733 0.82937 0.08418 0.24305
  -4  -5   0 1299.60 194.155   1-0.65235 0.17588 0.07664-0.61869-0.74012 0.41290
  -4  -5  -1 158.523 109.505   2-0.11660-0.38359-0.26324-0.31901-0.96950 0.55386
   4   5   1 90.2318 99.0414   4 0.91703-0.41684-0.25314 0.83539 0.12266 0.29299
  -4  -5  -1 28.1983 79.5928   1-0.62997 0.12978 0.12245-0.70470-0.72295 0.30731
  -4  -5  -2 416.794 150.830   2-0.04948-0.47443-0.23232-0.39014-0.95216 0.44810
   4   5   2 358.753 148.087   4 0.92967-0.40575-0.21660 0.83906 0.16296 0.34110
  -4  -5  -2 306.571 130.276   1-0.61415 0.09023 0.15293-0.77540-0.71049 0.20643
  -4  -5  -3-18.6995 62.7202   2 0.00032-0.54796-0.20870-0.45398-0.93623 0.34375
  -4  -5  -3 0.47555 52.5483   1-0.60465 0.05701 0.17058-0.83325-0.70290 0.11042
   4   5   4 121.701 163.751   4 0.95014-0.37877-0.13782 0.84070 0.24716 0.43373
  -4  -5  -4 85.1496 119.704   1-0.60091 0.02954 0.17740-0.88028-0.69989 0.01900
  -4  -6  11 4349.99 349.470   3 0.11139-0.34138-0.91430 0.71832-0.08981 0.69141
  -4  -6  10 532.263 189.878   3 0.12223-0.37594-0.93350 0.69731-0.16212 0.67531
  -4  -6   9 18.3319 84.9780   3 0.13276-0.41019-0.94721 0.67081-0.23684 0.66161
  -4  -6   9-6.45069 59.7052   2-0.93919 0.66175-0.47698 0.20058-0.43981 0.86458
  -4  -6   8 162.555 108.124   3 0.14288-0.44404-0.95442 0.63781-0.31412 0.65047
  -4  -6   8 167.244 103.330   2-0.91865 0.61749-0.49157 0.17496-0.54254 0.87889
  -4  -6   7 496.056 139.221   3 0.15245-0.47733-0.95378 0.59696-0.39389 0.64182
  -4  -6   7 463.216 123.087   2-0.88168 0.55679-0.49948 0.14266-0.64503 0.89296
  -4  -6   6 706.857 137.025   3 0.16120-0.50981-0.94349 0.54647-0.47563 0.63515
  -4  -6   6 684.258 153.576   2-0.82567 0.47706-0.49871 0.10168-0.74299 0.90251
  -4  -6   5 427.199 111.191   1-0.78683 0.41450-0.43994 0.00270-0.80241 0.87351
  -4  -6   5 517.652 140.750   3 0.16874-0.54108-0.92142 0.48418-0.55809 0.62919
  -4  -6   5 416.044 128.471   2-0.74964 0.37731-0.48756 0.05033-0.83063 0.90172
  -4  -6   4 82.6942 73.8410   1-0.77718 0.38112-0.32504-0.15240-0.81112 0.79380
  -4  -6   4 12.3150 78.5178   2-0.65573 0.25967-0.46554-0.01190-0.90179 0.88447
  -4  -6   3 2632.77 207.884   1-0.75781 0.33803-0.22193-0.29573-0.80701 0.70128
  -4  -6   3 2559.65 189.846   2-0.54987 0.13008-0.43406-0.08359-0.95212 0.84638
  -4  -6   2 39.8142 83.8956   1-0.73421 0.29070-0.13432-0.42355-0.79557 0.60142
  -4  -6   2 9.79473 56.9444   2-0.44067-0.00284-0.39645-0.16141-0.98093 0.78678
  -4  -6   1 45.1452 63.5450   2-0.33691-0.13033-0.35695-0.24112-0.99143 0.70886
  -4  -6   1 80.4087 97.3889   1-0.71056 0.24333-0.06335-0.53472-0.78125 0.49868
  -4  -6   0 38.4315 70.3782   2-0.24510-0.24587-0.31941-0.31887-0.98909 0.61810
  -4  -6   0-0.96265 70.1478   1-0.68956 0.19859-0.00846-0.62983-0.76715 0.39616
  -4  -6  -1 1047.50 197.405   1-0.67267 0.15798 0.03178-0.71027-0.75515 0.29575
   4   6   2 88.1985 111.614   4 0.95391-0.41550-0.11784 0.83654 0.26794 0.27988
  -4  -6  -2 18.7852 68.9798   1-0.66050 0.12209 0.05905-0.77775-0.74622 0.19840
   4   6   3 77.2328 103.642   4 0.95871-0.39658-0.08640 0.84531 0.30020 0.33604
  -4  -7  10 371.185 110.144   3 0.13298-0.40119-0.94744 0.61501-0.23848 0.70790
  -4  -7   9 236.247 149.450   3 0.14276-0.43469-0.95438 0.58174-0.31314 0.69414
  -4  -7   9 28.6406 69.6967   2-0.93635 0.64442-0.48023 0.10759-0.45957 0.84057
  -4  -7   8 18.7370 66.0123   3 0.15188-0.46754-0.95408 0.54123-0.38889 0.68147
  -4  -7   8 51.6353 83.6058   2-0.91399 0.59833-0.49331 0.08046-0.55879 0.85138
  -4  -7   7 65.1916 92.1311   3 0.16014-0.49952-0.94542 0.49236-0.46511 0.66928
  -4  -7   7 104.207 70.9314   2-0.87625 0.53687-0.49987 0.04681-0.65661 0.86078
  -4  -7   6 113.346 78.6179   3 0.16727-0.53038-0.92718 0.43391-0.54069 0.65644
  -4  -7   6 139.633 109.836   2-0.82141 0.45830-0.49832 0.00505-0.74897 0.86472
  -4  -7   5 45.5889 87.9796   1-0.78695 0.40012-0.44579-0.08768-0.80155 0.82888
  -4  -7   4 51.8089 69.0619   1-0.78056 0.37000-0.35130-0.22238-0.81044 0.74935
  -4  -7   3 516.344 149.113   1-0.76735 0.33307-0.26654-0.34736-0.81008 0.66058
  -4  -7   2 2451.76 235.839   1-0.75095 0.29294-0.19391-0.46020-0.80412 0.56620
  -4  -7   1 202.309 108.861   1-0.73421 0.25248-0.13431-0.56000-0.79557 0.46923
  -4  -7   0 209.464 137.802   1-0.71909 0.21363-0.08760-0.64692-0.78664 0.37188
  -4  -7  -1 228.562 103.996   1-0.70678 0.17760-0.05300-0.72173-0.77879 0.27562
  -4  -8  10 81.0036 119.600   3 0.14133-0.42404-0.95377 0.52510-0.30188 0.72754
  -4  -8   9 2.12016 61.8240   3 0.15018-0.45662-0.95475 0.48587-0.37426 0.71150
  -4  -8   8 96.6049 82.3044   3 0.15818-0.48834-0.94841 0.43933-0.44621 0.69503
  -4  -8   7 8.06563 61.9766   3 0.16514-0.51903-0.93409 0.38479-0.51682 0.67722
  -4  -8   5 1087.37 175.761   1-0.78707 0.38574-0.46128-0.16844-0.79906 0.78262
  -4  -8   4 176.660 123.197   1-0.78371 0.35865-0.38264-0.28729-0.80864 0.70378
  -4  -8   3 70.4826 88.9354   1-0.77529 0.32651-0.31219-0.39794-0.81119 0.61792
  -4  -8   2 34.4379 84.2237   1-0.76435 0.29184-0.25160-0.49874-0.80927 0.52758
  -4  -8   1 43.5276 113.240   1-0.75290 0.25667-0.20160-0.58895-0.80499 0.43488
  -4  -9   9 121.848 150.502   3 0.15548-0.47641-0.95152 0.38641-0.42100 0.71448
  -4  -9   8 1.59536 70.8396   3 0.16241-0.50707-0.94100 0.33568-0.48794 0.69300
  -4  -9   5 71.9175 96.6526   1-0.78675 0.37092-0.48339-0.24256-0.79495 0.73476
  -4  -9   4 316.238 176.574   1-0.78603 0.34647-0.41747-0.34869-0.80532 0.65670
   4   9  -4 563.147 188.001   0 0.91282-0.47326-0.03109 0.79725-0.14838 0.29700
  -5   9   0-13.8260 66.5720   0 0.31944-0.69392 0.69043 0.09964-0.24028 0.49867
  -5   9   0-14.1666 111.565   4 0.43278-0.80727 0.75651 0.03355 0.90270-0.64430
  -5   9  -1 642.250 221.616   0 0.36432-0.76254 0.66998 0.07988-0.24248 0.41245
  -5   9  -2-7.32665 61.1175   0 0.39918-0.82112 0.65245 0.05720-0.24374 0.32530
  -5   9  -3 119.688 153.193   0 0.42488-0.87054 0.63855 0.03090-0.24441 0.23755
   5  -9   3 72.2832 124.750   3 0.17356 0.27210-0.62883-0.04061-0.86312 0.86998
  -5   8   2 54.9055 119.993   4 0.54768-0.88922 0.69829 0.07596 0.89255-0.50109
  -5   8   1 53.5611 112.075   0 0.27175-0.63701 0.70969 0.02436-0.23728 0.54032
  -5   8   1 61.6391 95.9219   4 0.49649-0.86175 0.72656 0.00748 0.89931-0.59627
  -5   8   0 68.7267 68.9979   0 0.32535-0.71434 0.68787 0.00596-0.24060 0.45523
   5  -8   0 95.8449 145.385   5-0.54070 0.92968-0.82912 0.13528-0.78155 0.56692
  -5   8   0 93.2468 83.2001   4 0.43110-0.82009 0.75723-0.06340 0.90271-0.68809
  -5   8  -1 173.303 131.821   0 0.36782-0.78053 0.66829-0.01467-0.24262 0.36883
   5  -8   1 47.2349 83.5397   5-0.49071 0.90342-0.86478 0.21116-0.76646 0.64025
  -5   8  -2 39.7062 70.4190   0 0.40014-0.83658 0.65195-0.03853-0.24377 0.28156
   5  -8   2 17.5684 110.110   5-0.43168 0.86811-0.89974 0.28633-0.74501 0.70722
   5  -8   3 1.01892 55.9826   5-0.36387 0.82403-0.93162 0.35842-0.71616 0.76678
  -5   8  -3 99.4087 103.341   0 0.42309-0.88325 0.63954-0.06634-0.24437 0.19375
  -5   8  -4 132.820 133.234   0 0.43727-0.92115 0.63154-0.09854-0.24465 0.10561
   5  -8   4 62.6286 123.090   5-0.28807 0.77195-0.95807 0.42508-0.67923 0.81827
  -5   8  -5 76.1423 132.651   0 0.44302-0.95063 0.62821-0.13542-0.24475 0.01728
   5  -8   5 53.9523 140.377   5-0.20551 0.71312-0.97700 0.48421-0.63398 0.86144
  -5   8  -6 79.9650 123.739   0 0.44050-0.97184 0.62967-0.17709-0.24471-0.07117
  -5   8  -7 92.0242 125.441   0 0.42958-0.98464 0.63591-0.22354-0.24451-0.15979
  -5   7   3 19.8733 70.3294   4 0.59528-0.92759 0.66821 0.05001 0.88259-0.44648
   5  -7  -3 76.4403 110.438   5-0.64204 0.97435-0.73531 0.01709-0.80119 0.36507
  -5   7   2 378.708 167.344   4 0.55055-0.90658 0.69659-0.01858 0.89206-0.54436
   5  -7  -2 251.148 148.495   5-0.61144 0.96747-0.76717 0.08916-0.79706 0.44936
  -5   7   1 287.933 138.761   0 0.26875-0.64851 0.71081-0.07301-0.23707 0.49635
   5  -7  -1 20.9480 90.0735   5-0.57208 0.95184-0.80346 0.16566-0.78935 0.53008
  -5   7   1 273.830 118.396   4 0.49192-0.87168 0.72889-0.09109 0.89973-0.64046
  -5   7   0 196.190 96.9749   0 0.32026-0.72375 0.69008-0.09248-0.24032 0.41119
   5  -7   0 82.8054 106.325   5-0.52326 0.92674-0.84224 0.24465-0.77663 0.60577
  -5   7   0 184.733 109.784   4 0.41745-0.82093 0.76293-0.16534 0.90275-0.73189
  -5   7  -1 44.6788 61.7759   0 0.36050-0.78771 0.67182-0.11443-0.24232 0.32476
   5  -7   1 75.7828 78.8057   5-0.46465 0.89186-0.88110 0.32372-0.75745 0.67500
  -5   7  -2 256.584 106.446   0 0.39032-0.84126 0.65705-0.13987-0.24346 0.23749
   5  -7   2 25.2517 68.9338   5-0.39647 0.84740-0.91733 0.40015-0.73055 0.73653
  -5   7  -3 164.342 92.7670   0 0.41039-0.88505 0.64649-0.16953-0.24406 0.14967
   5  -7   3 42.1284 76.4540   5-0.31955 0.79421-0.94820 0.47123-0.69513 0.78952
  -5   7  -4 556.652 187.356   0 0.42119-0.91957 0.64060-0.20384-0.24433 0.06152
   5  -7   4 35.2825 83.2956   5-0.23535 0.73373-0.97129 0.53453-0.65091 0.83372
  -5   7  -5 521.789 166.784   0 0.42295-0.94506 0.63962-0.24307-0.24437-0.02686
   5  -7   5 82.2701 110.267   5-0.14573 0.66784-0.98475 0.58820-0.59819 0.86942
  -5   7  -6 1052.79 205.269   1 0.33020-0.87603 0.93618-0.57985 0.20866-0.56831
  -5   7  -6 858.336 199.485   0 0.41567-0.96150 0.64363-0.28729-0.24420-0.11544
  -5   7  -7 1103.15 236.999   1 0.28004-0.84960 0.92880-0.61267 0.15405-0.60211
  -5   6   5 31.0146 80.8958   4 0.66177-0.96113 0.61896 0.08344 0.86171-0.29253
  -5   6   4-26.0235 60.6744   4 0.63423-0.95731 0.64048 0.02171 0.87144-0.39068
   5  -6  -4 14.1864 80.9881   5-0.66484 0.98792-0.70916 0.04696-0.80304 0.32227
  -5   6   3 457.841 166.986   4 0.59547-0.94228 0.66808-0.04610 0.88254-0.49019
   5  -6  -3 124.301 74.3310   5-0.63635 0.98316-0.74150 0.11952-0.80056 0.40821
  -5   6   2 48.7071 88.3977   4 0.54322-0.91375 0.70092-0.11915 0.89330-0.58937
   5  -6  -2 46.8308 78.1695   5-0.59862 0.96915-0.77953 0.19776-0.79482 0.49089
  -5   6   2 121.400 105.653   0 0.19076-0.56129 0.73691-0.15514-0.23072 0.53465
  -5   6   1 194.459 115.439   0 0.25263-0.64689 0.71672-0.17515-0.23589 0.45141
   5  -6  -1 190.227 124.843   5-0.55072 0.94498-0.82121 0.27965-0.78419 0.56868
  -5   6   1 195.369 109.577   4 0.47513-0.86939 0.73721-0.19565 0.90104-0.68552
  -5   6   0 1897.80 189.813   0 0.30217-0.72015 0.69769-0.19633-0.23927 0.36636
   5  -6   0 1393.83 188.941   5-0.49215 0.91013-0.86383 0.36248-0.76694 0.63984
  -5   6  -1 1111.51 133.107   0 0.34018-0.78188 0.68127-0.22013-0.24137 0.28005
   5  -6   1 139.775 76.8987   5-0.42305 0.86476-0.90426 0.44312-0.74158 0.70290
  -5   6  -2-9.14147 43.5934   0 0.36733-0.83276 0.66853-0.24759-0.24260 0.19286
   5  -6   2 23.8928 78.7230   5-0.34438 0.80981-0.93931 0.51837-0.70711 0.75685
  -5   6  -3 711.812 163.048   0 0.38416-0.87331 0.66019-0.27946-0.24325 0.10509
   5  -6   3 258.953 98.2497   5-0.25784 0.74700-0.96615 0.58542-0.66325 0.80140
  -5   6  -4 762.154 161.425   0 0.39099-0.90387 0.65671-0.31619-0.24348 0.01691
   5  -6   4 59.4745 68.6519   5-0.16570 0.67858-0.98270 0.64218-0.61042 0.83699
  -5   6  -5 222.465 98.3051   0 0.38792-0.92453 0.65828-0.35797-0.24338-0.07161
  -5   6  -5 284.852 122.853   1 0.31912-0.85572 0.93492-0.63461 0.19654-0.51153
  -5   6  -6 108.229 102.907   1 0.26926-0.82959 0.92667-0.66657 0.14240-0.54581
  -5   6  -6 45.7520 75.4192   0 0.37472-0.93505 0.66491-0.40481-0.24290-0.16051
   5  -6   6 59.5716 95.9412   5 0.02573 0.53460-0.98100 0.72090-0.48232 0.88573
  -5   6  -7 549.683 187.111   1 0.21845-0.80250 0.91419-0.69430 0.08792-0.57975
   5  -6   7 36.9799 78.1587   5 0.12069 0.46336-0.96272 0.74283-0.40990 0.90173
  -5   5   6 65.9457 101.518   4 0.68762-0.97775 0.59715 0.04923 0.85102-0.23719
  -5   5   5 154.615 112.337   4 0.66495-0.97880 0.61637-0.01020 0.86048-0.33507
  -5   5   4 2750.83 235.541   4 0.63163-0.96921 0.64242-0.07647 0.87228-0.43528
  -5   5   3 31.7961 84.8477   4 0.58527-0.94658 0.67486-0.14912 0.88500-0.53642
  -5   5   3 50.4992 77.6906   0 0.08806-0.44936 0.76216-0.23641-0.21991 0.56849
   5  -5  -3 58.9774 87.1899   5-0.61977 0.98108-0.75884 0.23309-0.79835 0.44977
  -5   5   2 41.9935 75.9561   4 0.52322-0.90825 0.71230-0.22676 0.89626-0.63610
   5  -5  -2 55.6446 67.9115   5-0.57241 0.95743-0.80318 0.31764-0.78943 0.52926
  -5   5   2 32.8267 66.3324   0 0.16099-0.54601 0.74527-0.25974-0.22786 0.48803
  -5   5   1 696.501 164.084   0 0.22086-0.62961 0.72757-0.28224-0.23336 0.40511
   5  -5  -1 496.829 147.474   5-0.51329 0.92204-0.84941 0.40408-0.77365 0.60190
  -5   5   1 463.410 130.244   4 0.44307-0.85182 0.75204-0.30672 0.90250-0.73075
  -5   5   0 6355.61 250.332   0 0.26826-0.70074 0.71100-0.30588-0.23703 0.32036
   5  -5   0 4018.98 238.096   5-0.44251 0.87499-0.89386 0.48874-0.74922 0.66589
  -5   5  -1 208.933 101.736   0 0.30373-0.75993 0.69705-0.33214-0.23936 0.23428
   5  -5   1 61.0077 83.0774   5-0.36120 0.81741-0.93271 0.56780-0.71494 0.72003
  -5   5  -2 175.483 91.9734   0 0.32775-0.80767 0.68682-0.36212-0.24073 0.14723
   5  -5   2 101.297 89.6176   5-0.27148 0.75141-0.96267 0.63797-0.67054 0.76405
  -5   5  -3 7.21544 50.5532   0 0.34064-0.84430 0.68106-0.39657-0.24140 0.05947
   5  -5   3 22.1603 59.9077   5-0.17611 0.67977-0.98141 0.69692-0.61669 0.79861
  -5   5  -4 555.735 146.393   0 0.34255-0.86993 0.68019-0.43591-0.24149-0.02885
  -5   5  -4 589.380 121.935   1 0.29412-0.82149 0.93130-0.68702 0.16930-0.43964
   5  -5   4 97.5499 75.3594   5-0.07801 0.60539-0.98779 0.74351-0.55473 0.82507
  -5   5  -5 2639.43 220.272   0 0.33332-0.88442 0.68436-0.48028-0.24103-0.11773
  -5   5  -5 2531.46 220.107   1 0.24569-0.79679 0.92138-0.71730 0.11705-0.47580
  -5   5  -6 11.3411 72.9085   1 0.19656-0.77139 0.90761-0.74375 0.06466-0.51183
   5  -5   6-6.70289 64.2883   5 0.11626 0.45857-0.96383 0.79997-0.41341 0.86059
  -5   5  -7 5.55940 43.2848   1 0.14680-0.74535 0.89009-0.76643 0.01220-0.54779
   5  -5   7 8.03883 112.526   5 0.20876 0.38979-0.93518 0.81152-0.33735 0.87294
  -5   5  -8 204.907 115.380   1 0.09643-0.71871 0.86883-0.78539-0.04030-0.58371
  -5   4   7 46.0590 109.903   4 0.70604-0.98694 0.58054 0.00980 0.84238-0.18390
  -5   4   6 292.096 126.850   4 0.68772-0.99235 0.59706-0.04693 0.85098-0.28091
  -5   4   5 5.03993 78.0105   4 0.65927-0.98762 0.62099-0.11106 0.86267-0.38101
  -5   4   4 1159.50 173.168   4 0.61823-0.97031 0.65223-0.18252 0.87637-0.48314
  -5   4   4 1863.23 178.263   0-0.04027-0.31181 0.77981-0.31009-0.20268 0.59591
  -5   4   3 1589.80 169.430   4 0.56171-0.93751 0.68983-0.26032 0.89000-0.58519
   5  -4  -3 1446.62 160.574   5-0.58707 0.96287-0.79021 0.36071-0.79258 0.48776
  -5   4   2 3.17939 46.5648   0 0.11299-0.51252 0.75695-0.36765-0.22278 0.43918
   5  -4  -2 0.32730 38.7401   5-0.52651 0.92604-0.83986 0.45056-0.77758 0.56118
   5  -4  -1 1667.03 140.068   5-0.45292 0.87617-0.88798 0.53890-0.75315 0.62517
  -5   4   1 2639.49 186.329   0 0.17028-0.59353 0.74276-0.39367-0.22878 0.35676
  -5   4   0 1474.32 147.578   0 0.21489-0.66187 0.72949-0.42061-0.23286 0.27242
   5  -4   0 813.815 129.936   5-0.36776 0.81474-0.93001 0.62113-0.71792 0.67836
  -5   4  -1 3300.83 191.135   0 0.24708-0.71778 0.71869-0.45002-0.23547 0.18662
   5  -4   1 2204.68 193.538   5-0.27376 0.74446-0.96207 0.69339-0.67175 0.72060
  -5   4  -2 963.061 135.733   0 0.26702-0.76144 0.71146-0.48300-0.23694 0.09967
  -5   4  -2 1112.80 140.631   1 0.29269-0.78712 0.93106-0.70260 0.16776-0.30503
  -5   4  -3 486.248 117.907   0 0.27478-0.79293 0.70853-0.52028-0.23749 0.01180
  -5   4  -3 525.849 122.827   1 0.24939-0.76754 0.92227-0.73401 0.12102-0.34671
   5  -4   3 255.732 128.062   5-0.07320 0.59135-0.98778 0.79953-0.55152 0.77721
  -5   4  -4 8604.90 279.793   0 0.27021-0.81208 0.71027-0.56222-0.23717-0.07694
  -5   4  -4 8487.54 294.282   1 0.20498-0.74686 0.91023-0.76218 0.07359-0.38770
   5  -4   4 5783.44 263.936   5 0.02686 0.51502-0.98085 0.83281-0.48149 0.79560
  -5   4  -5 9.04946 51.7210   1 0.15965-0.72525 0.89495-0.78712 0.02569-0.42821
   5  -4   5 9.78738 64.8721   5 0.12360 0.44200-0.96197 0.85414-0.40759 0.81011
  -5   4  -6 1335.29 202.276   1 0.11351-0.70283 0.87643-0.80880-0.02257-0.46837
   5  -4   6 779.657 200.909   5 0.21562 0.37370-0.93259 0.86496-0.33147 0.82241
  -5   4  -7 159.681 122.363   1 0.06662-0.67967 0.85464-0.82722-0.07110-0.50826
   5  -4   7 105.346 113.188   5 0.30219 0.31086-0.89411 0.86670-0.25437 0.83373
  -5   4  -8 507.562 166.249   1 0.01903-0.65581 0.82951-0.84230-0.11985-0.54792
  -5   3   8 70.5389 134.342   4 0.71706-0.98873 0.57015-0.03584 0.83677-0.13363
  -5   3   7 505.133 168.099   4 0.70261-0.99800 0.58371-0.08960 0.84406-0.22934
  -5   3   6 89.8104 105.983   4 0.67843-0.99755 0.60509-0.15120 0.85501-0.32870
  -5   3   5 3104.81 208.944   4 0.64207-0.98492 0.63452-0.22084 0.86884-0.43095
  -5   3   4 33.1270 61.3293   4 0.59045-0.95702 0.67144-0.29797 0.88378-0.53431
  -5   3   4 13.5560 54.4457   0-0.10019-0.26638 0.78283-0.40935-0.19323 0.54270
  -5   3   3 39.8984 74.8110   4 0.52022-0.91052 0.71395-0.38068 0.89666-0.63560
  -5   3   3 33.2870 67.6551   0-0.02193-0.36837 0.77822-0.44495-0.20539 0.46644
   5  -3  -3 16.1344 45.7551   5-0.52898 0.91928-0.83802 0.50475-0.77829 0.51723
  -5   3   2 7379.57 237.889   0 0.04408-0.45811 0.76992-0.47686-0.21446 0.38710
   5  -3  -2 4930.53 189.313   5-0.45084 0.86487-0.88917 0.59611-0.75237 0.57974
  -5   3   2 5037.08 225.938   4 0.42866-0.84268 0.75827-0.46521 0.90274-0.73010
  -5   3   1 244.292 100.897   0 0.09745-0.53520 0.76026-0.50741-0.22101 0.30523
   5  -3  -1 61.7032 51.6224   5-0.36010 0.79785-0.93316 0.68031-0.71443 0.63022
   5  -3   0 155.136 92.1787   5-0.26050 0.72197-0.96549 0.75285-0.66468 0.66888
  -5   3   0 158.345 84.1232   0 0.13795-0.59942 0.75115-0.53851-0.22550 0.22130
  -5   3  -1 696.228 84.7277   1 0.20750-0.69269 0.91099-0.73855 0.07626-0.16888
  -5   3  -1 753.247 136.840   0 0.16541-0.65061 0.74409-0.57165-0.22830 0.13568
  -5   3  -2 4859.73 190.640   1 0.17603-0.68496 0.90081-0.76859 0.04295-0.22398
  -5   3  -2 5201.03 210.762   0 0.17964-0.68857 0.74014-0.60791-0.22968 0.04864
  -5   3  -3 59.6380 54.4462   2 0.00994-0.54259-0.20406 0.29608-0.93285 0.66340
  -5   3  -3 17.3270 46.8844   1 0.14099-0.67364 0.88782-0.79580 0.00611-0.27557
   5  -3   3 72.7726 73.1314   5 0.04883 0.48382-0.97762 0.88561-0.46524 0.73470
  -5   3  -3 134.790 73.3969   0 0.18034-0.71299 0.73994-0.64792-0.22974-0.03971
  -5   3  -4 586.437 146.263   1 0.10339-0.65977 0.87198-0.82017-0.03308-0.32479
  -5   3  -4 396.349 95.1525   2 0.11773-0.67410-0.15071 0.20251-0.88839 0.53052
   5  -3   4 197.093 102.966   5 0.14505 0.41133-0.95614 0.90433-0.39036 0.74823
  -5   3  -4 688.368 144.097   0 0.16688-0.72326 0.74369-0.69188-0.22845-0.12942
  -5   3  -5 6077.29 261.319   1 0.06386-0.64396 0.85326-0.84166-0.07394-0.37234
  -5   3  -5 5820.98 241.252   2 0.19172-0.77182-0.11248 0.12408-0.85069 0.40440
  -5   3  -6 118.194 110.192   1 0.02276-0.62659 0.83159-0.86020-0.11604-0.41866
  -5   3  -6 137.583 98.4669   2 0.24014-0.84396-0.08673 0.05812-0.82273 0.28802
   5  -3   6 132.641 97.8658   4 0.60645-0.00262-0.64875 0.67736-0.38337 0.91808
   5  -3   6 109.437 138.516   5 0.31913 0.28470-0.88527 0.91389-0.23861 0.77332
  -5   3  -7 2429.10 256.998   1-0.01964-0.60791 0.80688-0.87570-0.15910-0.46403
  -5   3  -7 2514.56 237.347   2 0.26953-0.89708-0.07082 0.00199-0.80445 0.18132
   5  -3   7 2053.37 231.946   4 0.69145-0.06390-0.58036 0.64919-0.28336 0.90648
  -5   3  -8 162.822 155.130   2 0.28458-0.93585-0.06257-0.04646-0.79469 0.08315
   5  -3   8 112.664 115.716   4 0.76229-0.11102-0.50868 0.61771-0.18583 0.89737
  -5   3  -8 94.7850 88.4485   1-0.06321-0.58807 0.77902-0.88806-0.20290-0.50864
  -5   2   9 59.9234 117.103   4 0.72039-0.98283 0.56695-0.08866 0.83501-0.08722
  -5   2   9 8.49926 64.5795   3-0.02587-0.23657-0.42274 0.90103 0.60084 0.14695
  -5   2   8 122.737 99.9953   4 0.70937-0.99554 0.57744-0.13936 0.84072-0.18135
  -5   2   8 65.3034 100.497   3-0.02371-0.26247-0.43321 0.87129 0.59239 0.06698
  -5   2   7 87.7007 91.1333   4 0.68889-0.99879 0.59603-0.19816 0.85046-0.27950
  -5   2   7 172.657 104.851   3-0.02318-0.28671-0.43572 0.83359 0.59035-0.01939
  -5   2   6 2897.96 216.200   4 0.65649-0.99011 0.62322-0.26556 0.86370-0.38117
  -5   2   6 3283.29 222.264   3-0.02479-0.30884-0.42800 0.78566 0.59662-0.11408
  -5   2   5 430.927 116.863   4 0.60897-0.96631 0.65880-0.34135 0.87900-0.48488
  -5   2   5 559.637 116.495   0-0.25983-0.09751 0.77411-0.45666-0.16357 0.55769
  -5   2   5 580.937 122.836   2-0.94322 0.58587-0.47027 0.78772-0.40238 0.79650
  -5   2   4 681.886 139.522   0-0.17824-0.20284 0.78169-0.50445-0.17957 0.48527
  -5   2   4 624.934 113.752   2-0.91841 0.53734-0.49166 0.76890-0.54340 0.84910
  -5   2   3 747.327 104.075   2-0.85835 0.45355-0.50032 0.73735-0.69106 0.90835
   5  -2  -3 576.481 126.627   5-0.42964 0.83444-0.90082 0.66379-0.74420 0.52692
  -5   2   3 670.075 116.597   4 0.45402-0.85882 0.74713-0.51010 0.90215-0.68486
  -5   2   2 98.9113 73.0152   0-0.04749-0.38104 0.78035-0.58353-0.20159 0.33046
  -5   2   2 143.787 61.6365   2-0.75077 0.32225-0.48778 0.68460-0.82957 0.95844
   5  -2  -2 45.6423 69.3295   5-0.33095 0.75947-0.94424 0.74741-0.70069 0.57183
  -5   2   1 3813.79 175.549   0-0.00026-0.45199 0.77594-0.61933-0.20849 0.24894
  -5   2   1 3556.10 159.852   2-0.59380 0.14155-0.44781 0.60443-0.93432 0.97478
  -5   2   0 4776.80 163.062   1 0.06534-0.54131 0.85400-0.73759-0.07242 0.02445
  -5   2   0 4747.12 203.381   0 0.03389-0.50986 0.77147-0.65506-0.21313 0.16517
  -5   2   0 4277.18 167.435   2-0.40646-0.06951-0.38380 0.50020-0.98605 0.93809
  -5   2  -1 27.9239 37.1872   2-0.22144-0.27825-0.30938 0.38558-0.98687 0.85049
  -5   2  -1 46.6833 41.8655   0 0.05431-0.55401 0.76828-0.69208-0.21577 0.07939
   5  -2   1 53.2810 67.2956   5-0.01013 0.50983-0.98490 0.90871-0.50814 0.64452
  -5   2  -2 2267.22 154.130   1 0.04611-0.56954 0.84418-0.80819-0.09217-0.13263
  -5   2  -2 2156.72 138.392   0 0.06035-0.58377 0.76726-0.73127-0.21653-0.00827
  -5   2  -3 8543.69 289.506   1 0.02286-0.57001 0.83164-0.83586-0.11595-0.19727
  -5   2  -3 7523.44 237.143   2 0.05656-0.60370-0.18132 0.17710-0.91513 0.60191
  -5   2  -3 8407.38 248.868   0 0.05114-0.59828 0.76880-0.77302-0.21537-0.09785
  -5   2  -4 2606.53 189.603   1-0.00545-0.56542 0.81542-0.85985-0.14473-0.25691
  -5   2  -4 2425.57 199.661   2 0.14345-0.71432-0.13757 0.09314-0.87596 0.47432
  -5   2  -5 6960.05 301.793   2 0.20298-0.79757-0.10655 0.02191-0.84442 0.35437
   5  -2   5 5749.79 259.146   4 0.59307 0.00152-0.65813 0.74277-0.39778 0.88783
   5  -2   5 4732.35 254.672   5 0.34881 0.24579-0.86869 0.95333-0.21045 0.70050
  -5   2  -5 7368.81 276.605   1-0.03739-0.55720 0.79584-0.88048-0.17699-0.31306
   5  -2   6 9.81772 58.7641   5 0.42136 0.19696-0.82188 0.94673-0.13841 0.71688
  -5   2  -6-2.64866 61.8810   1-0.07209-0.54623 0.77303-0.89788-0.21178-0.36669
  -5   2  -7 132.444 105.205   2 0.26393-0.90598-0.07386-0.09120-0.80801 0.14112
   5  -2   7 30.8332 96.1861   4 0.74962-0.10757-0.52273 0.68779-0.20446 0.87135
   5  -2   7 131.377 159.360   5 0.48790 0.15414-0.77022 0.93528-0.06791 0.73479
  -5   2  -7 45.3783 96.7743   1-0.10899-0.53306 0.74702-0.91207-0.24847-0.41842
  -5   2  -8 58.8926 149.422   2 0.27399-0.93976-0.06838-0.13689-0.80158 0.04627
   5  -2   8 45.9240 121.876   4 0.80830-0.14253-0.45191 0.65718-0.11264 0.86794
  -5   1   9 115.689 106.970   3-0.00618-0.27077-0.51491 0.89696 0.52134 0.18269
  -5   1   8 16.7115 83.3154   4 0.68996-0.99063 0.59509-0.25325 0.84997-0.23437
  -5   1   8 127.776 112.008   3-0.00305-0.29762-0.52892 0.87076 0.50817 0.10744
  -5   1   7 44.1226 62.0457   4 0.66075-0.98515 0.61979-0.31816 0.86210-0.33491
  -5   1   7 301.727 144.260   3-0.00148-0.32291-0.53590 0.83753 0.50150 0.02570
  -5   1   6 20.4820 50.5912   4 0.61637-0.96449 0.65357-0.39215 0.87691-0.43814
  -5   1   6 89.5118 81.9849   3-0.00199-0.34613-0.53362 0.79504 0.50368-0.06491
  -5   1   6 14.7641 57.1124   0-0.42140 0.07328 0.73780-0.47638-0.12618 0.56496
  -5   1   6 11.6460 51.8106   2-0.94312 0.59500-0.47050 0.73192-0.40358 0.84236
  -5   1   5 84.7656 88.5539   4 0.55277-0.92462 0.69526-0.47405 0.89166-0.54131
  -5   1   5 199.047 95.4559   3-0.00543-0.36641-0.51825 0.73946 0.51823-0.16788
  -5   1   5 168.691 100.220   0-0.34293-0.02892 0.75921-0.53800-0.14535 0.49571
  -5   1   5 249.879 99.0752   2-0.92103 0.54918-0.49054 0.71176-0.53363 0.88398
  -5   1   4 10901.5 261.135   3-0.01322-0.38235-0.48272 0.66372 0.55047-0.28853
  -5   1   4 13775.3 322.706   0-0.27230-0.12327 0.77235-0.59135-0.16097 0.42290
  -5   1   4 11551.9 286.172   2-0.87034 0.47477-0.50015 0.68115-0.66858 0.93052
  -5   1   4 9724.06 278.815   4 0.46602-0.86159 0.74156-0.56056 0.90159-0.63965
  -5   1   3 1122.83 123.118   0-0.21114-0.20816 0.77944-0.63865-0.17333 0.34686
  -5   1   3 1023.60 126.872   2-0.78177 0.36248-0.49324 0.63403-0.79792 0.97144
  -5   1   2 1191.58 115.666   0-0.16087-0.28215 0.78245-0.68187-0.18275 0.26785
   5  -1  -2 708.390 76.3095   5-0.15250 0.59552-0.98411 0.88353-0.60237 0.51726
  -5   1   2 933.131 107.335   2-0.65123 0.20821-0.46433 0.56491-0.90449 0.98959
  -5   1   1 590.269 121.365   0-0.12276-0.34399 0.78310-0.72272-0.18944 0.18613
   5  -1  -1 419.090 100.210   5-0.04216 0.50890-0.98700 0.92663-0.53049 0.53381
  -5   1   1 495.850 92.0086   2-0.48759 0.02085-0.41316 0.47354-0.97101 0.96770
  -5   1   0 722.783 94.4112   2-0.31340-0.17707-0.34756 0.36772-0.99181 0.90008
   5  -1   0 584.807 93.6105   5 0.06124 0.42923-0.97552 0.95536-0.45593 0.54766
  -5   1   0 930.305 108.589   0-0.09797-0.39250 0.78278-0.76261-0.19360 0.10187
  -5   1   0 913.288 87.7048   1-0.10412-0.38635 0.75056-0.73039-0.24364 0.15191
  -5   1  -1 1309.88 138.022   2-0.15320-0.36099-0.27966 0.25961-0.97693 0.79678
  -5   1  -1 1398.86 116.950   0-0.08764-0.42656 0.78248-0.80252-0.19529 0.01514
  -5   1  -1 1240.27 101.101   1-0.08595-0.42824 0.76347-0.78351-0.22560 0.04545
  -5   1  -2 28.7824 69.4390   2-0.02159-0.51633-0.21916 0.15891-0.94356 0.67499
  -5   1  -2 42.7954 47.6662   0-0.09300-0.44492 0.78265-0.84290-0.19441-0.07415
   5  -1   2 18.4903 49.8211   5 0.24247 0.29545-0.92182 0.98207-0.30815 0.57672
  -5   1  -2 25.5374 48.4314   1-0.08578-0.45214 0.76360-0.82385-0.22542-0.04314
  -5   1  -3 343.447 108.334   2 0.07842-0.64006-0.17048 0.07002-0.90602 0.54904
   5  -1   3 324.601 133.593   5 0.32093 0.24072-0.88431 0.98477-0.23692 0.59391
  -5   1  -3 421.405 105.342   1-0.09680-0.46484 0.75581-0.85627-0.23638-0.12060
  -5   1  -4 825.895 161.532   2 0.15030-0.73567-0.13404-0.00663-0.87253 0.42713
   5  -1   4 897.160 160.136   4 0.59019-0.00482-0.66011 0.80078-0.40084 0.84624
  -5   1  -4 921.166 154.056   1-0.11535-0.47002 0.74234-0.88301-0.25476-0.19064
  -5   1  -5 3028.42 210.073   2 0.19938-0.80848-0.10844-0.07244-0.84644 0.31262
   5  -1   5 2781.99 230.732   4 0.67434-0.06524-0.59548 0.77636-0.30479 0.83861
   5  -1   5 2199.70 220.447   5 0.45757 0.15152-0.79489 0.97577-0.10061 0.63443
  -5   1  -5 3303.04 242.724   1-0.13927-0.46982 0.72428-0.90516-0.27835-0.25547
  -5   1  -6 895.172 213.993   2 0.23063-0.86345-0.09184-0.12925-0.82843 0.20619
  -5   1  -6 819.904 181.849   1-0.16720-0.46562 0.70219-0.92327-0.30571-0.31652
  -5   1  -7 92.2169 131.499   2 0.24795-0.90449-0.08253-0.17877-0.81797 0.10732
   5  -1   7 87.7370 119.473   4 0.80208-0.14554-0.46018 0.72148-0.12311 0.83377
  -5   1  -7 45.9247 115.819   1-0.19826-0.45828 0.67631-0.93761-0.33593-0.37473
  -5   0  10 246.181 158.942   3 0.00901-0.27673-0.58142 0.90744 0.45593 0.29275
  -5   0   9 102.424 120.732   3 0.01442-0.30586-0.60417 0.88998 0.43175 0.22851
  -5   0   8 441.146 145.296   3 0.01880-0.33397-0.62222 0.86783 0.41184 0.16000
  -5   0   7 464.941 135.682   3 0.02186-0.36075-0.63460 0.84000 0.39779 0.08564
  -5   0   6 318.174 116.854   4 0.54871-0.91132 0.69769-0.53250 0.89238-0.49737
  -5   0   6 379.890 110.306   0-0.49915 0.13653 0.70855-0.54337-0.10503 0.50004
  -5   0   6 272.925 96.0604   3 0.02309-0.38571-0.63957 0.80475 0.39206 0.00295
  -5   0   6 372.442 111.641   2-0.92638 0.56376-0.48782 0.65300-0.51170 0.90671
  -5   0   5 38.7440 47.1268   3 0.02166-0.40801-0.63382 0.75880 0.39868-0.09209
  -5   0   5 112.162 84.3743   0-0.43480 0.04845 0.73336-0.60839-0.12270 0.42929
  -5   0   5 94.3138 73.4704   2-0.88520 0.49886-0.49915 0.62413-0.63717 0.94376
  -5   0   5 103.974 80.6045   4 0.46212-0.84846 0.74340-0.61842 0.90179-0.59520
  -5   0   4 30.6810 41.0271   3 0.01599-0.42606-0.61067 0.69544 0.42466-0.20649
  -5   0   4 43.2954 64.5274   0-0.37750-0.03257 0.75071-0.66594-0.13716 0.35533
  -5   0   3 1680.35 125.211   0-0.32900-0.10479 0.76224-0.71769-0.14855 0.27831
  -5   0   3 1468.50 136.506   2-0.70650 0.27271-0.47831 0.52287-0.86719 0.99695
  -5   0   2 982.219 118.883   0-0.29097-0.16655 0.76941-0.76507-0.15698 0.19832
   5   0  -2 671.288 84.0090   5 0.08182 0.37570-0.97161 0.96726-0.44026 0.39892
  -5   0   2 966.417 126.552   2-0.56714 0.10962-0.43957 0.44392-0.94560 0.98694
  -5   0   1 6698.64 211.743   0-0.26495-0.21629 0.77341-0.80927-0.16251 0.11543
  -5   0   1 6446.61 176.822   1-0.31478-0.16646 0.56627-0.60214-0.44707 0.39999
  -5   0   0 29.8535 50.5359   2-0.25249-0.25248-0.32252 0.24645-0.98965 0.85416
  -5   0   0 15.4446 39.1434   0-0.25248-0.25248 0.77507-0.85114-0.16509 0.02959
   5   0   0 26.7223 67.9155   5 0.25248 0.25249-0.91754 0.99361-0.29932 0.43482
  -5   0   0 26.8800 37.0717   1-0.25248-0.25248 0.62775-0.70382-0.38810 0.25260
  -5   0  -1 57.5095 70.9380   2-0.11429-0.41441-0.26219 0.14591-0.96898 0.74506
  -5   0  -1 6.45686 33.7268   0-0.25514-0.27356 0.77473-0.89101-0.16454-0.05937
   5   0   1 33.3991 67.1554   5 0.32479 0.20390-0.88222 0.99850-0.23329 0.45720
  -5   0  -1 50.6669 64.3412   1-0.22124-0.30745 0.65627-0.77255-0.35813 0.13422
  -5   0  -2 140.926 74.4953   2-0.00268-0.54974-0.21013 0.05364-0.93726 0.62493
  -5   0  -2 148.600 79.0959   0-0.27470-0.27772 0.77200-0.92849-0.16046-0.15187
   5   0   2 132.533 85.2922   5 0.39035 0.16207-0.84302 0.99951-0.16978 0.48211
  -5   0  -2 179.876 113.427   1-0.20947-0.34295 0.66664-0.82313-0.34677 0.03444
  -5   0  -3 4334.60 226.618   2 0.08182-0.65797-0.16878-0.02792-0.90456 0.50381
   5   0   3 3851.81 200.658   4 0.59896-0.02282-0.65404 0.85074-0.39147 0.79222
   5   0   3 3211.02 201.088   5 0.45025 0.12590-0.80056 0.99726-0.10837 0.50912
  -5   0  -3 4988.50 233.167   1-0.21060-0.36554 0.66565-0.86235-0.34786-0.05289
  -5   0  -4 1529.19 232.851   2 0.14257-0.74244-0.13802-0.09889-0.87639 0.38723
   5   0   4 1619.61 192.904   4 0.67989-0.08002-0.59065 0.82756-0.29791 0.78708
  -5   0  -4 1641.10 190.468   1-0.22075-0.37912 0.65671-0.89362-0.35765-0.13152
  -5   0  -5 6367.10 325.070   2 0.18387-0.80747-0.11660-0.16052-0.85497 0.27738
   5   0   5 5089.39 312.706   4 0.74697-0.12338-0.52559 0.80271-0.20828 0.78587
   5   0   5 4601.35 276.047   5 0.55617 0.06742-0.70695 0.98407 0.00966 0.56793
  -5   0  -5 6716.98 329.153   1-0.23746-0.38614 0.64165-0.91877-0.37371-0.20387
  -5   0  -6 264.574 141.592   2 0.20965-0.85697-0.10301-0.21431-0.84064 0.17464
   5   0   6 183.758 168.424   4 0.80236-0.15504-0.45982 0.77715-0.12265 0.78865
   5   0   6 57.3957 108.523   5 0.60325 0.04407-0.65601 0.97333 0.06687 0.59914
  -5   0  -6 61.4127 65.5764   1-0.25912-0.38819 0.62149-0.93882-0.39443-0.27157
   5   0   7 37.7821 102.707   4 0.84780-0.17676-0.39378 0.75132-0.04074 0.79516
  -5   0  -7 12.2816 76.8084   1-0.28467-0.38637 0.59677-0.95431-0.41870-0.33572
  -5  -1  10 39.9621 97.4110   3 0.02887-0.31109-0.66245 0.89223 0.36493 0.33999
  -5  -1   9 332.136 121.650   3 0.03550-0.34144-0.68792 0.87749 0.33318 0.28331
  -5  -1   8 2.65038 52.6481   3 0.04136-0.37102-0.70979 0.85916 0.30451 0.22357
  -5  -1   7 414.807 130.559   3 0.04625-0.39964-0.72757 0.83673 0.28011 0.15955
  -5  -1   7 346.948 131.416   2-0.93276 0.57937-0.48349 0.59264-0.48069 0.92036
  -5  -1   6 35.8471 57.8664   3 0.04984-0.42695-0.74031 0.80925 0.26199 0.08926
  -5  -1   6 7.14483 55.2864   2-0.90073 0.52361-0.49684 0.56578-0.59865 0.94989
  -5  -1   5 1095.77 120.320   3 0.05148-0.45232-0.74607 0.77480 0.25360 0.00923
  -5  -1   5 928.759 136.751   2-0.84388 0.44304-0.49993 0.52867-0.71553 0.97835
  -5  -1   4 975.929 118.618   0-0.48657 0.06201 0.71388-0.72535-0.10861 0.28302
  -5  -1   4 952.536 106.750   3 0.04991-0.47448-0.74057 0.72910 0.26160-0.08720
  -5  -1   4 900.527 116.404   2-0.75764 0.33307-0.48908 0.47761-0.82298 0.99739
  -5  -1   3 631.769 104.978   0-0.45226 0.00397 0.72721-0.77890-0.11806 0.20405
  -5  -1   3 478.698 101.469   2-0.64168 0.19339-0.46171 0.41003-0.91002 0.99601
  -5  -1   2 7650.67 249.118   0-0.42811-0.04390 0.73561-0.82750-0.12445 0.12202
  -5  -1   2 6581.78 234.585   2-0.50318 0.03117-0.41854 0.32665-0.96693 0.96450
  -5  -1   1 943.872 109.452   0-0.41580-0.07994 0.73958-0.87168-0.12762 0.03677
  -5  -1   1 1112.10 129.033   1-0.43194-0.06380 0.43181-0.56391-0.55479 0.46394
  -5  -1   1 939.358 116.542   2-0.35646-0.13928-0.36464 0.23254-0.99057 0.89973
  -5  -1   0 2596.97 154.869   2-0.21751-0.30195-0.30770 0.13539-0.98644 0.80718
  -5  -1   0 2882.50 166.731   0-0.41703-0.10244 0.73919-0.91150-0.12730-0.05196
  -5  -1   0 2715.68 147.147   1-0.37216-0.14730 0.50375-0.67606-0.50039 0.32113
  -5  -1  -1 187.559 96.7426   2-0.09776-0.44543-0.25467 0.04215-0.96511 0.69743
  -5  -1  -1 189.088 101.817   0-0.43358-0.10961 0.73377-0.94629-0.12302-0.14466
  -5  -1  -1 103.501 64.5585   1-0.33686-0.20633 0.54292-0.75544-0.46771 0.20003
   5   1   1 65.2991 69.9912   5 0.47757 0.06562-0.77884 0.99136-0.07915 0.34684
  -5  -1  -2 1432.30 171.020   2-0.00181-0.56510-0.20972-0.04301-0.93696 0.58087
   5   1   2 1240.91 143.745   4 0.62044-0.05353-0.63857 0.89129-0.36794 0.72404
   5   1   2 1183.70 142.786   5 0.52162 0.04530-0.74040 0.99313-0.03033 0.38643
  -5  -1  -2 1312.72 151.140   1-0.31902-0.24789 0.56185-0.81458-0.45104 0.09495
  -5  -1  -3 31.8353 73.1204   2 0.07083-0.66147-0.17426-0.11868-0.90924 0.46472
   5   1   3 17.9864 73.8296   4 0.69578-0.10514-0.57642 0.86936-0.27782 0.72234
   5   1   3 44.5495 71.2416   5 0.56358 0.02706-0.69937 0.99230 0.01844 0.42607
  -5  -1  -3-3.00314 49.2179   1-0.31377-0.27687 0.56732-0.86026-0.44612 0.00160
  -5  -1  -4 2257.98 221.886   2 0.12308-0.73745-0.14798-0.18516-0.88586 0.35293
   5   1   4 1781.78 210.642   4 0.75802-0.14365-0.51349 0.84663-0.19218 0.72511
   5   1   4 1417.68 180.598   5 0.60349 0.01088-0.65574 0.98888 0.06716 0.46578
  -5  -1  -4 2420.00 208.031   1-0.31779-0.29657 0.56314-0.89628-0.44989-0.08304
  -5  -1  -5 994.022 205.788   2 0.15840-0.79649-0.12986-0.24350-0.86840 0.24705
   5   1   5 694.946 193.566   4 0.80941-0.17132-0.45041 0.82376-0.11075 0.73210
  -5  -1  -5 645.218 157.997   1-0.32882-0.30927 0.55152-0.92487-0.46021-0.16114
   5   1   5 429.972 175.600   5 0.64134-0.00325-0.60947 0.98282 0.11585 0.50550
  -5  -1  -6 320.290 150.009   2 0.17991-0.84173-0.11867-0.29489-0.85711 0.14734
   5   1   6 234.496 137.354   4 0.85171-0.18989-0.38742 0.80098-0.03304 0.74281
  -5  -1  -6 254.446 166.426   1-0.34529-0.31653 0.53378-0.94734-0.47554-0.23423
  -5  -2  10 99.4224 85.8652   3 0.04859-0.34530-0.73591 0.86945 0.26832 0.39283
  -5  -2   9 78.4577 105.154   3 0.05644-0.37688-0.76313 0.85647 0.22798 0.34475
  -5  -2   8 236.499 116.399   3 0.06383-0.40800-0.78762 0.84075 0.18902 0.29529
  -5  -2   8 122.055 72.6512   2-0.93885 0.59468-0.47741 0.53054-0.44237 0.92669
  -5  -2   7 3436.28 207.303   3 0.07068-0.43857-0.80929 0.82221 0.15200 0.24389
  -5  -2   7 3843.83 243.565   2-0.91538 0.54749-0.49282 0.50574-0.55409 0.94998
  -5  -2   6 396.983 107.179   3 0.07685-0.46846-0.82795 0.80066 0.11782 0.18965
  -5  -2   6 445.824 128.514   2-0.87162 0.48001-0.50010 0.47281-0.66604 0.97352
  -5  -2   5 3.28504 30.4524   3 0.08210-0.49744-0.84313 0.77563 0.08812 0.13094
  -5  -2   5 21.1600 76.9544   2-0.80350 0.38816-0.49633 0.42883-0.77245 0.99151
  -5  -2   4 3402.49 206.278   2-0.70918 0.27012-0.47893 0.37122-0.86513 0.99577
  -5  -2   3 3503.57 187.583   2-0.59156 0.12877-0.44714 0.29922-0.93533 0.97756
  -5  -2   2 275.441 82.5063   1-0.58861 0.10209 0.19935-0.38748-0.68991 0.64372
   5   2  -2 163.231 76.9697   5 0.54348-0.05697-0.71960 0.90773-0.00521 0.05140
  -5  -2   2 140.504 59.8847   2-0.45957-0.02695-0.40327 0.21514-0.97736 0.93116
  -5  -2   1 1811.66 163.389   2-0.32608-0.18416-0.35264 0.12431-0.99169 0.85708
  -5  -2   1 1905.72 133.666   1-0.51713 0.00689 0.31481-0.54315-0.62985 0.49524
  -5  -2   0 127.204 71.0069   2-0.20322-0.33074-0.30156 0.03301-0.98472 0.76170
   5   2   0 192.167 101.705   4 0.57392-0.03996-0.67099 0.93954-0.41785 0.64088
   5   2   0 82.3819 58.9996   5 0.57866-0.04470-0.68344 0.95199 0.03656 0.18647
  -5  -2   0 123.161 64.4388   1-0.46585-0.06811 0.38748-0.65603-0.58505 0.36202
  -5  -2  -1 973.553 138.921   2-0.09870-0.45899-0.25510-0.05366-0.96534 0.65389
   5   2   1 796.554 124.783   4 0.65538-0.09769-0.61138 0.92014-0.32772 0.63917
  -5  -2  -1 978.441 161.334   1-0.43223-0.12546 0.43145-0.74021-0.55504 0.24360
   5   2   1 674.007 122.450   5 0.60327-0.04558-0.65598 0.96474 0.06689 0.24455
  -5  -2  -2 819.943 153.533   2-0.01517-0.56625-0.21610-0.13286-0.94146 0.54160
   5   2   2 611.588 151.077   4 0.72230-0.14089-0.55110 0.90006-0.24277 0.64263
  -5  -2  -2 799.699 161.735   1-0.41273-0.16868 0.45575-0.80471-0.53745 0.13759
   5   2   2 478.440 106.265   5 0.62982-0.04841-0.62409 0.97306 0.10076 0.29910
  -5  -2  -3 1695.59 181.554   2 0.04817-0.65331-0.18545-0.20372-0.91848 0.43020
   5   2   3 1524.85 201.333   4 0.77753-0.17239-0.49094 0.88011-0.16261 0.65089
  -5  -2  -3 1830.18 224.939   1-0.40431-0.20083 0.46599-0.85517-0.52980 0.04152
   5   2   3 1201.50 181.857   5 0.65722-0.05209-0.58840 0.97758 0.13713 0.35115
  -5  -2  -4 247.780 107.638   2 0.09373-0.72259-0.16282-0.26656-0.89935 0.32265
   5   2   4 372.536 159.174   4 0.82323-0.19437-0.43115 0.86053-0.08663 0.66333
  -5  -2  -4 316.618 147.119   1-0.40453-0.22433 0.46572-0.89511-0.53000-0.04669
   5   2   4 103.163 93.9653   5 0.68475-0.05589-0.54924 0.97862 0.17535 0.40135
  -5  -2  -5 81.3151 100.238   2 0.12429-0.77687-0.14737-0.32222-0.88529 0.22017
   5   2   5 71.2432 71.2544   4 0.86101-0.20842-0.37170 0.84129-0.01415 0.67927
  -5  -2  -5 276.613 145.727   1-0.41158-0.24101 0.45716-0.92675-0.53640-0.12871
   5   2   5 221.302 129.791   5 0.71189-0.05930-0.50679 0.97638 0.21498 0.45014
  -5  -3  11 109.449 134.791   3 0.05838-0.34587-0.76966 0.84718 0.21786 0.48794
  -5  -3  10 293.585 154.127   3 0.06756-0.37877-0.79955 0.83685 0.16897 0.44841
  -5  -3   9 49.2832 86.3983   3 0.07650-0.41143-0.82690 0.82400 0.11980 0.40916
  -5  -3   8 61.4832 59.2045   3 0.08521-0.44387-0.85181 0.80870 0.07024 0.37030
  -5  -3   8 182.004 127.217   2-0.92806 0.56939-0.48681 0.44370-0.50414 0.94469
  -5  -3   7 188.135 66.8957   3 0.09373-0.47612-0.87432 0.79099 0.02011 0.33202
  -5  -3   7 411.866 135.147   2-0.89583 0.51344-0.49774 0.41442-0.61159 0.96371
  -5  -3   6 2227.31 172.811   3 0.10209-0.50821-0.89446 0.77093-0.03086 0.29457
  -5  -3   6 1771.17 171.100   2-0.84347 0.43736-0.49991 0.37638-0.71618 0.97989
  -5  -3   5 5782.74 237.798   2-0.76858 0.33875-0.49105 0.32731-0.81199 0.98729
  -5  -3   4 1656.61 175.310   2-0.67158 0.21802-0.46972 0.26577-0.89184 0.97872
  -5  -3   3 626.287 95.9742   1-0.69754 0.22025-0.02860-0.21556-0.77262 0.77108
  -5  -3   3 601.602 132.750   2-0.55722 0.07994-0.43643 0.19227-0.94941 0.94787
  -5  -3   2 568.714 92.9817   1-0.63493 0.13392 0.11258-0.39694-0.72681 0.63685
  -5  -3   2 605.018 150.503   2-0.43453-0.06648-0.39421 0.10984-0.98198 0.89202
  -5  -3   1 390.121 112.769   2-0.31428-0.21045-0.34791 0.02334-0.99181 0.81344
   5   3  -1 520.217 119.022   4 0.63645-0.11171-0.62643 0.95101-0.34982 0.52820
  -5  -3   1 487.528 123.726   1-0.58088 0.05615 0.21278-0.53736-0.68358 0.50521
  -5  -3   0 820.324 130.880   2-0.20553-0.34293-0.30255-0.06223-0.98502 0.71822
   5   3   0 692.378 118.930   4 0.70382-0.15536-0.56896 0.93375-0.26740 0.53420
   5   3   0 778.878 136.073   5 0.68894-0.14048-0.54295 0.90774 0.18133 0.08546
  -5  -3  -1 1621.29 189.727   2-0.11360-0.45859-0.26188-0.14311-0.96882 0.61361
   5   3   1 1333.69 147.830   4 0.75917-0.18698-0.51220 0.91719-0.19048 0.54569
  -5  -3  -1 1689.47 188.994   1-0.50989-0.06230 0.32552-0.73052-0.62361 0.26839
   5   3   1 1155.16 160.939   5 0.69958-0.12740-0.52656 0.93156 0.19674 0.15847
  -5  -3  -2 175.788 112.893   2-0.04013-0.55578-0.22793-0.21727-0.94936 0.50574
   5   3   2 132.678 97.6519   4 0.80509-0.20918-0.45621 0.90141-0.11807 0.56170
  -5  -3  -2 87.3119 88.8507   1-0.49145-0.10446 0.35211-0.79732-0.60757 0.16395
   5   3   2 190.613 106.499   5 0.71411-0.11820-0.50313 0.94833 0.21832 0.22531
  -5  -3  -3 930.540 160.273   2 0.01569-0.63533-0.20129-0.28413-0.93079 0.39874
   5   3   3 1117.90 191.201   4 0.84339-0.22376-0.40082 0.88623-0.04930 0.58135
  -5  -3  -3 1108.24 178.180   1-0.48219-0.13745 0.36512-0.85053-0.59945 0.06741
  -5  -3  -4 41.6666 103.704   2 0.05580-0.69916-0.18169-0.34393-0.91543 0.29497
  -5  -3  -4 63.8801 100.850   1-0.48050-0.16286 0.36746-0.89308-0.59797-0.02249
  -5  -3  -5 32.4207 92.3074   2 0.08242-0.74951-0.16849-0.39734-0.90430 0.19542
   5   3   5 7.87887 67.4276   4 0.90177-0.23468-0.29088 0.85671 0.08013 0.62875
  -5  -3  -5 41.3500 86.4538   1-0.48505-0.18203 0.36112-0.92695-0.60197-0.10691
  -5  -4  11 584.591 171.414   3 0.07533-0.37731-0.82344 0.80471 0.12631 0.53572
  -5  -4  10-28.0244 57.2828   3 0.08517-0.41088-0.85170 0.79276 0.07048 0.50314
  -5  -4   9 206.418 141.081   3 0.09486-0.44430-0.87716 0.77802 0.01332 0.47188
  -5  -4   9 205.668 127.677   2-0.93790 0.58846-0.47855 0.37941-0.44922 0.93442
  -5  -4   8 57.5506 89.6330   3 0.10446-0.47762-0.89977 0.76042-0.04560 0.44238
  -5  -4   8 73.9185 93.2990   2-0.91586 0.54270-0.49265 0.35330-0.55244 0.94922
  -5  -4   7 21.4685 57.0725   3 0.11400-0.51089-0.91934 0.73978-0.10687 0.41523
  -5  -4   7 15.2519 56.0197   2-0.87720 0.48031-0.49981 0.32025-0.65463 0.96300
  -5  -4   6 427.278 114.023   3 0.12357-0.54418-0.93554 0.71577-0.17136 0.39130
  -5  -4   6 501.616 130.743   2-0.81948 0.39888-0.49813 0.27836-0.75161 0.97156
  -5  -4   5 51.2844 55.3677   2-0.74183 0.29749-0.48601 0.22604-0.83782 0.96935
  -5  -4   4 11966.3 275.058   1-0.75825 0.29019-0.22383-0.07636-0.80718 0.85029
  -5  -4   4 11770.1 339.195   2-0.64618 0.17812-0.46295 0.16276-0.90744 0.95055
  -5  -4   3 617.520 114.091   1-0.71599 0.22421-0.07863-0.26177-0.78471 0.73940
  -5  -4   3 369.905 140.883   2-0.53807 0.04628-0.43022 0.08983-0.95624 0.91094
  -5  -4   2 1965.10 168.193   1-0.67083 0.15532 0.03599-0.41660-0.75382 0.62009
  -5  -4   2 1857.04 154.966   2-0.42573-0.08978-0.39097 0.01037-0.98338 0.84966
  -5  -4   1 71.9015 82.1054   2-0.31790-0.22134-0.34937-0.07145-0.99179 0.76965
   5   4  -1 88.6841 90.7640   4 0.76449-0.22525-0.50618 0.92700-0.18254 0.40468
  -5  -4   1 68.0835 75.3541   1-0.63019 0.09096 0.12201-0.54282-0.72313 0.50099
  -5  -4   0 22.1843 56.5772   2-0.22138-0.34158-0.30935-0.15167-0.98686 0.67630
   5   4   0 19.4486 57.9027   4 0.80504-0.24208-0.45627 0.91730-0.11816 0.42872
  -5  -4   0 32.9394 56.2328   1-0.59734 0.03438 0.18383-0.64485-0.69701 0.38645
  -5  -4  -1 1784.58 202.272   2-0.14001-0.44668-0.27378-0.22746-0.97442 0.57544
   5   4   1 1677.33 197.513   4 0.83948-0.25280-0.40693 0.90817-0.05677 0.45574
  -5  -4  -2 18.0614 84.6901   2-0.07488-0.53553-0.24415-0.29729-0.95928 0.47188
   5   4   2-5.15373 51.8584   4 0.86885-0.25844-0.35780 0.89924 0.00239 0.48500
  -5  -4  -3 578.631 185.395   2-0.02532-0.60882-0.22093-0.36072-0.94475 0.36894
   5   4   3 494.763 169.869   4 0.89381-0.25968-0.30859 0.89024 0.05986 0.51595
  -5  -4  -4 109.922 150.642   2 0.01019-0.66805-0.20394-0.41791-0.93276 0.26854
  -5  -4  -4 73.5700 123.191   1-0.54611-0.11175 0.27024-0.89210-0.65459-0.00964
  -5  -5  11 74.5480 94.9894   3 0.09071-0.40719-0.86655 0.75159 0.03810 0.58017
  -5  -5  10 901.061 187.572   3 0.10088-0.44109-0.89167 0.73650-0.02336 0.55321
  -5  -5   9 349.697 154.029   3 0.11090-0.47483-0.91333 0.71795-0.08665 0.52809
  -5  -5   9 131.446 106.034   2-0.93123 0.56730-0.48466 0.28929-0.48875 0.93018
  -5  -5   8 823.529 157.130   3 0.12079-0.50844-0.93122 0.69563-0.15225 0.50527
  -5  -5   8 885.576 191.513   2-0.90450 0.51684-0.49601 0.26042-0.58813 0.94114
  -5  -5   7-4.42601 54.1658   3 0.13054-0.54192-0.94479 0.66900-0.22071 0.48531
  -5  -5   7 55.4258 74.8814   2-0.86181 0.45043-0.50032 0.22452-0.68479 0.94939
  -5  -5   6 1180.27 158.354   2-0.80173 0.36663-0.49610 0.18010-0.77464 0.95082
  -5  -5   5 1151.70 184.818   2-0.72452 0.26569-0.48238 0.12616-0.85283 0.94059
  -5  -5   4 1196.09 143.788   1-0.76296 0.28040-0.24500-0.15143-0.80884 0.80819
  -5  -5   4 1074.84 178.057   2-0.63301 0.15045-0.45929 0.06286-0.91484 0.91419
  -5  -5   3 2886.56 187.933   1-0.73250 0.22622-0.12874-0.30789-0.79461 0.70553
  -5  -5   3 2530.48 216.336   2-0.53272 0.02644-0.42847-0.00817-0.95802 0.86895
  -5  -5   2 1434.92 183.996   1-0.69967 0.16966-0.03413-0.44272-0.77407 0.59658
  -5  -5   2 1201.03 172.865   2-0.43085-0.09916-0.39286-0.08398-0.98258 0.80509
  -5  -5   1 33.0182 80.7629   2-0.33436-0.21937-0.35594-0.16111-0.99150 0.72560
  -5  -5   1 40.3477 55.8672   1-0.66931 0.11558 0.03944-0.55649-0.75271 0.48680
  -5  -5   0 136.033 97.0667   2-0.24850-0.32895-0.32085-0.23641-0.98936 0.63503
  -5  -5   0 109.371 74.1093   1-0.64398 0.06652 0.09418-0.65144-0.73377 0.37944
  -5  -5  -1 165.351 148.539   2-0.17615-0.42504-0.28978-0.30769-0.98085 0.53811
   5   5   1 67.5429 90.1013   4 0.89772-0.29654-0.30003 0.89750 0.06969 0.37305
  -5  -5  -1 82.3325 105.706   1-0.62469 0.02350 0.13279-0.73026-0.71882 0.27608
  -5  -5  -2 64.2003 107.254   2-0.11814-0.50676-0.26394-0.37374-0.96984 0.43868
   5   5   2 48.3301 108.241   4 0.91495-0.29004-0.25864 0.89632 0.11651 0.41465
  -5  -5  -3 620.290 201.094   2-0.07400-0.57463-0.24374-0.43415-0.95904 0.33947
   5   5   3 705.927 225.629   4 0.92987-0.28124-0.21597 0.89386 0.16365 0.45593
  -5  -6  11 233.693 166.652   3 0.10418-0.43516-0.89916 0.68796-0.04387 0.61838
  -5  -6  10 117.211 123.616   3 0.11434-0.46904-0.91998 0.66857-0.10908 0.59517
  -5  -6  10 52.9873 94.0033   2-0.94147 0.58677-0.47362 0.22221-0.42057 0.90666
  -5  -6   9 156.748 96.1124   3 0.12424-0.50267-0.93654 0.64492-0.17603 0.57370
  -5  -6   9 241.200 130.047   2-0.92518 0.54675-0.48848 0.19687-0.51685 0.91452
  -5  -6   8 781.914 148.808   3 0.13386-0.53601-0.94831 0.61648-0.24496 0.55421
  -5  -6   8 918.332 194.225   2-0.89562 0.49347-0.49777 0.16595-0.61212 0.92137
  -5  -6   7-6.08263 48.8886   2-0.85121 0.42533-0.50020 0.12817-0.70346 0.92429
  -5  -6   6 191.503 100.495   2-0.79131 0.34171-0.49468 0.08243-0.78711 0.91952
  -5  -6   5 611.308 162.134   1-0.78379 0.31046-0.38364-0.06881-0.80856 0.85256
  -5  -6   5 509.207 152.055   2-0.71696 0.24363-0.48070 0.02825-0.85900 0.90300
  -5  -6   4 25.7106 67.9656   1-0.76880 0.27174-0.27411-0.21855-0.81041 0.76599
  -5  -6   4 20.5892 91.2482   2-0.63135 0.13430-0.45882-0.03384-0.91574 0.87132
  -5  -6   3 965.069 174.390   1-0.74701 0.22623-0.17890-0.35397-0.80227 0.66944
  -5  -6   3 1103.92 179.324   2-0.53964 0.01886-0.43074-0.10213-0.95571 0.82287
  -5  -6   2 465.632 137.973   1-0.72325 0.17875-0.09993-0.47315-0.78919 0.56793
  -5  -6   2 233.094 94.9781   2-0.44789-0.09662-0.39907-0.17401-0.97963 0.75838
  -5  -6   1 1040.04 200.880   1-0.70083 0.13260-0.03716-0.57613-0.77485 0.46517
  -5  -6   1 663.111 163.495   2-0.36172-0.20650-0.36670-0.24659-0.99025 0.68058
  -5  -6   0 7.51632 54.9300   2-0.28527-0.30669-0.33612-0.31738-0.99137 0.59328
  -5  -6   0 51.5319 88.8502   1-0.68172 0.08976 0.01059-0.66409-0.76164 0.36355
  -5  -6  -1 14.5699 87.6011   2-0.22081-0.39487-0.30911-0.38460-0.98680 0.50029
  -5  -6  -1 90.9985 138.343   1-0.66689 0.05121 0.04489-0.73859-0.75094 0.26443
  -5  -7  10 92.9892 106.426   3 0.12541-0.49461-0.93821 0.59057-0.18419 0.62651
  -5  -7  10 118.819 135.405   2-0.93905 0.56985-0.47715 0.12951-0.44083 0.88315
  -5  -7   9 140.850 102.543   3 0.13484-0.52776-0.94922 0.56137-0.25223 0.60613
  -5  -7   9 154.647 122.353   2-0.92095 0.52802-0.49058 0.10272-0.53393 0.88783
  -5  -7   8 34.0795 74.1233   2-0.89036 0.47371-0.49855 0.07049-0.62514 0.89062
  -5  -7   7 442.218 137.606   2-0.84625 0.40588-0.50004 0.03176-0.71168 0.88875
  -5  -7   6 150.430 108.417   2-0.78860 0.32449-0.49428-0.01420-0.79024 0.87889
  -5  -7   5 111.606 101.441   1-0.78493 0.29711-0.39866-0.15003-0.80729 0.80752
  -5  -7   5 6.54701 51.2793   2-0.71885 0.23102-0.48113-0.06756-0.85747 0.85771
  -5  -7   4 290.053 149.758   1-0.77467 0.26312-0.30821-0.28069-0.81118 0.72300
  -5  -7   4 83.3661 73.3349   2-0.64023 0.12868-0.46131-0.12759-0.91084 0.82266
  -5  -7   3 14.2523 69.9669   1-0.75947 0.22419-0.22912-0.39999-0.80764 0.63103
  -5  -7   2 45.1956 88.5898   1-0.74257 0.18357-0.16278-0.50654-0.80006 0.53504
  -5  -7   1 43.2931 77.1081   1-0.72634 0.14362-0.10934-0.60019-0.79104 0.43760
  -5  -7   0 94.3925 124.702   1-0.71231 0.10586-0.06822-0.68152-0.78237 0.34052
  -5  -8   6 32.6023 82.3858   1-0.78591 0.30731-0.50402-0.10070-0.79052 0.83541
  -5  -8   5 194.835 151.494   1-0.78620 0.28388-0.42121-0.22372-0.80488 0.76134
  -5  -8   4 186.049 145.622   1-0.77989 0.25384-0.34564-0.33949-0.81065 0.67870
  -5  -8   3 157.145 135.461   1-0.76978 0.22000-0.27939-0.44595-0.81061 0.59024
  -5  -8   2 50.9889 100.791   1-0.75818 0.18468-0.22350-0.54205-0.80715 0.49837
  -6   8   1 145.607 167.067   0 0.19216-0.65842 0.73650-0.01767-0.23085 0.50679
  -6   8   0 58.1518 115.890   0 0.24012-0.73010 0.72112-0.04250-0.23493 0.42246
  -6   8  -1-4.54306 87.3691   0 0.27811-0.79182 0.70726-0.06885-0.23772 0.33683
  -6   8  -2 46.7535 106.220   0 0.30677-0.84420 0.69579-0.09759-0.23955 0.25024
  -6   8  -3 42.4907 99.5586   0 0.32658-0.88774 0.68733-0.12934-0.24067 0.16294
  -6   8  -4 1419.40 256.470   0 0.33787-0.92275 0.68231-0.16453-0.24126 0.07511
  -6   7   2 60.8323 120.329   0 0.12840-0.58543 0.75344-0.09064-0.22448 0.54507
   6  -7  -2 82.4917 95.5759   5-0.52095 0.97797-0.84393 0.18113-0.77595 0.45536
  -6   7   2 55.4957 120.147   4 0.45147-0.90850 0.74829-0.08549 0.90224-0.58165
   6  -7  -1 69.6190 124.722   5-0.47817 0.95892-0.87282 0.25023-0.76221 0.53004
  -6   7   1 164.055 139.986   0 0.18436-0.66511 0.73878-0.11619-0.23012 0.46230
  -6   7   0 248.974 144.754   0 0.22967-0.73415 0.72466-0.14229-0.23409 0.37785
   6  -7   0 0.11962 63.3982   5-0.42703 0.93151-0.90219 0.31981-0.74317 0.59941
  -6   7  -1 99.5588 99.2923   0 0.26493-0.79314 0.71224-0.17007-0.23680 0.29214
   6  -7   1-3.90580 67.1198   5-0.36775 0.89595-0.93002 0.38785-0.71792 0.66257
  -6   7  -2 348.681 151.488   0 0.29063-0.84256 0.70236-0.20039-0.23855 0.20547
   6  -7   2 50.5972 99.7279   5-0.30090 0.85283-0.95423 0.45227-0.68580 0.71888
  -6   7  -3 965.823 199.292   0 0.30714-0.88279 0.69563-0.23388-0.23957 0.11808
   6  -7   3 158.340 120.570   5-0.22751 0.80317-0.97291 0.51116-0.64653 0.76802
  -6   7  -4-6.64573 87.6990   0 0.31466-0.91404 0.69247-0.27093-0.24001 0.03010
   6  -7   4 4.33874 90.4428   5-0.14891 0.74829-0.98446 0.56291-0.60015 0.81006
  -6   7  -5-5.25646 70.3168   0 0.31322-0.93632 0.69308-0.31175-0.23993-0.05840
  -6   7  -5 105.106 91.4448   1 0.28496-0.90806 0.92971-0.54838 0.15938-0.45770
  -6   7  -6 316.950 175.102   0 0.30261-0.94944 0.69751-0.35638-0.23930-0.14745
  -6   7  -6 150.407 98.7060   1 0.24199-0.88881 0.92047-0.57934 0.11308-0.49982
  -6   6   4 74.2960 150.904   4 0.53921-0.96328 0.70325-0.05627 0.89394-0.44027
  -6   6   3 319.225 140.612   0 0.04638-0.49418 0.76956-0.16279-0.21476 0.58001
   6  -6  -3 89.8658 108.275   5-0.53980 0.98760-0.82981 0.22304-0.78130 0.41605
  -6   6   3 298.848 138.117   4 0.49426-0.94205 0.72770-0.12093 0.89952-0.53427
  -6   6   2 485.843 181.695   0 0.11074-0.58227 0.75745-0.19089-0.22253 0.49936
   6  -6  -2 444.895 167.554   5-0.49783 0.96935-0.86006 0.29350-0.76879 0.49196
  -6   6   2 367.828 147.202   4 0.43663-0.90815 0.75486-0.18830 0.90264-0.62581
   6  -6  -1 30.3354 76.6041   5-0.44686 0.94211-0.89143 0.36508-0.75087 0.56246
  -6   6   1 51.7888 81.6962   0 0.16397-0.65922 0.74447-0.21812-0.22816 0.41657
  -6   6   0 1398.79 190.147   0 0.20654-0.72552 0.73213-0.24599-0.23214 0.33213
   6  -6   0 285.847 114.473   5-0.38711 0.90609-0.92162 0.43548-0.72652 0.62652
  -6   6  -1 1776.09 192.637   0 0.23887-0.78157 0.72155-0.27562-0.23483 0.24641
   6  -6   1 1219.42 192.439   5-0.31926 0.86196-0.94829 0.50236-0.69499 0.68341
  -6   6  -2 483.090 183.186   0 0.26128-0.82770 0.71358-0.30786-0.23653 0.15969
   6  -6   2 85.2601 75.2154   5-0.24449 0.81091-0.96929 0.56356-0.65597 0.73280
  -6   6  -3 580.658 159.413   0 0.27400-0.86414 0.70883-0.34332-0.23743 0.07218
   6  -6   3 84.6909 84.5322   5-0.16434 0.75449-0.98285 0.61734-0.60959 0.77485
  -6   6  -4 955.878 196.834   0 0.27708-0.89095 0.70766-0.38235-0.23765-0.01603
  -6   6  -4 972.958 196.461   1 0.26555-0.87943 0.92590-0.60059 0.13840-0.39208
   6  -6   4 116.861 69.0538   5-0.08056 0.69443-0.98779 0.66248-0.55642 0.81009
  -6   6  -5 91.9272 80.6040   1 0.22449-0.86208 0.91588-0.63078 0.09436-0.43645
   6  -6   5 11.9819 77.1469   5 0.00508 0.63252-0.98345 0.69835-0.49729 0.83938
  -6   6  -6 664.763 195.008   1 0.18164-0.84297 0.90273-0.65784 0.04887-0.47938
  -6   5   5 47.5262 84.1117   4 0.56877-0.98362 0.68545-0.09450 0.88860-0.39028
  -6   5   4 95.3841 125.522   4 0.52844-0.96701 0.70939-0.15865 0.89555-0.48565
  -6   5   3 102.107 93.3437   0 0.01783-0.48012 0.77370-0.26317-0.21098 0.53247
   6  -5  -3 44.9666 102.900   5-0.51025 0.97254-0.85155 0.34102-0.77272 0.45124
  -6   5   3 115.428 82.5871   4 0.47548-0.93778 0.73705-0.22651 0.90101-0.57953
  -6   5   2 166.483 96.9292   0 0.07900-0.56502 0.76391-0.29358-0.21883 0.45189
   6  -5  -2 29.5918 70.8721   5-0.45902 0.94504-0.88444 0.41412-0.75540 0.52233
  -6   5   1 83.6827 97.5863   0 0.12919-0.63894 0.75326-0.32314-0.22456 0.36921
   6  -5  -1 11.9336 57.2404   5-0.39828 0.90803-0.91648 0.48637-0.73133 0.58668
   6  -5   0 1925.49 212.755   5-0.32886 0.86233-0.94498 0.55508-0.69968 0.64345
  -6   5   0 3322.26 252.391   0 0.16863-0.70210 0.74321-0.35331-0.22862 0.28485
   6  -5   1 2604.93 236.633   5-0.25217 0.80937-0.96751 0.61782-0.66017 0.69236
  -6   5  -1 3640.77 237.921   0 0.19754-0.75473 0.73489-0.38519-0.23133 0.19915
  -6   5  -2 3011.66 221.972   0 0.21604-0.79696 0.72913-0.41964-0.23296 0.11235
   6  -5   2 1775.70 212.021   5-0.17009 0.75101-0.98217 0.67269-0.61307 0.73368
  -6   5  -3 840.706 190.986   0 0.22419-0.82883 0.72648-0.45721-0.23364 0.02462
  -6   5  -3 644.980 162.312   1 0.22969-0.83433 0.91729-0.64801 0.09991-0.30894
  -6   5  -4 3.59946 65.0011   0 0.22183-0.85020 0.72726-0.49819-0.23345-0.06399
  -6   5  -4 10.5379 61.0785   1 0.19253-0.82090 0.90632-0.67726 0.06038-0.35782
  -6   5  -5 2316.40 244.276   0 0.20858-0.86067 0.73149-0.54263-0.23231-0.15354
  -6   5  -5 1689.13 222.232   1 0.15318-0.80527 0.89253-0.70367 0.01889-0.40475
   6  -5   6 24.6049 93.9258   5 0.17350 0.50232-0.94746 0.79881-0.36704 0.84131
  -6   5  -6 30.6607 100.420   1 0.11202-0.78784 0.87578-0.72713-0.02412-0.45016
  -6   5  -7 314.682 187.236   1 0.06931-0.76886 0.85596-0.74752-0.06833-0.49436
   6  -5   7 235.328 144.008   4 0.57408 0.12547-0.67089 0.56245-0.41770 0.98039
  -6   4   6 50.0499 77.9879   4 0.59010-0.99572 0.67167-0.13675 0.88386-0.34089
  -6   4   5 207.962 159.159   4 0.55397-0.98332 0.69454-0.19983 0.89145-0.43690
  -6   4   4 103.845 84.1604   0-0.09392-0.35915 0.78267-0.32817-0.19426 0.56040
  -6   4   4 132.728 98.4340   4 0.50528-0.95835 0.72198-0.26748 0.89842-0.53229
  -6   4   3 1164.66 199.538   0-0.02582-0.45098 0.77858-0.36429-0.20482 0.48254
  -6   4   3 877.458 172.938   4 0.44227-0.91907 0.75239-0.33810 0.90252-0.62480
  -6   4   2 10.0421 54.3067   0 0.03151-0.53203 0.77181-0.39773-0.21282 0.40212
   6  -4  -2 14.5147 47.5335   5-0.39884 0.89936-0.91622 0.54213-0.73156 0.54226
  -6   4   1 2343.99 184.123   0 0.07797-0.60221 0.76410-0.43022-0.21870 0.31958
   6  -4  -1 1602.03 195.966   5-0.32714 0.85139-0.94558 0.61171-0.69885 0.59796
  -6   4   0 2104.49 191.984   0 0.11353-0.66150 0.75683-0.46317-0.22284 0.23531
   6  -4   0 1436.39 172.693   5-0.24799 0.79596-0.96849 0.67482-0.65789 0.64542
   6  -4   1 1388.25 177.103   5-0.16365 0.73534-0.98293 0.72947-0.60918 0.68513
  -6   4  -1 2360.51 181.834   0 0.13817-0.70986 0.75110-0.49764-0.22552 0.14957
   6  -4   2 8.98883 66.4622   5-0.07650 0.67192-0.98779 0.77455-0.55372 0.71809
  -6   4  -2 54.5460 82.8278   0 0.15178-0.74720 0.74768-0.53444-0.22693 0.06256
  -6   4  -3 1932.05 188.816   1 0.14138-0.76053 0.88797-0.71493 0.00652-0.25931
   6  -4   3 1470.63 176.489   5 0.01126 0.60788-0.98277 0.80973-0.49284 0.74562
  -6   4  -3 2488.50 196.535   0 0.15418-0.77332 0.74707-0.57403-0.22718-0.02561
  -6   4  -4 1624.07 184.905   1 0.10842-0.75129 0.87421-0.74138-0.02786-0.31335
  -6   4  -4 1386.10 168.907   0 0.14493-0.78780 0.74943-0.61660-0.22623-0.11498
  -6   4  -5 133.732 88.0555   1 0.07270-0.73929 0.85763-0.76501-0.06484-0.36478
   6  -4   5 42.7925 127.290   5 0.18195 0.48464-0.94467 0.85205-0.36000 0.78962
  -6   4  -6 899.124 224.697   1 0.03475-0.72507 0.83814-0.78573-0.10380-0.41424
   6  -4   6 684.132 205.224   5 0.26266 0.42766-0.91304 0.86063-0.29027 0.80831
  -6   4  -7 28.4922 91.0049   1-0.00505-0.70900 0.81565-0.80345-0.14432-0.46214
   6  -4   7 62.3109 124.865   4 0.63259 0.08146-0.62941 0.61721-0.35424 0.96070
  -6   3   8 19.8458 76.2371   4 0.62470-0.99736 0.64755-0.12845 0.87444-0.19840
  -6   3   7 1062.92 208.902   4 0.60296-0.99935 0.66298-0.18408 0.88062-0.29300
  -6   3   6 186.892 115.709   4 0.57059-0.99070 0.68431-0.24562 0.88823-0.38902
  -6   3   5 84.5248 99.2402   4 0.52567-0.96952 0.71094-0.31246 0.89593-0.48514
  -6   3   5 46.1179 58.1221   0-0.22082-0.22303 0.77857-0.38010-0.17145 0.58223
  -6   3   4 308.632 112.145   0-0.14821-0.31936 0.78282-0.42456-0.18501 0.50738
  -6   3   4 196.616 107.018   4 0.46627-0.93384 0.74145-0.38318 0.90157-0.57920
  -6   3   3 61.3071 92.9802   0-0.08548-0.40581 0.78240-0.46434-0.19563 0.42959
  -6   3   2 41.6798 62.5449   0-0.03312-0.48190 0.77923-0.50138-0.20374 0.34928
   6  -3  -2 64.7700 75.4654   5-0.30982 0.82484-0.95141 0.67357-0.69030 0.54476
  -6   3   1 12.6156 51.3416   0 0.00846-0.54720 0.77490-0.53726-0.20970 0.26682
   6  -3  -1 56.5620 70.2836   5-0.22773 0.76647-0.97286 0.73523-0.64665 0.58953
  -6   3   0 1611.04 153.169   0 0.03895-0.60141 0.77071-0.57328-0.21380 0.18250
   6  -3   0 1010.73 139.754   5-0.14111 0.70358-0.98515 0.78772-0.59532 0.62662
  -6   3  -1 624.380 124.354   0 0.05802-0.64422 0.76766-0.61044-0.21624 0.09652
   6  -3   1 439.813 113.339   5-0.05271 0.63891-0.98741 0.83019-0.53772 0.65743
  -6   3  -2 462.017 141.947   1 0.06485-0.67477 0.85375-0.73674-0.07292-0.13521
  -6   3  -2 403.665 123.081   0 0.06533-0.67524 0.76640-0.64939-0.21715 0.00902
  -6   3  -3 532.127 141.291   1 0.04313-0.67677 0.84261-0.76581-0.09523-0.20132
  -6   3  -3 440.333 103.678   0 0.06033-0.69397 0.76726-0.69046-0.21653-0.08002
  -6   3  -4 718.240 173.386   1 0.01632-0.67368 0.82798-0.79139-0.12262-0.26235
   6  -3   4 373.197 141.398   5 0.20294 0.45443-0.93732 0.90073-0.34231 0.72728
  -6   3  -5 24.1215 100.253   1-0.01427-0.66682 0.81014-0.81376-0.15366-0.31973
   6  -3   5 48.0984 84.7223   5 0.28108 0.40002-0.90451 0.90813-0.27369 0.74708
  -6   3  -6 36.5997 107.497   2 0.11802-0.82284-0.15056 0.10673-0.88825 0.32645
   6  -3   6 30.9137 91.4004   5 0.35484 0.34998-0.86514 0.90897-0.20463 0.76644
  -6   3  -6 50.9910 87.9893   1-0.04779-0.65703 0.78917-0.83300-0.18744-0.37436
  -6   3  -7 115.383 99.6824   2 0.15085-0.87940-0.13376 0.04972-0.87225 0.22202
  -6   3  -7 90.8426 141.690   1-0.08369-0.64485 0.76505-0.84909-0.22334-0.42688
  -6   2   8 923.953 197.975   4 0.60675-0.99392 0.66035-0.23749 0.87960-0.24733
  -6   2   7 32.0443 77.9299   4 0.57766-0.98855 0.67981-0.29715 0.88672-0.34286
  -6   2   6 1631.84 210.170   4 0.53598-0.97059 0.70511-0.36267 0.89444-0.43900
  -6   2   5 38.7415 56.8089   0-0.28211-0.17623 0.77085-0.46862-0.15888 0.52591
  -6   2   5 140.241 107.244   4 0.47957-0.93791 0.73505-0.43282 0.90073-0.53371
  -6   2   4 199.240 101.182   0-0.21703-0.26503 0.77892-0.51690-0.17219 0.45079
  -6   2   3 1402.46 145.865   0-0.16119-0.34460 0.78244-0.56062-0.18269 0.37287
  -6   2   2 354.191 129.063   0-0.11537-0.41415 0.78306-0.60146-0.19070 0.29247
  -6   2   2 229.488 80.6353   2-0.71253 0.18301-0.47970 0.66131-0.86252 0.96429
   6  -2  -2 208.150 79.3831   5-0.18432 0.71384-0.98030 0.79869-0.62158 0.51981
  -6   2   1 2359.03 174.023   0-0.08026-0.47298 0.78220-0.64080-0.19647 0.20983
  -6   2   1 1997.10 149.059   2-0.57809 0.02485-0.44300 0.58440-0.94115 0.95450
  -6   2   0 109.832 89.7352   0-0.05649-0.52047 0.78096-0.67977-0.20021 0.12514
   6  -2   0 84.0210 90.5031   5-0.00824 0.58520-0.98474 0.88355-0.50680 0.58186
  -6   2   0 61.8236 63.6251   2-0.42914-0.14783-0.39223 0.49342-0.98285 0.90779
  -6   2  -1 590.096 100.436   2-0.28390-0.31679-0.33555 0.39654-0.99133 0.82784
  -6   2  -1 754.053 153.827   0-0.04468-0.55601 0.78015-0.71916-0.20201 0.03853
   6  -2   1 517.380 116.137   5 0.07777 0.52292-0.97242 0.91144-0.44336 0.60685
  -6   2  -1 730.925 121.146   1-0.04370-0.55699 0.79181-0.73083-0.18334 0.01985
  -6   2  -2 415.431 108.414   2-0.15627-0.46814-0.28102 0.30179-0.97749 0.72559
  -6   2  -2 331.246 118.758   0-0.04552-0.57889 0.78021-0.75944-0.20189-0.05002
  -6   2  -2 433.188 131.613   1-0.04697-0.57745 0.78970-0.76893-0.18662-0.06528
  -6   2  -3 32.7511 85.4257   2-0.05253-0.59561-0.23375 0.21431-0.95305 0.61273
  -6   2  -3 53.6900 58.0033   0-0.05993-0.58821 0.78117-0.80061-0.19968-0.14064
   6  -2   3 29.9065 81.0763   5 0.23854 0.40960-0.92346 0.94289-0.31160 0.65192
  -6   2  -3 9.92939 55.4163   1-0.05995-0.58819 0.78119-0.80063-0.19964-0.14068
  -6   2  -4 9.95863 48.1607   2 0.02705-0.69892-0.19578 0.13613-0.92661 0.49787
  -6   2  -4 4.39121 54.3999   1-0.07967-0.59220 0.76784-0.82748-0.21934-0.20940
  -6   2  -5 218.975 101.157   2 0.08521-0.78080-0.16709 0.06724-0.90310 0.38594
   6  -2   5 526.402 175.461   4 0.59863 0.09696-0.65427 0.75413-0.39183 0.90898
   6  -2   5 141.816 83.7781   5 0.38135 0.31424-0.84883 0.94869-0.17872 0.69587
  -6   2  -5 486.012 160.326   1-0.10433-0.59126 0.75040-0.85026-0.24385-0.27330
  -6   2  -6 78.7606 112.505   2 0.12545-0.84476-0.14678 0.00672-0.88473 0.27916
   6  -2   6 45.3200 112.420   5 0.44598 0.27334-0.80381 0.94388-0.11286 0.71843
  -6   2  -6 62.3363 93.4178   1-0.13277-0.58655 0.72927-0.86933-0.27195-0.33362
  -6   2  -7 72.7265 106.884   2 0.15104-0.89408-0.13366-0.04661-0.87215 0.17816
  -6   1   9 844.116 222.712   3-0.01366-0.36428-0.48067 0.84751 0.55227 0.12466
  -6   1   8 102.589 85.3526   3-0.01186-0.38981-0.48901 0.81564 0.54489 0.04362
  -6   1   7 1601.99 208.046   4 0.53498-0.96036 0.70569-0.41927 0.89459-0.39450
  -6   1   7 2049.30 223.046   3-0.01187-0.41352-0.48895 0.77536 0.54495-0.04486
  -6   1   6 55.1883 81.1633   3-0.01432-0.43479-0.47761 0.72382 0.55495-0.14328
  -6   1   6 105.229 89.7935   0-0.41817-0.03094 0.73883-0.49263-0.12701 0.53869
  -6   1   6 36.9201 76.6384   2-0.93086 0.48175-0.48493 0.73114-0.49062 0.90230
  -6   1   6 106.235 89.6304   4 0.48082-0.92994 0.73444-0.48823 0.90064-0.48896
  -6   1   5 20.7668 62.9665   3-0.02017-0.45267-0.45012 0.65612 0.57845-0.25519
  -6   1   5 63.0817 80.0946   0-0.35460-0.11824 0.75650-0.55050-0.14263 0.46589
  -6   1   5 42.1717 57.1625   2-0.89586 0.42303-0.49773 0.70373-0.61149 0.93475
  -6   1   4 697.820 141.647   0-0.29864-0.19793 0.76810-0.60231-0.15532 0.39016
  -6   1   4 569.087 129.217   2-0.83499 0.33842-0.49943 0.66522-0.72935 0.96419
  -6   1   3 1741.44 172.064   0-0.25141-0.26888 0.77521-0.64963-0.16531 0.31173
  -6   1   3 1568.59 154.979   2-0.74495 0.22466-0.48664 0.61222-0.83498 0.98140
  -6   1   2 101.344 69.7228   0-0.21392-0.33009 0.77920-0.69383-0.17279 0.23080
   6  -1  -2 172.722 73.9551   5-0.01951 0.56352-0.98565 0.90028-0.51475 0.45675
  -6   1   2 103.434 81.3969   2-0.62775 0.08374-0.45780 0.54317-0.91767 0.97567
  -6   1   1 4269.43 203.259   0-0.18712-0.38061 0.78119-0.73603-0.17791 0.14750
   6  -1  -1 2377.53 153.183   5 0.06418 0.50355-0.97500 0.92984-0.45370 0.48412
  -6   1   1 3469.16 186.400   2-0.49263-0.07511-0.41491 0.46007-0.96974 0.93933
  -6   1   0 1277.55 144.546   2-0.35388-0.23759-0.36363 0.36859-0.99071 0.87188
  -6   1   0 1389.12 142.927   0-0.17193-0.41954 0.78200-0.77705-0.18073 0.06190
  -6   1  -1 110.474 60.2520   2-0.22526-0.38993-0.31101 0.27575-0.98727 0.78002
  -6   1  -1 198.376 84.3634   0-0.16925-0.44594 0.78212-0.81738-0.18122-0.02603
   6  -1   1 164.765 88.5346   5 0.21989 0.39530-0.93094 0.96620-0.32780 0.53505
  -6   1  -1 279.093 107.864   1-0.16384-0.45135 0.70490-0.74016-0.30243 0.09518
  -6   1  -2 91.7251 81.3899   2-0.11549-0.52343-0.26274 0.18727-0.96925 0.67358
  -6   1  -2 38.5434 69.2698   0-0.18017-0.45874 0.78159-0.85705-0.17921-0.11646
   6  -1   2 90.2873 116.500   5 0.29095 0.34796-0.89973 0.97520-0.26469 0.56036
  -6   1  -2 49.7314 71.7823   1-0.15742-0.48150 0.71005-0.78552-0.29615 0.00048
   6  -1   3 7.08346 45.3921   5 0.35750 0.30514-0.86356 0.97924-0.20206 0.58615
  -6   1  -3 29.7125 58.1995   1-0.16232-0.50032 0.70613-0.82180-0.30094-0.08314
  -6   1  -4 608.277 165.045   2 0.03927-0.72563-0.18982 0.03393-0.92197 0.44946
   6  -1   4 553.688 156.555   4 0.59523 0.09113-0.65664 0.81252-0.39548 0.86798
  -6   1  -5 33.7041 91.2460   2 0.08765-0.79774-0.16587-0.03022-0.90203 0.34111
   6  -1   5 61.5615 122.678   4 0.67294 0.03715-0.59668 0.79277-0.30651 0.86743
   6  -1   5 63.7979 95.0910   5 0.47791 0.23218-0.77856 0.97466-0.07879 0.63971
  -6   1  -6 295.186 167.539   2 0.12052-0.85433-0.14929-0.08701-0.88708 0.23774
   6  -1   6 300.052 136.820   4 0.73941-0.00560-0.53362 0.76993-0.21906 0.86839
  -6   1  -6 521.506 176.490   1-0.21736-0.51646 0.65971-0.89602-0.35438-0.29495
  -6   0   9 70.3652 89.4529   3 0.00573-0.39817-0.56739 0.83799 0.47036 0.16280
  -6   0   8 988.977 205.060   3 0.00855-0.42471-0.57947 0.80986 0.45795 0.08679
  -6   0   7 130.398 106.562   3 0.00968-0.44956-0.58425 0.77443 0.45297 0.00335
  -6   0   7 119.013 102.291   2-0.93442 0.49453-0.48208 0.67226-0.47135 0.92768
  -6   0   6 416.244 116.233   0-0.48767 0.02406 0.71342-0.56345-0.10830 0.47621
  -6   0   6 424.517 138.758   3 0.00845-0.47207-0.57906 0.72903 0.45838-0.09047
  -6   0   6 552.460 148.496   2-0.90542 0.44180-0.49579 0.64576-0.58547 0.95338
  -6   0   5 18.3560 63.0149   0-0.43508-0.05225 0.73327-0.62351-0.12262 0.40212
  -6   0   5-2.66519 45.6548   2-0.85460 0.36727-0.50028 0.61004-0.69765 0.97714
  -6   0   4 358.094 121.061   0-0.38961-0.12145 0.74739-0.67784-0.13419 0.32527
  -6   0   4 253.683 104.823   2-0.77886 0.26780-0.49277 0.56232-0.80111 0.99218
  -6   0   3 2868.57 198.772   0-0.35251-0.18228 0.75700-0.72766-0.14312 0.24578
  -6   0   3 2125.91 152.085   2-0.67831 0.14352-0.47144 0.50078-0.88740 0.99005
  -6   0   2 758.734 153.434   0-0.32495-0.23356 0.76308-0.77395-0.14947 0.16371
  -6   0   2 725.141 139.329   2-0.55828-0.00023-0.43676 0.42590-0.94902 0.96326
  -6   0   1 1777.78 177.758   0-0.30807-0.27417 0.76639-0.81746-0.15324 0.07907
   6   0  -1 1180.89 131.935   5 0.24049 0.34175-0.92265 0.97372-0.30989 0.38407
  -6   0   1 1483.85 155.689   2-0.42911-0.15312-0.39222 0.34114-0.98286 0.90868
  -6   0   0 4983.43 228.096   2-0.30298-0.30298-0.34335 0.25206-0.99176 0.82917
  -6   0   0 6103.48 244.441   0-0.30298-0.30298 0.76732-0.85861-0.15437-0.00823
  -6   0   0 5782.60 221.942   1-0.30298-0.30298 0.57841-0.66969-0.43598 0.27339
   6   0   0 3858.63 200.596   5 0.30298 0.30298-0.89371 0.98500-0.25364 0.41623
  -6   0  -1 252.556 79.0557   2-0.18974-0.43995-0.29571 0.16422-0.98290 0.73188
  -6   0  -1 383.651 121.827   0-0.31088-0.31880 0.76586-0.89735-0.15262-0.09839
   6   0   1 235.440 95.2064   5 0.36200 0.26769-0.86086 0.99235-0.19769 0.44871
  -6   0  -1 393.224 125.295   1-0.27360-0.35609 0.60762-0.73911-0.40820 0.15719
  -6   0  -2 71.9031 91.3087   2-0.09480-0.55861-0.25332 0.08161-0.96439 0.62496
   6   0   2 6.15717 39.2517   5 0.41771 0.23570-0.82446 0.99616-0.14215 0.48158
  -6   0  -2 38.7260 70.2513   1-0.26069-0.39272 0.62001-0.79171-0.39593 0.05649
  -6   0  -3 56.6161 83.1302   2-0.01948-0.65765-0.21816 0.00625-0.94287 0.51502
   6   0   3 91.2577 108.563   4 0.60210 0.07504-0.65184 0.86375-0.38809 0.81594
   6   0   3 74.1620 85.4422   5 0.47030 0.20684-0.78478 0.99669-0.08701 0.51486
  -6   0  -3 60.5443 75.7667   1-0.25943-0.41771 0.62121-0.83312-0.39472-0.03313
  -6   0  -4 154.466 96.4311   2 0.03743-0.73829-0.19072-0.06141-0.92268 0.40641
   6   0   4 157.548 137.020   4 0.67704 0.02382-0.59314 0.84526-0.30145 0.81772
   6   0   4 195.211 117.302   5 0.51991 0.18095-0.74197 0.99410-0.03226 0.54853
  -6   0  -4 204.481 113.163   1-0.26668-0.43418 0.61429-0.86641-0.40163-0.11464
  -6   0  -5 309.338 137.869   2 0.07820-0.80278-0.17059-0.12174-0.90612 0.30143
   6   0   5 97.3542 118.022   4 0.74103-0.01644-0.53193 0.82426-0.21678 0.82146
   6   0   5 258.322 141.276   5 0.56670 0.15789-0.69613 0.98846 0.02216 0.58252
  -6   0  -5 164.898 97.1665   1-0.28038-0.44421 0.60100-0.89334-0.41463-0.19005
  -6   0  -6 20.9121 89.8546   2 0.10526-0.85357-0.15702-0.17552-0.89416 0.20106
  -6  -1  10 76.5536 128.766   3 0.02049-0.40370-0.62907 0.84364 0.40411 0.27370
  -6  -1   9 643.794 185.913   3 0.02567-0.43260-0.64983 0.82418 0.38005 0.20935
  -6  -1   8 108.223 106.842   3 0.02976-0.46042-0.66590 0.80005 0.36072 0.14026
  -6  -1   8 121.600 98.0822   2-0.93872 0.50806-0.47757 0.61172-0.44333 0.94431
  -6  -1   7 25.6506 49.9093   3 0.03242-0.48681-0.67619 0.77013 0.34801 0.06455
  -6  -1   7 65.7445 86.8587   2-0.91599 0.46161-0.49260 0.58654-0.55200 0.96456
  -6  -1   6 937.953 156.276   2-0.87478 0.39667-0.49995 0.55368-0.65965 0.98379
  -6  -1   5 418.808 117.766   2-0.81225 0.31041-0.49737 0.51089-0.76129 0.99702
  -6  -1   4 487.060 104.534   0-0.48501-0.04054 0.71452-0.74121-0.10905 0.25636
  -6  -1   4 440.410 112.207   2-0.72748 0.20192-0.48302 0.45633-0.85035 0.99765
  -6  -1   3 327.942 105.447   0-0.45885-0.09043 0.72478-0.79168-0.11628 0.17517
  -6  -1   3 325.452 124.154   2-0.62311 0.07383-0.45647 0.38957-0.92010 0.97900
  -6  -1   2 101.243 87.6785   0-0.44202-0.13098 0.73087-0.83797-0.12079 0.09127
  -6  -1   2 53.9691 71.8383   2-0.50602-0.06699-0.41951 0.31240-0.96614 0.93661
  -6  -1   1 1453.64 146.787   0-0.43575-0.16099 0.73304-0.88035-0.12245 0.00451
   6   1  -1 844.302 102.557   5 0.41142 0.18532-0.82885 0.97616-0.14857 0.26651
  -6  -1   1 1395.70 175.377   2-0.38595-0.21078-0.37603 0.22872-0.98832 0.87037
  -6  -1   0 237.990 87.2300   2-0.27257-0.34789-0.33089 0.14336-0.99086 0.78450
  -6  -1   0 307.489 104.201   0-0.44124-0.17922 0.73114-0.91867-0.12100-0.08536
  -6  -1   0 335.550 121.232   1-0.39996-0.22050 0.47122-0.65874-0.52585 0.31948
   6   1   0 212.216 113.340   5 0.45204 0.16842-0.79918 0.98670-0.10647 0.31283
  -6  -1  -1 3573.50 231.373   2-0.17285-0.47133-0.28833 0.06060-0.98032 0.68554
  -6  -1  -1 3891.64 209.421   1-0.36951-0.27467 0.50678-0.73451-0.49795 0.20317
  -6  -1  -2 1924.80 217.788   2-0.09016-0.57775-0.25119-0.01675-0.96323 0.58004
   6   1   2 1616.68 200.882   4 0.62010 0.04781-0.63882 0.90676-0.36833 0.75153
  -6  -1  -2 1804.85 173.671   1-0.35349-0.31442 0.52475-0.79270-0.48315 0.09996
   6   1   2 1272.01 185.155   5 0.53239 0.13552-0.73030 0.99824-0.01803 0.40123
  -6  -1  -3 75.2943 99.0025   2-0.02495-0.66669-0.22075-0.08740-0.94463 0.47302
   6   1   3 42.7543 79.9963   4 0.69043 0.00120-0.58128 0.88943-0.28465 0.75627
   6   1   3 68.4542 105.390   5 0.57123 0.12040-0.69137 0.99952 0.02759 0.44402
  -6  -1  -3 64.9085 70.4560   1-0.34835-0.34329 0.53043-0.83858-0.47838 0.00677
  -6  -1  -4 12.2012 67.8367   2 0.02402-0.73938-0.19725-0.15111-0.92774 0.36771
   6   1   4-31.9665 62.5079   4 0.75037-0.03501-0.52192 0.87028-0.20338 0.76341
   6   1   4 7.39695 74.2402   5 0.60882 0.10654-0.64952 0.99788 0.07386 0.48617
  -6  -1  -4 11.7991 74.7939   1-0.35153-0.36383 0.52692-0.87528-0.48134-0.07870
  -6  -1  -5 22.8762 79.3520   2 0.05869-0.79778-0.18027-0.20830-0.91426 0.26581
  -6  -1  -5 33.9016 103.032   1-0.36121-0.37787 0.51615-0.90472-0.49030-0.15815
  -6  -2  10 405.046 135.105   3 0.03933-0.43704-0.70229 0.82062 0.31450 0.31955
  -6  -2   9 287.190 157.104   3 0.04565-0.46708-0.72542 0.80354 0.28313 0.26251
  -6  -2   9 150.292 88.9514   2-0.94272 0.52129-0.47133 0.54945-0.40805 0.95368
  -6  -2   8 62.9189 95.9759   3 0.05116-0.49632-0.74494 0.78286 0.25524 0.20197
  -6  -2   8 37.8208 57.5949   2-0.92627 0.48112-0.48788 0.52579-0.51215 0.96936
  -6  -2   7 177.497 99.3326   2-0.89410 0.42522-0.49802 0.49572-0.61597 0.98476
  -6  -2   6 59.2325 67.9936   2-0.84369 0.35108-0.49992 0.45742-0.71583 0.99621
  -6  -2   5 235.897 127.135   2-0.77363 0.25730-0.49191 0.40920-0.80672 0.99868
  -6  -2   4 3442.89 231.225   2-0.68483 0.14478-0.47308 0.35016-0.88295 0.98649
  -6  -2   3 1517.91 185.617   2-0.58143 0.01765-0.44403 0.28090-0.93974 0.95487
  -6  -2   2-7.79525 42.3316   2-0.47055-0.11695-0.40718 0.20384-0.97502 0.90173
  -6  -2   1 22.3329 58.7774   1-0.52251-0.08872 0.30674-0.55030-0.63448 0.47277
   6   2  -1-4.78502 34.2309   5 0.55816 0.05307-0.70493 0.94849 0.01200 0.14971
  -6  -2   1 23.2808 61.3911   2-0.36066-0.25058-0.36628 0.12273-0.99032 0.82861
  -6  -2   0 43.3119 58.1323   2-0.25921-0.37575-0.32533 0.04157-0.99011 0.73998
   6   2   0 19.8499 54.2597   4 0.57537 0.05958-0.67004 0.95380-0.41635 0.66648
  -6  -2   0 16.5494 47.1919   1-0.47964-0.15532 0.36865-0.65241-0.59722 0.34709
   6   2   0 19.2950 45.1821   5 0.57938 0.05557-0.68267 0.96643 0.03744 0.21269
  -6  -2  -1 98.8556 73.0671   2-0.17115-0.48753-0.28758-0.03639-0.98004 0.64150
   6   2   1 215.350 120.284   4 0.64988 0.00881-0.61584 0.93981-0.33423 0.67277
  -6  -2  -1 192.383 114.455   1-0.45126-0.20742 0.40690-0.73087-0.57209 0.23354
   6   2   1 57.1920 56.7603   5 0.60380 0.05488-0.65537 0.97934 0.06756 0.27099
  -6  -2  -2 1813.90 228.017   2-0.09862-0.58379-0.25506-0.10912-0.96532 0.53836
   6   2   2 1330.59 188.284   4 0.71346-0.03106-0.55977 0.92395-0.25467 0.68163
  -6  -2  -2 1803.13 230.749   1-0.43474-0.24767 0.42826-0.79244-0.55730 0.13034
   6   2   2 1033.81 189.141   5 0.63002 0.05239-0.62385 0.98803 0.10101 0.32595
  -6  -2  -3 279.959 139.614   2-0.04168-0.66445-0.22866-0.17573-0.94983 0.43445
   6   2   3 387.341 198.334   4 0.76760-0.06147-0.50261 0.90700-0.17785 0.69323
  -6  -2  -3 520.693 181.359   1-0.42774-0.27839 0.43712-0.84150-0.55101 0.03563
   6   2   3 230.137 106.207   5 0.65709 0.04904-0.58858 0.99297 0.13695 0.37843
  -6  -2  -4 46.0562 97.9426   2 0.00081-0.73066-0.20846-0.23614-0.93606 0.33226
   6   2   4 88.5832 128.575   4 0.81353-0.08368-0.44478 0.88938-0.10367 0.70747
  -6  -2  -4 83.2440 134.101   1-0.42839-0.30147 0.43630-0.88090-0.55159-0.05220
  -6  -3  10 203.346 135.189   3 0.05763-0.46984-0.76715 0.78924 0.22178 0.36850
  -6  -3   9 15.2799 65.4414   3 0.06504-0.50097-0.79152 0.77341 0.18255 0.31932
  -6  -3   9 15.6675 84.0787   2-0.93522 0.49929-0.48134 0.46323-0.46660 0.96847
  -6  -3   8 228.825 166.740   2-0.91148 0.45182-0.49412 0.43580-0.56701 0.98046
  -6  -3   7 28.8445 55.0000   2-0.87213 0.38875-0.50008 0.40155-0.66502 0.99005
  -6  -3   6 119.692 80.0573   2-0.81562 0.30851-0.49774 0.35899-0.75683 0.99345
  -6  -3   5 8.13294 53.1683   2-0.74180 0.21097-0.48601 0.30706-0.83784 0.98604
  -6  -3   4 110.580 81.2845   2-0.65284 0.09828-0.46476 0.24560-0.90353 0.96331
  -6  -3   3 18154.5 448.875   2-0.55349-0.02479-0.43523 0.17586-0.95080 0.92216
  -6  -3   2-9.68950 37.6820   1-0.62683 0.02482 0.12862-0.42820-0.72050 0.60344
  -6  -3   2 16.1635 56.4457   2-0.45045-0.15156-0.40000 0.10042-0.97915 0.86209
  -6  -3   1 342.486 124.858   2-0.35073-0.27499-0.36240 0.02261-0.99087 0.78540
   6   3  -1 337.707 125.077   4 0.62794-0.00221-0.63295 0.97274-0.35952 0.56500
  -6  -3   1 395.511 130.612   1-0.58033-0.04540 0.21374-0.55352-0.68313 0.47765
  -6  -3   0 400.356 123.391   2-0.26008-0.38937-0.32569-0.05431-0.99016 0.69627
   6   3   0 435.552 138.814   4 0.69168-0.04222-0.58016 0.96016-0.28307 0.57696
  -6  -3   0 529.966 151.894   1-0.54491-0.10454 0.27214-0.65214-0.65357 0.35968
   6   3   0 352.888 134.529   5 0.68017-0.03071-0.55602 0.93602 0.16885 0.12504
  -6  -3  -1 10.1232 38.0026   2-0.18204-0.49114-0.29236-0.12785-0.98176 0.59945
   6   3   1 15.4433 66.0890   4 0.74606-0.07288-0.52657 0.94678-0.20959 0.59190
  -6  -3  -1 29.4614 76.7881   1-0.52014-0.15304 0.31030-0.73051-0.63245 0.25014
   6   3   1 26.8509 89.8228   5 0.69301-0.01983-0.53676 0.95697 0.18719 0.19513
  -6  -3  -2 83.6680 115.539   2-0.11807-0.57884-0.26391-0.19651-0.96982 0.49909
   6   3   2 88.7825 110.078   4 0.79250-0.09559-0.47254 0.93295-0.13887 0.60960
  -6  -3  -2 44.7489 73.1327   1-0.50478-0.19213 0.33299-0.79341-0.61918 0.14845
   6   3   2 83.6217 113.361   5 0.70903-0.01212-0.51147 0.97189 0.21069 0.26003
  -6  -3  -3 64.6876 129.644   2-0.06804-0.65259-0.24098-0.25965-0.95743 0.39828
   6   3   3 65.3264 73.9076   4 0.83209-0.11146-0.41818 0.91880-0.07057 0.62972
  -6  -3  -3 26.4570 92.2249   1-0.49743-0.22320 0.34361-0.84423-0.61279 0.05364
  -6  -4  10 21.7492 78.6308   3 0.07484-0.50154-0.82197 0.74782 0.12904 0.41748
  -6  -4  10 55.4233 100.574   2-0.94197 0.51527-0.47275 0.39861-0.41578 0.96230
  -6  -4   9 365.287 150.649   3 0.08313-0.53355-0.84602 0.73167 0.08224 0.37586
  -6  -4   9 574.995 199.659   2-0.92607 0.47564-0.48799 0.37364-0.51305 0.97115
  -6  -4   8 227.776 161.185   2-0.89681 0.42265-0.49757 0.34301-0.60907 0.97875
  -6  -4   7 47.2824 75.8439   2-0.85265 0.35478-0.50024 0.30547-0.70100 0.98227
  -6  -4   6 51.6124 85.9220   2-0.79291 0.27131-0.49491 0.25992-0.78524 0.97809
  -6  -4   5 146.807 94.4525   2-0.71842 0.17309-0.48103 0.20584-0.85783 0.96225
  -6  -4   4 234.714 109.033   2-0.63204 0.06299-0.45901 0.14361-0.91537 0.93138
  -6  -4   3 580.372 146.755   2-0.53858-0.05419-0.43039 0.07478-0.95607 0.88366
  -6  -4   2 1995.97 198.588   1-0.66293 0.04643 0.05372-0.44954-0.74802 0.58720
  -6  -4   2 2108.77 194.347   2-0.44398-0.17252-0.39766 0.00184-0.98035 0.81952
  -6  -4   1 1079.14 197.191   2-0.35396-0.28627-0.36367-0.07236-0.99071 0.74147
  -6  -4   1 1034.44 179.945   1-0.62703-0.01320 0.12822-0.56424-0.72066 0.47142
  -6  -4   0-7.47631 55.5330   2-0.27295-0.39100-0.33104-0.14520-0.99088 0.65322
   6   4   0 23.5875 88.8522   4 0.78745-0.12350-0.47886 0.95509-0.14698 0.48464
  -6  -4   0 21.5050 86.2027   1-0.59859-0.06536 0.18158-0.65782-0.69802 0.36037
  -6  -4  -1 23.2847 97.1347   2-0.20360-0.48408-0.30172-0.21472-0.98477 0.55870
   6   4   1 101.422 127.357   4 0.82428-0.13660-0.42965 0.94609-0.08476 0.51084
  -6  -4  -1 56.0404 90.6459   1-0.57795-0.10973 0.21782-0.73426-0.68117 0.25509
  -6  -4  -2 43.5561 128.301   2-0.14695-0.56446-0.27687-0.27978-0.97576 0.46127
   6   4   2 65.0612 123.450   4 0.85611-0.14471-0.38008 0.93674-0.02420 0.53870
  -6  -4  -2 67.8333 113.997   1-0.56463-0.14677 0.24022-0.79688-0.67013 0.15564
   6   4   3 51.7797 99.1297   4 0.88345-0.14832-0.33004 0.92691 0.03502 0.56789
  -6  -5  10 46.0148 100.161   3 0.09044-0.53164-0.86584 0.69546 0.03969 0.46306
  -6  -5  10 11.2321 100.125   2-0.93717 0.49596-0.47938 0.30899-0.45424 0.95699
  -6  -5   9 72.1120 120.094   2-0.91710 0.45217-0.49219 0.28159-0.54813 0.96246
  -6  -5   8 29.4618 84.5785   2-0.88417 0.39552-0.49925 0.24845-0.63951 0.96543
  -6  -5   7 32.8786 69.0069   2-0.83744 0.32507-0.49959 0.20857-0.72562 0.96312
  -6  -5   6 63.4954 105.779   2-0.77693 0.24083-0.49246 0.16124-0.80319 0.95228
  -6  -5   5 908.736 169.419   2-0.70412 0.14430-0.47775 0.10632-0.86900 0.92966
  -6  -5   4 337.375 144.123   2-0.62216 0.03861-0.45619 0.04456-0.92060 0.89284
  -6  -5   3 83.4326 67.7429   1-0.72340 0.11612-0.10038-0.35147-0.78927 0.67310
  -6  -5   3 21.5042 79.6016   2-0.53557-0.07170-0.42940-0.02244-0.95708 0.84091
  -6  -5   2 28.8995 83.2516   1-0.69266 0.06166-0.01619-0.47586-0.76929 0.56470
  -6  -5   2 22.5426 71.2244   2-0.44946-0.18154-0.39964-0.09242-0.97934 0.77475
  -6  -5   1-2.63893 37.6684   1-0.66526 0.01053 0.04854-0.58081-0.74974 0.45674
  -6  -5   1 44.4334 90.4307   2-0.36848-0.28625-0.36932-0.16295-0.98979 0.69679
  -6  -5   0 210.089 102.247   2-0.29610-0.38235-0.34055-0.23193-0.99166 0.61023
  -6  -5   0 213.766 117.241   1-0.64296-0.03549 0.09627-0.66874-0.73299 0.35157
  -6  -5  -1-8.69137 63.5174   2-0.23439-0.46778-0.31489-0.29779-0.98817 0.51832
  -6  -5  -1 6.17257 68.7521   1-0.62638-0.07580 0.12949-0.74218-0.72015 0.25031
   6   5   2 13.3584 95.9356   4 0.90439-0.17849-0.28479 0.93769 0.08706 0.47120
  -6  -6  10 38.8818 123.303   2-0.93247 0.47677-0.48372 0.21710-0.48225 0.94124
  -6  -6   9 272.048 177.062   2-0.90972 0.43030-0.49465 0.18782-0.57253 0.94310
  -6  -6   8 20.6868 60.0215   2-0.87491 0.37176-0.49995 0.15291-0.65939 0.94154
  -6  -6   7 31.9380 92.3426   2-0.82759 0.30071-0.49887 0.11162-0.74025 0.93399
  -6  -6   6 42.8064 103.294   2-0.76831 0.21771-0.49100 0.06355-0.81228 0.91759
  -6  -6   5 3.15416 57.1385   2-0.69890 0.12458-0.47652 0.00885-0.87290 0.88980
  -6  -6   4 74.0724 71.8562   1-0.76216 0.16411-0.24126-0.26661-0.80858 0.73706
  -6  -6   4 258.228 157.495   2-0.62252 0.02447-0.45630-0.05158-0.92041 0.84889
  -6  -6   3 24.3863 74.4575   1-0.74003 0.11825-0.15387-0.39421-0.79873 0.63879
  -6  -6   3 19.3166 61.2905   2-0.54325-0.07853-0.43192-0.11617-0.95446 0.79453
  -6  -6   2 116.426 129.578   1-0.71736 0.07187-0.08258-0.50572-0.78557 0.53721
  -6  -6   2 19.6920 70.4690   2-0.46540-0.18010-0.40535-0.18294-0.97614 0.72779
  -6  -6   1 176.092 115.170   1-0.69677 0.02755-0.02664-0.60187-0.77211 0.43534
  -6  -6   1 275.992 143.401   2-0.39280-0.27643-0.37864-0.24986-0.98763 0.65086
  -6  -6   0 129.491 125.623   2-0.32823-0.36471-0.35350-0.31521-0.99165 0.56646
  -6  -6   0 97.6606 145.579   1-0.67971-0.01323 0.01535-0.68407-0.76022 0.33503
  -6  -7   9 248.186 173.282   2-0.90494 0.41102-0.49591 0.09284-0.58685 0.91365
  -6  -7   8 24.1626 86.8354   2-0.86986 0.35221-0.50017 0.05689-0.66953 0.90792
  -6  -7   7 74.1912 120.562   2-0.82363 0.28226-0.49852 0.01504-0.74587 0.89584
  -6  -7   6 161.520 153.927   2-0.76714 0.20204-0.49080-0.03290-0.81348 0.87503
  -6  -7   5 20.5233 56.7649   2-0.70236 0.11354-0.47734-0.08657-0.87033 0.84346
  -6  -7   4 83.0599 83.7554   1-0.76994 0.15740-0.28030-0.32381-0.81064 0.69535
  -6  -7   4 48.3637 118.671   2-0.63225 0.01971-0.45907-0.14504-0.91525 0.79997
  -6  -7   3 34.3888 93.5126   1-0.75423 0.11796-0.20697-0.43735-0.80556 0.60186
  -6  -7   3 137.135 148.468   2-0.56044-0.07583-0.43745-0.20687-0.94820 0.74450
  -6  -7   2 10.8641 93.5667   1-0.73785 0.07785-0.14642-0.53811-0.79757 0.50545
  -6  -8   5 195.897 148.513   1-0.78457 0.18125-0.39353-0.26661-0.80775 0.73712
  -6  -8   4 179.928 144.062   1-0.77671 0.14966-0.32171-0.37864-0.81116 0.65211
  -7   7   1 10.0694 84.3303   0 0.10264-0.68438 0.75918-0.15181-0.22161 0.42669
  -7   7   0 31.4345 99.6263   0 0.14190-0.74737 0.75018-0.18302-0.22591 0.34257
  -7   7  -1 117.026 111.021   0 0.17205-0.80124 0.74227-0.21531-0.22895 0.25720
  -7   7  -2 254.920 182.024   0 0.19335-0.84627 0.73614-0.24940-0.23095 0.17078
  -7   7  -3 98.2953 167.142   0 0.20595-0.88260 0.73231-0.28577-0.23208 0.08349
  -7   6   3 38.5841 122.225   0-0.02097-0.52782 0.77813-0.18657-0.20553 0.54368
  -7   6   2 12.8780 71.5441   0 0.03412-0.60664 0.77143-0.22009-0.21316 0.46290
   7  -6  -2 26.4589 76.0494   5-0.39086 0.96337-0.91992 0.36858-0.72814 0.47841
  -7   6   1 38.4143 101.111   0 0.07953-0.67578 0.76380-0.25267-0.21889 0.38020
   7  -6  -1 13.8693 85.3641   5-0.33982 0.93606-0.94101 0.42988-0.70495 0.54363
  -7   6   0 56.1845 80.7191   0 0.11550-0.73547 0.75639-0.28547-0.22306 0.29596
   7  -6   0 25.2891 126.954   5-0.28171 0.90168-0.95989 0.48896-0.67592 0.60303
   7  -6   1 90.7959 113.915   5-0.21740 0.86109-0.97487 0.54415-0.64080 0.65632
  -7   6  -1 25.7129 76.4414   0 0.14221-0.78591 0.75010-0.31939-0.22595 0.21042
   7  -6   2 41.4108 99.9284   5-0.14799 0.81541-0.98454 0.59403-0.59959 0.70353
  -7   6  -2 145.455 119.901   0 0.15977-0.82719 0.74560-0.35509-0.22774 0.12380
  -7   6  -3 85.7107 101.416   0 0.16819-0.85933 0.74333-0.39303-0.22857 0.03622
  -7   6  -4 185.365 136.375   0 0.16733-0.88220 0.74356-0.43347-0.22849-0.05228
  -7   6  -5 120.035 125.112   0 0.15690-0.89549 0.74635-0.47647-0.22745-0.14174
  -7   5   4 978.110 201.469   0-0.11063-0.42894 0.78301-0.24749-0.19150 0.57430
  -7   5   4 421.578 164.321   4 0.42189-0.96145 0.76111-0.22558 0.90276-0.51996
  -7   5   3 77.3122 82.6036   0-0.04970-0.51359 0.78051-0.28519-0.20125 0.49563
  -7   5   2 372.338 159.491   0 0.00163-0.58864 0.77572-0.32061-0.20875 0.41472
   7  -5  -2 81.7744 79.6451   5-0.34234 0.92936-0.94007 0.48497-0.70615 0.50018
  -7   5   1 494.969 164.699   0 0.04339-0.65413 0.77003-0.35513-0.21437 0.33192
   7  -5  -1 244.071 118.348   5-0.28371 0.89445-0.95932 0.54442-0.67697 0.55942
  -7   5   0 279.634 116.911   0 0.07564-0.71010 0.76453-0.38984-0.21842 0.24755
   7  -5   0 121.012 84.1745   5-0.21864 0.85311-0.97464 0.59995-0.64151 0.61238
  -7   5  -1 28.0380 83.7589   0 0.09837-0.75656 0.76008-0.42560-0.22111 0.16183
   7  -5   1 14.5804 78.4635   5-0.14845 0.80664-0.98450 0.65002-0.59987 0.65915
   7  -5   2-6.09512 60.1981   5-0.07458 0.75649-0.98779 0.69352-0.55244 0.70015
  -7   5  -2 19.9676 72.6784   0 0.11155-0.79346 0.75727-0.46300-0.22262 0.07491
   7  -5   3 29.0229 87.0385   5 0.00149 0.70415-0.98382 0.72976-0.49986 0.73598
  -7   5  -3 15.1948 62.3104   0 0.11501-0.82065 0.75650-0.50244-0.22301-0.01312
   7  -5   4 30.0257 97.5871   5 0.07840 0.65096-0.97230 0.75844-0.44288 0.76742
  -7   5  -4-1.87857 55.2305   0 0.10845-0.83782 0.75794-0.54409-0.22227-0.10227
  -7   5  -5 151.760 101.991   1 0.06262-0.81571 0.85264-0.67899-0.07522-0.33774
  -7   4   5 537.341 172.870   4 0.44421-0.97455 0.75154-0.27204 0.90247-0.47502
  -7   4   4 59.5074 92.0228   0-0.14776-0.40630 0.78283-0.34354-0.18509 0.52413
  -7   4   3 107.771 106.663   0-0.09146-0.48633 0.78260-0.38352-0.19466 0.44528
  -7   4   2 438.457 183.083   0-0.04449-0.55703 0.78013-0.42126-0.20204 0.36424
  -7   4   1 1275.78 211.393   0-0.00702-0.61822 0.77670-0.45804-0.20753 0.28132
   7  -4  -1 910.754 183.260   5-0.20726 0.83250-0.97670 0.65804-0.63499 0.56121
  -7   4   0 115.371 98.6957   0 0.02079-0.66976 0.77331-0.49486-0.21139 0.19675
   7  -4   0 30.4476 61.6817   5-0.13635 0.78531-0.98553 0.70708-0.59235 0.60699
  -7   4  -1 57.7052 80.9869   0 0.03877-0.71146 0.77074-0.53250-0.21377 0.11072
   7  -4   1 27.4392 57.0360   5-0.06210 0.73479-0.98764 0.74940-0.54408 0.64713
  -7   4  -2 189.052 93.0642   0 0.04668-0.74309 0.76951-0.57148-0.21480 0.02333
   7  -4   2 119.937 96.0679   5 0.01389 0.68252-0.98247 0.78444-0.49093 0.68240
  -7   4  -3 88.1849 84.7082   0 0.04416-0.76430 0.76991-0.61209-0.21447-0.06541
   7  -4   3 84.5712 124.342   5 0.09020 0.62994-0.96986 0.81203-0.43380 0.71369
  -7   4  -4 805.175 200.313   1 0.01615-0.76001 0.82789-0.71028-0.12279-0.24552
   7  -4   4 392.432 168.451   5 0.16567 0.57820-0.94996 0.83234-0.37351 0.74182
  -7   4  -5 53.3933 108.987   1-0.01134-0.75625 0.81191-0.73450-0.15070-0.30602
  -7   3   7 180.146 156.865   4 0.49558-0.99297 0.72703-0.26335 0.89940-0.33888
  -7   3   6 97.3156 104.695   4 0.45724-0.97835 0.74566-0.32219 0.90202-0.42991
  -7   3   5 204.719 99.4424   0-0.25701-0.28783 0.77449-0.39123-0.16416 0.54784
  -7   3   4 360.046 135.150   0-0.19746-0.37110 0.78051-0.43746-0.17596 0.47123
  -7   3   3 319.354 119.354   0-0.14660-0.44569 0.78286-0.48002-0.18530 0.39215
  -7   3   2 3863.95 227.593   0-0.10485-0.51116 0.78293-0.52029-0.19246 0.31090
  -7   3   1 101.174 83.8929   0-0.07258-0.56715 0.78185-0.55943-0.19770 0.22771
   7  -3  -1 11.1239 63.5352   5-0.10781 0.74755-0.98719 0.76477-0.57423 0.54421
  -7   3   0 480.287 151.438   0-0.05017-0.61329 0.78054-0.59833-0.20118 0.14278
   7  -3   0 404.167 129.395   5-0.03398 0.69744-0.98659 0.80438-0.52485 0.58325
  -7   3  -1 41.8719 61.6173   0-0.03799-0.64920 0.77963-0.63762-0.20302 0.05620
   7  -3   1 36.7429 76.8430   5 0.04093 0.64625-0.97885 0.83685-0.47112 0.61794
  -7   3  -2 256.268 111.975   0-0.03648-0.67443 0.77951-0.67771-0.20325-0.03199
   7  -3   2 17.1868 69.7536   5 0.11552 0.59539-0.96401 0.86222-0.41400 0.64923
  -7   3  -3 1116.22 212.290   0-0.04625-0.68838 0.78026-0.71868-0.20177-0.12188
   7  -3   3 700.410 181.729   5 0.18871 0.54593-0.94237 0.88078-0.35434 0.67799
  -7   3  -3 728.274 176.206   1-0.04797-0.68666 0.78905-0.72746-0.18763-0.13602
   7  -3   4 641.322 181.340   5 0.25973 0.49864-0.91435 0.89298-0.29289 0.70496
  -7   3  -4 755.535 160.740   1-0.06628-0.69208 0.77696-0.75559-0.20597-0.20610
  -7   3  -5 29.1158 78.3130   1-0.08959-0.69249 0.76092-0.77975-0.22922-0.27127
  -7   2   7 63.9467 107.111   4 0.46008-0.97196 0.74435-0.37691 0.90189-0.38513
  -7   2   6 1308.90 198.249   0-0.37218-0.16343 0.75211-0.42488-0.13844 0.56678
  -7   2   5 10.1345 78.7909   0-0.31186-0.24747 0.76567-0.47865-0.15240 0.49233
  -7   2   4 194.278 101.993   0-0.25915-0.32391 0.77420-0.52739-0.16371 0.41522
  -7   2   3 471.070 127.733   0-0.21476-0.39203 0.77913-0.57252-0.17263 0.33572
  -7   2   2 2450.82 243.649   0-0.17930-0.45121 0.78163-0.61524-0.17937 0.25404
  -7   2   1 493.871 152.571   0-0.15336-0.50087 0.78269-0.65650-0.18409 0.17035
   7  -2  -1 365.490 126.520   5 0.01464 0.63960-0.98238 0.85620-0.49040 0.50414
  -7   2   0 538.266 161.817   0-0.13750-0.54046 0.78301-0.69704-0.18690 0.08473
   7  -2   0 212.532 106.381   5 0.08641 0.59155-0.97066 0.88468-0.43673 0.53889
  -7   2  -1 614.148 174.952   2-0.34284-0.35884-0.35930 0.40507-0.99122 0.80064
  -7   2  -1 793.530 169.284   0-0.13230-0.56938 0.78307-0.73730-0.18780-0.00278
  -7   2  -2 426.575 114.190   2-0.23717-0.48824-0.31607 0.32163-0.98842 0.70942
  -7   2  -2 524.698 158.345   0-0.13846-0.58694 0.78300-0.77744-0.18673-0.09227
   7  -2   2 312.580 120.433   5 0.22620 0.49921-0.92847 0.92291-0.32235 0.60135
  -7   2  -3 158.148 119.985   2-0.14811-0.60103-0.27739 0.24274-0.97598 0.60856
   7  -2   3 318.999 151.235   5 0.29275 0.45638-0.89885 0.93350-0.26304 0.63046
  -7   2  -3 168.244 106.041   1-0.13744-0.61169 0.72569-0.76034-0.27655-0.09087
   7  -2   4 10.5648 59.0992   5 0.35654 0.41632-0.86413 0.93899-0.20299 0.65883
  -7   2  -4 44.3182 120.778   1-0.15065-0.62221 0.71541-0.79027-0.28952-0.16632
   7  -2   5 378.022 204.096   4 0.61280 0.18378-0.64417 0.75924-0.37641 0.92066
  -7   2  -5 315.843 155.561   1-0.16954-0.62704 0.70028-0.81535-0.30800-0.23625
  -7   1   8 31.2836 79.8491   3-0.02298-0.47968-0.43672 0.74813 0.58953-0.02812
  -7   1   7 835.752 176.278   0-0.48660-0.03978 0.71387-0.44266-0.10861 0.58160
  -7   1   6 92.6386 106.667   0-0.42829-0.12182 0.73555-0.50455-0.12440 0.50897
  -7   1   6 189.676 112.078   2-0.91609 0.36598-0.49257 0.72356-0.55165 0.93623
  -7   1   5 757.410 178.526   0-0.37622-0.19761 0.75105-0.56026-0.13747 0.43362
  -7   1   5 462.310 126.492   2-0.87403 0.30020-0.49999 0.69078-0.66118 0.95734
  -7   1   4 1252.00 178.755   0-0.33134-0.26621 0.76175-0.61118-0.14802 0.35576
  -7   1   4 1029.95 152.868   2-0.81060 0.21304-0.49718 0.64776-0.76344 0.97118
  -7   1   3 127.203 99.8011   0-0.29449-0.32679 0.76882-0.65845-0.15622 0.27554
  -7   1   3 56.7173 54.0001   2-0.72582 0.10454-0.48266 0.59302-0.85174 0.97106
  -7   1   2 237.782 94.6471   0-0.26646-0.37855 0.77320-0.70304-0.16219 0.19310
  -7   1   2 317.673 128.382   2-0.62340-0.02160-0.45655 0.52671-0.91995 0.95086
  -7   1   1 1038.82 157.242   0-0.24798-0.42075 0.77563-0.74569-0.16601 0.10849
   7  -1  -1 548.041 128.944   5 0.15527 0.51346-0.95314 0.92320-0.38204 0.43956
  -7   1   1 1074.73 148.388   2-0.51080-0.15794-0.42113 0.45108-0.96478 0.90727
  -7   1   0 60.2104 83.3561   0-0.23981-0.45265 0.77660-0.78686-0.16766 0.02173
   7  -1   0 45.8919 72.7873   5 0.21874 0.47372-0.93139 0.94165-0.32880 0.47473
  -7   1   0 32.3747 84.1113   2-0.39731-0.29515-0.38035 0.37009-0.98714 0.84121
  -7   1  -1 1627.65 182.648   2-0.29140-0.42478-0.33863 0.28816-0.99155 0.75720
   7  -1   1 1428.50 178.938   5 0.28044 0.43575-0.90482 0.95529-0.27427 0.50862
  -7   1  -2 18.9849 62.4597   2-0.19877-0.54113-0.29963 0.20895-0.98414 0.66138
   7  -1   2 5.79987 60.9705   5 0.33996 0.39995-0.87378 0.96446-0.21892 0.54169
  -7   1  -3 116.600 83.1693   2-0.12201-0.64162-0.26569 0.13480-0.97069 0.55950
   7  -1   3 9.69293 87.0824   5 0.39707 0.36657-0.83859 0.96948-0.16306 0.57424
  -7   1  -3 107.529 102.779   1-0.22535-0.53828 0.65260-0.78349-0.36209-0.04910
  -7   1  -4 312.839 132.813   2-0.06134-0.72601-0.23786 0.06676-0.95557 0.45597
   7  -1   4 430.648 164.865   4 0.60923 0.17813-0.64676 0.81785-0.38033 0.87993
   7  -1   4 252.676 140.404   5 0.45164 0.33572-0.79949 0.97058-0.10689 0.60649
  -7   1  -4 482.659 172.040   1-0.23395-0.55341 0.64485-0.81595-0.37034-0.12926
  -7   1  -5 24.9804 119.589   2-0.01564-0.79545-0.21633 0.00502-0.94161 0.35360
   7  -1   5 14.7521 87.5413   4 0.68050 0.13058-0.59012 0.80143-0.29715 0.88517
  -7   1  -5 31.4451 116.890   1-0.24867-0.56242 0.63131-0.84262-0.38445-0.20357
  -7   0   9 62.2337 120.682   3-0.00527-0.48816-0.51900 0.77438 0.51753 0.08853
  -7   0   8 1.86143 72.3403   2-0.94117 0.42401-0.47412 0.68929-0.42340 0.94104
  -7   0   7 50.4586 96.7436   2-0.92205 0.38117-0.49007 0.66504-0.52968 0.95890
  -7   0   6 59.3916 75.2208   0-0.49078-0.07382 0.71212-0.57736-0.10742 0.44823
  -7   0   6 37.4443 71.5542   2-0.88635 0.32174-0.49903 0.63379-0.63455 0.97536
  -7   0   5 1931.91 224.560   0-0.44767-0.14066 0.72887-0.63432-0.11929 0.37168
  -7   0   5 1383.46 176.520   2-0.83198 0.24365-0.49921 0.59376-0.73384 0.98623
  -7   0   4 69.6136 84.2305   0-0.41144-0.20062 0.74094-0.68661-0.12873 0.29270
  -7   0   4 17.0872 69.7378   2-0.75839 0.14633-0.48922 0.54356-0.82224 0.98622
  -7   0   3 142.353 98.2235   0-0.38302-0.25276 0.74922-0.73509-0.13581 0.21137
  -7   0   3 30.2888 58.9738   2-0.66764 0.03186-0.46869 0.48282-0.89438 0.96994
  -7   0   2 1332.28 160.978   0-0.36330-0.29620 0.75437-0.78045-0.14057 0.12771
  -7   0   2 1236.60 190.629   2-0.56489-0.09462-0.43886 0.41278-0.94648 0.93362
  -7   0   1 36.3526 71.0240   0-0.35316-0.33007 0.75684-0.82313-0.14297 0.04169
  -7   0   1 11.3340 64.1438   2-0.45757-0.22566-0.40256 0.33627-0.97776 0.87648
  -7   0   0 96.8280 91.3957   2-0.35348-0.35347-0.36348 0.25698-0.99073 0.80104
  -7   0   0 154.779 102.464   0-0.35348-0.35348 0.75677-0.86327-0.14289-0.04680
  -7   0  -1 411.617 142.976   2-0.25890-0.47178-0.32520 0.17849-0.99009 0.71198
  -7   0  -1 532.593 149.450   0-0.36520-0.36548 0.75390-0.90061-0.14012-0.13800
  -7   0  -1 466.443 127.743   1-0.32556-0.40512 0.55498-0.70169-0.45716 0.17905
   7   0   1 309.967 89.7970   5 0.40245 0.32823-0.83498 0.98169-0.15765 0.43576
  -7   0  -2 1046.55 197.651   2-0.17764-0.57676-0.29043 0.10352-0.98108 0.61455
  -7   0  -2 1116.75 171.427   1-0.31190-0.44251 0.56926-0.75618-0.44436 0.07783
  -7   0  -3 1083.83 223.270   2-0.11112-0.66701-0.26076 0.03363-0.96826 0.51331
   7   0   3 962.903 212.284   4 0.61481 0.16332-0.64271 0.86984-0.37419 0.82914
  -7   0  -3 926.685 171.935   1-0.30879-0.46934 0.57247-0.79959-0.44144-0.01351
  -7   0  -4 771.216 261.847   2-0.05912-0.74274-0.23682-0.03051-0.95494 0.41157
   7   0   4 555.434 235.665   4 0.68358 0.11828-0.58741 0.85475-0.29331 0.83667
  -7   0  -4 557.091 178.503   1-0.31370-0.48816 0.56740-0.83473-0.44605-0.09731
  -7  -1   8 23.2660 101.303   2-0.92893 0.39728-0.48626 0.60519-0.50006 0.97394
  -7  -1   7 89.3956 80.0326   2-0.89977 0.34439-0.49703 0.57575-0.60124 0.98670
  -7  -1   6 126.753 89.5796   2-0.85425 0.27515-0.50027 0.53879-0.69825 0.99530
  -7  -1   5 124.773 100.117   2-0.79149 0.18867-0.49470 0.49301-0.78690 0.99552
  -7  -1   4 1305.70 210.067   0-0.49586-0.13069 0.70997-0.75187-0.10598 0.22618
  -7  -1   4 1025.70 167.678   2-0.71243 0.08588-0.47968 0.43778-0.86260 0.98281
  -7  -1   3 240.413 144.804   0-0.47627-0.17400 0.71806-0.80017-0.11150 0.14329
  -7  -1   3 109.508 72.3469   2-0.62041-0.02987-0.45569 0.37358-0.92150 0.95329
  -7  -1   2 180.752 114.609   0-0.46523-0.20877 0.72237-0.84469-0.11454 0.05792
  -7  -1   2 160.829 92.5014   2-0.52101-0.15299-0.42457 0.30225-0.96174 0.90511
  -7  -1   1 591.691 152.455   0-0.46365-0.23408 0.72298-0.88550-0.11498-0.03007
  -7  -1   1 276.566 77.7031   2-0.42095-0.27678-0.38920 0.22668-0.98409 0.83905
  -7  -1   0 11.6445 60.1798   2-0.32650-0.39495-0.35281 0.15007-0.99168 0.75822
  -7  -1   0 5.30499 47.4295   0-0.47248-0.24898 0.71956-0.92230-0.11255-0.12091
  -7  -1  -1-13.6346 54.8021   2-0.24226-0.50292-0.31822 0.07527-0.98886 0.66698
  -7  -1  -1 47.6238 70.0366   1-0.40597-0.33921 0.46399-0.70693-0.53131 0.20943
   7   1   1 120.312 99.6572   5 0.51547 0.22971-0.74604 0.98899-0.03728 0.35916
  -7  -1  -2 214.291 119.011   2-0.17079-0.59812-0.28743 0.00427-0.97998 0.56969
   7   1   2 466.411 193.166   4 0.63025 0.13866-0.63120 0.91435-0.35691 0.76721
  -7  -1  -2 518.763 161.564   1-0.39111-0.37779 0.48175-0.76490-0.51777 0.10747
   7   1   2 310.471 147.466   5 0.55106 0.21784-0.71210 0.99525 0.00364 0.40665
  -7  -1  -3 452.401 177.756   2-0.11284-0.67979-0.26154-0.06183-0.96865 0.46994
   7   1   3 161.202 109.035   4 0.69504 0.09758-0.57709 0.90046-0.27876 0.77748
  -7  -1  -3 301.119 145.371   1-0.38584-0.40678 0.48793-0.81130-0.51295 0.01424
   7   1   3 151.237 121.309   5 0.58647 0.20616-0.67494 0.99830 0.04608 0.45263
  -7  -1  -4 702.747 207.084   1-0.38816-0.42819 0.48522-0.84879-0.51507-0.07206
  -7  -2   9 0.09001 65.8055   2-0.93567 0.41324-0.48091 0.54382-0.46386 0.98239
  -7  -2   8 190.555 124.615   2-0.91303 0.36688-0.49363 0.51633-0.56196 0.99208
  -7  -2   7 33.2618 81.8939   2-0.87604 0.30616-0.49988 0.48237-0.65706 0.99876
  -7  -2   6 16.2534 87.1543   2-0.82365 0.23005-0.49853 0.44081-0.74585 0.99912
  -7  -2   5 34.6105 62.7246   2-0.75606 0.13874-0.48879 0.39086-0.82451 0.98937
  -7  -2   4 1899.01 207.954   2-0.67526 0.03421-0.47066 0.33252-0.88943 0.96587
  -7  -2   3 138.281 96.1477   2-0.58520-0.07958-0.44519 0.26685-0.93813 0.92615
  -7  -2   2 234.403 112.409   2-0.49127-0.19724-0.41444 0.19588-0.97009 0.86970
  -7  -2   1 45.3561 88.8195   2-0.39922-0.31301-0.38107 0.12230-0.98692 0.79811
  -7  -2   0 10.5296 59.7870   2-0.31399-0.42196-0.34780 0.04882-0.99181 0.71459
  -7  -2   0 15.5266 52.8008   1-0.50087-0.23508 0.33865-0.63763-0.61578 0.33856
   7   2   0 1.74456 65.6750   5 0.59105 0.14490-0.66986 0.96884 0.05171 0.22552
  -7  -2  -1 1.86561 42.5935   2-0.23898-0.52070-0.31683-0.02235-0.98858 0.62293
  -7  -2  -1 12.0193 59.5264   1-0.47621-0.28346 0.37338-0.71256-0.59420 0.22856
   7   2   1 25.1421 75.5310   5 0.61399 0.14569-0.64341 0.98259 0.08041 0.28523
  -7  -2  -2 34.6185 93.5843   2-0.17593-0.60747-0.28968-0.08971-0.98081 0.52675
   7   2   2 42.9191 88.7158   4 0.71520 0.06820-0.55808 0.93747-0.25235 0.70641
  -7  -2  -2 27.2321 93.0322   1-0.46172-0.32168 0.39304-0.77244-0.58138 0.12732
   7   2   2 47.3304 94.5528   5 0.63881 0.14459-0.61272 0.99212 0.11252 0.34155
  -7  -2  -3 1556.12 307.060   2-0.12526-0.68187-0.26715-0.15245-0.97139 0.42891
  -7  -2  -3 1281.73 239.118   1-0.45558-0.35154 0.40120-0.82080-0.57594 0.03346
  -7  -3   9 107.609 135.369   2-0.92511 0.38818-0.48853 0.45519-0.51718 0.99195
  -7  -3   8 333.576 146.393   2-0.89624 0.33559-0.49767 0.42413-0.61053 0.99688
  -7  -3   7 65.2575 88.1957   2-0.85369 0.26931-0.50026 0.38651-0.69923 0.99716
  -7  -3   6 98.5175 95.3961   2-0.79718 0.18909-0.49550 0.34154-0.78017 0.98969
  -7  -3   5 28.2174 65.1170   2-0.72775 0.09593-0.48307 0.28891-0.85012 0.97121
  -7  -3   4 17.4923 71.9493   2-0.64798-0.00756-0.46344 0.22907-0.90639 0.93907
  -7  -3   3 598.099 175.679   2-0.56195-0.11732-0.43793 0.16335-0.94762 0.89188
  -7  -3   2 3.02582 66.1018   2-0.47455-0.22845-0.40859 0.09380-0.97412 0.82997
  -7  -3   1 41.4325 85.3273   1-0.58885-0.13787 0.19892-0.55392-0.69011 0.45754
  -7  -3   1 29.4607 95.8420   2-0.39057-0.33615-0.37780 0.02279-0.98786 0.75528
  -7  -3   0 250.555 153.124   2-0.31390-0.43654-0.34776-0.04745-0.99181 0.67082
   7   3   0 255.067 125.184   4 0.69254 0.05791-0.57938 0.97459-0.28197 0.60296
  -7  -3   0 315.267 132.561   1-0.55829-0.19216 0.25065-0.64587-0.66483 0.34383
  -7  -3  -1-6.93075 79.6764   2-0.24709-0.52708-0.32025-0.11517-0.98925 0.57984
   7   3   1 12.6977 67.7849   4 0.74408 0.03009-0.52869 0.96411-0.21243 0.62184
  -7  -3  -1 25.0662 91.9741   1-0.53695-0.23723 0.28464-0.72006-0.64682 0.23741
   7   3   1 53.3605 134.370   5 0.69543 0.07874-0.53303 0.96845 0.19069 0.21872
  -7  -3  -2 2.16327 74.2320   2-0.19136-0.60654-0.29642-0.17921-0.98313 0.48530
  -7  -3  -2 10.0032 85.7619   1-0.52381-0.27409 0.30478-0.78041-0.63560 0.13777
  -7  -4   9 146.615 142.201   2-0.91398 0.36256-0.49331 0.36374-0.55884 0.98984
  -7  -4   8 11.9122 101.531   2-0.88069 0.30555-0.49956 0.32978-0.64718 0.98976
  -7  -4   7 84.1858 98.9735   2-0.83476 0.23589-0.49941 0.28942-0.72970 0.98386
  -7  -4   6 1194.86 223.386   2-0.77653 0.15394-0.49239 0.24220-0.80363 0.96937
  -7  -4   5 38.1432 71.3291   2-0.70759 0.06127-0.47856 0.18816-0.86636 0.94369
  -7  -4   4 49.2536 84.3387   2-0.63078-0.03926-0.45866 0.12804-0.91604 0.90496
  -7  -4   3 31.3881 69.9274   2-0.55001-0.14376-0.43411 0.06329-0.95207 0.85256
  -7  -4   2-8.01803 57.3883   2-0.46956-0.24793-0.40683-0.00420-0.97524 0.78732
  -7  -4   1 15.2688 86.8127   1-0.63164-0.10958 0.11914-0.57038-0.72425 0.44791
  -7  -4   1 165.197 146.807   2-0.39340-0.34782-0.37887-0.07237-0.98756 0.71122
  -7  -4   0 45.3393 91.2295   2-0.32458-0.44037-0.35205-0.13941-0.99172 0.62696
  -7  -4   0 15.7063 93.1388   1-0.60690-0.15805 0.16644-0.65789-0.70471 0.33995
  -7  -4  -1 53.4249 97.3016   2-0.26507-0.52360-0.32777-0.20389-0.99046 0.53729
   7   4   1 115.349 112.678   4 0.81812-0.02945-0.43841 0.97007-0.09569 0.54886
  -7  -4  -1 184.495 134.086   1-0.58913-0.19954 0.19843-0.73009-0.69034 0.23716
  -7  -5   9 152.154 142.094   2-0.90391 0.33800-0.49615 0.27034-0.58979 0.97702
  -7  -5   8 48.5302 125.348   2-0.86796 0.27831-0.50022 0.23421-0.67323 0.97204
  -7  -5   7 510.037 188.655   2-0.82058 0.20721-0.49824 0.19201-0.75011 0.96051
  -7  -5   6 50.9816 92.3923   2-0.76259 0.12550-0.48999 0.14356-0.81808 0.94006
  -7  -5   5 842.325 192.361   2-0.69588 0.03506-0.47579 0.08915-0.87511 0.90868
  -7  -5   4 293.275 142.587   2-0.62333-0.06122-0.45653 0.02968-0.91999 0.86514
  -7  -5   3 62.2350 103.017   2-0.54849-0.15978-0.43362-0.03344-0.95262 0.80934
  -7  -5   2 68.9163 109.633   1-0.69203-0.03997-0.01461-0.49266-0.76886 0.53717
  -7  -5   2-2.00264 60.1105   2-0.47506-0.25694-0.40877-0.09850-0.97401 0.74232
  -7  -5   1 32.7943 75.9598   1-0.66761-0.08811 0.04328-0.59076-0.75146 0.43136
  -7  -5   1 61.8943 83.2781   2-0.40630-0.34942-0.38374-0.16374-0.98607 0.66597
  -7  -5   0 61.2319 150.862   2-0.34468-0.43476-0.36002-0.22767-0.99115 0.58262
  -7  -5   0 5.34920 73.4225   1-0.64806-0.13139 0.08570-0.67338-0.73687 0.32835
  -7  -6   8 36.9736 94.5252   2-0.85908 0.25494-0.50032 0.13807-0.68975 0.94480
  -7  -6   7 54.0138 132.505   2-0.81191 0.18404-0.49733 0.09487-0.76173 0.92837
  -7  -6   6 915.002 209.512   2-0.75571 0.10412-0.48872 0.04605-0.82484 0.90306
  -7  -6   5 3.52879 63.8653   2-0.69250 0.01718-0.47497-0.00791-0.87756 0.86736
  -7  -6   4 56.1531 112.335   2-0.62501-0.07403-0.45701-0.06608-0.91912 0.82050
  -7  -6   3 89.7693 104.049   2-0.55642-0.16634-0.43617-0.12713-0.94971 0.76268
  -7  -6   2 33.6826 120.950   1-0.71641-0.03008-0.07983-0.52368-0.78497 0.50951
  -7  -6   2 4.25765 90.9280   2-0.48989-0.25660-0.41396-0.18955-0.97044 0.69498
  -7  -7   6 151.307 135.569   2-0.75586 0.08977-0.48875-0.05016-0.82470 0.85915
  -7  -7   5 162.385 105.890   2-0.69703 0.00721-0.47607-0.10305-0.87428 0.82031
  -7  -7   4 129.580 112.939   2-0.63511-0.07843-0.45988-0.15945-0.91369 0.77131
  -8   5   3 38.9647 111.105   0-0.11523-0.54906 0.78306-0.30296-0.19072 0.45801
  -8   5   2 173.394 138.241   0-0.07222-0.61579 0.78184-0.34194-0.19775 0.37662
  -8   5   1 301.970 157.527   0-0.03774-0.67399 0.77961-0.37992-0.20306 0.29351
  -8   5   0 112.617 106.984   0-0.01189-0.72357 0.77722-0.41774-0.20684 0.20887
   8  -5   0 16.0329 71.1653   5-0.11303 0.84849-0.98697 0.62749-0.57758 0.57555
  -8   5  -1 291.153 164.768   0 0.00525-0.76443 0.77529-0.45602-0.20926 0.12287
   8  -5   1 31.6083 99.5369   5-0.04999 0.80917-0.98731 0.66805-0.53586 0.62224
  -8   5  -2 269.763 136.982   0 0.01350-0.79641 0.77427-0.49521-0.21039 0.03559
  -8   5  -3 68.6397 100.182   0 0.01258-0.81922 0.77438-0.53554-0.21027-0.05295
  -8   4   5 39.4530 74.7014   0-0.25663-0.37470 0.77454-0.31026-0.16423 0.56459
  -8   4   4 105.737 126.672   0-0.20176-0.45329 0.78019-0.35612-0.17514 0.48708
  -8   4   3 155.829 130.810   0-0.15498-0.52380 0.78264-0.39878-0.18380 0.40732
  -8   4   2 129.720 92.4396   0-0.11650-0.58601 0.78307-0.43942-0.19051 0.32561
  -8   4   1 1329.64 204.899   0-0.08655-0.63968 0.78244-0.47899-0.19546 0.24215
  -8   4   0 427.264 170.557   0-0.06535-0.68461 0.78148-0.51824-0.19883 0.15710
   8  -4   0 109.662 86.6100   5-0.03234 0.78229-0.98650 0.72326-0.52371 0.56544
  -8   4  -1 278.647 145.216   0-0.05313-0.72055 0.78074-0.55771-0.20073 0.07057
   8  -4   1 26.7175 105.549   5 0.03237 0.74132-0.98010 0.75707-0.47745 0.60760
  -8   4  -2 9.92734 123.290   0-0.05025-0.74716 0.78054-0.59773-0.20117-0.01740
   8  -4   2 29.8508 109.087   5 0.09848 0.69893-0.96804 0.78522-0.42737 0.64594
  -8   4  -3 321.570 151.934   0-0.05712-0.76401 0.78100-0.63839-0.20011-0.10687
  -8   3   5 5.21971 79.7694   0-0.29684-0.34899 0.76841-0.40036-0.15571 0.51230
  -8   3   4 118.282 110.715   0-0.24756-0.42199 0.77568-0.44785-0.16609 0.43426
  -8   3   3 136.256 100.555   0-0.20609-0.48719 0.77986-0.49223-0.17431 0.35406
  -8   3   2 270.777 140.687   0-0.17280-0.54421 0.78196-0.53454-0.18057 0.27191
  -8   3   1 719.325 177.444   0-0.14806-0.59267 0.78282-0.57561-0.18504 0.18796
  -8   3   0 1148.96 237.646   0-0.13224-0.63221 0.78307-0.61607-0.18781 0.10231
   8  -3   0 114.596 90.8925   5 0.06362 0.70083-0.97510 0.80810-0.45413 0.53963
  -8   3  -1 343.210 149.796   0-0.12575-0.66243 0.78310-0.65631-0.18893 0.01501
   8  -3   1 32.8234 69.5341   5 0.12713 0.66105-0.96106 0.83426-0.40478 0.57869
  -8   3  -2 72.1769 105.164   0-0.12907-0.68283 0.78309-0.69651-0.18836-0.07398
   8  -3   2 0.14344 71.3975   5 0.19081 0.62110-0.94164 0.85506-0.35257 0.61491
  -8   2   6 100.782 144.365   0-0.39660-0.24001 0.74539-0.43338-0.13246 0.53370
  -8   2   5 95.9490 144.551   0-0.34653-0.31380 0.75839-0.48659-0.14452 0.45734
  -8   2   4 31.8123 95.3614   0-0.30347-0.38058 0.76723-0.53563-0.15426 0.37866
  -8   2   3 0.92625 53.0881   0-0.26800-0.43978 0.77298-0.58159-0.16187 0.29786
  -8   2   2 7.23259 63.7125   0-0.24064-0.49086 0.77650-0.62532-0.16750 0.21507
  -8   2   1 312.097 145.523   0-0.22188-0.53335 0.77847-0.66750-0.17124 0.13039
  -8   2   0 71.5288 65.3523   0-0.21224-0.56671 0.77935-0.70859-0.17312 0.04386
   8  -2   0 26.5582 70.5843   5 0.17208 0.60687-0.94792 0.87715-0.36821 0.49748
  -8   2  -1 99.7579 91.8795   0-0.21228-0.59040 0.77934-0.74879-0.17311-0.04457
   8  -2   1 103.724 107.463   5 0.23098 0.57170-0.92655 0.89600-0.31820 0.53588
   8  -2   2 550.098 212.388   5 0.28928 0.53712-0.90055 0.91021-0.26622 0.57232
  -8   2  -4 91.7434 170.339   1-0.21922-0.65464 0.65807-0.74814-0.35618-0.12676
  -8   1   7 145.439 138.544   0-0.49626-0.13111 0.70979-0.45381-0.10586 0.55175
  -8   1   6 89.9573 111.149   0-0.44732-0.20379 0.72900-0.51322-0.11939 0.47686
  -8   1   5 102.035 112.706   0-0.40438-0.27045 0.74309-0.56753-0.13052 0.39957
  -8   1   4 253.156 123.576   0-0.36818-0.33037 0.75314-0.61778-0.13940 0.32004
  -8   1   3 146.116 115.006   0-0.33940-0.38287 0.76000-0.66485-0.14617 0.23839
  -8   1   3 126.998 105.681   2-0.72039-0.00188-0.48147 0.57662-0.85622 0.94844
  -8   1   2 58.0699 89.2832   0-0.31866-0.42734 0.76435-0.70941-0.15088 0.15469
  -8   1   2 33.9356 70.3164   2-0.63173-0.11427-0.45893 0.51387-0.91553 0.91934
  -8   1   1 211.995 129.627   0-0.30660-0.46313 0.76666-0.75193-0.15357 0.06896
  -8   1   1 228.800 135.968   2-0.53700-0.23273-0.42987 0.44461-0.95660 0.87199
  -8   1   0 63.8372 114.242   0-0.30383-0.48962 0.76717-0.79264-0.15418-0.01885
   8  -1   0 65.1380 71.4289   5 0.28785 0.50560-0.90125 0.92673-0.26752 0.44055
  -8   1   0-7.73914 76.3090   2-0.44251-0.35094-0.39712 0.37164-0.98061 0.80758
  -8   1  -1 66.6949 108.873   2-0.35388-0.46330-0.36363 0.29795-0.99071 0.72926
  -8   1  -1 63.1692 136.012   0-0.31106-0.50611 0.76582-0.83151-0.15258-0.10887
   8  -1   1 75.6756 103.465   5 0.33890 0.47828-0.87439 0.94007-0.21993 0.48138
  -8   1  -2 84.4428 121.667   2-0.27508-0.56582-0.33192 0.22603-0.99097 0.64111
   8  -1   2 71.4377 80.8802   5 0.38932 0.45158-0.84369 0.94959-0.17080 0.52067
  -8   1  -3 11.3534 82.0684   2-0.20824-0.65638-0.30372 0.15762-0.98535 0.54707
  -8   1  -3 28.7748 84.9797   1-0.28663-0.57799 0.59483-0.74094-0.42056-0.01773
  -8   0   8 346.423 210.208   2-0.93475 0.31660-0.48178 0.68174-0.46940 0.95995
  -8   0   7 73.8761 126.869   2-0.91085 0.26897-0.49432 0.65407-0.56901 0.97114
  -8   0   6-6.06699 81.5375   2-0.87227 0.20667-0.50007 0.61962-0.66474 0.97845
  -8   0   5 42.4651 83.6442   0-0.46848-0.22084 0.72112-0.64179-0.11365 0.33894
  -8   0   5 68.6827 99.2814   2-0.81838 0.12906-0.49802 0.57735-0.75312 0.97841
  -8   0   4 48.3127 95.2150   0-0.43963-0.27341 0.73170-0.69258-0.12143 0.25830
  -8   0   4 25.4095 88.8108   2-0.74995 0.03690-0.48762 0.52675-0.83034 0.96721
  -8   0   3 775.883 190.917   0-0.41805-0.31872 0.73887-0.73996-0.12704 0.17550
  -8   0   3 432.716 153.388   2-0.66957-0.06721-0.46920 0.46811-0.89315 0.94161
  -8   0   2 92.8407 109.048   0-0.40444-0.35606 0.74308-0.78437-0.13050 0.09054
  -8   0   2 52.9841 85.3185   2-0.58154-0.17895-0.44407 0.40277-0.93969 0.89973
  -8   0   1 783.393 172.585   0-0.39950-0.38472 0.74454-0.82605-0.13174 0.00336
  -8   0   1 474.544 155.814   2-0.49125-0.29298-0.41443 0.33293-0.97009 0.84171
  -8   0   0 98.4273 105.982   0-0.40397-0.40397 0.74322-0.86493-0.13062-0.08618
  -8   0   0 47.4312 80.8093   2-0.40397-0.40397-0.38286 0.26115-0.98636 0.76956
  -8   0  -1 32.8507 75.8172   2-0.32401-0.50766-0.35182 0.18990-0.99173 0.68651
   8   0   1 44.2569 95.9116   5 0.44500 0.38668-0.80455 0.96648-0.11389 0.41910
  -8   0  -2-13.0078 61.6189   2-0.25415-0.60125-0.32321 0.12108-0.98977 0.59614
   8   0   2 47.1787 136.879   4 0.56438 0.29102-0.67716 0.87930-0.42763 0.82126
   8   0   2 43.7398 85.2984   5 0.48607 0.36932-0.77176 0.97390-0.06990 0.46354
  -8   0  -3 18.3371 78.9561   2-0.19573-0.68339-0.29832 0.05597-0.98373 0.50168
  -8   0  -3 38.0520 119.545   1-0.35854-0.52058 0.51914-0.76148-0.48783 0.00578
  -8  -1   8 107.355 101.372   2-0.91949 0.28684-0.49122 0.59494-0.53946 0.98624
  -8  -1   7 55.5885 78.8491   2-0.88706 0.23069-0.49895 0.56246-0.63291 0.99127
  -8  -1   6 2.98219 56.9746   2-0.84079 0.16069-0.49978 0.52308-0.72043 0.99037
  -8  -1   5 118.113 99.9554   2-0.78094 0.07712-0.49310 0.47620-0.79883 0.98036
  -8  -1   4 40.6471 76.2046   2-0.70920-0.01835-0.47894 0.42182-0.86512 0.95823
  -8  -1   3 14.2354 79.9445   2-0.62874-0.12253-0.45808 0.36075-0.91714 0.92183
  -8  -1   2 25.1693 74.4451   0-0.49445-0.28055 0.71057-0.84810-0.10638 0.02265
  -8  -1   2 30.9084 61.5136   2-0.54391-0.23109-0.43213 0.29460-0.95424 0.87051
  -8  -1   1 400.526 158.314   0-0.49662-0.30210 0.70964-0.88738-0.10576-0.06639
  -8  -1   1 334.857 119.145   2-0.45945-0.33927-0.40323 0.22549-0.97738 0.80524
  -8  -1   0 139.225 116.802   2-0.37970-0.44274-0.37364 0.15569-0.98889 0.72833
  -8  -1  -1-5.78851 61.5147   2-0.30789-0.53828-0.34533 0.08717-0.99180 0.64282
   8   1   1 43.8910 135.033   4 0.58171 0.26446-0.66584 0.92400-0.40976 0.75874
   8   1   1 96.9777 106.054   5 0.54377 0.30240-0.71932 0.97748-0.00488 0.35386
  -8  -1  -2 132.001 127.226   2-0.24600-0.62390-0.31979 0.02142-0.98916 0.55177
   8   1   2 339.453 161.606   4 0.64782 0.22208-0.61749 0.91586-0.33664 0.77404
  -8  -1  -2 332.190 169.482   1-0.43094-0.43895 0.43308-0.73145-0.55389 0.11650
  -8  -2   8 61.0896 123.186   2-0.90195 0.25481-0.49658 0.50406-0.59529 0.99830
  -8  -2   7 136.505 108.625   2-0.86322 0.19235-0.50031 0.46758-0.68219 0.99678
  -8  -2   6 66.9061 107.026   2-0.81192 0.11732-0.49733 0.42440-0.76172 0.98790
  -8  -2   5 67.6171 113.828   2-0.74902 0.03070-0.48744 0.37430-0.83121 0.96897
  -8  -2   4 23.4840 69.6750   2-0.67677-0.06528-0.47105 0.31770-0.88843 0.93777
  -8  -2   3 142.044 127.014   2-0.59853-0.16724-0.44924 0.25568-0.93216 0.89309
  -8  -2   2 224.555 135.706   2-0.51838-0.27112-0.42369 0.18992-0.96254 0.83505
  -8  -2   1-10.6947 72.9786   2-0.44036-0.37286-0.39634 0.12236-0.98099 0.76508
   8   2   0 264.033 122.690   4 0.60986 0.22708-0.64630 0.96049-0.37964 0.68397
  -8  -2   0 264.423 149.725   2-0.36796-0.46898-0.36912 0.05493-0.98983 0.68550
  -8  -2  -1 61.9252 107.623   2-0.30365-0.55702-0.34362-0.01078-0.99177 0.59903
   8   2   1 89.2067 77.0372   4 0.67054 0.19013-0.59873 0.95313-0.30945 0.70219
  -8  -2  -2-6.17995 68.6011   1-0.49231-0.39209 0.35090-0.74551-0.60832 0.12716
  -8  -3   8 77.7935 127.422   2-0.88459 0.22295-0.49921 0.41046-0.63856 0.99781
  -8  -3   7 2.53805 91.1579   2-0.84167 0.15630-0.49983 0.37086-0.71904 0.98987
  -8  -3   6 185.813 138.718   2-0.78766 0.07857-0.49414 0.32497-0.79131 0.97373
  -8  -3   5 162.710 124.762   2-0.72405-0.00876-0.48227 0.27289-0.85321 0.94721
  -8  -3   4 223.444 134.641   2-0.65334-0.10320-0.46490 0.21531-0.90323 0.90881
  -8  -3   3 87.3179 93.5858   2-0.57881-0.20146-0.44322 0.15342-0.94085 0.85801
  -8  -3   2 35.5526 103.231   2-0.50412-0.29988-0.41886 0.08885-0.96667 0.79541
  -8  -3   1 26.3609 74.2527   2-0.43267-0.39505-0.39353 0.02331-0.98229 0.72261
  -8  -3   0 117.331 118.962   2-0.36725-0.48419-0.36884-0.04159-0.98988 0.64179
   8   3   1 155.231 153.337   4 0.75061 0.12455-0.52165 0.97229-0.20303 0.63953
  -8  -3  -1 173.034 155.149   1-0.55859-0.31658 0.25015-0.70079-0.66508 0.22857
  -8  -4   7 76.7593 115.308   2-0.82399 0.12413-0.49856 0.27336-0.74536 0.97243
  -8  -4   6 52.6378 95.7372   2-0.76924 0.04565-0.49117 0.22575-0.81132 0.94997
  -8  -4   5 49.3346 107.250   2-0.70671-0.04061-0.47836 0.17274-0.86703 0.91727
  -8  -4   4 618.232 194.856   2-0.63895-0.13209-0.46095 0.11512-0.91156 0.87337
  -8  -4   3 58.8458 157.763   2-0.56903-0.22573-0.44017 0.05413-0.94485 0.81824
  -8  -4   2 11.1931 104.985   2-0.50015-0.31834-0.41750-0.00875-0.96776 0.75273
  -8  -5   5 303.519 161.801   2-0.69713-0.06468-0.47609 0.07423-0.87420 0.88066
  -8  -5   4 64.8146 132.851   2-0.63328-0.15226-0.45936 0.01730-0.91469 0.83274
  -9   3   0-10.7951 75.4290   0-0.20920-0.65625 0.77960-0.62782-0.17371 0.06111
  -9   3  -1 37.7935 119.180   0-0.20748-0.68170 0.77974-0.66817-0.17404-0.02697
  -9   2   3 171.912 144.464   0-0.32104-0.48773 0.76388-0.58770-0.15035 0.25924
  -9   2   2 122.480 98.5698   0-0.30019-0.53230 0.76782-0.63185-0.15498 0.17545
  -9   2   1 166.658 122.340   0-0.28723-0.56899 0.77003-0.67427-0.15779 0.08984
  -9   2   0-2.68422 85.5756   0-0.28263-0.59731 0.77077-0.71522-0.15877 0.00241
  -9   2  -1 30.0483 95.7981   0-0.28694-0.61673 0.77008-0.75474-0.15785-0.08693
  -9   1   4 511.357 182.609   0-0.40788-0.39167 0.74204-0.62189-0.12963 0.28317
  -9   1   3 471.979 185.154   0-0.38557-0.43770 0.74852-0.66858-0.13519 0.20031
  -9   1   2 88.5841 120.901   0-0.37066-0.47633 0.75250-0.71278-0.13881 0.11551
  -9   1   1 59.8243 64.8727   0-0.36370-0.50702 0.75427-0.75475-0.14047 0.02876
  -9   1   0 423.126 186.896   0-0.36525-0.52920 0.75389-0.79458-0.14011-0.06002
  -9   1  -1 91.5200 141.692   2-0.41395-0.50422-0.38660 0.30570-0.98508 0.69653
  -9   0   6 40.2557 75.1791   2-0.86412 0.09753-0.50030 0.60463-0.68052 0.96713
  -9   0   5 23.0868 85.8046   0-0.49502-0.29530 0.71033-0.64621-0.10622 0.30441
  -9   0   5 112.657 129.779   2-0.81309 0.02277-0.49746 0.56158-0.76018 0.95838
  -9   0   4 33.0559 114.945   0-0.47220-0.34184 0.71967-0.69577-0.11263 0.22240
  -9   0   4 24.0333 117.268   2-0.75106-0.06299-0.48784 0.51175-0.82930 0.93907
  -9   0   3 12.4978 104.783   0-0.45615-0.38162 0.72579-0.74209-0.11702 0.13837
  -9   0   3 26.1716 67.1554   2-0.68053-0.15724-0.47200 0.45570-0.88590 0.90726
  -9   0   2 84.8065 104.614   0-0.44744-0.41405 0.72895-0.78546-0.11935 0.05229
  -9   0   2 259.966 153.777   2-0.60498-0.25651-0.45117 0.39466-0.92913 0.86207
  -9   0   1 25.7976 90.9612   0-0.44667-0.43854 0.72923-0.82595-0.11956-0.03592
  -9   0   1 48.0771 164.841   2-0.52837-0.35684-0.42702 0.33031-0.95943 0.80395
  -9   0   0 68.3083 136.647   2-0.45447-0.45447-0.40144 0.26452-0.97838 0.73448
  -9  -1   6 131.411 161.739   2-0.83435 0.05326-0.49938 0.50747-0.73031 0.97315
  -9  -1   5 58.3607 106.910   2-0.77903-0.02578-0.49280 0.46068-0.80092 0.95535
  -9  -1   4 33.3405 78.9842   2-0.71495-0.11359-0.48025 0.40792-0.86060 0.92661
  -9  -1   3 46.2070 132.934   2-0.64487-0.20739-0.46259 0.35005-0.90820 0.88579
  -9  -1   2 88.5292 102.919   2-0.57216-0.30383-0.44115 0.28841-0.94359 0.83276
  -9  -1   1 49.3448 99.4407   2-0.50031-0.39941-0.41755 0.22460-0.96771 0.76847
  -9  -2   5 61.8525 110.803   2-0.75049-0.06883-0.48773 0.35937-0.82983 0.94049
  -9  -2   4 21.9562 105.848   2-0.68652-0.15651-0.47350 0.30493-0.88178 0.90402
  -9  -2   3 102.436 130.564   2-0.61863-0.24814-0.45517 0.24640-0.92241 0.85624
;
_shelx_hkl_checksum              45337
loop_
_space_group_symop_operation_xyz
'x, y, z'
'-x, -y, -z'
loop_
_atom_site_label
_atom_site_type_symbol
_atom_site_fract_x
_atom_site_fract_y
_atom_site_fract_z
_atom_site_U_iso_or_equiv
_atom_site_adp_type
_atom_site_occupancy
_atom_site_site_symmetry_order
_atom_site_calc_flag
_atom_site_refinement_flags_posn
_atom_site_refinement_flags_adp
_atom_site_refinement_flags_occupancy
_atom_site_disorder_assembly
_atom_site_disorder_group
O1 O 0.22508(10) 0.42168(8) 0.39009(7) 0.0560(2) Uani 1 1 d . . . . .
O2 O 0.21472(10) 0.17168(8) 0.16536(7) 0.0579(2) Uani 1 1 d . . . . .
O3 O 0.32732(10) 0.14313(10) 0.65214(7) 0.0731(3) Uani 1 1 d . . . . .
O4 O 0.08773(10) 0.05745(10) 0.42937(7) 0.0796(2) Uani 1 1 d . . . . .
C1 C 0.26420(12) 0.26448(11) 0.31948(9) 0.0405(3) Uani 1 1 d . . . . .
C2 C 0.37857(13) 0.18846(13) 0.42750(10) 0.0504(3) Uani 1 1 d . . . . .
C3 C 0.26036(14) 0.12818(11) 0.51478(10) 0.0463(3) Uani 1 1 d . . . . .
N1A1 N 0.29127(11) 0.63347(10) 0.71905(8) 0.0469(2) Uani 1 1 d . . . . .
C1A C 0.23064(13) 0.79029(12) 0.78717(10) 0.0477(3) Uani 1 1 d . . . . .
N1A2 N 0.29507(10) 0.86033(10) 0.94957(8) 0.0474(2) Uani 1 1 d . . . . .
C2A C 0.40044(14) 0.74436(13) 0.98708(10) 0.0528(3) Uani 1 1 d . . . . .
C3A C 0.39871(14) 0.60284(13) 0.84372(11) 0.0543(3) Uani 1 1 d . . . . .
N1B1 N 0.0687(2) 0.40947(19) 1.05048(17) 0.0480(5) Uani 0.5 1 d D . P A 1
C1B C 0.0063(3) 0.3815(3) 0.8943(2) 0.0579(7) Uani 0.5 1 d . . P A 1
N1B2 N -0.0627(2) 0.5243(2) 0.89244(16) 0.0492(5) Uani 0.5 1 d D . P A 1
C2B C -0.0367(3) 0.6520(3) 1.0521(2) 0.0566(7) Uani 0.5 1 d . . P A 1
C3B C 0.0488(3) 0.5830(3) 1.1552(2) 0.0577(7) Uani 0.5 1 d . . P A 1
H3B H 0.071(2) 0.627(2) 1.2757(18) 0.048(5) Uiso 0.5 1 d . . P B 1
H2B H -0.075(2) 0.754(2) 1.0758(17) 0.043(5) Uiso 0.5 1 d . . P C 1
H1B2 H -0.112(2) 0.558(2) 0.7997(18) 0.065(6) Uiso 0.5 1 d D . P D 1
H1B1 H 0.120(3) 0.309(2) 1.080(2) 0.106(8) Uiso 0.5 1 d D . P E 1
H1B H 0.002(3) 0.279(3) 0.801(2) 0.083(7) Uiso 0.5 1 d . . P F 1
H4 H 0.0000 0.0000 0.5000 0.114(6) Uiso 1 2 d S . P . .
H21 H 0.4814(13) 0.2835(12) 0.5116(11) 0.071(3) Uiso 1 1 d . . . . .
H22 H 0.4276(12) 0.0860(12) 0.3566(10) 0.066(3) Uiso 1 1 d . . . . .
H1A1 H 0.2716(12) 0.5577(12) 0.6055(10) 0.070(3) Uiso 1 1 d . . . . .
H1A H 0.1536(13) 0.8459(13) 0.7297(11) 0.073(3) Uiso 1 1 d . . . . .
H1A2 H 0.2770(12) 0.9651(12) 1.0323(11) 0.071(3) Uiso 1 1 d . . . . .
H2A H 0.4578(13) 0.7779(12) 1.0997(10) 0.066(3) Uiso 1 1 d . . . . .
H3A H 0.4503(14) 0.5055(14) 0.8252(12) 0.090(4) Uiso 1 1 d . . . . .
loop_
_atom_site_aniso_label
_atom_site_aniso_U_11
_atom_site_aniso_U_22
_atom_site_aniso_U_33
_atom_site_aniso_U_23
_atom_site_aniso_U_13
_atom_site_aniso_U_12
O1 0.0823(4) 0.0429(3) 0.0378(3) 0.0163(2) 0.0097(3) 0.0182(3)
O2 0.0829(4) 0.0519(3) 0.0335(3) 0.0162(2) 0.0103(3) 0.0230(3)
O3 0.0771(5) 0.0984(4) 0.0429(3) 0.0416(2) -0.0037(3) 0.0042(4)
O4 0.0714(4) 0.1104(4) 0.0632(3) 0.0622(2) -0.0121(3) -0.0266(3)
C1 0.0452(5) 0.0421(4) 0.0364(3) 0.0202(3) 0.0104(3) 0.0052(4)
C2 0.0485(5) 0.0583(5) 0.0467(4) 0.0293(3) 0.0052(4) 0.0123(4)
C3 0.0595(5) 0.0408(4) 0.0373(4) 0.0224(3) 0.0005(4) 0.0099(4)
N1A1 0.0550(4) 0.0456(4) 0.0338(3) 0.0146(3) 0.0072(3) 0.0095(3)
C1A 0.0533(5) 0.0469(4) 0.0405(4) 0.0200(3) 0.0078(4) 0.0094(4)
N1A2 0.0568(4) 0.0414(4) 0.0370(3) 0.0141(3) 0.0077(3) 0.0076(3)
C2A 0.0619(6) 0.0526(5) 0.0368(4) 0.0196(3) 0.0014(4) 0.0090(4)
C3A 0.0644(6) 0.0494(5) 0.0459(4) 0.0222(3) 0.0068(4) 0.0166(4)
N1B1 0.0599(9) 0.0401(7) 0.0397(6) 0.0186(5) 0.0045(6) 0.0064(7)
C1B 0.0653(12) 0.0670(10) 0.0459(8) 0.0341(7) 0.0051(8) 0.0132(10)
N1B2 0.0661(9) 0.0441(7) 0.0354(6) 0.0212(5) 0.0035(6) 0.0087(7)
C2B 0.0687(12) 0.0493(9) 0.0521(9) 0.0238(7) 0.0134(9) 0.0219(9)
C3B 0.0693(12) 0.0572(10) 0.0461(9) 0.0242(7) 0.0123(9) 0.0153(10)
loop_
_atom_type_symbol
_atom_type_description
_atom_type_scat_dispersion_real
_atom_type_scat_dispersion_imag
_atom_type_scat_source
C C 0.0033 0.0016 'International Tables Vol C Tables 4.2.6.8 and 6.1.1.4'
H H 0.0000 0.0000 'International Tables Vol C Tables 4.2.6.8 and 6.1.1.4'
N N 0.0061 0.0033 'International Tables Vol C Tables 4.2.6.8 and 6.1.1.4'
O O 0.0106 0.0060 'International Tables Vol C Tables 4.2.6.8 and 6.1.1.4'
loop_
_geom_angle_atom_site_label_1
_geom_angle_atom_site_label_2
_geom_angle_atom_site_label_3
_geom_angle
_geom_angle_site_symmetry_1
_geom_angle_site_symmetry_3
_geom_angle_publ_flag
C3 O4 H4 112.83(7) . . ?
O2 C1 O1 122.29(9) . . ?
O2 C1 C2 119.66(8) . . ?
O1 C1 C2 118.05(7) . . ?
C3 C2 C1 112.56(8) . . ?
C3 C2 H21 108.6(6) . . ?
C1 C2 H21 108.0(7) . . ?
C3 C2 H22 109.0(6) . . ?
C1 C2 H22 107.6(6) . . ?
H21 C2 H22 111.1(7) . . ?
O3 C3 O4 123.83(10) . . ?
O3 C3 C2 121.38(9) . . ?
O4 C3 C2 114.77(8) . . ?
C1A N1A1 C3A 108.34(8) . . ?
C1A N1A1 H1A1 126.8(7) . . ?
C3A N1A1 H1A1 124.7(6) . . ?
N1A2 C1A N1A1 108.80(9) . . ?
N1A2 C1A H1A 124.7(5) . . ?
N1A1 C1A H1A 126.5(5) . . ?
C1A N1A2 C2A 108.53(8) . . ?
C1A N1A2 H1A2 130.9(6) . . ?
C2A N1A2 H1A2 120.5(7) . . ?
C3A C2A N1A2 107.37(9) . . ?
C3A C2A H2A 134.5(6) . . ?
N1A2 C2A H2A 118.1(6) . . ?
C2A C3A N1A1 106.96(9) . . ?
C2A C3A H3A 130.0(7) . . ?
N1A1 C3A H3A 123.0(7) . . ?
N1B2 N1B1 C2B 146.7(4) 2_567 2_567 ?
N1B2 N1B1 C1B 123.2(3) 2_567 . ?
C2B N1B1 C1B 24.69(19) 2_567 . ?
N1B2 N1B1 C3B 15.0(2) 2_567 . ?
C2B N1B1 C3B 133.3(3) 2_567 . ?
C1B N1B1 C3B 108.98(18) . . ?
N1B2 N1B1 C1B 36.9(2) 2_567 2_567 ?
C2B N1B1 C1B 110.4(2) 2_567 2_567 ?
C1B N1B1 C1B 86.35(14) . 2_567 ?
C3B N1B1 C1B 22.97(11) . 2_567 ?
N1B2 N1B1 C3B 110.4(3) 2_567 2_567 ?
C2B N1B1 C3B 36.83(19) 2_567 2_567 ?
C1B N1B1 C3B 13.00(11) . 2_567 ?
C3B N1B1 C3B 96.46(13) . 2_567 ?
C1B N1B1 C3B 73.65(11) 2_567 2_567 ?
N1B2 N1B1 H1B1 114.5(11) 2_567 . ?
C2B N1B1 H1B1 97.5(10) 2_567 . ?
C1B N1B1 H1B1 122.0(11) . . ?
C3B N1B1 H1B1 129.0(11) . . ?
C1B N1B1 H1B1 151.2(11) 2_567 . ?
C3B N1B1 H1B1 134.3(10) 2_567 . ?
C2B C1B C3B 164.2(5) 2_567 2_567 ?
C2B C1B N1B2 139.3(3) 2_567 . ?
C3B C1B N1B2 34.28(19) 2_567 . ?
C2B C1B N1B1 31.18(19) 2_567 . ?
C3B C1B N1B1 142.1(3) 2_567 . ?
N1B2 C1B N1B1 109.22(15) . . ?
C2B C1B N1B2 47.4(2) 2_567 2_567 ?
C3B C1B N1B2 125.7(3) 2_567 2_567 ?
N1B2 C1B N1B2 92.65(14) . 2_567 ?
N1B1 C1B N1B2 16.57(9) . 2_567 ?
C2B C1B N1B1 123.9(3) 2_567 2_567 ?
C3B C1B N1B1 49.5(2) 2_567 2_567 ?
N1B2 C1B N1B1 15.58(8) . 2_567 ?
N1B1 C1B N1B1 93.65(14) . 2_567 ?
N1B2 C1B N1B1 77.08(11) 2_567 2_567 ?
C2B C1B H1B 96.3(16) 2_567 . ?
C3B C1B H1B 89.5(15) 2_567 . ?
N1B2 C1B H1B 123.4(15) . . ?
N1B1 C1B H1B 127.3(16) . . ?
N1B2 C1B H1B 143.7(16) 2_567 . ?
N1B1 C1B H1B 138.9(15) 2_567 . ?
N1B1 N1B2 C3B 154.5(4) 2_567 2_567 ?
N1B1 N1B2 C1B 127.6(3) 2_567 . ?
C3B N1B2 C1B 28.86(17) 2_567 . ?
N1B1 N1B2 C2B 19.6(2) 2_567 . ?
C3B N1B2 C2B 136.5(3) 2_567 . ?
C1B N1B2 C2B 108.37(16) . . ?
N1B1 N1B2 C1B 40.2(2) 2_567 2_567 ?
C3B N1B2 C1B 115.3(2) 2_567 2_567 ?
C1B N1B2 C1B 87.35(14) . 2_567 ?
C2B N1B2 C1B 21.27(12) . 2_567 ?
N1B1 N1B2 C2B 114.2(3) 2_567 2_567 ?
C3B N1B2 C2B 41.54(18) 2_567 2_567 ?
C1B N1B2 C2B 13.51(10) . 2_567 ?
C2B N1B2 C2B 95.19(14) . 2_567 ?
C1B N1B2 C2B 74.04(11) 2_567 2_567 ?
N1B1 N1B2 H1B2 100.0(9) 2_567 . ?
C3B N1B2 H1B2 104.7(9) 2_567 . ?
C1B N1B2 H1B2 132.3(9) . . ?
C2B N1B2 H1B2 118.8(9) . . ?
C1B N1B2 H1B2 140.0(9) 2_567 . ?
C2B N1B2 H1B2 145.8(9) 2_567 . ?
C1B C2B N1B1 124.1(3) 2_567 2_567 ?
C1B C2B N1B2 111.3(3) 2_567 . ?
N1B1 C2B N1B2 13.70(16) 2_567 . ?
C1B C2B C3B 8.1(2) 2_567 . ?
N1B1 C2B C3B 121.8(3) 2_567 . ?
N1B2 C2B C3B 108.40(18) . . ?
C1B C2B N1B2 27.2(2) 2_567 2_567 ?
N1B1 C2B N1B2 98.1(2) 2_567 2_567 ?
N1B2 C2B N1B2 84.81(14) . 2_567 ?
C3B C2B N1B2 23.68(9) . 2_567 ?
C1B C2B C3B 95.2(3) 2_567 2_567 ?
N1B1 C2B C3B 29.49(17) 2_567 2_567 ?
N1B2 C2B C3B 16.19(11) . 2_567 ?
C3B C2B C3B 92.32(14) . 2_567 ?
N1B2 C2B C3B 68.68(10) 2_567 2_567 ?
C1B C2B H2B 125.8(11) 2_567 . ?
N1B1 C2B H2B 108.4(10) 2_567 . ?
N1B2 C2B H2B 122.0(10) . . ?
C3B C2B H2B 129.6(11) . . ?
N1B2 C2B H2B 152.9(11) 2_567 . ?
C3B C2B H2B 137.9(10) 2_567 . ?
C1B C3B N1B2 116.9(3) 2_567 2_567 ?
C1B C3B C2B 7.7(2) 2_567 . ?
N1B2 C3B C2B 114.8(2) 2_567 . ?
C1B C3B N1B1 107.6(2) 2_567 . ?
N1B2 C3B N1B1 10.54(16) 2_567 . ?
C2B C3B N1B1 104.91(16) . . ?
C1B C3B N1B1 24.94(19) 2_567 2_567 ?
N1B2 C3B N1B1 93.41(19) 2_567 2_567 ?
C2B C3B N1B1 21.38(9) . 2_567 ?
N1B1 C3B N1B1 83.54(13) . 2_567 ?
C1B C3B C2B 90.4(2) 2_567 2_567 ?
N1B2 C3B C2B 27.28(16) 2_567 2_567 ?
C2B C3B C2B 87.68(14) . 2_567 ?
N1B1 C3B C2B 17.24(10) . 2_567 ?
N1B1 C3B C2B 66.31(10) 2_567 2_567 ?
C1B C3B H3B 126.8(11) 2_567 . ?
N1B2 C3B H3B 112.2(11) 2_567 . ?
C2B C3B H3B 131.4(11) . . ?
N1B1 C3B H3B 122.6(11) . . ?
N1B1 C3B H3B 151.7(10) 2_567 . ?
C2B C3B H3B 139.3(11) 2_567 . ?
loop_
_geom_bond_atom_site_label_1
_geom_bond_atom_site_label_2
_geom_bond_distance
_geom_bond_site_symmetry_2
_geom_bond_publ_flag
O1 C1 1.2538(11) . ?
O2 C1 1.2439(10) . ?
O3 C3 1.2022(11) . ?
O4 C3 1.2844(12) . ?
O4 H4 1.2258(8) . ?
C1 C2 1.5147(15) . ?
C2 C3 1.5107(16) . ?
C2 H21 0.975(8) . ?
C2 H22 0.959(9) . ?
N1A1 C1A 1.3158(12) . ?
N1A1 C3A 1.3659(13) . ?
N1A1 H1A1 0.932(8) . ?
C1A N1A2 1.3102(12) . ?
C1A H1A 0.951(11) . ?
N1A2 C2A 1.3606(14) . ?
N1A2 H1A2 0.912(8) . ?
C2A C3A 1.3307(13) . ?
C2A H2A 0.938(9) . ?
C3A H3A 0.866(12) . ?
N1B1 N1B2 0.5845(19) 2_567 ?
N1B1 C2B 0.828(2) 2_567 ?
N1B1 C1B 1.323(2) . ?
N1B1 C3B 1.375(2) . ?
N1B1 C1B 1.725(3) 2_567 ?
N1B1 C3B 1.930(3) 2_567 ?
N1B1 H1B1 1.04(2) . ?
C1B C2B 0.668(3) 2_567 ?
C1B C3B 0.706(3) 2_567 ?
C1B N1B2 1.305(3) . ?
C1B N1B2 1.715(2) 2_567 ?
C1B N1B1 1.725(3) 2_567 ?
C1B H1B 0.903(18) . ?
N1B2 N1B1 0.5845(19) 2_567 ?
N1B2 C3B 0.824(2) 2_567 ?
N1B2 C2B 1.355(2) . ?
N1B2 C1B 1.715(2) 2_567 ?
N1B2 C2B 1.863(3) 2_567 ?
N1B2 H1B2 1.008(18) . ?
C2B C1B 0.668(3) 2_567 ?
C2B N1B1 0.828(2) 2_567 ?
C2B C3B 1.361(3) . ?
C2B N1B2 1.863(3) 2_567 ?
C2B C3B 2.034(3) 2_567 ?
C2B H2B 0.847(16) . ?
C3B C1B 0.706(3) 2_567 ?
C3B N1B2 0.824(2) 2_567 ?
C3B N1B1 1.930(3) 2_567 ?
C3B C2B 2.034(3) 2_567 ?
C3B H3B 0.981(15) . ?
loop_
_geom_hbond_atom_site_label_D
_geom_hbond_atom_site_label_H
_geom_hbond_atom_site_label_A
_geom_hbond_distance_DH
_geom_hbond_distance_HA
_geom_hbond_distance_DA
_geom_hbond_angle_DHA
_geom_hbond_site_symmetry_A
O4 H4 O3 1.2258(8) 2.4333(12) 3.1675(14) 115.94(4) 2_556
O4 H4 O4 1.2258(8) 1.2258(9) 2.4516(17) 180.000(0) 2_556
C2 H21 O1 0.975(8) 2.865(9) 3.748(2) 151.2(8) 2_666
C2 H22 O3 0.959(9) 2.638(10) 3.4690(17) 145.1(7) 2_656
N1A1 H1A1 O1 0.932(8) 1.752(8) 2.6832(14) 177.0(9) .
C1A H1A O4 0.951(11) 2.418(11) 3.3578(16) 169.5(8) 2_566
N1A2 H1A2 O2 0.912(8) 1.767(9) 2.6698(14) 170.4(9) 1_566
C2A H2A O3 0.938(9) 2.269(9) 3.1796(17) 163.7(8) 2_667
C3A H3A O3 0.866(12) 2.713(10) 3.3882(18) 135.9(8) .
C3B H3B O1 0.981(15) 2.537(18) 3.087(3) 115.4(12) 1_556
C2B H2B O2 0.847(16) 2.570(17) 3.059(3) 117.9(12) 2_566
C2B H2B O4 0.847(16) 3.052(13) 3.526(3) 117.7(12) 1_566
N1B2 H1B2 O1 1.008(18) 1.845(17) 2.8425(19) 170.0(13) 2_566
N1B2 H1B2 O2 1.008(18) 2.297(18) 2.990(2) 124.9(11) 2_566
N1B1 H1B1 O1 1.04(2) 2.51(2) 3.0442(19) 111.2(12) 1_556
N1B1 H1B1 O2 1.04(2) 1.73(2) 2.754(2) 169.9(16) 1_556
C1B H1B O3 0.903(18) 3.02(2) 3.639(3) 127.5(15) .
C1B H1B O4 0.903(18) 2.609(18) 3.475(2) 161(2) 2_556
