#------------------------------------------------------------------------------
#$Date: 2021-05-15 07:29:17 +0300 (Sat, 15 May 2021) $
#$Revision: 265241 $
#$URL: file:///home/coder/svn-repositories/cod/cif/2/10/88/2108803.cif $
#------------------------------------------------------------------------------
#
# This file is available in the Crystallography Open Database (COD),
# http://www.crystallography.net/. The original data for this entry
# were provided by IUCr Journals, http://journals.iucr.org/.
#
# The file may be used within the scientific community so long as
# proper attribution is given to the journal article from which the
# data were obtained.
#
data_2108803
loop_
_publ_author_name
'Pl\'a\<sil, Jakub'
'Pet\<r\'i\<cek, V\'aclav'
'\<Sk\'acha, Pavel'
_publ_section_title
;
 Crystal structure of the uranyl arsenate mineral h\"ugelite,
 Pb~2~(UO~2~)~3~O~2~(AsO~4~)~2~(H~2~O)~5~, revisited: a correct unit cell,
 twinning and hydrogen bonding
;
_journal_coeditor_code           RA5095SUP1
_journal_issue                   3
_journal_name_full               'Acta Crystallographica Section B'
_journal_page_first
;
;
_journal_paper_doi               10.1107/S2052520621004091
_journal_volume                  77
_journal_year                    2021
_chemical_formula_sum            'As0.201 H10 O21 P0.799 Pb2 U3'
_chemical_formula_weight         1587.7
_space_group_IT_number           11
_space_group_name_Hall           '-P 2yb'
_space_group_name_H-M_alt        'P 1 21/m 1'
_symmetry_cell_setting           monoclinic
_symmetry_Int_Tables_number      11
_symmetry_space_group_name_Hall  '-P 2yb'
_symmetry_space_group_name_H-M   'P 1 21/m 1'
_atom_sites_solution_hydrogens   difmap
_atom_sites_solution_primary     direct
_atom_sites_solution_secondary   difmap
_audit_creation_method           'Jana2020 Version : 02/02/2021'
_audit_update_record
;
2021-02-05 # Formatted by publCIF
;
_cell_angle_alpha                90
_cell_angle_beta                 108.886(5)
_cell_angle_gamma                90
_cell_formula_units_Z            2
_cell_length_a                   7.0258(3)
_cell_length_b                   17.1769(5)
_cell_length_c                   8.1463(7)
_cell_measurement_reflns_used    7003
_cell_measurement_temperature    297.1(4)
_cell_measurement_theta_max      29.28
_cell_measurement_theta_min      2.65
_cell_volume                     930.18(10)
_computing_cell_refinement       'CrysAlisPro 1.171.39.46 (Rigaku OD, 2018)'
_computing_data_collection       'CrysAlisPro 1.171.39.46 (Rigaku OD, 2018)'
_computing_data_reduction        'CrysAlisPro 1.171.39.46 (Rigaku OD, 2018)'
_diffrn_ambient_temperature      297.1
_diffrn_detector                 'CCD plate'
_diffrn_detector_area_resol_mean 10.4054
_diffrn_measured_fraction_theta_full 0.98
_diffrn_measured_fraction_theta_max 0.92
_diffrn_measurement_device       'four-circle diffractometer'
_diffrn_measurement_device_type  'SuperNova, Dual, Cu at home/near, AtlasS2'
_diffrn_measurement_method       '\w scans'
_diffrn_radiation_monochromator  mirror
_diffrn_radiation_probe          x-ray
_diffrn_radiation_source         'X-ray tube'
_diffrn_radiation_type           'Mo K\a'
_diffrn_radiation_wavelength     0.71073
_diffrn_reflns_av_R_equivalents  0.0691
_diffrn_reflns_av_unetI/netI     0.0716
_diffrn_reflns_limit_h_max       9
_diffrn_reflns_limit_h_min       -9
_diffrn_reflns_limit_k_max       23
_diffrn_reflns_limit_k_min       -23
_diffrn_reflns_limit_l_max       10
_diffrn_reflns_limit_l_min       -11
_diffrn_reflns_number            19219
_diffrn_reflns_theta_full        28.52
_diffrn_reflns_theta_max         29.78
_diffrn_reflns_theta_min         2.38
_diffrn_source                   'micro-focus sealed X-ray tube'
_exptl_absorpt_coefficient_mu    46.295
_exptl_absorpt_correction_T_max  1
_exptl_absorpt_correction_T_min  0.501
_exptl_absorpt_correction_type   multi-scan
_exptl_absorpt_process_details
;
CrysAlisPro 1.171.39.46 (Rigaku Oxford Diffraction, 2018)
Empirical absorption correction using spherical harmonics,
 implemented in SCALE3 ABSPACK scaling algorithm.
;
_exptl_crystal_colour            yellow
_exptl_crystal_density_diffrn    5.6687
_exptl_crystal_description       prismatic
_exptl_crystal_F_000             1338
_exptl_crystal_size_max          0.067
_exptl_crystal_size_mid          0.018
_exptl_crystal_size_min          0.005
_refine_diff_density_max         5.04
_refine_diff_density_min         -4.02
_refine_ls_extinction_method     none
_refine_ls_goodness_of_fit_gt    1.1145
_refine_ls_goodness_of_fit_ref   1.0670
_refine_ls_hydrogen_treatment    mixed
_refine_ls_matrix_type           full
_refine_ls_number_constraints    27
_refine_ls_number_parameters     141
_refine_ls_number_reflns         19152
_refine_ls_number_restraints     3
_refine_ls_R_factor_all          0.0750
_refine_ls_R_factor_gt           0.0482
_refine_ls_shift/su_max          0.0156
_refine_ls_shift/su_mean         0.0023
_refine_ls_structure_factor_coef Fsqd
_refine_ls_weighting_details     w=1/(\s^2^(I)+0.0036I^2^)
_refine_ls_weighting_scheme      sigma
_refine_ls_wR_factor_gt          0.1181
_refine_ls_wR_factor_ref         0.1373
_reflns_number_gt                12864
_reflns_number_total             19152
_reflns_threshold_expression     I>3\s(I)
_cod_data_source_file            ra5095sup1.cif
_cod_data_source_block           global
_cod_original_formula_sum        'Pb2 U3 As.201 O21 P0.799 H10'
_cod_database_code               2108803
loop_
_space_group_symop_id
_space_group_symop_operation_xyz
1 x,y,z
2 -x,y+1/2,-z
3 -x,-y,-z
4 x,-y+1/2,z
loop_
_atom_site_label
_atom_site_type_symbol
_atom_site_fract_x
_atom_site_fract_y
_atom_site_fract_z
_atom_site_adp_type
_atom_site_U_iso_or_equiv
_atom_site_site_symmetry_multiplicity
_atom_site_occupancy
_atom_site_calc_flag
_atom_site_refinement_flags
_atom_site_disorder_assembly
_atom_site_disorder_group
U1 U 0.20433(3) 0.643329(14) 0.41403(4) Uani 0.01152(9) 4 1 d . . .
U2 U 0.70080(5) 0.75 0.40310(5) Uani 0.01446(13) 2 1 d . . .
Pb Pb 0.63520(4) 0.394231(17) 0.05030(4) Uani 0.02458(11) 4 1 d . . .
As As 0.69116(12) 0.55223(5) 0.38661(13) Uani 0.0122(4) 4 0.583(5) d . . .
P P 0.69116(12) 0.55223(5) 0.38661(13) Uani 0.0122(4) 4 0.417(5) d . . .
O1 O 1.0114(9) 0.75 0.3837(9) Uani 0.018(2) 2 1 d . . .
O2 O 0.3903(8) 0.75 0.4195(9) Uani 0.014(2) 2 1 d . . .
O3 O 0.8069(9) 0.75 0.6354(10) Uani 0.027(3) 2 1 d . . .
O4 O 0.1462(7) 0.6320(3) 0.1824(7) Uani 0.0220(19) 4 1 d . . .
O5 O 1.1685(10) 0.75 0.9215(10) Uani 0.026(3) 2 1 d . . .
O6 O 0.5906(9) 0.75 0.1706(9) Uani 0.020(3) 2 1 d . . .
O7 O 0.2622(7) 0.6501(3) 0.6470(7) Uani 0.0222(19) 4 1 d . . .
O8 O 0.5439(7) 0.6152(3) 0.4342(8) Uani 0.028(2) 4 1 d . . .
O9 O 0.5839(7) 0.5119(3) 0.2001(7) Uani 0.030(2) 4 1 d . . .
O10 O 0.2938(9) 0.3432(5) 0.0899(9) Uani 0.065(4) 4 1 d . . .
O11 O 0.8630(7) 0.6144(3) 0.3737(8) Uani 0.030(2) 4 1 d . . .
O12 O 0.9983(7) 0.4479(2) 0.1406(9) Uani 0.044(3) 4 1 d . . .
O13 O 0.7802(6) 0.4928(3) 0.5421(7) Uani 0.0210(19) 4 1 d . . .
H1o5 H 1.076(9) 0.75 0.962(10) Uiso 0.0315 2 1 d . . .
H2o5 H 1.123(12) 0.75 0.8153(17) Uiso 0.0315 2 1 d . . .
H1o10 H 0.2364 0.3051 0.0353 Uiso 0.0778 4 1 d . . .
H2o10 H 0.2463 0.3656 0.1567 Uiso 0.0778 4 1 d . . .
H1o12 H 1.0882 0.4218 0.1242 Uiso 0.0534 4 1 d . . .
H2o12 H 1.0236 0.4910 0.1855 Uiso 0.0534 4 1 d . . .
loop_
_atom_site_aniso_label
_atom_site_aniso_type_symbol
_atom_site_aniso_U_11
_atom_site_aniso_U_22
_atom_site_aniso_U_33
_atom_site_aniso_U_12
_atom_site_aniso_U_13
_atom_site_aniso_U_23
U1 U 0.00715(13) 0.01164(13) 0.01755(16) -0.00017(9) 0.00645(10) -0.00019(11)
U2 U 0.00681(17) 0.01711(19) 0.0206(2) 0 0.00602(15) 0
Pb Pb 0.02451(16) 0.02622(17) 0.02344(19) 0.00249(12) 0.00834(12) 0.00213(13)
As As 0.0067(5) 0.0104(5) 0.0194(7) 0.0007(3) 0.0042(4) 0.0000(4)
P P 0.0067(5) 0.0104(5) 0.0194(7) 0.0007(3) 0.0042(4) 0.0000(4)
O1 O 0.015(3) 0.017(4) 0.020(4) 0 0.004(3) 0
O2 O 0.011(3) 0.015(3) 0.018(4) 0 0.007(3) 0
O3 O 0.021(4) 0.033(4) 0.027(5) 0 0.008(3) 0
O4 O 0.028(3) 0.032(3) 0.008(3) -0.005(2) 0.009(2) -0.005(2)
O5 O 0.030(4) 0.036(5) 0.014(5) 0 0.009(3) 0
O6 O 0.017(3) 0.035(4) 0.004(4) 0 0.000(3) 0
O7 O 0.021(3) 0.023(3) 0.023(3) 0.001(2) 0.008(2) 0.004(2)
O8 O 0.017(3) 0.021(3) 0.052(4) 0.003(2) 0.017(3) 0.002(3)
O9 O 0.038(3) 0.021(3) 0.030(4) 0.012(2) 0.009(3) 0.008(3)
O10 O 0.047(4) 0.079(6) 0.081(7) 0.003(4) 0.038(4) -0.009(5)
O11 O 0.015(2) 0.020(3) 0.060(5) -0.004(2) 0.016(3) 0.007(3)
O12 O 0.041(3) 0.036(4) 0.060(5) -0.006(3) 0.022(3) -0.013(4)
O13 O 0.026(3) 0.011(2) 0.028(4) 0.002(2) 0.013(2) -0.001(2)
loop_
_atom_type_symbol
_atom_type_scat_dispersion_real
_atom_type_scat_dispersion_imag
_atom_type_scat_source
As 0.0499 2.0058 'International Tables Vol C tables 4.2.6.8 and 6.1.1.1'
H 0.0000 0.0000 'International Tables Vol C tables 4.2.6.8 and 6.1.1.1'
O 0.0106 0.0060 'International Tables Vol C tables 4.2.6.8 and 6.1.1.1'
P 0.1023 0.0942 'International Tables Vol C tables 4.2.6.8 and 6.1.1.1'
Pb -3.3944 10.1111 'International Tables Vol C tables 4.2.6.8 and 6.1.1.1'
U -9.6767 9.6646 'International Tables Vol C tables 4.2.6.8 and 6.1.1.1'
loop_
_diffrn_standard_refln_index_h
_diffrn_standard_refln_index_k
_diffrn_standard_refln_index_l
? ? ?
loop_
_exptl_crystal_face_index_h
_exptl_crystal_face_index_k
_exptl_crystal_face_index_l
_exptl_crystal_face_perp_dist
? ? ? ?
loop_
_geom_angle_atom_site_label_1
_geom_angle_atom_site_label_2
_geom_angle_atom_site_label_3
_geom_angle_site_symmetry_1
_geom_angle_site_symmetry_2
_geom_angle_site_symmetry_3
_geom_angle
_geom_angle_publ_flag
O1 U1 O2 1_455 . . 70.27(18) ?
O1 U1 O4 1_455 . . 92.8(2) ?
O1 U1 O7 1_455 . . 89.2(2) ?
O1 U1 O8 1_455 . . 136.64(18) ?
O1 U1 O11 1_455 . 1_455 66.88(18) ?
O1 U1 O13 1_455 . 3_666 145.20(19) ?
O1 U1 H2o12 1_455 . 1_455 119.2 ?
O2 U1 O4 . . . 92.4(2) ?
O2 U1 O7 . . . 89.7(2) ?
O2 U1 O8 . . . 66.47(17) ?
O2 U1 O11 . . 1_455 137.09(17) ?
O2 U1 O13 . . 3_666 143.86(16) ?
O2 U1 H2o12 . . 1_455 142.43 ?
O4 U1 O7 . . . 177.5(2) ?
O4 U1 O8 . . . 86.2(2) ?
O4 U1 O11 . . 1_455 87.5(2) ?
O4 U1 O13 . . 3_666 92.0(2) ?
O4 U1 H2o12 . . 1_455 52.83 ?
O7 U1 O8 . . . 93.5(2) ?
O7 U1 O11 . . 1_455 91.9(2) ?
O7 U1 O13 . . 3_666 85.5(2) ?
O7 U1 H2o12 . . 1_455 124.75 ?
O8 U1 O11 . . 1_455 155.90(17) ?
O8 U1 O13 . . 3_666 78.08(17) ?
O8 U1 H2o12 . . 1_455 94.24 ?
O11 U1 O13 1_455 . 3_666 78.93(16) ?
O11 U1 H2o12 1_455 . 1_455 63.71 ?
O13 U1 H2o12 3_666 . 1_455 43.49 ?
As U2 As . . 4_565 175.64(3) ?
As U2 P . . . 0 ?
As U2 P . . 4_565 175.64(3) ?
As U2 O1 . . . 90.264(18) ?
As U2 O2 . . . 89.714(18) ?
As U2 O3 . . . 92.167(18) ?
As U2 O6 . . . 87.829(18) ?
As U2 O8 . . . 27.68(12) ?
As U2 O8 . . 4_565 152.38(12) ?
As U2 O11 . . . 28.07(12) ?
As U2 O11 . . 4_565 151.95(13) ?
As U2 P 4_565 . . 175.64(3) ?
As U2 P 4_565 . 4_565 0 ?
As U2 O1 4_565 . . 90.264(18) ?
As U2 O2 4_565 . . 89.714(18) ?
As U2 O3 4_565 . . 92.167(18) ?
As U2 O6 4_565 . . 87.829(18) ?
As U2 O8 4_565 . . 152.38(12) ?
As U2 O8 4_565 . 4_565 27.68(12) ?
As U2 O11 4_565 . . 151.95(13) ?
As U2 O11 4_565 . 4_565 28.07(12) ?
P U2 P . . 4_565 175.64(3) ?
P U2 O1 . . . 90.264(18) ?
P U2 O2 . . . 89.714(18) ?
P U2 O3 . . . 92.167(18) ?
P U2 O6 . . . 87.829(18) ?
P U2 O8 . . . 27.68(12) ?
P U2 O8 . . 4_565 152.38(12) ?
P U2 O11 . . . 28.07(12) ?
P U2 O11 . . 4_565 151.95(13) ?
P U2 O1 4_565 . . 90.264(18) ?
P U2 O2 4_565 . . 89.714(18) ?
P U2 O3 4_565 . . 92.167(18) ?
P U2 O6 4_565 . . 87.829(18) ?
P U2 O8 4_565 . . 152.38(12) ?
P U2 O8 4_565 . 4_565 27.68(12) ?
P U2 O11 4_565 . . 151.95(13) ?
P U2 O11 4_565 . 4_565 28.07(12) ?
O1 U2 O2 . . . 179.4(2) ?
O1 U2 O3 . . . 89.6(3) ?
O1 U2 O6 . . . 91.3(3) ?
O1 U2 O8 . . . 117.31(11) ?
O1 U2 O8 . . 4_565 117.31(11) ?
O1 U2 O11 . . . 62.23(11) ?
O1 U2 O11 . . 4_565 62.23(11) ?
O2 U2 O3 . . . 91.0(3) ?
O2 U2 O6 . . . 88.1(3) ?
O2 U2 O8 . . . 62.74(11) ?
O2 U2 O8 . . 4_565 62.74(11) ?
O2 U2 O11 . . . 117.73(11) ?
O2 U2 O11 . . 4_565 117.73(11) ?
O3 U2 O6 . . . 179.1(3) ?
O3 U2 O8 . . . 86.67(17) ?
O3 U2 O8 . . 4_565 86.67(17) ?
O3 U2 O11 . . . 92.95(17) ?
O3 U2 O11 . . 4_565 92.95(17) ?
O6 U2 O8 . . . 92.92(16) ?
O6 U2 O8 . . 4_565 92.92(16) ?
O6 U2 O11 . . . 87.47(17) ?
O6 U2 O11 . . 4_565 87.47(17) ?
O8 U2 O8 . . 4_565 124.86(17) ?
O8 U2 O11 . . . 55.55(17) ?
O8 U2 O11 . . 4_565 179.41(13) ?
O8 U2 O11 4_565 . . 179.41(13) ?
O8 U2 O11 4_565 . 4_565 55.55(17) ?
O11 U2 O11 . . 4_565 124.04(17) ?
O4 Pb O5 3_665 . 2_746 63.7(2) ?
O4 Pb O6 3_665 . 2_645 77.07(17) ?
O4 Pb O7 3_665 . 3_666 125.15(15) ?
O4 Pb O9 3_665 . . 131.56(18) ?
O4 Pb O9 3_665 . 3_665 83.58(17) ?
O4 Pb O10 3_665 . . 136.96(19) ?
O4 Pb O12 3_665 . . 63.16(19) ?
O4 Pb H1o5 3_665 . 2_746 51.4(14) ?
O4 Pb H2o5 3_665 . 2_746 75.4(11) ?
O4 Pb H1o10 3_665 . . 124.23 ?
O4 Pb H2o10 3_665 . . 149.52 ?
O4 Pb H1o12 3_665 . . 53.54 ?
O4 Pb H2o12 3_665 . . 73.49 ?
O5 Pb O6 2_746 . 2_645 59.94(14) ?
O5 Pb O7 2_746 . 3_666 70.6(2) ?
O5 Pb O9 2_746 . . 146.67(19) ?
O5 Pb O9 2_746 . 3_665 138.0(2) ?
O5 Pb O10 2_746 . . 97.9(2) ?
O5 Pb O12 2_746 . . 82.99(15) ?
O5 Pb H1o5 2_746 . 2_746 13.4(12) ?
O5 Pb H2o5 2_746 . 2_746 15.8(4) ?
O5 Pb H1o10 2_746 . . 88.94 ?
O5 Pb H2o10 2_746 . . 106.59 ?
O5 Pb H1o12 2_746 . . 70.74 ?
O5 Pb H2o12 2_746 . . 95.29 ?
O6 Pb O7 2_645 . 3_666 104.96(15) ?
O6 Pb O9 2_645 . . 143.26(16) ?
O6 Pb O9 2_645 . 3_665 88.82(14) ?
O6 Pb O10 2_645 . . 60.5(2) ?
O6 Pb O12 2_645 . . 134.96(18) ?
O6 Pb H1o5 2_645 . 2_746 65.6(8) ?
O6 Pb H2o5 2_645 . 2_746 71.5(8) ?
O6 Pb H1o10 2_645 . . 47.53 ?
O6 Pb H2o10 2_645 . . 73.48 ?
O6 Pb H1o12 2_645 . . 121.8 ?
O6 Pb H2o12 2_645 . . 148 ?
O7 Pb O9 3_666 . . 78.36(18) ?
O7 Pb O9 3_666 . 3_665 149.95(18) ?
O7 Pb O10 3_666 . . 76.12(18) ?
O7 Pb O12 3_666 . . 83.28(19) ?
O7 Pb H1o5 3_666 . 2_746 79.0(14) ?
O7 Pb H2o5 3_666 . 2_746 55.3(6) ?
O7 Pb H1o10 3_666 . . 81.78 ?
O7 Pb H2o10 3_666 . . 71.06 ?
O7 Pb H1o12 3_666 . . 84.39 ?
O7 Pb H2o12 3_666 . . 82.53 ?
O9 Pb O9 . . 3_665 74.93(17) ?
O9 Pb O10 . . . 85.9(2) ?
O9 Pb O12 . . . 81.64(17) ?
O9 Pb H1o5 . . 2_746 147.7(10) ?
O9 Pb H2o5 . . 2_746 131.1(3) ?
O9 Pb H1o10 . . . 98.5 ?
O9 Pb H2o10 . . . 73.27 ?
O9 Pb H1o12 . . . 94.89 ?
O9 Pb H2o12 . . . 68.41 ?
O9 Pb O10 3_665 . . 88.40(19) ?
O9 Pb O12 3_665 . . 105.94(16) ?
O9 Pb H1o5 3_665 . 2_746 131.0(14) ?
O9 Pb H2o5 3_665 . 2_746 153.8(4) ?
O9 Pb H1o10 3_665 . . 88.75 ?
O9 Pb H2o10 3_665 . . 88.13 ?
O9 Pb H1o12 3_665 . . 111.19 ?
O9 Pb H2o12 3_665 . . 99.95 ?
O10 Pb O12 . . . 157.7(2) ?
O10 Pb H1o5 . . 2_746 110.5(10) ?
O10 Pb H2o5 . . 2_746 96.3(14) ?
O10 Pb H1o10 . . . 12.98 ?
O10 Pb H2o10 . . . 12.98 ?
O10 Pb H1o12 . . . 159.95 ?
O10 Pb H2o12 . . . 149.45 ?
O12 Pb H1o5 . . 2_746 73.1(8) ?
O12 Pb H2o5 . . 2_746 78.5(13) ?
O12 Pb H1o10 . . . 164.7 ?
O12 Pb H2o10 . . . 146.99 ?
O12 Pb H1o12 . . . 13.34 ?
O12 Pb H2o12 . . . 13.34 ?
H1o5 Pb H2o5 2_746 . 2_746 24.4(17) ?
H1o5 Pb H1o10 2_746 . . 100.66 ?
H1o5 Pb H2o10 2_746 . . 119.79 ?
H1o5 Pb H1o12 2_746 . . 60.2 ?
H1o5 Pb H2o12 2_746 . . 86.12 ?
H2o5 Pb H1o10 2_746 . . 90.24 ?
H2o5 Pb H2o10 2_746 . . 102.06 ?
H2o5 Pb H1o12 2_746 . . 68.18 ?
H2o5 Pb H2o12 2_746 . . 89.07 ?
H1o10 Pb H2o10 . . . 25.97 ?
H1o10 Pb H1o12 . . . 158.37 ?
H1o10 Pb H2o12 . . . 161.35 ?
H2o10 Pb H1o12 . . . 154.31 ?
H2o10 Pb H2o12 . . . 136.95 ?
H1o12 Pb H2o12 . . . 26.68 ?
U2 As P . . . 0 ?
U2 As O8 . . . 48.13(19) ?
U2 As O9 . . . 117.55(19) ?
U2 As O11 . . . 49.18(18) ?
U2 As O13 . . . 127.81(18) ?
U2 As H2o12 . . . 108.53 ?
U2 As H2o12 . . 3_766 100.1 ?
P As O8 . . . 0 ?
P As O9 . . . 0 ?
P As O11 . . . 0 ?
P As O13 . . . 0 ?
P As H2o12 . . . 0 ?
P As H2o12 . . 3_766 0 ?
O8 As O9 . . . 111.7(3) ?
O8 As O11 . . . 96.9(3) ?
O8 As O13 . . . 110.7(3) ?
O8 As H2o12 . . . 154.49 ?
O8 As H2o12 . . 3_766 96.15 ?
O9 As O11 . . . 110.3(3) ?
O9 As O13 . . . 114.6(3) ?
O9 As H2o12 . . . 66.5 ?
O9 As H2o12 . . 3_766 142.09 ?
O11 As O13 . . . 111.2(2) ?
O11 As H2o12 . . . 62.56 ?
O11 As H2o12 . . 3_766 90.33 ?
O13 As H2o12 . . . 91.75 ?
O13 As H2o12 . . 3_766 28.02 ?
H2o12 As H2o12 . . 3_766 98.76 ?
U2 P As . . . 0 ?
U2 P O8 . . . 48.13(19) ?
U2 P O9 . . . 117.55(19) ?
U2 P O11 . . . 49.18(18) ?
U2 P O13 . . . 127.81(18) ?
U2 P H2o12 . . . 108.53 ?
U2 P H2o12 . . 3_766 100.1 ?
As P O8 . . . 0 ?
As P O9 . . . 0 ?
As P O11 . . . 0 ?
As P O13 . . . 0 ?
As P H2o12 . . . 0 ?
As P H2o12 . . 3_766 0 ?
O8 P O9 . . . 111.7(3) ?
O8 P O11 . . . 96.9(3) ?
O8 P O13 . . . 110.7(3) ?
O8 P H2o12 . . . 154.49 ?
O8 P H2o12 . . 3_766 96.15 ?
O9 P O11 . . . 110.3(3) ?
O9 P O13 . . . 114.6(3) ?
O9 P H2o12 . . . 66.5 ?
O9 P H2o12 . . 3_766 142.09 ?
O11 P O13 . . . 111.2(2) ?
O11 P H2o12 . . . 62.56 ?
O11 P H2o12 . . 3_766 90.33 ?
O13 P H2o12 . . . 91.75 ?
O13 P H2o12 . . 3_766 28.02 ?
H2o12 P H2o12 . . 3_766 98.76 ?
U1 O1 U1 1_655 . 4_665 109.4(3) ?
U1 O1 U2 1_655 . . 124.06(17) ?
U1 O1 O2 1_655 . 1_655 54.82(13) ?
U1 O1 O3 1_655 . . 110.3(2) ?
U1 O1 O4 1_655 . 1_655 37.73(13) ?
U1 O1 O4 1_655 . 4_665 109.3(3) ?
U1 O1 O6 1_655 . . 121.84(14) ?
U1 O1 O7 1_655 . 1_655 39.22(14) ?
U1 O1 O7 1_655 . 4_665 101.7(2) ?
U1 O1 O11 1_655 . . 58.84(11) ?
U1 O1 O11 1_655 . 4_565 168.0(3) ?
U1 O1 H2o5 1_655 . . 87.5(8) ?
U1 O1 H1o10 1_655 . 2_655 115.42 ?
U1 O1 H1o10 1_655 . 3_665 88.76 ?
U1 O1 U2 4_665 . . 124.06(17) ?
U1 O1 O2 4_665 . 1_655 54.82(13) ?
U1 O1 O3 4_665 . . 110.3(2) ?
U1 O1 O4 4_665 . 1_655 109.3(3) ?
U1 O1 O4 4_665 . 4_665 37.73(13) ?
U1 O1 O6 4_665 . . 121.84(14) ?
U1 O1 O7 4_665 . 1_655 101.7(2) ?
U1 O1 O7 4_665 . 4_665 39.22(14) ?
U1 O1 O11 4_665 . . 168.0(3) ?
U1 O1 O11 4_665 . 4_565 58.84(11) ?
U1 O1 H2o5 4_665 . . 87.5(8) ?
U1 O1 H1o10 4_665 . 2_655 88.76 ?
U1 O1 H1o10 4_665 . 3_665 115.42 ?
U2 O1 O2 . . 1_655 170.0(4) ?
U2 O1 O3 . . . 38.90(18) ?
U2 O1 O4 . . 1_655 122.35(17) ?
U2 O1 O4 . . 4_665 122.35(17) ?
U2 O1 O6 . . . 38.28(17) ?
U2 O1 O7 . . 1_655 108.9(3) ?
U2 O1 O7 . . 4_665 108.9(3) ?
U2 O1 O11 . . . 66.62(18) ?
U2 O1 O11 . . 4_565 66.62(18) ?
U2 O1 H2o5 . . . 80.1(14) ?
U2 O1 H1o10 . . 2_655 82.98 ?
U2 O1 H1o10 . . 3_665 82.98 ?
O2 O1 O3 1_655 . . 131.1(3) ?
O2 O1 O4 1_655 . 1_655 63.8(2) ?
O2 O1 O4 1_655 . 4_665 63.8(2) ?
O2 O1 O6 1_655 . . 151.7(4) ?
O2 O1 O7 1_655 . 1_655 63.49(19) ?
O2 O1 O7 1_655 . 4_665 63.49(19) ?
O2 O1 O11 1_655 . . 113.62(17) ?
O2 O1 O11 1_655 . 4_565 113.62(17) ?
O2 O1 H2o5 1_655 . . 89.9(14) ?
O2 O1 H1o10 1_655 . 2_655 106.58 ?
O2 O1 H1o10 1_655 . 3_665 106.58 ?
O3 O1 O4 . . 1_655 136.46(15) ?
O3 O1 O4 . . 4_665 136.46(15) ?
O3 O1 O6 . . . 77.2(3) ?
O3 O1 O7 . . 1_655 78.1(2) ?
O3 O1 O7 . . 4_665 78.1(2) ?
O3 O1 O11 . . . 74.1(2) ?
O3 O1 O11 . . 4_565 74.1(2) ?
O3 O1 H2o5 . . . 41.2(14) ?
O3 O1 H1o10 . . 2_655 120.23 ?
O3 O1 H1o10 . . 3_665 120.23 ?
O4 O1 O4 1_655 . 4_665 86.8(3) ?
O4 O1 O6 1_655 . . 96.6(2) ?
O4 O1 O7 1_655 . 1_655 76.95(17) ?
O4 O1 O7 1_655 . 4_665 126.7(3) ?
O4 O1 O11 1_655 . . 63.57(19) ?
O4 O1 O11 1_655 . 4_565 144.5(3) ?
O4 O1 H2o5 1_655 . . 125.2(8) ?
O4 O1 H1o10 1_655 . 2_655 77.7 ?
O4 O1 H1o10 1_655 . 3_665 53.65 ?
O4 O1 O6 4_665 . . 96.6(2) ?
O4 O1 O7 4_665 . 1_655 126.7(3) ?
O4 O1 O7 4_665 . 4_665 76.95(17) ?
O4 O1 O11 4_665 . . 144.5(3) ?
O4 O1 O11 4_665 . 4_565 63.57(19) ?
O4 O1 H2o5 4_665 . . 125.2(8) ?
O4 O1 H1o10 4_665 . 2_655 53.65 ?
O4 O1 H1o10 4_665 . 3_665 77.7 ?
O6 O1 O7 . . 1_655 135.1(2) ?
O6 O1 O7 . . 4_665 135.1(2) ?
O6 O1 O11 . . . 69.71(16) ?
O6 O1 O11 . . 4_565 69.71(16) ?
O6 O1 H2o5 . . . 118.4(14) ?
O6 O1 H1o10 . . 2_655 46.65 ?
O6 O1 H1o10 . . 3_665 46.65 ?
O7 O1 O7 1_655 . 4_665 73.61(19) ?
O7 O1 O11 1_655 . . 67.76(16) ?
O7 O1 O11 1_655 . 4_565 136.0(3) ?
O7 O1 H2o5 1_655 . . 48.3(8) ?
O7 O1 H1o10 1_655 . 2_655 154.54 ?
O7 O1 H1o10 1_655 . 3_665 124.89 ?
O7 O1 O11 4_665 . . 136.0(3) ?
O7 O1 O11 4_665 . 4_565 67.76(16) ?
O7 O1 H2o5 4_665 . . 48.3(8) ?
O7 O1 H1o10 4_665 . 2_655 124.89 ?
O7 O1 H1o10 4_665 . 3_665 154.54 ?
O11 O1 O11 . . 4_565 132.7(3) ?
O11 O1 H2o5 . . . 89.3(6) ?
O11 O1 H1o10 . . 2_655 98.65 ?
O11 O1 H1o10 . . 3_665 69.16 ?
O11 O1 H2o5 4_565 . . 89.3(6) ?
O11 O1 H1o10 4_565 . 2_655 69.16 ?
O11 O1 H1o10 4_565 . 3_665 98.65 ?
H2o5 O1 H1o10 . . 2_655 156.64 ?
H2o5 O1 H1o10 . . 3_665 156.64 ?
H1o10 O1 H1o10 2_655 . 3_665 32.07 ?
U1 O2 U1 . . 4_565 109.6(3) ?
U1 O2 U2 . . . 125.05(14) ?
U1 O2 O1 . . 1_455 54.91(13) ?
U1 O2 O3 . . . 118.78(16) ?
U1 O2 O4 . . . 37.92(13) ?
U1 O2 O4 . . 4_565 109.8(2) ?
U1 O2 O6 . . . 114.2(2) ?
U1 O2 O7 . . . 39.04(14) ?
U1 O2 O7 . . 4_565 101.4(3) ?
U1 O2 O8 . . . 59.49(11) ?
U1 O2 O8 . . 4_565 168.9(3) ?
U1 O2 U2 4_565 . . 125.05(14) ?
U1 O2 O1 4_565 . 1_455 54.91(13) ?
U1 O2 O3 4_565 . . 118.78(16) ?
U1 O2 O4 4_565 . . 109.8(2) ?
U1 O2 O4 4_565 . 4_565 37.92(13) ?
U1 O2 O6 4_565 . . 114.2(2) ?
U1 O2 O7 4_565 . . 101.4(3) ?
U1 O2 O7 4_565 . 4_565 39.04(14) ?
U1 O2 O8 4_565 . . 168.9(3) ?
U1 O2 O8 4_565 . 4_565 59.49(11) ?
U2 O2 O1 . . 1_455 170.6(4) ?
U2 O2 O3 . . . 38.47(19) ?
U2 O2 O4 . . . 109.6(2) ?
U2 O2 O4 . . 4_565 109.6(2) ?
U2 O2 O6 . . . 39.66(17) ?
U2 O2 O7 . . . 123.73(19) ?
U2 O2 O7 . . 4_565 123.73(19) ?
U2 O2 O8 . . . 66.03(18) ?
U2 O2 O8 . . 4_565 66.03(18) ?
O1 O2 O3 1_455 . . 150.9(4) ?
O1 O2 O4 1_455 . . 64.21(18) ?
O1 O2 O4 1_455 . 4_565 64.21(18) ?
O1 O2 O6 1_455 . . 131.0(3) ?
O1 O2 O7 1_455 . . 63.0(2) ?
O1 O2 O7 1_455 . 4_565 63.0(2) ?
O1 O2 O8 1_455 . . 114.33(17) ?
O1 O2 O8 1_455 . 4_565 114.33(17) ?
O3 O2 O4 . . . 131.41(17) ?
O3 O2 O4 . . 4_565 131.41(17) ?
O3 O2 O6 . . . 78.1(3) ?
O3 O2 O7 . . . 94.3(2) ?
O3 O2 O7 . . 4_565 94.3(2) ?
O3 O2 O8 . . . 68.88(15) ?
O3 O2 O8 . . 4_565 68.88(15) ?
O4 O2 O4 . . 4_565 87.2(2) ?
O4 O2 O6 . . . 81.3(2) ?
O4 O2 O7 . . . 76.95(17) ?
O4 O2 O7 . . 4_565 126.7(3) ?
O4 O2 O8 . . . 63.32(15) ?
O4 O2 O8 . . 4_565 143.9(3) ?
O4 O2 O6 4_565 . . 81.3(2) ?
O4 O2 O7 4_565 . . 126.7(3) ?
O4 O2 O7 4_565 . 4_565 76.95(17) ?
O4 O2 O8 4_565 . . 143.9(3) ?
O4 O2 O8 4_565 . 4_565 63.32(15) ?
O6 O2 O7 . . . 142.87(14) ?
O6 O2 O7 . . 4_565 142.87(14) ?
O6 O2 O8 . . . 74.4(2) ?
O6 O2 O8 . . 4_565 74.4(2) ?
O7 O2 O7 . . 4_565 73.3(2) ?
O7 O2 O8 . . . 69.1(2) ?
O7 O2 O8 . . 4_565 136.9(3) ?
O7 O2 O8 4_565 . . 136.9(3) ?
O7 O2 O8 4_565 . 4_565 69.1(2) ?
O8 O2 O8 . . 4_565 131.3(3) ?
U2 O3 O1 . . . 51.5(2) ?
U2 O3 O2 . . . 50.5(2) ?
U2 O3 O5 . . . 145.2(4) ?
U2 O3 O8 . . . 57.76(16) ?
U2 O3 O8 . . 4_565 57.76(16) ?
U2 O3 O10 . . 2_656 131.7(2) ?
U2 O3 O10 . . 3_666 131.7(2) ?
U2 O3 O11 . . . 53.75(18) ?
U2 O3 O11 . . 4_565 53.75(18) ?
U2 O3 H1o5 . . . 161.9(17) ?
U2 O3 H2o5 . . . 132.7(14) ?
U2 O3 H1o10 . . 2_656 145.91 ?
U2 O3 H1o10 . . 3_666 145.91 ?
U2 O3 H2o10 . . 2_656 124.34 ?
U2 O3 H2o10 . . 3_666 124.34 ?
U2 O3 H1o12 . . 2_756 122.16 ?
U2 O3 H1o12 . . 3_766 122.16 ?
O1 O3 O2 . . . 102.0(3) ?
O1 O3 O5 . . . 93.7(3) ?
O1 O3 O8 . . . 88.4(2) ?
O1 O3 O8 . . 4_565 88.4(2) ?
O1 O3 O10 . . 2_656 145.60(19) ?
O1 O3 O10 . . 3_666 145.60(19) ?
O1 O3 O11 . . . 48.49(16) ?
O1 O3 O11 . . 4_565 48.49(16) ?
O1 O3 H1o5 . . . 110.4(16) ?
O1 O3 H2o5 . . . 81.2(14) ?
O1 O3 H1o10 . . 2_656 151.08 ?
O1 O3 H1o10 . . 3_666 151.08 ?
O1 O3 H2o10 . . 2_656 130.58 ?
O1 O3 H2o10 . . 3_666 130.58 ?
O1 O3 H1o12 . . 2_756 109.81 ?
O1 O3 H1o12 . . 3_766 109.81 ?
O2 O3 O5 . . . 164.2(4) ?
O2 O3 O8 . . . 50.25(12) ?
O2 O3 O8 . . 4_565 50.25(12) ?
O2 O3 O10 . . 2_656 91.0(3) ?
O2 O3 O10 . . 3_666 91.0(3) ?
O2 O3 O11 . . . 85.1(2) ?
O2 O3 O11 . . 4_565 85.1(2) ?
O2 O3 H1o5 . . . 147.5(17) ?
O2 O3 H2o5 . . . 176.8(14) ?
O2 O3 H1o10 . . 2_656 99.87 ?
O2 O3 H1o10 . . 3_666 99.87 ?
O2 O3 H2o10 . . 2_656 93.62 ?
O2 O3 H2o10 . . 3_666 93.62 ?
O2 O3 H1o12 . . 2_756 109.31 ?
O2 O3 H1o12 . . 3_766 109.31 ?
O5 O3 O8 . . . 131.30(12) ?
O5 O3 O8 . . 4_565 131.30(12) ?
O5 O3 O10 . . 2_656 75.7(3) ?
O5 O3 O10 . . 3_666 75.7(3) ?
O5 O3 O11 . . . 105.7(2) ?
O5 O3 O11 . . 4_565 105.7(2) ?
O5 O3 H1o5 . . . 16.7(16) ?
O5 O3 H2o5 . . . 12.6(14) ?
O5 O3 H1o10 . . 2_656 65.28 ?
O5 O3 H1o10 . . 3_666 65.28 ?
O5 O3 H2o10 . . 2_656 75.8 ?
O5 O3 H2o10 . . 3_666 75.8 ?
O5 O3 H1o12 . . 2_756 64.43 ?
O5 O3 H1o12 . . 3_766 64.43 ?
O8 O3 O8 . . 4_565 97.4(2) ?
O8 O3 O10 . . 2_656 123.3(3) ?
O8 O3 O10 . . 3_666 75.6(2) ?
O8 O3 O11 . . . 45.21(16) ?
O8 O3 O11 . . 4_565 111.5(3) ?
O8 O3 H1o5 . . . 128.9(5) ?
O8 O3 H2o5 . . . 130.4(3) ?
O8 O3 H1o10 . . 2_656 120.24 ?
O8 O3 H1o10 . . 3_666 91.27 ?
O8 O3 H2o10 . . 2_656 134.56 ?
O8 O3 H2o10 . . 3_666 66.57 ?
O8 O3 H1o12 . . 2_756 156.33 ?
O8 O3 H1o12 . . 3_766 69.16 ?
O8 O3 O10 4_565 . 2_656 75.6(2) ?
O8 O3 O10 4_565 . 3_666 123.3(3) ?
O8 O3 O11 4_565 . . 111.5(3) ?
O8 O3 O11 4_565 . 4_565 45.21(16) ?
O8 O3 H1o5 4_565 . . 128.9(5) ?
O8 O3 H2o5 4_565 . . 130.4(3) ?
O8 O3 H1o10 4_565 . 2_656 91.27 ?
O8 O3 H1o10 4_565 . 3_666 120.24 ?
O8 O3 H2o10 4_565 . 2_656 66.57 ?
O8 O3 H2o10 4_565 . 3_666 134.56 ?
O8 O3 H1o12 4_565 . 2_756 69.16 ?
O8 O3 H1o12 4_565 . 3_766 156.33 ?
O10 O3 O10 2_656 . 3_666 64.1(3) ?
O10 O3 O11 2_656 . . 165.8(3) ?
O10 O3 O11 2_656 . 4_565 102.28(19) ?
O10 O3 H1o5 2_656 . . 62.0(13) ?
O10 O3 H2o5 2_656 . . 86.3(12) ?
O10 O3 H1o10 2_656 . 2_656 15.75 ?
O10 O3 H1o10 2_656 . 3_666 51.52 ?
O10 O3 H2o10 2_656 . 2_656 15.31 ?
O10 O3 H2o10 2_656 . 3_666 79.18 ?
O10 O3 H1o12 2_656 . 2_756 36.06 ?
O10 O3 H1o12 2_656 . 3_766 95.17 ?
O10 O3 O11 3_666 . . 102.28(19) ?
O10 O3 O11 3_666 . 4_565 165.8(3) ?
O10 O3 H1o5 3_666 . . 62.0(13) ?
O10 O3 H2o5 3_666 . . 86.3(12) ?
O10 O3 H1o10 3_666 . 2_656 51.52 ?
O10 O3 H1o10 3_666 . 3_666 15.75 ?
O10 O3 H2o10 3_666 . 2_656 79.18 ?
O10 O3 H2o10 3_666 . 3_666 15.31 ?
O10 O3 H1o12 3_666 . 2_756 95.17 ?
O10 O3 H1o12 3_666 . 3_766 36.06 ?
O11 O3 O11 . . 4_565 91.0(3) ?
O11 O3 H1o5 . . . 116.4(10) ?
O11 O3 H2o5 . . . 97.1(10) ?
O11 O3 H1o10 . . 2_656 153.05 ?
O11 O3 H1o10 . . 3_666 115.74 ?
O11 O3 H2o10 . . 2_656 178.08 ?
O11 O3 H2o10 . . 3_666 87.46 ?
O11 O3 H1o12 . . 2_756 157.24 ?
O11 O3 H1o12 . . 3_766 73.42 ?
O11 O3 H1o5 4_565 . . 116.4(10) ?
O11 O3 H2o5 4_565 . . 97.1(10) ?
O11 O3 H1o10 4_565 . 2_656 115.74 ?
O11 O3 H1o10 4_565 . 3_666 153.05 ?
O11 O3 H2o10 4_565 . 2_656 87.46 ?
O11 O3 H2o10 4_565 . 3_666 178.08 ?
O11 O3 H1o12 4_565 . 2_756 73.42 ?
O11 O3 H1o12 4_565 . 3_766 157.24 ?
H1o5 O3 H2o5 . . . 29(2) ?
H1o5 O3 H1o10 . . 2_656 49.85 ?
H1o5 O3 H1o10 . . 3_666 49.85 ?
H1o5 O3 H2o10 . . 2_656 65.32 ?
H1o5 O3 H2o10 . . 3_666 65.32 ?
H1o5 O3 H1o12 . . 2_756 59.81 ?
H1o5 O3 H1o12 . . 3_766 59.81 ?
H2o5 O3 H1o10 . . 2_656 77.09 ?
H2o5 O3 H1o10 . . 3_666 77.09 ?
H2o5 O3 H2o10 . . 2_656 84.2 ?
H2o5 O3 H2o10 . . 3_666 84.2 ?
H2o5 O3 H1o12 . . 2_756 69.3 ?
H2o5 O3 H1o12 . . 3_766 69.3 ?
H1o10 O3 H1o10 2_656 . 3_666 37.39 ?
H1o10 O3 H2o10 2_656 . 2_656 28.65 ?
H1o10 O3 H2o10 2_656 . 3_666 65.89 ?
H1o10 O3 H1o12 2_656 . 2_756 44.22 ?
H1o10 O3 H1o12 2_656 . 3_766 79.98 ?
H1o10 O3 H2o10 3_666 . 2_656 65.89 ?
H1o10 O3 H2o10 3_666 . 3_666 28.65 ?
H1o10 O3 H1o12 3_666 . 2_756 79.98 ?
H1o10 O3 H1o12 3_666 . 3_766 44.22 ?
H2o10 O3 H2o10 2_656 . 3_666 94.07 ?
H2o10 O3 H1o12 2_656 . 2_756 22.57 ?
H2o10 O3 H1o12 2_656 . 3_766 108.39 ?
H2o10 O3 H1o12 3_666 . 2_756 108.39 ?
H2o10 O3 H1o12 3_666 . 3_766 22.57 ?
H1o12 O3 H1o12 2_756 . 3_766 115.68 ?
U1 O4 Pb . . 3_665 136.6(2) ?
U1 O4 O1 . . 1_455 49.46(17) ?
U1 O4 O2 . . . 49.67(18) ?
U1 O4 O5 . . 1_454 128.7(3) ?
U1 O4 O8 . . . 55.32(17) ?
U1 O4 O10 . . 3_565 123.4(3) ?
U1 O4 O11 . . 1_455 54.21(18) ?
U1 O4 O12 . . 1_455 99.7(2) ?
U1 O4 O12 . . 3_665 155.4(3) ?
U1 O4 O13 . . 3_666 51.32(16) ?
U1 O4 H1o5 . . 1_454 123.8(13) ?
U1 O4 H1o10 . . 3_565 116.63 ?
U1 O4 H2o10 . . 3_565 137.52 ?
U1 O4 H1o12 . . 3_665 151.13 ?
U1 O4 H2o12 . . 1_455 93.12 ?
Pb O4 O1 3_665 . 1_455 145.2(2) ?
Pb O4 O2 3_665 . . 102.8(2) ?
Pb O4 O5 3_665 . 1_454 57.73(17) ?
Pb O4 O8 3_665 . . 81.42(19) ?
Pb O4 O10 3_665 . 3_565 99.7(2) ?
Pb O4 O11 3_665 . 1_455 162.3(2) ?
Pb O4 O12 3_665 . 1_455 89.97(19) ?
Pb O4 O12 3_665 . 3_665 54.13(16) ?
Pb O4 O13 3_665 . 3_666 112.60(19) ?
Pb O4 H1o5 3_665 . 1_454 71.9(16) ?
Pb O4 H1o10 3_665 . 3_565 104.2 ?
Pb O4 H2o10 3_665 . 3_565 85.84 ?
Pb O4 H1o12 3_665 . 3_665 67.9 ?
Pb O4 H2o12 3_665 . 1_455 96.49 ?
O1 O4 O2 1_455 . . 52.02(18) ?
O1 O4 O5 1_455 . 1_454 91.7(2) ?
O1 O4 O8 1_455 . . 94.8(2) ?
O1 O4 O10 1_455 . 3_565 83.2(2) ?
O1 O4 O11 1_455 . 1_455 51.39(17) ?
O1 O4 O12 1_455 . 1_455 124.5(2) ?
O1 O4 O12 1_455 . 3_665 139.7(2) ?
O1 O4 O13 1_455 . 3_666 94.8(2) ?
O1 O4 H1o5 1_455 . 1_454 80.1(15) ?
O1 O4 H1o10 1_455 . 3_565 71.55 ?
O1 O4 H2o10 1_455 . 3_565 97.36 ?
O1 O4 H1o12 1_455 . 3_665 123.04 ?
O1 O4 H2o12 1_455 . 1_455 118.18 ?
O2 O4 O5 . . 1_454 81.1(2) ?
O2 O4 O8 . . . 51.61(15) ?
O2 O4 O10 . . 3_565 126.2(2) ?
O2 O4 O11 . . 1_455 94.3(2) ?
O2 O4 O12 . . 1_455 145.4(2) ?
O2 O4 O12 . . 3_665 153.8(3) ?
O2 O4 O13 . . 3_666 94.46(19) ?
O2 O4 H1o5 . . 1_454 81.9(11) ?
O2 O4 H1o10 . . 3_565 111.82 ?
O2 O4 H2o10 . . 3_565 135.43 ?
O2 O4 H1o12 . . 3_665 154.77 ?
O2 O4 H2o12 . . 1_455 140.24 ?
O5 O4 O8 1_454 . . 108.2(2) ?
O5 O4 O10 1_454 . 3_565 71.1(2) ?
O5 O4 O11 1_454 . 1_455 130.9(2) ?
O5 O4 O12 1_454 . 1_455 131.6(2) ?
O5 O4 O12 1_454 . 3_665 75.8(2) ?
O5 O4 O13 1_454 . 3_666 167.5(2) ?
O5 O4 H1o5 1_454 . 1_454 15.3(15) ?
O5 O4 H1o10 1_454 . 3_565 64.1 ?
O5 O4 H2o10 1_454 . 3_565 66.8 ?
O5 O4 H1o12 1_454 . 3_665 74.16 ?
O5 O4 H2o12 1_454 . 1_455 137.99 ?
O8 O4 O10 . . 3_565 177.8(3) ?
O8 O4 O11 . . 1_455 106.3(2) ?
O8 O4 O12 . . 1_455 100.19(19) ?
O8 O4 O12 . . 3_665 125.5(2) ?
O8 O4 O13 . . 3_666 60.65(16) ?
O8 O4 H1o5 . . 1_454 118.8(11) ?
O8 O4 H1o10 . . 3_565 163.42 ?
O8 O4 H2o10 . . 3_565 166.91 ?
O8 O4 H1o12 . . 3_665 142.13 ?
O8 O4 H2o12 . . 1_455 98.57 ?
O10 O4 O11 3_565 . 1_455 73.2(2) ?
O10 O4 O12 3_565 . 1_455 81.69(19) ?
O10 O4 O12 3_565 . 3_665 56.47(19) ?
O10 O4 O13 3_565 . 3_666 120.3(2) ?
O10 O4 H1o5 3_565 . 1_454 60.1(12) ?
O10 O4 H1o10 3_565 . 3_565 14.46 ?
O10 O4 H2o10 3_565 . 3_565 14.71 ?
O10 O4 H1o12 3_565 . 3_665 39.87 ?
O10 O4 H2o12 3_565 . 1_455 83.16 ?
O11 O4 O12 1_455 . 1_455 73.1(2) ?
O11 O4 O12 1_455 . 3_665 110.1(2) ?
O11 O4 O13 1_455 . 3_666 60.78(18) ?
O11 O4 H1o5 1_455 . 1_454 115.7(15) ?
O11 O4 H1o10 1_455 . 3_565 73.03 ?
O11 O4 H2o10 1_455 . 3_565 85.19 ?
O11 O4 H1o12 1_455 . 3_665 98.23 ?
O11 O4 H2o12 1_455 . 1_455 66.93 ?
O12 O4 O12 1_455 . 3_665 55.85(19) ?
O12 O4 O13 1_455 . 3_666 51.13(16) ?
O12 O4 H1o5 1_455 . 1_454 132.7(11) ?
O12 O4 H1o10 1_455 . 3_565 95.45 ?
O12 O4 H2o10 1_455 . 3_565 76.73 ?
O12 O4 H1o12 1_455 . 3_665 59.74 ?
O12 O4 H2o12 1_455 . 1_455 7 ?
O12 O4 O13 3_665 . 3_666 105.6(2) ?
O12 O4 H1o5 3_665 . 1_454 79.0(12) ?
O12 O4 H1o10 3_665 . 3_565 68.46 ?
O12 O4 H2o10 3_665 . 3_565 42.36 ?
O12 O4 H1o12 3_665 . 3_665 16.7 ?
O12 O4 H2o12 3_665 . 1_455 62.31 ?
O13 O4 H1o5 3_666 . 1_454 174.8(15) ?
O13 O4 H1o10 3_666 . 3_565 128.2 ?
O13 O4 H2o10 3_666 . 3_565 122.74 ?
O13 O4 H1o12 3_666 . 3_665 110.77 ?
O13 O4 H2o12 3_666 . 1_455 45.83 ?
H1o5 O4 H1o10 1_454 . 3_565 50.88 ?
H1o5 O4 H2o10 1_454 . 3_565 59.1 ?
H1o5 O4 H1o12 1_454 . 3_665 72.94 ?
H1o5 O4 H2o12 1_454 . 1_455 137.54 ?
H1o10 O4 H2o10 3_565 . 3_565 26.26 ?
H1o10 O4 H1o12 3_565 . 3_665 52.41 ?
H1o10 O4 H2o12 3_565 . 1_455 96.29 ?
H2o10 O4 H1o12 3_565 . 3_665 26.15 ?
H2o10 O4 H2o12 3_565 . 1_455 79.84 ?
H1o12 O4 H2o12 3_665 . 1_455 64.98 ?
Pb O5 Pb 2_756 . 3_766 123.8(2) ?
Pb O5 O3 2_756 . . 110.64(16) ?
Pb O5 O4 2_756 . 1_656 132.9(3) ?
Pb O5 O4 2_756 . 4_666 58.59(13) ?
Pb O5 O6 2_756 . 1_656 66.00(12) ?
Pb O5 O7 2_756 . 1_655 109.8(3) ?
Pb O5 O7 2_756 . 4_665 49.29(13) ?
Pb O5 H1o5 2_756 . . 113.6(12) ?
Pb O5 H2o5 2_756 . . 96(3) ?
Pb O5 H1o10 2_756 . 2_656 99.48 ?
Pb O5 H1o10 2_756 . 3_666 134.35 ?
Pb O5 H2o10 2_756 . 2_656 82.48 ?
Pb O5 H2o10 2_756 . 3_666 153.62 ?
Pb O5 H1o12 2_756 . 2_756 58.32 ?
Pb O5 H1o12 2_756 . 3_766 177.57 ?
Pb O5 O3 3_766 . . 110.64(16) ?
Pb O5 O4 3_766 . 1_656 58.59(13) ?
Pb O5 O4 3_766 . 4_666 132.9(3) ?
Pb O5 O6 3_766 . 1_656 66.00(12) ?
Pb O5 O7 3_766 . 1_655 49.29(13) ?
Pb O5 O7 3_766 . 4_665 109.8(3) ?
Pb O5 H1o5 3_766 . . 113.6(12) ?
Pb O5 H2o5 3_766 . . 96(3) ?
Pb O5 H1o10 3_766 . 2_656 134.35 ?
Pb O5 H1o10 3_766 . 3_666 99.48 ?
Pb O5 H2o10 3_766 . 2_656 153.62 ?
Pb O5 H2o10 3_766 . 3_666 82.48 ?
Pb O5 H1o12 3_766 . 2_756 177.57 ?
Pb O5 H1o12 3_766 . 3_766 58.32 ?
O3 O5 O4 . . 1_656 110.3(2) ?
O3 O5 O4 . . 4_666 110.3(2) ?
O3 O5 O6 . . 1_656 168.7(4) ?
O3 O5 O7 . . 1_655 75.3(2) ?
O3 O5 O7 . . 4_665 75.3(2) ?
O3 O5 H1o5 . . . 73(5) ?
O3 O5 H2o5 . . . 36(6) ?
O3 O5 H1o10 . . 2_656 59.12 ?
O3 O5 H1o10 . . 3_666 59.12 ?
O3 O5 H2o10 . . 2_656 50.45 ?
O3 O5 H2o10 . . 3_666 50.45 ?
O3 O5 H1o12 . . 2_756 67.02 ?
O3 O5 H1o12 . . 3_766 67.02 ?
O4 O5 O4 1_656 . 4_666 85.8(3) ?
O4 O5 O6 1_656 . 1_656 77.7(2) ?
O4 O5 O7 1_656 . 1_655 102.33(15) ?
O4 O5 O7 1_656 . 4_665 168.1(3) ?
O4 O5 H1o5 1_656 . . 59(3) ?
O4 O5 H2o5 1_656 . . 131(2) ?
O4 O5 H1o10 1_656 . 2_656 82.29 ?
O4 O5 H1o10 1_656 . 3_666 56.87 ?
O4 O5 H2o10 1_656 . 2_656 106.89 ?
O4 O5 H2o10 1_656 . 3_666 59.86 ?
O4 O5 H1o12 1_656 . 2_756 121.22 ?
O4 O5 H1o12 1_656 . 3_766 48.83 ?
O4 O5 O6 4_666 . 1_656 77.7(2) ?
O4 O5 O7 4_666 . 1_655 168.1(3) ?
O4 O5 O7 4_666 . 4_665 102.33(15) ?
O4 O5 H1o5 4_666 . . 59(3) ?
O4 O5 H2o5 4_666 . . 131(2) ?
O4 O5 H1o10 4_666 . 2_656 56.87 ?
O4 O5 H1o10 4_666 . 3_666 82.29 ?
O4 O5 H2o10 4_666 . 2_656 59.86 ?
O4 O5 H2o10 4_666 . 3_666 106.89 ?
O4 O5 H1o12 4_666 . 2_756 48.83 ?
O4 O5 H1o12 4_666 . 3_766 121.22 ?
O6 O5 O7 1_656 . 1_655 95.4(2) ?
O6 O5 O7 1_656 . 4_665 95.4(2) ?
O6 O5 H1o5 1_656 . . 118(5) ?
O6 O5 H2o5 1_656 . . 132(6) ?
O6 O5 H1o10 1_656 . 2_656 131.31 ?
O6 O5 H1o10 1_656 . 3_666 131.31 ?
O6 O5 H2o10 1_656 . 2_656 136.32 ?
O6 O5 H2o10 1_656 . 3_666 136.32 ?
O6 O5 H1o12 1_656 . 2_756 116.42 ?
O6 O5 H1o12 1_656 . 3_766 116.42 ?
O7 O5 O7 1_655 . 4_665 68.3(2) ?
O7 O5 H1o5 1_655 . . 133(3) ?
O7 O5 H2o5 1_655 . . 48(4) ?
O7 O5 H1o10 1_655 . 2_656 132.25 ?
O7 O5 H1o10 1_655 . 3_666 109.4 ?
O7 O5 H2o10 1_655 . 2_656 124.32 ?
O7 O5 H2o10 1_655 . 3_666 84.84 ?
O7 O5 H1o12 1_655 . 2_756 129.55 ?
O7 O5 H1o12 1_655 . 3_766 70.5 ?
O7 O5 H1o5 4_665 . . 133(3) ?
O7 O5 H2o5 4_665 . . 48(4) ?
O7 O5 H1o10 4_665 . 2_656 109.4 ?
O7 O5 H1o10 4_665 . 3_666 132.25 ?
O7 O5 H2o10 4_665 . 2_656 84.84 ?
O7 O5 H2o10 4_665 . 3_666 124.32 ?
O7 O5 H1o12 4_665 . 2_756 70.5 ?
O7 O5 H1o12 4_665 . 3_766 129.55 ?
H1o5 O5 H2o5 . . . 109(7) ?
H1o5 O5 H1o10 . . 2_656 23.51 ?
H1o5 O5 H1o10 . . 3_666 23.51 ?
H1o5 O5 H2o10 . . 2_656 48.08 ?
H1o5 O5 H2o10 . . 3_666 48.08 ?
H1o5 O5 H1o12 . . 2_756 65.35 ?
H1o5 O5 H1o12 . . 3_766 65.35 ?
H2o5 O5 H1o10 . . 2_656 93.49 ?
H2o5 O5 H1o10 . . 3_666 93.49 ?
H2o5 O5 H2o10 . . 2_656 77.62 ?
H2o5 O5 H2o10 . . 3_666 77.62 ?
H2o5 O5 H1o12 . . 2_756 82.71 ?
H2o5 O5 H1o12 . . 3_766 82.71 ?
H1o10 O5 H1o10 2_656 . 3_666 35.25 ?
H1o10 O5 H2o10 2_656 . 2_656 24.6 ?
H1o10 O5 H2o10 2_656 . 3_666 56.17 ?
H1o10 O5 H1o12 2_656 . 2_756 44.16 ?
H1o10 O5 H1o12 2_656 . 3_766 78.81 ?
H1o10 O5 H2o10 3_666 . 2_656 56.17 ?
H1o10 O5 H2o10 3_666 . 3_666 24.6 ?
H1o10 O5 H1o12 3_666 . 2_756 78.81 ?
H1o10 O5 H1o12 3_666 . 3_766 44.16 ?
H2o10 O5 H2o10 2_656 . 3_666 71.18 ?
H2o10 O5 H1o12 2_656 . 2_756 24.18 ?
H2o10 O5 H1o12 2_656 . 3_766 95.36 ?
H2o10 O5 H1o12 3_666 . 2_756 95.36 ?
H2o10 O5 H1o12 3_666 . 3_766 24.18 ?
H1o12 O5 H1o12 2_756 . 3_766 119.53 ?
U2 O6 Pb . . 2_655 124.30(16) ?
U2 O6 Pb . . 3_665 124.30(16) ?
U2 O6 O1 . . . 50.4(2) ?
U2 O6 O2 . . . 52.2(2) ?
U2 O6 O5 . . 1_454 134.9(4) ?
U2 O6 O8 . . . 53.47(16) ?
U2 O6 O8 . . 4_565 53.47(16) ?
U2 O6 O10 . . 2_655 128.9(2) ?
U2 O6 O10 . . 3_665 128.9(2) ?
U2 O6 O11 . . . 57.44(15) ?
U2 O6 O11 . . 4_565 57.44(15) ?
U2 O6 H1o5 . . 1_454 122.9(14) ?
U2 O6 H1o10 . . 2_655 123.91 ?
U2 O6 H1o10 . . 3_665 123.91 ?
Pb O6 Pb 2_655 . 3_665 102.83(16) ?
Pb O6 O1 2_655 . . 124.41(13) ?
Pb O6 O2 2_655 . . 97.69(17) ?
Pb O6 O5 2_655 . 1_454 54.05(9) ?
Pb O6 O8 2_655 . . 142.6(2) ?
Pb O6 O8 2_655 . 4_565 71.28(11) ?
Pb O6 O10 2_655 . 2_655 51.41(15) ?
Pb O6 O10 2_655 . 3_665 102.6(2) ?
Pb O6 O11 2_655 . . 172.3(3) ?
Pb O6 O11 2_655 . 4_565 79.99(9) ?
Pb O6 H1o5 2_655 . 1_454 58.0(5) ?
Pb O6 H1o10 2_655 . 2_655 66.06 ?
Pb O6 H1o10 2_655 . 3_665 100.02 ?
Pb O6 O1 3_665 . . 124.41(13) ?
Pb O6 O2 3_665 . . 97.69(17) ?
Pb O6 O5 3_665 . 1_454 54.05(9) ?
Pb O6 O8 3_665 . . 71.28(11) ?
Pb O6 O8 3_665 . 4_565 142.6(2) ?
Pb O6 O10 3_665 . 2_655 102.6(2) ?
Pb O6 O10 3_665 . 3_665 51.41(15) ?
Pb O6 O11 3_665 . . 79.99(9) ?
Pb O6 O11 3_665 . 4_565 172.3(3) ?
Pb O6 H1o5 3_665 . 1_454 58.0(5) ?
Pb O6 H1o10 3_665 . 2_655 100.02 ?
Pb O6 H1o10 3_665 . 3_665 66.06 ?
O1 O6 O2 . . . 102.6(3) ?
O1 O6 O5 . . 1_454 174.7(4) ?
O1 O6 O8 . . . 84.60(18) ?
O1 O6 O8 . . 4_565 84.60(18) ?
O1 O6 O10 . . 2_655 88.1(2) ?
O1 O6 O10 . . 3_665 88.1(2) ?
O1 O6 O11 . . . 49.71(12) ?
O1 O6 O11 . . 4_565 49.71(12) ?
O1 O6 H1o5 . . 1_454 173.3(14) ?
O1 O6 H1o10 . . 2_655 77.49 ?
O1 O6 H1o10 . . 3_665 77.49 ?
O2 O6 O5 . . 1_454 82.7(3) ?
O2 O6 O8 . . . 48.92(15) ?
O2 O6 O8 . . 4_565 48.92(15) ?
O2 O6 O10 . . 2_655 146.01(18) ?
O2 O6 O10 . . 3_665 146.01(18) ?
O2 O6 O11 . . . 89.0(2) ?
O2 O6 O11 . . 4_565 89.0(2) ?
O2 O6 H1o5 . . 1_454 70.7(14) ?
O2 O6 H1o10 . . 2_655 158.22 ?
O2 O6 H1o10 . . 3_665 158.22 ?
O5 O6 O8 1_454 . . 99.1(2) ?
O5 O6 O8 1_454 . 4_565 99.1(2) ?
O5 O6 O10 1_454 . 2_655 87.5(2) ?
O5 O6 O10 1_454 . 3_665 87.5(2) ?
O5 O6 O11 1_454 . . 131.22(12) ?
O5 O6 O11 1_454 . 4_565 131.22(12) ?
O5 O6 H1o5 1_454 . 1_454 12.0(14) ?
O5 O6 H1o10 1_454 . 2_655 97.61 ?
O5 O6 H1o10 1_454 . 3_665 97.61 ?
O8 O6 O8 . . 4_565 91.0(2) ?
O8 O6 O10 . . 2_655 164.9(3) ?
O8 O6 O10 . . 3_665 101.41(19) ?
O8 O6 O11 . . . 45.10(15) ?
O8 O6 O11 . . 4_565 110.9(2) ?
O8 O6 H1o5 . . 1_454 90.7(10) ?
O8 O6 H1o10 . . 2_655 150.62 ?
O8 O6 H1o10 . . 3_665 110.03 ?
O8 O6 O10 4_565 . 2_655 101.41(19) ?
O8 O6 O10 4_565 . 3_665 164.9(3) ?
O8 O6 O11 4_565 . . 110.9(2) ?
O8 O6 O11 4_565 . 4_565 45.10(15) ?
O8 O6 H1o5 4_565 . 1_454 90.7(10) ?
O8 O6 H1o10 4_565 . 2_655 110.03 ?
O8 O6 H1o10 4_565 . 3_665 150.62 ?
O10 O6 O10 2_655 . 3_665 65.1(3) ?
O10 O6 O11 2_655 . . 121.1(3) ?
O10 O6 O11 2_655 . 4_565 73.4(2) ?
O10 O6 H1o5 2_655 . 1_454 97.6(12) ?
O10 O6 H1o10 2_655 . 2_655 14.66 ?
O10 O6 H1o10 2_655 . 3_665 55.37 ?
O10 O6 O11 3_665 . . 73.4(2) ?
O10 O6 O11 3_665 . 4_565 121.1(3) ?
O10 O6 H1o5 3_665 . 1_454 97.6(12) ?
O10 O6 H1o10 3_665 . 2_655 55.37 ?
O10 O6 H1o10 3_665 . 3_665 14.66 ?
O11 O6 O11 . . 4_565 96.32(19) ?
O11 O6 H1o5 . . 1_454 128.5(4) ?
O11 O6 H1o10 . . 2_655 106.5 ?
O11 O6 H1o10 . . 3_665 74.42 ?
O11 O6 H1o5 4_565 . 1_454 128.5(4) ?
O11 O6 H1o10 4_565 . 2_655 74.42 ?
O11 O6 H1o10 4_565 . 3_665 106.5 ?
H1o5 O6 H1o10 1_454 . 2_655 108.7 ?
H1o5 O6 H1o10 1_454 . 3_665 108.7 ?
H1o10 O6 H1o10 2_655 . 3_665 43.53 ?
U1 O7 Pb . . 3_666 157.8(3) ?
U1 O7 O1 . . 1_455 51.60(17) ?
U1 O7 O2 . . . 51.24(17) ?
U1 O7 O5 . . 1_455 140.8(2) ?
U1 O7 O7 . . 4_565 93.7(2) ?
U1 O7 O8 . . . 50.62(17) ?
U1 O7 O9 . . 3_666 107.1(2) ?
U1 O7 O10 . . 3_666 123.4(3) ?
U1 O7 O11 . . 1_455 51.39(17) ?
U1 O7 O12 . . 3_666 122.3(2) ?
U1 O7 O13 . . 3_666 55.39(17) ?
U1 O7 H2o5 . . 1_455 127.2(6) ?
U1 O7 H2o10 . . 3_666 110.24 ?
Pb O7 O1 3_666 . 1_455 147.9(3) ?
Pb O7 O2 3_666 . . 141.3(2) ?
Pb O7 O5 3_666 . 1_455 60.12(16) ?
Pb O7 O7 3_666 . 4_565 108.07(19) ?
Pb O7 O8 3_666 . . 118.11(18) ?
Pb O7 O9 3_666 . 3_666 50.70(14) ?
Pb O7 O10 3_666 . 3_666 55.00(17) ?
Pb O7 O11 3_666 . 1_455 125.2(2) ?
Pb O7 O12 3_666 . 3_666 50.02(14) ?
Pb O7 O13 3_666 . 3_666 102.72(19) ?
Pb O7 H2o5 3_666 . 1_455 73.2(4) ?
Pb O7 H2o10 3_666 . 3_666 64.44 ?
O1 O7 O2 1_455 . . 53.48(19) ?
O1 O7 O5 1_455 . 1_455 89.2(2) ?
O1 O7 O7 1_455 . 4_565 53.20(13) ?
O1 O7 O8 1_455 . . 92.7(2) ?
O1 O7 O9 1_455 . 3_666 152.8(2) ?
O1 O7 O10 1_455 . 3_666 135.9(2) ?
O1 O7 O11 1_455 . 1_455 51.06(14) ?
O1 O7 O12 1_455 . 3_666 112.4(2) ?
O1 O7 O13 1_455 . 3_666 100.3(2) ?
O1 O7 H2o5 1_455 . 1_455 75.7(5) ?
O1 O7 H2o10 1_455 . 3_666 134.64 ?
O2 O7 O5 . . 1_455 108.9(2) ?
O2 O7 O7 . . 4_565 53.37(16) ?
O2 O7 O8 . . . 50.33(16) ?
O2 O7 O9 . . 3_666 130.8(2) ?
O2 O7 O10 . . 3_666 88.2(2) ?
O2 O7 O11 . . 1_455 93.2(2) ?
O2 O7 O12 . . 3_666 165.9(2) ?
O2 O7 O13 . . 3_666 99.5(2) ?
O2 O7 H2o5 . . 1_455 101.4(8) ?
O2 O7 H2o10 . . 3_666 82.24 ?
O5 O7 O7 1_455 . 4_565 55.83(16) ?
O5 O7 O8 1_455 . . 148.3(2) ?
O5 O7 O9 1_455 . 3_666 109.9(2) ?
O5 O7 O10 1_455 . 3_666 83.2(2) ?
O5 O7 O11 1_455 . 1_455 106.5(2) ?
O5 O7 O12 1_455 . 3_666 67.72(18) ?
O5 O7 O13 1_455 . 3_666 150.0(3) ?
O5 O7 H2o5 1_455 . 1_455 13.7(7) ?
O5 O7 H2o10 1_455 . 3_666 97.47 ?
O7 O7 O8 4_565 . . 101.2(2) ?
O7 O7 O9 4_565 . 3_666 153.96(19) ?
O7 O7 O10 4_565 . 3_666 87.91(19) ?
O7 O7 O11 4_565 . 1_455 101.70(17) ?
O7 O7 O12 4_565 . 3_666 120.2(2) ?
O7 O7 O13 4_565 . 3_666 149.1(2) ?
O7 O7 H2o5 4_565 . 1_455 48.3(9) ?
O7 O7 H2o10 4_565 . 3_666 94.66 ?
O8 O7 O9 . . 3_666 81.2(2) ?
O8 O7 O10 . . 3_666 73.5(2) ?
O8 O7 O11 . . 1_455 99.1(2) ?
O8 O7 O12 . . 3_666 138.6(2) ?
O8 O7 O13 . . 3_666 60.30(18) ?
O8 O7 H2o5 . . 1_455 148.4(12) ?
O8 O7 H2o10 . . 3_666 59.82 ?
O9 O7 O10 3_666 . 3_666 67.73(19) ?
O9 O7 O11 3_666 . 1_455 103.50(19) ?
O9 O7 O12 3_666 . 3_666 61.24(17) ?
O9 O7 O13 3_666 . 3_666 53.69(16) ?
O9 O7 H2o5 3_666 . 1_455 121.8(4) ?
O9 O7 H2o10 3_666 . 3_666 63.85 ?
O10 O7 O11 3_666 . 1_455 169.0(3) ?
O10 O7 O12 3_666 . 3_666 104.6(2) ?
O10 O7 O13 3_666 . 3_666 107.7(2) ?
O10 O7 H2o5 3_666 . 1_455 94.4(13) ?
O10 O7 H2o10 3_666 . 3_666 14.3 ?
O11 O7 O12 1_455 . 3_666 75.34(19) ?
O11 O7 O13 1_455 . 3_666 61.31(16) ?
O11 O7 H2o5 1_455 . 1_455 96.0(14) ?
O11 O7 H2o10 1_455 . 3_666 155.73 ?
O12 O7 O13 3_666 . 3_666 82.43(19) ?
O12 O7 H2o5 3_666 . 1_455 72.2(11) ?
O12 O7 H2o10 3_666 . 3_666 111.58 ?
O13 O7 H2o5 3_666 . 1_455 150.0(15) ?
O13 O7 H2o10 3_666 . 3_666 95.78 ?
H2o5 O7 H2o10 1_455 . 3_666 108.22 ?
U1 O8 U2 . . . 104.96(18) ?
U1 O8 As . . . 144.7(3) ?
U1 O8 P . . . 144.7(3) ?
U1 O8 O2 . . . 54.04(16) ?
U1 O8 O3 . . . 107.4(2) ?
U1 O8 O4 . . . 38.52(13) ?
U1 O8 O6 . . . 97.07(18) ?
U1 O8 O7 . . . 35.92(12) ?
U1 O8 O9 . . . 114.6(2) ?
U1 O8 O11 . . . 161.4(3) ?
U1 O8 O13 . . . 133.5(3) ?
U1 O8 O13 . . 3_666 50.59(13) ?
U1 O8 H2o10 . . 3_666 99.46 ?
U2 O8 As . . . 104.2(3) ?
U2 O8 P . . . 104.2(3) ?
U2 O8 O2 . . . 51.24(16) ?
U2 O8 O3 . . . 35.57(15) ?
U2 O8 O4 . . . 100.61(19) ?
U2 O8 O6 . . . 33.62(11) ?
U2 O8 O7 . . . 104.5(2) ?
U2 O8 O9 . . . 111.9(3) ?
U2 O8 O11 . . . 62.78(17) ?
U2 O8 O13 . . . 119.8(2) ?
U2 O8 O13 . . 3_666 155.5(2) ?
U2 O8 H2o10 . . 3_666 86.75 ?
As O8 P . . . 0 ?
As O8 O2 . . . 152.5(4) ?
As O8 O3 . . . 107.9(2) ?
As O8 O4 . . . 116.0(3) ?
As O8 O6 . . . 96.2(3) ?
As O8 O7 . . . 146.7(3) ?
As O8 O9 . . . 34.01(16) ?
As O8 O11 . . . 41.73(18) ?
As O8 O13 . . . 34.15(17) ?
As O8 O13 . . 3_666 99.1(2) ?
As O8 H2o10 . . 3_666 101.7 ?
P O8 O2 . . . 152.5(4) ?
P O8 O3 . . . 107.9(2) ?
P O8 O4 . . . 116.0(3) ?
P O8 O6 . . . 96.2(3) ?
P O8 O7 . . . 146.7(3) ?
P O8 O9 . . . 34.01(16) ?
P O8 O11 . . . 41.73(18) ?
P O8 O13 . . . 34.15(17) ?
P O8 O13 . . 3_666 99.1(2) ?
P O8 H2o10 . . 3_666 101.7 ?
O2 O8 O3 . . . 60.87(17) ?
O2 O8 O4 . . . 65.07(18) ?
O2 O8 O6 . . . 56.7(2) ?
O2 O8 O7 . . . 60.6(2) ?
O2 O8 O9 . . . 135.2(3) ?
O2 O8 O11 . . . 113.5(3) ?
O2 O8 O13 . . . 162.0(3) ?
O2 O8 O13 . . 3_666 104.3(2) ?
O2 O8 H2o10 . . 3_666 90.06 ?
O3 O8 O4 . . . 125.3(2) ?
O3 O8 O6 . . . 69.19(19) ?
O3 O8 O7 . . . 86.5(2) ?
O3 O8 O9 . . . 133.7(3) ?
O3 O8 O11 . . . 71.4(2) ?
O3 O8 O13 . . . 102.52(18) ?
O3 O8 O13 . . 3_666 140.3(3) ?
O3 O8 H2o10 . . 3_666 51.18 ?
O4 O8 O6 . . . 75.02(19) ?
O4 O8 O7 . . . 74.41(18) ?
O4 O8 O9 . . . 82.0(2) ?
O4 O8 O11 . . . 126.5(3) ?
O4 O8 O13 . . . 132.2(2) ?
O4 O8 O13 . . 3_666 61.79(16) ?
O4 O8 H2o10 . . 3_666 137.93 ?
O6 O8 O7 . . . 117.0(2) ?
O6 O8 O9 . . . 86.9(2) ?
O6 O8 O11 . . . 64.9(2) ?
O6 O8 O13 . . . 126.8(3) ?
O6 O8 O13 . . 3_666 136.6(2) ?
O6 O8 H2o10 . . 3_666 120.36 ?
O7 O8 O9 . . . 139.6(2) ?
O7 O8 O11 . . . 155.7(3) ?
O7 O8 O13 . . . 114.6(3) ?
O7 O8 O13 . . 3_666 56.19(17) ?
O7 O8 H2o10 . . 3_666 63.69 ?
O9 O8 O11 . . . 62.6(2) ?
O9 O8 O13 . . . 60.79(19) ?
O9 O8 O13 . . 3_666 83.8(2) ?
O9 O8 H2o10 . . 3_666 133.61 ?
O11 O8 O13 . . . 62.9(2) ?
O11 O8 O13 . . 3_666 140.9(3) ?
O11 O8 H2o10 . . 3_666 93.86 ?
O13 O8 O13 . . 3_666 83.93(19) ?
O13 O8 H2o10 . . 3_666 73.01 ?
O13 O8 H2o10 3_666 . 3_666 95.76 ?
Pb O9 Pb . . 3_665 105.1(2) ?
Pb O9 As . . . 136.3(3) ?
Pb O9 P . . . 136.3(3) ?
Pb O9 O7 . . 3_666 50.94(14) ?
Pb O9 O8 . . . 165.0(3) ?
Pb O9 O9 . . 3_665 55.71(15) ?
Pb O9 O10 . . . 49.74(16) ?
Pb O9 O11 . . . 127.3(2) ?
Pb O9 O12 . . . 51.00(13) ?
Pb O9 O13 . . . 107.8(2) ?
Pb O9 H2o10 . . . 63.08 ?
Pb O9 H2o12 . . . 65.34 ?
Pb O9 As 3_665 . . 116.0(3) ?
Pb O9 P 3_665 . . 116.0(3) ?
Pb O9 O7 3_665 . 3_666 153.1(2) ?
Pb O9 O8 3_665 . . 88.64(19) ?
Pb O9 O9 3_665 . 3_665 49.36(13) ?
Pb O9 O10 3_665 . . 99.26(17) ?
Pb O9 O11 3_665 . . 98.6(2) ?
Pb O9 O12 3_665 . . 114.1(2) ?
Pb O9 O13 3_665 . . 147.1(3) ?
Pb O9 H2o10 3_665 . . 99.03 ?
Pb O9 H2o12 3_665 . . 111.77 ?
As O9 P . . . 0 ?
As O9 O7 . . 3_666 90.6(2) ?
As O9 O8 . . . 34.28(16) ?
As O9 O9 . . 3_665 160.6(3) ?
As O9 O10 . . . 130.8(3) ?
As O9 O11 . . . 35.12(19) ?
As O9 O12 . . . 96.7(2) ?
As O9 O13 . . . 32.36(15) ?
As O9 H2o10 . . . 120.82 ?
As O9 H2o12 . . . 85.41 ?
P O9 O7 . . 3_666 90.6(2) ?
P O9 O8 . . . 34.28(16) ?
P O9 O9 . . 3_665 160.6(3) ?
P O9 O10 . . . 130.8(3) ?
P O9 O11 . . . 35.12(19) ?
P O9 O12 . . . 96.7(2) ?
P O9 O13 . . . 32.36(15) ?
P O9 H2o10 . . . 120.82 ?
P O9 H2o12 . . . 85.41 ?
O7 O9 O8 3_666 . . 114.3(3) ?
O7 O9 O9 3_666 . 3_665 105.5(2) ?
O7 O9 O10 3_666 . . 57.05(16) ?
O7 O9 O11 3_666 . . 106.1(2) ?
O7 O9 O12 3_666 . . 63.19(17) ?
O7 O9 O13 3_666 . . 58.68(17) ?
O7 O9 H2o10 3_666 . . 61.18 ?
O7 O9 H2o12 3_666 . . 72.18 ?
O8 O9 O9 . . 3_665 137.6(2) ?
O8 O9 O10 . . . 123.0(3) ?
O8 O9 O11 . . . 54.3(2) ?
O8 O9 O12 . . . 128.8(2) ?
O8 O9 O13 . . . 58.89(19) ?
O8 O9 H2o10 . . . 109.45 ?
O8 O9 H2o12 . . . 115.56 ?
O9 O9 O10 3_665 . . 68.27(19) ?
O9 O9 O11 3_665 . . 127.2(3) ?
O9 O9 O12 3_665 . . 81.7(2) ?
O9 O9 O13 3_665 . . 163.4(3) ?
O9 O9 H2o10 3_665 . . 77.2 ?
O9 O9 H2o12 3_665 . . 89.4 ?
O10 O9 O11 . . . 161.9(3) ?
O10 O9 O12 . . . 99.0(2) ?
O10 O9 O13 . . . 103.0(2) ?
O10 O9 H2o10 . . . 13.59 ?
O10 O9 H2o12 . . . 113.21 ?
O11 O9 O12 . . . 76.46(19) ?
O11 O9 O13 . . . 59.5(2) ?
O11 O9 H2o10 . . . 155.58 ?
O11 O9 H2o12 . . . 62.28 ?
O12 O9 O13 . . . 86.0(2) ?
O12 O9 H2o10 . . . 111.03 ?
O12 O9 H2o12 . . . 14.41 ?
O13 O9 H2o10 . . . 97.11 ?
O13 O9 H2o12 . . . 81.11 ?
H2o10 O9 H2o12 . . . 124.92 ?
Pb O10 O3 . . 2_646 134.4(2) ?
Pb O10 O4 . . 3_565 125.3(3) ?
Pb O10 O6 . . 2_645 68.1(2) ?
Pb O10 O7 . . 3_666 48.88(14) ?
Pb O10 O9 . . . 44.38(15) ?
Pb O10 O10 . . 4_555 109.2(3) ?
Pb O10 O12 . . 1_455 122.0(3) ?
Pb O10 H1o5 . . 2_646 160.3(14) ?
Pb O10 H1o10 . . . 120 ?
Pb O10 H1o10 . . 4_555 113.43 ?
Pb O10 H2o10 . . . 120 ?
Pb O10 H1o12 . . 1_455 119.84 ?
Pb O10 H2o12 . . 1_455 111.81 ?
O3 O10 O4 2_646 . 3_565 100.3(2) ?
O3 O10 O6 2_646 . 2_645 115.3(3) ?
O3 O10 O7 2_646 . 3_666 86.2(2) ?
O3 O10 O9 2_646 . . 120.5(3) ?
O3 O10 O10 2_646 . 4_555 57.9(2) ?
O3 O10 O12 2_646 . 1_455 82.6(3) ?
O3 O10 H1o5 2_646 . 2_646 54.0(14) ?
O3 O10 H1o10 2_646 . . 77.67 ?
O3 O10 H1o10 2_646 . 4_555 62.96 ?
O3 O10 H2o10 2_646 . . 60.91 ?
O3 O10 H1o12 2_646 . 1_455 84.49 ?
O3 O10 H2o12 2_646 . 1_455 86.79 ?
O4 O10 O6 3_565 . 2_645 90.2(2) ?
O4 O10 O7 3_565 . 3_666 170.1(3) ?
O4 O10 O9 3_565 . . 114.9(2) ?
O4 O10 O10 3_565 . 4_555 97.7(2) ?
O4 O10 O12 3_565 . 1_455 55.61(19) ?
O4 O10 H1o5 3_565 . 2_646 50.8(10) ?
O4 O10 H1o10 3_565 . . 62.3 ?
O4 O10 H1o10 3_565 . 4_555 87.16 ?
O4 O10 H2o10 3_565 . . 83.54 ?
O4 O10 H1o12 3_565 . 1_455 56.22 ?
O4 O10 H2o12 3_565 . 1_455 64.78 ?
O6 O10 O7 2_645 . 3_666 93.8(2) ?
O6 O10 O9 2_645 . . 111.0(3) ?
O6 O10 O10 2_645 . 4_555 57.4(2) ?
O6 O10 O12 2_645 . 1_455 144.7(3) ?
O6 O10 H1o5 2_645 . 2_646 92.2(14) ?
O6 O10 H1o10 2_645 . . 51.94 ?
O6 O10 H1o10 2_645 . 4_555 54.02 ?
O6 O10 H2o10 2_645 . . 171.74 ?
O6 O10 H1o12 2_645 . 1_455 144.57 ?
O6 O10 H2o12 2_645 . 1_455 149.91 ?
O7 O10 O9 3_666 . . 55.22(16) ?
O7 O10 O10 3_666 . 4_555 92.1(2) ?
O7 O10 O12 3_666 . 1_455 118.6(3) ?
O7 O10 H1o5 3_666 . 2_646 138.0(11) ?
O7 O10 H1o10 3_666 . . 126.89 ?
O7 O10 H1o10 3_666 . 4_555 102.5 ?
O7 O10 H2o10 3_666 . . 93.28 ?
O7 O10 H1o12 3_666 . 1_455 117.68 ?
O7 O10 H2o12 3_666 . 1_455 108.54 ?
O9 O10 O10 . . 4_555 146.2(2) ?
O9 O10 O12 . . 1_455 80.3(2) ?
O9 O10 H1o5 . . 2_646 153.8(10) ?
O9 O10 H1o10 . . . 161.1 ?
O9 O10 H1o10 . . 4_555 154.81 ?
O9 O10 H2o10 . . . 76.62 ?
O9 O10 H1o12 . . 1_455 78.33 ?
O9 O10 H2o12 . . 1_455 69.18 ?
O10 O10 O12 4_555 . 1_455 128.7(3) ?
O10 O10 H1o5 4_555 . 2_646 57.3(7) ?
O10 O10 H1o10 4_555 . . 37.05 ?
O10 O10 H1o10 4_555 . 4_555 10.98 ?
O10 O10 H2o10 4_555 . . 118.01 ?
O10 O10 H1o12 4_555 . 1_455 130.92 ?
O10 O10 H2o12 4_555 . 1_455 138.16 ?
O12 O10 H1o5 1_455 . 2_646 73.6(9) ?
O12 O10 H1o10 1_455 . . 109.03 ?
O12 O10 H1o10 1_455 . 4_555 124.01 ?
O12 O10 H2o10 1_455 . . 31.09 ?
O12 O10 H1o12 1_455 . 1_455 2.21 ?
O12 O10 H2o12 1_455 . 1_455 11.43 ?
H1o5 O10 H1o10 2_646 . . 40.34 ?
H1o5 O10 H1o10 2_646 . 4_555 50.59 ?
H1o5 O10 H2o10 2_646 . . 79.69 ?
H1o5 O10 H1o12 2_646 . 1_455 75.65 ?
H1o5 O10 H2o12 2_646 . 1_455 84.66 ?
H1o10 O10 H1o10 . . 4_555 26.07 ?
H1o10 O10 H2o10 . . . 120 ?
H1o10 O10 H1o12 . . 1_455 110.69 ?
H1o10 O10 H2o12 . . 1_455 120.41 ?
H1o10 O10 H2o10 4_555 . . 120.04 ?
H1o10 O10 H1o12 4_555 . 1_455 126.12 ?
H1o10 O10 H2o12 4_555 . 1_455 134.7 ?
H2o10 O10 H1o12 . . 1_455 31.69 ?
H2o10 O10 H2o12 . . 1_455 28.65 ?
H1o12 O10 H2o12 1_455 . 1_455 9.72 ?
U1 O11 U2 1_655 . . 104.48(18) ?
U1 O11 As 1_655 . . 149.5(3) ?
U1 O11 P 1_655 . . 149.5(3) ?
U1 O11 O1 1_655 . . 54.28(17) ?
U1 O11 O3 1_655 . . 95.19(19) ?
U1 O11 O4 1_655 . 1_655 38.30(13) ?
U1 O11 O6 1_655 . . 109.6(2) ?
U1 O11 O7 1_655 . 1_655 36.75(13) ?
U1 O11 O8 1_655 . . 157.6(3) ?
U1 O11 O9 1_655 . . 138.5(3) ?
U1 O11 O13 1_655 . . 118.3(2) ?
U1 O11 O13 1_655 . 3_766 50.48(13) ?
U1 O11 H1o10 1_655 . 3_665 85.94 ?
U1 O11 H2o12 1_655 . . 72.02 ?
U2 O11 As . . . 102.7(2) ?
U2 O11 P . . . 102.7(2) ?
U2 O11 O1 . . . 51.15(17) ?
U2 O11 O3 . . . 33.30(12) ?
U2 O11 O4 . . 1_655 110.3(2) ?
U2 O11 O6 . . . 35.09(13) ?
U2 O11 O7 . . 1_655 94.53(18) ?
U2 O11 O8 . . . 61.67(17) ?
U2 O11 O9 . . . 111.42(19) ?
U2 O11 O13 . . . 118.2(3) ?
U2 O11 O13 . . 3_766 150.8(2) ?
U2 O11 H1o10 . . 3_665 77.06 ?
U2 O11 H2o12 . . . 154.61 ?
As O11 P . . . 0 ?
As O11 O1 . . . 153.8(3) ?
As O11 O3 . . . 100.1(3) ?
As O11 O4 . . 1_655 138.2(3) ?
As O11 O6 . . . 100.5(2) ?
As O11 O7 . . 1_655 127.7(3) ?
As O11 O8 . . . 41.38(18) ?
As O11 O9 . . . 34.56(18) ?
As O11 O13 . . . 33.78(15) ?
As O11 O13 . . 3_766 99.4(2) ?
As O11 H1o10 . . 3_665 113.47 ?
As O11 H2o12 . . . 88.83 ?
P O11 O1 . . . 153.8(3) ?
P O11 O3 . . . 100.1(3) ?
P O11 O4 . . 1_655 138.2(3) ?
P O11 O6 . . . 100.5(2) ?
P O11 O7 . . 1_655 127.7(3) ?
P O11 O8 . . . 41.38(18) ?
P O11 O9 . . . 34.56(18) ?
P O11 O13 . . . 33.78(15) ?
P O11 O13 . . 3_766 99.4(2) ?
P O11 H1o10 . . 3_665 113.47 ?
P O11 H2o12 . . . 88.83 ?
O1 O11 O3 . . . 57.4(2) ?
O1 O11 O4 . . 1_655 65.0(2) ?
O1 O11 O6 . . . 60.58(17) ?
O1 O11 O7 . . 1_655 61.18(18) ?
O1 O11 O8 . . . 112.4(3) ?
O1 O11 O9 . . . 147.5(3) ?
O1 O11 O13 . . . 149.0(3) ?
O1 O11 O13 . . 3_766 104.5(2) ?
O1 O11 H1o10 . . 3_665 67.52 ?
O1 O11 H2o12 . . . 116.07 ?
O3 O11 O4 . . 1_655 121.5(2) ?
O3 O11 O6 . . . 68.39(19) ?
O3 O11 O7 . . 1_655 69.77(19) ?
O3 O11 O8 . . . 63.4(2) ?
O3 O11 O9 . . . 126.3(3) ?
O3 O11 O13 . . . 97.5(3) ?
O3 O11 O13 . . 3_766 123.8(2) ?
O3 O11 H1o10 . . 3_665 108.28 ?
O3 O11 H2o12 . . . 165.81 ?
O4 O11 O6 1_655 . . 92.7(2) ?
O4 O11 O7 1_655 . 1_655 75.02(18) ?
O4 O11 O8 1_655 . . 159.4(3) ?
O4 O11 O9 1_655 . . 107.2(3) ?
O4 O11 O13 1_655 . . 131.1(2) ?
O4 O11 O13 1_655 . 3_766 61.43(18) ?
O4 O11 H1o10 1_655 . 3_665 53.4 ?
O4 O11 H2o12 1_655 . . 51.16 ?
O6 O11 O7 . . 1_655 120.1(2) ?
O6 O11 O8 . . . 70.0(2) ?
O6 O11 O9 . . . 89.55(18) ?
O6 O11 O13 . . . 131.2(2) ?
O6 O11 O13 . . 3_766 154.1(3) ?
O6 O11 H1o10 . . 3_665 45.18 ?
O6 O11 H2o12 . . . 121.07 ?
O7 O11 O8 1_655 . . 122.8(3) ?
O7 O11 O9 1_655 . . 150.3(2) ?
O7 O11 O13 1_655 . . 94.9(2) ?
O7 O11 O13 1_655 . 3_766 56.64(15) ?
O7 O11 H1o10 1_655 . 3_665 118.48 ?
O7 O11 H2o12 1_655 . . 96.05 ?
O8 O11 O9 . . . 63.1(2) ?
O8 O11 O13 . . . 62.2(2) ?
O8 O11 O13 . . 3_766 135.2(3) ?
O8 O11 H1o10 . . 3_665 106.2 ?
O8 O11 H2o12 . . . 128.32 ?
O9 O11 O13 . . . 60.74(19) ?
O9 O11 O13 . . 3_766 97.6(2) ?
O9 O11 H1o10 . . 3_665 82.48 ?
O9 O11 H2o12 . . . 66.57 ?
O13 O11 O13 . . 3_766 72.99(19) ?
O13 O11 H1o10 . . 3_665 143 ?
O13 O11 H2o12 . . . 83.78 ?
O13 O11 H1o10 3_766 . 3_665 110.96 ?
O13 O11 H2o12 3_766 . . 43.07 ?
H1o10 O11 H2o12 3_665 . . 77.6 ?
Pb O12 O4 . . 1_655 128.14(18) ?
Pb O12 O4 . . 3_665 62.70(16) ?
Pb O12 O7 . . 3_666 46.70(13) ?
Pb O12 O9 . . . 47.35(13) ?
Pb O12 O10 . . 1_655 115.3(2) ?
Pb O12 O12 . . 3_765 104.7(2) ?
Pb O12 O13 . . 3_766 127.3(3) ?
Pb O12 H1o5 . . 2_746 61.9(10) ?
Pb O12 H1o10 . . 1_655 101.62 ?
Pb O12 H2o10 . . 1_655 118.31 ?
Pb O12 H1o12 . . . 120 ?
Pb O12 H1o12 . . 3_765 96.24 ?
Pb O12 H2o12 . . . 120 ?
Pb O12 H2o12 . . 3_765 96.73 ?
O4 O12 O4 1_655 . 3_665 124.1(3) ?
O4 O12 O7 1_655 . 3_666 129.2(3) ?
O4 O12 O9 1_655 . . 85.93(17) ?
O4 O12 O10 1_655 . 1_655 113.3(2) ?
O4 O12 O12 1_655 . 3_765 53.97(16) ?
O4 O12 O13 1_655 . 3_766 59.03(15) ?
O4 O12 H1o5 1_655 . 2_746 165.9(13) ?
O4 O12 H1o10 1_655 . 1_655 125.38 ?
O4 O12 H2o10 1_655 . 1_655 112.88 ?
O4 O12 H1o12 1_655 . . 107.84 ?
O4 O12 H1o12 1_655 . 3_765 49.6 ?
O4 O12 H2o12 1_655 . . 22.48 ?
O4 O12 H2o12 1_655 . 3_765 70.15 ?
O4 O12 O7 3_665 . 3_666 98.29(19) ?
O4 O12 O9 3_665 . . 103.24(19) ?
O4 O12 O10 3_665 . 1_655 67.9(2) ?
O4 O12 O12 3_665 . 3_765 70.2(2) ?
O4 O12 O13 3_665 . 3_766 166.6(3) ?
O4 O12 H1o5 3_665 . 2_746 48.0(12) ?
O4 O12 H1o10 3_665 . 1_655 56.66 ?
O4 O12 H2o10 3_665 . 1_655 77.61 ?
O4 O12 H1o12 3_665 . . 69.49 ?
O4 O12 H1o12 3_665 . 3_765 76.63 ?
O4 O12 H2o12 3_665 . . 143.99 ?
O4 O12 H2o12 3_665 . 3_765 54.06 ?
O7 O12 O9 3_666 . . 55.58(17) ?
O7 O12 O10 3_666 . 1_655 107.5(2) ?
O7 O12 O12 3_666 . 3_765 149.3(2) ?
O7 O12 O13 3_666 . 3_766 86.4(2) ?
O7 O12 H1o5 3_666 . 2_746 64.5(13) ?
O7 O12 H1o10 3_666 . 1_655 99.88 ?
O7 O12 H2o10 3_666 . 1_655 101.52 ?
O7 O12 H1o12 3_666 . . 112.79 ?
O7 O12 H1o12 3_666 . 3_765 136.16 ?
O7 O12 H2o12 3_666 . . 107.37 ?
O7 O12 H2o12 3_666 . 3_765 143.4 ?
O9 O12 O10 . . 1_655 160.8(2) ?
O9 O12 O12 . . 3_765 98.23(19) ?
O9 O12 O13 . . 3_766 89.8(2) ?
O9 O12 H1o5 . . 2_746 106.8(11) ?
O9 O12 H1o10 . . 1_655 148.18 ?
O9 O12 H2o10 . . 1_655 157.09 ?
O9 O12 H1o12 . . . 166.23 ?
O9 O12 H1o12 . . 3_765 82.81 ?
O9 O12 H2o12 . . . 72.91 ?
O9 O12 H2o12 . . 3_765 103.52 ?
O10 O12 O12 1_655 . 3_765 94.7(3) ?
O10 O12 O13 1_655 . 3_766 98.7(2) ?
O10 O12 H1o5 1_655 . 2_746 54.4(11) ?
O10 O12 H1o10 1_655 . 1_655 13.86 ?
O10 O12 H2o10 1_655 . 1_655 11.02 ?
O10 O12 H1o12 1_655 . . 5.57 ?
O10 O12 H1o12 1_655 . 3_765 110.35 ?
O10 O12 H2o12 1_655 . . 124.57 ?
O10 O12 H2o12 1_655 . 3_765 85.36 ?
O12 O12 O13 3_765 . 3_766 111.5(2) ?
O12 O12 H1o5 3_765 . 2_746 116.7(13) ?
O12 O12 H1o10 3_765 . 1_655 96.96 ?
O12 O12 H2o10 3_765 . 1_655 103.43 ?
O12 O12 H1o12 3_765 . . 90.34 ?
O12 O12 H1o12 3_765 . 3_765 15.7 ?
O12 O12 H2o12 3_765 . . 74.94 ?
O12 O12 H2o12 3_765 . 3_765 16.35 ?
O13 O12 H1o5 3_766 . 2_746 125.5(11) ?
O13 O12 H1o10 3_766 . 1_655 110.29 ?
O13 O12 H2o10 3_766 . 1_655 89.2 ?
O13 O12 H1o12 3_766 . . 97.13 ?
O13 O12 H1o12 3_766 . 3_765 108.54 ?
O13 O12 H2o12 3_766 . . 43.06 ?
O13 O12 H2o12 3_766 . 3_765 126.27 ?
H1o5 O12 H1o10 2_746 . 1_655 41.49 ?
H1o5 O12 H2o10 2_746 . 1_655 56.48 ?
H1o5 O12 H1o12 2_746 . . 59.57 ?
H1o5 O12 H1o12 2_746 . 3_765 124.64 ?
H1o5 O12 H2o12 2_746 . . 168 ?
H1o5 O12 H2o12 2_746 . 3_765 100.35 ?
H1o10 O12 H2o10 1_655 . 1_655 21.21 ?
H1o10 O12 H1o12 1_655 . . 18.42 ?
H1o10 O12 H1o12 1_655 . 3_765 111.91 ?
H1o10 O12 H2o12 1_655 . . 138.36 ?
H1o10 O12 H2o12 1_655 . 3_765 84.7 ?
H2o10 O12 H1o12 1_655 . . 13.5 ?
H2o10 O12 H1o12 1_655 . 3_765 119.1 ?
H2o10 O12 H2o12 1_655 . . 119.87 ?
H2o10 O12 H2o12 1_655 . 3_765 95.47 ?
H1o12 O12 H1o12 . . 3_765 106.04 ?
H1o12 O12 H2o12 . . . 120 ?
H1o12 O12 H2o12 . . 3_765 81.98 ?
H1o12 O12 H2o12 3_765 . . 67.36 ?
H1o12 O12 H2o12 3_765 . 3_765 27.81 ?
H2o12 O12 H2o12 . . 3_765 91.29 ?
U1 O13 As 3_666 . . 138.0(3) ?
U1 O13 P 3_666 . . 138.0(3) ?
U1 O13 O4 3_666 . 3_666 36.68(12) ?
U1 O13 O7 3_666 . 3_666 39.13(13) ?
U1 O13 O8 3_666 . . 146.1(2) ?
U1 O13 O8 3_666 . 3_666 51.33(13) ?
U1 O13 O9 3_666 . . 105.1(2) ?
U1 O13 O11 3_666 . . 147.9(3) ?
U1 O13 O11 3_666 . 3_766 50.59(13) ?
U1 O13 O12 3_666 . 3_766 103.91(19) ?
U1 O13 O13 3_666 . 3_766 95.91(17) ?
U1 O13 H1o12 3_666 . 3_766 111.47 ?
U1 O13 H2o12 3_666 . 3_766 89.4 ?
As O13 P . . . 0 ?
As O13 O4 . . 3_666 167.3(3) ?
As O13 O7 . . 3_666 100.2(3) ?
As O13 O8 . . . 35.13(18) ?
As O13 O8 . . 3_666 109.8(2) ?
As O13 O9 . . . 33.00(16) ?
As O13 O11 . . . 35.02(15) ?
As O13 O11 . . 3_766 131.3(3) ?
As O13 O12 . . 3_766 117.9(2) ?
As O13 O13 . . 3_766 86.6(2) ?
As O13 H1o12 . . 3_766 109.78 ?
As O13 H2o12 . . 3_766 132.32 ?
P O13 O4 . . 3_666 167.3(3) ?
P O13 O7 . . 3_666 100.2(3) ?
P O13 O8 . . . 35.13(18) ?
P O13 O8 . . 3_666 109.8(2) ?
P O13 O9 . . . 33.00(16) ?
P O13 O11 . . . 35.02(15) ?
P O13 O11 . . 3_766 131.3(3) ?
P O13 O12 . . 3_766 117.9(2) ?
P O13 O13 . . 3_766 86.6(2) ?
P O13 H1o12 . . 3_766 109.78 ?
P O13 H2o12 . . 3_766 132.32 ?
O4 O13 O7 3_666 . 3_666 75.81(18) ?
O4 O13 O8 3_666 . . 138.4(3) ?
O4 O13 O8 3_666 . 3_666 57.55(16) ?
O4 O13 O9 3_666 . . 139.5(2) ?
O4 O13 O11 3_666 . . 157.5(2) ?
O4 O13 O11 3_666 . 3_766 57.80(18) ?
O4 O13 O12 3_666 . 3_766 69.85(18) ?
O4 O13 O13 3_666 . 3_766 104.74(17) ?
O4 O13 H1o12 3_666 . 3_766 75.06 ?
O4 O13 H2o12 3_666 . 3_766 56.28 ?
O7 O13 O8 3_666 . . 123.9(2) ?
O7 O13 O8 3_666 . 3_666 63.51(18) ?
O7 O13 O9 3_666 . . 67.63(19) ?
O7 O13 O11 3_666 . . 113.4(3) ?
O7 O13 O11 3_666 . 3_766 62.05(16) ?
O7 O13 O12 3_666 . 3_766 138.9(2) ?
O7 O13 O13 3_666 . 3_766 84.06(19) ?
O7 O13 H1o12 3_666 . 3_766 150.03 ?
O7 O13 H2o12 3_666 . 3_766 124.66 ?
O8 O13 O8 . . 3_666 96.1(2) ?
O8 O13 O9 . . . 60.3(2) ?
O8 O13 O11 . . . 54.84(19) ?
O8 O13 O11 . . 3_766 161.7(3) ?
O8 O13 O12 . . 3_766 96.9(2) ?
O8 O13 O13 . . 3_766 113.0(2) ?
O8 O13 H1o12 . . 3_766 83.49 ?
O8 O13 H2o12 . . 3_766 110.61 ?
O8 O13 O9 3_666 . . 89.8(2) ?
O8 O13 O11 3_666 . . 144.8(2) ?
O8 O13 O11 3_666 . 3_766 101.63(19) ?
O8 O13 O12 3_666 . 3_766 112.4(3) ?
O8 O13 O13 3_666 . 3_766 145.3(2) ?
O8 O13 H1o12 3_666 . 3_766 105.44 ?
O8 O13 H2o12 3_666 . 3_766 104.65 ?
O9 O13 O11 . . . 59.80(19) ?
O9 O13 O11 . . 3_766 114.8(3) ?
O9 O13 O12 . . 3_766 150.6(2) ?
O9 O13 O13 . . 3_766 88.7(2) ?
O9 O13 H1o12 . . 3_766 142.24 ?
O9 O13 H2o12 . . 3_766 164.08 ?
O11 O13 O11 . . 3_766 107.0(2) ?
O11 O13 O12 . . 3_766 92.4(2) ?
O11 O13 O13 . . 3_766 58.16(17) ?
O11 O13 H1o12 . . 3_766 91.64 ?
O11 O13 H2o12 . . 3_766 104.35 ?
O11 O13 O12 3_766 . 3_766 80.54(18) ?
O11 O13 O13 3_766 . 3_766 48.86(16) ?
O11 O13 H1o12 3_766 . 3_766 96 ?
O11 O13 H2o12 3_766 . 3_766 69.27 ?
O12 O13 O13 3_766 . 3_766 83.51(19) ?
O12 O13 H1o12 3_766 . 3_766 15.94 ?
O12 O13 H2o12 3_766 . 3_766 14.62 ?
O13 O13 H1o12 3_766 . 3_766 96.62 ?
O13 O13 H2o12 3_766 . 3_766 83.15 ?
H1o12 O13 H2o12 3_766 . 3_766 27.31 ?
Pb H1o5 Pb 2_756 . 3_766 100.5(18) ?
Pb H1o5 O3 2_756 . . 102.5(19) ?
Pb H1o5 O4 2_756 . 1_656 128.9(19) ?
Pb H1o5 O4 2_756 . 4_666 56.7(6) ?
Pb H1o5 O5 2_756 . . 53.0(12) ?
Pb H1o5 O6 2_756 . 1_656 56.5(9) ?
Pb H1o5 O10 2_756 . 2_656 96.4(3) ?
Pb H1o5 O10 2_756 . 3_666 160.4(15) ?
Pb H1o5 O12 2_756 . 2_756 45.0(3) ?
Pb H1o5 O12 2_756 . 3_766 142(2) ?
Pb H1o5 H2o5 2_756 . . 69(2) ?
Pb H1o5 H1o10 2_756 . 2_656 106.52 ?
Pb H1o5 H1o10 2_756 . 3_666 152.96 ?
Pb H1o5 H2o10 2_756 . 2_656 84.05 ?
Pb H1o5 H2o10 2_756 . 3_666 159.71 ?
Pb H1o5 H1o12 2_756 . 2_756 57.63 ?
Pb H1o5 H1o12 2_756 . 3_766 153.98 ?
Pb H1o5 O3 3_766 . . 102.5(19) ?
Pb H1o5 O4 3_766 . 1_656 56.7(6) ?
Pb H1o5 O4 3_766 . 4_666 128.9(19) ?
Pb H1o5 O5 3_766 . . 53.0(12) ?
Pb H1o5 O6 3_766 . 1_656 56.5(9) ?
Pb H1o5 O10 3_766 . 2_656 160.4(15) ?
Pb H1o5 O10 3_766 . 3_666 96.4(3) ?
Pb H1o5 O12 3_766 . 2_756 142(2) ?
Pb H1o5 O12 3_766 . 3_766 45.0(3) ?
Pb H1o5 H2o5 3_766 . . 69(2) ?
Pb H1o5 H1o10 3_766 . 2_656 152.96 ?
Pb H1o5 H1o10 3_766 . 3_666 106.52 ?
Pb H1o5 H2o10 3_766 . 2_656 159.71 ?
Pb H1o5 H2o10 3_766 . 3_666 84.05 ?
Pb H1o5 H1o12 3_766 . 2_756 153.98 ?
Pb H1o5 H1o12 3_766 . 3_766 57.63 ?
O3 H1o5 O4 . . 1_656 125.6(11) ?
O3 H1o5 O4 . . 4_666 125.6(11) ?
O3 H1o5 O5 . . . 90(5) ?
O3 H1o5 O6 . . 1_656 140(3) ?
O3 H1o5 O10 . . 2_656 64.0(11) ?
O3 H1o5 O10 . . 3_666 64.0(11) ?
O3 H1o5 O12 . . 2_756 76.4(10) ?
O3 H1o5 O12 . . 3_766 76.4(10) ?
O3 H1o5 H2o5 . . . 55(4) ?
O3 H1o5 H1o10 . . 2_656 70.16 ?
O3 H1o5 H1o10 . . 3_666 70.16 ?
O3 H1o5 H2o10 . . 2_656 57.28 ?
O3 H1o5 H2o10 . . 3_666 57.28 ?
O3 H1o5 H1o12 . . 2_756 72.26 ?
O3 H1o5 H1o12 . . 3_766 72.26 ?
O4 H1o5 O4 1_656 . 4_666 100(3) ?
O4 H1o5 O5 1_656 . . 106(3) ?
O4 H1o5 O6 1_656 . 1_656 74.4(12) ?
O4 H1o5 O10 1_656 . 2_656 118(3) ?
O4 H1o5 O10 1_656 . 3_666 69.2(11) ?
O4 H1o5 O12 1_656 . 2_756 152(3) ?
O4 H1o5 O12 1_656 . 3_766 53.01(17) ?
O4 H1o5 H2o5 1_656 . . 124(2) ?
O4 H1o5 H1o10 1_656 . 2_656 105.33 ?
O4 H1o5 H1o10 1_656 . 3_666 70.16 ?
O4 H1o5 H2o10 1_656 . 2_656 134.1 ?
O4 H1o5 H2o10 1_656 . 3_666 70.04 ?
O4 H1o5 H1o12 1_656 . 2_756 146.98 ?
O4 H1o5 H1o12 1_656 . 3_766 53.87 ?
O4 H1o5 O5 4_666 . . 106(3) ?
O4 H1o5 O6 4_666 . 1_656 74.4(12) ?
O4 H1o5 O10 4_666 . 2_656 69.2(11) ?
O4 H1o5 O10 4_666 . 3_666 118(3) ?
O4 H1o5 O12 4_666 . 2_756 53.01(17) ?
O4 H1o5 O12 4_666 . 3_766 152(3) ?
O4 H1o5 H2o5 4_666 . . 124(2) ?
O4 H1o5 H1o10 4_666 . 2_656 70.16 ?
O4 H1o5 H1o10 4_666 . 3_666 105.33 ?
O4 H1o5 H2o10 4_666 . 2_656 70.04 ?
O4 H1o5 H2o10 4_666 . 3_666 134.1 ?
O4 H1o5 H1o12 4_666 . 2_756 53.87 ?
O4 H1o5 H1o12 4_666 . 3_766 146.98 ?
O5 H1o5 O6 . . 1_656 50(4) ?
O5 H1o5 O10 . . 2_656 136(4) ?
O5 H1o5 O10 . . 3_666 136(4) ?
O5 H1o5 O12 . . 2_756 89.0(19) ?
O5 H1o5 O12 . . 3_766 89.0(19) ?
O5 H1o5 H2o5 . . . 35(5) ?
O5 H1o5 H1o10 . . 2_656 148.7 ?
O5 H1o5 H1o10 . . 3_666 148.7 ?
O5 H1o5 H2o10 . . 2_656 119.97 ?
O5 H1o5 H2o10 . . 3_666 119.97 ?
O5 H1o5 H1o12 . . 2_756 101.1 ?
O5 H1o5 H1o12 . . 3_766 101.1 ?
O6 H1o5 O10 1_656 . 2_656 142.9(13) ?
O6 H1o5 O10 1_656 . 3_666 142.9(13) ?
O6 H1o5 O12 1_656 . 2_756 99.7(10) ?
O6 H1o5 O12 1_656 . 3_766 99.7(10) ?
O6 H1o5 H2o5 1_656 . . 85(4) ?
O6 H1o5 H1o10 1_656 . 2_656 143.95 ?
O6 H1o5 H1o10 1_656 . 3_666 143.95 ?
O6 H1o5 H2o10 1_656 . 2_656 137.28 ?
O6 H1o5 H2o10 1_656 . 3_666 137.28 ?
O6 H1o5 H1o12 1_656 . 2_756 110.92 ?
O6 H1o5 H1o12 1_656 . 3_766 110.92 ?
O10 H1o5 O10 2_656 . 3_666 65.4(13) ?
O10 H1o5 O12 2_656 . 2_756 52.1(4) ?
O10 H1o5 O12 2_656 . 3_766 115.7(15) ?
O10 H1o5 H2o5 2_656 . . 109(4) ?
O10 H1o5 H1o10 2_656 . 2_656 12.79 ?
O10 H1o5 H1o10 2_656 . 3_666 56.69 ?
O10 H1o5 H2o10 2_656 . 2_656 15.98 ?
O10 H1o5 H2o10 2_656 . 3_666 76.73 ?
O10 H1o5 H1o12 2_656 . 2_756 39.15 ?
O10 H1o5 H1o12 2_656 . 3_766 103.41 ?
O10 H1o5 O12 3_666 . 2_756 115.7(15) ?
O10 H1o5 O12 3_666 . 3_766 52.1(4) ?
O10 H1o5 H2o5 3_666 . . 109(4) ?
O10 H1o5 H1o10 3_666 . 2_656 56.69 ?
O10 H1o5 H1o10 3_666 . 3_666 12.79 ?
O10 H1o5 H2o10 3_666 . 2_656 76.73 ?
O10 H1o5 H2o10 3_666 . 3_666 15.98 ?
O10 H1o5 H1o12 3_666 . 2_756 103.41 ?
O10 H1o5 H1o12 3_666 . 3_766 39.15 ?
O12 H1o5 O12 2_756 . 3_766 153(2) ?
O12 H1o5 H2o5 2_756 . . 81.3(15) ?
O12 H1o5 H1o10 2_756 . 2_656 63.41 ?
O12 H1o5 H1o10 2_756 . 3_666 108.6 ?
O12 H1o5 H2o10 2_756 . 2_656 39.05 ?
O12 H1o5 H2o10 2_756 . 3_666 122.7 ?
O12 H1o5 H1o12 2_756 . 2_756 12.92 ?
O12 H1o5 H1o12 2_756 . 3_766 146.94 ?
O12 H1o5 H2o5 3_766 . . 81.3(15) ?
O12 H1o5 H1o10 3_766 . 2_656 108.6 ?
O12 H1o5 H1o10 3_766 . 3_666 63.41 ?
O12 H1o5 H2o10 3_766 . 2_656 122.7 ?
O12 H1o5 H2o10 3_766 . 3_666 39.05 ?
O12 H1o5 H1o12 3_766 . 2_756 146.94 ?
O12 H1o5 H1o12 3_766 . 3_766 12.92 ?
H2o5 H1o5 H1o10 . . 2_656 120.06 ?
H2o5 H1o5 H1o10 . . 3_666 120.06 ?
H2o5 H1o5 H2o10 . . 2_656 95.44 ?
H2o5 H1o5 H2o10 . . 3_666 95.44 ?
H2o5 H1o5 H1o12 . . 2_756 88.89 ?
H2o5 H1o5 H1o12 . . 3_766 88.89 ?
H1o10 H1o5 H1o10 2_656 . 3_666 46.46 ?
H1o10 H1o5 H2o10 2_656 . 2_656 28.76 ?
H1o10 H1o5 H2o10 2_656 . 3_666 69.99 ?
H1o10 H1o5 H1o12 2_656 . 2_756 50.55 ?
H1o10 H1o5 H1o12 2_656 . 3_766 95.76 ?
H1o10 H1o5 H2o10 3_666 . 2_656 69.99 ?
H1o10 H1o5 H2o10 3_666 . 3_666 28.76 ?
H1o10 H1o5 H1o12 3_666 . 2_756 95.76 ?
H1o10 H1o5 H1o12 3_666 . 3_766 50.55 ?
H2o10 H1o5 H2o10 2_656 . 3_666 85.31 ?
H2o10 H1o5 H1o12 2_656 . 2_756 26.79 ?
H2o10 H1o5 H1o12 2_656 . 3_766 111.81 ?
H2o10 H1o5 H1o12 3_666 . 2_756 111.81 ?
H2o10 H1o5 H1o12 3_666 . 3_766 26.79 ?
H1o12 H1o5 H1o12 2_756 . 3_766 137.76 ?
Pb H2o5 Pb 2_756 . 3_766 111(2) ?
Pb H2o5 O1 2_756 . . 107.2(11) ?
Pb H2o5 O3 2_756 . . 124.4(10) ?
Pb H2o5 O5 2_756 . . 69(2) ?
Pb H2o5 O7 2_756 . 1_655 118(3) ?
Pb H2o5 O7 2_756 . 4_665 51.5(8) ?
Pb H2o5 H1o5 2_756 . . 87.1(16) ?
Pb H2o5 H1o10 2_756 . 2_656 92.26 ?
Pb H2o5 H1o10 2_756 . 3_666 121.04 ?
Pb H2o5 H2o10 2_756 . 2_656 81.06 ?
Pb H2o5 H2o10 2_756 . 3_666 145.83 ?
Pb H2o5 H1o12 2_756 . 2_756 56.96 ?
Pb H2o5 H1o12 2_756 . 3_766 151.95 ?
Pb H2o5 O1 3_766 . . 107.2(11) ?
Pb H2o5 O3 3_766 . . 124.4(10) ?
Pb H2o5 O5 3_766 . . 69(2) ?
Pb H2o5 O7 3_766 . 1_655 51.5(8) ?
Pb H2o5 O7 3_766 . 4_665 118(3) ?
Pb H2o5 H1o5 3_766 . . 87.1(16) ?
Pb H2o5 H1o10 3_766 . 2_656 121.04 ?
Pb H2o5 H1o10 3_766 . 3_666 92.26 ?
Pb H2o5 H2o10 3_766 . 2_656 145.83 ?
Pb H2o5 H2o10 3_766 . 3_666 81.06 ?
Pb H2o5 H1o12 3_766 . 2_756 151.95 ?
Pb H2o5 H1o12 3_766 . 3_766 56.96 ?
O1 H2o5 O3 . . . 57.6(4) ?
O1 H2o5 O5 . . . 171(7) ?
O1 H2o5 O7 . . 1_655 56.0(5) ?
O1 H2o5 O7 . . 4_665 56.0(5) ?
O1 H2o5 H1o5 . . . 154(5) ?
O1 H2o5 H1o10 . . 2_656 116.34 ?
O1 H2o5 H1o10 . . 3_666 116.34 ?
O1 H2o5 H2o10 . . 2_656 98.59 ?
O1 H2o5 H2o10 . . 3_666 98.59 ?
O1 H2o5 H1o12 . . 2_756 100.78 ?
O1 H2o5 H1o12 . . 3_766 100.78 ?
O3 H2o5 O5 . . . 131(7) ?
O3 H2o5 O7 . . 1_655 96.8(5) ?
O3 H2o5 O7 . . 4_665 96.8(5) ?
O3 H2o5 H1o5 . . . 96(5) ?
O3 H2o5 H1o10 . . 2_656 61.37 ?
O3 H2o5 H1o10 . . 3_666 61.37 ?
O3 H2o5 H2o10 . . 2_656 54.08 ?
O3 H2o5 H2o10 . . 3_666 54.08 ?
O3 H2o5 H1o12 . . 2_756 72.99 ?
O3 H2o5 H1o12 . . 3_766 72.99 ?
O5 H2o5 O7 . . 1_655 118(4) ?
O5 H2o5 O7 . . 4_665 118(4) ?
O5 H2o5 H1o5 . . . 35(4) ?
O5 H2o5 H1o10 . . 2_656 72.05 ?
O5 H2o5 H1o10 . . 3_666 72.05 ?
O5 H2o5 H2o10 . . 2_656 88.48 ?
O5 H2o5 H2o10 . . 3_666 88.48 ?
O5 H2o5 H1o12 . . 2_756 83.49 ?
O5 H2o5 H1o12 . . 3_766 83.49 ?
O7 H2o5 O7 1_655 . 4_665 83.4(18) ?
O7 H2o5 H1o5 1_655 . . 136.1(9) ?
O7 H2o5 H1o10 1_655 . 2_656 149.31 ?
O7 H2o5 H1o10 1_655 . 3_666 118.41 ?
O7 H2o5 H2o10 1_655 . 2_656 150.53 ?
O7 H2o5 H2o10 1_655 . 3_666 94.46 ?
O7 H2o5 H1o12 1_655 . 2_756 155.58 ?
O7 H2o5 H1o12 1_655 . 3_766 76.03 ?
O7 H2o5 H1o5 4_665 . . 136.1(9) ?
O7 H2o5 H1o10 4_665 . 2_656 118.41 ?
O7 H2o5 H1o10 4_665 . 3_666 149.31 ?
O7 H2o5 H2o10 4_665 . 2_656 94.46 ?
O7 H2o5 H2o10 4_665 . 3_666 150.53 ?
O7 H2o5 H1o12 4_665 . 2_756 76.03 ?
O7 H2o5 H1o12 4_665 . 3_766 155.58 ?
H1o5 H2o5 H1o10 . . 2_656 39.3 ?
H1o5 H2o5 H1o10 . . 3_666 39.3 ?
H1o5 H2o5 H2o10 . . 2_656 61.06 ?
H1o5 H2o5 H2o10 . . 3_666 61.06 ?
H1o5 H2o5 H1o12 . . 2_756 68.05 ?
H1o5 H2o5 H1o12 . . 3_766 68.05 ?
H1o10 H2o5 H1o10 2_656 . 3_666 33.55 ?
H1o10 H2o5 H2o10 2_656 . 2_656 24.79 ?
H1o10 H2o5 H2o10 2_656 . 3_666 55.67 ?
H1o10 H2o5 H1o12 2_656 . 2_756 43.35 ?
H1o10 H2o5 H1o12 2_656 . 3_766 76.84 ?
H1o10 H2o5 H2o10 3_666 . 2_656 55.67 ?
H1o10 H2o5 H2o10 3_666 . 3_666 24.79 ?
H1o10 H2o5 H1o12 3_666 . 2_756 76.84 ?
H1o10 H2o5 H1o12 3_666 . 3_766 43.35 ?
H2o10 H2o5 H2o10 2_656 . 3_666 73.12 ?
H2o10 H2o5 H1o12 2_656 . 2_756 24.45 ?
H2o10 H2o5 H1o12 2_656 . 3_766 96.93 ?
H2o10 H2o5 H1o12 3_666 . 2_756 96.93 ?
H2o10 H2o5 H1o12 3_666 . 3_766 24.45 ?
H1o12 H2o5 H1o12 2_756 . 3_766 119.86 ?
Pb H1o10 O1 . . 2_645 109.31 ?
Pb H1o10 O3 . . 2_646 118.1 ?
Pb H1o10 O4 . . 3_565 118.45 ?
Pb H1o10 O5 . . 2_646 166.07 ?
Pb H1o10 O6 . . 2_645 66.41 ?
Pb H1o10 O10 . . . 47.02 ?
Pb H1o10 O10 . . 4_555 112.48 ?
Pb H1o10 O11 . . 3_665 75.15 ?
Pb H1o10 O12 . . 1_455 98.64 ?
Pb H1o10 H1o5 . . 2_646 173.64 ?
Pb H1o10 H2o5 . . 2_646 154.88 ?
Pb H1o10 H1o10 . . 4_555 118.98 ?
Pb H1o10 H2o10 . . . 77.02 ?
Pb H1o10 H2o10 . . 4_555 121.33 ?
Pb H1o10 H1o12 . . 1_455 92.74 ?
O1 H1o10 O3 2_645 . 2_646 130.44 ?
O1 H1o10 O4 2_645 . 3_565 54.8 ?
O1 H1o10 O5 2_645 . 2_646 80.84 ?
O1 H1o10 O6 2_645 . 2_645 55.87 ?
O1 H1o10 O10 2_645 . . 139.71 ?
O1 H1o10 O10 2_645 . 4_555 84.28 ?
O1 H1o10 O11 2_645 . 3_665 43.32 ?
O1 H1o10 O12 2_645 . 1_455 109.5 ?
O1 H1o10 H1o5 2_645 . 2_646 74.33 ?
O1 H1o10 H2o5 2_645 . 2_646 94.95 ?
O1 H1o10 H1o10 2_645 . 4_555 73.97 ?
O1 H1o10 H2o10 2_645 . . 142.2 ?
O1 H1o10 H2o10 2_645 . 4_555 90.47 ?
O1 H1o10 H1o12 2_645 . 1_455 112.92 ?
O3 H1o10 O4 2_646 . 3_565 109.06 ?
O3 H1o10 O5 2_646 . 2_646 55.61 ?
O3 H1o10 O6 2_646 . 2_645 133.64 ?
O3 H1o10 O10 2_646 . . 86.58 ?
O3 H1o10 O10 2_646 . 4_555 65.52 ?
O3 H1o10 O11 2_646 . 3_665 162.62 ?
O3 H1o10 O12 2_646 . 1_455 77.76 ?
O3 H1o10 H1o5 2_646 . 2_646 59.99 ?
O3 H1o10 H2o5 2_646 . 2_646 41.54 ?
O3 H1o10 H1o10 2_646 . 4_555 71.31 ?
O3 H1o10 H2o10 2_646 . . 66.33 ?
O3 H1o10 H2o10 2_646 . 4_555 53.35 ?
O3 H1o10 H1o12 2_646 . 1_455 79.43 ?
O4 H1o10 O5 3_565 . 2_646 59.03 ?
O4 H1o10 O6 3_565 . 2_645 106.27 ?
O4 H1o10 O10 3_565 . . 103.24 ?
O4 H1o10 O10 3_565 . 4_555 122.1 ?
O4 H1o10 O11 3_565 . 3_665 53.57 ?
O4 H1o10 O12 3_565 . 1_455 54.88 ?
O4 H1o10 H1o5 3_565 . 2_646 58.96 ?
O4 H1o10 H2o5 3_565 . 2_646 70.28 ?
O4 H1o10 H1o10 3_565 . 4_555 111.84 ?
O4 H1o10 H2o10 3_565 . . 88.82 ?
O4 H1o10 H2o10 3_565 . 4_555 117.97 ?
O4 H1o10 H1o12 3_565 . 1_455 58.89 ?
O5 H1o10 O6 2_646 . 2_645 127.37 ?
O5 H1o10 O10 2_646 . . 119.11 ?
O5 H1o10 O10 2_646 . 4_555 77.3 ?
O5 H1o10 O11 2_646 . 3_665 108.78 ?
O5 H1o10 O12 2_646 . 1_455 68.42 ?
O5 H1o10 H1o5 2_646 . 2_646 7.79 ?
O5 H1o10 H2o5 2_646 . 2_646 14.46 ?
O5 H1o10 H1o10 2_646 . 4_555 72.37 ?
O5 H1o10 H2o10 2_646 . . 89.12 ?
O5 H1o10 H2o10 2_646 . 4_555 66.63 ?
O5 H1o10 H1o12 2_646 . 1_455 74.19 ?
O6 H1o10 O10 2_645 . . 113.4 ?
O6 H1o10 O10 2_645 . 4_555 70.61 ?
O6 H1o10 O11 2_645 . 3_665 60.4 ?
O6 H1o10 O12 2_645 . 1_455 148.46 ?
O6 H1o10 H1o5 2_645 . 2_646 119.57 ?
O6 H1o10 H2o5 2_645 . 2_646 136.52 ?
O6 H1o10 H1o10 2_645 . 4_555 68.23 ?
O6 H1o10 H2o10 2_645 . . 143.37 ?
O6 H1o10 H2o10 2_645 . 4_555 83.81 ?
O6 H1o10 H1o12 2_645 . 1_455 145.96 ?
O10 H1o10 O10 . . 4_555 131.97 ?
O10 H1o10 O11 . . 3_665 96.51 ?
O10 H1o10 O12 . . 1_455 57.12 ?
O10 H1o10 H1o5 . . 2_646 126.88 ?
O10 H1o10 H2o5 . . 2_646 109.37 ?
O10 H1o10 H1o10 . . 4_555 142.95 ?
O10 H1o10 H2o10 . . . 30 ?
O10 H1o10 H2o10 . . 4_555 128.92 ?
O10 H1o10 H1o12 . . 1_455 51.24 ?
O10 H1o10 O11 4_555 . 3_665 121.92 ?
O10 H1o10 O12 4_555 . 1_455 139.77 ?
O10 H1o10 H1o5 4_555 . 2_646 72.72 ?
O10 H1o10 H2o5 4_555 . 2_646 75.45 ?
O10 H1o10 H1o10 4_555 . 4_555 10.98 ?
O10 H1o10 H2o10 4_555 . . 129 ?
O10 H1o10 H2o10 4_555 . 4_555 13.29 ?
O10 H1o10 H1o12 4_555 . 1_455 143.36 ?
O11 H1o10 O12 3_665 . 1_455 89.52 ?
O11 H1o10 H1o5 3_665 . 2_646 105.53 ?
O11 H1o10 H2o5 3_665 . 2_646 122.21 ?
O11 H1o10 H1o10 3_665 . 4_555 113.54 ?
O11 H1o10 H2o10 3_665 . . 109.03 ?
O11 H1o10 H2o10 3_665 . 4_555 131.59 ?
O11 H1o10 H1o12 3_665 . 1_455 89.15 ?
O12 H1o10 H1o5 1_455 . 2_646 75.1 ?
O12 H1o10 H2o5 1_455 . 2_646 66.05 ?
O12 H1o10 H1o10 1_455 . 4_555 139.27 ?
O12 H1o10 H2o10 1_455 . . 34.33 ?
O12 H1o10 H2o10 1_455 . 4_555 126.5 ?
O12 H1o10 H1o12 1_455 . 1_455 6.02 ?
H1o5 H1o10 H2o5 2_646 . 2_646 20.65 ?
H1o5 H1o10 H1o10 2_646 . 4_555 66.77 ?
H1o5 H1o10 H2o10 2_646 . . 96.9 ?
H1o5 H1o10 H2o10 2_646 . 4_555 63.12 ?
H1o5 H1o10 H1o12 2_646 . 1_455 80.97 ?
H2o5 H1o10 H1o10 2_646 . 4_555 73.23 ?
H2o5 H1o10 H2o10 2_646 . . 79.8 ?
H2o5 H1o10 H2o10 2_646 . 4_555 63.08 ?
H2o5 H1o10 H1o12 2_646 . 1_455 71.17 ?
H1o10 H1o10 H2o10 4_555 . . 137.05 ?
H1o10 H1o10 H2o10 4_555 . 4_555 18.27 ?
H1o10 H1o10 H1o12 4_555 . 1_455 144.16 ?
H2o10 H1o10 H2o10 . . 4_555 118.78 ?
H2o10 H1o10 H1o12 . . 1_455 29.93 ?
H2o10 H1o10 H1o12 4_555 . 1_455 130.09 ?
Pb H2o10 O3 . . 2_646 126.23 ?
Pb H2o10 O4 . . 3_565 109.91 ?
Pb H2o10 O5 . . 2_646 143.27 ?
Pb H2o10 O7 . . 3_666 44.5 ?
Pb H2o10 O8 . . 3_666 97 ?
Pb H2o10 O9 . . . 43.65 ?
Pb H2o10 O10 . . . 47.02 ?
Pb H2o10 O12 . . 1_455 128.16 ?
Pb H2o10 H1o5 . . 2_646 131.32 ?
Pb H2o10 H2o5 . . 2_646 150.78 ?
Pb H2o10 H1o10 . . . 77.02 ?
Pb H2o10 H1o10 . . 4_555 89.54 ?
Pb H2o10 H1o12 . . 1_455 122.21 ?
Pb H2o10 H2o12 . . 1_455 118.26 ?
O3 H2o10 O4 2_646 . 3_565 107.05 ?
O3 H2o10 O5 2_646 . 2_646 53.75 ?
O3 H2o10 O7 2_646 . 3_666 88.38 ?
O3 H2o10 O8 2_646 . 3_666 62.25 ?
O3 H2o10 O9 2_646 . . 135.18 ?
O3 H2o10 O10 2_646 . . 103.77 ?
O3 H2o10 O12 2_646 . 1_455 103.84 ?
O3 H2o10 H1o5 2_646 . 2_646 57.4 ?
O3 H2o10 H2o5 2_646 . 2_646 41.72 ?
O3 H2o10 H1o10 2_646 . . 85.02 ?
O3 H2o10 H1o10 2_646 . 4_555 60.77 ?
O3 H2o10 H1o12 2_646 . 1_455 110.69 ?
O3 H2o10 H2o12 2_646 . 1_455 109.05 ?
O4 H2o10 O5 3_565 . 2_646 53.34 ?
O4 H2o10 O7 3_565 . 3_666 152.54 ?
O4 H2o10 O8 3_565 . 3_666 150.91 ?
O4 H2o10 O9 3_565 . . 117.18 ?
O4 H2o10 O10 3_565 . . 81.75 ?
O4 H2o10 O12 3_565 . 1_455 60.03 ?
O4 H2o10 H1o5 3_565 . 2_646 50.86 ?
O4 H2o10 H2o5 3_565 . 2_646 66.16 ?
O4 H2o10 H1o10 3_565 . . 64.92 ?
O4 H2o10 H1o10 3_565 . 4_555 79.22 ?
O4 H2o10 H1o12 3_565 . 1_455 55.45 ?
O4 H2o10 H2o12 3_565 . 1_455 72.88 ?
O5 H2o10 O7 2_646 . 3_666 137.43 ?
O5 H2o10 O8 2_646 . 3_666 109.41 ?
O5 H2o10 O9 2_646 . . 167.46 ?
O5 H2o10 O10 2_646 . . 96.27 ?
O5 H2o10 O12 2_646 . 1_455 75.66 ?
O5 H2o10 H1o5 2_646 . 2_646 11.95 ?
O5 H2o10 H2o5 2_646 . 2_646 13.9 ?
O5 H2o10 H1o10 2_646 . . 66.28 ?
O5 H2o10 H1o10 2_646 . 4_555 57.2 ?
O5 H2o10 H1o12 2_646 . 1_455 78.05 ?
O5 H2o10 H2o12 2_646 . 1_455 89.8 ?
O7 H2o10 O8 3_666 . 3_666 56.49 ?
O7 H2o10 O9 3_666 . . 54.97 ?
O7 H2o10 O10 3_666 . . 72.41 ?
O7 H2o10 O12 3_666 . 1_455 139.24 ?
O7 H2o10 H1o5 3_666 . 2_646 132.64 ?
O7 H2o10 H2o5 3_666 . 2_646 129.13 ?
O7 H2o10 H1o10 3_666 . . 94.88 ?
O7 H2o10 H1o10 3_666 . 4_555 89.39 ?
O7 H2o10 H1o12 3_666 . 1_455 140.32 ?
O7 H2o10 H2o12 3_666 . 1_455 124.19 ?
O8 H2o10 O9 3_666 . . 75.17 ?
O8 H2o10 O10 3_666 . . 126.19 ?
O8 H2o10 O12 3_666 . 1_455 94.83 ?
O8 H2o10 H1o5 3_666 . 2_646 117.32 ?
O8 H2o10 H2o5 3_666 . 2_646 95.52 ?
O8 H2o10 H1o10 3_666 . . 134.69 ?
O8 H2o10 H1o10 3_666 . 4_555 112.75 ?
O8 H2o10 H1o12 3_666 . 1_455 101.03 ?
O8 H2o10 H2o12 3_666 . 1_455 84.95 ?
O9 H2o10 O10 . . . 89.79 ?
O9 H2o10 O12 . . 1_455 92.49 ?
O9 H2o10 H1o5 . . 2_646 167.3 ?
O9 H2o10 H2o5 . . 2_646 165.23 ?
O9 H2o10 H1o10 . . . 119.31 ?
O9 H2o10 H1o10 . . 4_555 132.76 ?
O9 H2o10 H1o12 . . 1_455 89.68 ?
O9 H2o10 H2o12 . . 1_455 78.85 ?
O10 H2o10 O12 . . 1_455 137.89 ?
O10 H2o10 H1o5 . . 2_646 84.33 ?
O10 H2o10 H2o5 . . 2_646 104.99 ?
O10 H2o10 H1o10 . . . 30 ?
O10 H2o10 H1o10 . . 4_555 46.67 ?
O10 H2o10 H1o12 . . 1_455 130.77 ?
O10 H2o10 H2o12 . . 1_455 143.04 ?
O12 H2o10 H1o5 1_455 . 2_646 84.46 ?
O12 H2o10 H2o5 1_455 . 2_646 76.66 ?
O12 H2o10 H1o10 1_455 . . 124.46 ?
O12 H2o10 H1o10 1_455 . 4_555 130.66 ?
O12 H2o10 H1o12 1_455 . 1_455 7.69 ?
O12 H2o10 H2o12 1_455 . 1_455 15.17 ?
H1o5 H2o10 H2o5 2_646 . 2_646 23.5 ?
H1o5 H2o10 H1o10 2_646 . . 54.34 ?
H1o5 H2o10 H1o10 2_646 . 4_555 46.88 ?
H1o5 H2o10 H1o12 2_646 . 1_455 85.71 ?
H1o5 H2o10 H2o12 2_646 . 1_455 99.22 ?
H2o5 H2o10 H1o10 2_646 . . 75.4 ?
H2o5 H2o10 H1o10 2_646 . 4_555 61.25 ?
H2o5 H2o10 H1o12 2_646 . 1_455 80.76 ?
H2o5 H2o10 H2o12 2_646 . 1_455 89.05 ?
H1o10 H2o10 H1o10 . . 4_555 24.68 ?
H1o10 H2o10 H1o12 . . 1_455 120.37 ?
H1o10 H2o10 H2o12 . . 1_455 137.79 ?
H1o10 H2o10 H1o12 4_555 . 1_455 130.26 ?
H1o10 H2o10 H2o12 4_555 . 1_455 145.76 ?
H1o12 H2o10 H2o12 1_455 . 1_455 17.49 ?
Pb H1o12 O3 . . 2_746 89.83 ?
Pb H1o12 O4 . . 3_665 58.57 ?
Pb H1o12 O5 . . 2_746 50.93 ?
Pb H1o12 O10 . . 1_655 126.74 ?
Pb H1o12 O12 . . . 46.66 ?
Pb H1o12 O12 . . 3_765 91.02 ?
Pb H1o12 O13 . . 3_766 104.57 ?
Pb H1o12 H1o5 . . 2_746 62.17 ?
Pb H1o12 H2o5 . . 2_746 54.86 ?
Pb H1o12 H1o10 . . 1_655 108.95 ?
Pb H1o12 H2o10 . . 1_655 128.64 ?
Pb H1o12 H1o12 . . 3_765 81.26 ?
Pb H1o12 H2o12 . . . 76.66 ?
Pb H1o12 H2o12 . . 3_765 86.31 ?
O3 H1o12 O4 2_746 . 3_665 100.77 ?
O3 H1o12 O5 2_746 . 2_746 48.55 ?
O3 H1o12 O10 2_746 . 1_655 59.45 ?
O3 H1o12 O12 2_746 . . 113.94 ?
O3 H1o12 O12 2_746 . 3_765 169.22 ?
O3 H1o12 O13 2_746 . 3_766 87.57 ?
O3 H1o12 H1o5 2_746 . 2_746 47.94 ?
O3 H1o12 H2o5 2_746 . 2_746 37.72 ?
O3 H1o12 H1o10 2_746 . 1_655 56.35 ?
O3 H1o12 H2o10 2_746 . 1_655 46.74 ?
O3 H1o12 H1o12 2_746 . 3_765 171.01 ?
O3 H1o12 H2o12 2_746 . . 123.02 ?
O3 H1o12 H2o12 2_746 . 3_765 154.13 ?
O4 H1o12 O5 3_665 . 2_746 57.01 ?
O4 H1o12 O10 3_665 . 1_655 83.91 ?
O4 H1o12 O12 3_665 . . 93.81 ?
O4 H1o12 O12 3_665 . 3_765 70.67 ?
O4 H1o12 O13 3_665 . 3_766 160.73 ?
O4 H1o12 H1o5 3_665 . 2_746 53.19 ?
O4 H1o12 H2o5 3_665 . 2_746 70.77 ?
O4 H1o12 H1o10 3_665 . 1_655 68.7 ?
O4 H1o12 H2o10 3_665 . 1_655 98.41 ?
O4 H1o12 H1o12 3_665 . 3_765 73.55 ?
O4 H1o12 H2o12 3_665 . . 116.57 ?
O4 H1o12 H2o12 3_665 . 3_765 55.8 ?
O5 H1o12 O10 2_746 . 1_655 77.74 ?
O5 H1o12 O12 2_746 . . 94.76 ?
O5 H1o12 O12 2_746 . 3_765 125.68 ?
O5 H1o12 O13 2_746 . 3_766 121.69 ?
O5 H1o12 H1o5 2_746 . 2_746 13.55 ?
O5 H1o12 H2o5 2_746 . 2_746 13.8 ?
O5 H1o12 H1o10 2_746 . 1_655 61.65 ?
O5 H1o12 H2o10 2_746 . 1_655 77.77 ?
O5 H1o12 H1o12 2_746 . 3_765 123.22 ?
O5 H1o12 H2o12 2_746 . . 122.97 ?
O5 H1o12 H2o12 2_746 . 3_765 112.16 ?
O10 H1o12 O12 1_655 . . 172.21 ?
O10 H1o12 O12 1_655 . 3_765 112.04 ?
O10 H1o12 O13 1_655 . 3_766 115.15 ?
O10 H1o12 H1o5 1_655 . 2_746 65.2 ?
O10 H1o12 H2o5 1_655 . 2_746 79.02 ?
O10 H1o12 H1o10 1_655 . 1_655 18.07 ?
O10 H1o12 H2o10 1_655 . 1_655 17.54 ?
O10 H1o12 H1o12 1_655 . 3_765 125.58 ?
O10 H1o12 H2o12 1_655 . . 156.09 ?
O10 H1o12 H2o12 1_655 . 3_765 103.36 ?
O12 H1o12 O12 . . 3_765 73.96 ?
O12 H1o12 O13 . . 3_766 66.92 ?
O12 H1o12 H1o5 . . 2_746 107.51 ?
O12 H1o12 H2o5 . . 2_746 93.19 ?
O12 H1o12 H1o10 . . 1_655 155.56 ?
O12 H1o12 H2o10 . . 1_655 158.81 ?
O12 H1o12 H1o12 . . 3_765 60.36 ?
O12 H1o12 H2o12 . . . 30 ?
O12 H1o12 H2o12 . . 3_765 81.28 ?
O12 H1o12 O13 3_765 . 3_766 102.61 ?
O12 H1o12 H1o5 3_765 . 2_746 123.85 ?
O12 H1o12 H2o5 3_765 . 2_746 138.22 ?
O12 H1o12 H1o10 3_765 . 1_655 113.38 ?
O12 H1o12 H2o10 3_765 . 1_655 126.5 ?
O12 H1o12 H1o12 3_765 . 3_765 13.6 ?
O12 H1o12 H2o12 3_765 . . 67.56 ?
O12 H1o12 H2o12 3_765 . 3_765 15.57 ?
O13 H1o12 H1o5 3_766 . 2_746 130.41 ?
O13 H1o12 H2o5 3_766 . 2_746 108.51 ?
O13 H1o12 H1o10 3_766 . 1_655 129.4 ?
O13 H1o12 H2o10 3_766 . 1_655 99.91 ?
O13 H1o12 H1o12 3_766 . 3_765 95.82 ?
O13 H1o12 H2o12 3_766 . . 45.79 ?
O13 H1o12 H2o12 3_766 . 3_765 118.17 ?
H1o5 H1o12 H2o5 2_746 . 2_746 23.05 ?
H1o5 H1o12 H1o10 2_746 . 1_655 48.49 ?
H1o5 H1o12 H2o10 2_746 . 1_655 67.49 ?
H1o5 H1o12 H1o12 2_746 . 3_765 125.27 ?
H1o5 H1o12 H2o12 2_746 . . 136.34 ?
H1o5 H1o12 H2o12 2_746 . 3_765 108.78 ?
H2o5 H1o12 H1o10 2_746 . 1_655 65.48 ?
H2o5 H1o12 H2o10 2_746 . 1_655 74.79 ?
H2o5 H1o12 H1o12 2_746 . 3_765 133.47 ?
H2o5 H1o12 H2o12 2_746 . . 118.04 ?
H2o5 H1o12 H2o12 2_746 . 3_765 125.53 ?
H1o10 H1o12 H2o10 1_655 . 1_655 29.71 ?
H1o10 H1o12 H1o12 1_655 . 3_765 125.57 ?
H1o10 H1o12 H2o12 1_655 . . 174.12 ?
H1o10 H1o12 H2o12 1_655 . 3_765 100.97 ?
H2o10 H1o12 H1o12 1_655 . 3_765 140 ?
H2o10 H1o12 H2o12 1_655 . . 144.9 ?
H2o10 H1o12 H2o12 1_655 . 3_765 119.9 ?
H1o12 H1o12 H2o12 3_765 . . 56.14 ?
H1o12 H1o12 H2o12 3_765 . 3_765 24.74 ?
H2o12 H1o12 H2o12 . . 3_765 80.88 ?
U1 H2o12 Pb 1_655 . . 141.52 ?
U1 H2o12 As 1_655 . . 71.14 ?
U1 H2o12 As 1_655 . 3_766 66.72 ?
U1 H2o12 P 1_655 . . 71.14 ?
U1 H2o12 P 1_655 . 3_766 66.72 ?
U1 H2o12 O4 1_655 . 1_655 34.05 ?
U1 H2o12 O9 1_655 . . 95.38 ?
U1 H2o12 O10 1_655 . 1_655 126.31 ?
U1 H2o12 O11 1_655 . . 44.27 ?
U1 H2o12 O12 1_655 . . 168.23 ?
U1 H2o12 O12 1_655 . 3_765 97.66 ?
U1 H2o12 O13 1_655 . 3_766 47.11 ?
U1 H2o12 H2o10 1_655 . 1_655 124.28 ?
U1 H2o12 H1o12 1_655 . . 140.49 ?
U1 H2o12 H1o12 1_655 . 3_765 91.67 ?
U1 H2o12 H2o12 1_655 . 3_765 113.55 ?
Pb H2o12 As . . . 70.98 ?
Pb H2o12 As . . 3_766 113.46 ?
Pb H2o12 P . . . 70.98 ?
Pb H2o12 P . . 3_766 113.46 ?
Pb H2o12 O4 . . 1_655 139.96 ?
Pb H2o12 O9 . . . 46.25 ?
Pb H2o12 O10 . . 1_655 90.61 ?
Pb H2o12 O11 . . . 97.25 ?
Pb H2o12 O12 . . . 46.66 ?
Pb H2o12 O12 . . 3_765 95.3 ?
Pb H2o12 O13 . . 3_766 128.14 ?
Pb H2o12 H2o10 . . 1_655 90.54 ?
Pb H2o12 H1o12 . . . 76.66 ?
Pb H2o12 H1o12 . . 3_765 90.5 ?
Pb H2o12 H2o12 . . 3_765 84.1 ?
As H2o12 As . . 3_766 81.24 ?
As H2o12 P . . . 0 ?
As H2o12 P . . 3_766 81.24 ?
As H2o12 O4 . . 1_655 89.9 ?
As H2o12 O9 . . . 28.09 ?
As H2o12 O10 . . 1_655 148.75 ?
As H2o12 O11 . . . 28.62 ?
As H2o12 O12 . . . 114.13 ?
As H2o12 O12 . . 3_765 119.99 ?
As H2o12 O13 . . 3_766 77.42 ?
As H2o12 H2o10 . . 1_655 141.83 ?
As H2o12 H1o12 . . . 140.43 ?
As H2o12 H1o12 . . 3_765 103.27 ?
As H2o12 H2o12 . . 3_765 126.21 ?
As H2o12 P 3_766 . . 81.24 ?
As H2o12 P 3_766 . 3_766 0 ?
As H2o12 O4 3_766 . 1_655 97.14 ?
As H2o12 O9 3_766 . . 103.87 ?
As H2o12 O10 3_766 . 1_655 83.54 ?
As H2o12 O11 3_766 . . 80.31 ?
As H2o12 O12 3_766 . . 103 ?
As H2o12 O12 3_766 . 3_765 149.31 ?
As H2o12 O13 3_766 . 3_766 19.66 ?
As H2o12 H2o10 3_766 . 1_655 75.96 ?
As H2o12 H1o12 3_766 . . 91.56 ?
As H2o12 H1o12 3_766 . 3_765 155.53 ?
As H2o12 H2o12 3_766 . 3_765 152.03 ?
P H2o12 P . . 3_766 81.24 ?
P H2o12 O4 . . 1_655 89.9 ?
P H2o12 O9 . . . 28.09 ?
P H2o12 O10 . . 1_655 148.75 ?
P H2o12 O11 . . . 28.62 ?
P H2o12 O12 . . . 114.13 ?
P H2o12 O12 . . 3_765 119.99 ?
P H2o12 O13 . . 3_766 77.42 ?
P H2o12 H2o10 . . 1_655 141.83 ?
P H2o12 H1o12 . . . 140.43 ?
P H2o12 H1o12 . . 3_765 103.27 ?
P H2o12 H2o12 . . 3_765 126.21 ?
P H2o12 O4 3_766 . 1_655 97.14 ?
P H2o12 O9 3_766 . . 103.87 ?
P H2o12 O10 3_766 . 1_655 83.54 ?
P H2o12 O11 3_766 . . 80.31 ?
P H2o12 O12 3_766 . . 103 ?
P H2o12 O12 3_766 . 3_765 149.31 ?
P H2o12 O13 3_766 . 3_766 19.66 ?
P H2o12 H2o10 3_766 . 1_655 75.96 ?
P H2o12 H1o12 3_766 . . 91.56 ?
P H2o12 H1o12 3_766 . 3_765 155.53 ?
P H2o12 H2o12 3_766 . 3_765 152.03 ?
O4 H2o12 O9 1_655 . . 103.23 ?
O4 H2o12 O10 1_655 . 1_655 119.06 ?
O4 H2o12 O11 1_655 . . 61.91 ?
O4 H2o12 O12 1_655 . . 150.51 ?
O4 H2o12 O12 1_655 . 3_765 63.62 ?
O4 H2o12 O13 1_655 . 3_766 77.89 ?
O4 H2o12 H2o10 1_655 . 1_655 122.76 ?
O4 H2o12 H1o12 1_655 . . 129.66 ?
O4 H2o12 H1o12 1_655 . 3_765 59.21 ?
O4 H2o12 H2o12 1_655 . 3_765 79.52 ?
O9 H2o12 O10 . . 1_655 135.97 ?
O9 H2o12 O11 . . . 51.15 ?
O9 H2o12 O12 . . . 92.68 ?
O9 H2o12 O12 . . 3_765 103.8 ?
O9 H2o12 O13 . . 3_766 104.34 ?
O9 H2o12 H2o10 . . 1_655 133.85 ?
O9 H2o12 H1o12 . . . 122.53 ?
O9 H2o12 H1o12 . . 3_765 88.89 ?
O9 H2o12 H2o12 . . 3_765 103.92 ?
O10 H2o12 O11 1_655 . . 163.77 ?
O10 H2o12 O12 1_655 . . 44.01 ?
O10 H2o12 O12 1_655 . 3_765 85.78 ?
O10 H2o12 O13 1_655 . 3_766 96.33 ?
O10 H2o12 H2o10 1_655 . 1_655 8.32 ?
O10 H2o12 H1o12 1_655 . . 14.18 ?
O10 H2o12 H1o12 1_655 . 3_765 101.88 ?
O10 H2o12 H2o12 1_655 . 3_765 74.32 ?
O11 H2o12 O12 . . . 142.5 ?
O11 H2o12 O12 . . 3_765 107.49 ?
O11 H2o12 O13 . . 3_766 67.66 ?
O11 H2o12 H2o10 . . 1_655 156.19 ?
O11 H2o12 H1o12 . . . 167.06 ?
O11 H2o12 H1o12 . . 3_765 92.27 ?
O11 H2o12 H2o12 . . 3_765 120.49 ?
O12 H2o12 O12 . . 3_765 88.71 ?
O12 H2o12 O13 . . 3_766 122.32 ?
O12 H2o12 H2o10 . . 1_655 44.96 ?
O12 H2o12 H1o12 . . . 30 ?
O12 H2o12 H1o12 . . 3_765 97.07 ?
O12 H2o12 H2o12 . . 3_765 72.57 ?
O12 H2o12 O13 3_765 . 3_766 136.37 ?
O12 H2o12 H2o10 3_765 . 1_655 94.07 ?
O12 H2o12 H1o12 3_765 . . 84.63 ?
O12 H2o12 H1o12 3_765 . 3_765 16.74 ?
O12 H2o12 H2o12 3_765 . 3_765 16.14 ?
O13 H2o12 H2o10 3_766 . 1_655 89.85 ?
O13 H2o12 H1o12 3_766 . . 106.9 ?
O13 H2o12 H1o12 3_766 . 3_765 137.02 ?
O13 H2o12 H2o12 3_766 . 3_765 147.08 ?
H2o10 H2o12 H1o12 1_655 . . 17.61 ?
H2o10 H2o12 H1o12 1_655 . 3_765 110.19 ?
H2o10 H2o12 H2o12 1_655 . 3_765 82.58 ?
H1o12 H2o12 H1o12 . . 3_765 99.12 ?
H1o12 H2o12 H2o12 . . 3_765 70.72 ?
H1o12 H2o12 H2o12 3_765 . 3_765 28.4 ?
loop_
_geom_bond_atom_site_label_1
_geom_bond_atom_site_label_2
_geom_bond_site_symmetry_1
_geom_bond_site_symmetry_2
_geom_bond_distance
_geom_bond_publ_flag
U1 O1 . 1_455 2.245(4) ?
U1 O2 . . 2.242(4) ?
U1 O4 . . 1.808(5) ?
U1 O7 . . 1.811(6) ?
U1 O8 . . 2.387(5) ?
U1 O11 . 1_455 2.366(5) ?
U1 O13 . 3_666 2.362(5) ?
U1 H2o12 . 1_455 3.2237 ?
U2 As . . 3.3996(9) ?
U2 As . 4_565 3.3996(9) ?
U2 P . . 3.3996(9) ?
U2 P . 4_565 3.3996(9) ?
U2 O1 . . 2.238(7) ?
U2 O2 . . 2.228(6) ?
U2 O3 . . 1.796(8) ?
U2 O6 . . 1.799(7) ?
U2 O8 . . 2.611(5) ?
U2 O8 . 4_565 2.611(5) ?
U2 O11 . . 2.638(5) ?
U2 O11 . 4_565 2.638(5) ?
Pb O4 . 3_665 2.835(6) ?
Pb O5 . 2_746 2.809(3) ?
Pb O6 . 2_645 3.169(4) ?
Pb O7 . 3_666 2.455(5) ?
Pb O9 . . 2.447(6) ?
Pb O9 . 3_665 2.664(5) ?
Pb O10 . . 2.670(7) ?
Pb O12 . . 2.585(5) ?
Pb H1o5 . 2_746 3.22(4) ?
Pb H2o5 . 2_746 3.00(4) ?
Pb H1o10 . . 3.1607 ?
Pb H2o10 . . 3.1607 ?
Pb H1o12 . . 3.0784 ?
Pb H2o12 . . 3.0784 ?
As P . . 0 ?
As O8 . . 1.629(6) ?
As O9 . . 1.617(5) ?
As O11 . . 1.640(5) ?
As O13 . . 1.589(5) ?
As H2o12 . . 3.4234 ?
As H2o12 . 3_766 3.4922 ?
P O8 . . 1.629(6) ?
P O9 . . 1.617(5) ?
P O11 . . 1.640(5) ?
P O13 . . 1.589(5) ?
P H2o12 . . 3.4234 ?
P H2o12 . 3_766 3.4922 ?
O1 O2 . 1_655 2.583(9) ?
O1 O3 . . 2.860(12) ?
O1 O4 . 1_655 2.950(8) ?
O1 O4 . 4_665 2.950(8) ?
O1 O6 . . 2.904(8) ?
O1 O7 . 1_655 2.864(7) ?
O1 O7 . 4_665 2.864(7) ?
O1 O11 . . 2.543(6) ?
O1 O11 . 4_565 2.543(6) ?
O1 H2o5 . . 3.345(18) ?
O1 H1o10 . 2_655 3.4246 ?
O1 H1o10 . 3_665 3.4246 ?
O2 O3 . . 2.886(8) ?
O2 O4 . . 2.939(6) ?
O2 O4 . 4_565 2.939(6) ?
O2 O6 . . 2.817(11) ?
O2 O7 . . 2.876(8) ?
O2 O7 . 4_565 2.876(8) ?
O2 O8 . . 2.540(5) ?
O2 O8 . 4_565 2.540(5) ?
O3 O5 . . 2.838(9) ?
O3 O8 . . 3.082(6) ?
O3 O8 . 4_565 3.082(6) ?
O3 O10 . 2_656 3.016(11) ?
O3 O10 . 3_666 3.016(11) ?
O3 O11 . . 3.267(9) ?
O3 O11 . 4_565 3.267(9) ?
O3 H1o5 . . 2.72(6) ?
O3 H2o5 . . 2.23(6) ?
O3 H1o10 . 2_656 2.9512 ?
O3 H1o10 . 3_666 2.9512 ?
O3 H2o10 . 2_656 2.7132 ?
O3 H2o10 . 3_666 2.7132 ?
O3 H1o12 . 2_756 3.4853 ?
O3 H1o12 . 3_766 3.4853 ?
O4 O5 . 1_454 2.977(8) ?
O4 O8 . . 2.896(6) ?
O4 O10 . 3_565 3.197(7) ?
O4 O11 . 1_455 2.914(9) ?
O4 O12 . 1_455 3.311(6) ?
O4 O12 . 3_665 2.847(8) ?
O4 O13 . 3_666 3.024(7) ?
O4 H1o5 . 1_454 2.65(5) ?
O4 H1o10 . 3_565 2.9077 ?
O4 H2o10 . 3_565 3.2097 ?
O4 H1o12 . 3_665 2.6721 ?
O4 H2o12 . 1_455 2.5728 ?
O5 O6 . 1_656 3.003(8) ?
O5 O7 . 1_655 3.055(9) ?
O5 O7 . 4_665 3.055(9) ?
O5 H1o5 . . 0.82(8) ?
O5 H2o5 . . 0.820(16) ?
O5 H1o10 . 2_656 3.1236 ?
O5 H1o10 . 3_666 3.1236 ?
O5 H2o10 . 2_656 3.4114 ?
O5 H2o10 . 3_666 3.4114 ?
O5 H1o12 . 2_756 3.415 ?
O5 H1o12 . 3_766 3.415 ?
O6 O8 . . 3.246(8) ?
O6 O8 . 4_565 3.246(8) ?
O6 O10 . 2_655 2.973(10) ?
O6 O10 . 3_665 2.973(10) ?
O6 O11 . . 3.127(6) ?
O6 O11 . 4_565 3.127(6) ?
O6 H1o5 . 1_454 3.46(5) ?
O6 H1o10 . 2_655 2.5508 ?
O6 H1o10 . 3_665 2.5508 ?
O7 O7 . 4_565 3.432(7) ?
O7 O8 . . 3.082(9) ?
O7 O9 . 3_666 3.097(7) ?
O7 O10 . 3_666 3.164(7) ?
O7 O11 . 1_455 3.026(6) ?
O7 O12 . 3_666 3.351(9) ?
O7 O13 . 3_666 2.861(7) ?
O7 H2o5 . 1_455 2.58(5) ?
O7 H2o10 . 3_666 3.3138 ?
O8 O9 . . 2.686(8) ?
O8 O11 . . 2.446(8) ?
O8 O13 . . 2.647(6) ?
O8 O13 . 3_666 2.991(7) ?
O8 H2o10 . 3_666 3.1955 ?
O9 O9 . 3_665 3.114(8) ?
O9 O10 . . 3.490(9) ?
O9 O11 . . 2.673(7) ?
O9 O12 . . 3.291(8) ?
O9 O13 . . 2.699(7) ?
O9 H2o10 . . 3.3949 ?
O9 H2o12 . . 3.1495 ?
O10 O10 . 4_555 3.201(11) ?
O10 O12 . 1_455 2.876(9) ?
O10 H1o5 . 2_646 2.96(5) ?
O10 H1o10 . . 0.82 ?
O10 H1o10 . 4_555 2.5937 ?
O10 H2o10 . . 0.82 ?
O10 H1o12 . 1_455 2.0611 ?
O10 H2o12 . 1_455 3.4085 ?
O11 O13 . . 2.664(8) ?
O11 O13 . 3_766 3.005(6) ?
O11 H1o10 . 3_665 3.4639 ?
O11 H2o12 . . 3.0388 ?
O12 O12 . 3_765 2.913(9) ?
O12 O13 . 3_766 2.746(8) ?
O12 H1o5 . 2_746 3.498(16) ?
O12 H1o10 . 1_655 3.2372 ?
O12 H2o10 . 1_655 2.2143 ?
O12 H1o12 . . 0.82 ?
O12 H1o12 . 3_765 3.0309 ?
O12 H2o12 . . 0.82 ?
O12 H2o12 . 3_765 2.8137 ?
O13 O13 . 3_766 3.383(7) ?
O13 H1o12 . 3_766 2.9619 ?
O13 H2o12 . 3_766 2.2188 ?
H1o5 H2o5 . . 1.34(10) ?
H1o5 H1o10 . 2_656 2.3981 ?
H1o5 H1o10 . 3_666 2.3981 ?
H1o5 H2o10 . 2_656 2.9302 ?
H1o5 H2o10 . 3_666 2.9302 ?
H1o5 H1o12 . 2_756 3.1629 ?
H1o5 H1o12 . 3_766 3.1629 ?
H2o5 H1o10 . 2_656 3.2774 ?
H2o5 H1o10 . 3_666 3.2774 ?
H2o5 H2o10 . 2_656 3.3332 ?
H2o5 H2o10 . 3_666 3.3332 ?
H2o5 H1o12 . 2_756 3.4094 ?
H2o5 H1o12 . 3_766 3.4094 ?
H1o10 H1o10 . 4_555 1.8918 ?
H1o10 H2o10 . . 1.4203 ?
H1o10 H2o10 . 4_555 3.0869 ?
H1o10 H1o12 . 1_455 2.4728 ?
H2o10 H1o12 . 1_455 1.4298 ?
H2o10 H2o12 . 1_455 2.7175 ?
H1o12 H1o12 . 3_765 3.3514 ?
H1o12 H2o12 . . 1.4203 ?
H1o12 H2o12 . 3_765 2.8187 ?
H2o12 H2o12 . 3_765 2.9484 ?
loop_
_geom_hbond_atom_site_label_D
_geom_hbond_atom_site_label_H
_geom_hbond_atom_site_label_A
_geom_hbond_site_symmetry_D
_geom_hbond_site_symmetry_H
_geom_hbond_site_symmetry_A
_geom_hbond_distance_DH
_geom_hbond_distance_HA
_geom_hbond_distance_DA
_geom_hbond_angle_DHA
_geom_hbond_publ_flag
O5 H1O5 O10 . . . 0.820(16) 2.96(6) 3.78(1) 136(4) ?
O5 H2o5 O3 . . . 0.820(16) 2.23(6) 2.838(9) 131(7) ?
O10 H1o10 O6 . . 2_645 0.82 2.55 2.973(10) 113.40 ?
O10 H2o10 O12 . . 1_455 0.82 2.21 2.876(9) 137.89 ?
O12 H1o12 O10 . . 1_655 0.82 2.06 2.876(9) 172.21 ?
O12 H2o12 O13 . . 3_766 0.82 2.22 2.746(8) 122.32 ?
loop_
_geom_torsion_atom_site_label_1
_geom_torsion_atom_site_label_2
_geom_torsion_atom_site_label_3
_geom_torsion_atom_site_label_4
_geom_torsion_site_symmetry_1
_geom_torsion_site_symmetry_2
_geom_torsion_site_symmetry_3
_geom_torsion_site_symmetry_4
_geom_torsion
_geom_torsion_publ_flag
? ? ? ? ? ? ? ? ? ?
loop_
_refln_index_h
_refln_index_k
_refln_index_l
_refln_F_squared_calc
_refln_F_squared_meas
_refln_F_squared_sigma
_refln_observed_status
0 0 1 47325.40 43039.80 1305.62 o
0 0 -1 47325.40 45474.60 1293.25 o
0 0 1 47325.40 44655.40 1420.05 o
0 0 -2 186704.00 180528.00 3920.58 o
0 0 2 186704.00 171055.00 4926.55 o
0 0 -2 186704.00 180204.00 3469.89 o
0 0 -3 35453.60 36291.90 1704.35 o
0 0 3 35453.60 35244.80 1836.37 o
0 0 -3 35453.60 34452.00 1382.43 o
0 0 3 35453.60 35194.40 2048.55 o
0 0 -4 75767.20 80587.50 1836.13 o
0 0 -4 75767.20 79541.60 2618.06 o
0 0 4 75767.20 79127.80 3231.57 o
0 0 4 75767.20 81954.80 2683.85 o
0 0 -5 132044.00 141006.00 3402.23 o
0 0 5 132044.00 144645.00 3469.71 o
0 0 5 132044.00 146372.00 4534.00 o
0 0 5 132044.00 139079.00 4480.53 o
0 0 -6 94127.70 105418.00 3182.60 o
0 0 6 94127.70 112264.00 3007.81 o
0 0 -6 94127.70 104296.00 2498.18 o
0 0 6 94127.70 109000.00 3835.67 o
0 0 6 94127.70 110126.00 4441.66 o
0 0 7 2216.12 9472.98 1687.03 o
0 0 -7 2216.12 2215.32 730.45 o
0 0 7 2216.12 5881.93 1460.67 o
0 0 -7 2216.12 8866.08 1453.18 o
0 0 -8 13070.20 22117.20 1922.99 o
0 0 8 13070.20 21531.90 2127.60 o
0 0 9 27833.80 44934.90 2851.43 o
0 0 -9 27833.80 44133.70 2602.30 o
0 -1 -1 36123.60 43229.30 527.36 o
0 -1 -1 36123.60 33881.10 988.34 o
0 1 -1 36123.70 37364.20 713.63 o
0 -1 1 36123.70 35950.10 905.49 o
0 1 1 36123.60 33632.80 1018.23 o
0 -1 1 36123.70 39284.40 1028.49 o
0 -1 2 250518.00 224901.00 6829.33 o
0 1 2 250518.00 249572.00 2994.05 o
0 -1 2 250518.00 239684.00 4971.61 o
0 -1 -2 250518.00 245787.00 5247.10 o
0 1 -2 250518.00 233994.00 5440.58 o
0 1 -2 250518.00 245754.00 4403.53 o
0 -1 -2 250518.00 226712.00 5957.91 o
0 -1 3 46016.00 38886.20 2454.93 o
0 1 -3 46016.00 42308.20 2223.13 o
0 -1 3 46016.00 41355.80 2081.31 o
0 1 3 46016.10 46731.60 1528.25 o
0 -1 -3 46016.10 43709.10 2117.88 o
0 1 -3 46016.00 46121.10 1560.20 o
0 1 -3 46016.00 39992.10 2053.84 o
0 -1 -3 46016.10 39304.80 1896.53 o
0 -1 -4 176628.00 183347.00 3724.79 o
0 -1 4 176628.00 170024.00 4856.83 o
0 1 -4 176628.00 177442.00 3392.17 o
0 1 4 176628.00 186954.00 3852.22 o
0 -1 4 176628.00 166779.00 5731.64 o
0 -1 -4 176628.00 165693.00 4600.24 o
0 1 -4 176628.00 172102.00 4471.41 o
0 -1 5 1938.06 1227.00 200.02 o
0 1 5 1938.06 2076.19 742.73 <
0 -1 -5 1938.06 1981.43 732.56 <
0 -1 5 1938.06 2331.66 855.16 <
0 -1 5 1938.06 1775.13 805.70 <
0 1 -5 1938.06 1881.88 640.89 <
0 -1 5 1938.06 2057.00 676.82 o
0 1 5 1938.06 2084.58 811.12 <
0 1 -6 526.97 2088.18 595.93 o
0 1 -6 526.97 3379.95 1020.12 o
0 1 6 526.98 4016.84 1175.66 o
0 1 6 526.98 2007.82 979.24 <
0 -1 -6 526.98 570.92 366.86 <
0 1 6 526.98 3012.93 1102.50 <
0 -1 6 526.97 1549.64 978.09 <
0 -1 6 526.97 1216.21 805.18 <
0 -1 -6 526.98 2597.93 977.47 <
0 -1 6 526.97 2179.34 762.80 <
0 -1 -7 41332.90 49817.70 2610.24 o
0 -1 7 41333.00 50004.80 2739.29 o
0 -1 7 41333.00 48383.20 3286.46 o
0 1 -7 41333.00 49823.70 2042.50 o
0 1 7 41332.90 48317.20 3142.32 o
0 -1 -7 41332.90 44446.70 2304.07 o
0 1 7 41332.90 49312.80 2821.42 o
0 1 -7 41333.00 48737.00 2566.47 o
0 1 7 41332.90 41800.80 1475.10 o
0 1 8 17226.70 24380.50 2224.28 o
0 -1 8 17226.70 21318.40 2106.26 o
0 -1 -8 17226.70 22132.80 2020.02 o
0 1 -8 17226.70 24009.90 1984.29 o
0 1 9 19868.80 33480.50 2587.44 o
0 -1 -9 19868.80 30388.40 2427.59 o
0 -1 9 19868.80 32735.60 2622.65 o
0 1 -9 19868.80 30784.20 2365.93 o
0 -2 0 8220.75 8245.98 362.05 o
0 2 0 8220.75 8166.82 366.33 o
0 -2 0 8220.75 7372.81 462.04 o
0 -2 -1 37875.70 36960.00 760.69 o
0 -2 1 37875.70 41234.70 1141.21 o
0 2 -1 37875.70 39456.00 767.43 o
0 -2 -1 37875.70 38825.10 1254.88 o
0 2 1 37875.70 35904.50 1037.92 o
0 -2 1 37875.70 35791.80 1041.18 o
0 2 1 37875.70 39318.00 425.04 o
0 -2 -1 37875.70 37025.90 959.64 o
0 2 2 766.20 600.91 136.26 o
0 2 -2 766.20 706.46 246.30 <
0 2 -2 766.20 723.25 271.35 <
0 -2 2 766.20 530.14 377.53 <
0 -2 2 766.20 519.35 231.83 <
0 -2 -2 766.20 687.27 380.57 <
0 -2 -2 766.20 527.74 206.79 <
0 2 -2 766.20 620.10 379.63 <
0 2 2 766.20 -85.16 228.70 <
0 -2 2 766.20 50.38 250.27 <
0 -2 3 512.75 -194.30 412.94 <
0 -2 -3 512.75 134.34 281.51 <
0 2 3 512.75 533.74 251.77 <
0 2 -3 512.75 392.21 277.52 <
0 -2 -3 512.75 173.91 426.34 <
0 -2 3 512.75 416.20 260.67 <
0 -2 3 512.75 660.88 412.07 <
0 2 3 512.75 398.21 167.44 <
0 2 -3 512.75 357.43 305.15 <
0 2 4 12657.30 10304.20 685.02 o
0 2 4 12657.30 11376.50 949.38 o
0 2 -4 12657.30 12479.90 969.85 o
0 -2 4 12657.30 10593.20 1391.31 o
0 -2 -4 12657.30 9818.41 941.41 o
0 2 -4 12657.30 10926.70 1282.80 o
0 -2 -4 12657.30 12423.50 1281.66 o
0 -2 4 12657.30 11184.50 1126.33 o
0 2 -4 12657.30 11201.30 1090.02 o
0 2 5 10505.40 10240.60 993.75 o
0 2 5 10505.40 10604.00 1606.86 o
0 2 5 10505.40 10757.60 1337.32 o
0 -2 5 10505.40 11058.60 1635.60 o
0 -2 5 10505.40 11222.90 1279.47 o
0 2 -5 10505.40 9446.59 1116.40 o
0 -2 5 10505.40 10697.60 1527.25 o
0 -2 -5 10505.40 10033.10 1279.24 o
0 2 5 10505.40 9039.99 657.61 o
0 -2 5 10505.40 8437.89 1122.95 o
0 2 6 7917.52 7883.76 1553.65 o
0 -2 6 7917.50 8018.09 1561.60 o
0 -2 6 7917.50 7424.38 1160.40 o
0 2 -6 7917.50 7575.51 1122.29 o
0 2 -6 7917.50 7976.11 934.35 o
0 2 6 7917.52 7913.74 1269.04 o
0 -2 -6 7917.52 8880.47 1249.65 o
0 2 6 7917.52 8027.69 1362.19 o
0 2 6 7917.52 7002.19 590.37 o
0 -2 -6 7917.52 6202.18 881.41 o
0 -2 6 7917.50 8511.05 1473.26 o
0 -2 7 6371.83 8730.54 1353.70 o
0 2 -7 6371.83 9913.17 1085.07 o
0 2 7 6371.81 10508.10 1672.63 o
0 -2 7 6371.83 7101.74 1499.67 o
0 2 7 6371.81 7719.44 575.82 o
0 -2 -7 6371.81 11035.80 1534.76 o
0 2 7 6371.81 8957.23 1582.99 o
0 2 -7 6371.83 9765.64 1423.09 o
0 -2 -7 6371.81 6492.44 1094.56 o
0 2 8 7.86 2728.67 1160.42 <
0 2 -8 7.86 2361.65 929.61 <
0 -2 8 7.86 753.23 782.07 <
0 -2 -8 7.86 3906.50 1121.50 o
0 2 -9 28.67 3649.82 1168.19 o
0 -2 -9 28.67 4235.14 1183.89 o
0 -2 9 28.67 2701.08 1166.72 <
0 2 9 28.67 6737.12 1520.71 o
0 -3 1 2064.29 2212.92 428.79 o
0 3 1 2064.31 1937.06 355.53 o
0 -3 -1 2064.31 2212.92 402.29 o
0 -3 -1 2064.31 2359.25 332.25 o
0 -3 1 2064.29 1535.25 178.17 o
0 3 -1 2064.29 1929.86 275.79 o
0 3 1 2064.31 1286.97 269.98 o
0 -3 1 2064.29 1803.92 248.29 o
0 -3 -1 2064.31 2079.79 204.72 o
0 3 1 2064.31 2074.99 288.88 o
0 3 2 46313.90 47622.80 734.06 o
0 3 2 46313.90 45390.70 1346.41 o
0 -3 2 46313.90 44671.00 1470.09 o
0 -3 2 46313.90 48175.70 1986.34 o
0 3 -2 46313.90 41888.40 1664.67 o
0 -3 2 46313.90 46759.20 1326.70 o
0 -3 -2 46313.90 48679.50 1824.88 o
0 -3 -2 46313.90 45954.40 1352.67 o
0 -3 -2 46313.90 41694.10 1286.70 o
0 3 2 46313.90 49177.20 1971.05 o
0 3 -2 46313.90 45545.40 1426.63 o
0 3 3 18799.30 18856.00 997.74 o
0 -3 3 18799.30 18480.60 1135.24 o
0 3 3 18799.30 17750.10 708.08 o
0 3 -3 18799.30 18341.50 1669.81 o
0 3 3 18799.30 17265.60 1652.11 o
0 -3 3 18799.30 18987.90 1145.18 o
0 -3 3 18799.30 16843.40 1606.41 o
0 3 -3 18799.30 17104.90 1207.68 o
0 -3 -3 18799.30 18258.70 1576.88 o
0 3 -3 18799.30 17044.90 1138.27 o
0 -3 -3 18799.30 17752.50 1035.60 o
0 -3 -4 42604.10 39766.60 2803.00 o
0 -3 4 42604.00 41963.90 2066.99 o
0 3 4 42604.10 43669.50 1568.09 o
0 -3 4 42604.00 37793.60 2674.25 o
0 3 -4 42604.00 39709.00 2280.44 o
0 -3 -4 42604.10 38676.30 1905.30 o
0 3 4 42604.10 40543.80 1237.71 o
0 3 -4 42604.00 39817.00 2028.23 o
0 3 5 21146.60 17489.90 2168.85 o
0 3 5 21146.60 22112.40 1353.30 o
0 -3 5 21146.60 20062.60 2030.56 o
0 3 -5 21146.60 19322.60 1565.62 o
0 -3 5 21146.60 17166.00 1619.50 o
0 3 -5 21146.60 18099.20 1805.14 o
0 -3 -5 21146.60 22060.80 1776.04 o
0 -3 5 21146.60 19730.40 2214.17 o
0 3 5 21146.60 19020.30 923.54 o
0 -3 5 21146.60 20993.40 1718.47 o
0 -3 6 15326.40 14144.70 1555.98 o
0 3 6 15326.50 16920.20 1839.72 o
0 -3 6 15326.40 15375.30 1751.32 o
0 -3 6 15326.40 18274.30 2050.97 o
0 3 6 15326.50 15925.80 1803.41 o
0 3 -6 15326.40 15732.70 1310.20 o
0 3 6 15326.50 14371.40 783.09 o
0 -3 -6 15326.50 17618.20 1702.33 o
0 3 -6 15326.40 16247.30 1527.96 o
0 -3 -6 15326.50 13273.90 1293.30 o
0 -3 6 15326.40 15958.20 2117.72 o
0 -3 -7 9406.33 10931.50 1474.82 o
0 3 -7 9406.32 10317.40 1345.16 o
0 3 -7 9406.32 9516.16 1104.80 o
0 -3 -7 9406.33 9700.87 1196.15 o
0 3 7 9406.33 10082.30 1580.34 o
0 3 7 9406.33 10977.00 1575.20 o
0 -3 7 9406.32 8325.14 1323.31 o
0 3 7 9406.33 8254.38 603.49 o
0 3 -8 3583.34 4897.21 1093.07 o
0 3 8 3583.34 6027.06 1369.17 o
0 -3 -8 3583.34 6328.11 1339.78 o
0 -3 8 3583.34 4875.62 1295.57 o
0 -3 9 1130.80 1652.79 860.23 <
0 3 9 1130.81 1349.34 931.23 <
0 3 -9 1130.80 1042.29 685.20 <
0 -3 -9 1130.81 1163.43 845.48 <
0 -4 0 114681.00 104479.00 3219.89 o
0 -4 0 114681.00 117350.00 1484.93 o
0 -4 0 114681.00 118980.00 1688.32 o
0 4 0 114681.00 107315.00 2990.67 o
0 4 0 114681.00 116199.00 1660.54 o
0 -4 0 114681.00 120190.00 786.23 o
0 4 1 20153.00 21435.90 808.80 o
0 -4 1 20153.00 18604.10 850.91 o
0 4 -1 20153.00 18634.10 851.54 o
0 -4 -1 20153.00 19013.10 1104.61 o
0 4 -1 20153.00 18405.00 875.85 o
0 -4 -1 20153.00 17160.00 1006.41 o
0 -4 -1 20153.00 16859.00 1035.23 o
0 -4 -1 20153.00 20340.90 684.84 o
0 4 1 20153.00 16411.60 1044.06 o
0 4 1 20153.00 18586.10 1093.33 o
0 -4 1 20153.00 20655.10 1161.56 o
0 4 -2 59772.90 44191.30 2477.87 o
0 -4 -2 59773.10 55763.20 1867.96 o
0 -4 2 59772.90 56006.70 1821.84 o
0 4 -2 59772.90 57436.40 1774.30 o
0 4 2 59773.10 59403.40 2341.14 o
0 4 2 59773.10 62297.60 872.25 o
0 -4 2 59772.90 56677.20 1801.13 o
0 4 2 59773.10 56287.40 1782.35 o
0 -4 -2 59773.10 56650.80 1441.17 o
0 -4 -2 59773.10 57304.50 2418.54 o
0 -4 2 59772.90 62442.80 2299.22 o
0 -4 3 14400.30 14064.30 964.26 o
0 4 3 14400.30 15318.90 558.92 o
0 4 -3 14400.30 14666.50 1508.70 o
0 -4 -3 14400.30 15458.10 1385.50 o
0 4 -3 14400.30 14310.20 969.93 o
0 -4 3 14400.30 14652.10 967.27 o
0 4 -3 14400.30 13836.50 1002.63 o
0 4 3 14400.30 15888.70 1499.01 o
0 -4 -3 14400.30 15332.10 920.12 o
0 -4 3 14400.30 13685.30 1411.94 o
0 4 3 14400.30 13458.60 903.51 o
0 4 4 857.27 418.60 170.25 <
0 -4 -4 857.27 328.64 330.58 <
0 4 4 857.27 1610.81 426.06 o
0 4 -4 857.23 794.01 393.72 <
0 -4 -4 857.27 369.42 490.63 <
0 4 -4 857.23 586.51 363.43 <
0 -4 4 857.23 -105.55 551.56 <
0 4 -4 857.23 411.40 442.74 <
0 -4 4 857.23 879.17 370.49 <
0 4 4 857.27 356.23 452.37 <
0 4 -5 2325.42 2272.89 569.03 o
0 -4 -5 2325.44 1764.34 650.54 <
0 4 -5 2325.42 1477.68 578.35 <
0 4 5 2325.44 2045.00 800.61 <
0 4 5 2325.44 1980.23 297.35 o
0 -4 5 2325.42 1578.43 670.58 <
0 -4 5 2325.42 2576.34 665.82 o
0 -4 -5 2325.44 1141.84 750.67 <
0 -4 5 2325.42 1945.45 651.79 <
0 4 -5 2325.42 2388.04 611.12 o
0 4 5 2325.44 2432.41 504.94 o
0 4 6 11991.90 11488.00 662.13 o
0 -4 -6 11991.90 9750.05 1122.57 o
0 4 6 11991.90 12879.30 1649.82 o
0 -4 6 11991.90 12372.00 1789.29 o
0 4 6 11991.90 12135.70 1181.50 o
0 4 -6 11991.90 11440.00 1325.03 o
0 -4 6 11991.90 13656.50 1960.92 o
0 -4 6 11991.90 13011.30 1449.25 o
0 4 -6 11991.90 12116.50 1168.74 o
0 -4 -6 11991.90 12410.30 1491.03 o
0 4 7 62.80 -195.51 621.19 <
0 -4 7 62.79 1093.87 686.97 <
0 4 7 62.80 100.75 566.11 <
0 4 -7 62.79 797.61 406.61 <
0 -4 -7 62.80 761.63 529.67 <
0 -4 -7 62.80 882.77 674.70 <
0 4 7 62.80 434.19 209.78 <
0 4 -7 62.79 518.15 495.75 <
0 4 8 17521.50 24352.90 2324.80 o
0 -4 8 17521.50 25039.00 2122.91 o
0 4 8 17521.50 23975.10 2387.14 o
0 -4 -8 17521.50 21298.00 2154.18 o
0 4 -8 17521.50 22502.20 2012.35 o
0 4 9 2207.23 5529.30 1346.19 o
0 -4 9 2207.25 4356.28 1165.43 o
0 4 -9 2207.25 3785.35 1087.37 o
0 -4 -9 2207.23 4368.27 1153.14 o
0 5 -1 70.58 49.18 172.73 <
0 -5 1 70.58 -32.38 181.12 <
0 5 1 70.58 770.03 341.60 <
0 -5 1 70.58 310.65 321.03 <
0 -5 -1 70.58 -32.38 219.50 <
0 -5 -1 70.58 163.12 180.95 <
0 5 1 70.58 -9.60 224.31 <
0 -5 1 70.58 -57.57 195.49 <
0 5 1 70.58 496.56 311.89 <
0 5 1 70.58 65.97 87.57 <
0 5 -1 70.58 62.37 163.13 <
0 -5 -1 70.58 88.76 232.67 <
0 5 2 720.99 809.60 272.86 <
0 -5 -2 720.99 528.94 179.05 <
0 -5 -2 720.99 448.58 320.15 <
0 -5 2 721.01 803.61 258.48 o
0 -5 2 721.01 480.97 224.54 <
0 5 2 720.99 490.56 292.53 <
0 -5 -2 720.99 1692.38 426.78 o
0 -5 2 721.01 997.91 565.06 <
0 5 2 720.99 235.09 235.86 <
0 5 -2 721.01 688.46 285.65 <
0 -5 -3 726.60 803.61 284.96 <
0 5 3 726.60 804.81 234.46 o
0 5 3 726.60 1300.17 522.43 <
0 -5 3 726.61 1235.40 537.32 <
0 -5 -3 726.60 1342.15 380.62 o
0 5 -3 726.61 379.02 238.03 <
0 -5 3 726.61 999.11 330.45 o
0 -5 3 726.61 862.38 313.40 <
0 5 3 726.60 654.88 266.71 <
0 5 -3 726.61 1770.34 552.52 o
0 -5 -3 726.60 2430.02 711.43 o
0 -5 4 16656.90 18961.60 1233.09 o
0 -5 -4 16656.90 17307.60 1732.21 o
0 5 4 16656.90 16408.00 1137.34 o
0 5 4 16656.90 18062.00 1876.92 o
0 -5 -4 16656.90 18485.40 1156.24 o
0 -5 4 16656.90 14250.30 1712.73 o
0 5 -4 16656.90 18517.80 1224.55 o
0 5 -4 16656.90 16192.10 1862.91 o
0 5 -4 16656.90 17131.20 1322.82 o
0 5 4 16656.90 15961.80 759.68 o
0 -5 -5 3290.00 2289.68 820.91 <
0 -5 5 3289.99 3672.61 732.01 o
0 5 5 3290.00 3155.66 569.14 o
0 5 -5 3289.99 3991.65 815.07 o
0 -5 5 3289.99 2346.06 846.74 <
0 5 5 3290.00 4287.91 1104.51 o
0 -5 5 3289.99 2958.96 699.16 o
0 5 5 3290.00 2566.75 333.97 o
0 5 -5 3289.99 3474.71 679.04 o
0 5 -6 8885.05 8792.91 1051.35 o
0 -5 6 8885.05 8475.07 1616.07 o
0 -5 -6 8885.05 8338.33 1018.55 o
0 5 -6 8885.05 8110.45 1125.76 o
0 5 6 8885.05 7377.60 545.59 o
0 5 -6 8885.05 7244.47 1288.22 o
0 5 6 8885.05 8842.09 1018.00 o
0 -5 6 8885.05 8728.15 1173.45 o
0 -5 -6 8885.05 9084.37 1340.13 o
0 -5 -7 35.13 458.18 510.32 <
0 -5 7 35.13 -361.02 474.48 <
0 -5 -7 35.13 -357.43 655.73 <
0 5 7 35.13 -83.96 681.25 <
0 5 -7 35.13 -261.47 517.91 <
0 5 7 35.13 -115.14 574.48 <
0 5 7 35.13 13.19 415.00 <
0 5 8 666.76 1472.88 957.10 <
0 -5 8 666.76 2318.47 885.69 <
0 5 -8 666.76 173.91 572.82 <
0 -5 -8 666.76 2352.05 1101.71 <
0 -5 9 6096.21 7221.68 1420.34 o
0 -5 -9 6096.20 9585.73 1620.63 o
0 5 -9 6096.21 7944.93 1465.25 o
0 5 9 6096.20 10159.00 1748.29 o
0 -6 0 25634.70 27185.90 1273.64 o
0 -6 0 25634.70 25612.30 1345.57 o
0 6 0 25634.70 27299.90 1046.67 o
0 -6 0 25634.70 27708.90 1037.42 o
0 -6 0 25634.70 27532.60 1031.62 o
0 6 0 25634.70 25530.80 1361.23 o
0 6 0 25634.70 27736.50 987.00 o
0 -6 -1 27261.20 27701.70 1013.96 o
0 -6 -1 27261.20 25198.50 1371.81 o
0 -6 1 27261.00 27627.30 1530.32 o
0 -6 1 27261.00 30035.80 1037.73 o
0 -6 1 27261.00 26287.60 1148.16 o
0 -6 -1 27261.20 28570.10 1435.37 o
0 6 -1 27261.00 29179.40 1055.08 o
0 6 1 27261.20 26552.70 1403.77 o
0 6 1 27261.20 24703.20 1354.28 o
0 6 -1 27261.00 27722.10 1098.83 o
0 6 1 27261.20 23893.60 1434.43 o
0 6 -1 27261.00 28275.00 1577.89 o
0 -6 2 10958.40 10546.50 757.71 o
0 6 -2 10958.40 9351.84 762.97 o
0 6 2 10958.30 9943.15 1025.05 o
0 -6 2 10958.40 10821.10 1165.31 o
0 -6 -2 10958.30 10397.70 1092.58 o
0 -6 -2 10958.30 8571.02 458.97 o
0 6 -2 10958.40 10262.20 773.84 o
0 -6 2 10958.40 11290.10 804.62 o
0 6 2 10958.30 10397.70 802.36 o
0 -6 -2 10958.30 9368.63 848.17 o
0 -6 -2 10958.30 10312.60 612.55 o
0 6 2 10958.30 8219.59 896.09 o
0 -6 -3 18185.90 16481.20 823.61 o
0 -6 -3 18185.90 19953.50 1109.72 o
0 -6 -3 18185.90 15404.10 1526.85 o
0 6 3 18185.90 16222.10 1083.59 o
0 -6 3 18185.70 19331.00 1755.30 o
0 6 -3 18185.70 14192.70 700.17 o
0 -6 3 18185.70 17325.60 1097.52 o
0 6 3 18185.90 17657.80 1255.92 o
0 6 3 18185.90 17495.90 1593.36 o
0 6 -3 18185.70 16202.90 1167.17 o
0 -6 -4 185.23 803.61 388.73 <
0 -6 -4 185.23 885.17 597.88 <
0 6 -4 185.22 -329.84 579.03 <
0 6 -4 185.22 486.96 374.67 <
0 6 4 185.23 1566.44 735.07 <
0 -6 4 185.22 224.29 306.99 <
0 6 4 185.23 -207.50 329.69 <
0 6 -4 185.22 7.20 128.56 <
0 -6 4 185.22 328.64 295.93 <
0 -6 4 185.22 237.48 489.30 <
0 6 -4 185.22 719.65 533.64 <
0 6 5 40.96 135.53 600.87 <
0 6 -5 40.95 508.55 468.13 <
0 -6 5 40.95 358.62 571.78 <
0 -6 5 40.95 217.09 324.84 <
0 6 5 40.96 827.60 420.86 <
0 -6 -5 40.96 -31.18 510.95 <
0 -6 5 40.95 1163.43 543.03 <
0 6 -5 40.95 194.30 446.06 <
0 6 6 215.27 133.13 351.52 <
0 -6 6 215.28 633.29 566.45 <
0 -6 -6 215.27 130.74 505.02 <
0 -6 -6 215.27 -1290.57 857.73 <
0 6 -6 215.28 166.72 466.62 <
0 -6 -6 215.27 345.43 447.17 <
0 6 7 7967.08 7262.46 1022.38 o
0 6 -7 7967.11 7142.52 1149.88 o
0 -6 -7 7967.08 7730.23 1352.63 o
0 -6 -7 7967.08 5513.71 993.02 o
0 -6 7 7967.11 8761.73 1290.06 o
0 -6 -8 31.76 -82.76 665.66 <
0 6 -8 31.77 -689.66 671.60 <
0 -6 8 31.77 310.65 559.87 <
0 6 8 31.76 -355.03 710.93 <
0 -6 9 8848.16 12555.50 1697.62 o
0 6 -9 8848.16 9951.55 1626.47 o
0 -6 -9 8848.19 13583.40 1895.17 o
0 6 9 8848.19 12070.90 1901.23 o
0 -7 1 39.03 212.30 232.41 <
0 7 -1 39.03 -31.18 293.86 <
0 -7 1 39.03 250.68 240.70 <
0 -7 -1 39.03 81.56 280.64 <
0 -7 -1 39.03 315.45 209.19 <
0 7 -1 39.03 334.64 278.86 <
0 -7 1 39.03 244.68 330.78 <
0 7 1 39.03 103.15 236.23 <
0 7 -1 39.03 91.16 199.06 <
0 7 1 39.03 111.55 250.62 <
0 7 1 39.03 -648.88 424.01 <
0 -7 -1 39.03 286.66 227.36 <
0 7 1 39.03 15.59 76.78 <
0 -7 -1 39.03 362.22 311.21 <
0 7 2 43242.10 35566.30 1519.65 o
0 -7 2 43242.60 43682.70 1529.46 o
0 -7 -2 43242.10 43729.50 2221.28 o
0 7 -2 43242.60 43375.70 1575.67 o
0 -7 2 43242.60 50614.10 1311.92 o
0 -7 -2 43242.10 41048.80 2044.04 o
0 -7 2 43242.60 46034.80 2316.20 o
0 7 2 43242.10 41755.20 1710.93 o
0 7 2 43242.10 39909.30 1958.88 o
0 7 2 43242.10 43668.30 2099.47 o
0 7 -2 43242.60 41922.00 1664.74 o
0 -7 -2 43242.10 42696.80 1324.06 o
0 7 3 5335.98 5050.74 619.81 o
0 -7 -3 5335.98 4920.00 701.70 o
0 7 3 5335.98 6218.97 963.38 o
0 -7 -3 5335.98 5368.58 468.08 o
0 -7 3 5336.11 5361.39 627.98 o
0 7 3 5335.98 4610.55 671.19 o
0 -7 3 5336.11 5690.03 987.13 o
0 7 -3 5336.11 5620.46 714.39 o
0 7 -3 5336.11 5646.85 689.69 o
0 -7 -3 5335.98 5197.07 875.17 o
0 7 4 60787.30 56986.60 2361.11 o
0 -7 -4 60787.30 49762.50 2157.56 o
0 7 4 60787.30 61490.40 3386.75 o
0 7 4 60787.30 56067.90 2817.29 o
0 -7 4 60787.20 61399.30 2259.84 o
0 7 -4 60787.20 46465.30 2095.46 o
0 -7 4 60787.20 61953.40 3468.56 o
0 -7 4 60787.20 62320.40 2189.35 o
0 7 -4 60787.20 59517.40 3596.62 o
0 7 -4 60787.20 55182.70 2645.64 o
0 -7 -4 60787.30 63456.30 3098.48 o
0 7 -5 23584.70 30160.50 1852.77 o
0 -7 5 23584.70 25081.00 1699.99 o
0 -7 5 23584.70 23280.70 1627.33 o
0 7 -5 23584.70 19315.40 2430.33 o
0 -7 -5 23584.80 22128.00 2319.23 o
0 7 5 23584.80 24560.40 1492.91 o
0 7 -5 23584.70 21998.50 1798.29 o
0 7 5 23584.80 22513.00 2417.29 o
0 -7 -5 23584.80 23510.90 1565.50 o
0 -7 5 23584.70 18197.50 2259.61 o
0 7 -6 15376.00 17211.60 1676.90 o
0 -7 6 15376.00 15181.00 1488.48 o
0 7 6 15376.00 14620.90 1274.71 o
0 -7 -6 15376.00 14203.50 1394.70 o
0 -7 -6 15376.00 11548.00 1943.48 o
0 -7 -7 15295.50 14853.60 1552.73 o
0 7 -7 15295.50 17477.90 1798.98 o
0 -7 -7 15295.50 17668.60 1936.00 o
0 -7 7 15295.50 17847.30 1684.45 o
0 7 7 15295.50 16839.80 1453.42 o
0 7 -8 62.23 -621.30 606.97 <
0 7 8 62.23 -1326.55 982.70 <
0 -7 8 62.23 839.59 641.20 <
0 7 8 62.23 -85.16 424.57 <
0 -7 -8 62.23 208.70 726.77 <
0 -7 -9 3292.15 3982.06 1191.82 o
0 7 9 3292.15 3284.00 1201.87 <
0 7 -9 3292.13 4788.07 1267.69 o
0 -7 9 3292.13 3519.08 1041.69 o
0 8 0 210475.00 226104.00 13485.40 o
0 8 0 210475.00 213005.00 4184.87 o
0 -8 0 210475.00 238603.00 13732.70 o
0 -8 0 210475.00 234385.00 13651.70 o
0 -8 0 210475.00 212854.00 4180.33 o
0 -8 0 210475.00 231479.00 13784.90 o
0 8 1 11574.50 11480.80 993.33 o
0 -8 1 11574.40 13577.40 879.61 o
0 -8 -1 11574.50 13470.60 1142.16 o
0 -8 1 11574.40 12808.60 837.62 o
0 -8 -1 11574.50 11691.90 875.43 o
0 8 -1 11574.40 12757.00 1207.89 o
0 8 1 11574.50 10466.10 986.79 o
0 -8 1 11574.40 12147.70 1180.77 o
0 8 -1 11574.40 12577.10 858.72 o
0 8 1 11574.50 11448.40 433.88 o
0 8 1 11574.50 11286.50 1020.05 o
0 -8 -1 11574.50 11472.40 1034.23 o
0 8 -1 11574.40 12970.50 865.64 o
0 -8 -1 11574.50 12711.40 804.81 o
0 8 -2 41215.60 42646.40 1566.53 o
0 -8 -2 41215.70 41673.70 1337.23 o
0 -8 2 41215.60 43935.80 2344.29 o
0 8 2 41215.70 41177.10 1722.18 o
0 8 2 41215.70 41677.30 2076.95 o
0 8 -2 41215.60 42164.20 1592.87 o
0 -8 -2 41215.70 42061.10 2245.04 o
0 8 2 41215.70 36012.40 1336.74 o
0 -8 2 41215.60 42422.10 1551.05 o
0 8 2 41215.70 38865.90 1930.64 o
0 -8 3 3518.69 3441.12 549.31 o
0 8 3 3518.72 3432.73 778.14 o
0 -8 3 3518.69 3035.72 880.99 o
0 8 -3 3518.69 3469.91 595.60 o
0 8 3 3518.72 3403.94 568.99 o
0 8 3 3518.72 3068.10 601.92 o
0 -8 -3 3518.72 3339.17 426.84 o
0 -8 -3 3518.72 2259.70 250.60 o
0 8 -3 3518.69 3206.04 550.27 o
0 -8 -3 3518.72 3126.88 784.73 o
0 8 4 5437.71 4773.67 805.16 o
0 -8 4 5437.72 5197.07 734.60 o
0 -8 -4 5437.71 6072.64 1166.60 o
0 8 -4 5437.72 4400.65 1095.11 o
0 -8 4 5437.72 5808.77 1220.46 o
0 8 4 5437.71 5785.98 1089.53 o
0 -8 4 5437.72 5258.24 747.91 o
0 -8 -4 5437.71 4380.26 485.95 o
0 8 -4 5437.72 3912.49 704.62 o
0 8 4 5437.71 4593.76 699.14 o
0 -8 5 29911.20 26811.70 2798.88 o
0 -8 -5 29911.30 32901.20 1789.40 o
0 8 -5 29911.20 21531.90 1242.55 o
0 8 -5 29911.20 28703.20 2034.14 o
0 8 5 29911.30 26887.30 1780.01 o
0 8 -5 29911.20 26543.10 2828.08 o
0 -8 -5 29911.30 29570.40 2609.65 o
0 8 5 29911.30 28723.60 2693.69 o
0 -8 5 29911.20 31680.20 1912.42 o
0 -8 5 29911.20 32125.10 1798.63 o
0 -8 6 25369.80 28727.20 1884.88 o
0 -8 -6 25369.70 26808.10 1835.41 o
0 -8 -6 25369.70 20997.00 2624.54 o
0 8 6 25369.70 28799.20 1604.23 o
0 8 -6 25369.80 17667.40 2077.68 o
0 -8 7 2995.15 946.34 559.05 <
0 -8 -7 2995.17 2176.94 869.13 <
0 -8 -7 2995.17 3077.70 853.28 o
0 8 7 2995.17 2937.37 717.82 o
0 8 8 8840.56 9860.39 1789.75 o
0 -8 -8 8840.56 7765.02 1559.55 o
0 -8 8 8840.54 7100.54 1304.60 o
0 8 8 8840.56 9251.09 1217.25 o
0 -8 9 4054.22 4534.99 1194.00 o
0 8 9 4054.19 4523.00 1343.29 o
0 9 1 51303.50 47423.70 2388.29 o
0 -9 1 51302.90 51520.90 2479.15 o
0 9 1 51303.50 49592.20 2266.15 o
0 -9 1 51302.90 49902.90 2282.32 o
0 9 -1 51302.90 54767.70 1685.82 o
0 -9 -1 51303.50 55293.00 2254.62 o
0 -9 1 51302.90 53973.70 1722.08 o
0 9 1 51303.50 53310.40 2217.74 o
0 9 1 51303.50 48194.90 1283.90 o
0 9 -1 51302.90 53183.30 1784.79 o
0 -9 -1 51303.50 51030.30 1787.98 o
0 -9 -1 51303.50 49749.30 2253.35 o
0 -9 2 67953.20 65167.80 2320.68 o
0 -9 -2 67953.50 65335.70 2068.63 o
0 9 -2 67953.20 66802.60 2259.40 o
0 9 2 67953.50 68234.70 2300.97 o
0 -9 2 67953.20 58178.80 2020.95 o
0 -9 -2 67953.50 60472.10 2917.03 o
0 9 -2 67953.20 68263.50 2170.46 o
0 -9 -2 67953.50 70242.60 2919.79 o
0 -9 2 67953.20 68140.00 3143.57 o
0 9 2 67953.50 64491.40 2880.34 o
0 9 2 67953.50 66466.80 2607.28 o
0 9 3 118125.00 121252.00 3195.39 o
0 9 3 118125.00 93050.60 3948.46 o
0 9 3 118125.00 120634.00 4041.22 o
0 -9 3 118125.00 118881.00 2956.55 o
0 9 3 118125.00 117941.00 3132.73 o
0 9 -3 118125.00 116340.00 3259.20 o
0 -9 3 118125.00 125113.00 4286.29 o
0 9 -3 118125.00 118583.00 3091.05 o
0 -9 3 118125.00 128510.00 2035.98 o
0 -9 -3 118125.00 111372.00 3076.72 o
0 -9 -3 118125.00 117116.00 4483.73 o
0 -9 -4 43157.90 39315.60 2416.34 o
0 -9 4 43158.30 45184.40 1969.19 o
0 9 -4 43158.30 44370.00 2087.79 o
0 9 -4 43158.30 39940.50 3163.85 o
0 -9 -4 43157.90 38140.20 1672.08 o
0 -9 -4 43157.90 32140.70 1656.69 o
0 9 4 43157.90 40690.20 2039.79 o
0 9 4 43157.90 44600.30 2870.25 o
0 -9 4 43158.30 45022.50 1988.26 o
0 9 -4 43158.30 42329.80 2178.99 o
0 -9 4 43158.30 45156.80 3124.07 o
0 -9 -4 43157.90 42652.40 2810.78 o
0 9 4 43157.90 43647.90 2223.62 o
0 9 -5 14792.80 13385.50 2112.85 o
0 9 -5 14792.80 11011.80 810.13 o
0 -9 -5 14792.40 16456.00 1951.57 o
0 -9 5 14792.80 15720.70 1357.88 o
0 -9 -5 14792.40 15322.50 1460.95 o
0 9 5 14792.40 13661.30 1277.58 o
0 9 -5 14792.80 11708.70 1235.08 o
0 9 -5 14792.80 14545.30 1473.99 o
0 9 5 14792.40 16139.30 2029.76 o
0 -9 5 14792.80 15103.00 1426.69 o
0 9 6 8319.90 9887.98 1071.05 o
0 -9 -6 8319.90 9239.10 1208.40 o
0 9 6 8319.90 7394.40 1245.61 o
0 -9 -6 8319.90 6216.57 1445.67 o
0 -9 6 8319.69 8767.73 1171.14 o
0 9 7 10043.00 9995.93 1218.34 o
0 -9 7 10042.90 12036.10 1444.09 o
0 9 7 10043.00 8186.01 1393.39 o
0 -9 -7 10043.00 6468.45 1831.76 o
0 9 8 30018.50 27806.00 2586.45 o
0 -9 8 30018.50 30557.50 2474.15 o
0 9 8 30018.50 32446.60 2176.58 o
0 -9 -8 30018.50 35764.20 2823.40 o
0 -9 9 15459.00 16649.10 1971.22 o
0 10 0 49412.40 53245.60 1731.60 o
0 -10 0 49412.40 53282.80 2167.20 o
0 -10 0 49412.40 53918.50 1736.09 o
0 -10 0 49412.40 50394.60 2380.95 o
0 -10 0 49412.40 44714.20 1811.27 o
0 -10 1 209113.00 206748.00 5461.57 o
0 -10 -1 209114.00 209354.00 4660.29 o
0 10 -1 209113.00 227120.00 13556.60 o
0 -10 1 209113.00 216071.00 3048.96 o
0 -10 -1 209114.00 205967.00 4154.13 o
0 10 -1 209113.00 212196.00 3625.68 o
0 -10 1 209113.00 209843.00 4681.55 o
0 10 1 209114.00 214050.00 4319.43 o
0 -10 -1 209114.00 226227.00 3081.82 o
0 10 1 209114.00 191397.00 6206.93 o
0 10 1 209114.00 192501.00 4474.17 o
0 10 2 279.98 367.02 335.63 <
0 10 2 279.98 1490.87 564.15 <
0 -10 2 280.03 388.61 162.56 <
0 10 2 279.98 521.75 439.60 <
0 -10 2 280.03 220.69 268.80 <
0 10 -2 280.03 347.83 250.47 <
0 -10 2 280.03 193.11 424.70 <
0 -10 -2 279.98 509.75 275.00 <
0 -10 -2 279.98 590.11 499.43 <
0 -10 -2 279.98 391.01 336.76 <
0 10 -2 280.03 351.43 363.27 <
0 10 2 279.98 660.88 339.20 <
0 10 -2 280.03 -76.76 260.47 <
0 -10 -2 279.98 476.17 310.02 <
0 -10 3 472.28 694.46 369.73 <
0 -10 3 472.28 873.17 626.16 <
0 10 3 472.34 1073.48 606.03 <
0 10 3 472.34 307.05 169.96 <
0 -10 3 472.28 644.09 381.98 <
0 10 -3 472.28 677.67 569.20 <
0 -10 -3 472.34 539.74 557.58 <
0 10 3 472.34 627.29 395.27 <
0 10 -3 472.28 689.66 385.38 <
0 -10 -3 472.34 447.38 271.17 <
0 10 -3 472.28 720.85 322.67 <
0 10 3 472.34 267.47 289.63 <
0 10 3 472.34 490.56 342.97 <
0 -10 4 78590.00 79241.80 4286.76 o
0 -10 -4 78589.60 69175.10 4123.55 o
0 -10 4 78590.00 83455.30 2533.12 o
0 -10 -4 78589.60 76961.70 3519.83 o
0 10 -4 78590.00 81990.80 2724.21 o
0 10 -4 78590.00 73291.50 4422.89 o
0 10 4 78589.60 76228.80 2903.45 o
0 -10 4 78590.00 84612.80 2509.29 o
0 -10 -4 78589.60 72250.40 2492.52 o
0 10 4 78589.60 81144.00 3851.51 o
0 10 -4 78590.00 82177.90 2852.49 o
0 -10 -5 63086.20 55698.40 3347.45 o
0 -10 -5 63086.20 62058.90 3753.41 o
0 10 -5 63086.30 56443.30 4361.55 o
0 10 5 63086.20 61032.20 2744.70 o
0 -10 5 63086.30 68725.30 2562.62 o
0 -10 -5 63086.20 53621.10 2318.41 o
0 10 -5 63086.30 69368.20 2722.91 o
0 10 6 26154.30 26353.60 1828.24 o
0 10 -6 26154.20 29352.10 2206.59 o
0 -10 -6 26154.30 19465.30 2053.17 o
0 10 -6 26154.20 23058.80 2968.30 o
0 -10 -6 26154.30 23123.50 2773.51 o
0 -10 6 26154.20 26649.80 1966.68 o
0 10 6 26154.30 25866.60 2076.44 o
0 10 7 26085.80 25909.80 2300.45 o
0 -10 7 26085.60 29000.70 2233.54 o
0 10 7 26085.80 28174.30 1840.91 o
0 -10 -7 26085.80 19632.00 2955.47 o
0 -10 -8 4050.66 4353.88 1271.35 o
0 10 8 4050.66 2922.98 1017.52 <
0 -10 8 4050.74 4735.29 1126.90 o
0 10 8 4050.66 5116.71 989.27 o
0 11 1 18099.80 15780.70 1453.75 o
0 -11 1 18099.80 20108.20 1295.73 o
0 11 -1 18099.80 19960.70 1244.59 o
0 11 -1 18099.80 18301.90 1712.41 o
0 -11 -1 18099.80 18137.60 1272.49 o
0 -11 1 18099.80 19077.90 1241.21 o
0 -11 1 18099.80 18403.80 1510.85 o
0 11 1 18099.80 19749.60 1503.50 o
0 11 1 18099.80 18929.20 1245.52 o
0 -11 -1 18099.80 18827.20 1583.26 o
0 -11 1 18099.80 18451.80 1673.55 o
0 -11 -1 18099.80 18274.30 1509.82 o
0 11 -1 18099.80 17901.30 1245.89 o
0 -11 -1 18099.80 17222.40 1213.41 o
0 11 1 18099.80 16218.50 742.74 o
0 11 2 10232.70 10130.30 1158.39 o
0 11 -2 10232.60 11381.30 988.08 o
0 11 2 10232.70 12196.90 1118.19 o
0 11 -2 10232.60 9817.21 1345.94 o
0 -11 -2 10232.70 10903.90 1017.12 o
0 11 2 10232.70 10583.60 981.78 o
0 11 -2 10232.60 10228.60 966.83 o
0 -11 -2 10232.70 9804.02 855.24 o
0 -11 -2 10232.70 10253.80 1191.78 o
0 -11 2 10232.60 9210.31 591.57 o
0 -11 -2 10232.70 11003.40 1341.80 o
0 -11 2 10232.60 10863.10 954.79 o
0 -11 2 10232.60 10461.30 1399.25 o
0 -11 -3 81472.60 74974.20 2701.46 o
0 -11 -3 81472.60 85397.20 3777.93 o
0 11 -3 81472.40 79024.70 4204.29 o
0 11 -3 81472.40 80615.10 2819.52 o
0 -11 3 81472.40 84921.00 3950.62 o
0 11 3 81472.60 81728.20 3562.63 o
0 -11 3 81472.40 81861.30 2722.38 o
0 -11 3 81472.40 95340.30 1848.99 o
0 11 3 81472.60 83023.50 2815.95 o
0 11 -3 81472.40 85051.70 2611.12 o
0 11 3 81472.60 81639.40 2917.80 o
0 -11 -4 22.32 236.29 285.16 <
0 11 -4 22.32 -117.54 533.69 <
0 -11 4 22.32 362.22 431.32 <
0 -11 4 22.32 202.70 328.45 <
0 11 4 22.32 57.57 570.91 <
0 11 -4 22.32 -57.57 334.62 <
0 -11 -4 22.32 -127.14 491.70 <
0 11 4 22.32 -115.14 327.37 <
0 11 -4 22.32 570.92 433.01 <
0 11 4 22.32 85.16 177.46 <
0 -11 -4 22.32 -1075.88 627.58 <
0 -11 -5 20246.60 18377.40 1119.97 o
0 11 -5 20246.60 22888.40 1727.34 o
0 11 5 20246.60 21184.10 1621.69 o
0 -11 -5 20246.60 21830.60 2335.63 o
0 -11 5 20246.60 23753.20 1647.98 o
0 -11 -5 20246.60 19049.10 1949.15 o
0 11 -5 20246.60 17812.50 2474.38 o
0 11 6 19737.70 19260.20 1685.24 o
0 -11 -6 19737.70 18211.90 2411.83 o
0 11 6 19737.70 21926.50 1878.69 o
0 11 -6 19737.60 16734.20 2676.12 o
0 -11 6 19737.60 25003.00 1828.46 o
0 11 -6 19737.60 24411.70 1915.54 o
0 11 7 1051.09 3527.48 794.44 o
0 11 -7 1051.09 1201.81 720.27 <
0 11 7 1051.09 1375.73 662.99 <
0 -11 -7 1051.09 -197.90 856.13 <
0 -11 7 1051.09 1096.27 687.09 <
0 -11 8 23092.90 26152.10 2318.16 o
0 -11 -8 23092.90 26401.50 2587.39 o
0 11 -8 23092.90 29043.80 2604.68 o
0 11 8 23092.90 24821.90 1965.68 o
0 -12 0 340.42 1138.25 554.72 <
0 12 0 340.42 379.02 490.49 <
0 12 0 340.42 696.86 517.19 <
0 -12 0 340.42 435.39 391.97 <
0 12 0 340.42 556.53 362.73 <
0 -12 0 340.42 856.38 404.51 <
0 -12 0 340.42 508.55 374.93 <
0 -12 0 340.42 653.68 264.71 <
0 12 1 1712.72 1514.86 231.16 o
0 -12 1 1712.72 2312.47 565.57 o
0 -12 -1 1712.72 1902.27 520.14 o
0 12 1 1712.72 790.41 490.74 <
0 12 -1 1712.72 1432.10 438.93 o
0 -12 1 1712.72 2215.32 543.61 o
0 -12 1 1712.72 2064.19 760.67 <
0 12 1 1712.72 2240.51 497.32 o
0 12 -1 1712.72 2186.53 546.33 o
0 -12 1 1712.72 1582.03 565.83 <
0 -12 -1 1712.72 2365.25 666.65 o
0 12 -1 1712.72 1538.85 628.36 <
0 -12 -1 1712.72 2259.70 638.63 o
0 -12 -1 1712.72 1302.56 414.83 o
0 -12 -2 3.17 67.17 450.96 <
0 12 2 3.17 -274.67 327.02 <
0 -12 -2 3.17 110.35 259.00 <
0 -12 -2 3.17 136.73 392.13 <
0 12 2 3.17 -89.96 339.39 <
0 -12 2 3.17 100.75 313.00 <
0 12 -2 3.17 130.74 302.16 <
0 -12 2 3.17 -95.95 161.82 <
0 -12 2 3.17 401.80 521.25 <
0 -12 -2 3.17 314.25 326.96 <
0 12 2 3.17 1530.45 599.49 <
0 12 -2 3.17 57.57 442.57 <
0 12 -2 3.17 -25.19 286.66 <
0 12 -3 106.13 628.49 642.00 <
0 12 -3 106.13 851.59 484.74 <
0 12 -3 106.13 508.55 394.89 <
0 -12 -3 106.12 127.14 509.74 <
0 12 3 106.12 552.93 433.19 <
0 12 3 106.12 71.96 382.63 <
0 -12 3 106.13 782.02 639.08 <
0 -12 -3 106.12 196.70 297.33 <
0 -12 3 106.13 393.41 383.28 <
0 12 4 495.64 343.03 189.07 <
0 -12 -4 495.64 525.34 328.53 <
0 12 4 495.64 522.95 452.11 <
0 12 -4 495.60 227.89 387.94 <
0 12 4 495.64 710.05 687.99 <
0 -12 4 495.60 498.96 406.59 <
0 12 -4 495.60 163.12 624.05 <
0 -12 -4 495.64 -193.11 679.06 <
0 -12 5 163.13 841.99 518.62 <
0 -12 -5 163.12 657.28 361.81 <
0 12 -5 163.13 477.37 415.52 <
0 12 5 163.12 633.29 320.97 <
0 12 5 163.12 -952.34 592.20 <
0 12 -5 163.13 179.91 628.48 <
0 -12 -5 163.12 1830.31 949.38 <
0 12 5 163.12 -316.65 465.03 <
0 12 -6 436.12 1489.67 702.37 <
0 12 -6 436.12 -726.85 1067.93 <
0 12 6 436.10 940.34 548.83 <
0 -12 6 436.12 89.96 457.35 <
0 12 6 436.10 -307.05 572.09 <
0 -12 -6 436.10 1423.71 842.51 <
0 -12 -7 65.22 -425.79 1029.98 <
0 12 7 65.22 1701.97 737.50 <
0 -12 7 65.23 -283.06 567.08 <
0 12 -7 65.23 219.49 545.62 <
0 12 7 65.22 716.05 624.85 <
0 12 8 17.48 1003.91 622.33 <
0 12 -8 17.48 191.91 658.39 <
0 -12 8 17.48 -632.09 600.91 <
0 -12 -8 17.48 789.22 909.27 <
0 -13 -1 5708.31 7576.71 1120.34 o
0 13 -1 5708.41 6466.05 845.52 o
0 13 -1 5708.41 5041.14 1019.41 o
0 -13 -1 5708.31 5907.12 801.34 o
0 13 1 5708.31 3687.00 720.83 o
0 -13 -1 5708.31 5476.53 998.61 o
0 13 1 5708.31 4929.60 409.43 o
0 13 -1 5708.41 7188.10 862.84 o
0 -13 1 5708.41 7375.21 915.82 o
0 13 1 5708.31 6853.46 1061.65 o
0 13 1 5708.31 6584.79 848.11 o
0 -13 1 5708.41 6715.53 855.33 o
0 -13 -1 5708.31 6186.58 803.44 o
0 -13 1 5708.41 6109.82 976.44 o
0 -13 1 5708.41 4952.39 1065.58 o
0 -13 2 207.70 405.40 219.96 <
0 13 -2 207.70 267.47 347.73 <
0 13 2 207.71 437.79 428.93 <
0 -13 2 207.70 265.07 573.26 <
0 13 -2 207.70 57.57 319.17 <
0 13 2 207.71 353.83 517.94 <
0 13 2 207.71 548.13 512.66 <
0 13 2 207.71 1451.29 625.97 <
0 -13 -2 207.71 187.11 290.29 <
0 -13 2 207.70 28.79 361.13 <
0 13 -2 207.70 320.24 478.41 <
0 -13 -2 207.71 802.41 574.22 <
0 -13 2 207.70 165.52 377.86 <
0 -13 -2 207.71 77.96 381.51 <
0 -13 -2 207.71 245.88 363.36 <
0 13 3 26954.00 27057.60 2056.13 o
0 13 -3 26954.20 25876.20 2588.31 o
0 -13 -3 26954.00 28414.10 2479.61 o
0 13 3 26954.00 27086.40 1838.83 o
0 13 -3 26954.20 28487.30 1732.29 o
0 13 3 26954.00 26424.30 2197.18 o
0 -13 -3 26954.00 25382.00 1505.67 o
0 -13 3 26954.20 33251.40 1816.45 o
0 -13 3 26954.20 28802.80 1698.23 o
0 -13 -4 1514.88 1469.28 420.18 o
0 13 -4 1514.91 1812.32 591.65 o
0 13 -4 1514.91 1092.67 791.99 <
0 13 4 1514.88 1360.14 541.91 <
0 -13 -4 1514.88 452.18 588.82 <
0 13 4 1514.88 1049.49 594.78 <
0 -13 4 1514.91 1901.07 613.83 o
0 13 5 11388.50 12562.70 1449.41 o
0 -13 5 11388.40 13904.80 1385.88 o
0 13 5 11388.50 11733.90 1312.04 o
0 -13 -5 11388.50 14798.40 2027.78 o
0 13 -5 11388.40 14008.00 1411.96 o
0 13 -5 11388.40 9859.19 2051.64 o
0 -13 -5 11388.50 10608.80 940.63 o
0 13 6 5833.46 5018.35 1021.29 o
0 13 6 5833.46 4929.60 928.65 o
0 -13 6 5833.47 6469.65 1129.82 o
0 -13 -6 5833.46 5863.94 1508.58 o
0 13 -6 5833.47 3582.65 1434.12 <
0 13 -6 5833.47 6744.31 1165.81 o
0 13 7 291.27 724.45 573.47 <
0 13 7 291.27 1477.68 703.29 <
0 -13 7 291.27 918.75 673.69 <
0 13 -7 291.27 622.50 734.69 <
0 -13 -7 291.27 -419.80 870.49 <
0 -13 8 3908.25 3298.39 1038.84 o
0 13 -8 3908.25 3286.40 1086.68 o
0 -14 0 4437.42 5405.77 827.84 o
0 -14 0 4437.42 3863.32 557.05 o
0 -14 0 4437.42 5528.10 1048.67 o
0 -14 0 4437.42 5636.05 1035.04 o
0 -14 0 4437.42 4188.36 805.59 o
0 14 0 4437.42 2839.02 719.86 o
0 -14 0 4437.42 5765.59 835.11 o
0 14 0 4437.42 4706.51 1005.75 o
0 -14 1 43688.60 43855.40 2684.96 o
0 -14 -1 43688.70 47535.20 2752.81 o
0 -14 -1 43688.70 42372.90 2656.52 o
0 14 -1 43688.60 46125.90 2180.95 o
0 14 -1 43688.60 41233.50 2959.93 o
0 -14 -1 43688.70 47596.40 2128.20 o
0 -14 1 43688.60 43436.80 2897.28 o
0 14 1 43688.70 37961.50 2619.54 o
0 14 1 43688.70 43845.80 2692.56 o
0 -14 1 43688.60 52402.50 2026.29 o
0 -14 -1 43688.70 41147.10 2196.10 o
0 -14 1 43688.60 49268.40 2068.66 o
0 14 2 4403.37 5468.13 927.56 o
0 -14 -2 4403.37 4094.80 888.67 o
0 -14 -2 4403.37 4555.38 1056.33 o
0 -14 2 4403.38 4388.66 761.83 o
0 14 -2 4403.38 4650.13 1068.55 o
0 -14 -2 4403.37 4069.62 681.40 o
0 14 2 4403.37 4514.60 967.89 o
0 14 2 4403.37 4441.43 921.91 o
0 -14 2 4403.38 3389.55 446.58 o
0 -14 2 4403.38 4369.47 895.16 o
0 14 -2 4403.38 3949.67 721.07 o
0 14 3 10034.70 11148.60 1254.62 o
0 14 3 10034.70 10739.60 1349.43 o
0 14 -3 10034.60 9000.41 1679.85 o
0 -14 -3 10034.70 9941.95 967.83 o
0 14 3 10034.70 8908.06 1353.62 o
0 14 -3 10034.60 9874.79 1130.82 o
0 -14 3 10034.60 10815.10 1136.57 o
0 -14 -3 10034.70 10730.00 1621.64 o
0 -14 -4 2474.14 1698.37 449.56 o
0 -14 -4 2474.14 1819.51 952.11 <
0 14 -4 2474.09 2915.78 721.59 o
0 14 4 2474.14 2378.44 780.33 o
0 14 4 2474.14 2445.61 665.93 o
0 14 -4 2474.09 1462.09 806.65 <
0 -14 4 2474.09 2560.75 654.08 o
0 -14 -5 2813.36 2388.04 475.63 o
0 -14 -5 2813.36 4813.25 1393.91 o
0 -14 5 2813.43 2799.44 712.59 o
0 14 -5 2813.43 2587.14 1165.87 <
0 14 -5 2813.43 3924.49 861.04 o
0 14 5 2813.36 3047.71 868.85 o
0 14 5 2813.36 3182.05 766.50 o
0 14 6 1003.36 792.81 520.19 <
0 14 -6 1003.33 2049.80 821.21 <
0 14 -6 1003.33 -80.36 1031.07 <
0 -14 6 1003.33 1301.37 666.79 <
0 -14 -6 1003.36 407.80 896.93 <
0 14 6 1003.36 688.46 536.06 <
0 14 7 12178.90 15424.50 1606.28 o
0 14 -7 12179.00 16111.70 1834.85 o
0 -14 -7 12178.90 10962.70 2279.10 o
0 -14 7 12179.00 16074.60 1783.24 o
0 15 -1 93.76 41.98 363.44 <
0 -15 -1 93.76 271.07 352.37 <
0 -15 1 93.76 524.14 450.11 <
0 15 1 93.76 -83.96 497.75 <
0 15 1 93.76 117.54 152.29 <
0 15 1 93.76 -386.21 580.07 <
0 -15 1 93.76 117.54 477.35 <
0 -15 -1 93.76 253.08 534.80 <
0 -15 -1 93.76 303.45 499.92 <
0 15 -1 93.76 -290.26 539.47 <
0 15 2 3954.07 4626.15 962.98 o
0 -15 2 3954.12 4514.60 992.06 o
0 -15 2 3954.12 3438.72 457.26 o
0 -15 -2 3954.07 5126.30 1141.02 o
0 -15 2 3954.12 4032.43 785.86 o
0 15 -2 3954.12 3934.08 749.89 o
0 -15 -2 3954.07 2743.06 800.72 o
0 15 2 3954.07 3687.00 884.31 o
0 -15 -2 3954.07 3677.41 665.85 o
0 15 2 3954.07 6443.26 1031.88 o
0 15 -2 3954.12 3870.51 1090.99 o
0 15 -3 3227.56 3361.96 1169.71 <
0 15 -3 3227.56 3325.98 766.61 o
0 -15 -3 3227.58 3273.20 1010.75 o
0 -15 3 3227.56 4008.45 777.84 o
0 15 3 3227.58 3833.33 919.02 o
0 -15 -3 3227.58 3315.18 623.79 o
0 15 3 3227.58 4197.95 836.06 o
0 15 4 134.99 -112.75 440.17 <
0 -15 -4 134.99 209.90 330.94 <
0 -15 4 134.99 -473.77 510.19 <
0 15 -4 134.99 319.04 413.52 <
0 -15 -4 134.99 -133.13 696.84 <
0 15 -4 134.99 507.35 695.17 <
0 15 4 134.99 -37.18 436.61 <
0 15 -5 11959.80 11128.20 2157.53 o
0 -15 -5 11959.60 16050.60 2185.08 o
0 -15 5 11959.80 14168.70 1509.17 o
0 15 -5 11959.80 14973.50 1531.83 o
0 15 5 11959.60 12321.60 1558.45 o
0 -15 -5 11959.60 11376.50 1044.72 o
0 15 5 11959.60 12669.40 1462.06 o
0 15 6 48.97 531.34 636.22 <
0 15 6 48.97 -556.53 609.59 <
0 15 -6 48.97 199.10 485.65 <
0 15 -6 48.97 -615.30 1058.44 <
0 -15 -6 48.97 1204.21 967.98 <
0 -15 6 48.97 -646.48 622.49 <
0 15 -7 2767.53 3567.06 1060.32 o
0 15 7 2767.56 2292.08 863.23 <
0 -15 -7 2767.56 1221.00 1143.89 <
0 -15 7 2767.53 2841.41 954.21 <
0 -16 0 1704.32 2727.47 856.77 o
0 16 0 1704.32 -373.02 787.06 <
0 -16 0 1704.32 1466.89 647.85 <
0 -16 0 1704.32 1459.69 376.63 o
0 16 0 1704.32 2410.82 840.01 <
0 -16 1 8287.82 7371.61 1181.41 o
0 -16 1 8287.82 8223.19 1305.94 o
0 16 1 8287.72 10617.20 1372.19 o
0 16 -1 8287.82 8683.77 1409.56 o
0 -16 -1 8287.72 8599.81 1392.76 o
0 -16 -1 8287.72 7842.98 1079.01 o
0 -16 1 8287.82 9390.22 1129.29 o
0 16 -1 8287.82 7633.08 1400.16 o
0 16 1 8287.72 9210.31 1443.70 o
0 -16 -2 387.61 200.30 565.13 <
0 -16 -2 387.61 375.42 363.45 <
0 -16 2 387.58 213.50 452.43 <
0 -16 -2 387.61 -343.03 575.56 <
0 16 -2 387.58 -194.30 750.90 <
0 16 2 387.61 2642.31 872.32 <
0 -16 2 387.58 540.94 239.13 <
0 16 2 387.61 1042.29 729.87 <
0 16 -2 387.58 604.51 503.20 <
0 -16 2 387.58 474.97 456.77 <
0 -16 3 85.92 -504.95 565.32 <
0 16 3 85.92 173.91 484.50 <
0 16 -3 85.92 -121.14 413.75 <
0 -16 -3 85.92 -166.72 377.70 <
0 -16 -3 85.92 979.92 825.83 <
0 16 3 85.92 -167.92 480.87 <
0 16 -3 85.92 206.30 731.58 <
0 -16 3 85.92 470.17 435.86 <
0 16 4 3095.54 3495.10 857.43 o
0 16 -4 3095.53 2970.95 1182.19 <
0 16 -4 3095.53 3443.52 789.30 o
0 -16 4 3095.53 3367.96 753.99 o
0 16 4 3095.54 4404.25 1076.35 o
0 -16 -4 3095.54 1603.62 471.99 o
0 -16 -4 3095.54 1923.86 1012.76 <
0 -16 5 3201.74 4482.22 946.46 o
0 16 -5 3201.74 4006.05 919.33 o
0 -16 -5 3201.76 3066.90 633.68 o
0 16 -5 3201.74 1766.74 1266.70 <
0 -16 -5 3201.76 4647.73 1380.89 o
0 16 5 3201.76 3029.72 923.73 o
0 16 5 3201.76 4291.51 949.98 o
0 16 -6 42.21 936.74 720.15 <
0 16 6 42.21 -1092.67 758.80 <
0 16 -6 42.21 253.08 879.07 <
0 -16 6 42.21 -479.77 679.46 <
0 -16 -6 42.21 1657.59 1048.96 <
0 16 7 245.41 -1014.71 771.29 <
0 -16 7 245.42 -1577.23 835.51 <
0 -16 -7 245.41 -498.96 1157.09 <
0 16 -7 245.42 688.46 786.09 <
0 17 -1 9994.76 8451.08 1481.09 o
0 17 1 9994.58 11336.90 1671.52 o
0 -17 -1 9994.58 11756.70 1605.65 o
0 17 -1 9994.76 9939.55 1611.63 o
0 -17 -1 9994.58 9542.55 1212.91 o
0 -17 1 9994.76 10989.00 1523.45 o
0 -17 1 9994.76 10979.40 1253.86 o
0 -17 1 9994.76 9585.73 1333.73 o
0 17 1 9994.58 13578.60 1526.99 o
0 -17 -2 302.09 1546.05 851.22 <
0 -17 -2 302.09 436.59 409.89 <
0 -17 2 302.08 131.94 493.12 <
0 -17 2 302.08 199.10 278.47 <
0 -17 2 302.08 480.97 437.37 <
0 17 2 302.09 2155.35 889.51 <
0 17 -2 302.08 61.17 431.98 <
0 17 2 302.09 1043.49 772.99 <
0 17 -2 302.08 305.85 650.08 <
0 -17 -3 29722.00 28341.00 1894.58 o
0 -17 3 29722.10 28579.70 2620.02 o
0 17 -3 29722.10 28104.70 3085.17 o
0 -17 -3 29722.00 32997.10 2950.72 o
0 17 3 29722.00 32264.30 2272.82 o
0 -17 3 29722.10 34244.50 2114.66 o
0 17 -3 29722.10 34228.90 2098.50 o
0 17 3 29722.00 32366.20 2544.57 o
0 17 4 25.01 1856.69 768.93 <
0 17 -4 25.00 189.51 504.85 <
0 17 4 25.01 770.03 629.41 <
0 -17 -4 25.01 -40.78 726.84 <
0 -17 -4 25.01 29.99 361.02 <
0 -17 4 25.00 567.32 577.25 <
0 17 -4 25.00 -177.51 774.75 <
0 -17 -5 12457.50 18605.30 2412.35 o
0 -17 5 12457.30 15532.40 1662.77 o
0 17 -5 12457.30 11149.80 2522.43 o
0 17 5 12457.50 14805.60 1638.85 o
0 17 -5 12457.30 15822.70 1695.71 o
0 17 5 12457.50 14590.90 1778.80 o
0 17 6 6001.09 6263.35 1219.02 o
0 -17 -6 6001.09 8881.67 1964.55 o
0 -17 6 6001.13 5783.58 1172.04 o
0 17 -6 6001.13 7046.56 1287.18 o
0 17 7 178.33 -1592.82 921.03 <
0 18 0 3881.82 2150.55 714.11 o
0 -18 0 3881.82 4167.97 1092.51 o
0 -18 0 3881.82 4274.72 962.68 o
0 18 0 3881.82 3312.79 999.11 o
0 -18 0 3881.82 2534.36 465.02 o
0 -18 1 41026.80 47606.00 2967.51 o
0 18 1 41026.50 42159.40 3171.62 o
0 18 -1 41026.80 37605.30 3214.24 o
0 -18 1 41026.80 46151.10 2420.13 o
0 -18 1 41026.80 36627.70 2725.72 o
0 -18 -1 41026.50 47251.00 3124.15 o
0 -18 -1 41026.50 36805.30 2495.54 o
0 18 1 41026.50 46215.90 2704.98 o
0 18 -1 41026.80 37861.90 3327.28 o
0 -18 2 1.41 -47.98 480.96 <
0 -18 2 1.41 -230.29 495.17 <
0 -18 -2 1.41 274.67 449.51 <
0 18 -2 1.41 -178.71 453.25 <
0 18 2 1.41 1886.68 859.38 <
0 -18 -2 1.41 784.42 822.80 <
0 -18 2 1.41 -45.58 558.92 <
0 18 -2 1.41 1151.44 863.53 <
0 18 2 1.41 1107.06 766.27 <
0 18 3 1518.70 1464.49 857.81 <
0 18 3 1518.70 2715.48 838.89 o
0 18 -3 1518.82 2284.89 750.68 o
0 18 -3 1518.82 2608.73 1204.14 <
0 -18 3 1518.82 2154.15 726.38 <
0 -18 -3 1518.70 1979.04 955.02 <
0 -18 -3 1518.70 1686.38 604.62 <
0 -18 3 1518.82 1399.72 798.13 <
0 -18 4 9282.19 8339.53 1581.27 o
0 -18 -4 9282.41 8317.95 1182.86 o
0 18 -4 9282.19 9036.40 2028.47 o
0 18 4 9282.41 10469.70 1575.91 o
0 18 4 9282.41 11779.50 1501.78 o
0 -18 -4 9282.41 8212.40 1775.58 o
0 18 -4 9282.19 9702.07 1333.74 o
0 -18 4 9282.19 9126.35 1365.05 o
0 18 -5 12607.70 10921.90 2521.67 o
0 -18 -5 12607.70 17633.80 2426.30 o
0 18 -5 12607.70 14130.30 1666.36 o
0 18 5 12607.70 14371.40 1688.15 o
0 -18 5 12607.70 14532.10 1693.28 o
0 -18 -6 9580.69 9377.03 2175.46 o
0 18 6 9580.69 8914.05 1451.80 o
0 18 -6 9580.79 10710.80 1605.45 o
0 -19 1 8159.96 10481.70 1586.68 o
0 -19 -1 8159.99 7321.23 1133.83 o
0 19 1 8159.99 11948.60 1584.21 o
0 19 -1 8159.96 7493.95 1416.85 o
0 -19 1 8159.96 9957.55 1261.36 o
0 -19 -1 8159.99 9597.72 1598.45 o
0 19 -1 8159.96 8684.97 1649.91 o
0 19 1 8159.99 7985.71 1444.03 o
0 -19 1 8159.96 7298.44 1284.85 o
0 19 -2 24448.30 26068.10 2033.96 o
0 -19 -2 24448.30 21757.40 1871.79 o
0 19 2 24448.30 26501.10 2574.18 o
0 -19 2 24448.30 29931.40 2029.84 o
0 -19 2 24448.30 17200.80 1849.89 o
0 -19 2 24448.30 21202.10 2230.98 o
0 -19 2 24448.30 24398.50 2424.02 o
0 19 -2 24448.30 23922.30 2817.45 o
0 19 -2 24448.30 24833.90 2745.54 o
0 -19 -2 24448.30 28279.80 2745.21 o
0 19 2 24448.30 27987.20 2199.28 o
0 -19 3 28111.70 26701.40 2680.45 o
0 -19 3 28111.70 34688.30 2286.50 o
0 -19 -3 28111.70 25828.20 1990.09 o
0 19 3 28111.70 33075.10 2417.81 o
0 -19 3 28111.70 25848.60 2577.85 o
0 19 3 28111.70 33016.30 2720.88 o
0 -19 -3 28111.70 30143.70 3090.32 o
0 19 -3 28111.70 26980.80 3230.31 o
0 19 -3 28111.70 29955.40 2196.57 o
0 -19 4 14279.00 12938.10 2029.16 o
0 19 -4 14279.00 14463.70 1653.73 o
0 -19 4 14279.00 16848.20 1764.49 o
0 19 4 14278.90 16793.00 1833.71 o
0 -19 -4 14278.90 14003.20 2269.81 o
0 19 -4 14279.00 11846.60 2417.60 o
0 19 4 14278.90 15798.70 2017.54 o
0 -19 4 14279.00 8654.98 1711.56 o
0 -19 -4 14278.90 12472.70 1380.24 o
0 -19 -5 2406.80 6091.83 1599.74 o
0 19 5 2406.80 2475.59 913.51 <
0 -19 5 2406.78 3170.05 1015.46 o
0 19 -5 2406.78 3325.98 981.55 o
0 -19 5 2406.78 2382.04 1129.97 <
0 -19 -6 1074.19 1224.60 1299.84 <
0 19 6 1074.19 1019.50 789.39 <
0 20 0 62633.40 61804.70 4277.30 o
0 20 0 62633.40 53008.20 3919.70 o
0 -20 0 62633.40 56221.40 3519.20 o
0 -20 0 62633.40 73250.70 3875.45 o
0 -20 1 7156.20 7618.69 1368.49 o
0 20 1 7156.36 9061.58 1658.51 o
0 20 -1 7156.20 4123.59 1063.63 o
0 20 1 7156.36 10840.30 1555.92 o
0 20 -1 7156.20 8340.73 1691.06 o
0 -20 1 7156.20 7726.63 1433.32 o
0 -20 -1 7156.36 6674.75 1133.24 o
0 -20 -1 7156.36 8286.76 1357.61 o
0 -20 2 12368.80 9294.27 1667.90 o
0 20 -2 12368.80 12911.70 2182.55 o
0 -20 2 12368.80 14053.50 1560.65 o
0 20 -2 12368.80 10157.80 1769.73 o
0 -20 -2 12369.20 10895.50 1376.52 o
0 20 2 12369.20 14376.20 1737.54 o
0 -20 2 12368.80 14474.50 1898.34 o
0 -20 -2 12369.20 16421.20 2235.86 o
0 20 2 12369.20 13246.30 1907.22 o
0 20 -3 4342.59 2878.60 794.65 o
0 20 3 4342.44 5237.85 1160.32 o
0 20 3 4342.44 5362.59 1329.33 o
0 20 -3 4342.59 4828.85 1666.32 <
0 -20 -3 4342.44 4148.78 852.68 o
0 -20 3 4342.59 4591.36 1016.86 o
0 -20 -3 4342.44 4449.83 1292.09 o
0 -20 3 4342.59 3710.99 1155.40 o
0 -20 3 4342.59 4365.87 1151.23 o
0 -20 4 9155.70 10305.40 1531.88 o
0 20 4 9155.55 10141.10 1556.39 o
0 -20 -4 9155.55 7917.34 1778.32 o
0 20 -4 9155.70 10709.60 1461.50 o
0 -20 4 9155.70 7194.09 1607.58 o
0 20 5 14351.60 15474.90 1863.77 o
0 -20 -5 14351.60 19402.90 2630.24 o
0 -20 5 14351.50 13337.50 2210.04 o
0 21 -1 569.17 -966.73 1167.01 <
0 -21 1 569.17 273.47 600.15 <
0 -21 -1 569.16 1436.90 981.09 <
0 -21 1 569.17 687.27 727.79 <
0 21 1 569.16 1207.81 760.83 <
0 -21 -1 569.16 -100.75 531.79 <
0 21 1 569.16 3017.73 1096.52 <
0 21 -1 569.17 943.94 880.73 <
0 -21 2 13837.30 17799.30 1789.15 o
0 -21 2 13837.30 13792.10 1851.51 o
0 -21 -2 13837.20 13070.00 1535.72 o
0 21 2 13837.20 15249.40 2135.62 o
0 21 -2 13837.30 12886.50 2146.64 o
0 -21 2 13837.30 17073.70 2122.80 o
0 -21 -2 13837.20 18616.10 2449.93 o
0 21 2 13837.20 15609.20 1876.94 o
0 21 -2 13837.30 14689.20 2428.71 o
0 21 3 196.38 -350.23 802.17 <
0 -21 -3 196.38 407.80 533.42 <
0 -21 3 196.38 -792.81 775.80 <
0 -21 -3 196.38 834.79 948.93 <
0 -21 3 196.38 1338.55 741.30 <
0 21 -3 196.38 -1621.61 779.61 <
0 21 -3 196.38 963.13 1055.45 <
0 21 3 196.38 1092.67 831.54 <
0 -21 -4 11372.80 10846.30 2118.75 o
0 21 4 11372.80 12977.70 2509.34 o
0 -21 4 11372.70 10901.50 1910.03 o
0 22 0 77.94 118.74 915.14 <
0 -22 0 77.94 1241.39 745.24 <
0 -22 0 77.94 -644.09 767.86 <
0 -22 1 2641.67 2704.68 1076.70 <
0 22 1 2641.67 3685.80 1300.95 <
0 -22 -1 2641.67 2395.23 856.90 <
0 -22 -1 2641.67 2603.93 1257.18 <
0 22 -1 2641.67 4297.50 1594.31 <
0 22 -2 133.40 2619.52 1320.89 <
0 -22 2 133.40 1648.00 956.40 <
0 -22 -2 133.40 135.53 742.44 <
0 22 2 133.40 -465.37 847.54 <
0 -22 -2 133.40 359.83 607.85 <
0 -22 -3 678.80 859.98 1004.76 <
0 -22 -3 678.80 1181.42 772.04 <
0 -22 3 678.82 891.17 677.05 <
0 -22 -4 316.54 -309.45 1098.58 <
0 -23 1 1046.06 591.31 795.03 <
0 -23 -1 1046.03 1589.23 926.37 <
0 23 1 1046.03 526.54 906.52 <
0 23 2 6271.50 4443.83 1464.11 o
0 -23 -2 6271.50 4880.42 1451.64 o
-1 0 10 16472.20 22733.70 2436.58 o
1 0 -9 748.00 1216.21 744.44 <
-1 0 9 748.00 249.48 631.68 <
1 0 -8 1699.95 6847.46 1337.54 o
1 0 -8 1699.95 1682.78 640.60 <
-1 0 8 1699.95 7436.38 1499.76 o
-1 0 7 183.13 516.95 791.20 <
1 0 -7 183.13 774.82 600.74 <
-1 0 7 183.13 562.53 675.88 <
-1 0 6 31542.30 36469.40 2779.77 o
1 0 -6 31542.30 34189.30 2137.72 o
-1 0 6 31542.30 34588.70 2306.76 o
-1 0 6 31542.30 31544.60 2882.14 o
1 0 -6 31542.30 33745.60 1528.15 o
-1 0 5 1066.38 572.12 487.56 <
1 0 -5 1066.38 2109.77 441.09 o
1 0 -5 1066.38 281.86 350.76 <
1 0 -4 120421.00 114044.00 3720.51 o
1 0 -4 120421.00 120536.00 2278.66 o
-1 0 4 120421.00 124277.00 3403.50 o
1 0 -3 29703.90 28378.20 1007.14 o
1 0 -3 29703.90 24506.50 1526.26 o
-1 0 3 29703.90 25412.00 1658.53 o
-1 0 3 29703.90 24560.40 1636.78 o
1 0 -2 71937.60 64214.30 2609.88 o
-1 0 2 71937.60 66947.80 2183.78 o
1 0 -2 71937.60 70579.60 1805.14 o
-1 0 2 71937.60 65029.90 2010.06 o
-1 0 2 71937.60 71203.30 2023.07 o
1 0 -1 59140.90 59106.00 1226.25 o
1 0 -1 59140.90 58507.50 1005.81 o
-1 0 1 59140.90 61864.60 881.50 o
-1 0 1 59140.90 61809.50 665.28 o
-1 0 1 59140.90 56360.50 1285.81 o
1 0 0 29767.00 33540.40 366.54 o
-1 0 0 29767.00 33799.50 2002.32 o
-1 0 0 29767.00 32935.90 408.24 o
1 0 0 29767.00 34153.40 2023.98 o
-1 0 0 29767.00 33065.50 474.58 o
-1 0 0 29767.00 33360.50 599.19 o
-1 0 0 29767.00 31816.90 595.78 o
1 0 0 29767.00 32900.00 464.56 o
1 0 1 12092.00 12415.10 412.88 o
1 0 1 12092.00 13497.00 526.84 o
-1 0 -1 12092.00 11599.50 865.40 o
1 0 1 12092.00 13011.30 860.38 o
-1 0 -1 12092.00 12699.40 339.88 o
-1 0 -1 12092.00 13290.70 553.08 o
1 0 1 12092.00 12578.30 730.05 o
1 0 2 139.64 -101.95 339.42 <
1 0 2 139.64 103.15 355.05 <
-1 0 -2 139.64 374.22 329.33 <
1 0 2 139.64 188.31 244.60 <
1 0 2 139.64 49.18 110.50 <
-1 0 -2 139.64 333.44 339.07 <
1 0 2 139.64 215.90 260.14 <
-1 0 -2 139.64 344.23 265.76 <
-1 0 -2 139.64 218.29 274.53 <
1 0 3 1219.33 788.02 399.43 <
-1 0 -3 1219.33 2059.40 526.98 o
1 0 3 1219.33 882.77 519.70 <
-1 0 -3 1219.33 446.18 497.99 <
1 0 3 1219.33 1452.49 482.97 <
1 0 3 1219.33 777.22 394.70 <
-1 0 -3 1219.33 987.12 447.51 <
1 0 4 40568.80 45954.40 2124.95 o
-1 0 -4 40568.80 44686.60 2097.03 o
1 0 4 40568.80 30679.80 2339.35 o
-1 0 -5 656.80 375.42 498.39 <
1 0 5 656.80 -8.40 405.06 <
1 0 5 656.80 391.01 723.67 <
-1 0 -5 656.80 856.38 517.42 <
1 0 5 656.80 951.14 574.67 <
-1 0 -6 38766.10 44807.80 2422.42 o
1 0 6 38766.10 45391.90 2544.97 o
-1 0 -6 38766.10 40835.30 2342.81 o
1 0 6 38766.10 38590.00 2739.44 o
1 0 6 38766.10 38785.50 1519.67 o
1 0 7 16177.20 15970.20 881.07 o
1 0 7 16177.20 23949.90 2002.58 o
1 0 7 16177.20 17182.80 951.29 o
-1 0 -7 16177.20 20573.60 1887.05 o
1 0 7 16177.20 20635.90 2102.00 o
-1 0 -8 1906.80 3784.16 1041.92 o
1 0 8 1906.80 3441.12 1035.52 o
-1 0 -9 21293.20 27831.20 2361.25 o
1 0 9 21293.20 26779.30 2401.24 o
-1 1 10 2222.55 5744.00 1631.69 o
-1 -1 10 2222.55 5955.10 1497.74 o
1 1 -9 162.72 871.97 728.96 <
-1 -1 9 162.72 -584.11 823.28 <
-1 1 9 162.71 -388.61 582.49 <
1 -1 -9 162.71 573.32 586.98 <
-1 1 8 19464.00 25498.40 2224.45 o
1 -1 -8 19464.00 23948.70 2049.01 o
1 -1 -8 19464.00 20585.60 1563.20 o
1 1 -8 19464.00 19983.50 1574.82 o
-1 -1 8 19464.00 23747.20 2189.70 o
1 1 -8 19464.00 22375.10 2023.99 o
-1 1 7 499.06 1336.15 779.30 <
-1 -1 7 499.06 504.95 584.10 <
1 1 -7 499.06 906.76 623.69 <
-1 1 7 499.06 -267.47 706.55 <
1 -1 -7 499.06 442.58 535.06 <
-1 -1 7 499.06 1837.50 892.17 <
1 1 -7 499.06 1851.90 542.21 o
-1 -1 6 19745.00 18136.40 2236.99 o
1 -1 -6 19745.00 17354.30 1323.76 o
1 1 -6 19745.00 19687.20 1661.64 o
-1 -1 6 19745.00 23666.90 2339.32 o
-1 1 6 19745.00 22838.10 2304.43 o
1 -1 -6 19745.00 23249.50 1783.00 o
-1 -1 6 19745.00 21295.60 1829.29 o
-1 1 6 19745.00 23119.90 2007.31 o
-1 -1 5 2961.86 2401.23 824.63 <
-1 1 5 2961.84 3026.12 913.45 o
-1 1 5 2961.84 4063.62 905.62 o
1 1 -5 2961.86 3226.43 490.11 o
1 1 -5 2961.86 2373.64 576.05 o
-1 -1 5 2961.86 3328.38 739.84 o
1 -1 -5 2961.84 2036.61 416.89 o
1 -1 -5 2961.84 4179.96 803.18 o
1 1 -4 1729.15 1381.73 410.85 o
1 1 -4 1729.15 1368.53 293.48 o
-1 -1 4 1729.15 1704.37 500.36 o
-1 -1 4 1729.15 1618.01 184.72 o
1 -1 -4 1729.13 1180.22 297.56 o
-1 1 4 1729.13 1474.08 615.65 <
1 -1 -4 1729.13 1833.91 535.29 o
-1 1 4 1729.13 1739.15 572.05 o
1 -1 -3 2482.45 2089.38 475.79 o
-1 1 3 2482.45 2440.81 559.37 o
-1 -1 3 2482.47 1892.68 237.11 o
-1 1 3 2482.45 1977.84 667.18 <
1 -1 -3 2482.45 1630.01 262.45 o
1 1 -3 2482.47 2148.15 403.92 o
-1 -1 3 2482.47 2498.38 471.17 o
-1 -1 2 9344.12 7744.62 645.02 o
1 -1 -2 9344.14 7663.06 697.03 o
-1 1 2 9344.14 8144.03 599.12 o
-1 -1 2 9344.12 8192.01 636.90 o
1 1 -2 9344.12 7908.94 454.90 o
-1 1 2 9344.14 8075.66 790.28 o
1 1 -2 9344.12 9224.70 594.59 o
1 1 -1 1046.83 1495.67 216.49 o
1 -1 -1 1046.83 689.66 164.98 o
1 -1 -1 1046.83 689.66 173.17 o
1 1 -1 1046.83 911.56 187.57 o
1 1 -1 1046.83 877.97 158.33 o
-1 -1 1 1046.83 891.17 167.63 o
-1 -1 1 1046.83 735.24 155.22 o
-1 -1 1 1046.83 867.18 189.23 o
-1 1 0 36727.50 35737.80 1059.35 o
-1 -1 0 36727.50 34992.90 951.75 o
1 1 0 36727.50 36338.70 739.60 o
1 -1 0 36727.50 43814.60 2519.36 o
1 1 0 36727.50 43240.10 2507.79 o
-1 -1 0 36727.50 38628.40 365.97 o
1 1 0 36727.50 39824.20 830.14 o
1 -1 0 36727.50 40331.50 655.39 o
1 1 0 36727.50 40236.80 547.56 o
-1 -1 0 36727.50 42015.50 123.37 o
-1 1 0 36727.50 40638.60 589.86 o
-1 1 0 36727.50 40390.30 710.82 o
-1 -1 0 36727.50 37518.90 753.27 o
-1 1 0 36727.50 37926.70 876.29 o
1 1 0 36727.50 41538.10 248.51 o
-1 1 0 36727.50 40605.00 772.59 o
-1 -1 0 36727.50 40630.20 751.21 o
1 -1 1 8751.28 9415.41 733.52 o
-1 1 -1 8751.28 8046.88 562.79 o
-1 -1 -1 8751.28 8890.07 746.90 o
-1 1 -1 8751.28 8951.24 613.18 o
-1 1 -1 8751.28 8547.03 717.17 o
1 1 1 8751.28 9320.66 764.67 o
1 1 1 8751.28 10177.00 625.47 o
1 -1 1 8751.28 9307.46 486.54 o
-1 1 -1 8751.28 8822.90 419.81 o
1 -1 1 8751.28 8872.08 562.79 o
-1 1 -1 8751.28 7880.16 565.97 o
1 -1 1 8751.28 8541.04 440.57 o
1 -1 1 8751.28 9000.41 599.27 o
1 -1 2 33640.10 31651.40 1242.86 o
-1 -1 -2 33640.10 29141.00 1637.63 o
1 1 2 33640.10 34110.20 1931.72 o
-1 -1 -2 33640.10 37559.70 1661.56 o
1 -1 2 33640.10 36462.20 1400.46 o
1 -1 2 33640.10 33857.10 942.24 o
1 -1 2 33640.10 30741.00 1512.59 o
-1 1 -2 33640.10 32573.70 1492.09 o
1 -1 2 33640.10 30867.00 1928.92 o
-1 1 -2 33640.10 31421.10 1512.73 o
1 1 2 33640.10 34382.40 1237.57 o
1 1 2 33640.10 35440.30 1283.78 o
-1 1 -2 33640.10 33184.20 1568.28 o
-1 -1 -3 11579.00 12044.50 1113.18 o
1 -1 3 11579.10 10148.30 1001.45 o
1 -1 3 11579.10 10563.30 1087.40 o
-1 -1 -3 11579.00 9477.78 1282.08 o
-1 1 -3 11579.10 11405.20 983.60 o
1 -1 3 11579.10 11053.80 1321.71 o
-1 -1 -3 11579.00 9640.90 1010.45 o
1 1 3 11579.00 10226.20 1337.14 o
-1 1 -3 11579.10 11040.60 1038.36 o
1 1 3 11579.00 9682.88 460.84 o
1 1 3 11579.00 8681.37 970.17 o
1 1 3 11579.00 11363.30 984.75 o
-1 1 -3 11579.10 10125.50 1176.15 o
1 -1 3 11579.10 9872.39 746.91 o
-1 1 -4 11823.50 11762.70 1179.29 o
1 1 4 11823.50 8654.98 1373.04 o
1 1 4 11823.50 10859.50 1275.04 o
1 -1 4 11823.50 8449.88 1169.35 o
-1 -1 -4 11823.50 11536.00 1221.60 o
1 1 4 11823.50 11525.20 1110.98 o
1 -1 4 11823.50 10667.60 1159.01 o
1 -1 4 11823.50 10313.80 768.84 o
1 1 4 11823.50 8972.83 1145.18 o
1 -1 5 11622.60 13426.30 1382.93 o
-1 1 -5 11622.60 13513.80 1322.64 o
1 -1 5 11622.60 8680.17 1284.84 o
1 1 5 11622.60 13182.80 1423.15 o
-1 -1 -5 11622.60 9992.33 1194.85 o
-1 1 -5 11622.60 14107.50 1210.01 o
1 -1 5 11622.60 11707.50 789.81 o
1 -1 5 11622.60 16898.60 1960.33 o
-1 -1 -5 11622.60 12288.00 1387.09 o
1 1 5 11622.60 10713.20 1699.39 o
1 1 5 11622.60 12523.10 1395.30 o
1 -1 6 257.98 2367.65 882.87 <
1 1 6 257.98 2463.60 983.86 <
-1 1 -6 257.98 1716.36 836.86 <
1 -1 6 257.98 267.47 213.47 <
-1 -1 -6 257.98 1380.53 838.76 <
1 -1 6 257.98 555.33 591.96 <
-1 1 -6 257.98 988.32 569.83 <
1 1 6 257.98 838.39 785.67 <
-1 -1 -6 257.98 350.23 563.60 <
-1 -1 -7 3944.04 7483.15 1281.85 o
1 1 7 3944.04 5516.11 632.99 o
1 1 7 3944.04 7574.31 1403.94 o
1 1 7 3944.04 6903.83 1411.02 o
1 -1 7 3944.06 5329.00 1270.71 o
-1 1 -7 3944.06 7735.03 1250.33 o
1 -1 7 3944.06 6442.06 1281.38 o
1 -1 8 4267.70 3227.63 1002.06 o
-1 -1 -8 4267.70 6803.08 1290.36 o
-1 1 -8 4267.70 5649.25 1175.27 o
1 1 8 4267.70 5720.01 1232.67 o
1 -1 9 79.06 2781.44 1206.14 <
1 1 9 79.06 6226.16 1531.51 o
-1 -1 -9 79.06 5409.36 1300.90 o
-1 1 -9 79.06 4461.82 1306.21 o
1 -2 -9 6.11 1061.48 774.91 <
-1 -2 9 6.11 410.20 718.08 <
1 2 -9 6.11 397.01 724.10 <
-1 2 9 6.11 699.26 833.86 <
1 2 -8 203.45 3053.71 1115.83 <
1 -2 -8 203.45 1843.50 700.41 <
1 -2 -8 203.45 4532.59 1252.00 o
-1 -2 8 203.45 2936.17 1265.73 <
-1 2 8 203.45 4658.53 1399.67 o
1 2 -8 203.45 2743.06 769.54 o
-1 2 7 195.73 -220.69 644.00 <
-1 2 7 195.73 1180.22 736.11 <
-1 -2 7 195.73 -115.14 549.34 <
1 2 -7 195.73 768.83 432.35 <
-1 2 7 195.73 317.85 286.38 <
1 -2 -7 195.73 45.58 473.84 <
1 2 -7 195.73 605.71 567.71 <
-1 2 6 941.33 1567.64 852.79 <
-1 -2 6 941.33 819.20 642.08 <
-1 2 6 941.33 391.01 290.48 <
1 -2 -6 941.33 -57.57 395.19 <
-1 -2 6 941.33 1456.09 838.90 <
-1 -2 6 941.33 976.32 648.76 <
-1 2 6 941.33 2245.31 918.60 <
-1 -2 6 941.33 -101.95 459.68 <
1 -2 -6 941.33 1853.10 743.89 <
1 2 -6 941.33 1295.37 569.17 <
1 2 -5 529.40 364.62 300.41 <
-1 2 5 529.39 653.68 641.40 <
1 -2 -5 529.39 295.06 404.72 <
-1 -2 5 529.40 1035.10 676.12 <
-1 2 5 529.39 304.65 234.76 <
1 -2 -5 529.39 154.73 282.75 <
1 2 -5 529.40 273.47 392.77 <
-1 2 5 529.39 714.85 503.18 <
-1 -2 5 529.40 -590.11 617.05 <
-1 2 4 5523.65 4674.12 540.77 o
1 2 -4 5523.68 5045.94 703.00 o
1 -2 -4 5523.65 4629.74 497.88 o
1 -2 -4 5523.65 5284.62 848.03 o
-1 2 4 5523.65 5297.82 523.74 o
-1 2 4 5523.65 4820.45 843.77 o
-1 2 4 5523.65 6137.41 1081.01 o
-1 -2 4 5523.68 4320.29 702.16 o
-1 -2 4 5523.68 6003.07 1122.68 o
-1 2 3 3324.16 3177.25 703.28 o
1 -2 -3 3324.16 2885.79 303.36 o
-1 -2 3 3324.16 2602.73 701.51 o
1 -2 -3 3324.16 3191.64 605.01 o
-1 2 3 3324.16 2795.84 411.08 o
-1 -2 3 3324.16 2442.01 422.93 o
1 2 -3 3324.16 3118.48 467.55 o
-1 2 3 3324.16 3449.52 324.29 o
-1 -2 2 3728.26 4278.31 444.99 o
1 -2 -2 3728.23 3028.52 258.43 o
1 2 -2 3728.26 3693.00 410.96 o
-1 2 2 3728.23 3854.92 592.96 o
1 -2 -2 3728.23 3110.08 359.39 o
-1 2 2 3728.23 3077.70 234.20 o
-1 2 2 3728.23 3715.79 403.28 o
1 2 -1 3508.74 3670.21 302.45 o
-1 2 1 3508.75 4454.63 341.75 o
-1 -2 1 3508.74 3391.95 290.00 o
1 2 -1 3508.74 3105.29 291.63 o
1 -2 -1 3508.75 4207.55 303.84 o
-1 -2 1 3508.74 2045.00 358.02 o
1 -2 -1 3508.75 3841.73 330.53 o
1 2 -1 3508.74 2843.81 303.25 o
-1 2 1 3508.75 3501.09 327.64 o
-1 2 1 3508.75 3478.30 370.11 o
-1 -2 1 3508.74 3591.05 292.66 o
-1 -2 0 1833.59 1812.32 243.86 o
1 2 0 1833.59 1879.48 189.63 o
-1 2 0 1833.58 1967.04 309.87 o
-1 -2 0 1833.59 1943.05 231.74 o
-1 2 0 1833.58 2097.78 151.32 o
1 -2 0 1833.58 2239.31 318.68 o
-1 -2 0 1833.59 2138.56 336.23 o
1 -2 0 1833.58 2154.15 254.15 o
-1 -2 0 1833.59 2120.57 199.43 o
1 2 0 1833.59 1815.91 229.43 o
1 -2 0 1833.58 1977.84 251.63 o
-1 -2 0 1833.59 2033.01 231.05 o
1 -2 0 1833.58 2307.68 155.29 o
1 2 0 1833.59 1784.73 259.89 o
-1 -2 0 1833.59 2392.83 256.16 o
-1 2 0 1833.58 1920.26 257.55 o
-1 2 -1 274.95 488.16 181.14 <
1 -2 1 274.95 552.93 277.16 <
-1 2 -1 274.95 401.80 146.78 <
1 -2 1 274.95 486.96 189.59 <
1 -2 1 274.95 278.26 254.27 <
-1 2 -1 274.95 241.08 159.65 <
-1 2 -1 274.95 640.49 280.24 <
1 -2 1 274.95 370.62 199.91 <
1 -2 1 274.95 453.38 164.50 <
-1 -2 -1 274.94 527.74 314.59 <
1 2 1 274.94 176.31 194.56 <
1 -2 2 259.15 211.10 337.11 <
1 2 2 259.15 561.33 239.69 <
1 -2 2 259.15 498.96 314.68 <
1 -2 2 259.15 259.07 189.51 <
-1 -2 -2 259.15 -125.94 309.53 <
1 2 2 259.15 1026.70 367.98 <
-1 2 -2 259.15 388.61 255.05 <
-1 2 -2 259.15 562.53 356.48 <
-1 -2 -2 259.15 257.87 317.85 <
-1 2 -2 259.15 217.09 227.99 <
1 -2 2 259.15 17.99 296.45 <
1 -2 2 259.15 307.05 287.74 <
-1 -2 -3 828.63 1492.07 614.41 <
-1 2 -3 828.64 832.39 486.95 <
1 -2 3 828.64 929.55 391.65 <
1 2 3 828.63 753.23 331.46 <
-1 2 -3 828.64 621.30 351.21 <
-1 2 -3 828.64 563.72 346.63 <
-1 -2 -3 828.63 32.38 302.94 <
1 -2 3 828.64 179.91 363.92 <
1 -2 3 828.64 -170.32 265.75 <
1 -2 3 828.64 1006.31 518.57 <
1 -2 3 828.64 904.36 441.02 <
1 2 3 828.63 683.67 321.04 <
1 -2 4 1047.87 -103.15 462.44 <
1 -2 4 1047.87 -28.79 226.99 <
1 -2 4 1047.87 544.53 517.41 <
-1 -2 -4 1047.87 1021.90 495.49 <
-1 2 -4 1047.87 718.45 411.79 <
-1 -2 -4 1047.87 833.59 537.01 <
1 2 4 1047.87 780.82 337.49 <
1 2 4 1047.87 963.13 419.08 <
1 -2 5 151.73 383.81 486.61 <
1 2 5 151.73 -650.08 444.52 <
-1 2 -5 151.73 -190.71 376.49 <
1 2 5 151.73 380.21 495.02 <
-1 -2 -5 151.73 58.77 452.22 <
1 -2 5 151.73 1197.02 725.11 <
-1 -2 -5 151.73 -539.74 558.02 <
1 2 5 151.73 -369.42 548.92 <
1 2 5 151.73 702.86 502.39 <
1 -2 5 151.73 -677.67 506.96 <
-1 2 -5 151.73 81.56 376.66 <
-1 -2 -6 1665.15 1127.45 585.80 <
1 -2 6 1665.14 585.32 457.57 <
-1 2 -6 1665.14 2057.00 729.16 <
1 -2 6 1665.14 2269.29 882.98 <
-1 -2 -6 1665.15 626.09 432.63 <
1 2 6 1665.15 2047.40 765.33 <
-1 2 -6 1665.14 2543.96 698.49 o
1 2 6 1665.15 1622.81 746.26 <
-1 2 -7 2590.04 3445.92 922.54 o
1 2 7 2590.03 3881.31 1024.71 o
1 -2 7 2590.04 2232.11 830.03 <
-1 -2 -7 2590.03 4027.64 1000.14 o
1 -2 7 2590.04 2912.18 1045.02 <
1 2 7 2590.03 4377.87 1082.58 o
-1 2 -8 82.14 1177.83 737.15 <
-1 -2 -8 82.13 2376.04 916.32 <
1 -2 8 82.14 -376.62 640.10 <
1 -2 8 82.14 355.03 334.12 <
1 2 8 82.13 1038.69 772.69 <
1 -2 9 578.90 1758.34 1021.72 <
1 2 9 578.91 2368.85 1083.26 <
-1 2 -9 578.90 2731.07 1022.58 <
-1 -2 -9 578.91 3732.58 1111.74 o
-1 3 9 4867.62 9077.17 1695.22 o
1 3 -9 4867.60 6840.27 1345.76 o
1 -3 -9 4867.62 7991.70 1462.87 o
-1 -3 9 4867.60 8952.44 1614.54 o
-1 -3 8 27355.80 34544.40 2528.91 o
1 3 -8 27355.80 30896.90 2352.59 o
1 -3 -8 27355.80 27683.70 1830.48 o
1 3 -8 27355.80 32804.00 1659.43 o
1 -3 -8 27355.80 35894.90 2414.86 o
-1 3 8 27355.80 38384.90 2647.73 o
1 -3 -7 529.29 287.86 580.89 <
1 3 -7 529.28 806.01 428.29 <
-1 -3 7 529.28 345.43 634.77 <
-1 3 7 529.29 806.01 853.43 <
-1 3 7 529.29 636.89 302.94 <
1 3 -7 529.28 287.86 437.08 <
1 3 -6 61750.30 59054.40 2923.29 o
-1 -3 6 61750.30 72284.00 3762.40 o
-1 3 6 61750.20 62677.80 1920.02 o
1 -3 -6 61750.20 55030.40 2504.62 o
-1 3 6 61750.20 69758.00 3285.58 o
1 -3 -6 61750.20 68973.60 2888.45 o
-1 -3 6 61750.30 59182.70 3224.54 o
-1 3 6 61750.20 78091.50 3669.82 o
-1 -3 6 61750.30 59873.60 3102.06 o
-1 3 5 9.23 -7.20 242.28 <
1 -3 -5 9.23 -169.12 267.28 <
-1 3 5 9.23 425.79 285.66 <
1 3 -5 9.23 181.11 351.28 <
1 3 -5 9.23 -124.74 368.14 <
-1 3 5 9.23 1213.81 856.04 <
1 -3 -5 9.23 35.98 437.78 <
-1 3 5 9.23 -543.34 585.61 <
-1 -3 5 9.23 -266.27 507.10 <
-1 -3 5 9.23 -491.76 529.32 <
-1 3 4 17355.80 17698.60 1707.91 o
-1 3 4 17355.80 16529.10 955.51 o
-1 -3 4 17355.80 17569.00 1296.88 o
1 -3 -4 17355.80 16743.80 905.88 o
1 -3 -4 17355.80 16560.30 1461.45 o
-1 -3 4 17355.80 17506.70 1901.35 o
-1 3 4 17355.80 17476.70 868.57 o
1 3 -4 17355.80 17022.10 1228.63 o
-1 -3 3 4518.29 5109.51 594.09 o
1 -3 -3 4518.26 5757.19 395.90 o
-1 3 3 4518.26 4538.59 382.04 o
-1 3 3 4518.26 5424.96 871.27 o
-1 -3 3 4518.29 3962.87 855.67 o
-1 3 3 4518.26 4717.30 470.27 o
1 3 -3 4518.29 4007.25 267.01 o
1 3 -3 4518.29 5048.34 568.52 o
-1 -3 2 27930.40 26184.40 1794.39 o
1 -3 -2 27930.50 26980.80 1520.37 o
-1 3 2 27930.50 29614.80 928.18 o
1 -3 -2 27930.50 26781.70 1029.08 o
-1 3 2 27930.50 26281.60 851.52 o
-1 3 2 27930.50 29197.40 1392.21 o
1 3 -2 27930.40 26256.40 821.40 o
-1 -3 2 27930.40 26324.80 1110.95 o
1 3 -1 4032.11 4663.33 393.41 o
-1 3 1 4032.05 4975.17 397.70 o
1 -3 -1 4032.05 4320.29 388.35 o
-1 3 1 4032.05 4610.55 346.13 o
-1 -3 1 4032.11 4564.97 365.16 o
1 3 -1 4032.11 4422.24 616.01 o
-1 3 1 4032.05 4195.55 413.48 o
1 -3 -1 4032.05 4421.04 343.56 o
1 3 -1 4032.11 3793.75 468.92 o
1 -3 -1 4032.05 6341.31 396.30 o
-1 -3 1 4032.11 5110.71 604.89 o
-1 3 1 4032.05 5002.76 372.40 o
-1 3 0 144891.00 152580.00 8976.40 o
1 -3 0 144891.00 156037.00 9070.46 o
1 -3 0 144891.00 151513.00 9078.47 o
-1 -3 0 144891.00 160283.00 9229.34 o
-1 -3 0 144891.00 156363.00 9379.79 o
1 -3 0 144891.00 156261.00 9177.82 o
-1 -3 0 144891.00 153350.00 9108.91 o
1 3 0 144891.00 152706.00 8990.47 o
1 -3 0 144891.00 158893.00 9325.82 o
1 3 0 144891.00 149385.00 961.04 o
1 -3 0 144891.00 159014.00 9384.65 o
1 -3 0 144891.00 148418.00 8893.35 o
1 3 0 144891.00 144983.00 2240.65 o
1 3 0 144891.00 162343.00 9346.72 o
-1 -3 0 144891.00 148219.00 731.05 o
1 3 1 9466.66 8517.05 659.75 o
-1 -3 -1 9466.66 9126.35 840.22 o
-1 3 -1 9466.67 8842.09 498.19 o
1 -3 1 9466.67 8714.95 515.74 o
-1 3 -1 9466.67 9548.54 506.07 o
-1 3 -1 9466.67 8678.97 561.12 o
-1 3 -1 9466.67 9609.72 812.77 o
1 -3 1 9466.67 8610.60 486.52 o
1 -3 1 9466.67 9264.28 632.11 o
1 -3 1 9466.67 9495.77 791.98 o
-1 3 -2 63111.80 58355.10 1820.54 o
-1 3 -2 63111.80 61053.80 1842.12 o
-1 -3 -2 63111.70 64581.30 1872.78 o
1 -3 2 63111.80 63506.60 1805.75 o
-1 -3 -2 63111.70 60653.20 2686.16 o
-1 3 -2 63111.80 58488.30 2047.51 o
1 -3 2 63111.80 62813.40 1656.24 o
1 -3 2 63111.80 68035.60 2069.65 o
1 3 2 63111.70 60578.90 2083.90 o
-1 3 -2 63111.80 61280.50 2383.87 o
-1 3 -3 56756.30 51829.10 2800.09 o
1 3 3 56756.20 58882.90 1818.93 o
1 -3 3 56756.30 54980.00 2093.06 o
-1 3 -3 56756.30 57507.20 2125.33 o
-1 -3 -3 56756.20 59807.60 2641.17 o
1 -3 3 56756.30 60203.40 2495.65 o
1 3 3 56756.20 54928.40 2192.67 o
-1 3 -3 56756.30 53022.60 2362.62 o
-1 3 -3 56756.30 51508.90 2234.30 o
1 -3 3 56756.30 54686.10 2310.07 o
-1 -3 -3 56756.20 54887.60 2269.05 o
1 -3 3 56756.30 60036.70 2910.40 o
1 3 4 2072.11 2320.87 543.28 o
1 -3 4 2072.13 2295.68 721.60 o
-1 3 -4 2072.13 1997.03 691.39 <
-1 3 -4 2072.13 1659.99 472.75 o
1 3 4 2072.11 2276.49 564.21 o
-1 -3 -4 2072.11 2124.16 700.08 o
1 -3 4 2072.13 665.67 377.31 <
-1 3 -5 55883.70 61369.30 2283.13 o
-1 -3 -5 55883.80 54761.70 2680.30 o
-1 3 -5 55883.70 55501.70 2585.35 o
-1 -3 -5 55883.80 48793.40 3703.35 o
1 3 5 55883.80 64690.50 2494.63 o
1 -3 5 55883.70 41048.80 3343.54 o
1 3 5 55883.80 57544.40 2435.64 o
-1 -3 -5 55883.80 59606.10 2777.16 o
1 -3 5 55883.70 67174.50 3468.57 o
1 -3 5 55883.70 49731.40 2803.81 o
1 3 5 55883.80 51436.90 3826.76 o
1 3 6 1483.98 2007.82 752.58 <
-1 -3 -6 1483.98 1797.92 599.98 <
-1 3 -6 1483.97 2057.00 591.79 o
-1 3 -6 1483.97 2839.02 775.67 o
1 -3 6 1483.97 821.60 493.93 <
1 3 6 1483.98 1540.05 589.77 <
-1 -3 -6 1483.98 1212.61 713.64 <
1 -3 6 1483.97 1384.13 786.05 <
1 3 6 1483.98 720.85 582.39 <
1 -3 7 5503.71 8447.48 1533.62 o
-1 3 -7 5503.71 8145.23 1303.69 o
1 3 7 5503.72 10261.00 1605.43 o
1 3 7 5503.72 6981.80 1301.79 o
-1 -3 -7 5503.72 9783.63 1490.73 o
1 3 8 702.84 1879.48 956.35 <
-1 3 -8 702.85 2078.59 844.07 <
1 -3 8 702.85 729.24 683.60 <
-1 -3 -8 702.84 1471.68 793.59 <
1 -3 8 702.85 2133.76 596.24 o
1 -3 9 7068.94 15875.50 1978.45 o
1 3 9 7068.94 14626.90 2023.18 o
-1 -3 -9 7068.94 17132.40 1933.95 o
-1 3 -9 7068.94 12941.70 1741.15 o
1 4 -9 17293.40 19298.60 2016.62 o
-1 -4 9 17293.40 23556.50 2194.00 o
1 -4 -9 17293.40 21269.20 2197.53 o
-1 4 9 17293.40 19840.70 2417.23 o
-1 -4 8 27083.80 34967.80 2453.62 o
-1 4 8 27083.70 38296.10 2705.42 o
1 4 -8 27083.80 32408.20 2318.49 o
-1 4 8 27083.70 32520.90 1183.15 o
1 -4 -8 27083.70 37121.90 2470.29 o
1 4 -8 27083.80 31801.30 1695.60 o
1 -4 -8 27083.70 29293.30 1814.66 o
1 4 -7 17486.20 18352.30 1350.61 o
-1 4 7 17486.10 20115.40 2162.28 o
-1 -4 7 17486.20 18824.80 1872.20 o
-1 4 7 17486.10 19329.80 1060.44 o
1 4 -7 17486.20 16446.40 1695.68 o
1 -4 -7 17486.10 18605.30 1889.73 o
1 4 -6 2896.54 2088.18 715.28 <
-1 4 6 2896.55 2846.21 555.95 o
-1 -4 6 2896.54 2404.83 770.37 o
-1 4 6 2896.55 2609.93 999.78 <
-1 4 6 2896.55 3112.48 900.21 o
-1 -4 6 2896.54 2674.70 789.87 o
-1 -4 6 2896.54 3454.32 1060.96 o
1 -4 -6 2896.55 1256.99 388.15 o
1 4 -6 2896.54 2392.83 573.94 o
1 4 -6 2896.54 2852.21 703.29 o
-1 4 6 2896.55 2041.40 413.52 o
1 -4 -6 2896.55 2902.58 886.32 o
1 -4 -5 3085.06 3384.75 805.48 o
-1 4 5 3085.06 2330.46 761.79 o
-1 -4 5 3085.07 3693.00 753.70 o
-1 -4 5 3085.07 3812.94 772.79 o
-1 4 5 3085.06 2674.70 428.70 o
1 -4 -5 3085.06 2982.95 505.22 o
1 4 -5 3085.07 3901.70 732.79 o
-1 4 5 3085.06 3221.63 482.41 o
1 4 -5 3085.07 3105.29 756.63 o
-1 -4 5 3085.07 3299.59 963.81 o
-1 4 4 216609.00 217124.00 2873.11 o
-1 -4 4 216609.00 222037.00 3537.67 o
-1 4 4 216609.00 184182.00 7814.71 o
-1 4 4 216609.00 220782.00 2568.24 o
-1 -4 4 216609.00 189623.00 7796.95 o
1 4 -4 216609.00 221414.00 3535.89 o
1 -4 -4 216609.00 206596.00 4474.20 o
-1 4 3 8831.72 6925.42 554.51 o
1 -4 -3 8831.72 7418.38 616.02 o
1 -4 -3 8831.72 7125.73 981.38 o
-1 -4 3 8831.79 8682.57 772.88 o
1 -4 -3 8831.72 8507.45 606.08 o
1 4 -3 8831.79 8885.27 843.04 o
-1 -4 3 8831.79 7594.70 1167.19 o
-1 4 3 8831.72 6793.49 977.29 o
-1 4 3 8831.72 7153.31 632.88 o
-1 4 2 207569.00 212963.00 1809.29 o
1 -4 -2 207569.00 220178.00 1575.19 o
1 -4 -2 207569.00 203223.00 3402.71 o
-1 4 2 207569.00 215730.00 2761.69 o
-1 -4 2 207569.00 210135.00 4490.46 o
-1 -4 2 207569.00 195465.00 4407.65 o
1 4 -2 207569.00 202159.00 3881.51 o
-1 4 2 207569.00 196817.00 3951.31 o
1 -4 -2 207569.00 205586.00 2797.78 o
-1 4 1 5462.39 5227.05 424.52 o
1 -4 -1 5462.39 5546.10 465.40 o
1 -4 -1 5462.39 5760.79 500.52 o
-1 4 1 5462.39 5302.62 484.03 o
1 -4 -1 5462.39 5634.85 456.75 o
1 4 -1 5462.35 5526.91 645.16 o
-1 4 1 5462.39 5404.57 404.87 o
-1 4 1 5462.39 5463.34 461.75 o
1 4 -1 5462.35 6043.85 720.40 o
1 -4 -1 5462.39 5213.86 597.82 o
-1 -4 1 5462.35 5418.96 453.43 o
1 4 -1 5462.35 5961.09 474.98 o
-1 -4 1 5462.35 6034.26 654.74 o
1 -4 0 1069.90 1273.78 388.29 o
-1 -4 0 1069.89 1018.30 264.36 o
1 -4 0 1069.90 865.98 228.70 o
1 -4 0 1069.90 1025.50 204.44 o
1 4 0 1069.89 1380.53 330.57 o
1 4 0 1069.89 964.33 263.63 o
-1 4 0 1069.90 790.41 185.53 o
1 4 0 1069.89 1447.69 366.16 o
1 -4 0 1069.90 1265.38 305.21 o
-1 -4 0 1069.89 995.52 333.98 <
1 -4 0 1069.90 1072.28 230.26 o
-1 4 0 1069.90 1075.88 214.62 o
1 -4 0 1069.90 713.65 202.65 o
1 4 0 1069.89 984.72 247.92 o
-1 -4 0 1069.89 1174.23 256.77 o
1 4 1 147391.00 145223.00 2123.81 o
-1 -4 -1 147391.00 131713.00 3627.36 o
1 -4 1 147391.00 138449.00 3143.10 o
1 4 1 147391.00 137858.00 2999.72 o
-1 4 -1 147391.00 140161.00 3057.53 o
-1 4 -1 147391.00 142908.00 3679.76 o
1 -4 1 147391.00 153096.00 1630.74 o
-1 -4 -1 147391.00 140647.00 2587.96 o
1 -4 1 147391.00 147433.00 3256.65 o
1 4 1 147391.00 142704.00 3150.68 o
-1 -4 -1 147391.00 149075.00 3313.88 o
1 -4 1 147391.00 140143.00 2968.19 o
-1 4 -1 147391.00 133789.00 3561.83 o
1 -4 2 44266.10 44173.30 2082.12 o
-1 4 -2 44266.10 37039.10 1773.17 o
1 4 2 44266.10 34413.60 1698.30 o
1 -4 2 44266.10 39855.40 1677.51 o
1 4 2 44266.10 38417.30 1866.26 o
-1 -4 -2 44266.10 39847.00 2329.01 o
-1 4 -2 44266.10 41357.00 1575.96 o
-1 4 -2 44266.10 37455.30 1671.95 o
-1 -4 -2 44266.10 39320.40 1181.18 o
-1 -4 -2 44266.10 42548.10 1761.59 o
-1 4 -2 44266.10 40254.80 2153.40 o
1 -4 2 44266.10 40447.90 1563.88 o
-1 4 -3 62442.20 62189.70 2068.13 o
1 -4 3 62442.20 63343.50 1934.99 o
-1 4 -3 62442.20 63427.50 2800.63 o
-1 -4 -3 62442.30 63984.00 2211.09 o
1 -4 3 62442.20 60461.30 2328.08 o
-1 4 -3 62442.20 53654.60 2062.29 o
-1 4 -3 62442.20 61867.00 2232.44 o
-1 -4 -3 62442.30 60620.90 2966.64 o
1 -4 3 62442.20 68937.60 2603.92 o
1 4 3 62442.30 62060.10 2152.03 o
1 -4 4 61224.00 65659.60 2164.52 o
-1 4 -4 61224.00 58783.30 2482.51 o
-1 4 -4 61224.00 59717.70 3259.14 o
1 -4 4 61224.00 59691.30 3230.94 o
-1 4 -4 61224.00 64743.20 2327.27 o
1 4 4 61224.00 63244.00 2105.88 o
-1 4 -4 61224.00 58217.20 2822.03 o
-1 -4 -4 61224.00 62496.70 3223.30 o
1 -4 5 17075.60 14725.20 1429.88 o
-1 4 -5 17075.60 14528.50 1409.31 o
1 -4 5 17075.60 19542.10 2163.49 o
1 4 5 17075.60 15454.50 1351.81 o
-1 4 -5 17075.60 15620.00 1398.56 o
-1 -4 -5 17075.60 13756.10 1414.12 o
1 -4 5 17075.60 11995.40 1706.78 o
-1 -4 -5 17075.60 13898.80 1938.05 o
1 -4 5 17075.60 16743.80 1638.22 o
1 4 5 17075.60 19025.10 1572.66 o
1 4 5 17075.60 14889.50 2051.75 o
-1 -4 -6 23.84 124.74 455.73 <
1 -4 6 23.84 79.16 660.87 <
1 -4 6 23.84 681.27 621.32 <
1 4 6 23.84 440.18 405.86 <
1 4 6 23.84 380.21 552.53 <
1 4 6 23.84 -700.46 683.58 <
-1 4 -6 23.84 -316.65 449.38 <
-1 -4 -6 23.84 -170.32 580.43 <
-1 4 -7 69056.20 80396.80 3051.00 o
-1 -4 -7 69056.20 79602.80 3445.51 o
1 4 7 69056.20 88071.90 3044.33 o
1 4 7 69056.20 77774.90 3723.02 o
1 -4 7 69056.20 82948.00 3083.67 o
-1 4 -8 6424.48 7117.33 1276.84 o
1 -4 8 6424.48 8339.53 1383.97 o
-1 -4 -8 6424.50 7623.48 1382.36 o
1 4 8 6424.50 7619.89 1450.27 o
-1 4 -9 27079.70 37481.70 2602.97 o
1 -4 9 27079.70 39777.40 2630.31 o
-1 -4 -9 27079.70 40272.80 2795.61 o
1 4 9 27079.70 39426.00 2918.81 o
1 5 -9 2247.19 1405.71 831.70 <
-1 -5 9 2247.19 4682.52 1237.64 o
1 -5 -9 2247.20 4940.39 1215.28 o
-1 5 9 2247.20 4080.41 1337.98 o
1 5 -8 8058.03 7285.25 1246.67 o
-1 -5 8 8058.03 8566.22 1370.68 o
-1 5 8 8058.05 11296.10 1733.52 o
1 -5 -8 8058.05 7069.35 1028.32 o
1 -5 -8 8058.05 11700.30 1632.36 o
-1 5 7 22673.80 22865.70 2351.19 o
1 -5 -7 22673.80 24757.10 2154.18 o
-1 -5 7 22673.80 20987.40 1978.05 o
1 5 -7 22673.80 24158.60 1565.03 o
-1 5 7 22673.80 23496.50 1226.14 o
1 5 -7 22673.80 23049.20 1926.36 o
-1 5 6 76013.60 69377.80 4638.92 o
-1 -5 6 76013.60 78093.90 4474.63 o
-1 5 6 76013.60 74483.70 2287.46 o
1 5 -6 76013.60 72870.50 3676.42 o
1 -5 -6 76013.60 76552.70 3473.96 o
-1 -5 6 76013.60 75324.50 3255.44 o
1 5 -6 76013.60 72503.50 3284.43 o
-1 5 6 76013.60 78682.80 2258.80 o
1 -5 -5 89556.70 92265.00 3332.20 o
1 5 -5 89556.70 90258.40 3070.70 o
-1 5 5 89556.70 83879.90 2690.63 o
-1 -5 5 89556.70 90299.20 3066.59 o
1 5 -5 89556.70 87133.90 3427.02 o
-1 5 5 89556.70 89061.40 2246.25 o
1 -5 -5 89556.70 89704.30 2420.53 o
-1 -5 5 89556.70 89971.70 3118.71 o
-1 5 5 89556.70 77398.30 4672.98 o
-1 -5 5 89556.70 80944.90 4696.50 o
-1 -5 4 31128.70 31572.20 1598.42 o
-1 5 4 31128.60 31238.80 2389.38 o
1 -5 -4 31128.60 33720.40 1165.06 o
-1 5 4 31128.60 30597.10 1318.30 o
1 5 -4 31128.70 35776.20 1586.38 o
-1 -5 4 31128.70 26257.60 2397.35 o
1 -5 -4 31128.60 28807.60 2302.43 o
-1 5 4 31128.60 28279.80 1344.18 o
-1 5 3 2932.88 3105.29 430.07 o
-1 -5 3 2932.89 2636.31 426.78 o
-1 5 3 2932.88 2656.70 353.03 o
-1 5 3 2932.88 2693.89 689.58 o
-1 -5 3 2932.89 3118.48 828.35 o
1 -5 -3 2932.88 2547.56 637.19 o
1 -5 -3 2932.88 1636.00 312.77 o
1 -5 -3 2932.88 2681.89 386.94 o
1 5 -2 46305.10 43501.60 1670.97 o
1 5 -2 46305.10 49595.80 2351.57 o
1 -5 -2 46305.20 43234.10 1377.19 o
-1 5 2 46305.20 43860.20 2058.98 o
1 -5 -2 46305.20 50740.10 1621.59 o
-1 5 2 46305.20 47206.60 1359.40 o
-1 5 2 46305.20 45501.00 1862.76 o
-1 -5 2 46305.10 48637.50 2239.03 o
-1 5 2 46305.20 49171.20 1141.32 o
1 -5 -2 46305.20 45549.00 1417.64 o
-1 -5 2 46305.10 43656.30 1606.11 o
-1 5 1 266987.00 264530.00 3635.54 o
-1 5 1 266987.00 289911.00 16841.60 o
-1 5 1 266987.00 273566.00 3116.66 o
-1 -5 1 266987.00 289227.00 17086.50 o
1 -5 -1 266987.00 286826.00 16762.50 o
-1 5 1 266987.00 288718.00 16712.70 o
1 5 -1 266987.00 276939.00 16600.00 o
1 -5 -1 266987.00 284044.00 16752.40 o
-1 5 1 266987.00 270413.00 2641.97 o
1 5 -1 266987.00 299661.00 17403.00 o
1 -5 -1 266987.00 267058.00 4395.10 o
1 -5 -1 266987.00 275153.00 1047.41 o
-1 5 1 266987.00 261852.00 4003.56 o
1 -5 0 257320.00 274503.00 16220.40 o
-1 5 0 257320.00 273356.00 16038.60 o
-1 -5 0 257320.00 281072.00 16560.00 o
1 -5 0 257320.00 258350.00 2742.53 o
1 -5 0 257320.00 263466.00 3309.46 o
1 -5 0 257320.00 276734.00 16089.00 o
1 5 0 257320.00 263210.00 1898.28 o
-1 5 0 257320.00 263886.00 15828.10 o
1 -5 0 257320.00 277909.00 16235.10 o
1 5 0 257320.00 275508.00 16236.70 o
1 5 0 257320.00 283086.00 16410.50 o
1 -5 0 257320.00 276420.00 16114.10 o
1 5 0 257320.00 277635.00 16256.40 o
-1 -5 0 257320.00 272448.00 16115.00 o
-1 -5 0 257320.00 264742.00 1540.72 o
-1 5 -1 48406.90 46818.00 1378.12 o
1 5 1 48407.10 46371.80 1615.98 o
-1 5 -1 48406.90 47074.70 1391.25 o
1 -5 1 48406.90 49675.00 1564.55 o
-1 5 -1 48406.90 47584.40 1319.83 o
-1 -5 -1 48407.10 50603.30 2047.55 o
1 -5 1 48406.90 46449.80 1431.70 o
1 -5 1 48406.90 47000.30 1377.50 o
1 -5 1 48406.90 50890.00 1099.05 o
1 5 1 48407.10 48250.10 1630.41 o
1 5 1 48407.10 50359.90 1096.69 o
-1 -5 -1 48407.10 46015.60 1406.72 o
1 -5 1 48406.90 49995.20 1978.27 o
1 5 2 7179.57 6419.27 507.93 o
-1 5 -2 7179.49 6517.62 529.18 o
1 -5 2 7179.49 6538.01 572.58 o
1 5 2 7179.57 6338.91 673.80 o
-1 -5 -2 7179.57 6918.23 1021.41 o
-1 -5 -2 7179.57 7338.02 747.14 o
-1 -5 -2 7179.57 6905.03 378.21 o
1 -5 2 7179.49 7491.55 942.89 o
1 -5 2 7179.49 6908.63 603.69 o
-1 5 -2 7179.49 6300.53 606.31 o
-1 5 -2 7179.49 6747.91 924.11 o
1 -5 3 54082.00 54560.20 1949.67 o
1 -5 3 54082.00 53755.40 1847.31 o
1 -5 3 54082.00 57146.10 2680.84 o
1 5 3 54082.00 50303.50 2241.55 o
-1 5 -3 54082.00 53296.00 2772.55 o
-1 5 -3 54082.00 54515.80 1885.68 o
-1 5 -3 54082.00 46495.30 1915.20 o
-1 -5 -3 54082.00 49607.80 2930.69 o
-1 5 -3 54082.00 49468.70 2171.69 o
-1 -5 -4 82160.50 82800.40 3744.44 o
-1 5 -4 82160.40 79797.10 2850.62 o
1 -5 4 82160.40 79010.30 3081.70 o
-1 5 -4 82160.40 78314.60 3205.39 o
1 5 4 82160.50 83247.80 2549.23 o
1 -5 4 82160.40 82624.10 2645.02 o
-1 5 -4 82160.40 79486.50 3879.88 o
1 -5 4 82160.40 83565.70 3771.74 o
1 5 4 82160.50 84412.40 4035.85 o
-1 5 -5 97868.00 88128.20 4338.15 o
1 5 5 97868.10 96744.80 3176.81 o
-1 -5 -5 97868.10 88098.30 4978.46 o
-1 5 -5 97868.00 91958.00 3636.20 o
-1 5 -5 97868.00 92068.30 4863.48 o
1 5 5 97868.10 106760.00 3107.20 o
-1 5 -5 97868.00 100245.00 3285.99 o
-1 -5 -5 97868.10 95092.00 3667.87 o
1 -5 5 97868.00 84785.50 4871.14 o
1 5 5 97868.10 97162.20 5041.59 o
1 -5 5 97868.00 95984.40 3405.18 o
1 -5 5 97868.00 104765.00 4747.99 o
1 -5 5 97868.00 95666.60 3845.79 o
1 5 6 23804.70 29039.00 2005.50 o
1 -5 6 23804.70 23706.40 1906.41 o
-1 5 -6 23804.70 22932.80 1862.58 o
1 -5 6 23804.70 17583.40 2338.40 o
-1 -5 -6 23804.70 16962.10 2546.50 o
-1 -5 -6 23804.70 24356.50 2139.24 o
1 5 6 23804.70 24060.30 1793.34 o
-1 -5 -6 23804.70 24164.60 1904.59 o
-1 5 -7 4854.14 4446.23 1013.15 o
1 5 7 4854.17 6163.80 1315.34 o
1 5 7 4854.17 6485.24 1211.55 o
-1 -5 -7 4854.17 7575.51 1365.79 o
1 -5 7 4854.14 5267.83 1097.63 o
1 5 7 4854.17 5681.63 1069.48 o
-1 -5 -8 1812.55 3376.35 1109.44 o
1 5 8 1812.55 3585.05 1219.00 <
-1 5 -8 1812.56 1638.40 827.26 <
1 -5 8 1812.56 2463.60 972.72 <
1 -5 9 11978.20 17434.70 1929.80 o
1 5 9 11978.10 17350.70 2217.78 o
-1 5 -9 11978.20 16974.10 1948.16 o
1 6 -9 20088.20 27744.90 2429.95 o
-1 6 9 20088.20 28353.00 2615.63 o
1 -6 -9 20088.20 26682.20 2321.49 o
-1 -6 9 20088.20 26262.40 2268.68 o
1 -6 -8 12777.00 12222.00 1315.19 o
1 -6 -8 12777.00 15544.40 1854.21 o
-1 6 8 12777.00 13928.80 1917.63 o
1 6 -8 12777.00 15853.90 1780.64 o
-1 -6 8 12777.00 14508.10 1725.11 o
1 -6 -7 3824.89 3863.32 983.16 o
1 6 -7 3824.90 4340.68 742.72 o
-1 6 7 3824.89 3126.88 939.16 o
-1 6 7 3824.89 4211.15 548.47 o
1 6 -7 3824.90 4845.64 975.87 o
1 -6 -7 3824.89 3564.66 737.14 o
-1 6 7 3824.89 3226.43 667.10 o
-1 -6 7 3824.90 5007.56 1005.36 o
-1 -6 6 1634.24 1671.98 688.25 <
1 -6 -6 1634.23 1422.51 755.44 <
-1 6 6 1634.23 1318.16 430.71 o
-1 6 6 1634.23 1458.49 895.48 <
1 6 -6 1634.24 2473.19 747.35 o
-1 6 6 1634.23 1128.65 335.76 o
-1 6 5 48737.10 45263.50 1872.36 o
-1 6 5 48737.10 49762.50 1665.25 o
-1 -6 5 48737.20 52173.40 2156.64 o
-1 6 5 48737.10 46118.70 3348.20 o
-1 -6 5 48737.20 40997.20 3355.86 o
1 6 -5 48737.20 57284.10 2218.29 o
1 6 -5 48737.20 47943.00 2481.71 o
1 -6 -5 48737.10 52624.30 1667.49 o
-1 -6 5 48737.20 47270.20 2334.09 o
1 -6 -4 11092.00 10145.90 1379.86 o
-1 -6 4 11092.10 11670.30 987.92 o
1 -6 -4 11092.00 8874.47 846.03 o
-1 6 4 11092.00 9902.37 776.48 o
-1 6 4 11092.00 11338.10 792.87 o
-1 -6 4 11092.10 10340.20 1510.77 o
1 -6 -4 11092.00 9325.45 775.86 o
-1 6 4 11092.00 11731.50 1466.88 o
1 -6 -3 199234.00 188789.00 4069.16 o
-1 -6 3 199234.00 203123.00 5258.04 o
1 6 -3 199234.00 204885.00 3084.10 o
-1 6 3 199234.00 204642.00 4319.57 o
-1 6 3 199234.00 203484.00 2505.88 o
-1 6 3 199234.00 193794.00 5084.08 o
-1 -6 3 199234.00 199932.00 3426.49 o
-1 6 3 199234.00 189589.00 4197.32 o
1 -6 -3 199234.00 206046.00 4024.09 o
1 -6 -3 199234.00 188465.00 4328.91 o
-1 6 2 1124.84 945.14 252.40 o
1 6 -2 1124.85 1336.15 548.16 <
-1 6 2 1124.84 1073.48 360.20 <
1 -6 -2 1124.84 841.99 271.02 o
-1 -6 2 1124.85 859.98 403.30 <
1 -6 -2 1124.84 632.09 330.30 <
-1 6 2 1124.84 182.31 268.09 <
-1 6 2 1124.84 1085.47 380.49 <
1 6 -2 1124.85 825.20 274.70 o
-1 6 2 1124.84 1093.87 308.52 o
-1 -6 2 1124.85 1077.07 309.85 o
1 -6 -2 1124.84 829.99 201.20 o
-1 6 1 46969.40 46984.70 1417.69 o
1 6 -1 46969.60 47078.30 1579.08 o
1 -6 -1 46969.40 39912.90 1759.87 o
-1 6 1 46969.40 45180.80 1576.50 o
1 -6 -1 46969.40 49532.30 1353.67 o
-1 6 1 46969.40 46921.10 1553.15 o
1 -6 -1 46969.40 46792.80 1579.07 o
-1 6 1 46969.40 51360.20 845.29 o
-1 6 1 46969.40 46961.90 1480.65 o
-1 6 1 46969.40 42133.10 2111.49 o
1 -6 -1 46969.40 45848.90 1982.78 o
-1 -6 1 46969.60 45700.10 1569.90 o
1 -6 -1 46969.40 47883.10 1430.51 o
1 6 -1 46969.60 49905.30 2014.96 o
-1 -6 1 46969.60 49966.40 1864.84 o
1 -6 0 33649.30 35494.30 1088.53 o
-1 6 0 33649.30 34745.90 1107.32 o
1 -6 0 33649.30 35503.90 1265.68 o
-1 -6 0 33649.20 32281.10 1421.11 o
1 -6 0 33649.30 31716.10 1737.85 o
1 -6 0 33649.30 34868.20 1159.91 o
1 6 0 33649.20 35333.60 1643.76 o
-1 6 0 33649.30 33336.50 1161.27 o
-1 -6 0 33649.20 35156.10 1680.56 o
1 6 0 33649.20 34609.10 1425.71 o
1 -6 0 33649.30 35976.50 991.36 o
1 6 0 33649.20 34737.50 1341.58 o
1 6 0 33649.20 38154.60 1296.11 o
1 -6 0 33649.30 34417.20 1358.95 o
-1 -6 0 33649.20 35727.00 1224.97 o
1 6 1 40388.10 40365.10 1454.03 o
1 6 1 40388.10 38522.80 1955.65 o
1 6 1 40388.10 41719.30 1286.62 o
-1 -6 -1 40388.10 33385.70 1893.98 o
1 -6 1 40388.00 41010.40 1972.36 o
-1 -6 -1 40388.10 39298.80 1349.35 o
1 6 1 40388.10 40374.70 1598.43 o
1 -6 1 40388.00 39063.80 1322.06 o
-1 -6 -1 40388.10 40823.30 2055.62 o
1 -6 1 40388.00 38844.30 1366.99 o
1 -6 1 40388.00 40238.00 1623.38 o
-1 6 -1 40388.00 38881.40 1362.28 o
-1 6 -1 40388.00 39637.10 1319.83 o
-1 6 -2 82091.20 79394.10 2385.41 o
-1 6 -2 82091.20 81506.30 1753.08 o
-1 -6 -2 82091.60 80753.00 1616.80 o
1 -6 2 82091.20 84796.30 1729.27 o
-1 -6 -2 82091.60 84691.90 2239.90 o
1 -6 2 82091.20 81890.10 2040.50 o
1 6 2 82091.60 81058.90 2444.43 o
-1 -6 -2 82091.60 87574.10 2995.63 o
1 6 2 82091.60 83425.30 1680.23 o
1 -6 2 82091.20 87008.00 2877.38 o
-1 6 -2 82091.20 80251.70 2161.82 o
-1 -6 -3 88025.70 84864.60 3876.93 o
-1 6 -3 88025.70 76931.70 2837.33 o
-1 6 -3 88025.70 90509.10 2484.97 o
1 6 3 88025.70 83492.50 2944.08 o
-1 6 -3 88025.70 85115.30 2216.54 o
1 -6 3 88025.70 95062.10 3358.46 o
-1 6 -3 88025.70 83437.30 3784.56 o
-1 6 -3 88025.70 81477.50 2926.38 o
1 -6 3 88025.70 89321.70 2231.41 o
-1 -6 -3 88025.70 75258.50 2484.73 o
1 6 3 88025.70 79948.20 2747.66 o
-1 -6 -4 4214.15 5480.13 1134.37 o
1 -6 4 4214.15 4364.67 664.53 o
-1 6 -4 4214.15 3920.89 426.48 o
1 6 4 4214.15 3282.80 636.44 o
1 -6 4 4214.15 4166.77 726.30 o
-1 6 -4 4214.15 3866.91 752.86 o
1 6 4 4214.15 4345.48 1003.76 o
1 -6 4 4214.15 5018.35 1084.24 o
-1 -6 -4 4214.15 4459.43 720.88 o
-1 6 -4 4214.15 4857.63 1045.05 o
-1 6 -4 4214.15 4648.93 733.66 o
-1 6 -5 7041.39 8388.71 1040.70 o
-1 6 -5 7041.39 6258.55 1070.59 o
-1 6 -5 7041.39 6593.19 1443.13 o
1 -6 5 7041.39 6039.06 1322.60 o
1 6 5 7041.40 8609.40 960.75 o
-1 6 -5 7041.39 7293.64 977.87 o
1 -6 5 7041.39 7781.81 1416.68 o
1 6 5 7041.40 7080.15 1465.24 o
-1 -6 -5 7041.40 8628.59 1093.60 o
-1 -6 -5 7041.40 7024.98 1380.73 o
1 -6 5 7041.39 6312.52 1072.23 o
1 -6 5 7041.39 9271.48 1027.58 o
1 -6 6 30113.40 29588.40 2102.50 o
1 6 6 30113.30 30612.70 1975.04 o
1 6 6 30113.30 33852.30 2239.39 o
-1 -6 -6 30113.30 28600.10 2183.91 o
-1 -6 -6 30113.30 24198.20 2899.35 o
-1 6 -6 30113.40 29517.60 2111.99 o
1 6 7 4797.02 5140.69 979.30 o
1 -6 7 4797.03 4677.72 977.71 o
-1 6 -7 4797.03 3894.50 844.42 o
-1 -6 -7 4797.02 5867.54 1206.93 o
1 6 7 4797.02 5806.37 1109.57 o
1 6 7 4797.02 5348.19 1228.65 o
1 -6 8 33156.70 37265.80 2578.04 o
1 6 8 33156.70 37396.60 3068.56 o
-1 6 -8 33156.70 37232.20 2667.38 o
-1 -6 -8 33156.70 39980.10 2899.63 o
1 -6 9 896.64 1556.84 851.50 <
-1 6 -9 896.64 761.63 797.94 <
1 6 9 896.65 3929.28 1235.11 o
1 7 -9 6421.96 9810.02 1988.22 o
1 -7 -9 6422.01 7781.81 1506.26 o
-1 7 9 6422.01 7200.09 1576.23 o
-1 -7 9 6421.96 6557.20 1280.53 o
1 -7 -8 7292.12 7988.11 1431.48 o
1 7 -8 7292.15 9650.50 1587.92 o
1 -7 -8 7292.12 8019.29 1105.65 o
-1 7 8 7292.12 8729.34 1617.30 o
-1 -7 8 7292.15 9001.61 1378.44 o
1 7 -7 26302.40 35596.20 2401.78 o
-1 7 7 26302.50 27519.40 1318.16 o
-1 7 7 26302.50 25917.00 1713.69 o
1 -7 -7 26302.50 28885.50 2317.85 o
1 -7 -7 26302.50 26587.40 1719.05 o
-1 -7 7 26302.40 27686.10 2149.68 o
1 -7 -6 8288.63 7633.08 1257.26 o
1 7 -6 8288.68 12514.70 1448.68 o
-1 7 6 8288.63 6226.16 710.78 o
-1 7 6 8288.63 8490.66 862.46 o
-1 -7 6 8288.68 6716.73 1049.46 o
-1 7 5 20945.40 19225.40 1268.00 o
-1 -7 5 20945.40 21437.20 1518.81 o
-1 7 5 20945.40 19814.30 1178.51 o
-1 7 5 20945.40 21729.80 2240.53 o
-1 -7 5 20945.40 17944.50 2166.50 o
1 -7 -5 20945.40 18193.90 1409.53 o
1 7 -5 20945.40 22148.40 1634.00 o
-1 -7 5 20945.40 23363.40 1518.53 o
1 -7 -5 20945.40 17776.50 2087.21 o
1 -7 -4 2468.78 1849.50 391.69 o
1 -7 -4 2468.78 2516.37 399.89 o
-1 -7 4 2468.76 1787.13 636.09 <
1 -7 -4 2468.78 2519.97 776.83 o
1 7 -4 2468.76 -397.01 812.88 <
-1 7 4 2468.78 2450.41 435.64 o
-1 -7 4 2468.76 2510.38 509.26 o
1 7 -4 2468.76 1665.99 454.45 o
-1 7 4 2468.78 2499.58 431.36 o
-1 -7 4 2468.76 2926.57 542.54 o
-1 7 4 2468.78 2961.36 840.46 o
1 -7 -3 60.35 75.56 188.29 <
1 -7 -3 60.35 892.36 536.25 <
-1 -7 3 60.35 127.14 242.21 <
-1 7 3 60.35 341.83 283.67 <
-1 7 3 60.35 2.40 278.27 <
-1 7 3 60.35 -59.97 310.64 <
1 -7 -3 60.35 119.94 135.43 <
-1 -7 3 60.35 -352.63 494.91 <
1 7 -3 60.35 -272.27 329.44 <
-1 7 3 60.35 100.75 219.45 <
-1 7 2 118.75 483.36 324.07 <
-1 -7 2 118.74 426.99 431.23 <
-1 7 2 118.75 -375.42 398.80 <
1 7 -2 118.74 254.28 422.03 <
1 7 -2 118.74 298.65 271.89 <
-1 7 2 118.75 401.80 277.51 <
-1 7 2 118.75 249.48 203.58 <
-1 7 2 118.75 478.57 376.99 <
1 -7 -2 118.75 296.26 225.04 <
-1 -7 2 118.74 311.85 220.17 <
1 -7 -2 118.75 241.08 314.06 <
1 -7 -1 48686.50 47439.30 1688.31 o
-1 7 1 48686.50 50962.00 1166.55 o
-1 7 1 48686.50 43803.80 2272.40 o
1 -7 -1 48686.50 45910.00 1676.68 o
-1 7 1 48686.50 47747.50 1643.32 o
1 -7 -1 48686.50 48344.80 1770.14 o
1 -7 -1 48686.50 46042.00 2192.52 o
-1 -7 1 48686.40 47765.50 2186.50 o
1 7 -1 48686.40 48619.50 1734.06 o
1 7 -1 48686.40 56090.70 1933.86 o
-1 7 1 48686.50 47800.30 1717.04 o
-1 -7 1 48686.40 48703.50 1650.38 o
-1 -7 1 48686.40 48619.50 2144.60 o
1 7 -1 48686.40 50994.30 2178.72 o
1 -7 -1 48686.50 50185.90 1516.35 o
-1 7 0 9457.74 9361.44 682.06 o
1 -7 0 9457.74 8849.29 730.77 o
-1 -7 0 9457.69 9132.35 820.84 o
-1 7 0 9457.74 9543.75 678.38 o
-1 -7 0 9457.69 10330.60 769.55 o
-1 -7 0 9457.69 9976.74 997.74 o
1 7 0 9457.69 9905.97 984.91 o
1 -7 0 9457.74 9299.07 787.75 o
1 -7 0 9457.74 7925.74 939.19 o
-1 7 0 9457.74 8519.45 964.78 o
1 -7 0 9457.74 9488.57 796.73 o
1 -7 0 9457.74 9957.55 706.82 o
1 -7 0 9457.74 10119.50 683.84 o
1 7 0 9457.69 9132.35 856.45 o
1 7 0 9457.69 10478.10 940.70 o
1 -7 1 98150.40 101436.00 2409.25 o
-1 7 -1 98150.40 102157.00 1721.49 o
1 7 1 98150.60 103351.00 2154.76 o
-1 -7 -1 98150.60 96193.10 2459.42 o
-1 -7 -1 98150.60 105147.00 2953.16 o
1 7 1 98150.60 101935.00 2001.65 o
1 -7 1 98150.40 102247.00 3026.31 o
-1 7 -1 98150.40 99135.30 2035.26 o
1 -7 1 98150.40 100010.00 1811.17 o
1 -7 1 98150.40 98635.10 2110.14 o
1 7 1 98150.60 99971.30 3002.38 o
1 -7 2 41891.40 43827.80 2328.58 o
1 -7 2 41891.40 41461.40 1534.70 o
1 -7 2 41891.40 42085.10 1489.81 o
1 7 2 41891.20 39725.80 1862.83 o
1 7 2 41891.20 42807.10 2248.51 o
-1 7 -2 41891.40 40181.60 1601.35 o
-1 -7 -2 41891.20 38865.90 1368.18 o
1 7 2 41891.20 41805.60 1463.17 o
-1 -7 -2 41891.20 43721.10 2399.13 o
-1 7 -2 41891.40 40729.70 1591.02 o
-1 -7 -3 20188.90 17852.10 826.41 o
-1 7 -3 20188.80 19267.40 1830.13 o
-1 7 -3 20188.80 19533.70 935.76 o
-1 -7 -3 20188.90 19512.10 1869.13 o
1 7 3 20188.90 20893.80 1837.77 o
1 7 3 20188.90 20270.10 1081.83 o
-1 7 -3 20188.80 17843.70 1286.08 o
1 -7 3 20188.80 21144.50 1857.54 o
1 7 3 20188.90 19109.10 1330.26 o
1 -7 3 20188.80 20228.10 1173.80 o
-1 7 -4 43387.00 43488.40 2181.69 o
-1 7 -4 43387.00 42098.30 2153.74 o
1 7 4 43386.90 46100.70 3026.32 o
1 -7 4 43387.00 46676.40 1974.85 o
-1 7 -4 43387.00 41010.40 2955.60 o
-1 7 -4 43387.00 36565.40 1722.91 o
-1 7 -4 43387.00 41289.90 1608.89 o
-1 -7 -4 43386.90 44553.50 2225.20 o
1 7 4 43386.90 40321.90 2189.79 o
-1 -7 -4 43386.90 45251.50 2869.80 o
1 -7 4 43387.00 46177.50 2957.77 o
1 -7 4 43387.00 45580.20 1849.52 o
1 7 4 43386.90 34426.80 2201.35 o
-1 7 -5 529.69 1012.31 558.36 <
-1 7 -5 529.69 484.56 553.03 <
-1 -7 -5 529.68 788.02 532.92 <
1 -7 5 529.69 404.20 517.21 <
1 -7 5 529.69 489.36 714.92 <
1 7 5 529.68 1451.29 542.29 <
1 -7 5 529.69 -256.67 393.68 <
-1 7 -5 529.69 157.12 590.54 <
-1 -7 -5 529.68 640.49 621.04 <
1 7 6 9576.08 10087.10 1356.00 o
1 -7 6 9575.97 10277.80 1236.18 o
-1 7 -6 9575.97 9639.70 1329.05 o
-1 -7 -6 9576.08 7005.78 1634.76 o
1 7 6 9576.08 9501.77 1134.95 o
1 7 7 398.49 569.72 503.34 <
1 7 7 398.49 371.82 603.35 <
-1 7 -7 398.48 1013.51 695.15 <
1 -7 7 398.48 539.74 466.21 <
-1 -7 -7 398.49 407.80 650.07 <
1 7 8 931.70 1116.66 750.21 <
-1 7 -8 931.71 2716.68 959.70 <
-1 -7 -8 931.70 1183.82 865.21 <
1 -7 8 931.71 1761.94 769.79 <
1 7 8 931.70 1266.58 816.87 <
1 -7 9 165.69 1403.32 866.18 <
-1 7 -9 165.69 -183.51 705.20 <
-1 -8 9 129.53 -1109.46 806.88 <
1 -8 -9 129.53 972.73 914.83 <
-1 8 8 1126.97 161.92 715.22 <
-1 -8 8 1126.98 -526.54 612.55 <
1 -8 -8 1126.97 1616.81 831.54 <
-1 8 8 1126.97 900.76 517.97 <
1 -8 -7 1215.36 1399.72 730.83 <
-1 8 7 1215.36 1102.26 468.43 <
1 8 -7 1215.38 -578.12 773.17 <
-1 8 7 1215.36 935.54 364.13 <
1 -8 -7 1215.36 1096.27 594.26 <
-1 -8 7 1215.38 26.39 494.21 <
-1 8 6 3271.75 4217.14 675.48 o
-1 -8 6 3271.76 2755.06 731.82 o
-1 8 6 3271.75 2924.17 533.72 o
1 -8 -5 826.41 -266.27 703.45 <
-1 -8 5 826.42 761.63 659.86 <
-1 -8 5 826.42 1248.59 478.63 <
-1 8 5 826.41 1406.91 874.84 <
-1 -8 5 826.42 949.94 450.38 <
-1 8 5 826.41 253.08 287.59 <
1 8 -5 826.42 310.65 372.23 <
-1 8 5 826.41 869.58 349.98 <
1 -8 -5 826.41 534.94 241.72 <
-1 8 5 826.41 -123.54 515.56 <
1 -8 -4 32351.50 30475.90 1272.65 o
1 8 -4 32351.60 30492.70 2760.23 o
-1 -8 4 32351.60 34587.50 1673.52 o
1 8 -4 32351.60 32115.50 1822.35 o
1 -8 -4 32351.50 27780.90 1514.28 o
-1 8 4 32351.50 31911.60 1537.04 o
-1 8 4 32351.50 32760.80 2343.21 o
-1 -8 4 32351.60 30424.40 2624.48 o
-1 8 4 32351.50 30459.20 1521.90 o
-1 -8 4 32351.60 33073.90 1692.66 o
1 8 -4 32351.60 32634.90 1784.37 o
1 -8 -4 32351.50 32729.60 2300.85 o
-1 8 3 181.11 245.88 267.34 <
1 8 -3 181.11 -254.28 328.36 <
1 -8 -3 181.11 497.76 510.37 <
-1 8 3 181.11 103.15 200.42 <
-1 -8 3 181.11 172.72 430.60 <
1 -8 -3 181.11 123.54 162.04 <
-1 8 3 181.11 278.26 290.06 <
1 -8 -3 181.11 387.41 270.48 <
-1 -8 3 181.11 23.99 246.00 <
-1 8 3 181.11 170.32 305.87 <
1 8 -2 34455.50 35111.70 1519.91 o
-1 8 2 34455.60 33035.50 1741.26 o
-1 -8 2 34455.50 34845.40 1479.88 o
1 -8 -2 34455.60 35345.60 1840.45 o
-1 -8 2 34455.50 35851.70 2164.82 o
-1 8 2 34455.60 33984.20 1358.88 o
1 -8 -2 34455.60 32634.90 1498.79 o
-1 8 2 34455.60 30731.40 1743.65 o
-1 8 2 34455.60 35531.50 1844.07 o
-1 8 2 34455.60 32704.50 1558.22 o
-1 -8 1 9469.46 9416.61 1012.29 o
1 -8 -1 9469.40 9372.23 858.94 o
-1 8 1 9469.40 10117.10 629.70 o
1 -8 -1 9469.40 9139.54 734.48 o
-1 -8 1 9469.46 9676.88 791.59 o
-1 8 1 9469.40 8825.30 823.16 o
1 -8 -1 9469.40 8988.42 776.55 o
-1 8 1 9469.40 9932.36 763.11 o
1 -8 -1 9469.40 9716.46 745.61 o
1 8 -1 9469.46 9403.42 818.63 o
1 8 -1 9469.46 10108.70 1101.76 o
-1 8 1 9469.40 9031.60 994.46 o
-1 -8 1 9469.46 10197.40 1037.66 o
1 -8 -1 9469.40 8959.63 984.14 o
1 8 -1 9469.46 9560.54 1061.92 o
-1 -8 0 5433.84 5880.73 815.29 o
1 8 0 5433.84 5370.98 774.67 o
1 -8 0 5433.84 5195.87 624.94 o
1 -8 0 5433.84 6176.99 595.40 o
1 8 0 5433.84 5728.41 737.06 o
-1 -8 0 5433.84 4933.19 676.00 o
-1 8 0 5433.84 6097.83 593.73 o
-1 8 0 5433.84 5331.40 567.26 o
-1 -8 0 5433.84 5943.10 642.80 o
1 -8 0 5433.84 5686.43 688.35 o
1 -8 0 5433.84 4784.47 752.86 o
1 -8 0 5433.84 6414.47 592.80 o
1 -8 0 5433.84 5480.13 655.15 o
1 -8 1 14156.20 14734.80 1377.94 o
1 8 1 14156.10 16222.10 1097.78 o
-1 -8 -1 14156.10 13913.20 1021.52 o
-1 8 -1 14156.20 14613.70 891.52 o
1 -8 1 14156.20 14864.40 892.52 o
-1 -8 -1 14156.10 16288.10 1409.01 o
-1 8 -1 14156.20 15152.20 890.62 o
1 -8 1 14156.20 14053.50 909.38 o
1 8 1 14156.10 15231.40 1282.58 o
1 -8 1 14156.20 14351.00 1123.92 o
1 8 1 14156.10 15823.90 1007.34 o
-1 -8 -2 5303.67 5845.95 974.79 o
1 8 2 5303.67 5464.54 714.33 o
-1 8 -2 5303.71 5685.23 644.64 o
1 -8 2 5303.71 5089.12 591.03 o
-1 -8 -2 5303.67 5625.26 492.79 o
1 -8 2 5303.71 6109.82 623.83 o
-1 8 -2 5303.71 5442.95 613.57 o
1 -8 2 5303.71 6602.78 1018.78 o
1 8 2 5303.67 5806.37 618.79 o
1 8 2 5303.67 6520.02 992.08 o
-1 -8 -3 348.73 1510.06 549.66 <
-1 8 -3 348.73 -46.78 291.78 <
1 -8 3 348.73 466.57 306.66 <
1 -8 3 348.73 977.52 550.83 <
1 8 3 348.73 203.90 225.88 <
-1 -8 -3 348.73 325.04 163.24 <
1 8 3 348.73 259.07 284.48 <
-1 -8 -3 348.73 668.07 561.76 <
-1 8 -3 348.73 249.48 261.73 <
1 8 3 348.73 391.01 473.69 <
-1 8 -3 348.73 106.75 418.86 <
-1 -8 -4 8166.95 6534.41 459.55 o
-1 -8 -4 8166.95 10165.00 1131.05 o
-1 8 -4 8166.96 8012.09 638.01 o
1 -8 4 8166.96 9096.37 1464.36 o
1 8 4 8166.95 6015.07 848.05 o
-1 8 -4 8166.96 6899.04 961.40 o
-1 -8 -4 8166.95 6132.61 1249.12 o
1 -8 4 8166.96 7978.51 954.95 o
1 -8 4 8166.96 9114.36 936.00 o
1 8 4 8166.95 8581.82 1398.52 o
1 8 4 8166.95 7030.97 921.74 o
-1 8 -4 8166.96 7294.84 1361.06 o
-1 8 -4 8166.96 6499.63 656.23 o
-1 8 -5 2215.48 2216.52 742.43 <
-1 -8 -5 2215.48 2951.76 973.82 o
-1 8 -5 2215.48 1979.04 389.22 o
1 8 5 2215.48 1101.06 443.17 <
1 -8 5 2215.48 1745.15 720.24 <
-1 8 -5 2215.48 1199.42 466.29 <
1 -8 5 2215.48 2003.02 579.94 o
1 8 5 2215.48 2817.43 679.32 o
-1 -8 -5 2215.48 3475.91 816.35 o
-1 8 -5 2215.48 1663.59 758.86 <
1 8 6 2762.21 3592.25 812.31 o
-1 8 -6 2762.20 1898.67 926.06 <
1 8 6 2762.21 1807.52 584.12 o
-1 -8 -6 2762.21 1850.70 799.93 <
-1 8 -6 2762.20 2149.35 463.31 o
1 -8 6 2762.20 1873.49 632.26 <
-1 -8 -7 4596.33 3847.72 1031.46 o
-1 -8 -7 4596.33 2997.34 1195.21 <
1 -8 7 4596.37 3654.62 891.69 o
-1 8 -7 4596.37 9970.74 1737.01 o
1 8 7 4596.33 4314.30 966.22 o
1 8 8 790.17 -1474.08 1109.99 <
-1 -8 -8 790.17 1195.82 910.42 <
1 8 8 790.17 178.71 490.51 <
1 -8 8 790.15 792.81 651.28 <
1 -8 8 790.15 99.55 539.55 <
1 -8 9 2754.87 4783.27 1137.59 o
-1 -9 9 3072.08 4091.21 1093.91 o
1 -9 -9 3072.11 3092.09 1091.33 <
-1 9 9 3072.11 2460.00 1000.63 <
1 -9 -8 1976.08 2284.89 1009.51 <
-1 9 8 1976.08 1820.71 600.87 o
-1 -9 8 1976.05 1019.50 544.21 <
-1 -9 7 12696.70 15237.40 1587.66 o
-1 9 7 12696.70 9976.74 1709.27 o
-1 9 7 12696.70 13127.60 1205.12 o
1 -9 -7 12696.70 13944.40 1713.27 o
1 -9 -7 12696.70 9042.39 1297.14 o
-1 -9 6 1280.45 999.11 524.35 <
1 -9 -6 1280.45 574.52 695.24 <
1 -9 -6 1280.45 -531.34 604.64 <
-1 9 6 1280.45 1280.98 701.66 <
-1 9 6 1280.45 1159.83 456.54 <
1 -9 -5 6362.54 6046.25 613.37 o
1 -9 -5 6362.54 5451.34 643.56 o
-1 -9 5 6362.55 6921.83 947.64 o
1 9 -5 6362.55 6488.84 997.16 o
-1 9 5 6362.54 7088.54 1339.26 o
-1 9 5 6362.54 4303.50 1072.73 o
1 -9 -5 6362.54 5200.67 1192.17 o
-1 9 5 6362.54 5069.93 710.50 o
1 -9 -4 247.04 201.50 216.00 <
1 -9 -4 247.04 224.29 170.39 <
1 9 -4 247.02 230.29 331.07 <
-1 -9 4 247.02 233.89 329.86 <
1 -9 -4 247.04 536.14 554.78 <
-1 -9 4 247.02 95.95 289.24 <
1 9 -4 247.02 196.70 543.38 <
-1 9 4 247.04 543.34 535.55 <
-1 -9 4 247.02 936.74 764.90 <
1 9 -4 247.02 513.35 389.11 <
-1 9 4 247.04 284.26 273.38 <
1 9 -3 1298.39 1175.43 373.98 o
-1 -9 3 1298.39 1369.73 464.88 <
1 -9 -3 1298.41 682.47 348.02 <
-1 -9 3 1298.39 1306.16 429.33 o
1 -9 -3 1298.41 1191.02 331.99 o
-1 -9 3 1298.39 1541.25 719.67 <
-1 9 3 1298.41 1445.30 501.58 <
-1 9 3 1298.41 1444.10 440.28 o
-1 9 3 1298.41 1560.44 354.82 o
1 9 -3 1298.39 1639.60 473.54 o
1 9 -3 1298.39 1643.20 739.53 <
1 -9 -2 6485.19 5523.31 890.85 o
-1 9 2 6485.19 6770.70 716.90 o
1 -9 -2 6485.19 6601.58 880.69 o
-1 9 2 6485.19 5139.49 686.49 o
-1 -9 2 6485.12 6613.58 708.40 o
-1 9 2 6485.19 5601.27 754.41 o
-1 -9 2 6485.12 7108.93 1062.60 o
1 -9 -2 6485.19 6136.21 675.87 o
1 9 -2 6485.12 6133.81 716.25 o
-1 9 2 6485.19 5681.63 617.38 o
1 -9 -1 17103.70 18282.70 1423.36 o
1 -9 -1 17103.70 18276.70 1017.96 o
1 9 -1 17103.60 18550.20 1150.95 o
1 -9 -1 17103.70 16357.60 1071.61 o
1 -9 -1 17103.70 17698.60 1221.10 o
-1 9 1 17103.70 18084.80 848.01 o
-1 9 1 17103.70 18330.70 1062.08 o
1 -9 -1 17103.70 17970.80 1090.62 o
1 9 -1 17103.60 17930.10 1514.71 o
-1 -9 1 17103.60 18223.90 1450.97 o
1 9 -1 17103.60 18002.00 1530.91 o
-1 -9 1 17103.60 18565.80 1118.90 o
-1 -9 1 17103.60 18012.80 1397.52 o
-1 9 1 17103.70 17156.40 1190.40 o
1 9 0 4443.24 5252.24 758.58 o
1 -9 0 4443.27 4448.63 621.21 o
1 9 0 4443.24 3675.01 656.42 o
-1 -9 0 4443.24 4488.21 664.95 o
1 -9 0 4443.27 5036.34 689.34 o
-1 -9 0 4443.24 5074.73 815.00 o
1 -9 0 4443.27 5000.36 789.50 o
-1 -9 0 4443.24 4893.61 639.72 o
1 -9 0 4443.27 5493.32 593.86 o
1 -9 0 4443.27 4809.66 612.20 o
-1 9 0 4443.27 4814.45 574.49 o
-1 9 0 4443.27 4716.10 565.59 o
1 -9 0 4443.27 5241.44 572.50 o
1 -9 1 21734.10 21336.40 1060.59 o
-1 9 -1 21734.10 25079.80 1148.07 o
1 9 1 21734.20 23982.30 1374.96 o
1 -9 1 21734.10 22479.40 1744.08 o
-1 -9 -1 21734.20 24303.80 1768.34 o
1 -9 1 21734.10 23760.40 1240.32 o
1 -9 1 21734.10 23738.80 1151.09 o
1 9 1 21734.20 22246.80 1639.92 o
-1 -9 -1 21734.20 21764.60 1319.36 o
1 9 1 21734.20 23458.20 1353.05 o
1 -9 1 21734.10 21090.50 1448.99 o
-1 9 -1 21734.10 21982.90 1182.41 o
-1 9 -2 372.51 281.86 262.93 <
1 9 2 372.49 524.14 352.14 <
1 9 2 372.49 596.11 324.18 <
1 9 2 372.49 519.35 449.41 <
-1 9 -2 372.51 287.86 271.30 <
1 9 2 372.49 271.07 288.12 <
-1 -9 -2 372.49 -345.43 497.55 <
-1 -9 -2 372.49 774.82 538.59 <
1 -9 2 372.51 518.15 510.63 <
1 -9 2 372.51 121.14 251.17 <
-1 -9 -2 372.49 465.37 244.29 <
-1 9 -3 2310.85 1426.10 639.04 <
1 9 3 2310.96 2368.85 541.53 o
-1 -9 -3 2310.96 2114.57 780.94 <
1 9 3 2310.96 2756.26 812.18 o
1 -9 3 2310.85 2446.81 507.01 o
-1 -9 -3 2310.96 2185.33 317.57 o
1 -9 3 2310.85 2328.07 781.90 <
-1 9 -3 2310.85 2086.98 460.70 o
-1 -9 -3 2310.96 1860.29 552.09 o
-1 9 -3 2310.85 2364.05 536.78 o
1 9 3 2310.96 2554.75 514.14 o
1 -9 3 2310.85 2920.58 523.80 o
1 -9 4 6483.83 7131.72 905.76 o
-1 -9 -4 6483.77 5610.86 461.79 o
-1 9 -4 6483.83 6037.86 662.55 o
1 9 4 6483.77 5807.57 870.11 o
-1 -9 -4 6483.77 4807.26 1162.96 o
1 9 4 6483.77 7745.82 1358.29 o
1 -9 4 6483.83 7652.27 887.70 o
1 9 4 6483.77 6310.12 829.60 o
1 -9 4 6483.83 7713.44 1432.73 o
-1 -9 -4 6483.77 8836.09 1108.77 o
-1 9 -4 6483.83 7354.81 936.70 o
-1 9 -4 6483.83 5237.85 804.51 o
-1 9 -4 6483.83 6235.76 1303.06 o
-1 -9 -5 2010.14 4189.56 873.06 o
-1 9 -5 2010.11 1836.30 347.71 o
1 -9 5 2010.11 1836.30 559.14 o
-1 9 -5 2010.11 2504.38 747.13 o
1 9 5 2010.14 1210.21 523.59 <
-1 -9 -5 2010.14 3053.71 1044.22 <
-1 9 -5 2010.11 1923.86 354.97 o
-1 9 -5 2010.11 1627.61 879.80 <
1 9 5 2010.14 1203.01 479.75 <
-1 9 -6 7280.93 5487.33 1479.89 o
1 9 6 7280.92 9863.99 1183.13 o
-1 -9 -6 7280.92 6413.27 1518.09 o
-1 9 -6 7280.93 5746.40 649.42 o
1 9 6 7280.92 5745.20 971.57 o
1 -9 6 7280.93 7974.91 1105.05 o
1 -9 7 4257.88 3307.99 887.33 o
-1 9 -7 4257.88 5761.99 1663.00 o
1 9 7 4257.93 4507.40 915.86 o
-1 -9 -7 4257.93 2648.31 1150.19 <
1 9 8 908.20 1099.86 757.40 <
1 -9 8 908.19 -656.08 713.49 <
-1 -9 -8 908.20 551.73 701.28 <
1 9 9 362.56 224.29 593.86 <
-1 10 9 6396.49 6137.41 1548.55 o
-1 -10 9 6396.50 5381.78 1224.04 o
-1 10 8 19.34 -1308.56 914.19 <
1 -10 -8 19.34 -634.49 771.48 <
-1 10 8 19.34 -238.68 395.55 <
-1 -10 8 19.34 -1024.30 725.45 <
-1 10 7 2169.03 1102.26 724.82 <
-1 -10 7 2169.02 2368.85 790.22 <
1 -10 -7 2169.03 1081.87 623.77 <
-1 10 7 2169.03 3432.73 708.07 o
1 10 -7 2169.02 3234.82 937.31 o
-1 10 6 4.57 -371.82 422.80 <
1 -10 -6 4.57 143.93 243.35 <
1 10 -6 4.57 1092.67 619.43 <
1 -10 -6 4.57 -755.63 856.38 <
-1 10 6 4.57 -267.47 484.30 <
1 -10 -6 4.57 -263.87 519.10 <
-1 -10 6 4.57 320.24 526.23 <
-1 10 5 29735.20 29593.20 2617.39 o
1 10 -5 29735.30 32414.20 1949.69 o
1 10 -5 29735.30 27598.50 3057.20 o
-1 10 5 29735.20 26948.50 2427.71 o
1 -10 -5 29735.20 27748.50 1500.11 o
1 -10 -5 29735.20 26339.20 1330.73 o
1 -10 -5 29735.20 29364.10 2614.00 o
-1 -10 5 29735.30 34161.70 1871.44 o
-1 10 5 29735.20 28795.60 1660.43 o
-1 10 4 5128.82 4403.05 617.74 o
-1 -10 4 5128.84 5282.23 777.15 o
1 10 -4 5128.84 5405.77 816.08 o
1 10 -4 5128.84 5393.77 821.10 o
-1 10 4 5128.82 4546.98 910.46 o
-1 10 4 5128.82 4638.14 939.18 o
-1 10 4 5128.82 4696.91 692.15 o
-1 -10 4 5128.84 5111.91 758.30 o
1 10 -4 5128.84 3658.22 1100.06 o
-1 -10 4 5128.84 5471.73 1279.93 o
1 -10 -4 5128.82 4762.88 473.33 o
1 -10 -4 5128.82 4217.14 586.83 o
1 -10 -4 5128.82 5721.21 1045.60 o
1 -10 -3 32277.40 30628.30 2214.20 o
-1 -10 3 32277.40 34407.60 2546.75 o
1 10 -3 32277.40 32819.60 1704.82 o
1 -10 -3 32277.40 28959.90 1606.72 o
-1 -10 3 32277.40 42029.90 1680.78 o
-1 10 3 32277.40 32585.70 1643.03 o
-1 10 3 32277.40 29870.20 2042.53 o
-1 10 3 32277.40 30581.50 1449.23 o
1 10 -3 32277.40 33256.20 1708.86 o
-1 -10 3 32277.40 32795.60 1668.23 o
1 10 -3 32277.40 31513.40 2664.27 o
1 10 -2 27874.70 30136.50 1472.64 o
1 10 -2 27874.70 28402.20 2200.34 o
-1 10 2 27874.80 26732.60 1662.15 o
-1 10 2 27874.80 24469.30 1734.76 o
1 10 -2 27874.70 26348.80 1562.35 o
-1 -10 2 27874.70 28011.10 2089.80 o
1 -10 -2 27874.80 28899.90 1835.60 o
-1 10 2 27874.80 28215.00 1499.63 o
-1 -10 2 27874.70 34837.00 1616.97 o
1 -10 -2 27874.80 26684.60 1438.93 o
1 -10 -2 27874.80 28137.10 1924.30 o
-1 -10 2 27874.70 26466.30 1516.18 o
1 -10 -1 28639.70 28867.50 1375.12 o
-1 -10 1 28639.70 27960.80 1884.82 o
1 10 -1 28639.70 29454.00 1556.60 o
-1 -10 1 28639.70 30245.70 1935.13 o
-1 10 1 28639.70 28321.80 1462.60 o
1 -10 -1 28639.70 27188.30 1896.23 o
1 -10 -1 28639.70 28149.10 1500.07 o
-1 -10 1 28639.70 29656.70 1515.12 o
1 10 -1 28639.70 28747.60 2018.53 o
1 -10 -1 28639.70 30028.60 1655.47 o
-1 10 1 28639.70 28699.60 1156.27 o
-1 -10 0 21049.10 23119.90 1702.47 o
1 -10 0 21049.20 22118.40 1220.45 o
1 -10 0 21049.20 22525.00 1351.55 o
-1 -10 0 21049.10 22435.10 1321.53 o
1 -10 0 21049.20 22586.20 1371.57 o
-1 10 0 21049.20 22030.90 1219.35 o
1 -10 0 21049.20 23439.00 1689.13 o
-1 -10 0 21049.10 21058.10 1484.57 o
1 -10 0 21049.20 19949.90 1289.65 o
1 10 0 21049.10 21440.70 1563.27 o
1 10 0 21049.10 18120.80 1543.26 o
1 10 1 4193.01 5354.19 791.10 o
-1 10 -1 4193.03 4927.20 621.35 o
-1 10 -1 4193.03 3965.27 560.48 o
1 10 1 4193.01 4736.49 729.54 o
1 -10 1 4193.03 4112.79 820.17 o
1 -10 1 4193.03 4217.14 721.71 o
-1 -10 -1 4193.01 4320.29 853.65 o
-1 -10 -1 4193.01 3832.13 677.94 o
1 10 1 4193.01 5091.52 856.39 o
1 -10 1 4193.03 4494.21 587.13 o
1 -10 1 4193.03 4567.37 512.82 o
1 -10 2 1050.83 1375.73 418.64 o
-1 10 -2 1050.83 1167.03 357.75 o
-1 -10 -2 1050.82 169.12 537.96 <
1 10 2 1050.82 1228.20 500.36 <
-1 10 -2 1050.83 594.91 316.84 <
1 -10 2 1050.83 1215.01 643.38 <
1 10 2 1050.82 918.75 419.32 <
-1 -10 -2 1050.82 996.71 541.18 <
-1 -10 -2 1050.82 1003.91 308.62 o
-1 10 -2 1050.83 662.08 416.77 <
-1 -10 -2 1050.82 578.12 320.46 <
1 10 2 1050.82 1350.54 438.14 o
1 10 2 1050.82 990.72 519.63 <
1 10 3 9669.02 11131.80 1083.91 o
-1 10 -3 9668.91 8463.07 1387.15 o
1 -10 3 9668.91 10132.70 1517.15 o
-1 10 -3 9668.91 10590.80 1016.55 o
1 10 3 9669.02 11616.30 1452.40 o
1 10 3 9669.02 9693.67 1054.94 o
-1 10 -3 9668.91 9771.64 963.04 o
-1 -10 -3 9669.02 10216.60 1532.67 o
-1 -10 -3 9669.02 7438.77 1135.51 o
1 10 3 9669.02 9678.08 950.91 o
-1 -10 -3 9669.02 8863.68 677.84 o
1 -10 3 9668.91 10540.50 938.15 o
1 -10 3 9668.91 10725.20 969.97 o
1 10 4 5.70 -61.17 343.01 <
1 -10 4 5.70 479.77 408.11 <
-1 -10 -4 5.70 -389.81 457.58 <
1 -10 4 5.70 -39.58 314.24 <
-1 -10 -4 5.70 -604.51 634.66 <
-1 10 -4 5.70 424.59 409.50 <
1 10 4 5.70 73.16 322.62 <
-1 -10 -4 5.70 182.31 215.65 <
-1 10 -4 5.70 853.98 720.44 <
-1 10 -4 5.70 -849.19 559.01 <
1 10 5 23088.40 25456.40 1603.62 o
-1 10 -5 23088.30 21511.50 2620.36 o
-1 10 -5 23088.30 27843.20 1932.92 o
-1 10 -5 23088.30 20701.90 1341.36 o
1 10 5 23088.40 22279.10 1796.09 o
1 -10 5 23088.30 26845.30 1715.05 o
-1 -10 -5 23088.40 26967.70 2611.09 o
-1 10 -6 4541.30 4061.22 1455.84 <
-1 -10 -6 4541.34 4117.59 1348.96 o
1 -10 6 4541.30 4771.27 891.86 o
1 10 6 4541.34 6373.69 1022.60 o
-1 -10 -7 6020.10 3953.27 1539.49 <
1 -10 7 6020.11 5303.81 1054.96 o
1 10 7 6020.10 6502.03 1040.06 o
-1 -10 -8 14746.60 18868.00 2271.10 o
1 10 8 14746.60 15419.70 1804.76 o
1 -10 8 14746.60 19886.30 1855.95 o
1 -10 8 14746.60 16428.40 1893.94 o
-1 -11 8 2199.04 1642.00 812.62 <
-1 11 8 2199.05 1909.47 635.49 o
1 11 -8 2199.04 2221.32 965.41 <
1 -11 -8 2199.05 2295.68 1022.59 <
-1 11 8 2199.05 1580.83 906.09 <
-1 11 7 9279.83 8280.76 1574.81 o
1 11 -7 9279.84 11539.60 1529.86 o
1 -11 -7 9279.83 7960.52 871.85 o
-1 11 7 9279.83 9854.40 1117.99 o
-1 -11 7 9279.84 10437.30 1407.61 o
1 -11 -6 9055.49 5198.27 1417.53 o
1 11 -6 9055.38 10948.30 1387.94 o
-1 11 6 9055.49 6972.20 969.91 o
-1 11 6 9055.49 7479.55 1390.48 o
1 -11 -6 9055.49 7618.69 740.39 o
-1 -11 6 9055.38 10469.70 1276.24 o
1 11 -5 1650.57 1639.60 872.03 <
-1 11 5 1650.57 1339.75 416.39 o
1 11 -5 1650.57 1424.91 563.97 <
1 -11 -5 1650.57 1791.93 828.08 <
-1 -11 5 1650.57 1957.45 640.76 o
1 -11 -5 1650.57 1590.42 445.51 o
1 -11 -5 1650.57 1441.70 302.37 o
-1 11 5 1650.57 1146.64 456.87 <
-1 11 5 1650.57 1767.94 682.95 <
-1 11 5 1650.57 1256.99 677.21 <
-1 11 4 6905.48 7513.14 1213.45 o
-1 11 4 6905.48 6053.45 697.70 o
1 -11 -4 6905.48 8487.06 1280.38 o
1 11 -4 6905.47 6962.61 924.92 o
-1 11 4 6905.48 8098.45 1161.39 o
1 11 -4 6905.47 5367.38 1302.55 o
-1 -11 4 6905.47 7473.56 995.18 o
1 -11 -4 6905.48 6659.15 748.98 o
-1 -11 4 6905.47 6878.65 894.06 o
-1 11 4 6905.48 7370.41 880.87 o
1 -11 -3 97.94 103.15 435.39 <
-1 11 3 97.94 -98.35 377.79 <
-1 11 3 97.94 65.97 197.93 <
1 -11 -3 97.94 254.28 291.20 <
1 11 -3 97.93 -16.79 304.67 <
-1 11 3 97.94 1665.99 515.87 o
-1 -11 3 97.93 261.47 330.79 <
-1 11 3 97.94 -71.96 317.84 <
1 11 -3 97.93 199.10 322.52 <
-1 -11 3 97.93 599.71 545.98 <
1 11 -3 97.93 398.21 542.94 <
-1 11 3 97.94 122.34 414.98 <
-1 -11 2 1251.68 1448.89 419.44 o
1 -11 -2 1251.70 1354.14 528.33 <
1 11 -2 1251.68 590.11 320.68 <
-1 -11 2 1251.68 1328.95 654.51 <
-1 -11 2 1251.68 1651.59 545.47 o
1 -11 -2 1251.70 1073.48 398.23 <
1 11 -2 1251.68 1271.38 404.05 o
-1 11 2 1251.70 1244.99 413.85 o
1 -11 -2 1251.70 792.81 284.35 <
-1 11 2 1251.70 1105.86 510.54 <
1 11 -2 1251.68 1350.54 648.40 <
1 -11 -2 1251.70 1099.86 534.53 <
-1 11 2 1251.70 1181.42 489.78 <
-1 11 2 1251.70 -166.72 522.85 <
-1 -11 1 3753.29 4060.02 633.51 o
-1 -11 1 3753.29 4037.23 805.08 o
-1 11 1 3753.22 3286.40 770.25 o
1 -11 -1 3753.22 4302.30 802.87 o
1 -11 -1 3753.22 3926.89 623.51 o
-1 -11 1 3753.29 4208.75 651.71 o
1 11 -1 3753.29 4295.11 662.45 o
-1 11 1 3753.22 3884.91 594.07 o
-1 -11 1 3753.29 3973.66 820.29 o
1 -11 -1 3753.22 3967.67 708.43 o
1 11 -1 3753.29 2352.05 554.70 o
1 -11 -1 3753.22 3833.33 540.78 o
-1 11 1 3753.22 4118.79 480.92 o
1 11 -1 3753.29 4301.10 640.48 o
1 -11 0 17285.10 18405.00 1193.04 o
1 11 0 17285.10 18283.90 1234.61 o
1 -11 0 17285.10 16796.60 1362.81 o
-1 11 0 17285.10 18415.80 1166.58 o
-1 -11 0 17285.10 19207.40 1288.07 o
-1 -11 0 17285.10 19566.10 1286.03 o
1 -11 0 17285.10 19479.70 1631.74 o
-1 -11 0 17285.10 19780.80 1671.37 o
1 -11 0 17285.10 15033.50 1195.09 o
-1 -11 0 17285.10 17310.00 1457.78 o
1 11 0 17285.10 14227.50 1451.38 o
-1 11 0 17285.10 16118.90 1626.28 o
1 -11 0 17285.10 17677.00 1310.42 o
-1 -11 -1 21367.10 25150.50 1942.36 o
1 -11 1 21367.30 19381.40 1181.31 o
-1 -11 -1 21367.10 22345.10 1429.99 o
-1 11 -1 21367.30 19907.90 1883.03 o
1 11 1 21367.10 21958.90 1780.65 o
1 11 1 21367.10 21755.00 1565.63 o
-1 11 -1 21367.30 21346.00 1299.81 o
1 -11 1 21367.30 21258.40 1528.10 o
1 -11 1 21367.30 17868.90 1535.20 o
-1 -11 -1 21367.10 21137.30 1490.35 o
1 -11 1 21367.30 20935.80 1882.72 o
1 11 1 21367.10 21452.70 1398.97 o
1 11 1 21367.10 23866.00 1551.80 o
1 -11 1 21367.30 23429.40 1304.10 o
-1 11 -1 21367.30 24544.80 1287.83 o
-1 11 -2 17732.10 18104.00 1855.26 o
1 11 2 17732.20 18347.50 1424.21 o
-1 11 -2 17732.10 18412.20 1240.48 o
-1 -11 -2 17732.20 18267.10 1391.52 o
1 -11 2 17732.10 16417.60 971.53 o
1 -11 2 17732.10 23031.20 1273.36 o
-1 -11 -2 17732.20 19485.70 1902.90 o
1 11 2 17732.20 19067.10 1703.28 o
1 11 2 17732.20 19407.70 1370.68 o
-1 -11 -2 17732.20 16345.60 1098.07 o
1 -11 2 17732.10 16853.00 1517.30 o
1 -11 2 17732.10 18352.30 1859.02 o
-1 -11 -2 17732.20 15236.20 1379.02 o
1 -11 2 17732.10 18707.30 1212.41 o
-1 11 -2 17732.10 17507.90 1226.35 o
1 11 2 17732.20 19061.10 1398.67 o
-1 -11 -3 23669.00 26389.50 2403.74 o
1 -11 3 23669.20 24432.10 1517.14 o
1 11 3 23669.00 25356.80 1529.72 o
-1 -11 -3 23669.00 22627.00 2045.70 o
-1 -11 -3 23669.00 21152.90 1191.86 o
-1 11 -3 23669.20 25099.00 1520.24 o
-1 11 -3 23669.20 21821.00 2238.64 o
-1 11 -3 23669.20 25256.10 1482.64 o
1 11 3 23669.00 24324.10 2111.08 o
1 11 3 23669.00 23776.00 1647.90 o
1 11 3 23669.00 23897.20 1688.26 o
1 -11 3 23669.20 24970.60 2335.05 o
1 -11 3 23669.20 25807.80 1454.01 o
-1 11 -4 6452.35 7412.39 966.76 o
1 -11 4 6452.35 7333.23 926.82 o
-1 -11 -4 6452.45 5341.00 1296.38 o
-1 -11 -4 6452.45 5627.66 579.46 o
1 11 4 6452.45 6029.46 942.22 o
1 -11 4 6452.35 5666.04 948.61 o
-1 -11 -4 6452.45 3337.97 818.23 o
-1 11 -4 6452.35 5964.69 1378.54 o
1 11 4 6452.45 6965.00 876.89 o
-1 11 -4 6452.35 4250.73 848.43 o
-1 -11 -5 5051.51 3967.67 425.55 o
-1 11 -5 5051.50 4442.63 617.99 o
-1 11 -5 5051.50 3970.06 1329.04 o
1 11 5 5051.51 3962.87 850.59 o
1 11 5 5051.51 4091.21 753.65 o
-1 11 -5 5051.50 5073.53 936.46 o
-1 -11 -5 5051.51 6683.14 1534.05 o
1 -11 5 5051.50 5919.11 932.65 o
-1 -11 -6 2812.18 3000.94 1225.92 <
1 11 6 2812.18 3809.34 874.51 o
1 -11 6 2812.21 3538.28 844.81 o
-1 11 -6 2812.21 3985.66 1004.68 o
-1 11 -6 2812.21 1559.24 1133.90 <
-1 11 -7 271.74 95.95 611.81 <
1 11 7 271.74 1554.44 757.06 <
1 -11 7 271.74 1328.95 675.21 <
-1 -11 -7 271.74 -16.79 825.27 <
1 -11 8 574.99 -557.73 722.84 <
1 11 8 574.96 675.27 669.04 <
1 -11 8 574.99 1320.56 806.03 <
1 12 -8 1630.82 2878.60 1006.20 <
-1 -12 8 1630.82 2254.90 872.07 <
1 -12 -8 1630.83 2741.86 1006.04 <
-1 12 8 1630.83 1543.65 812.41 <
-1 12 7 623.88 1957.45 623.17 o
-1 12 7 623.88 1185.02 804.34 <
1 12 -7 623.86 2513.97 903.34 <
-1 -12 7 623.86 2495.98 869.55 <
-1 12 6 18.47 -596.11 536.15 <
1 -12 -6 18.47 75.56 235.05 <
1 12 -6 18.47 556.53 501.58 <
1 -12 -6 18.47 -93.55 299.80 <
1 -12 -6 18.47 75.56 633.28 <
-1 12 6 18.47 -215.90 468.79 <
-1 -12 6 18.47 -219.49 433.99 <
1 12 -5 1094.79 562.53 699.41 <
-1 -12 5 1094.79 1625.21 623.14 <
-1 12 5 1094.83 1525.66 723.67 <
-1 12 5 1094.83 1009.91 421.50 <
-1 12 5 1094.83 816.80 391.36 <
1 12 -5 1094.79 818.00 504.95 <
1 -12 -5 1094.83 2140.96 965.68 <
1 -12 -5 1094.83 1656.39 459.89 o
-1 12 4 9089.81 8580.62 1270.23 o
-1 -12 4 9089.85 10576.40 1121.00 o
1 -12 -4 9089.81 9531.75 917.56 o
1 12 -4 9089.85 7534.73 1542.86 o
-1 12 4 9089.81 8259.17 784.82 o
-1 12 4 9089.81 9514.96 1036.71 o
1 -12 -4 9089.81 11360.90 1492.21 o
-1 12 4 9089.81 9312.26 1372.14 o
1 12 -4 9089.85 9603.72 1118.30 o
-1 12 3 1070.12 1781.13 561.45 o
1 12 -3 1070.12 1483.68 483.01 o
-1 12 3 1070.12 1037.49 479.94 <
1 -12 -3 1070.12 1102.26 431.59 <
-1 12 3 1070.12 2353.25 648.20 o
-1 12 3 1070.12 865.98 553.76 <
1 12 -3 1070.12 966.73 476.69 <
1 -12 -3 1070.12 961.93 555.80 <
1 -12 -3 1070.12 891.17 394.45 <
-1 -12 3 1070.12 993.12 747.49 <
-1 -12 3 1070.12 1477.68 469.78 o
1 12 -3 1070.12 1345.74 730.51 <
1 -12 -2 5525.66 4797.66 960.35 o
-1 12 2 5525.66 3352.37 685.44 o
-1 12 2 5525.66 6133.81 787.90 o
-1 -12 2 5525.62 7730.23 982.53 o
-1 12 2 5525.66 5412.96 975.44 o
1 -12 -2 5525.66 6304.13 774.77 o
1 -12 -2 5525.66 6117.02 1005.18 o
-1 -12 2 5525.62 5506.52 1077.31 o
-1 12 2 5525.66 4340.68 781.46 o
1 12 -2 5525.62 5386.57 1172.18 o
1 12 -2 5525.62 6538.01 838.61 o
1 12 -2 5525.62 5902.32 793.46 o
-1 -12 2 5525.62 6000.67 795.28 o
1 -12 -2 5525.66 4850.44 680.28 o
-1 -12 2 5525.62 5759.59 995.91 o
-1 12 1 483.64 521.75 347.70 <
1 -12 -1 483.64 315.45 275.21 <
1 -12 -1 483.64 573.32 528.72 <
-1 -12 1 483.64 1535.25 541.44 <
1 12 -1 483.64 955.93 428.48 <
-1 12 1 483.64 477.37 458.19 <
1 -12 -1 483.64 828.80 428.01 <
-1 -12 1 483.64 255.48 427.42 <
-1 12 1 483.64 381.41 245.10 <
1 -12 -1 483.64 353.83 284.70 <
-1 -12 1 483.64 796.41 577.22 <
-1 -12 1 483.64 221.89 329.23 <
1 -12 -1 483.64 542.14 423.22 <
1 12 -1 483.64 -398.21 747.10 <
1 12 -1 483.64 705.26 392.55 <
1 12 -1 483.64 328.64 489.65 <
-1 12 0 467.62 488.16 498.91 <
1 12 0 467.63 669.27 374.64 <
-1 -12 0 467.63 410.20 394.76 <
1 -12 0 467.62 755.63 365.78 <
1 -12 0 467.62 532.54 392.01 <
-1 12 0 467.62 633.29 362.79 <
-1 -12 0 467.63 430.59 339.55 <
1 -12 0 467.62 919.95 588.70 <
-1 -12 0 467.63 720.85 522.21 <
1 12 0 467.63 -41.98 401.03 <
-1 -12 0 467.63 237.48 362.70 <
1 -12 0 467.62 271.07 354.28 <
1 -12 0 467.62 229.09 329.18 <
1 -12 0 467.62 485.76 320.18 <
1 12 1 3906.63 4170.37 685.91 o
-1 12 -1 3906.65 3949.67 630.25 o
-1 12 -1 3906.65 4867.23 701.26 o
1 -12 1 3906.65 3687.00 900.57 o
1 -12 1 3906.65 3630.63 773.22 o
1 -12 1 3906.65 5153.89 744.00 o
1 12 1 3906.63 5430.95 920.99 o
-1 12 -1 3906.65 3701.40 923.16 o
-1 -12 -1 3906.63 4531.39 970.87 o
-1 -12 -1 3906.63 4323.89 698.08 o
1 -12 1 3906.65 4152.38 772.92 o
1 12 1 3906.63 4416.25 910.67 o
1 -12 1 3906.65 4791.66 709.92 o
-1 -12 -1 3906.63 3940.08 761.21 o
1 -12 1 3906.65 3746.97 541.23 o
1 12 2 1896.30 2505.58 631.58 o
-1 12 -2 1896.33 1388.92 436.16 o
-1 12 -2 1896.33 1734.35 476.43 o
1 -12 2 1896.33 1548.45 370.79 o
-1 12 -2 1896.33 1603.62 692.59 <
1 12 2 1896.30 2809.03 813.68 o
1 -12 2 1896.33 2463.60 739.46 o
-1 -12 -2 1896.30 1885.48 502.65 o
1 -12 2 1896.33 2179.34 529.87 o
-1 -12 -2 1896.30 1565.24 426.53 o
1 12 2 1896.30 2144.55 628.94 o
1 -12 2 1896.33 5915.52 1057.73 o
-1 -12 -2 1896.30 1861.49 757.04 <
-1 -12 -2 1896.30 1247.39 463.12 <
1 -12 2 1896.33 1917.86 791.49 <
-1 12 -3 5787.06 6082.23 892.42 o
-1 -12 -3 5786.91 5114.31 1096.95 o
-1 12 -3 5787.06 6370.09 857.15 o
1 -12 3 5787.06 6697.54 850.91 o
-1 -12 -3 5786.91 5669.64 639.41 o
1 -12 3 5787.06 5181.47 861.91 o
1 12 3 5786.91 6487.64 973.98 o
-1 -12 -3 5786.91 6702.33 1340.09 o
1 12 3 5786.91 7194.09 933.10 o
1 12 3 5786.91 5874.74 1135.96 o
-1 12 -3 5787.06 4813.25 1152.31 o
-1 12 -4 2234.80 2191.33 574.92 o
-1 -12 -4 2234.73 2134.96 379.19 o
1 12 4 2234.73 2714.28 717.97 o
-1 -12 -4 2234.73 1969.44 887.84 <
1 -12 4 2234.80 3190.44 698.28 o
-1 12 -4 2234.80 2872.60 1116.61 <
1 12 4 2234.73 2751.46 628.22 o
1 -12 5 104.19 424.59 470.85 <
1 12 5 104.19 -268.67 498.71 <
-1 12 -5 104.19 496.56 483.85 <
-1 12 -5 104.19 -828.80 380.60 <
-1 12 -5 104.19 -64.77 645.29 <
-1 -12 -5 104.19 317.85 228.54 <
-1 12 -6 288.53 1068.68 727.16 <
1 -12 6 288.53 850.39 631.88 <
1 12 6 288.54 -122.34 527.82 <
-1 -12 -6 288.54 1387.72 991.60 <
-1 12 -6 288.53 813.20 982.70 <
1 -12 7 3055.84 4269.92 1093.21 o
1 -12 7 3055.84 3236.02 935.28 o
-1 -12 -7 3055.86 2112.17 1264.94 <
-1 12 -7 3055.84 3583.85 1056.20 o
1 12 7 3055.86 5422.56 1117.33 o
-1 12 -7 3055.84 2262.10 1368.46 <
1 -12 8 2202.97 2170.94 938.12 <
1 12 8 2202.97 2121.77 818.51 <
-1 12 -8 2202.97 1945.45 1005.16 <
1 -12 8 2202.97 4178.76 1112.55 o
1 13 -8 205.02 1851.90 887.78 <
1 -13 -8 205.01 893.56 978.80 <
-1 13 8 205.01 1162.23 722.97 <
-1 -13 8 205.02 1788.33 903.87 <
-1 13 7 27998.90 31141.60 2019.53 o
-1 13 7 27998.90 26425.50 2839.11 o
1 -13 -7 27998.90 23528.90 3239.60 o
-1 -13 7 27999.10 38538.40 2428.57 o
1 13 -7 27999.10 35051.70 2507.26 o
1 13 -6 4007.28 4227.94 910.34 o
-1 13 6 4007.32 4037.23 769.65 o
1 -13 -6 4007.32 3828.53 1151.69 o
-1 -13 6 4007.28 5169.48 1009.98 o
-1 13 6 4007.32 5062.73 1180.96 o
1 -13 -6 4007.32 3531.08 639.92 o
-1 13 5 29751.50 30786.60 2512.84 o
-1 13 5 29751.50 30827.40 1887.43 o
-1 13 5 29751.50 24415.30 1673.80 o
-1 -13 5 29751.60 32782.40 2036.46 o
1 -13 -5 29751.50 27620.10 1682.48 o
1 13 -5 29751.60 32455.00 2094.57 o
1 -13 -5 29751.50 30551.50 2685.52 o
1 13 -5 29751.60 27806.00 3276.82 o
-1 13 4 14.78 455.78 267.45 <
1 -13 -4 14.78 339.43 661.80 <
1 13 -4 14.78 -211.10 579.18 <
1 -13 -4 14.78 219.49 346.42 <
-1 -13 4 14.78 -197.90 450.82 <
-1 13 4 14.78 -32.38 428.19 <
-1 13 4 14.78 281.86 495.11 <
-1 13 4 14.78 460.58 406.98 <
1 13 -4 14.78 145.13 392.13 <
1 13 -3 819.72 1364.93 516.36 <
1 13 -3 819.72 1310.96 854.80 <
-1 13 3 819.73 1366.13 594.70 <
-1 13 3 819.73 2547.56 706.98 o
1 -13 -3 819.73 714.85 351.96 <
1 -13 -3 819.73 1071.08 610.73 <
1 -13 -3 819.73 977.52 441.79 <
-1 -13 3 819.72 982.32 462.19 <
-1 13 3 819.73 1051.89 579.58 <
-1 13 2 6334.90 6278.94 958.02 o
1 13 -2 6335.01 6632.77 883.50 o
1 -13 -2 6334.90 7535.93 1183.36 o
-1 -13 2 6335.01 8443.88 1092.15 o
1 13 -2 6335.01 6169.79 1249.37 o
1 -13 -2 6334.90 5825.56 790.15 o
1 13 -2 6335.01 7630.68 927.30 o
-1 -13 2 6335.01 7220.48 1229.48 o
-1 -13 2 6335.01 5372.18 1026.40 o
-1 -13 2 6335.01 7870.56 919.71 o
1 -13 -2 6334.90 6792.29 836.92 o
-1 13 2 6334.90 7538.33 881.27 o
-1 13 2 6334.90 4937.99 818.84 o
-1 13 2 6334.90 6277.74 1068.29 o
1 -13 -2 6334.90 7359.61 1119.33 o
1 -13 -1 54895.10 54098.40 3062.65 o
-1 13 1 54895.10 54707.70 2986.41 o
1 -13 -1 54895.10 59380.70 2594.64 o
1 13 -1 54895.20 61423.30 2115.57 o
1 13 -1 54895.20 54509.80 3166.86 o
-1 -13 1 54895.20 52468.40 3004.12 o
1 -13 -1 54895.10 52311.30 2462.23 o
-1 -13 1 54895.20 56939.80 2992.83 o
-1 13 1 54895.10 50467.80 1994.02 o
1 -13 -1 54895.10 49251.60 2288.13 o
-1 -13 1 54895.20 66195.70 2027.76 o
1 -13 -1 54895.10 58381.50 2137.51 o
-1 13 1 54895.10 53549.10 3044.39 o
1 13 -1 54895.20 55754.80 3115.55 o
-1 -13 1 54895.20 58878.10 2299.20 o
-1 13 1 54895.10 57329.60 2173.93 o
1 13 -1 54895.20 55083.10 2506.49 o
1 -13 0 9731.17 8523.04 940.68 o
1 -13 0 9731.17 10563.30 1028.51 o
1 -13 0 9731.17 10707.20 1171.64 o
1 13 0 9731.15 11250.50 1043.79 o
1 -13 0 9731.17 11052.60 1007.01 o
-1 13 0 9731.17 11371.70 1030.52 o
1 -13 0 9731.17 10264.60 1120.79 o
-1 -13 0 9731.15 10721.60 1093.09 o
-1 -13 0 9731.15 11203.70 1424.97 o
1 -13 0 9731.17 11311.70 1414.26 o
-1 -13 0 9731.15 11420.80 1077.75 o
1 13 0 9731.15 9502.97 1236.05 o
-1 -13 0 9731.15 9305.06 1186.00 o
1 13 0 9731.15 9018.40 1201.87 o
-1 13 0 9731.17 10064.30 1392.82 o
1 -13 1 43873.60 44955.30 2335.38 o
-1 -13 -1 43873.50 41718.10 2395.16 o
-1 13 -1 43873.60 46422.20 1953.98 o
-1 -13 -1 43873.50 46199.10 2162.26 o
1 -13 1 43873.60 54248.40 1802.26 o
1 -13 1 43873.60 49797.30 1908.92 o
-1 -13 -1 43873.50 49373.90 2875.55 o
1 -13 1 43873.60 43143.00 2912.04 o
1 13 1 43873.50 47031.50 2312.73 o
1 -13 1 43873.60 39164.50 1930.88 o
-1 13 -1 43873.60 43564.00 2941.22 o
1 13 1 43873.50 46016.80 2086.06 o
1 -13 1 43873.60 42164.20 2416.14 o
-1 13 -1 43873.60 51303.80 1809.17 o
-1 -13 -2 5310.81 4496.61 847.06 o
-1 13 -2 5310.64 5229.45 747.41 o
1 -13 2 5310.64 5203.06 764.60 o
-1 13 -2 5310.64 3781.76 1038.38 o
-1 -13 -2 5310.81 5241.44 1153.40 o
1 -13 2 5310.64 4591.36 546.81 o
1 -13 2 5310.64 4886.42 983.94 o
1 13 2 5310.81 5159.88 924.39 o
-1 -13 -2 5310.81 5247.44 698.01 o
1 13 2 5310.81 4564.97 1007.70 o
-1 13 -2 5310.64 4896.01 762.23 o
1 -13 2 5310.64 11166.60 1329.64 o
1 -13 3 2571.16 2240.51 574.18 o
1 -13 3 2571.16 2169.74 714.37 o
-1 -13 -3 2571.17 3182.05 1075.42 <
-1 13 -3 2571.16 1997.03 809.74 <
-1 13 -3 2571.16 2037.81 537.84 o
-1 -13 -3 2571.17 2215.32 462.51 o
1 -13 3 2571.16 3060.91 684.71 o
1 13 3 2571.17 3034.52 734.49 o
-1 13 -4 39362.40 37399.00 3370.02 o
1 13 4 39362.60 40163.60 2397.03 o
-1 -13 -4 39362.60 37175.90 3354.63 o
-1 13 -4 39362.40 41730.10 2183.21 o
-1 -13 -4 39362.60 34406.40 1779.66 o
1 -13 4 39362.40 43559.20 2111.75 o
-1 13 -5 10383.00 8118.84 1896.68 o
1 13 5 10382.90 10036.70 1347.22 o
-1 -13 -5 10382.90 8463.07 769.08 o
1 -13 5 10383.00 11450.80 1296.41 o
-1 -13 -5 10382.90 11208.50 1976.50 o
-1 13 -5 10383.00 12614.20 1367.18 o
-1 13 -6 15641.60 20188.60 1852.96 o
1 -13 6 15641.60 19740.00 1755.40 o
-1 -13 -6 15641.70 18291.10 2473.22 o
-1 13 -6 15641.60 14896.70 2625.06 o
1 13 6 15641.70 14884.70 1726.37 o
1 -13 7 4849.72 6260.95 1210.91 o
1 13 7 4849.65 7309.24 1253.17 o
1 -13 7 4849.72 4985.97 1188.46 o
-1 13 -7 4849.72 3953.27 1032.00 o
-1 -13 -7 4849.65 3477.10 1479.27 <
-1 13 -7 4849.72 3645.02 1625.23 <
1 -13 8 31.19 1338.55 914.46 <
1 13 8 31.19 1240.20 831.88 <
1 -13 8 31.19 1005.11 894.19 <
-1 -14 7 2038.15 4119.99 1029.39 o
-1 14 7 2038.12 3799.75 1146.85 o
1 -14 -7 2038.12 301.05 780.73 <
-1 14 7 2038.12 684.87 482.67 <
1 14 -7 2038.15 3549.07 1058.29 o
1 14 -6 1084.57 2103.77 789.77 <
1 -14 -6 1084.58 790.41 841.54 <
1 -14 -6 1084.58 756.83 427.39 <
-1 14 6 1084.58 382.61 624.16 <
-1 -14 6 1084.57 1805.12 735.17 <
-1 14 6 1084.58 382.61 415.11 <
1 14 -5 43806.10 48024.60 2517.72 o
1 14 -5 43806.10 40709.40 4066.28 o
1 -14 -5 43806.50 39363.60 2189.15 o
-1 -14 5 43806.10 49746.90 2437.25 o
-1 14 5 43806.50 46527.70 3046.18 o
1 -14 -5 43806.50 46268.60 3292.17 o
-1 14 5 43806.50 46825.20 2335.12 o
-1 -14 4 9613.36 11416.00 1214.25 o
1 14 -4 9613.36 10214.20 1197.01 o
1 14 -4 9613.36 8800.11 1830.41 o
1 -14 -4 9613.34 9562.94 999.07 o
-1 14 4 9613.34 10821.10 1182.54 o
-1 14 4 9613.34 10083.50 1483.34 o
-1 14 4 9613.34 9675.68 1389.08 o
1 -14 -4 9613.34 8680.17 1480.55 o
1 -14 -3 133031.00 134008.00 5087.86 o
1 -14 -3 133031.00 126863.00 4126.08 o
1 14 -3 133032.00 131353.00 5997.60 o
-1 14 3 133031.00 135512.00 3859.97 o
-1 14 3 133031.00 130109.00 4729.94 o
1 14 -3 133032.00 136881.00 3819.39 o
-1 -14 3 133032.00 140731.00 3410.54 o
-1 14 3 133031.00 137211.00 4695.92 o
1 -14 -2 1650.52 912.76 383.21 <
1 -14 -2 1650.52 1212.61 433.89 <
-1 14 2 1650.52 436.59 456.38 <
1 14 -2 1650.55 1336.15 597.93 <
1 -14 -2 1650.52 841.99 540.15 <
-1 14 2 1650.52 1841.10 742.54 <
-1 -14 2 1650.55 1366.13 788.08 <
1 14 -2 1650.55 1815.91 839.96 <
1 14 -2 1650.55 1193.42 495.95 <
1 -14 -2 1650.52 2341.26 722.02 o
-1 -14 2 1650.55 1665.99 549.22 o
-1 -14 2 1650.55 1282.17 565.92 <
1 14 -1 36812.30 37656.80 2097.96 o
-1 14 1 36812.00 35803.70 2498.84 o
-1 14 1 36812.00 34974.90 2561.58 o
1 -14 -1 36812.00 32910.80 1835.32 o
-1 14 1 36812.00 33282.60 1602.05 o
1 -14 -1 36812.00 37331.80 2584.86 o
-1 -14 1 36812.30 34530.00 2562.96 o
1 14 -1 36812.30 36252.30 2734.64 o
1 -14 -1 36812.00 40758.50 2292.88 o
-1 14 1 36812.00 39775.00 1883.46 o
1 14 -1 36812.30 38864.70 2640.39 o
1 -14 -1 36812.00 39472.80 1909.24 o
1 -14 -1 36812.00 35539.90 2051.27 o
-1 -14 1 36812.30 39905.70 2014.44 o
-1 -14 1 36812.30 37309.00 2573.59 o
1 -14 0 29485.60 31577.00 1980.21 o
1 -14 0 29485.60 28786.00 1940.74 o
-1 -14 0 29485.50 31893.70 1859.61 o
1 -14 0 29485.60 33126.60 1709.04 o
-1 -14 0 29485.50 32503.00 2389.15 o
-1 14 0 29485.60 32205.50 1707.37 o
-1 -14 0 29485.50 27160.80 2118.69 o
-1 14 0 29485.60 29888.20 2404.89 o
1 14 0 29485.50 29421.70 2273.68 o
1 14 0 29485.50 32171.90 2181.12 o
-1 14 -1 21727.40 20683.90 2170.16 o
-1 14 -1 21727.40 24077.10 1532.15 o
1 -14 1 21727.40 20885.40 1730.46 o
-1 -14 -1 21727.00 19651.20 1757.03 o
-1 14 -1 21727.40 21166.10 1512.41 o
1 14 1 21727.00 22645.00 1875.01 o
1 14 1 21727.00 24217.40 1773.56 o
1 -14 1 21727.40 22372.70 1522.47 o
1 -14 1 21727.40 19626.00 1753.06 o
-1 -14 -1 21727.00 24182.60 2195.45 o
1 -14 1 21727.40 26516.70 1620.26 o
1 -14 1 21727.40 18419.40 1326.69 o
-1 14 -2 63575.20 64502.20 2577.90 o
1 -14 2 63575.20 87136.30 1608.67 o
1 -14 2 63575.20 59086.80 3179.69 o
-1 -14 -2 63575.40 68352.30 3766.05 o
1 14 2 63575.40 67242.80 2905.75 o
-1 -14 -2 63575.40 59808.80 2518.17 o
1 -14 2 63575.20 59819.60 3213.07 o
-1 14 -2 63575.20 57430.40 3836.53 o
-1 -14 -2 63575.40 58315.60 3198.35 o
1 -14 2 63575.20 56833.10 2301.57 o
1 -14 2 63575.20 68905.20 2401.57 o
-1 -14 -3 63704.80 69034.80 4115.08 o
1 14 3 63704.80 66806.20 2975.03 o
-1 14 -3 63704.90 65832.30 2646.67 o
1 -14 3 63704.90 53571.90 3474.64 o
-1 -14 -3 63704.80 56228.60 2551.06 o
1 -14 3 63704.90 71647.10 2362.22 o
-1 14 -3 63704.90 59781.30 4099.68 o
1 14 4 4907.92 5203.06 977.43 o
-1 14 -4 4907.79 5023.15 892.02 o
-1 -14 -4 4907.92 3643.82 597.91 o
1 -14 4 4907.79 2799.44 894.41 o
-1 -14 -4 4907.92 4254.33 1264.94 o
1 -14 4 4907.79 5054.34 883.18 o
-1 14 -4 4907.79 4391.06 1330.81 o
-1 14 -5 7171.46 5670.84 1603.15 o
1 14 5 7171.53 6857.06 1155.99 o
-1 14 -5 7171.46 8845.69 1190.97 o
-1 -14 -5 7171.53 8127.24 1752.95 o
1 -14 5 7171.46 5438.15 1203.60 o
1 -14 5 7171.46 8332.34 1155.22 o
-1 -14 -6 24918.00 28941.90 3191.96 o
1 14 6 24918.00 27014.40 2291.38 o
1 -14 6 24918.10 30946.10 2162.86 o
1 -14 6 24918.10 24680.40 2423.86 o
-1 14 -6 24918.10 30123.30 2237.16 o
-1 14 -6 24918.10 25368.80 3334.60 o
1 -14 7 3100.88 2721.47 1068.71 <
1 14 7 3100.88 5093.92 1143.86 o
-1 -14 -7 3100.88 3039.32 1283.73 <
-1 14 -7 3100.88 3685.80 1030.35 o
1 -14 7 3100.88 3328.38 952.87 o
-1 14 -7 3100.88 1440.50 1197.67 <
1 -14 8 34719.30 42377.70 3024.57 o
1 15 -7 22529.10 27956.00 2345.43 o
-1 15 7 22529.20 23641.70 2559.38 o
-1 15 7 22529.20 25101.40 1997.83 o
1 -15 -7 22529.20 20376.90 2976.60 o
-1 -15 7 22529.10 28219.80 2304.13 o
1 15 -6 12497.50 11841.80 2576.52 o
1 -15 -6 12497.30 10504.50 1933.70 o
1 15 -6 12497.50 14358.20 1636.11 o
1 -15 -6 12497.30 10692.80 1151.55 o
-1 -15 6 12497.50 17035.30 1715.24 o
-1 15 6 12497.30 12110.50 1797.06 o
-1 15 6 12497.30 14515.30 1443.97 o
-1 15 5 40609.20 45924.40 3039.24 o
-1 15 5 40609.20 43176.60 2369.17 o
1 -15 -5 40609.20 37968.70 2141.63 o
1 15 -5 40609.40 35982.50 4000.07 o
1 15 -5 40609.40 44776.60 2512.34 o
1 -15 -5 40609.20 44055.70 3234.86 o
-1 -15 5 40609.40 48376.00 2407.85 o
1 -15 -4 6912.77 5854.35 1262.34 o
1 15 -4 6912.82 6571.60 1010.54 o
1 15 -4 6912.82 6300.53 1635.86 o
-1 15 4 6912.77 7663.06 1090.09 o
-1 15 4 6912.77 7090.94 1250.99 o
-1 -15 4 6912.82 6915.83 1044.64 o
1 -15 -4 6912.77 6807.88 890.70 o
-1 15 3 529.62 430.59 544.74 <
-1 -15 3 529.61 711.25 544.01 <
1 15 -3 529.61 382.61 393.80 <
1 -15 -3 529.62 516.95 603.33 <
1 -15 -3 529.62 696.86 403.57 <
-1 15 3 529.62 2170.94 770.16 <
-1 15 3 529.62 564.92 503.66 <
1 15 -3 529.61 699.26 679.68 <
-1 -15 3 529.61 636.89 642.65 <
-1 15 2 20364.70 18517.80 1741.77 o
-1 -15 2 20364.50 22778.10 1616.67 o
-1 15 2 20364.70 19882.70 1996.68 o
1 -15 -2 20364.70 22112.40 1952.51 o
-1 -15 2 20364.50 19985.90 2038.40 o
1 15 -2 20364.50 20722.30 2213.34 o
1 15 -2 20364.50 19859.90 1618.67 o
1 15 -2 20364.50 20637.10 2313.87 o
1 -15 -2 20364.70 19172.70 1533.82 o
1 -15 -1 92168.60 99774.60 2751.00 o
1 -15 -1 92168.60 83067.90 3228.54 o
1 -15 -1 92168.60 102819.00 3358.98 o
1 15 -1 92168.30 87695.20 4447.50 o
-1 15 1 92168.60 80118.50 3099.27 o
-1 -15 1 92168.30 96463.00 4021.31 o
-1 -15 1 92168.30 86498.20 4333.87 o
-1 15 1 92168.60 84492.80 4323.63 o
-1 15 1 92168.60 89547.10 4291.84 o
1 -15 -1 92168.60 84170.20 3678.06 o
-1 -15 1 92168.30 101764.00 2803.71 o
1 15 -1 92168.30 91190.30 4514.46 o
1 15 0 43316.20 42534.90 2880.21 o
1 -15 0 43316.20 45757.70 2490.76 o
-1 -15 0 43316.20 40540.20 2680.28 o
1 -15 0 43316.20 40751.30 2435.59 o
1 15 0 43316.20 49090.90 2594.66 o
-1 -15 0 43316.20 48158.90 2900.43 o
1 -15 0 43316.20 47162.20 2104.44 o
-1 15 0 43316.20 43665.90 3026.06 o
1 -15 1 55214.70 56392.90 2812.04 o
1 15 1 55215.10 60472.10 2723.28 o
1 -15 1 55214.70 46722.00 2426.78 o
-1 -15 -1 55215.10 63465.90 3391.28 o
-1 15 -1 55214.70 57328.50 2452.28 o
1 -15 1 55214.70 66126.20 2283.62 o
1 -15 1 55214.70 51881.90 2938.99 o
-1 -15 -1 55215.10 50129.60 2592.01 o
-1 -15 -1 55215.10 52693.90 2983.24 o
-1 15 -1 55214.70 53227.60 3543.20 o
1 -15 1 55214.70 65819.10 2074.01 o
1 15 1 55215.10 53679.80 3153.66 o
1 -15 1 55214.70 45078.80 2826.97 o
1 -15 2 1437.30 2200.93 591.31 o
1 -15 2 1437.30 1540.05 364.80 o
1 15 2 1437.24 2253.70 723.90 o
1 -15 2 1437.30 1252.19 592.30 <
-1 -15 -2 1437.24 1393.72 470.48 <
-1 15 -2 1437.30 895.96 431.45 <
-1 -15 -2 1437.24 1951.45 906.74 <
-1 15 -2 1437.30 467.77 593.22 <
1 -15 2 1437.30 1520.86 737.23 <
-1 -15 -2 1437.24 904.36 463.57 <
1 15 2 1437.24 1783.53 599.80 <
-1 15 -3 4709.65 4255.53 1189.07 o
-1 15 -3 4709.65 3703.79 740.14 o
1 -15 3 4709.65 5811.17 891.97 o
1 15 3 4709.67 4722.10 979.78 o
1 15 3 4709.67 5342.20 968.31 o
-1 -15 -3 4709.67 4549.38 693.42 o
1 -15 3 4709.65 3651.02 981.94 o
-1 -15 -3 4709.67 5412.96 1311.51 o
-1 15 -4 56247.40 62782.20 2641.12 o
-1 -15 -4 56247.50 60774.40 4240.65 o
1 -15 4 56247.40 62941.70 2590.87 o
-1 15 -4 56247.40 53226.50 4280.04 o
1 -15 4 56247.40 36687.70 3429.24 o
1 15 4 56247.50 62656.30 2906.50 o
-1 -15 -4 56247.50 51348.20 2370.97 o
-1 -15 -5 20782.10 19295.00 2662.97 o
1 15 5 20782.10 22088.40 2015.19 o
-1 15 -5 20782.10 23687.30 1887.30 o
1 -15 5 20782.10 13041.20 1957.10 o
-1 15 -5 20782.10 18804.40 2829.87 o
1 -15 5 20782.10 23695.60 1874.51 o
-1 -15 -6 19651.10 23495.30 2989.52 o
-1 15 -6 19651.20 25188.90 2061.56 o
1 -15 6 19651.20 20089.00 2251.61 o
1 15 6 19651.10 21259.60 2080.05 o
-1 15 -6 19651.20 19400.50 3070.72 o
1 -15 6 19651.20 25422.80 2043.83 o
1 -15 7 960.99 1802.72 1023.70 <
1 -15 7 960.99 1337.35 761.39 <
1 15 7 960.97 1657.59 881.27 <
-1 15 -7 960.99 1410.51 842.78 <
1 -16 -7 3189.92 1150.24 898.79 <
1 16 -7 3189.91 3840.53 1104.35 o
-1 -16 6 6.28 -163.12 626.02 <
1 -16 -6 6.28 -247.08 738.69 <
1 16 -6 6.28 -302.25 540.63 <
1 16 -6 6.28 -700.46 1114.66 <
-1 16 6 6.28 -531.34 627.68 <
-1 16 6 6.28 -337.04 481.74 <
1 16 -5 546.91 686.07 581.35 <
-1 16 5 546.89 1177.83 701.97 <
-1 -16 5 546.91 1012.31 659.43 <
1 -16 -5 546.89 1815.91 1064.70 <
-1 16 5 546.89 1012.31 552.40 <
1 -16 -5 546.89 624.90 438.73 <
1 16 -5 546.91 322.64 772.70 <
-1 16 4 14616.60 16291.70 1546.45 o
1 -16 -4 14616.60 12530.30 1823.81 o
1 16 -4 14616.60 14105.10 1503.77 o
1 -16 -4 14616.60 13712.90 1328.05 o
1 16 -4 14616.60 12478.70 2315.50 o
-1 -16 4 14616.60 15851.50 1532.06 o
-1 16 4 14616.60 15862.30 1866.90 o
-1 16 3 6413.57 6929.02 1303.36 o
1 16 -3 6413.49 7128.12 1579.36 o
-1 -16 3 6413.49 6566.80 982.28 o
1 -16 -3 6413.57 6685.54 1258.37 o
-1 16 3 6413.57 8447.48 1151.34 o
1 16 -3 6413.49 6743.11 1013.14 o
-1 -16 3 6413.49 6848.66 1275.50 o
1 -16 -3 6413.57 6312.52 895.28 o
-1 16 3 6413.57 5860.34 1079.74 o
1 -16 -2 17125.50 15486.80 1456.86 o
1 16 -2 17125.50 16651.50 2019.71 o
-1 16 2 17125.50 16585.50 1858.83 o
-1 -16 2 17125.50 19862.30 1588.26 o
-1 -16 2 17125.50 17530.70 1960.83 o
-1 16 2 17125.50 18586.10 1735.35 o
1 16 -2 17125.50 18333.10 1569.65 o
1 16 -2 17125.50 17650.60 2264.39 o
1 -16 -2 17125.50 19813.10 1957.23 o
1 -16 -1 25.47 761.63 609.01 <
-1 -16 1 25.48 341.83 648.61 <
-1 16 1 25.47 482.17 602.71 <
1 16 -1 25.48 -940.34 872.55 <
1 -16 -1 25.47 58.77 383.80 <
-1 16 1 25.47 -1182.62 887.13 <
1 16 -1 25.48 985.92 802.90 <
-1 -16 1 25.48 135.53 450.92 <
-1 16 1 25.47 115.14 243.41 <
1 -16 0 103.63 176.31 395.74 <
1 -16 0 103.63 658.48 539.77 <
-1 -16 0 103.63 450.98 526.01 <
-1 -16 0 103.63 394.61 1466.74 <
1 16 0 103.63 -272.27 571.90 <
-1 16 0 103.63 22.79 522.96 <
1 16 0 103.63 2824.62 906.24 o
1 -16 1 13609.60 15725.50 1550.38 o
-1 -16 -1 13609.60 16142.90 1916.71 o
1 -16 1 13609.60 11209.70 1274.11 o
1 -16 1 13609.60 12018.10 1098.81 o
1 16 1 13609.60 12927.30 1612.24 o
1 -16 1 13609.60 15708.70 1368.32 o
-1 -16 -1 13609.60 13188.80 1532.07 o
-1 16 -1 13609.60 12873.30 1817.92 o
1 16 1 13609.60 16384.00 1608.00 o
-1 -16 -1 13609.60 12477.50 1276.26 o
1 -16 1 13609.60 13746.50 1516.69 o
1 16 2 13674.20 15605.60 1668.10 o
1 16 2 13674.20 15442.50 1566.28 o
1 -16 2 13674.30 13007.70 1604.87 o
1 -16 2 13674.30 16772.60 1434.26 o
-1 -16 -2 13674.20 13115.60 1234.34 o
1 -16 2 13674.30 13458.60 1550.57 o
-1 -16 -2 13674.20 13119.20 1570.56 o
-1 16 -2 13674.30 14405.00 1333.24 o
-1 16 -2 13674.30 11813.00 1812.05 o
1 -16 2 13674.30 12087.70 961.68 o
-1 -16 -2 13674.20 16705.50 2080.79 o
-1 16 -3 8078.57 8941.64 1102.92 o
1 -16 3 8078.57 8758.13 1118.68 o
1 -16 3 8078.57 8362.32 1360.80 o
-1 -16 -3 8078.61 7368.01 887.90 o
-1 16 -3 8078.57 7134.12 1567.65 o
1 16 3 8078.61 9097.57 1321.24 o
-1 -16 -3 8078.61 8867.28 1708.05 o
1 16 3 8078.61 9319.46 1291.79 o
-1 16 -4 4090.26 4574.57 1471.80 o
1 -16 4 4090.26 2755.06 915.63 o
1 -16 4 4090.26 6271.74 998.03 o
-1 -16 -4 4090.25 5839.95 1526.86 o
-1 16 -4 4090.26 4740.09 885.63 o
1 16 4 4090.25 4491.81 990.08 o
1 16 4 4090.25 4928.40 1019.97 o
-1 -16 -4 4090.25 3811.74 656.47 o
1 16 5 1894.95 1037.49 656.64 <
-1 16 -5 1894.94 1490.87 706.29 <
1 -16 5 1894.94 1146.64 636.05 <
-1 16 -5 1894.94 1755.94 1307.82 <
1 -16 5 1894.94 1614.41 868.50 <
-1 -16 -5 1894.95 1632.40 1126.01 <
1 16 6 1071.99 1047.09 657.38 <
-1 -16 -6 1071.99 3480.70 1509.44 <
-1 16 -6 1071.99 2235.71 849.13 <
1 -16 6 1071.99 2973.35 1145.76 <
-1 16 -6 1071.99 929.55 1188.90 <
1 -16 6 1071.99 275.87 581.10 <
1 16 7 10050.80 14054.70 1788.41 o
1 -17 -7 5688.92 2638.71 1360.76 <
-1 17 6 3042.94 3715.79 1122.44 o
-1 -17 6 3042.96 3826.13 1022.57 o
1 17 -6 3042.96 2741.86 906.63 o
-1 17 6 3042.94 3594.65 935.53 o
1 -17 -6 3042.94 2262.10 1153.15 <
1 17 -6 3042.96 2940.97 1496.16 <
-1 17 5 3970.63 4626.15 1216.52 o
-1 17 5 3970.63 4399.46 874.17 o
1 17 -5 3970.63 4322.69 985.92 o
1 -17 -5 3970.63 5627.66 1517.21 o
-1 -17 5 3970.63 4692.11 1020.37 o
1 -17 -5 3970.63 3773.36 976.99 o
1 17 -5 3970.63 3531.08 1510.24 <
1 -17 -4 1252.80 972.73 470.50 <
-1 17 4 1252.80 320.24 482.70 <
1 -17 -4 1252.80 702.86 639.92 <
-1 -17 4 1252.85 1368.53 815.15 <
-1 17 4 1252.80 2308.87 845.74 <
-1 -17 4 1252.85 1650.40 627.39 <
1 17 -4 1252.85 1805.12 1077.48 <
1 17 -4 1252.85 484.56 500.49 <
1 -17 -3 11.52 -218.29 651.15 <
1 17 -3 11.52 588.91 756.10 <
-1 17 3 11.52 141.53 532.48 <
1 17 -3 11.52 450.98 510.32 <
1 -17 -3 11.52 875.57 545.91 <
-1 -17 3 11.52 495.36 621.87 <
-1 17 3 11.52 1757.14 781.74 <
1 17 -3 11.52 68.37 798.80 <
-1 -17 3 11.52 -165.52 467.67 <
1 17 -2 13.48 645.28 705.52 <
1 17 -2 13.48 -386.21 490.01 <
-1 17 2 13.48 778.42 654.61 <
-1 -17 2 13.48 49.18 491.75 <
1 -17 -2 13.48 217.09 612.78 <
1 -17 -2 13.48 -14.39 392.21 <
-1 -17 2 13.48 554.13 602.50 <
1 17 -2 13.48 -1366.13 1006.58 <
-1 17 2 13.48 2146.95 850.18 <
1 17 -1 5054.97 6202.18 1333.78 o
1 -17 -1 5055.03 5983.88 1110.12 o
-1 -17 1 5054.97 4917.60 1132.49 o
-1 -17 1 5054.97 2865.40 534.37 o
1 17 -1 5054.97 2531.97 688.80 o
-1 17 1 5055.03 4771.27 1126.80 o
1 -17 -1 5055.03 4148.78 861.69 o
-1 17 1 5055.03 4000.05 541.30 o
-1 -17 1 5054.97 4910.41 913.44 o
-1 17 1 5055.03 3298.39 757.18 o
1 17 0 3080.67 5991.08 1180.88 o
1 -17 0 3080.62 3395.54 861.90 o
-1 -17 0 3080.67 3762.57 1037.93 o
1 -17 0 3080.62 2408.43 739.80 o
-1 17 0 3080.62 2762.25 970.19 <
-1 17 0 3080.62 2358.05 905.75 <
1 17 0 3080.67 3437.52 1032.35 o
1 -17 1 12532.00 14020.00 1385.68 o
1 17 1 12531.80 13258.30 1608.76 o
1 -17 1 12532.00 9219.91 1198.03 o
-1 -17 -1 12531.80 13036.40 1836.23 o
1 -17 1 12532.00 9642.10 1070.21 o
1 17 1 12531.80 11551.60 1616.20 o
1 -17 1 12532.00 13940.80 1562.75 o
-1 -17 -1 12531.80 10620.80 1273.03 o
-1 17 -1 12532.00 10251.40 1778.17 o
1 -17 1 12532.00 11353.70 1507.08 o
1 -17 2 7965.72 7166.51 1369.39 o
-1 -17 -2 7965.88 7771.01 1001.58 o
1 -17 2 7965.72 7640.28 1261.79 o
1 -17 2 7965.72 6990.19 760.51 o
1 -17 2 7965.72 5797.97 1069.69 o
1 17 2 7965.88 8911.66 1417.20 o
1 17 2 7965.88 9941.95 1361.76 o
-1 17 -2 7965.72 8634.59 2752.55 o
-1 -17 -2 7965.88 10078.70 1706.73 o
-1 17 -2 7965.72 7701.45 1043.44 o
1 -17 2 7965.72 8397.11 1137.96 o
-1 -17 -2 7965.88 7035.77 1218.94 o
-1 17 -3 7765.16 6568.00 1661.29 o
-1 17 -3 7765.16 7672.66 1107.41 o
1 -17 3 7765.16 7207.29 1351.89 o
1 -17 3 7765.16 7511.94 1318.07 o
1 17 3 7765.12 8905.66 1342.87 o
-1 -17 -3 7765.12 7795.00 1579.28 o
-1 -17 -3 7765.12 6370.09 873.39 o
1 17 3 7765.12 9692.47 1378.06 o
1 -17 3 7765.16 9566.54 1212.23 o
1 17 4 6054.70 6005.47 1155.65 o
-1 -17 -4 6054.70 5770.39 838.38 o
-1 -17 -4 6054.70 6548.81 1620.54 o
1 17 4 6054.70 7339.22 1194.91 o
1 -17 4 6054.71 3543.07 1093.11 o
-1 17 -4 6054.71 5758.39 1018.80 o
1 -17 4 6054.71 7262.46 1143.78 o
-1 17 -4 6054.71 5770.39 1815.72 o
-1 17 -5 1808.32 2649.51 832.67 o
1 -17 5 1808.32 2585.94 862.16 <
-1 17 -5 1808.32 3585.05 1396.61 <
-1 -17 -5 1808.41 1236.60 1132.78 <
1 -17 5 1808.32 1636.00 823.65 <
1 17 5 1808.41 1144.24 725.06 <
-1 -17 -6 1414.65 4293.91 1646.05 <
1 -17 6 1414.68 3008.13 1220.46 <
1 -17 6 1414.68 1488.47 853.68 <
-1 17 -6 1414.68 2211.72 905.05 <
1 17 6 1414.65 432.99 650.44 <
1 -18 -7 160.40 9.60 1310.98 <
1 -18 -6 640.80 -340.63 885.30 <
-1 18 6 640.80 419.80 552.21 <
1 -18 -5 8439.50 10015.10 1894.22 o
1 18 -5 8439.48 9753.65 1417.52 o
-1 -18 5 8439.48 11129.40 1495.31 o
1 -18 -5 8439.50 8186.01 1108.01 o
1 18 -5 8439.48 7315.23 1988.30 o
-1 18 5 8439.50 8497.86 1582.48 o
-1 18 5 8439.50 10135.10 1338.55 o
-1 18 4 121.67 190.71 489.30 <
1 18 -4 121.67 94.75 458.19 <
1 18 -4 121.67 -910.36 1015.65 <
-1 -18 4 121.67 548.13 607.42 <
1 -18 -4 121.67 14.39 406.63 <
-1 18 4 121.67 1867.49 949.08 <
-1 -18 4 121.67 -429.39 677.20 <
1 -18 -4 121.67 -99.55 701.65 <
1 18 -3 26955.60 28516.10 2145.40 o
1 18 -3 26955.60 26595.80 3134.24 o
-1 18 3 26955.70 29336.50 2151.61 o
1 -18 -3 26955.70 28333.80 2722.60 o
1 -18 -3 26955.70 24531.60 1965.57 o
-1 18 3 26955.70 29635.20 2607.14 o
-1 -18 3 26955.60 30621.10 2125.74 o
-1 -18 3 26955.60 26875.30 2647.87 o
1 18 -3 26955.60 29711.90 2987.01 o
-1 -18 2 80.92 651.28 620.28 <
-1 18 2 80.91 1315.76 866.49 <
1 18 -2 80.92 -2048.60 1068.84 <
-1 18 2 80.91 68.37 650.09 <
1 18 -2 80.92 332.24 430.24 <
1 -18 -2 80.91 375.42 702.58 <
1 18 -2 80.92 2385.64 1146.06 <
-1 -18 2 80.92 426.99 706.09 <
1 -18 -2 80.91 -159.52 437.69 <
-1 -18 1 9601.15 10514.10 1602.92 o
1 -18 -1 9601.29 9614.51 1281.94 o
1 18 -1 9601.15 9911.97 1755.38 o
-1 -18 1 9601.15 5676.83 746.53 o
1 -18 -1 9601.29 10283.80 1477.37 o
-1 -18 1 9601.15 10437.30 1331.72 o
1 18 -1 9601.15 7475.96 1324.86 o
-1 18 1 9601.29 8283.16 1291.72 o
-1 18 1 9601.29 10126.70 1654.82 o
-1 -18 0 7236.33 8984.82 1572.96 o
1 18 0 7236.33 10906.30 1503.55 o
1 18 0 7236.33 7298.44 1491.35 o
1 -18 0 7236.27 7649.87 1210.06 o
-1 18 0 7236.27 5204.26 1153.78 o
-1 18 0 7236.27 7627.08 1504.20 o
1 -18 0 7236.27 6608.78 1149.61 o
-1 -18 0 7236.33 7088.54 1152.44 o
1 -18 1 1902.39 2939.77 765.23 o
-1 -18 -1 1902.41 1993.43 889.48 <
1 -18 1 1902.39 2522.37 847.53 <
1 18 1 1902.41 1821.91 829.23 <
1 -18 1 1902.39 1250.99 459.60 <
-1 18 -1 1902.39 1650.40 924.68 <
1 -18 1 1902.39 2107.37 790.35 <
-1 -18 -1 1902.41 1962.24 668.86 <
1 18 1 1902.41 3473.51 955.15 o
1 -18 1 1902.39 1648.00 609.84 <
-1 -18 -2 10755.30 9409.41 1144.82 o
-1 -18 -2 10755.30 12893.70 2026.38 o
-1 18 -2 10755.30 10298.20 1273.22 o
1 -18 2 10755.30 10700.00 1496.62 o
-1 18 -2 10755.30 8824.10 1706.30 o
1 18 2 10755.30 12502.70 1584.37 o
1 -18 2 10755.30 8373.12 1285.24 o
1 -18 2 10755.30 9766.84 1555.52 o
1 -18 2 10755.30 13133.60 1354.68 o
1 18 2 10755.30 11954.60 1626.48 o
-1 18 -3 7910.57 7258.86 1141.34 o
-1 -18 -3 7910.52 8635.79 1788.57 o
-1 -18 -3 7910.52 6722.72 961.68 o
1 18 3 7910.52 9153.94 1440.50 o
1 -18 3 7910.57 8263.97 1211.72 o
-1 18 -3 7910.57 6858.26 1701.91 o
1 -18 3 7910.57 5784.78 1299.53 o
1 -18 3 7910.57 7174.90 1330.44 o
1 18 3 7910.52 9793.23 1450.60 o
1 -18 4 205.90 -303.45 567.09 <
1 -18 4 205.90 885.17 875.55 <
-1 18 -4 205.90 756.83 994.75 <
-1 18 -4 205.90 -303.45 562.29 <
-1 -18 -4 205.89 217.09 734.03 <
1 -18 4 205.90 949.94 779.21 <
1 18 4 205.89 128.34 590.16 <
1 18 5 1832.05 2681.89 889.28 <
-1 18 -5 1832.05 2188.93 805.01 <
-1 -18 -5 1832.05 958.33 994.55 <
1 -18 5 1832.05 2204.53 819.33 <
1 -18 5 1832.05 1301.37 857.38 <
1 18 6 5905.01 6102.62 1350.82 o
-1 18 -6 5905.03 6206.97 1258.27 o
1 -19 -6 3036.76 3135.27 1453.19 <
-1 19 5 1504.84 999.11 776.65 <
1 19 -5 1504.86 1024.30 711.97 <
-1 -19 5 1504.86 1367.33 794.60 <
1 -19 -5 1504.84 2433.61 1140.10 <
1 -19 -5 1504.84 1333.75 640.18 <
-1 -19 5 1504.86 1356.54 888.13 <
1 19 -5 1504.86 963.13 1150.33 <
-1 19 5 1504.84 3152.06 1095.31 <
-1 19 4 81.73 458.18 793.63 <
-1 -19 4 81.74 -491.76 564.16 <
1 19 -4 81.74 -1204.21 1284.95 <
1 19 -4 81.74 -167.92 931.90 <
-1 19 4 81.73 92.36 561.32 <
1 19 -4 81.74 -482.17 523.36 <
-1 -19 4 81.74 -544.53 578.41 <
1 -19 -4 81.73 -404.20 623.23 <
1 -19 -4 81.73 -266.27 421.90 <
1 19 -3 377.59 -420.99 1067.29 <
-1 19 3 377.59 764.03 762.05 <
1 19 -3 377.59 1820.71 1082.39 <
1 19 -3 377.59 197.90 482.39 <
-1 -19 3 377.59 1289.37 678.09 <
1 -19 -3 377.59 1057.88 735.80 <
1 -19 -3 377.59 486.96 577.91 <
-1 19 3 377.59 1337.35 780.22 <
-1 -19 3 377.59 995.52 651.89 <
1 19 -2 2322.48 3288.80 1187.64 <
-1 19 2 2322.50 2632.72 1029.67 <
1 -19 -2 2322.50 2557.15 742.96 o
1 -19 -2 2322.50 3758.97 1107.69 o
-1 -19 2 2322.48 2128.96 900.69 <
1 19 -2 2322.48 436.59 982.44 <
-1 -19 2 2322.48 3303.19 861.48 o
-1 19 2 2322.50 4142.78 1103.95 o
1 -19 -1 5477.62 6305.33 1217.20 o
-1 -19 1 5477.55 6527.22 1122.06 o
1 19 -1 5477.55 4151.18 1034.93 o
-1 19 1 5477.62 6322.12 1357.14 o
-1 19 1 5477.62 2827.02 808.17 o
-1 -19 1 5477.55 6685.54 1379.38 o
1 19 -1 5477.55 6076.24 1506.87 o
1 -19 -1 5477.62 4987.17 988.47 o
-1 19 0 5185.46 2770.65 932.84 o
1 19 0 5185.46 7996.50 1408.27 o
1 -19 0 5185.46 6259.75 1204.84 o
1 -19 0 5185.46 4588.96 1028.59 o
1 19 0 5185.46 6144.60 1456.51 o
-1 -19 0 5185.46 5412.96 1230.63 o
-1 -19 0 5185.46 5176.68 988.43 o
-1 19 0 5185.46 5350.59 1309.36 o
1 -19 1 2838.33 2371.24 648.47 o
-1 19 -1 2838.33 2537.96 960.32 <
-1 -19 -1 2838.34 4103.20 1141.69 o
1 -19 1 2838.33 2831.82 852.84 o
1 19 1 2838.34 4953.58 1094.73 o
1 19 1 2838.34 2343.66 863.44 <
1 -19 1 2838.33 2307.68 829.02 <
-1 -19 -1 2838.34 2404.83 701.85 o
-1 -19 -2 219.78 62.37 424.70 <
1 19 2 219.78 301.05 582.82 <
-1 19 -2 219.77 -1454.89 655.15 <
1 -19 2 219.77 -521.75 523.28 <
-1 -19 -2 219.78 -356.23 635.39 <
1 -19 2 219.77 165.52 422.25 <
1 -19 2 219.77 1033.90 665.84 <
1 19 2 219.78 -52.77 573.38 <
1 -19 2 219.77 309.45 596.01 <
-1 19 -2 219.77 800.01 904.62 <
-1 19 -3 42.51 726.85 641.61 <
1 19 3 42.52 646.48 644.28 <
-1 -19 -3 42.52 -35.98 803.61 <
1 -19 3 42.51 304.65 516.68 <
1 -19 3 42.51 -957.13 788.33 <
1 19 3 42.52 -686.07 643.97 <
1 -19 3 42.51 1201.81 865.76 <
-1 -19 -3 42.52 -397.01 515.20 <
1 -19 3 42.51 1316.96 655.53 <
-1 19 -3 42.51 291.46 723.08 <
1 -19 4 2934.78 4152.38 1036.58 o
-1 -19 -4 2934.78 2621.92 1302.94 <
1 19 4 2934.78 2686.69 928.92 <
-1 19 -4 2934.78 2699.88 786.41 o
1 -19 4 2934.78 903.16 836.86 <
1 -19 4 2934.78 2492.39 964.84 <
-1 19 -4 2934.78 4030.04 1494.03 <
1 19 5 2776.23 3517.89 2134.63 <
1 -19 5 2776.22 2475.59 881.28 <
-1 -19 -5 2776.23 2084.58 1327.05 <
-1 19 -5 2776.22 2723.87 901.14 o
1 -20 -6 3609.52 2314.87 1316.26 <
-1 20 5 8.27 50.38 604.50 <
1 -20 -5 8.27 242.28 767.51 <
-1 20 5 8.27 32.38 754.43 <
-1 -20 5 8.27 554.13 861.81 <
1 20 -4 4672.73 2181.74 1343.62 <
-1 20 4 4672.67 5555.69 1455.65 o
-1 -20 4 4672.73 5427.35 1500.23 o
-1 -20 4 4672.73 5309.81 1149.48 o
1 20 -4 4672.73 5333.80 1141.96 o
1 -20 -4 4672.67 3826.13 839.99 o
1 -20 -4 4672.67 3887.31 1361.10 <
-1 20 4 4672.67 6136.21 1175.46 o
-1 20 3 3083.48 2238.11 819.47 <
1 20 -3 3083.45 3220.43 883.99 o
-1 -20 3 3083.45 2559.55 862.78 <
1 -20 -3 3083.48 2781.44 1013.17 <
-1 20 3 3083.48 4445.03 1219.96 o
1 -20 -3 3083.48 2635.12 722.61 o
1 20 -3 3083.45 748.43 1002.88 <
-1 -20 3 3083.45 2715.48 1056.66 <
1 20 -3 3083.45 1743.95 1136.06 <
-1 -20 2 2618.67 3461.51 888.75 o
1 20 -2 2618.67 756.83 1007.64 <
-1 20 2 2618.63 2468.40 1117.47 <
-1 -20 2 2618.67 2783.84 1061.66 <
1 -20 -2 2618.63 2208.12 752.71 <
1 20 -2 2618.67 2354.45 1179.14 <
1 -20 -2 2618.63 2794.64 1065.20 <
-1 20 2 2618.63 4593.76 1088.86 o
1 -20 -1 3889.41 5438.15 1235.07 o
-1 -20 1 3889.42 3178.45 904.83 o
-1 20 1 3889.41 4297.50 1193.61 o
-1 -20 1 3889.42 5633.65 1300.80 o
1 -20 -1 3889.41 3556.27 894.45 o
1 20 -1 3889.42 5074.73 1555.50 o
-1 20 1 3889.41 1896.28 801.06 <
1 20 -1 3889.42 5642.05 1326.20 o
-1 20 0 1790.92 -213.50 1000.40 <
1 20 0 1790.94 3288.80 1123.36 <
-1 -20 0 1790.94 3156.86 1086.95 <
-1 -20 0 1790.94 1636.00 692.97 <
1 20 0 1790.94 1839.90 1007.30 <
1 -20 0 1790.92 1657.59 623.37 <
1 -20 0 1790.92 1680.38 793.39 <
-1 20 0 1790.92 1989.83 875.72 <
-1 20 -1 142.84 -576.92 952.92 <
1 20 1 142.85 -500.16 791.07 <
1 -20 1 142.84 -239.88 586.36 <
-1 -20 -1 142.85 253.08 629.60 <
-1 20 -1 142.84 -341.83 805.77 <
1 -20 1 142.84 307.05 561.15 <
-1 -20 -1 142.85 254.28 566.02 <
1 20 1 142.85 871.97 811.85 <
1 -20 2 4.73 -361.02 556.11 <
-1 -20 -2 4.73 -634.49 705.43 <
1 -20 2 4.73 -495.36 544.92 <
1 -20 2 4.73 -579.32 557.85 <
1 20 2 4.73 -821.60 857.36 <
-1 20 -2 4.73 594.91 843.72 <
1 20 2 4.73 320.24 575.44 <
-1 -20 -2 4.73 -399.40 470.76 <
1 -20 2 4.73 -147.53 707.60 <
1 20 3 2.16 52.77 674.07 <
-1 20 -3 2.16 -411.40 577.59 <
1 -20 3 2.16 455.78 589.55 <
1 -20 3 2.16 -164.32 550.44 <
-1 -20 -3 2.16 621.30 864.07 <
-1 -20 -3 2.16 -169.12 458.06 <
1 -20 3 2.16 -440.18 575.11 <
-1 20 -3 2.16 1116.66 1195.35 <
1 20 4 3562.77 4287.91 1134.45 o
-1 20 -4 3562.76 2973.35 926.01 o
-1 -20 -4 3562.77 3230.03 1429.17 <
1 -20 4 3562.76 4062.42 1052.25 o
1 -20 4 3562.76 3880.11 1147.74 o
-1 -21 5 7783.35 7621.08 1863.10 o
1 -21 -5 7783.19 8195.60 1779.05 o
-1 21 4 0.15 137.93 599.66 <
-1 21 4 0.15 2625.52 1236.10 <
1 -21 -4 0.15 -164.32 513.26 <
-1 -21 4 0.15 1787.13 1190.33 <
1 -21 -4 0.15 543.34 834.23 <
1 21 -3 61.12 -267.47 637.89 <
1 -21 -3 61.10 405.40 829.71 <
-1 21 3 61.10 906.76 811.64 <
1 -21 -3 61.10 -464.17 631.48 <
-1 -21 3 61.12 107.95 705.24 <
1 21 -3 61.12 -958.33 1164.42 <
-1 21 3 61.10 2052.20 900.62 <
-1 -21 2 16.97 -1005.11 848.24 <
1 21 -2 16.97 -1574.83 1257.04 <
1 21 -2 16.97 743.64 868.57 <
1 -21 -2 16.97 -56.37 592.50 <
-1 21 2 16.97 1628.81 975.60 <
-1 -21 2 16.97 -955.93 675.24 <
-1 21 2 16.97 728.04 1048.69 <
-1 -21 2 16.97 -286.66 633.06 <
1 -21 -2 16.97 314.25 826.21 <
1 -21 -1 8844.97 10996.20 1690.04 o
-1 -21 1 8844.90 6834.27 1358.28 o
1 21 -1 8844.90 12405.60 1918.91 o
-1 21 1 8844.97 8732.94 1778.86 o
1 -21 -1 8844.97 7194.09 1292.94 o
-1 21 1 8844.97 7624.68 1463.85 o
1 21 -1 8844.90 8978.82 1859.95 o
-1 -21 1 8844.90 11359.70 1853.94 o
-1 21 0 6.09 -1115.46 1060.57 <
1 21 0 6.09 2033.01 1108.31 <
1 -21 0 6.09 736.44 684.80 <
-1 -21 0 6.09 452.18 738.40 <
-1 21 0 6.09 -359.83 850.11 <
1 -21 0 6.09 -297.45 682.23 <
-1 -21 0 6.09 -358.62 511.70 <
1 21 0 6.09 1271.38 1095.11 <
1 21 1 7661.45 9448.99 1790.02 o
-1 -21 -1 7661.45 8986.02 1765.82 o
1 -21 1 7661.40 8463.07 1505.62 o
1 21 1 7661.45 8627.39 1475.48 o
-1 21 -1 7661.40 5929.91 1557.51 o
-1 21 -1 7661.40 3782.96 1108.55 o
1 -21 1 7661.40 7612.69 1444.71 o
-1 -21 -1 7661.45 7266.06 1163.49 o
1 -21 2 5241.55 6842.66 1248.51 o
-1 -21 -2 5241.48 6072.64 1568.68 o
-1 -21 -2 5241.48 3475.91 864.54 o
1 21 2 5241.48 6076.24 1280.33 o
1 -21 2 5241.55 6492.44 1381.78 o
1 21 2 5241.48 4296.31 1245.03 o
-1 21 -2 5241.55 5152.69 1568.34 o
-1 -21 -3 1134.19 1289.37 920.65 <
-1 21 -3 1134.17 1805.12 773.94 <
1 -21 3 1134.17 2294.48 905.71 <
-1 21 -4 11426.50 10923.10 1573.77 o
-1 -22 4 2688.80 1734.35 1061.12 <
1 -22 -3 11549.00 10616.00 1501.26 o
-1 22 3 11549.00 13275.10 2215.69 o
-1 -22 3 11549.00 11615.10 2090.90 o
-1 22 2 1101.33 1144.24 907.83 <
-1 -22 2 1101.34 1626.41 1041.74 <
1 22 -2 1101.34 1230.60 1116.33 <
-1 22 2 1101.33 2834.22 1053.81 <
1 -22 -2 1101.33 903.16 720.29 <
-1 22 1 3028.19 3846.52 1348.95 <
1 -22 -1 3028.19 2648.31 882.04 o
-1 -22 1 3028.20 2720.27 1141.27 <
1 22 -1 3028.20 4976.37 1662.26 <
1 22 0 2563.61 2071.39 1098.67 <
-1 -22 0 2563.61 2691.49 950.28 <
-1 -22 0 2563.61 2697.48 1063.08 <
-1 22 0 2563.65 1872.29 1069.55 <
-1 -22 -1 3165.92 3888.50 1214.61 o
-1 -22 -1 3165.92 2619.52 877.37 <
1 22 1 3165.92 4371.87 1434.91 o
-1 -22 -2 8506.59 12117.70 2255.32 o
-1 -22 -2 8506.59 7657.07 1275.74 o
-1 -23 3 1221.12 2101.38 1237.11 <
-1 -23 2 8113.04 6220.17 1622.91 o
-1 23 2 8112.99 8323.94 1933.70 o
-1 -23 1 10100.10 8493.06 1811.26 o
1 23 -1 10100.10 9835.21 2216.97 o
1 23 0 18046.10 17367.50 2715.26 o
-1 -23 0 18046.10 24333.70 2896.92 o
-1 -23 -1 4055.67 3713.39 1486.99 <
-2 0 9 305.38 1456.09 1053.88 <
2 0 -9 305.38 3165.26 1070.18 <
2 0 -8 46871.10 62261.60 2686.96 o
-2 0 8 46871.10 53032.10 2163.45 o
-2 0 8 46871.10 67199.60 2908.65 o
2 0 -7 5556.37 5915.52 1007.36 o
2 0 -7 5556.37 3641.43 568.28 o
-2 0 7 5556.37 6275.34 1162.91 o
-2 0 6 220491.00 206092.00 7994.35 o
2 0 -6 220491.00 229416.00 1719.12 o
-2 0 6 220491.00 200987.00 5331.36 o
2 0 -6 220491.00 208358.00 6165.55 o
-2 0 6 220491.00 227987.00 5265.20 o
-2 0 5 1468.57 844.39 479.47 <
-2 0 5 1468.57 766.43 260.82 o
2 0 -5 1468.57 609.30 398.08 <
2 0 -5 1468.57 1971.84 328.06 o
-2 0 5 1468.57 1657.59 665.79 <
2 0 -4 46795.90 40613.40 2129.20 o
-2 0 4 46795.90 42634.40 2296.73 o
-2 0 4 46795.90 38166.60 1949.18 o
-2 0 4 46795.90 40838.90 2327.31 o
2 0 -4 46795.90 47171.80 993.24 o
2 0 -3 87760.50 82583.30 3133.40 o
-2 0 3 87760.50 81187.20 2645.04 o
-2 0 3 87760.50 82048.40 2792.88 o
2 0 -3 87760.50 84129.40 2433.80 o
-2 0 3 87760.50 83297.00 2788.20 o
2 0 -2 84074.70 92239.80 949.90 o
2 0 -2 84074.70 85313.20 1408.17 o
2 0 -2 84074.70 93051.80 539.96 o
-2 0 2 84074.70 87821.20 1753.06 o
2 0 -2 84074.70 84614.00 1135.76 o
-2 0 2 84074.70 83322.20 1791.88 o
2 0 -2 84074.70 82064.00 2368.75 o
-2 0 2 84074.70 76232.40 2087.61 o
-2 0 2 84074.70 84997.80 1799.68 o
-2 0 1 380339.00 419806.00 24056.40 o
2 0 -1 380339.00 429199.00 24045.10 o
-2 0 1 380339.00 428033.00 24251.40 o
-2 0 1 380339.00 419192.00 23746.00 o
-2 0 1 380339.00 425593.00 23970.10 o
2 0 -1 380339.00 398211.00 23348.80 o
-2 0 1 380339.00 433713.00 24244.20 o
-2 0 1 380339.00 417331.00 23966.80 o
2 0 -1 380339.00 408666.00 23528.00 o
-2 0 0 222090.00 250962.00 14404.90 o
2 0 0 222090.00 249448.00 14354.80 o
-2 0 0 222090.00 227522.00 2474.36 o
2 0 0 222090.00 240049.00 14049.10 o
-2 0 0 222090.00 235732.00 13991.20 o
2 0 0 222090.00 239836.00 14069.80 o
-2 0 0 222090.00 247613.00 14108.00 o
2 0 0 222090.00 248907.00 14175.80 o
-2 0 0 222090.00 243136.00 14085.90 o
-2 0 0 222090.00 249325.00 14261.60 o
-2 0 0 222090.00 239482.00 14116.50 o
2 0 1 1762.86 2115.77 420.59 o
2 0 1 1762.86 2104.97 301.68 o
2 0 1 1762.86 2112.17 413.37 o
2 0 1 1762.86 2072.59 293.71 o
-2 0 -1 1762.86 1911.87 260.12 o
-2 0 -1 1762.86 2444.41 355.77 o
2 0 1 1762.86 2036.61 427.61 o
-2 0 -1 1762.86 1639.60 401.84 o
2 0 1 1762.86 1746.35 395.98 o
2 0 2 11097.50 12150.10 1224.49 o
2 0 2 11097.50 12273.60 783.50 o
2 0 2 11097.50 11196.50 574.72 o
2 0 2 11097.50 11424.40 933.27 o
2 0 2 11097.50 11238.50 1026.61 o
-2 0 -2 11097.50 12892.50 1194.24 o
-2 0 -2 11097.50 11384.90 831.48 o
2 0 3 210888.00 216178.00 4002.99 o
-2 0 -3 210888.00 202099.00 6356.21 o
-2 0 -3 210888.00 218651.00 3679.61 o
2 0 3 210888.00 196516.00 4387.70 o
2 0 3 210888.00 201285.00 5043.44 o
2 0 3 210888.00 224788.00 1396.82 o
2 0 3 210888.00 221730.00 3422.41 o
-2 0 -3 210888.00 208109.00 4686.63 o
-2 0 -4 34285.40 34533.60 2102.43 o
2 0 4 34285.40 31608.20 1765.72 o
-2 0 -4 34285.40 37150.70 2063.23 o
2 0 4 34285.40 26543.10 1340.65 o
2 0 4 34285.40 30293.60 2729.28 o
2 0 4 34285.40 35633.40 2068.65 o
2 0 4 34285.40 33667.60 1966.36 o
2 0 5 154228.00 183627.00 1354.93 o
2 0 5 154228.00 134378.00 7157.85 o
-2 0 -5 154228.00 172841.00 3453.02 o
-2 0 -5 154228.00 178131.00 2389.27 o
2 0 5 154228.00 168709.00 1766.49 o
2 0 5 154228.00 125714.00 6051.16 o
2 0 6 59.30 1074.68 820.61 <
2 0 6 59.30 227.89 141.04 <
-2 0 -6 59.30 1140.64 827.55 <
2 0 6 59.30 453.38 560.78 <
2 0 7 7927.88 10883.50 1705.67 o
2 0 8 15423.40 19328.60 2054.30 o
-2 0 -8 15423.40 21942.10 2055.60 o
2 0 9 9970.38 15161.80 1966.47 o
-2 1 10 27434.20 34623.50 2936.03 o
2 -1 -10 27434.20 37269.40 2650.18 o
2 1 -10 27434.20 36230.70 2648.03 o
-2 -1 10 27434.20 36485.00 2970.64 o
2 -1 -9 8952.73 11305.70 1563.67 o
2 1 -9 8952.73 11322.50 1533.86 o
-2 -1 9 8952.73 8039.68 1480.49 o
-2 1 9 8952.73 10225.00 1653.99 o
-2 -1 8 31736.50 43784.70 2678.13 o
-2 1 8 31736.60 48525.90 2705.02 o
-2 1 8 31736.60 39054.20 1743.40 o
2 -1 -8 31736.60 44594.30 2409.46 o
2 1 -8 31736.50 41740.90 2464.42 o
-2 -1 7 103.95 -290.26 609.07 <
-2 1 7 103.95 -111.55 260.22 <
2 1 -7 103.95 133.13 456.96 <
2 -1 -7 103.95 415.00 607.72 <
-2 1 7 103.95 -214.70 348.82 <
2 1 -7 103.95 1378.13 456.63 <
2 -1 -7 103.95 -521.75 396.99 <
-2 1 7 103.95 596.11 753.76 <
2 1 -6 2994.40 4694.51 1077.14 o
2 -1 -6 2994.40 4802.46 1001.47 o
-2 1 6 2994.40 5850.75 1335.22 o
-2 1 6 2994.40 4109.20 1154.81 o
-2 -1 6 2994.40 3461.51 1049.56 o
2 1 -6 2994.40 3574.26 472.31 o
-2 -1 6 2994.40 2372.44 773.82 o
-2 1 6 2994.40 2952.96 454.03 o
-2 -1 5 39903.50 32281.10 2335.83 o
-2 1 5 39903.50 41833.20 2423.30 o
2 1 -5 39903.50 35716.20 2094.61 o
2 -1 -5 39903.50 35620.20 2171.71 o
2 -1 -5 39903.50 33379.70 1529.36 o
2 1 -5 39903.50 38492.80 1370.10 o
-2 -1 5 39903.50 37622.10 2278.33 o
-2 1 4 141939.00 139987.00 4151.12 o
2 -1 -4 141939.00 116446.00 5028.41 o
-2 -1 4 141939.00 137388.00 4007.44 o
-2 1 4 141939.00 138173.00 4158.00 o
2 1 -4 141939.00 136766.00 3713.10 o
-2 1 4 141939.00 129696.00 4186.49 o
-2 -1 4 141939.00 137255.00 3917.30 o
-2 -1 4 141939.00 121790.00 4230.06 o
2 -1 -4 141939.00 127932.00 3333.64 o
-2 -1 3 16623.20 15327.30 920.84 o
-2 1 3 16623.20 14234.70 1073.07 o
-2 1 3 16623.20 14686.80 1079.28 o
2 -1 -3 16623.20 13710.50 1024.39 o
2 1 -3 16623.20 15723.10 1162.42 o
2 1 -3 16623.20 15871.90 982.39 o
-2 1 3 16623.20 13948.00 1213.48 o
-2 1 3 16623.20 14065.50 1177.96 o
-2 -1 3 16623.20 14550.10 1054.47 o
-2 -1 3 16623.20 14844.00 1006.89 o
2 1 -3 16623.20 14618.50 970.19 o
-2 1 2 101901.00 87249.10 3237.62 o
2 -1 -2 101901.00 106834.00 1760.08 o
-2 1 2 101901.00 109776.00 1581.39 o
-2 1 2 101901.00 91125.60 3146.87 o
2 -1 -2 101901.00 100019.00 2329.44 o
-2 -1 2 101901.00 97429.70 2294.70 o
2 1 -2 101901.00 107018.00 1470.71 o
2 1 -2 101901.00 100741.00 2258.44 o
2 1 -2 101901.00 100872.00 2168.32 o
2 1 -2 101901.00 97410.50 2091.92 o
-2 -1 2 101901.00 98070.20 2517.72 o
2 -1 -2 101901.00 97784.70 2218.47 o
-2 -1 2 101901.00 101022.00 1976.38 o
2 -1 -1 28357.00 28236.60 558.17 o
-2 1 1 28357.00 28241.40 1154.65 o
-2 1 1 28357.00 28975.50 527.80 o
-2 -1 1 28357.00 29013.90 884.43 o
2 1 -1 28357.00 26261.20 897.09 o
-2 -1 1 28357.00 29129.00 1100.25 o
-2 -1 1 28357.00 26162.80 878.76 o
2 -1 -1 28357.00 30570.70 980.96 o
-2 -1 1 28357.00 28375.80 1047.07 o
2 1 -1 28357.00 30351.20 832.23 o
2 1 -1 28357.00 28271.40 836.97 o
-2 -1 1 28357.00 29895.40 1151.99 o
2 -1 -1 28357.00 27484.60 962.04 o
-2 1 1 28357.00 32681.70 521.73 o
-2 -1 1 28357.00 28817.20 823.60 o
-2 1 1 28357.00 27321.50 1269.19 o
-2 1 1 28357.00 30031.00 1223.75 o
2 1 -1 28357.00 31224.40 1063.22 o
2 1 -1 28357.00 28867.50 1021.63 o
-2 1 1 28357.00 29061.80 620.28 o
-2 1 1 28357.00 28265.40 1101.92 o
2 -1 0 6368.22 7041.77 482.64 o
-2 1 0 6368.22 6848.66 554.79 o
2 1 0 6368.21 7299.64 605.62 o
-2 -1 0 6368.21 7035.77 642.92 o
-2 1 0 6368.22 7916.14 479.47 o
-2 1 0 6368.22 7564.71 568.17 o
-2 1 0 6368.22 7070.55 497.92 o
-2 1 0 6368.22 6295.73 601.54 o
2 -1 0 6368.22 7392.00 567.57 o
-2 -1 0 6368.21 7233.67 457.66 o
-2 1 0 6368.22 6851.06 605.02 o
-2 1 0 6368.22 6733.52 635.02 o
-2 -1 0 6368.21 6004.27 435.85 o
2 -1 0 6368.22 5767.99 593.97 o
2 1 0 6368.21 6251.35 350.50 o
2 -1 0 6368.22 7336.82 512.45 o
2 1 0 6368.21 8284.36 605.34 o
-2 -1 0 6368.21 6935.02 508.82 o
2 1 0 6368.21 7586.30 616.95 o
-2 -1 0 6368.21 7712.24 620.61 o
-2 1 0 6368.22 7481.95 682.76 o
-2 -1 0 6368.21 6455.25 589.04 o
2 -1 1 160493.00 154914.00 2972.13 o
2 -1 1 160493.00 180059.00 10566.80 o
-2 -1 -1 160493.00 166514.00 9981.27 o
-2 1 -1 160493.00 162999.00 2977.49 o
2 -1 1 160493.00 165506.00 2602.24 o
2 -1 1 160493.00 174239.00 10315.30 o
2 1 1 160493.00 166594.00 9987.74 o
2 -1 1 160493.00 155227.00 3846.06 o
-2 1 -1 160493.00 163257.00 2491.73 o
2 -1 1 160493.00 168790.00 10101.80 o
-2 1 -1 160493.00 165463.00 994.72 o
-2 -1 -1 160493.00 159066.00 3779.27 o
-2 -1 -1 160493.00 160323.00 2001.18 o
2 1 1 160493.00 164914.00 2558.02 o
2 1 1 160493.00 161951.00 3327.03 o
-2 1 -1 160493.00 165572.00 1784.52 o
2 -1 1 160493.00 168909.00 2301.57 o
2 1 1 160493.00 172784.00 312.00 o
2 -1 2 37496.90 37863.10 1563.35 o
-2 1 -2 37496.90 35465.50 2120.21 o
2 1 2 37496.80 36820.80 2117.95 o
-2 -1 -2 37496.80 32660.10 2144.56 o
2 -1 2 37496.90 38763.90 2056.23 o
2 -1 2 37496.90 37409.80 1164.18 o
-2 -1 -2 37496.80 36181.60 937.50 o
2 -1 2 37496.90 32880.80 1764.17 o
-2 -1 -2 37496.80 37959.10 1297.01 o
2 -1 2 37496.90 34624.70 1620.10 o
2 1 2 37496.80 39198.10 1681.41 o
2 1 2 37496.80 38530.00 1147.24 o
-2 1 -2 37496.90 36471.80 1598.93 o
-2 1 -2 37496.90 36903.60 1693.87 o
-2 -1 -3 77574.40 78506.50 3353.38 o
-2 1 -3 77574.40 86686.50 2157.61 o
2 -1 3 77574.40 78465.80 2549.97 o
2 -1 3 77574.40 72615.00 2712.32 o
2 1 3 77574.40 85129.70 1540.72 o
2 1 3 77574.40 84303.30 2397.24 o
2 -1 3 77574.40 75424.00 1917.95 o
2 -1 3 77574.40 88458.10 1827.06 o
-2 1 -3 77574.40 72122.00 3766.21 o
-2 1 -3 77574.40 77018.10 2811.16 o
-2 1 -4 2736.88 4136.78 811.34 o
2 -1 4 2736.88 2921.78 847.69 o
-2 -1 -4 2736.87 2083.38 765.16 <
2 1 4 2736.87 3122.08 1005.96 o
2 -1 4 2736.88 3420.73 586.04 o
2 -1 4 2736.88 2492.39 385.35 o
2 -1 4 2736.88 2919.38 687.85 o
2 1 4 2736.87 3635.43 684.02 o
2 -1 4 2736.88 3553.87 761.62 o
2 1 4 2736.87 2657.90 703.58 o
-2 -1 -4 2736.87 3643.82 761.73 o
2 1 4 2736.87 2577.54 630.09 o
-2 1 -4 2736.88 3687.00 738.09 o
-2 -1 -4 2736.87 1085.47 419.94 <
2 1 5 6364.57 5540.10 1063.96 o
-2 1 -5 6364.56 8996.81 1150.88 o
-2 1 -5 6364.56 9249.89 1222.92 o
-2 -1 -5 6364.57 9195.92 1313.31 o
2 -1 5 6364.56 6065.44 1521.37 o
2 1 5 6364.57 4642.94 1324.93 o
2 -1 5 6364.56 6260.95 1076.13 o
-2 -1 -5 6364.57 6788.69 1215.45 o
2 -1 5 6364.56 5511.31 545.17 o
2 -1 5 6364.56 7473.56 813.06 o
2 1 5 6364.57 9289.47 1420.37 o
2 -1 5 6364.56 10420.50 1201.21 o
-2 -1 -6 10102.90 11477.20 1440.68 o
-2 1 -6 10102.90 11988.20 1435.10 o
2 -1 6 10102.90 10848.70 968.93 o
2 -1 6 10102.90 5420.16 1223.35 o
2 -1 6 10102.90 8738.94 678.03 o
2 1 6 10102.90 6488.84 1155.54 o
2 1 6 10102.90 13037.60 1528.64 o
2 -1 6 10102.90 12799.00 1445.76 o
2 1 7 39839.60 53844.20 2698.69 o
-2 1 -7 39839.60 53528.70 2546.58 o
-2 -1 -7 39839.60 51806.30 2618.96 o
2 -1 7 39839.60 40056.90 3069.72 o
2 1 7 39839.60 44427.50 2853.12 o
2 -1 7 39839.60 52203.40 2612.78 o
2 -1 8 6442.54 9000.41 1483.93 o
-2 1 -8 6442.54 11316.50 1567.68 o
-2 -1 -8 6442.55 11236.10 1590.54 o
2 1 8 6442.55 11002.20 1609.97 o
2 -1 9 9034.73 12309.60 1809.82 o
2 1 9 9034.72 14709.60 1912.63 o
2 2 -10 443.60 6955.41 1574.82 o
-2 2 10 443.60 8024.09 1892.11 o
2 -2 -10 443.60 7088.54 1512.29 o
-2 -2 10 443.60 7302.04 1753.86 o
2 2 -9 587.38 1692.38 935.40 <
2 -2 -9 587.38 2479.19 1007.61 <
-2 -2 9 587.38 828.80 991.48 <
-2 2 9 587.38 3453.12 1306.27 <
2 -2 -8 2209.71 5823.16 1259.15 o
-2 2 8 2209.71 9219.91 1697.43 o
-2 -2 8 2209.71 3751.77 1173.66 o
2 2 -8 2209.71 3325.98 1010.50 o
-2 2 8 2209.71 1283.37 370.70 o
-2 2 8 2209.71 3083.70 683.55 o
-2 2 7 11911.80 11141.40 1133.01 o
2 -2 -7 11911.80 13495.80 1538.31 o
2 2 -7 11911.80 11981.00 1400.70 o
-2 2 7 11911.80 14987.90 1786.71 o
2 -2 -7 11911.80 9612.11 884.16 o
-2 -2 7 11911.80 9999.53 1428.32 o
-2 -2 6 2371.61 1109.46 502.27 <
2 2 -6 2371.61 2077.39 536.61 o
-2 2 6 2371.60 2908.58 1030.49 <
-2 2 6 2371.60 3113.68 920.42 o
-2 -2 6 2371.61 1826.71 657.69 <
2 -2 -6 2371.60 1508.86 325.87 o
2 -2 -6 2371.60 2306.48 668.62 o
-2 -2 6 2371.61 2901.39 1028.13 <
2 2 -6 2371.61 2221.32 405.03 o
2 2 -5 15730.50 12354.00 1530.41 o
2 -2 -5 15730.60 13273.90 771.39 o
2 -2 -5 15730.60 14361.80 1386.12 o
2 2 -5 15730.50 13783.70 1277.34 o
-2 2 5 15730.60 12529.10 1149.11 o
-2 -2 5 15730.50 14291.00 1387.81 o
-2 2 5 15730.60 15936.60 1658.86 o
-2 2 5 15730.60 15189.40 1795.88 o
-2 -2 5 15730.50 12989.70 1381.24 o
2 -2 -4 195.35 645.28 137.70 o
-2 2 4 195.35 170.32 445.01 <
-2 2 4 195.35 -70.77 489.40 <
-2 -2 4 195.35 -292.66 372.69 <
2 2 -4 195.35 95.95 268.78 <
2 -2 -4 195.35 113.94 328.72 <
-2 2 4 195.35 81.56 244.81 <
-2 -2 4 195.35 221.89 280.61 <
2 2 -3 75.27 278.26 289.90 <
2 -2 -3 75.27 -35.98 277.07 <
-2 2 3 75.27 94.75 233.87 <
2 2 -3 75.27 8.40 173.94 <
2 2 -3 75.27 284.26 274.27 <
-2 -2 3 75.27 4.80 215.92 <
-2 -2 3 75.27 319.04 272.96 <
-2 2 3 75.27 -261.47 475.92 <
2 2 -3 75.27 86.36 155.91 <
-2 -2 2 18673.50 18183.10 917.41 o
2 2 -2 18673.50 19515.70 916.87 o
2 -2 -2 18673.50 16023.00 932.00 o
2 2 -2 18673.50 18920.80 779.81 o
2 -2 -2 18673.50 18140.00 994.21 o
-2 2 2 18673.50 19869.50 977.08 o
2 -2 -2 18673.50 19922.30 897.82 o
2 2 -2 18673.50 19086.30 866.16 o
-2 2 2 18673.50 17381.90 626.70 o
2 2 -2 18673.50 18766.10 857.54 o
-2 -2 2 18673.50 18060.80 849.05 o
-2 -2 2 18673.50 17642.20 853.85 o
2 2 -2 18673.50 18213.10 886.77 o
2 -2 -1 4439.23 4921.20 480.43 o
-2 2 1 4439.23 4386.26 526.41 o
-2 2 1 4439.23 4315.50 487.23 o
2 2 -1 4439.22 4412.65 425.26 o
2 2 -1 4439.22 3727.78 359.96 o
-2 2 1 4439.23 4696.91 568.33 o
-2 -2 1 4439.22 4362.27 362.07 o
-2 2 1 4439.23 5122.70 486.32 o
-2 2 1 4439.23 5188.67 467.12 o
-2 2 1 4439.23 4708.90 423.59 o
-2 -2 1 4439.22 4249.53 399.55 o
-2 -2 1 4439.22 3988.06 445.56 o
2 2 -1 4439.22 4585.36 403.88 o
-2 -2 1 4439.22 4699.31 473.73 o
2 2 -1 4439.22 5131.10 452.53 o
-2 -2 0 18531.00 19699.20 953.53 o
2 2 0 18531.00 18367.80 992.02 o
-2 2 0 18531.00 20155.00 995.87 o
2 -2 0 18531.00 18131.60 708.81 o
2 2 0 18531.00 16085.40 805.94 o
-2 2 0 18531.00 19238.60 1132.90 o
2 2 0 18531.00 19430.50 829.60 o
-2 2 0 18531.00 18160.30 1010.54 o
-2 2 0 18531.00 19139.10 739.55 o
-2 2 0 18531.00 17632.60 1082.23 o
-2 2 0 18531.00 19768.80 809.84 o
-2 -2 0 18531.00 19203.80 1142.92 o
2 2 0 18531.00 19864.70 1088.56 o
-2 -2 0 18531.00 18251.50 971.09 o
2 2 0 18531.00 19521.70 912.00 o
-2 2 0 18531.00 15522.80 1069.24 o
2 -2 0 18531.00 20312.10 816.54 o
2 -2 0 18531.00 20110.60 995.50 o
-2 -2 0 18531.00 17878.50 843.88 o
2 -2 0 18531.00 19711.20 1035.09 o
2 -2 0 18531.00 18030.80 979.69 o
-2 -2 0 18531.00 16333.60 872.87 o
-2 -2 -1 4101.74 4351.48 669.06 o
2 -2 1 4101.73 4333.49 575.22 o
2 -2 1 4101.73 4646.53 556.94 o
2 -2 1 4101.73 2352.05 411.36 o
-2 2 -1 4101.73 3808.14 582.86 o
-2 2 -1 4101.73 4102.00 391.00 o
2 2 1 4101.74 4143.98 517.34 o
2 -2 1 4101.73 4303.50 460.94 o
-2 2 -1 4101.73 3912.49 395.60 o
2 2 1 4101.74 4794.06 606.52 o
2 -2 1 4101.73 4292.71 310.46 o
2 2 1 4101.74 4333.49 644.02 o
-2 2 -1 4101.73 4050.43 513.13 o
-2 -2 -1 4101.74 3838.13 326.74 o
-2 2 -1 4101.73 4291.51 579.60 o
-2 2 -1 4101.73 3719.39 612.69 o
-2 2 -2 5494.87 4736.49 702.71 o
2 2 2 5494.86 6589.59 748.48 o
2 -2 2 5494.87 5291.82 674.36 o
2 -2 2 5494.87 4157.17 474.80 o
-2 2 -2 5494.87 4713.70 605.71 o
2 2 2 5494.86 4892.42 834.07 o
2 -2 2 5494.87 5866.34 730.67 o
2 -2 2 5494.87 4750.88 806.36 o
-2 -2 -2 5494.86 4686.12 824.95 o
-2 -2 -2 5494.86 4911.61 295.17 o
2 -2 2 5494.87 5674.43 537.65 o
2 2 2 5494.86 5049.54 388.78 o
2 -2 3 206.79 602.11 431.96 <
2 -2 3 206.79 -95.95 329.89 <
-2 2 -3 206.79 355.03 413.54 <
-2 -2 -3 206.79 794.01 601.91 <
2 2 3 206.79 554.13 285.38 <
2 -2 3 206.79 -400.61 536.86 <
2 -2 3 206.79 344.23 234.67 <
2 -2 3 206.79 83.96 241.24 <
2 2 3 206.79 -67.17 329.92 <
-2 2 -3 206.79 147.53 346.70 <
2 -2 4 20638.50 15910.20 2031.22 o
-2 2 -4 20638.50 20212.50 1793.97 o
-2 -2 -4 20638.50 19118.70 2059.67 o
-2 -2 -4 20638.50 22265.90 1666.19 o
2 2 4 20638.50 21565.50 2216.88 o
-2 2 -4 20638.50 22805.70 1530.32 o
2 -2 4 20638.50 16795.40 1111.68 o
2 -2 4 20638.50 22184.40 1703.39 o
2 -2 4 20638.50 19967.90 1321.40 o
2 2 4 20638.50 21073.70 1582.67 o
-2 2 -4 20638.50 23081.50 1623.45 o
-2 -2 -4 20638.50 19536.10 1672.59 o
2 2 4 20638.50 21384.40 1344.27 o
2 -2 4 20638.50 19424.50 1498.75 o
2 -2 5 1590.87 482.17 285.13 <
2 -2 5 1590.87 465.37 567.74 <
2 2 5 1590.88 1035.10 496.25 <
2 -2 5 1590.87 939.14 287.04 o
-2 -2 -5 1590.88 1199.42 588.64 <
-2 2 -5 1590.87 1664.79 632.83 <
2 2 5 1590.88 1830.31 904.45 <
-2 -2 -5 1590.88 1021.90 573.81 <
2 -2 5 1590.87 520.55 431.05 <
2 2 5 1590.88 1073.48 528.28 <
2 2 5 1590.88 1626.41 622.28 <
2 -2 5 1590.87 1725.96 732.10 <
-2 -2 -5 1590.88 388.61 566.56 <
-2 2 -5 1590.87 2901.39 744.09 o
2 -2 6 7999.22 6485.24 685.78 o
2 -2 6 7999.22 4457.03 1080.41 o
-2 2 -6 7999.22 10359.40 1349.32 o
2 2 6 7999.22 4524.19 982.62 o
-2 -2 -6 7999.22 10195.00 1423.89 o
2 -2 6 7999.22 7808.19 1203.62 o
2 2 6 7999.22 10234.60 1418.24 o
2 -2 7 3.31 943.94 372.82 <
2 -2 7 3.31 748.43 742.43 <
2 2 7 3.31 3793.75 1121.50 o
-2 2 -7 3.31 4160.77 1089.12 o
-2 -2 -7 3.31 5170.68 1263.16 o
2 -2 7 3.31 2215.32 1039.57 <
2 2 7 3.31 5744.00 1397.23 o
2 2 8 203.81 1555.64 931.70 <
-2 2 -8 203.81 1304.96 841.45 <
-2 -2 -8 203.81 2145.75 949.81 <
2 -2 8 203.81 -1083.07 668.57 <
2 -2 9 1376.94 5555.69 1374.47 o
2 2 9 1376.93 6296.93 1412.89 o
2 3 -10 5940.00 7515.54 1407.45 o
-2 -3 10 5940.00 7617.49 1551.83 o
-2 3 10 5940.02 8718.55 1613.71 o
2 -3 -10 5940.02 9356.64 1527.75 o
2 3 -9 6606.42 7321.23 1354.80 o
2 -3 -9 6606.43 7309.24 1330.81 o
-2 -3 9 6606.42 8527.84 1558.87 o
-2 3 9 6606.43 9552.14 1725.99 o
-2 3 8 6767.96 10921.90 1641.43 o
2 -3 -8 6767.96 4030.04 670.43 o
2 3 -8 6767.96 6198.58 1178.06 o
2 -3 -8 6767.96 9511.36 1400.65 o
-2 -3 8 6767.96 8162.02 1417.65 o
-2 3 8 6767.96 7573.11 897.16 o
2 3 -8 6767.96 7254.06 843.03 o
-2 3 7 4635.90 5885.53 1285.07 o
2 -3 -7 4635.90 2595.53 518.86 o
2 -3 -7 4635.90 4750.88 1043.45 o
2 3 -7 4635.91 4241.13 931.61 o
-2 3 7 4635.90 3715.79 708.32 o
-2 -3 7 4635.91 4351.48 1014.10 o
2 -3 -6 474.90 1302.56 628.86 <
-2 -3 6 474.90 265.07 635.96 <
-2 3 6 474.90 1459.69 782.21 <
-2 3 6 474.90 -128.34 590.37 <
2 3 -6 474.90 833.59 498.93 <
2 3 -6 474.90 -255.48 538.65 <
-2 -3 6 474.90 951.14 520.01 <
-2 -3 6 474.90 584.11 474.67 <
2 -3 -6 474.90 382.61 251.04 <
2 3 -5 9.81 109.15 300.99 <
-2 -3 5 9.81 125.94 368.15 <
-2 -3 5 9.81 181.11 368.08 <
-2 -3 5 9.81 134.34 557.68 <
2 3 -5 9.81 104.35 315.39 <
2 -3 -5 9.81 225.49 407.61 <
-2 3 5 9.81 235.09 588.77 <
-2 3 5 9.81 -310.65 610.22 <
-2 3 5 9.81 104.35 275.81 <
2 -3 -5 9.81 214.70 174.70 <
-2 3 4 11863.80 10824.70 1347.39 o
2 -3 -4 11863.80 11419.60 1157.35 o
-2 -3 4 11863.90 11831.00 974.88 o
-2 3 4 11863.80 12285.60 949.06 o
2 3 -4 11863.90 11779.50 802.99 o
2 3 -4 11863.90 10281.40 642.01 o
2 3 -4 11863.90 12316.80 1002.80 o
-2 3 4 11863.80 10668.80 1269.06 o
-2 -3 4 11863.90 12595.10 1042.09 o
-2 3 3 13671.10 11948.60 1224.46 o
2 3 -3 13671.10 13649.30 784.13 o
2 -3 -3 13671.10 11783.10 1059.59 o
-2 -3 3 13671.10 14058.30 880.18 o
-2 -3 3 13671.10 14180.70 907.25 o
-2 3 3 13671.10 12983.70 972.61 o
2 -3 -3 13671.10 12501.50 901.08 o
2 3 -3 13671.10 13125.20 779.53 o
2 3 -3 13671.10 12519.50 949.87 o
-2 3 2 42274.10 41623.30 1715.31 o
2 3 -2 42274.00 40229.60 1470.11 o
2 -3 -2 42274.10 36482.60 1705.30 o
2 -3 -2 42274.10 43019.40 1345.19 o
2 -3 -2 42274.10 44650.60 1327.37 o
2 3 -2 42274.00 41602.90 1381.02 o
-2 -3 2 42274.00 46907.90 1135.53 o
-2 -3 2 42274.00 43568.80 1216.12 o
-2 -3 2 42274.00 40521.00 1364.99 o
-2 3 2 42274.10 46922.30 1239.44 o
2 3 -2 42274.00 44194.90 1281.59 o
2 3 -1 53092.50 54096.00 1365.55 o
2 3 -1 53092.50 49874.10 1733.83 o
2 -3 -1 53092.50 55229.50 1394.13 o
-2 3 1 53092.50 54724.50 1452.18 o
2 3 -1 53092.50 53141.30 1270.09 o
2 -3 -1 53092.50 57352.40 1607.88 o
-2 -3 1 53092.50 51489.70 1419.02 o
-2 3 1 53092.50 55253.50 1749.89 o
2 -3 -1 53092.50 55462.20 1394.95 o
-2 -3 1 53092.50 51200.60 1672.82 o
-2 -3 1 53092.50 54646.60 1320.78 o
2 3 -1 53092.50 53843.00 1374.37 o
-2 -3 1 53092.50 55591.70 1827.79 o
2 -3 0 40813.50 42990.60 1538.15 o
2 -3 0 40813.50 38178.60 1094.02 o
2 -3 0 40813.50 43068.60 1229.32 o
-2 -3 0 40813.50 36476.60 1460.09 o
-2 3 0 40813.50 41847.60 1238.83 o
-2 3 0 40813.50 38935.40 880.98 o
-2 3 0 40813.50 37117.10 1793.74 o
-2 -3 0 40813.50 42470.10 1757.08 o
2 3 0 40813.50 40144.40 1359.51 o
-2 -3 0 40813.50 42856.30 1030.87 o
2 3 0 40813.50 39458.40 1232.86 o
2 3 0 40813.50 40750.10 1440.01 o
2 -3 0 40813.50 39029.00 1548.29 o
2 3 0 40813.50 44783.80 971.73 o
-2 3 0 40813.50 38424.50 1752.60 o
-2 3 0 40813.50 40445.50 1475.77 o
2 3 0 40813.50 43800.20 1622.29 o
-2 -3 0 40813.50 39757.00 1341.09 o
-2 -3 0 40813.50 44938.50 1123.00 o
-2 3 0 40813.50 40248.80 1770.38 o
-2 -3 0 40813.50 39930.90 1533.10 o
-2 -3 -1 79909.70 82903.60 1424.66 o
-2 3 -1 79909.70 83451.70 1871.78 o
-2 3 -1 79909.70 78987.50 1570.89 o
-2 -3 -1 79909.70 82150.40 2686.74 o
2 3 1 79909.70 81521.90 2554.86 o
2 -3 1 79909.70 83171.10 2191.36 o
-2 3 -1 79909.70 80699.10 1456.96 o
2 -3 1 79909.70 85393.60 1439.14 o
-2 3 -1 79909.70 79181.80 1912.68 o
-2 3 -1 79909.70 83093.10 2277.67 o
2 3 1 79909.70 80949.70 2233.74 o
-2 3 -1 79909.70 81957.30 1991.59 o
2 3 1 79909.70 81183.60 1853.92 o
-2 3 -1 79909.70 81478.70 2335.32 o
2 -3 1 79909.70 78846.00 1400.13 o
2 -3 1 79909.70 71988.90 2426.34 o
2 -3 1 79909.70 83347.40 1999.17 o
-2 3 -2 15826.30 13414.30 1090.59 o
-2 -3 -2 15826.30 15537.20 1480.23 o
2 -3 2 15826.30 16982.50 803.36 o
-2 3 -2 15826.30 15639.20 1264.97 o
2 3 2 15826.30 16940.50 1460.85 o
2 -3 2 15826.30 16288.10 915.01 o
-2 3 -2 15826.30 14649.70 946.74 o
-2 -3 -2 15826.30 14038.00 565.14 o
2 3 2 15826.30 17667.40 1155.12 o
2 -3 2 15826.30 16791.80 1237.31 o
-2 3 -2 15826.30 15109.00 991.35 o
2 -3 2 15826.30 14298.20 1368.04 o
2 3 3 15686.90 15653.60 1618.79 o
2 -3 3 15686.90 13793.30 1067.21 o
-2 3 -3 15686.90 12977.70 1108.92 o
-2 -3 -3 15686.90 12021.70 1280.67 o
2 -3 3 15686.90 15076.70 969.70 o
-2 3 -3 15686.90 14575.30 1409.11 o
-2 -3 -3 15686.90 16012.20 1632.01 o
2 3 3 15686.90 16218.50 1196.83 o
2 -3 3 15686.90 13962.40 1578.63 o
2 3 3 15686.90 16342.00 766.42 o
2 -3 3 15686.90 15958.20 1397.14 o
-2 -3 -4 194.99 -257.87 437.58 <
2 -3 4 194.99 346.63 270.67 <
2 -3 4 194.99 482.17 410.75 <
-2 3 -4 194.99 -389.81 425.22 <
2 3 4 194.99 416.20 367.73 <
2 3 4 194.99 238.68 533.70 <
2 -3 4 194.99 -593.71 502.55 <
-2 3 -4 194.99 752.03 416.78 <
2 -3 4 194.99 39.58 573.38 <
-2 3 -4 194.99 -149.93 446.16 <
-2 -3 -4 194.99 963.13 614.38 <
2 3 4 194.99 93.55 364.71 <
-2 -3 -5 1965.18 1168.23 534.10 <
-2 3 -5 1965.18 2168.54 673.75 o
2 -3 5 1965.18 490.56 423.29 <
2 3 5 1965.18 1908.27 646.89 <
-2 -3 -5 1965.18 2047.40 721.50 <
-2 3 -5 1965.18 2083.38 668.41 o
2 -3 5 1965.18 2174.54 832.32 <
2 -3 5 1965.18 877.97 858.96 <
2 3 5 1965.18 513.35 347.19 <
2 -3 5 1965.18 1610.81 420.90 o
-2 -3 -5 1965.18 1149.04 703.23 <
2 -3 6 1540.78 590.11 470.99 <
2 3 6 1540.77 1680.38 747.70 <
-2 -3 -6 1540.77 1489.67 773.86 <
2 -3 6 1540.78 178.71 605.53 <
2 3 6 1540.77 1487.28 687.55 <
2 -3 6 1540.78 1880.68 453.81 o
2 3 6 1540.77 1266.58 655.05 <
-2 3 -6 1540.78 2648.31 817.82 o
2 3 7 6332.83 8368.32 1423.95 o
-2 3 -7 6332.83 8024.09 1255.89 o
-2 -3 -7 6332.83 6927.82 1271.04 o
2 -3 7 6332.83 8073.26 1305.19 o
2 -3 7 6332.83 5775.18 696.42 o
2 -3 8 3547.97 5089.12 1113.55 o
-2 3 -8 3547.97 5120.30 1099.80 o
2 3 8 3547.97 6121.82 1285.92 o
-2 -3 -8 3547.97 4809.66 1131.36 o
2 3 9 5377.74 8319.14 1510.94 o
2 -3 9 5377.75 6846.26 1375.12 o
2 -4 -10 976.66 4423.44 1265.75 o
-2 4 9 571.78 1761.94 1043.36 <
2 4 -9 571.78 -367.02 675.30 <
2 -4 -9 571.78 2072.59 905.32 <
-2 -4 9 571.78 1559.24 902.33 <
-2 4 8 20653.50 26395.50 2408.96 o
2 4 -8 20653.50 19293.80 1929.96 o
-2 4 8 20653.50 25467.20 1410.51 o
-2 -4 8 20653.50 24640.80 2126.06 o
2 -4 -8 20653.50 26546.70 2086.01 o
2 4 -8 20653.50 21612.30 1417.13 o
2 -4 -8 20653.50 18924.40 1351.82 o
-2 -4 7 2509.86 1985.03 766.39 <
2 4 -7 2509.86 1928.66 651.05 <
-2 4 7 2509.87 2914.58 938.67 o
2 -4 -7 2509.87 2367.65 486.26 o
2 -4 -7 2509.87 2446.81 817.26 <
-2 4 6 27365.70 27067.20 2375.85 o
-2 -4 6 27365.70 24275.00 2055.68 o
-2 -4 6 27365.70 26878.90 2005.64 o
2 4 -6 27365.70 22737.30 2213.58 o
2 -4 -6 27365.70 28526.90 1125.79 o
2 -4 -6 27365.70 29077.40 2080.61 o
-2 -4 6 27365.70 31325.10 2981.14 o
-2 4 6 27365.70 30041.80 2651.79 o
2 4 -6 27365.70 27295.10 1902.31 o
2 4 -5 24301.40 24119.00 1619.76 o
-2 4 5 24301.30 22779.30 2149.71 o
-2 -4 5 24301.40 26099.30 2536.94 o
-2 -4 5 24301.40 21825.80 1662.65 o
2 4 -5 24301.40 21316.00 1817.36 o
2 -4 -5 24301.30 24054.30 1822.58 o
2 -4 -5 24301.30 19208.60 1186.96 o
-2 -4 5 24301.40 24321.70 1646.08 o
-2 -4 4 25383.60 24847.10 1435.54 o
2 -4 -4 25383.70 22668.90 1718.25 o
-2 4 4 25383.70 22431.50 1927.97 o
2 4 -4 25383.60 25458.80 1555.09 o
2 4 -4 25383.60 24038.70 1111.07 o
-2 -4 4 25383.60 23361.00 1424.17 o
-2 4 4 25383.70 25812.60 1366.12 o
-2 4 4 25383.70 26040.50 685.42 o
2 4 -4 25383.60 22461.40 1041.57 o
-2 -4 4 25383.60 24229.40 2344.14 o
-2 -4 3 44045.80 38400.50 1803.85 o
2 4 -3 44045.80 34005.80 2018.20 o
-2 4 3 44045.70 42032.30 2152.69 o
2 4 -3 44045.80 39835.00 1863.04 o
-2 -4 3 44045.80 40246.40 2821.79 o
-2 -4 3 44045.80 43186.10 1630.79 o
2 -4 -3 44045.70 39872.20 1816.37 o
2 -4 -3 44045.70 42509.70 1624.04 o
2 4 -3 44045.80 41894.40 1405.40 o
-2 4 3 44045.70 39628.70 1272.50 o
-2 4 3 44045.70 44710.60 1695.39 o
2 -4 -2 6073.90 6936.22 607.45 o
-2 4 2 6073.90 8187.21 636.17 o
-2 4 2 6073.90 6359.30 702.78 o
2 4 -2 6073.85 6502.03 567.92 o
-2 4 2 6073.90 7550.32 651.12 o
2 4 -2 6073.85 6548.81 559.24 o
-2 -4 2 6073.85 6544.01 511.44 o
-2 -4 2 6073.85 5410.56 966.46 o
2 -4 -2 6073.90 6215.37 543.09 o
-2 4 2 6073.90 6467.25 577.45 o
2 4 -2 6073.85 4578.17 572.51 o
-2 -4 2 6073.85 6286.14 539.90 o
-2 -4 1 6052.20 6674.75 775.66 o
-2 4 1 6052.21 6075.04 674.78 o
-2 -4 1 6052.20 4429.44 521.88 o
-2 -4 1 6052.20 6472.04 762.91 o
2 4 -1 6052.20 5747.60 560.61 o
2 -4 -1 6052.21 6504.43 625.97 o
-2 -4 1 6052.20 6641.16 564.61 o
2 -4 -1 6052.21 6630.37 692.47 o
2 4 -1 6052.20 5843.55 580.84 o
-2 -4 1 6052.20 6260.95 501.20 o
-2 4 1 6052.21 6564.40 568.04 o
2 4 -1 6052.20 6312.52 509.37 o
2 -4 -1 6052.21 6817.48 607.78 o
-2 -4 0 16696.00 16775.00 846.64 o
2 -4 0 16696.00 17731.00 1110.82 o
-2 -4 0 16696.00 18459.00 787.15 o
2 -4 0 16696.00 16662.30 483.76 o
-2 4 0 16696.00 16695.90 1155.04 o
-2 -4 0 16696.00 18375.00 1247.48 o
2 4 0 16696.00 18860.80 1205.16 o
-2 -4 0 16696.00 18576.50 827.21 o
-2 -4 0 16696.00 15882.70 927.03 o
2 -4 0 16696.00 17032.90 946.38 o
-2 4 0 16696.00 16422.40 910.35 o
-2 4 0 16696.00 15769.90 978.76 o
2 -4 0 16696.00 16808.60 978.90 o
-2 -4 0 16696.00 16877.00 737.40 o
2 -4 0 16696.00 17541.40 527.43 o
2 4 0 16696.00 18214.30 737.56 o
2 4 0 16696.00 16764.20 981.93 o
-2 -4 0 16696.00 16447.60 1012.49 o
2 -4 0 16696.00 18027.20 1122.86 o
-2 4 0 16696.00 17178.00 541.72 o
-2 4 0 16696.00 17218.80 467.22 o
2 4 0 16696.00 17010.10 808.38 o
2 -4 1 2613.44 2797.04 432.61 o
2 4 1 2613.48 2176.94 427.92 o
-2 4 -1 2613.44 2334.06 535.59 o
2 -4 1 2613.44 2672.30 341.94 o
2 4 1 2613.48 2173.34 363.04 o
2 4 1 2613.48 2326.87 354.95 o
-2 -4 -1 2613.48 2498.38 580.53 o
-2 -4 -1 2613.48 2633.92 329.45 o
-2 4 -1 2613.44 2704.68 435.24 o
-2 4 -1 2613.44 2750.26 408.03 o
2 -4 1 2613.44 2206.92 270.07 o
2 -4 1 2613.44 3419.53 549.14 o
-2 4 -1 2613.44 1638.40 248.34 o
2 4 1 2613.48 2601.53 556.66 o
-2 4 -1 2613.44 1919.06 234.14 o
2 -4 1 2613.44 2601.53 509.90 o
-2 4 -1 2613.44 2794.64 433.86 o
-2 4 -2 17385.70 16988.50 1397.06 o
-2 4 -2 17385.70 15779.50 1089.63 o
2 -4 2 17385.70 18078.80 1041.76 o
-2 4 -2 17385.70 17648.20 1126.06 o
-2 4 -2 17385.70 16669.50 953.34 o
2 -4 2 17385.70 15290.10 1142.57 o
-2 4 -2 17385.70 16134.50 1053.40 o
2 4 2 17385.80 16418.80 1224.37 o
-2 -4 -2 17385.80 16604.70 1595.97 o
2 -4 2 17385.70 15357.30 1426.73 o
2 -4 2 17385.70 18395.40 1382.82 o
2 -4 2 17385.70 17239.20 839.66 o
2 4 3 32320.90 30334.40 1022.48 o
-2 4 -3 32320.70 31924.80 1556.15 o
-2 -4 -3 32320.90 29618.40 2356.06 o
2 4 3 32320.90 35994.50 2345.97 o
2 4 3 32320.90 35385.10 1633.09 o
-2 4 -3 32320.70 31708.90 2106.94 o
2 -4 3 32320.70 36720.10 2033.88 o
2 -4 3 32320.70 30540.70 1929.31 o
-2 -4 -3 32320.90 35798.90 1823.20 o
2 -4 3 32320.70 34826.20 1361.41 o
2 -4 3 32320.70 32868.80 1481.32 o
2 -4 3 32320.70 31305.90 2295.91 o
-2 4 -3 32320.70 30102.90 1892.74 o
2 -4 4 6315.71 7024.98 1398.68 o
-2 4 -4 6315.71 6238.16 831.40 o
2 -4 4 6315.71 6101.43 1069.25 o
-2 -4 -4 6315.70 6775.50 1230.67 o
2 4 4 6315.70 6077.44 1213.12 o
2 -4 4 6315.71 4574.57 684.70 o
2 4 4 6315.70 6070.24 870.15 o
-2 4 -4 6315.71 6750.31 974.07 o
2 4 4 6315.70 5204.26 627.47 o
-2 4 -4 6315.71 7155.71 1142.97 o
-2 -4 -4 6315.70 4761.68 838.23 o
2 -4 4 6315.71 6278.94 837.85 o
-2 -4 -5 49159.60 42635.60 3552.11 o
-2 4 -5 49159.60 45785.30 2560.18 o
2 -4 5 49159.60 49360.70 2432.25 o
2 -4 5 49159.60 60130.30 3585.29 o
-2 4 -5 49159.60 44019.70 3322.82 o
2 -4 5 49159.60 37758.80 2334.73 o
2 -4 5 49159.60 44113.30 3127.26 o
2 4 5 49159.60 51673.20 2546.18 o
-2 -4 -5 49159.60 45190.40 2841.18 o
2 4 6 892.63 916.35 555.24 <
2 4 6 892.63 -289.06 698.76 <
-2 -4 -6 892.63 -261.47 797.06 <
-2 4 -6 892.64 707.66 463.71 <
-2 -4 -6 892.63 1239.00 697.92 <
2 -4 6 892.64 62.37 617.59 <
2 -4 6 892.64 815.60 448.93 <
2 -4 6 892.64 1343.35 621.62 <
2 4 6 892.63 646.48 550.11 <
2 4 7 13577.60 16165.70 1905.81 o
2 -4 7 13577.60 13734.50 1144.55 o
-2 -4 -7 13577.60 15500.00 1815.72 o
2 -4 7 13577.60 16572.30 1656.10 o
-2 4 -7 13577.60 15490.40 1687.22 o
2 -4 8 320.16 1217.41 759.03 <
-2 4 -8 320.16 1235.40 762.55 <
2 4 8 320.16 1789.53 953.54 <
-2 -4 -8 320.16 2059.40 880.58 <
2 4 9 69.76 2963.76 1179.30 <
2 -4 9 69.76 2737.07 1115.70 <
-2 5 9 645.04 1008.71 881.89 <
2 5 -9 645.04 1454.89 911.43 <
2 -5 -9 645.04 1778.73 820.57 <
-2 -5 9 645.04 1113.06 840.71 <
-2 5 8 16.86 261.47 366.73 <
-2 -5 8 16.86 323.84 589.84 <
-2 5 8 16.86 901.96 848.87 <
2 -5 -8 16.86 1352.94 796.36 <
2 5 -8 16.86 453.38 653.19 <
2 5 -8 16.86 -141.53 363.32 <
-2 -5 7 5724.66 5203.06 1036.81 o
2 -5 -7 5724.62 5161.08 1114.77 o
2 -5 -7 5724.62 5644.45 703.21 o
-2 5 7 5724.62 3964.07 1101.86 o
2 5 -7 5724.66 4660.93 962.14 o
-2 -5 6 5054.85 5986.28 997.27 o
2 -5 -6 5054.84 2903.78 530.64 o
-2 -5 6 5054.85 4635.74 1324.19 o
-2 5 6 5054.84 4723.30 1000.57 o
2 5 -6 5054.85 5570.08 982.75 o
2 5 -6 5054.85 5117.91 1027.15 o
-2 5 6 5054.84 4392.26 1198.36 o
2 -5 -6 5054.84 5387.77 1058.71 o
-2 -5 6 5054.85 6030.66 1000.24 o
-2 -5 5 8094.02 9389.02 1612.84 o
2 5 -5 8094.02 11467.60 1165.64 o
-2 -5 5 8094.02 7541.92 984.38 o
2 -5 -5 8093.99 8761.73 1158.88 o
2 5 -5 8094.02 8557.83 1123.96 o
-2 5 5 8093.99 6606.38 1260.48 o
-2 -5 5 8094.02 9490.97 1047.37 o
-2 5 5 8093.99 7785.40 578.71 o
2 5 -5 8094.02 7612.69 632.07 o
-2 5 4 7400.46 6162.60 473.79 o
2 -5 -4 7400.46 6196.18 698.34 o
-2 5 4 7400.46 5837.55 1000.45 o
2 5 -4 7400.43 7066.96 539.69 o
-2 -5 4 7400.43 6517.62 1296.95 o
-2 5 4 7400.46 7442.37 771.46 o
2 -5 -4 7400.46 7089.74 996.12 o
-2 -5 4 7400.43 6582.39 786.14 o
2 -5 -4 7400.46 6990.19 709.22 o
-2 5 3 895.63 1634.80 285.35 o
-2 -5 3 895.64 868.38 295.25 <
2 5 -3 895.64 772.42 318.60 <
-2 5 3 895.63 490.56 317.37 <
2 5 -3 895.64 666.88 323.90 <
-2 5 3 895.63 785.62 283.83 <
2 -5 -3 895.63 852.78 316.93 <
2 -5 -3 895.63 868.38 270.08 o
-2 -5 3 895.64 534.94 549.17 <
2 5 -2 2559.61 2276.49 378.50 o
-2 -5 2 2559.61 2612.33 683.19 o
2 5 -2 2559.61 2720.27 447.49 o
-2 -5 2 2559.61 2468.40 388.82 o
-2 5 2 2559.69 2379.64 412.76 o
-2 -5 2 2559.61 2288.48 340.41 o
-2 5 2 2559.69 2445.61 465.64 o
2 -5 -2 2559.69 2468.40 435.45 o
-2 5 2 2559.69 2121.77 440.83 o
-2 5 2 2559.69 2636.31 422.26 o
2 -5 -2 2559.69 2732.27 407.49 o
2 5 -2 2559.61 1204.21 360.69 o
2 -5 -1 5474.31 5384.18 380.90 o
2 -5 -1 5474.31 5576.08 743.02 o
-2 -5 1 5474.34 4108.00 564.50 o
2 -5 -1 5474.31 5516.11 676.85 o
-2 -5 1 5474.34 6229.76 772.92 o
-2 -5 1 5474.34 6391.68 778.18 o
2 -5 -1 5474.31 5631.25 588.95 o
-2 5 1 5474.31 5716.41 559.10 o
-2 5 1 5474.31 5589.28 427.02 o
2 -5 -1 5474.31 5879.53 630.49 o
-2 -5 1 5474.34 6668.75 596.69 o
2 5 -1 5474.34 5753.60 572.73 o
2 5 -1 5474.34 5577.28 528.76 o
2 5 -1 5474.34 6608.78 659.63 o
-2 5 1 5474.31 5525.71 647.84 o
-2 -5 1 5474.34 5351.79 534.32 o
-2 -5 0 574.84 555.33 241.19 <
-2 5 0 574.87 356.23 297.02 <
2 -5 0 574.87 536.14 189.78 <
2 -5 0 574.87 432.99 248.94 <
-2 5 0 574.87 737.64 197.76 o
-2 -5 0 574.84 1122.65 445.82 <
2 5 0 574.84 491.76 215.18 <
-2 5 0 574.87 488.16 153.03 o
2 5 0 574.84 623.70 193.94 o
2 -5 0 574.87 694.46 365.31 <
-2 -5 0 574.84 564.92 280.71 <
2 -5 0 574.87 572.12 307.06 <
-2 -5 0 574.84 473.77 198.52 <
-2 -5 0 574.84 716.05 217.25 o
2 5 0 574.84 683.67 316.11 <
-2 -5 0 574.84 482.17 351.75 <
2 -5 0 574.87 479.77 253.54 <
-2 5 0 574.87 789.22 309.46 <
-2 5 0 574.87 614.10 251.65 <
-2 5 -1 3940.55 4191.96 529.08 o
2 5 1 3940.51 4039.63 417.52 o
2 -5 1 3940.55 4326.29 559.22 o
2 -5 1 3940.55 4194.36 390.65 o
2 -5 1 3940.55 4119.99 657.02 o
2 -5 1 3940.55 3206.04 533.28 o
-2 5 -1 3940.55 3928.09 387.71 o
-2 -5 -1 3940.51 3895.70 366.97 o
-2 -5 -1 3940.51 4357.48 772.98 o
-2 5 -1 3940.55 4227.94 610.65 o
2 5 1 3940.51 3952.07 609.12 o
2 -5 1 3940.55 4069.62 384.18 o
-2 5 -1 3940.55 4303.50 714.57 o
2 5 1 3940.51 3800.95 495.57 o
-2 5 -1 3940.55 3875.31 393.76 o
-2 5 -2 1904.91 2462.40 659.88 o
2 5 2 1904.92 1751.15 432.13 o
2 -5 2 1904.91 1962.24 429.97 o
-2 5 -2 1904.91 1958.65 381.96 o
-2 5 -2 1904.91 1987.43 432.09 o
2 5 2 1904.92 1967.04 371.04 o
2 -5 2 1904.91 1830.31 600.26 o
2 -5 2 1904.91 2101.38 339.01 o
2 -5 2 1904.91 2475.59 496.29 o
-2 5 -2 1904.91 2421.62 411.88 o
-2 5 -2 1904.91 2358.05 441.98 o
2 -5 2 1904.91 2294.48 639.73 o
-2 -5 -2 1904.92 1855.50 683.99 <
2 -5 3 9313.02 7631.88 987.59 o
2 5 3 9312.93 9613.31 1315.35 o
2 -5 3 9313.02 9258.29 799.14 o
-2 5 -3 9313.02 9760.84 857.61 o
-2 -5 -3 9312.93 8490.66 1297.97 o
-2 5 -3 9313.02 8555.43 959.58 o
2 -5 3 9313.02 10135.10 1248.70 o
2 -5 3 9313.02 9008.81 897.41 o
2 5 3 9312.93 9332.65 1027.47 o
-2 5 -3 9313.02 9489.77 898.72 o
-2 -5 -3 9312.93 9753.65 1085.75 o
-2 5 -3 9313.02 8531.44 768.99 o
2 -5 3 9313.02 9682.88 1347.86 o
-2 5 -3 9313.02 9008.81 1167.94 o
2 -5 4 6693.67 4894.81 759.93 o
2 -5 4 6693.67 6521.22 1013.80 o
-2 5 -4 6693.67 6383.29 850.09 o
2 -5 4 6693.67 7743.42 874.93 o
-2 -5 -4 6693.63 8475.07 1386.42 o
2 -5 4 6693.67 7640.28 1386.57 o
-2 5 -4 6693.67 6190.18 1148.55 o
-2 5 -4 6693.67 4837.24 919.20 o
2 5 4 6693.63 8051.67 955.54 o
2 5 4 6693.63 6920.63 1300.90 o
-2 5 -4 6693.67 6481.64 1013.20 o
-2 -5 -4 6693.63 6770.70 1007.47 o
2 -5 4 6693.67 7402.79 1169.84 o
-2 -5 -5 3339.14 2845.01 796.11 o
-2 -5 -5 3339.14 3226.43 1050.33 o
2 -5 5 3339.16 3639.03 1203.30 o
-2 5 -5 3339.16 2922.98 719.12 o
-2 5 -5 3339.16 2673.50 889.19 o
2 -5 5 3339.16 2578.74 602.35 o
2 -5 5 3339.16 3767.36 757.93 o
2 5 5 3339.14 2425.22 700.66 o
2 -5 5 3339.16 2759.85 886.22 o
-2 -5 -6 76.44 -633.29 940.78 <
2 5 6 76.44 380.21 469.74 <
2 5 6 76.44 185.91 434.10 <
-2 5 -6 76.44 87.56 428.19 <
-2 -5 -6 76.44 666.88 691.10 <
2 -5 6 76.44 286.66 437.54 <
2 -5 6 76.44 857.58 633.93 <
2 -5 7 2972.08 2209.32 768.72 <
2 5 7 2972.07 2871.40 929.10 o
-2 5 -7 2972.08 2785.04 859.07 o
-2 -5 -7 2972.07 2723.87 925.36 <
2 -5 7 2972.08 2998.54 625.79 o
2 5 7 2972.07 3704.99 956.79 o
-2 -5 -8 3931.95 4383.86 1193.17 o
2 5 8 3931.95 4243.53 1198.03 o
-2 5 -8 3931.95 5120.30 1160.27 o
2 -5 8 3931.95 3860.92 1011.76 o
2 -5 9 7945.77 9949.15 1553.56 o
-2 6 9 5846.35 6975.80 1547.72 o
2 6 -9 5846.32 6385.69 1367.47 o
-2 -6 9 5846.32 6054.65 1405.99 o
2 -6 -9 5846.35 7528.73 1414.75 o
-2 -6 8 68.00 1268.98 737.85 <
2 6 -8 68.00 887.57 776.87 <
2 -6 -8 67.99 654.88 616.65 <
-2 6 8 67.99 350.23 689.41 <
-2 6 8 67.99 -545.73 380.02 <
2 6 -8 68.00 -605.71 432.67 <
-2 6 7 10583.50 10724.00 1638.60 o
2 6 -7 10583.50 8417.50 835.00 o
2 -6 -7 10583.50 10273.00 1456.61 o
2 -6 -7 10583.50 6983.00 925.44 o
-2 6 7 10583.50 10777.90 1038.69 o
-2 -6 7 10583.50 12024.10 1461.41 o
2 6 -7 10583.50 12375.60 1702.46 o
-2 6 6 9027.01 6728.72 1532.48 o
2 6 -6 9026.99 11081.40 1310.80 o
-2 6 6 9027.01 8469.07 746.14 o
2 -6 -6 9027.01 9517.36 1359.26 o
2 -6 -6 9027.01 6828.27 828.09 o
2 6 -6 9026.99 8062.47 691.92 o
-2 -6 6 9026.99 10117.10 1181.61 o
-2 6 5 6160.66 6711.93 562.98 o
-2 -6 5 6160.67 6232.16 1373.75 o
2 -6 -5 6160.66 6147.00 996.92 o
-2 6 5 6160.66 5498.12 1192.67 o
-2 -6 5 6160.67 5760.79 858.20 o
-2 -6 5 6160.67 5312.21 796.45 o
2 6 -5 6160.67 6464.85 979.99 o
2 6 -5 6160.67 5542.50 425.92 o
2 6 -5 6160.67 5513.71 491.03 o
-2 6 4 22613.90 21593.10 1874.78 o
2 6 -4 22613.80 23181.10 1472.16 o
-2 -6 4 22613.80 19623.60 2192.72 o
2 -6 -4 22613.90 19575.70 1332.85 o
-2 -6 4 22613.80 23566.10 1351.36 o
2 -6 -4 22613.90 23141.50 1190.83 o
-2 6 4 22613.90 20764.30 966.19 o
-2 6 3 4392.36 4155.97 640.65 o
2 -6 -3 4392.36 4304.70 561.75 o
-2 6 3 4392.36 5849.55 497.35 o
2 6 -3 4392.36 4169.17 574.89 o
-2 6 3 4392.36 4115.19 690.13 o
-2 6 3 4392.36 4844.44 630.06 o
-2 -6 3 4392.36 4268.72 557.63 o
-2 -6 3 4392.36 3748.17 899.21 o
2 -6 -3 4392.36 4265.12 502.78 o
-2 -6 2 14096.90 14966.30 1417.86 o
2 -6 -2 14097.00 14878.70 946.58 o
-2 6 2 14097.00 14558.50 1063.38 o
-2 -6 2 14096.90 13969.60 763.66 o
-2 6 2 14097.00 12759.40 884.12 o
-2 6 2 14097.00 16258.10 871.51 o
-2 -6 2 14096.90 14554.90 879.34 o
2 -6 -2 14097.00 13820.90 1013.06 o
-2 6 2 14097.00 14632.90 963.21 o
2 6 -2 14096.90 12394.80 1125.16 o
2 6 -2 14096.90 14023.60 902.31 o
2 6 -2 14096.90 15069.50 940.41 o
2 -6 -2 14097.00 14824.80 853.43 o
2 -6 -1 439.50 1291.77 222.40 o
2 6 -1 439.48 1530.45 515.86 <
2 -6 -1 439.50 746.04 359.71 <
2 6 -1 439.48 796.41 285.84 <
2 -6 -1 439.50 713.65 207.94 o
2 6 -1 439.48 862.38 304.66 <
-2 6 1 439.50 568.52 239.20 <
2 -6 -1 439.50 530.14 251.45 <
-2 6 1 439.50 719.65 270.72 <
-2 -6 1 439.48 888.77 286.29 o
2 -6 -1 439.50 664.48 303.61 <
-2 -6 1 439.48 1023.10 427.89 <
-2 -6 1 439.48 545.73 339.05 <
-2 -6 1 439.48 1151.44 357.89 o
2 -6 -1 439.50 710.05 320.19 <
-2 6 1 439.50 976.32 245.33 o
-2 -6 0 1954.58 2448.01 418.18 o
2 6 0 1954.58 2289.68 382.86 o
2 -6 0 1954.58 2400.03 427.39 o
-2 -6 0 1954.58 2456.40 333.67 o
2 6 0 1954.58 2323.27 306.77 o
2 -6 0 1954.58 2492.39 566.88 o
-2 6 0 1954.58 1997.03 276.33 o
-2 -6 0 1954.58 2518.77 377.95 o
2 -6 0 1954.58 2232.11 485.23 o
-2 -6 0 1954.58 2492.39 603.17 o
2 -6 0 1954.58 2223.72 434.63 o
2 -6 0 1954.58 644.09 352.80 <
2 6 0 1954.58 2510.38 484.20 o
-2 6 0 1954.58 2493.58 329.27 o
2 -6 0 1954.58 2963.76 332.83 o
-2 -6 0 1954.58 2408.43 415.11 o
2 6 1 9091.72 8898.46 782.55 o
-2 6 -1 9091.69 8953.63 748.83 o
2 -6 1 9091.69 9546.15 587.31 o
-2 6 -1 9091.69 8308.35 603.05 o
2 -6 1 9091.69 9287.07 593.67 o
2 -6 1 9091.69 9620.51 1033.15 o
2 -6 1 9091.69 8988.42 843.45 o
-2 -6 -1 9091.72 9386.62 510.22 o
-2 -6 -1 9091.72 10234.60 1158.32 o
-2 6 -1 9091.69 8464.27 615.32 o
-2 -6 -1 9091.72 8571.02 470.04 o
-2 6 -1 9091.69 8159.62 1034.39 o
2 -6 1 9091.69 9162.33 782.44 o
-2 -6 -1 9091.72 8945.24 805.15 o
2 6 1 9091.72 9595.32 862.46 o
2 -6 2 2733.58 2744.26 399.23 o
2 6 2 2733.55 3155.66 593.38 o
-2 -6 -2 2733.55 3896.90 871.60 o
2 -6 2 2733.58 2665.10 536.96 o
2 -6 2 2733.58 2440.81 679.10 o
2 6 2 2733.55 2300.48 366.82 o
-2 6 -2 2733.58 2061.79 364.09 o
2 -6 2 2733.58 2801.83 468.00 o
-2 6 -2 2733.58 1096.27 348.85 o
-2 6 -2 2733.58 2908.58 705.96 o
2 -6 2 2733.58 3142.47 727.60 o
-2 -6 -2 2733.55 2733.47 350.23 o
-2 6 -2 2733.58 3065.71 494.21 o
-2 6 -3 16901.40 16442.80 1634.03 o
2 -6 3 16901.40 18040.40 1837.81 o
2 -6 3 16901.40 17178.00 1042.26 o
-2 6 -3 16901.40 19476.10 1147.57 o
2 6 3 16901.40 18942.40 1811.57 o
2 6 3 16901.40 15635.60 1353.49 o
-2 6 -3 16901.40 17485.10 1141.20 o
-2 -6 -3 16901.40 18168.70 1448.07 o
-2 -6 -3 16901.40 15736.30 1803.90 o
-2 6 -3 16901.40 15104.20 1083.90 o
-2 6 -3 16901.40 15753.10 1234.77 o
2 -6 3 16901.40 15166.60 1290.82 o
2 -6 3 16901.40 18052.40 1688.91 o
-2 6 -4 15677.90 15690.80 1584.12 o
-2 -6 -4 15677.80 15911.40 1906.02 o
-2 6 -4 15677.90 16014.60 1262.44 o
2 -6 4 15677.90 14349.80 1477.56 o
2 -6 4 15677.90 18186.70 2057.20 o
2 -6 4 15677.90 11136.60 1220.96 o
2 -6 4 15677.90 15521.60 1207.86 o
2 6 4 15677.80 17867.70 1382.82 o
-2 6 -4 15677.90 16703.10 1228.24 o
2 -6 4 15677.90 15922.20 1768.69 o
-2 6 -4 15677.90 15172.60 1751.01 o
2 6 4 15677.80 16268.90 1934.90 o
-2 6 -4 15677.90 13152.80 1423.42 o
-2 -6 -4 15677.80 16063.80 1548.54 o
2 -6 5 3273.55 2851.01 968.67 <
2 -6 5 3273.55 4018.04 723.59 o
-2 -6 -5 3273.51 3191.64 1064.48 o
-2 6 -5 3273.55 3195.24 740.86 o
2 -6 5 3273.55 4313.10 1272.02 o
2 -6 5 3273.55 3268.41 976.36 o
2 6 5 3273.51 2281.29 468.06 o
-2 6 -5 3273.55 2516.37 963.57 <
2 -6 5 3273.55 3108.88 693.87 o
2 6 5 3273.51 3222.83 787.32 o
-2 6 -6 11818.60 8782.12 1775.03 o
-2 -6 -6 11818.60 9543.75 1790.04 o
2 -6 6 11818.60 11747.10 1227.45 o
2 6 6 11818.60 11033.40 1431.46 o
2 6 6 11818.60 10310.20 1103.54 o
2 -6 6 11818.60 11339.30 1316.25 o
-2 6 -6 11818.60 11470.00 1387.53 o
2 6 7 30.61 319.04 504.65 <
-2 6 -7 30.61 -455.78 498.21 <
-2 -6 -7 30.61 -254.28 894.64 <
2 -6 7 30.61 602.11 518.26 <
2 6 7 30.61 -1127.45 840.47 <
2 -6 7 30.61 634.49 589.05 <
-2 -6 -7 30.61 -358.62 666.53 <
2 -6 8 3187.04 3745.77 985.89 o
2 6 8 3187.04 3450.72 1144.78 o
-2 6 -8 3187.04 2961.36 902.59 o
-2 -6 -8 3187.04 3540.67 1147.71 o
2 -6 9 3.91 1946.65 959.24 <
-2 7 9 1591.86 1469.28 965.99 <
2 -7 -9 1591.86 2402.43 1003.38 <
2 -7 -8 8683.48 11905.40 1600.08 o
-2 -7 8 8683.53 8298.75 1340.77 o
2 7 -8 8683.53 6877.45 743.05 o
-2 7 8 8683.48 10003.10 1702.26 o
-2 7 8 8683.48 10754.00 1013.28 o
2 -7 -7 3546.61 3541.87 943.98 o
-2 7 7 3546.61 3447.12 574.77 o
2 -7 -7 3546.61 1933.46 542.09 o
2 7 -7 3546.61 2776.65 434.11 o
-2 -7 7 3546.61 3129.27 831.54 o
-2 7 7 3546.61 3988.06 676.48 o
2 -7 -6 395.97 726.85 574.87 <
-2 7 6 395.97 166.72 664.68 <
2 7 -6 395.98 349.03 190.92 <
-2 7 6 395.97 543.34 304.08 <
-2 -7 6 395.98 -81.56 460.82 <
-2 -7 5 269.06 26.39 357.60 <
-2 7 5 269.05 322.64 510.87 <
2 7 -5 269.06 -274.67 404.01 <
-2 7 5 269.05 -67.17 278.44 <
-2 -7 5 269.06 285.46 314.21 <
-2 -7 5 269.06 741.24 787.18 <
2 -7 -5 269.05 490.56 311.14 <
-2 -7 4 11514.50 9759.64 1644.72 o
2 7 -4 11514.50 11509.60 1054.41 o
-2 7 4 11514.60 11506.00 1393.89 o
2 -7 -4 11514.60 11064.60 933.02 o
-2 7 4 11514.60 10473.30 740.33 o
-2 -7 4 11514.50 11598.30 1079.72 o
-2 7 4 11514.60 11038.20 1404.07 o
2 -7 -4 11514.60 10956.70 866.58 o
-2 -7 4 11514.50 11485.60 1019.09 o
2 7 -4 11514.50 11101.80 1115.88 o
-2 -7 3 17744.40 18738.50 1823.17 o
-2 -7 3 17744.40 17575.00 1119.48 o
-2 7 3 17744.50 17395.10 1320.92 o
2 7 -3 17744.40 18039.20 1168.21 o
2 -7 -3 17744.50 17553.40 995.27 o
2 -7 -3 17744.50 16830.20 1119.57 o
-2 7 3 17744.50 17053.30 1240.73 o
-2 7 3 17744.50 18436.20 951.05 o
2 -7 -3 17744.50 16908.20 1443.02 o
-2 7 2 43346.00 43886.60 1823.46 o
-2 -7 2 43346.30 46436.60 2353.39 o
-2 7 2 43346.00 48663.90 1235.67 o
-2 7 2 43346.00 36766.90 1849.59 o
2 7 -2 43346.30 43595.10 1724.14 o
2 -7 -2 43346.00 44224.80 1660.26 o
-2 -7 2 43346.30 42089.90 1681.65 o
2 -7 -2 43346.00 46746.00 1582.85 o
2 7 -2 43346.30 43286.90 2186.96 o
-2 7 1 45045.80 49724.20 1414.83 o
2 7 -1 45045.50 43945.40 2404.81 o
-2 7 1 45045.80 47137.00 1303.72 o
2 -7 -1 45045.80 48747.80 1808.13 o
-2 -7 1 45045.50 47697.10 1535.68 o
2 7 -1 45045.50 46772.40 1577.76 o
-2 -7 1 45045.50 51030.30 2153.38 o
2 7 -1 45045.50 46979.90 1689.46 o
2 -7 -1 45045.80 48149.30 1033.17 o
-2 -7 1 45045.50 46640.50 1951.78 o
2 7 -1 45045.50 47619.20 1806.47 o
2 -7 -1 45045.80 48560.70 2150.80 o
2 -7 -1 45045.80 47451.30 1809.48 o
2 -7 -1 45045.80 47432.10 1679.36 o
2 -7 -1 45045.80 47357.70 1171.47 o
-2 7 1 45045.80 46783.20 1853.89 o
2 -7 0 39262.90 39848.20 1854.49 o
2 -7 0 39262.90 43777.50 1963.26 o
2 -7 0 39262.90 39106.90 1120.22 o
-2 7 0 39262.90 37748.00 1338.86 o
2 7 0 39262.90 40805.30 1733.09 o
-2 -7 0 39262.90 41065.60 1608.58 o
-2 -7 0 39262.90 44083.30 2110.41 o
2 -7 0 39262.90 39998.10 1617.18 o
2 -7 0 39262.90 41483.00 1610.79 o
-2 -7 0 39262.90 42970.30 881.83 o
-2 7 0 39262.90 42476.10 1058.84 o
2 7 0 39262.90 37035.50 1917.12 o
-2 -7 0 39262.90 42100.70 1474.83 o
2 -7 0 39262.90 41516.60 1142.83 o
2 7 0 39262.90 39721.00 1551.85 o
-2 -7 0 39262.90 40290.80 1453.37 o
2 7 0 39262.90 41523.80 950.15 o
2 -7 0 39262.90 41475.80 1062.67 o
2 7 1 42883.80 31938.00 1906.78 o
2 -7 1 42883.90 41286.30 1435.75 o
2 -7 1 42883.90 44287.20 1288.67 o
-2 -7 -1 42883.80 46925.90 2412.75 o
2 -7 1 42883.90 44152.90 1824.69 o
-2 7 -1 42883.90 41702.50 1438.46 o
2 7 1 42883.80 42647.60 1907.81 o
-2 -7 -1 42883.80 41556.10 1851.29 o
2 -7 1 42883.90 42175.00 1690.04 o
2 -7 1 42883.90 45182.00 2270.60 o
-2 -7 -1 42883.80 40718.90 1366.14 o
-2 7 -1 42883.90 42182.20 1396.66 o
-2 -7 -2 8466.45 9391.42 1003.20 o
2 7 2 8466.45 7902.95 878.52 o
-2 -7 -2 8466.45 7937.73 504.22 o
-2 7 -2 8466.36 7806.99 691.49 o
-2 -7 -2 8466.45 10085.90 1314.21 o
2 -7 2 8466.36 7836.98 724.63 o
2 7 2 8466.45 7714.64 569.17 o
-2 7 -2 8466.36 8748.54 878.52 o
2 -7 2 8466.36 9313.46 918.16 o
-2 7 -2 8466.36 8767.73 746.08 o
2 -7 2 8466.36 8657.38 685.14 o
2 -7 2 8466.36 8801.31 1153.80 o
-2 7 -2 8466.36 7980.91 729.18 o
-2 7 -2 8466.36 7760.22 1147.71 o
-2 7 -3 15633.50 14431.40 1653.69 o
-2 7 -3 15633.50 17260.80 1078.09 o
-2 -7 -3 15633.70 15759.10 1839.73 o
2 7 3 15633.70 17961.20 1798.08 o
2 -7 3 15633.50 17992.40 1721.86 o
-2 7 -3 15633.50 14492.50 1166.50 o
-2 -7 -3 15633.70 18485.40 1476.48 o
-2 -7 -3 15633.70 11820.20 656.73 o
2 -7 3 15633.50 16841.00 1044.41 o
2 -7 3 15633.50 14268.20 1321.60 o
-2 7 -3 15633.50 13920.40 1092.28 o
2 7 3 15633.70 15525.20 1317.64 o
-2 7 -4 112.61 816.80 517.45 <
2 -7 4 112.61 -38.38 344.25 <
-2 7 -4 112.61 361.02 317.32 <
2 -7 4 112.61 641.69 679.20 <
2 -7 4 112.61 79.16 397.02 <
-2 -7 -4 112.60 -453.38 527.06 <
2 7 4 112.60 409.00 428.88 <
-2 -7 -4 112.60 357.43 514.23 <
2 7 4 112.60 -287.86 188.77 <
2 -7 4 112.61 569.72 701.01 <
2 7 4 112.60 471.37 541.58 <
2 -7 4 112.61 185.91 428.12 <
-2 7 -4 112.61 225.49 539.64 <
2 7 4 112.60 -9.60 155.99 <
-2 7 -4 112.61 247.08 296.04 <
-2 7 -4 112.61 1657.59 833.32 <
-2 7 -5 483.19 448.58 374.32 <
2 7 5 483.17 964.33 399.49 <
2 -7 5 483.19 -129.54 430.95 <
-2 -7 -5 483.17 584.11 765.05 <
-2 7 -5 483.19 -461.77 606.58 <
2 -7 5 483.19 1508.86 995.03 <
2 -7 5 483.19 369.42 623.87 <
2 7 5 483.17 2017.42 704.63 <
2 7 5 483.17 524.14 252.88 <
-2 7 -5 483.19 581.72 667.88 <
2 -7 5 483.19 263.87 399.85 <
-2 7 -5 483.19 1099.86 534.87 <
2 -7 6 447.69 -435.39 504.60 <
2 7 6 447.69 -152.33 284.68 <
-2 7 -6 447.69 250.68 522.03 <
-2 -7 -6 447.69 -231.49 648.98 <
2 7 6 447.69 -62.37 457.31 <
2 7 6 447.69 1073.48 448.09 <
2 -7 6 447.69 492.96 521.65 <
-2 7 -6 447.69 17.99 836.19 <
2 -7 7 11050.80 11468.80 1430.17 o
-2 -7 -7 11050.80 13581.00 1783.86 o
2 -7 7 11050.80 14469.70 1392.85 o
2 7 7 11050.80 12154.90 1560.95 o
-2 7 -7 11050.80 12428.30 1551.94 o
-2 -7 -7 11050.80 7466.36 1964.56 o
2 -7 8 1098.78 1336.15 717.45 <
2 7 8 1098.75 1240.20 776.70 <
-2 7 -8 1098.78 1856.69 833.70 <
-2 -7 -8 1098.75 2304.08 916.36 <
2 7 8 1098.75 2003.02 813.47 <
2 -7 9 6127.38 8968.03 1499.21 o
-2 -8 9 420.32 123.54 615.56 <
-2 8 9 420.32 -760.43 855.33 <
2 -8 -9 420.32 1174.23 916.93 <
-2 8 8 17571.20 16521.90 2160.71 o
2 -8 -8 17571.20 19930.70 2073.73 o
-2 -8 8 17571.20 17744.20 1882.78 o
-2 -8 7 2357.00 2325.67 729.48 o
-2 8 7 2356.98 2322.07 506.54 o
-2 8 7 2356.98 2978.15 596.42 o
2 -8 -7 2356.98 3027.32 907.80 o
2 8 -6 40950.70 32636.10 2568.18 o
-2 8 6 40950.60 38082.60 3343.76 o
2 -8 -6 40950.60 39247.30 2675.08 o
-2 8 6 40950.60 39080.60 1675.22 o
-2 -8 6 40950.70 41920.80 2365.43 o
-2 8 6 40950.60 39698.20 1973.93 o
2 -8 -6 40950.60 35202.80 2055.84 o
-2 8 5 229.50 65.97 473.87 <
-2 -8 5 229.48 316.65 345.26 <
-2 -8 5 229.48 897.16 476.30 <
2 8 -5 229.48 -699.26 569.45 <
-2 8 5 229.50 518.15 625.63 <
2 -8 -5 229.50 103.15 253.25 <
-2 -8 5 229.48 562.53 671.14 <
2 8 -5 229.48 47.98 371.95 <
-2 8 5 229.50 458.18 261.87 <
2 -8 -5 229.50 651.28 304.16 <
-2 -8 4 4706.93 4465.42 672.01 o
2 -8 -4 4706.93 4796.46 655.72 o
-2 -8 4 4706.93 5133.50 770.62 o
-2 8 4 4706.93 3646.22 837.45 o
-2 8 4 4706.93 6181.79 1024.01 o
2 8 -4 4706.93 4884.02 826.32 o
-2 8 4 4706.93 4116.39 689.00 o
2 8 -4 4706.93 4645.34 700.24 o
2 -8 -4 4706.93 3376.35 883.49 o
-2 -8 4 4706.93 3709.79 1000.43 o
-2 8 4 4706.93 4891.22 549.05 o
2 -8 -4 4706.93 4013.24 543.31 o
-2 -8 3 26355.20 27466.60 2222.62 o
-2 8 3 26355.30 27093.60 1511.29 o
2 8 -3 26355.20 27760.50 1441.57 o
-2 8 3 26355.30 26188.00 1608.98 o
2 -8 -3 26355.30 27665.70 1198.33 o
2 -8 -3 26355.30 25162.50 1448.74 o
2 -8 -3 26355.30 27706.50 1755.47 o
-2 8 3 26355.30 24745.10 1384.62 o
-2 -8 3 26355.20 26717.00 1401.33 o
-2 -8 3 26355.20 25625.50 880.64 o
-2 -8 2 9189.82 9186.32 1156.30 o
-2 8 2 9189.69 9456.19 762.20 o
2 8 -2 9189.82 9369.83 862.53 o
-2 8 2 9189.69 8370.72 744.04 o
-2 8 2 9189.69 8998.01 866.01 o
2 -8 -2 9189.69 9357.84 858.02 o
-2 8 2 9189.69 10498.50 760.74 o
2 -8 -2 9189.69 11983.40 867.12 o
2 8 -2 9189.82 8783.32 1060.13 o
-2 -8 2 9189.82 9373.43 819.00 o
-2 8 1 56267.60 57456.80 1659.34 o
-2 -8 1 56267.80 58789.30 1851.18 o
2 -8 -1 56267.60 60376.20 1308.68 o
2 8 -1 56267.80 60123.10 2678.95 o
2 8 -1 56267.80 64667.70 1819.84 o
2 -8 -1 56267.60 62017.00 1979.60 o
2 8 -1 56267.80 59257.10 1945.19 o
-2 -8 1 56267.80 60544.10 2550.09 o
-2 8 1 56267.60 63339.90 1424.39 o
2 -8 -1 56267.60 59680.50 2548.17 o
2 -8 -1 56267.60 58458.30 1471.22 o
2 -8 -1 56267.60 60166.30 1860.53 o
-2 -8 1 56267.80 58966.90 2241.68 o
-2 8 0 37439.30 36723.70 1396.75 o
2 -8 0 37439.30 37683.20 1868.94 o
2 -8 0 37439.30 37629.30 1231.16 o
-2 -8 0 37439.40 39355.20 952.37 o
-2 -8 0 37439.40 43072.20 2182.22 o
2 -8 0 37439.30 38454.50 1611.76 o
2 8 0 37439.40 38627.20 1020.97 o
-2 8 0 37439.30 41280.30 1144.56 o
2 -8 0 37439.30 40118.00 1147.33 o
2 -8 0 37439.30 41834.40 2042.94 o
2 -8 0 37439.30 39376.80 1697.34 o
-2 -8 0 37439.40 36729.70 1617.83 o
2 -8 0 37439.30 38940.20 1304.79 o
-2 -8 0 37439.40 40952.80 1547.78 o
2 8 0 37439.40 40495.90 1747.33 o
2 8 0 37439.40 37826.00 1962.49 o
2 -8 1 461.44 604.51 271.56 <
-2 8 -1 461.44 492.96 248.13 <
2 -8 1 461.44 841.99 312.16 <
2 -8 1 461.44 404.20 351.59 <
-2 -8 -1 461.44 407.80 338.40 <
-2 8 -1 461.44 369.42 234.26 <
2 -8 1 461.44 464.17 244.67 <
2 8 1 461.44 1041.09 366.21 <
2 -8 1 461.44 683.67 375.75 <
-2 -8 -1 461.44 760.43 524.44 <
2 8 1 461.44 630.89 373.59 <
-2 -8 -1 461.44 748.43 287.50 <
-2 8 -2 6819.56 6662.75 675.42 o
-2 -8 -2 6819.55 7448.37 1202.36 o
2 -8 2 6819.56 6585.99 670.07 o
2 8 2 6819.55 7699.05 1100.14 o
2 8 2 6819.55 6611.18 853.11 o
2 8 2 6819.55 7099.34 534.61 o
2 -8 2 6819.56 7260.06 910.53 o
-2 8 -2 6819.56 7203.69 672.84 o
-2 -8 -2 6819.55 9307.46 1001.35 o
2 -8 2 6819.56 7269.66 1156.80 o
2 8 2 6819.55 7378.80 804.90 o
2 -8 2 6819.56 7207.29 644.74 o
-2 8 -2 6819.56 7014.18 686.15 o
-2 8 -2 6819.56 6548.81 1110.95 o
2 -8 3 24968.00 28222.20 2200.17 o
-2 -8 -3 24967.90 25398.80 2396.35 o
-2 8 -3 24968.00 24174.20 1453.69 o
-2 8 -3 24968.00 25506.80 1344.39 o
2 8 3 24967.90 25930.20 2193.32 o
-2 8 -3 24968.00 23122.30 2142.63 o
-2 -8 -3 24967.90 19928.30 1009.16 o
2 -8 3 24968.00 22164.00 1718.19 o
-2 -8 -3 24967.90 20400.90 1096.22 o
2 8 3 24967.90 22995.20 1686.95 o
-2 8 -3 24968.00 21234.40 1491.16 o
-2 -8 -3 24967.90 25569.10 1777.45 o
-2 8 -3 24968.00 21451.50 1507.05 o
2 -8 3 24968.00 26044.10 1340.31 o
2 8 3 24967.90 19386.20 1248.16 o
-2 8 -4 6642.27 6637.56 950.02 o
2 -8 4 6642.27 6767.10 1021.13 o
2 -8 4 6642.27 7447.17 1404.27 o
2 -8 4 6642.27 7642.67 1355.65 o
-2 -8 -4 6642.31 5320.61 1272.63 o
-2 8 -4 6642.27 5844.75 698.22 o
-2 8 -4 6642.27 6017.47 1288.24 o
2 -8 4 6642.27 3625.83 814.67 o
-2 -8 -4 6642.31 7267.26 1134.95 o
-2 8 -4 6642.27 7077.75 789.69 o
2 8 4 6642.31 4993.17 447.82 o
2 -8 4 6642.27 8195.60 874.62 o
2 8 4 6642.31 4635.74 839.41 o
2 8 5 38547.20 34479.60 1605.96 o
-2 -8 -5 38547.20 43722.30 3274.74 o
2 8 5 38547.20 31243.60 1600.72 o
2 -8 5 38547.00 50004.80 3433.49 o
2 -8 5 38547.00 44738.20 1936.93 o
-2 8 -5 38547.00 39758.20 2460.72 o
2 -8 5 38547.00 40417.90 2630.41 o
-2 8 -5 38547.00 36975.60 3217.91 o
2 -8 5 38547.00 31377.90 2351.07 o
-2 8 -5 38547.00 38494.00 1926.41 o
-2 8 -5 38547.00 35960.90 2616.04 o
2 8 5 38547.20 41914.80 2277.60 o
2 8 6 1079.90 686.07 347.66 <
-2 8 -6 1079.88 5477.73 1420.59 o
-2 -8 -6 1079.90 1170.63 935.28 <
-2 8 -6 1079.88 820.40 912.17 <
2 -8 6 1079.88 1334.95 672.93 <
2 -8 6 1079.88 692.06 523.21 <
2 8 6 1079.90 1818.31 694.06 <
-2 8 -6 1079.88 990.72 512.58 <
-2 -8 -7 7882.49 4975.17 1552.60 o
-2 8 -7 7882.50 11028.60 1845.08 o
2 -8 7 7882.50 6956.61 1138.13 o
-2 -8 -7 7882.49 8407.90 1512.81 o
2 -8 7 7882.50 9967.14 1257.81 o
2 8 7 7882.49 8774.92 1373.37 o
2 -8 8 1953.49 1947.85 814.43 <
2 8 8 1953.49 1862.69 931.19 <
-2 -8 -8 1953.49 2146.95 920.10 <
2 8 8 1953.49 2258.50 895.40 <
2 -9 -9 28809.30 35210.00 2764.08 o
-2 9 9 28809.30 32167.10 3085.20 o
-2 -9 9 28809.40 31267.60 2682.92 o
-2 9 8 8077.69 6722.72 1525.44 o
2 -9 -8 8077.69 8910.46 1540.89 o
2 -9 -8 8077.69 6317.32 954.61 o
-2 -9 8 8077.69 8255.58 1376.79 o
-2 -9 7 4247.29 5474.13 1027.88 o
2 -9 -7 4247.27 5186.27 1175.72 o
2 9 -7 4247.29 5586.88 995.85 o
-2 9 7 4247.27 3599.45 685.18 o
-2 9 7 4247.27 3847.72 602.48 o
-2 9 7 4247.27 2555.95 1093.52 <
2 -9 -7 4247.27 3854.92 698.66 o
-2 9 6 8084.43 7044.17 801.78 o
2 9 -6 8084.48 8623.80 1224.10 o
-2 9 6 8084.43 8531.44 1599.20 o
-2 9 6 8084.43 8174.02 919.25 o
2 9 -6 8084.48 5891.53 502.03 o
-2 9 6 8084.43 7095.74 1490.75 o
2 -9 -6 8084.43 7862.17 868.47 o
-2 -9 6 8084.48 8014.49 1131.04 o
-2 9 5 48486.30 45606.60 3117.92 o
-2 9 5 48486.30 48834.20 3137.93 o
-2 9 5 48486.30 44998.50 1925.19 o
2 -9 -5 48486.30 45087.20 2155.69 o
2 9 -5 48486.30 49649.80 2409.57 o
-2 9 5 48486.30 46948.70 2168.12 o
-2 -9 5 48486.30 52948.20 2239.32 o
2 -9 -5 48486.30 45414.70 1968.30 o
-2 -9 4 71892.30 67191.20 4146.01 o
2 -9 -4 71892.30 69548.10 3507.82 o
2 9 -4 71892.30 72490.30 2668.48 o
-2 9 4 71892.30 70245.00 3248.98 o
-2 9 4 71892.30 68317.50 2789.43 o
-2 -9 4 71892.30 79364.10 2369.04 o
2 -9 -4 71892.30 70025.50 2454.60 o
-2 9 4 71892.30 76249.20 2293.47 o
-2 9 4 71892.30 75139.80 3310.72 o
-2 9 4 71892.30 71594.30 2174.26 o
2 9 -4 71892.30 76366.80 2562.82 o
-2 -9 4 71892.30 72549.00 2586.61 o
2 -9 -4 71892.30 73737.60 1970.98 o
-2 -9 3 75294.10 74507.70 3693.03 o
-2 9 3 75294.10 74205.40 3332.20 o
-2 9 3 75294.10 75379.70 2554.70 o
2 9 -3 75294.10 75577.60 2546.67 o
-2 -9 3 75294.10 54940.40 3628.38 o
2 9 -3 75294.10 77370.70 2483.33 o
2 9 -3 75294.10 72286.40 4234.82 o
2 -9 -3 75294.10 73526.60 2531.06 o
-2 9 3 75294.10 69350.20 2959.65 o
-2 9 3 75294.10 80778.20 2207.24 o
2 -9 -3 75294.10 78723.60 2737.25 o
-2 9 3 75294.10 65314.20 2917.00 o
-2 -9 3 75294.10 67047.30 2115.47 o
-2 -9 3 75294.10 71540.30 2661.44 o
-2 -9 2 13348.30 13669.70 1448.89 o
2 9 -2 13348.30 12876.90 1059.89 o
-2 9 2 13348.40 13572.60 1081.17 o
-2 9 2 13348.40 11910.20 940.21 o
-2 9 2 13348.40 13527.00 908.83 o
-2 9 2 13348.40 13223.60 944.56 o
-2 -9 2 13348.30 13577.40 1025.48 o
2 -9 -2 13348.40 12771.40 1057.02 o
-2 9 2 13348.40 12619.00 1073.08 o
2 9 -2 13348.30 13843.70 1043.62 o
-2 9 2 13348.40 12899.70 1340.68 o
2 -9 -2 13348.40 11915.00 915.02 o
2 9 -2 13348.30 12385.20 1322.56 o
2 -9 -2 13348.40 12449.90 1056.65 o
-2 -9 1 2855.20 3315.18 542.94 o
2 9 -1 2855.20 3118.48 756.70 o
-2 9 1 2855.27 3405.14 475.71 o
2 -9 -1 2855.27 2990.14 588.49 o
2 -9 -1 2855.27 3232.42 766.36 o
2 -9 -1 2855.27 2842.61 429.59 o
2 9 -1 2855.20 2882.20 563.40 o
2 9 -1 2855.20 2895.39 521.21 o
2 -9 -1 2855.27 2939.77 454.48 o
-2 -9 1 2855.20 3414.74 659.13 o
2 -9 -1 2855.27 3064.51 551.41 o
-2 -9 1 2855.20 3221.63 732.73 o
-2 9 1 2855.27 3120.88 502.32 o
2 9 -1 2855.20 4560.18 837.09 o
-2 -9 0 72088.70 67891.70 2574.41 o
-2 -9 0 72088.70 81424.70 2927.88 o
2 9 0 72088.70 75902.60 2424.43 o
-2 -9 0 72088.70 69369.40 1683.18 o
2 -9 0 72088.70 75307.70 1698.33 o
2 -9 0 72088.70 69964.30 2476.89 o
2 -9 0 72088.70 71127.70 1993.90 o
2 -9 0 72088.70 70957.40 2571.25 o
2 9 0 72088.70 75298.10 2115.09 o
-2 -9 0 72088.70 73598.50 2337.31 o
2 -9 0 72088.70 75256.10 2972.82 o
2 9 0 72088.70 69600.90 1752.40 o
2 -9 0 72088.70 73235.10 1964.69 o
2 9 0 72088.70 74091.50 2743.23 o
-2 9 0 72088.70 75626.70 1742.50 o
-2 9 -1 40010.70 38769.90 2463.45 o
-2 -9 -1 40010.50 40569.00 1877.26 o
2 -9 1 40010.70 44467.10 1307.75 o
2 -9 1 40010.70 41009.20 1974.65 o
-2 -9 -1 40010.50 44708.20 2571.17 o
2 -9 1 40010.70 39871.00 1688.33 o
-2 -9 -1 40010.50 38050.20 1642.90 o
2 9 1 40010.50 43298.90 1920.77 o
2 9 1 40010.50 42761.60 1697.47 o
2 9 1 40010.50 43573.60 2359.04 o
2 -9 1 40010.70 41279.10 2459.11 o
2 -9 1 40010.70 43368.50 1386.19 o
2 9 1 40010.50 41075.20 1756.45 o
-2 9 -1 40010.70 42200.20 1424.49 o
-2 9 -1 40010.70 41582.50 1423.09 o
-2 9 -2 93014.60 90462.30 4066.83 o
-2 9 -2 93014.60 92876.70 2452.18 o
2 9 2 93014.40 89974.10 2507.73 o
-2 -9 -2 93014.40 98749.10 4038.76 o
2 9 2 93014.40 92449.70 3182.17 o
2 -9 2 93014.60 95075.30 3063.26 o
2 -9 2 93014.60 101068.00 3671.40 o
2 9 2 93014.40 92922.30 2900.08 o
-2 -9 -2 93014.40 103039.00 2804.76 o
2 -9 2 93014.60 95275.60 2265.50 o
2 9 2 93014.40 94543.90 3775.37 o
-2 9 -2 93014.60 91056.00 2635.02 o
2 -9 3 38442.90 42958.30 2794.17 o
-2 9 -3 38442.90 39422.40 1769.52 o
2 9 3 38443.00 40492.30 2726.14 o
-2 -9 -3 38443.00 29491.20 1434.12 o
-2 -9 -3 38443.00 40742.90 3040.76 o
-2 -9 -3 38443.00 33213.00 1397.83 o
2 9 3 38443.00 38444.90 2154.07 o
-2 -9 -3 38443.00 43504.00 2184.75 o
-2 9 -3 38442.90 37634.10 1924.11 o
-2 9 -3 38442.90 39677.90 1593.35 o
2 -9 3 38442.90 36144.40 2222.55 o
2 -9 3 38442.90 41780.40 1605.22 o
-2 9 -3 38442.90 34791.40 2764.90 o
2 9 3 38443.00 28442.90 1600.69 o
2 9 3 38443.00 35992.10 1337.69 o
2 9 3 38443.00 40552.20 1989.23 o
-2 9 -3 38442.90 36275.10 1930.34 o
-2 9 -4 5828.04 5729.61 723.93 o
-2 9 -4 5828.04 6269.34 719.08 o
2 -9 4 5828.04 6879.85 987.36 o
2 -9 4 5828.04 4557.78 1223.88 o
-2 9 -4 5828.04 3481.90 502.48 o
-2 -9 -4 5828.08 5227.05 1296.62 o
2 -9 4 5828.04 4025.24 898.14 o
-2 9 -4 5828.04 4874.42 1311.66 o
-2 9 -4 5828.04 6216.57 952.39 o
2 -9 4 5828.04 6566.80 841.98 o
2 9 4 5828.08 4588.96 462.74 o
2 9 4 5828.08 5459.74 951.54 o
2 -9 5 2094.53 2427.62 650.84 o
2 9 5 2094.55 2822.22 816.10 o
-2 9 -5 2094.53 1733.16 694.38 <
2 -9 5 2094.53 1055.49 617.39 <
2 9 5 2094.55 883.97 264.05 o
2 -9 5 2094.53 1360.14 859.68 <
-2 -9 -5 2094.55 3424.33 1232.50 <
-2 9 -5 2094.53 2439.61 1116.13 <
2 9 5 2094.55 1556.84 383.70 o
-2 9 -5 2094.53 2064.19 520.84 o
2 9 6 19332.30 21771.80 1814.26 o
2 -9 6 19332.20 22751.70 1714.19 o
2 -9 6 19332.20 20857.80 1840.64 o
-2 9 -6 19332.20 18033.20 2747.31 o
-2 -9 -6 19332.30 19958.30 2709.34 o
2 -9 7 15588.20 15945.00 1690.37 o
-2 -9 -7 15588.20 13403.50 2537.35 o
-2 9 -7 15588.20 16823.00 2276.82 o
2 -9 7 15588.20 19137.90 1747.25 o
2 9 7 15588.20 17903.70 1873.72 o
2 9 8 22622.20 28104.70 2847.20 o
2 -9 8 22622.30 22679.70 2188.70 o
-2 9 -8 22622.30 39436.80 3172.05 o
2 9 8 22622.20 24180.20 2320.23 o
-2 10 9 1390.00 1797.92 1073.16 <
-2 10 9 1390.00 -509.75 927.11 <
2 -10 -9 1390.00 2462.40 1063.60 <
-2 -10 9 1389.99 1213.81 807.87 <
2 10 -9 1389.99 2593.14 1168.82 <
-2 -10 8 2707.74 2218.92 928.96 <
2 10 -8 2707.74 4205.15 1162.83 o
-2 10 8 2707.75 1067.48 918.50 <
2 -10 -8 2707.75 1259.39 811.11 <
2 -10 -8 2707.75 2605.13 646.29 o
2 10 -7 70751.90 82294.30 3388.50 o
-2 10 7 70751.80 73904.40 2158.17 o
2 -10 -7 70751.80 75221.30 3661.74 o
-2 10 7 70751.80 75698.70 2507.61 o
-2 -10 7 70751.90 85280.80 2934.36 o
2 -10 -7 70751.80 61416.10 3017.22 o
-2 10 7 70751.80 71507.90 4592.08 o
-2 10 6 15151.60 13100.00 2014.22 o
-2 10 6 15151.60 15035.90 1950.00 o
-2 10 6 15151.60 13872.40 1283.27 o
2 -10 -6 15151.60 13802.90 1127.17 o
-2 10 6 15151.60 12711.40 1117.94 o
2 10 -6 15151.60 15843.10 1598.28 o
-2 -10 6 15151.60 16163.30 1533.18 o
2 -10 -5 115962.00 101402.00 5515.50 o
2 10 -5 115963.00 120327.00 3569.68 o
-2 10 5 115962.00 110400.00 4954.07 o
-2 10 5 115962.00 102849.00 4361.60 o
-2 10 5 115962.00 110710.00 3749.38 o
-2 -10 5 115963.00 121484.00 3372.95 o
2 -10 -5 115962.00 107044.00 3769.80 o
-2 10 5 115962.00 107463.00 3528.64 o
-2 10 5 115962.00 116968.00 4883.08 o
2 -10 -5 115962.00 108455.00 3385.84 o
-2 10 4 5665.52 5621.66 792.36 o
2 -10 -4 5665.52 4329.89 954.12 o
2 10 -4 5665.41 6352.10 854.24 o
2 -10 -4 5665.52 5645.65 734.41 o
-2 10 4 5665.52 6374.89 833.14 o
-2 10 4 5665.52 5684.03 990.46 o
-2 -10 4 5665.41 6631.57 855.03 o
2 10 -4 5665.41 5809.97 869.68 o
-2 -10 4 5665.41 5687.63 1220.76 o
-2 10 4 5665.52 6187.78 1103.85 o
2 -10 -4 5665.52 5779.98 633.20 o
-2 10 4 5665.52 6490.04 726.91 o
-2 -10 4 5665.41 6233.36 880.66 o
2 10 -3 171.97 286.66 387.23 <
-2 10 3 171.96 -368.22 373.63 <
2 10 -3 171.97 93.55 478.61 <
-2 -10 3 171.97 253.08 144.83 <
2 -10 -3 171.96 966.73 587.84 <
-2 10 3 171.96 387.41 509.43 <
2 10 -3 171.97 -153.52 322.58 <
-2 -10 3 171.97 934.34 772.01 <
-2 10 3 171.96 429.39 307.56 <
-2 10 3 171.96 440.18 365.20 <
2 -10 -3 171.96 429.39 350.82 <
-2 10 3 171.96 301.05 374.00 <
-2 -10 3 171.97 377.82 603.05 <
-2 -10 3 171.97 401.80 313.67 <
2 10 -3 171.97 -272.27 660.71 <
2 10 -2 140823.00 149105.00 4044.21 o
-2 -10 2 140823.00 164635.00 9819.08 o
-2 10 2 140823.00 131397.00 4009.40 o
-2 10 2 140823.00 145637.00 3217.82 o
-2 -10 2 140823.00 140984.00 4554.20 o
-2 10 2 140823.00 132439.00 4982.82 o
2 10 -2 140823.00 144407.00 3285.71 o
2 -10 -2 140823.00 142670.00 3356.76 o
2 -10 -2 140823.00 144376.00 4398.75 o
-2 10 2 140823.00 142458.00 3097.07 o
-2 -10 2 140823.00 140314.00 3458.72 o
-2 10 2 140823.00 153416.00 720.24 o
2 10 -2 140823.00 152995.00 2171.56 o
-2 10 2 140823.00 146150.00 3046.54 o
2 -10 -2 140823.00 139985.00 3713.35 o
-2 -10 2 140823.00 146681.00 4260.17 o
-2 -10 1 103946.00 109562.00 3656.14 o
-2 -10 1 103946.00 117137.00 2002.89 o
2 10 -1 103946.00 107597.00 2864.91 o
2 -10 -1 103946.00 105337.00 2965.45 o
2 -10 -1 103946.00 107083.00 2256.22 o
2 -10 -1 103946.00 107715.00 3660.67 o
2 -10 -1 103946.00 107583.00 2330.76 o
-2 10 1 103946.00 99652.20 4064.65 o
-2 10 1 103946.00 106883.00 2385.96 o
2 10 -1 103946.00 109153.00 2532.75 o
2 -10 -1 103946.00 109421.00 2803.99 o
-2 -10 1 103946.00 108490.00 2647.04 o
-2 10 1 103946.00 109475.00 2230.10 o
2 10 -1 103946.00 120340.00 2121.66 o
-2 -10 1 103946.00 102534.00 3511.95 o
-2 -10 0 72948.50 61534.80 2233.75 o
2 10 0 72948.50 77774.90 2788.24 o
2 -10 0 72948.30 74512.50 2017.26 o
-2 10 0 72948.30 79059.50 1695.30 o
-2 10 0 72948.30 71559.50 3324.62 o
2 -10 0 72948.30 78971.90 1618.27 o
-2 -10 0 72948.50 80713.50 3163.80 o
2 10 0 72948.50 69121.10 1867.48 o
-2 -10 0 72948.50 75903.80 2469.35 o
2 -10 0 72948.30 75299.30 2527.91 o
2 10 0 72948.50 74878.30 2687.61 o
-2 -10 0 72948.50 78759.60 2214.16 o
2 -10 0 72948.30 77782.10 3072.28 o
2 -10 0 72948.30 77140.40 1909.82 o
-2 -10 0 72948.50 69386.20 2696.33 o
2 10 0 72948.50 78176.70 2128.20 o
2 -10 0 72948.30 72810.50 2473.36 o
2 10 1 36007.90 38809.50 1787.88 o
2 -10 1 36008.00 32537.70 2177.91 o
-2 -10 -1 36007.90 34562.40 1921.06 o
-2 10 -1 36008.00 35573.50 1542.80 o
-2 -10 -1 36007.90 31929.60 1753.68 o
-2 10 -1 36008.00 33903.90 2429.87 o
2 10 1 36007.90 36922.80 1766.17 o
-2 -10 -1 36007.90 41273.10 2567.41 o
2 -10 1 36008.00 41137.50 1433.13 o
2 10 1 36007.90 38634.40 2378.75 o
-2 -10 -1 36007.90 34074.20 2362.50 o
2 10 1 36007.90 37119.50 1984.20 o
2 -10 1 36008.00 38251.80 1491.88 o
2 -10 1 36008.00 36047.20 2440.62 o
2 -10 1 36008.00 36766.90 1945.14 o
-2 10 -1 36008.00 36435.80 1530.28 o
2 -10 1 36008.00 35923.70 1664.37 o
-2 10 -2 36083.40 33359.30 2629.39 o
2 10 2 36083.40 38911.40 2460.56 o
-2 -10 -2 36083.40 35482.30 2022.64 o
-2 -10 -2 36083.40 39867.40 2756.62 o
2 -10 2 36083.40 36806.50 1589.37 o
-2 -10 -2 36083.40 33397.70 2355.49 o
-2 10 -2 36083.40 35976.50 1608.18 o
2 -10 2 36083.40 38206.20 2628.17 o
2 10 2 36083.40 37714.40 2030.95 o
-2 10 -2 36083.40 35880.50 1650.24 o
2 10 2 36083.40 36107.20 1604.73 o
2 -10 2 36083.40 35292.80 2110.79 o
2 10 2 36083.40 36625.30 1891.77 o
2 10 3 7977.09 7399.19 655.55 o
-2 10 -3 7977.15 8231.59 865.04 o
-2 -10 -3 7977.09 9498.17 1587.88 o
2 -10 3 7977.15 7535.93 882.44 o
-2 -10 -3 7977.09 11371.70 1288.55 o
2 -10 3 7977.15 8705.36 863.41 o
-2 -10 -3 7977.09 7260.06 585.02 o
2 -10 3 7977.15 7663.06 1041.93 o
-2 10 -3 7977.15 7282.85 1308.57 o
2 10 3 7977.09 7853.77 1034.96 o
2 10 3 7977.09 8398.31 990.72 o
-2 10 -3 7977.15 6470.85 843.63 o
2 10 4 138869.00 124955.00 3726.53 o
-2 -10 -4 138869.00 137571.00 6233.20 o
-2 10 -4 138870.00 149469.00 2959.49 o
2 -10 4 138870.00 144136.00 3719.23 o
-2 10 -4 138870.00 123659.00 4530.44 o
2 10 4 138869.00 141771.00 4271.73 o
2 -10 4 138870.00 153309.00 2182.40 o
-2 10 -4 138870.00 140918.00 2960.02 o
-2 10 -4 138870.00 128088.00 6234.13 o
-2 10 -4 138870.00 132484.00 4516.22 o
-2 -10 -5 6188.30 9654.09 1764.30 o
-2 10 -5 6188.31 7092.14 1015.90 o
2 -10 5 6188.31 6139.81 1506.94 o
-2 10 -5 6188.31 5158.69 700.94 o
2 10 5 6188.30 3962.87 516.55 o
2 -10 5 6188.31 5074.73 1041.96 o
-2 10 -5 6188.31 6260.95 736.16 o
-2 10 -5 6188.31 5776.38 1495.99 o
2 10 5 6188.30 4117.59 482.90 o
2 10 5 6188.30 6827.07 1111.17 o
2 -10 5 6188.31 7461.56 1007.99 o
2 10 6 32644.30 37704.80 2295.97 o
-2 10 -6 32644.30 30155.70 3524.02 o
-2 -10 -6 32644.30 34640.30 3449.43 o
2 -10 6 32644.30 35740.20 2400.45 o
2 -10 6 32644.30 40154.00 2163.94 o
2 -10 7 3650.21 3727.78 996.02 o
-2 10 -7 3650.21 1543.65 1118.46 <
2 -10 7 3650.21 4910.41 1029.18 o
-2 -10 -7 3650.19 2853.41 1325.07 <
2 10 7 3650.19 3778.16 981.15 o
2 10 8 1622.24 2092.98 858.64 <
2 -10 8 1622.24 1175.43 680.96 <
2 -11 -9 24559.50 29213.00 2684.31 o
-2 11 9 24559.50 22052.40 3083.11 o
-2 -11 8 1922.94 2023.41 851.02 <
-2 11 8 1922.96 376.62 854.27 <
2 -11 -8 1922.96 1601.22 839.96 <
2 11 -8 1922.94 2205.72 865.52 <
-2 11 7 8126.86 7785.40 1625.60 o
2 11 -7 8126.84 10175.80 1453.10 o
2 -11 -7 8126.86 10131.50 1513.87 o
-2 11 7 8126.86 9979.14 969.07 o
-2 11 7 8126.86 7985.71 1020.97 o
-2 -11 7 8126.84 10031.90 1365.00 o
2 -11 -7 8126.86 7419.58 886.75 o
-2 11 6 3143.26 3052.51 998.59 o
2 11 -6 3143.29 3866.91 891.33 o
2 -11 -6 3143.26 2641.11 569.70 o
-2 11 6 3143.26 2774.25 644.48 o
-2 11 6 3143.26 2092.98 487.76 o
-2 11 6 3143.26 2653.11 693.26 o
2 -11 -6 3143.26 3396.74 550.48 o
-2 -11 6 3143.29 3499.89 806.02 o
2 -11 -5 17878.40 14816.40 1949.71 o
2 -11 -5 17878.40 17842.50 1157.56 o
2 11 -5 17878.40 18126.80 1570.40 o
-2 -11 5 17878.40 19067.10 1536.96 o
-2 11 5 17878.40 16843.40 1448.69 o
-2 11 5 17878.40 16632.30 1420.48 o
2 -11 -5 17878.40 15620.00 1305.26 o
-2 11 5 17878.40 17927.70 1240.89 o
-2 11 5 17878.40 16680.30 1856.95 o
-2 11 5 17878.40 17804.10 1960.27 o
-2 -11 4 22234.10 23272.30 1535.68 o
2 -11 -4 22234.30 23525.30 1955.98 o
2 11 -4 22234.10 23640.50 1592.42 o
-2 11 4 22234.30 22595.80 1494.68 o
2 -11 -4 22234.30 21846.20 1432.08 o
-2 11 4 22234.30 23325.00 2020.26 o
-2 11 4 22234.30 21558.30 1804.42 o
-2 11 4 22234.30 22814.10 1374.61 o
-2 11 4 22234.30 23130.70 1581.25 o
2 11 -3 75194.10 76080.10 4373.56 o
2 11 -3 75194.10 75236.90 2791.87 o
-2 -11 3 75194.10 59492.20 2536.01 o
-2 11 3 75194.30 65841.90 3149.60 o
-2 11 3 75194.30 74531.70 2658.63 o
2 11 -3 75194.10 81867.30 2437.97 o
2 -11 -3 75194.30 86028.10 2457.45 o
2 -11 -3 75194.30 73350.20 2694.70 o
-2 11 3 75194.30 78694.80 3395.99 o
2 11 -3 75194.10 81097.30 3623.70 o
-2 11 3 75194.30 74578.40 2894.26 o
-2 11 3 75194.30 64385.80 3178.55 o
-2 -11 3 75194.10 78945.50 3807.36 o
-2 -11 3 75194.10 73729.30 2747.38 o
-2 11 3 75194.30 77156.00 2478.22 o
2 11 -2 701.04 828.80 504.48 <
2 11 -2 701.04 16.79 655.49 <
-2 11 2 701.06 850.39 310.93 <
2 11 -2 701.04 490.56 385.75 <
-2 11 2 701.06 466.57 414.54 <
2 -11 -2 701.06 448.58 315.27 <
-2 -11 2 701.04 1216.21 660.12 <
-2 11 2 701.06 987.12 441.20 <
2 -11 -2 701.06 737.64 398.05 <
-2 11 2 701.06 832.39 327.88 <
-2 -11 2 701.04 -40.78 401.58 <
2 11 -2 701.04 759.23 621.13 <
-2 -11 2 701.04 820.40 353.20 <
-2 -11 2 701.04 907.96 484.90 <
2 -11 -2 701.06 825.20 493.69 <
2 11 -1 19541.80 19940.30 1441.81 o
-2 -11 1 19541.80 22439.90 1416.69 o
2 -11 -1 19541.80 20595.20 1247.81 o
-2 -11 1 19541.80 21533.10 1840.46 o
-2 -11 1 19541.80 21106.10 1388.30 o
-2 -11 1 19541.80 19296.20 1568.94 o
2 11 -1 19541.80 24098.70 1644.46 o
-2 11 1 19541.80 20128.60 1223.46 o
2 -11 -1 19541.80 19116.30 1401.82 o
-2 11 1 19541.80 17618.20 1725.16 o
-2 11 1 19541.80 19560.10 1210.70 o
2 -11 -1 19541.80 20537.60 1811.03 o
2 11 -1 19541.80 21320.80 1341.28 o
2 -11 0 70277.60 71721.40 2177.94 o
2 11 0 70277.70 73088.80 3026.47 o
-2 -11 0 70277.70 73356.20 2536.90 o
2 -11 0 70277.60 66818.20 2645.51 o
2 -11 0 70277.60 71349.60 3314.50 o
-2 -11 0 70277.70 77289.10 3308.77 o
2 -11 0 70277.60 68851.20 2762.00 o
-2 -11 0 70277.70 65263.80 2854.81 o
2 11 0 70277.70 60318.60 2225.90 o
2 11 0 70277.70 73711.30 2677.03 o
2 -11 0 70277.60 74388.90 2046.34 o
-2 -11 0 70277.70 75821.00 2351.56 o
2 11 0 70277.70 72822.50 2393.22 o
-2 11 0 70277.60 75106.20 1927.80 o
-2 11 0 70277.60 65467.70 3484.96 o
-2 -11 -1 1571.88 1370.93 512.31 <
2 -11 1 1571.89 1343.35 403.74 o
2 11 1 1571.88 1787.13 550.12 o
-2 11 -1 1571.89 1179.03 365.62 o
2 11 1 1571.88 1682.78 451.21 o
2 -11 1 1571.89 1496.87 554.62 <
2 -11 1 1571.89 1423.71 430.61 o
-2 -11 -1 1571.88 1668.39 501.80 o
-2 -11 -1 1571.88 1992.23 491.57 o
2 -11 1 1571.89 1668.39 689.11 <
-2 11 -1 1571.89 1432.10 394.67 o
-2 11 -1 1571.89 1402.12 592.32 <
-2 -11 -1 1571.88 2156.55 696.52 o
2 -11 1 1571.89 1697.17 576.05 <
2 11 1 1571.88 2420.42 620.32 o
2 -11 1 1571.89 1261.78 428.17 <
2 11 1 1571.88 1524.46 679.13 <
-2 11 -2 75990.80 71040.20 4001.36 o
2 -11 2 75990.80 80464.00 2177.04 o
-2 -11 -2 75990.90 74951.50 3020.60 o
-2 11 -2 75990.80 77580.60 2353.84 o
2 11 2 75990.90 78465.80 2961.87 o
2 11 2 75990.90 79557.20 3632.76 o
2 11 2 75990.90 79079.90 2693.29 o
2 -11 2 75990.80 75821.00 3160.66 o
2 11 2 75990.90 76129.30 2562.90 o
-2 -11 -2 75990.90 83496.10 3940.83 o
-2 11 -2 75990.80 77245.90 2406.45 o
2 -11 2 75990.80 78535.30 3870.97 o
-2 -11 -2 75990.90 77551.80 3587.05 o
-2 11 -3 1810.86 1754.74 537.78 o
-2 11 -3 1810.86 2380.84 528.09 o
2 11 3 1810.91 1733.16 581.08 <
2 -11 3 1810.86 1730.76 478.07 o
-2 -11 -3 1810.91 2057.00 875.44 <
2 11 3 1810.91 1060.28 326.36 o
-2 11 -3 1810.86 1561.64 723.41 <
-2 -11 -3 1810.91 1766.74 349.57 o
2 -11 3 1810.86 2007.82 684.73 <
2 -11 3 1810.86 1983.83 484.11 o
2 11 4 2423.93 2010.22 695.14 <
-2 11 -4 2423.83 2378.44 663.67 o
2 -11 4 2423.83 4361.07 721.27 o
2 -11 4 2423.83 3287.60 709.74 o
2 11 4 2423.93 2418.02 406.69 o
-2 -11 -4 2423.93 2336.46 1012.80 <
-2 11 -4 2423.83 2966.15 660.21 o
-2 -11 -4 2423.93 2161.35 315.18 o
-2 11 -4 2423.83 2767.05 536.88 o
2 -11 4 2423.83 988.32 540.77 <
-2 11 -4 2423.83 2332.86 1097.94 <
2 -11 5 1039.74 2282.49 673.04 o
2 11 5 1039.74 802.41 354.05 <
2 11 5 1039.74 847.99 266.65 o
-2 11 -5 1039.74 1704.37 686.23 <
-2 -11 -5 1039.74 1279.78 954.01 <
2 11 5 1039.74 -465.37 617.27 <
2 -11 5 1039.74 1735.55 792.05 <
-2 11 -5 1039.74 778.42 747.96 <
-2 -11 -6 15424.40 18316.30 2551.15 o
-2 11 -6 15424.30 20003.80 1860.94 o
2 11 6 15424.40 18709.70 1770.31 o
2 -11 6 15424.30 17125.30 1839.50 o
2 -11 6 15424.30 20549.60 1678.28 o
-2 11 -6 15424.30 14673.60 2595.12 o
2 -11 7 2504.21 2901.39 908.66 o
2 11 7 2504.23 3460.31 926.60 o
-2 11 -7 2504.21 855.18 676.35 <
-2 -11 -7 2504.23 1235.40 1139.09 <
2 -11 7 2504.21 3726.58 1069.21 o
-2 11 -7 2504.21 1270.18 1194.00 <
-2 11 -8 13660.00 10204.60 1828.58 o
2 11 8 13660.00 16764.20 1974.53 o
2 -11 8 13660.00 15531.20 1849.63 o
-2 12 9 25.69 -888.77 816.26 <
2 -12 -8 3.12 1014.71 841.24 <
-2 -12 8 3.12 266.27 575.52 <
-2 12 8 3.12 -533.74 867.79 <
2 12 -8 3.12 1433.30 829.65 <
-2 -12 7 858.60 1580.83 726.05 <
-2 12 7 858.60 664.48 685.36 <
2 12 -7 858.60 2744.26 875.50 o
-2 12 7 858.60 1193.42 441.82 <
-2 12 6 95.71 -70.77 325.04 <
2 12 -6 95.72 -626.09 540.85 <
2 -12 -6 95.71 154.73 286.59 <
-2 12 6 95.71 -694.46 705.24 <
-2 -12 6 95.72 449.78 451.56 <
2 -12 -6 95.71 -244.68 366.75 <
-2 12 6 95.71 474.97 451.48 <
-2 12 5 512.11 207.50 361.65 <
-2 -12 5 512.14 425.79 424.82 <
2 12 -5 512.14 526.54 498.92 <
-2 12 5 512.11 340.63 528.05 <
-2 12 5 512.11 281.86 615.62 <
2 -12 -5 512.11 617.70 413.44 <
-2 12 5 512.11 279.46 324.46 <
2 -12 -5 512.11 199.10 637.25 <
-2 -12 4 94.34 -279.46 390.67 <
-2 12 4 94.34 -124.74 429.34 <
2 12 -4 94.34 187.11 358.53 <
2 -12 -4 94.34 542.14 603.81 <
-2 12 4 94.34 -155.92 305.73 <
-2 12 4 94.34 808.41 590.86 <
2 -12 -4 94.34 -332.24 396.52 <
-2 12 4 94.34 470.17 379.40 <
2 12 -4 94.34 -391.01 742.08 <
-2 12 3 50.85 333.44 332.95 <
-2 -12 3 50.85 218.29 360.84 <
-2 12 3 50.85 -158.32 423.29 <
-2 12 3 50.85 -474.97 489.74 <
2 12 -3 50.85 -152.33 715.99 <
2 -12 -3 50.85 488.16 364.84 <
2 12 -3 50.85 251.88 360.78 <
-2 12 3 50.85 184.71 310.50 <
-2 -12 3 50.85 65.97 145.11 <
-2 -12 3 50.85 1355.34 765.07 <
2 -12 -3 50.85 -75.56 319.02 <
-2 12 3 50.85 386.21 420.47 <
2 12 -3 50.85 -1074.68 891.24 <
2 -12 -3 50.85 1125.05 575.89 <
-2 -12 2 2323.93 2098.98 534.74 o
2 12 -2 2323.93 2495.98 569.16 o
2 12 -2 2323.93 2194.93 841.61 <
2 -12 -2 2323.89 2379.64 673.60 o
-2 12 2 2323.89 2378.44 445.49 o
2 12 -2 2323.93 2292.08 595.21 o
2 -12 -2 2323.89 2385.64 489.85 o
-2 12 2 2323.89 2035.41 678.65 o
-2 -12 2 2323.93 2811.43 671.87 o
2 -12 -2 2323.89 2433.61 599.86 o
-2 -12 2 2323.93 3248.02 857.21 o
-2 12 2 2323.89 2630.32 525.41 o
2 -12 -2 2323.89 2655.51 625.26 o
-2 -12 2 2323.93 2298.08 753.42 o
2 12 -2 2323.93 840.79 641.94 <
-2 12 1 492.55 681.27 351.83 <
2 12 -1 492.57 2107.37 805.69 <
2 -12 -1 492.55 614.10 583.83 <
2 12 -1 492.57 224.29 356.79 <
2 12 -1 492.57 344.23 388.97 <
-2 12 1 492.55 368.22 291.88 <
-2 -12 1 492.57 527.74 402.89 <
-2 12 1 492.55 839.59 563.86 <
2 -12 -1 492.55 79.16 288.61 <
-2 -12 1 492.57 95.95 462.24 <
2 -12 -1 492.55 57.57 338.86 <
-2 -12 1 492.57 388.61 439.23 <
-2 -12 1 492.57 521.75 412.51 <
-2 -12 0 1079.70 1189.82 475.53 <
2 12 0 1079.70 1152.64 418.12 <
-2 12 0 1079.68 1328.95 411.99 o
2 12 0 1079.70 2241.71 706.37 o
-2 -12 0 1079.70 1465.69 696.28 <
2 -12 0 1079.68 973.92 451.55 <
2 -12 0 1079.68 1018.30 631.14 <
2 -12 0 1079.68 752.03 390.35 <
-2 -12 0 1079.70 933.15 396.68 <
-2 -12 0 1079.70 419.80 375.73 <
-2 12 0 1079.68 1045.89 545.89 <
2 -12 0 1079.68 1502.87 482.91 o
2 12 0 1079.70 975.12 223.03 o
2 -12 1 299.89 338.23 303.35 <
2 12 1 299.90 453.38 421.84 <
2 -12 1 299.89 749.64 621.46 <
2 -12 1 299.89 145.13 380.41 <
2 -12 1 299.89 419.80 309.10 <
-2 12 -1 299.89 101.95 302.52 <
-2 -12 -1 299.90 249.48 344.33 <
2 12 1 299.90 653.68 388.64 <
-2 12 -1 299.89 305.85 472.56 <
-2 -12 -1 299.90 197.90 536.24 <
-2 12 -1 299.89 232.69 298.79 <
2 -12 1 299.89 310.65 289.03 <
2 -12 1 299.89 495.36 431.32 <
2 12 1 299.90 1036.29 541.96 <
2 12 1 299.90 440.18 567.09 <
-2 -12 -1 299.90 259.07 325.12 <
-2 12 -2 14.00 256.67 355.94 <
-2 12 -2 14.00 -4.80 305.85 <
-2 -12 -2 14.00 -214.70 513.19 <
-2 12 -2 14.00 388.61 626.92 <
2 -12 2 14.00 -254.28 371.51 <
2 12 2 14.00 -352.63 366.41 <
2 -12 2 14.00 -55.17 436.58 <
2 -12 2 14.00 299.85 301.79 <
2 12 2 14.00 416.20 498.41 <
2 12 3 58.02 152.33 407.73 <
-2 12 -3 58.03 389.81 383.23 <
2 -12 3 58.03 323.84 377.42 <
-2 -12 -3 58.02 430.59 584.85 <
2 12 3 58.02 -291.46 360.61 <
2 -12 3 58.03 -38.38 339.43 <
-2 12 -3 58.03 172.72 590.05 <
-2 -12 -3 58.02 356.23 280.01 <
2 -12 3 58.03 557.73 537.67 <
-2 12 -3 58.03 388.61 418.07 <
2 12 4 995.92 1784.73 600.93 <
-2 12 -4 995.86 -563.72 526.96 <
-2 -12 -4 995.92 786.82 798.15 <
2 12 4 995.92 714.85 306.44 <
-2 -12 -4 995.92 717.25 251.64 <
2 -12 4 995.86 693.26 509.68 <
-2 12 -4 995.86 867.18 698.46 <
-2 12 -4 995.86 1086.67 521.30 <
2 -12 4 995.86 1149.04 523.37 <
-2 12 -5 146.27 -316.65 754.22 <
-2 12 -5 146.27 1079.47 606.47 <
-2 -12 -5 146.28 157.12 701.65 <
2 -12 5 146.27 215.90 458.11 <
2 -12 5 146.27 929.55 690.24 <
2 12 5 146.28 -1041.09 707.33 <
2 -12 6 572.54 634.49 585.16 <
-2 12 -6 572.54 1090.27 657.95 <
-2 -12 -6 572.53 2942.17 1239.96 <
2 -12 6 572.54 1507.67 874.91 <
-2 12 -6 572.54 1256.99 1003.43 <
2 12 6 572.53 2512.78 888.64 <
-2 12 -7 67.11 -558.93 718.87 <
2 -12 7 67.11 507.35 629.09 <
2 -12 7 67.11 151.13 590.07 <
-2 12 -7 67.11 -1077.07 1349.00 <
2 12 7 67.12 725.65 683.70 <
2 -12 8 4.92 1303.76 936.25 <
-2 -13 8 178.77 1385.32 933.70 <
-2 13 8 178.77 151.13 742.45 <
2 13 -8 178.77 47.98 600.96 <
2 -13 -8 178.77 585.32 926.67 <
-2 -13 7 1448.02 2021.01 849.83 <
2 13 -7 1448.02 2914.58 930.01 o
-2 13 7 1448.03 328.64 406.47 <
-2 13 7 1448.03 1646.80 928.73 <
-2 13 6 1340.66 1249.79 473.16 <
-2 -13 6 1340.64 749.64 573.27 <
-2 13 6 1340.66 1015.90 728.05 <
2 13 -6 1340.64 1725.96 686.32 <
2 -13 -6 1340.66 1085.47 443.01 <
-2 13 5 4305.00 3797.35 722.77 o
-2 -13 5 4304.98 4287.91 863.78 o
-2 13 5 4305.00 5667.24 1232.44 o
2 13 -5 4304.98 5343.40 947.68 o
2 -13 -5 4305.00 3478.30 1014.87 o
-2 13 5 4305.00 4087.61 979.74 o
2 -13 -5 4305.00 4267.52 723.78 o
-2 13 5 4305.00 4244.73 752.85 o
-2 -13 4 2972.89 3198.84 718.49 o
-2 13 4 2972.90 1782.33 760.27 <
-2 13 4 2972.90 3758.97 707.99 o
2 13 -4 2972.89 2823.42 692.35 o
-2 13 4 2972.90 3186.85 609.08 o
2 13 -4 2972.89 2606.33 1023.05 <
-2 13 4 2972.90 2257.30 679.21 o
2 -13 -4 2972.90 4167.97 1019.75 o
2 -13 -4 2972.90 2456.40 568.29 o
-2 13 3 24143.20 23425.80 1634.73 o
2 13 -3 24143.20 23867.20 2633.95 o
2 -13 -3 24143.20 23561.30 1561.44 o
2 13 -3 24143.20 24488.50 1716.63 o
2 -13 -3 24143.20 24314.50 1947.53 o
-2 13 3 24143.20 22532.20 1737.30 o
-2 -13 3 24143.20 22571.80 2211.88 o
2 -13 -3 24143.20 22389.50 1631.61 o
-2 13 3 24143.20 24344.50 2195.59 o
2 13 -3 24143.20 25143.30 2326.60 o
-2 13 3 24143.20 22905.20 1702.38 o
-2 -13 3 24143.20 24934.60 1662.01 o
-2 13 2 2861.27 2804.23 491.35 o
-2 13 2 2861.27 1899.87 579.83 o
2 -13 -2 2861.27 1758.34 683.55 <
-2 -13 2 2861.30 2955.36 872.42 o
2 13 -2 2861.30 2535.56 625.81 o
2 -13 -2 2861.27 2589.54 537.01 o
-2 13 2 2861.27 2543.96 802.53 o
-2 -13 2 2861.30 1759.54 676.44 <
2 -13 -2 2861.27 3099.29 714.84 o
-2 13 2 2861.27 2872.60 629.57 o
-2 -13 2 2861.30 2792.24 652.00 o
2 -13 -2 2861.27 3046.51 676.91 o
2 13 -2 2861.30 432.99 721.36 <
2 13 -2 2861.30 2940.97 949.35 o
2 13 -1 11289.30 11473.60 1196.40 o
-2 13 1 11289.20 11723.10 1048.85 o
2 -13 -1 11289.20 11109.00 1073.19 o
2 13 -1 11289.30 14165.10 1455.95 o
-2 -13 1 11289.30 12278.40 1517.88 o
-2 -13 1 11289.30 11663.10 1160.54 o
2 -13 -1 11289.20 10969.90 1168.32 o
2 13 -1 11289.30 11292.50 1539.99 o
2 -13 -1 11289.20 11508.40 1472.40 o
-2 13 1 11289.20 10732.40 1452.97 o
-2 13 1 11289.20 11482.00 1004.66 o
-2 -13 1 11289.30 10511.70 1315.54 o
2 -13 -1 11289.20 11530.00 1020.24 o
2 -13 0 24961.40 25840.20 1558.63 o
2 -13 0 24961.40 23863.60 1760.21 o
2 -13 0 24961.40 29526.00 1385.53 o
-2 -13 0 24961.40 30962.90 2358.90 o
2 13 0 24961.40 18409.80 1106.37 o
-2 -13 0 24961.40 22697.70 1778.71 o
-2 13 0 24961.40 24123.80 2211.23 o
2 -13 0 24961.40 23941.50 1776.53 o
-2 13 0 24961.40 28452.50 1431.54 o
2 13 0 24961.40 27123.60 1857.51 o
2 -13 0 24961.40 23415.00 1612.88 o
2 -13 1 383.61 807.21 474.74 <
2 13 1 383.62 484.56 472.34 <
2 -13 1 383.61 220.69 290.63 <
-2 -13 -1 383.62 642.89 470.64 <
-2 13 -1 383.61 413.80 329.75 <
2 -13 1 383.61 650.08 426.15 <
-2 13 -1 383.61 879.17 444.27 <
-2 13 -1 383.61 1007.51 733.61 <
-2 -13 -1 383.62 1036.29 646.90 <
2 -13 1 383.61 388.61 438.98 <
2 -13 1 383.61 555.33 379.67 <
2 -13 1 383.61 2967.35 776.17 o
-2 13 -2 20923.40 22395.50 1420.61 o
2 -13 2 20923.40 23173.90 1402.21 o
-2 -13 -2 20923.40 23668.10 2437.65 o
2 -13 2 20923.40 20244.90 1810.43 o
2 13 2 20923.40 22877.60 1786.06 o
-2 13 -2 20923.40 19906.70 2220.89 o
2 -13 2 20923.40 23331.00 1441.62 o
2 13 2 20923.40 21517.50 1597.90 o
-2 13 -2 20923.40 21916.90 1464.54 o
-2 13 -3 444.63 674.07 461.06 <
-2 -13 -3 444.61 -560.13 768.30 <
2 -13 3 444.63 273.47 364.99 <
-2 13 -3 444.63 594.91 413.32 <
2 13 3 444.61 687.27 489.84 <
2 13 3 444.61 -338.23 420.88 <
-2 13 -3 444.63 274.67 569.96 <
-2 -13 -3 444.61 387.41 248.50 <
2 -13 3 444.63 176.31 483.72 <
2 -13 3 444.63 263.87 342.24 <
-2 13 -4 962.16 916.35 524.34 <
2 13 4 962.14 911.56 500.38 <
-2 -13 -4 962.14 1081.87 973.62 <
2 13 4 962.14 573.32 342.55 <
2 -13 4 962.16 1098.66 535.49 <
-2 -13 -4 962.14 624.90 264.93 <
2 -13 4 962.16 1159.83 582.03 <
-2 13 -4 962.16 419.80 896.84 <
-2 13 -4 962.16 972.73 471.32 <
2 -13 5 90.29 -165.52 424.49 <
-2 13 -5 90.29 1025.50 529.52 <
-2 -13 -5 90.29 -395.81 647.26 <
2 -13 5 90.29 110.35 557.72 <
-2 13 -5 90.29 919.95 964.20 <
2 13 5 90.29 -839.59 731.12 <
2 -13 6 4364.19 4981.17 1034.28 o
-2 13 -6 4364.19 4663.33 1003.05 o
-2 -13 -6 4364.17 5140.69 1630.43 o
2 -13 6 4364.19 4141.58 1104.30 o
2 13 6 4364.17 6319.72 1206.35 o
-2 13 -6 4364.19 4538.59 1601.25 <
2 -13 7 29.25 316.65 675.04 <
-2 13 -7 29.25 -397.01 694.05 <
2 -13 7 29.25 407.80 631.69 <
2 13 7 29.26 1404.52 878.02 <
-2 13 -7 29.25 -37.18 1087.87 <
-2 14 8 168.10 -1127.45 826.06 <
2 -14 -8 168.10 1290.57 859.51 <
2 14 -7 20671.80 26513.10 2249.41 o
-2 -14 7 20671.80 27244.70 2195.67 o
-2 14 7 20671.70 23182.30 2676.43 o
-2 14 6 1479.43 1370.93 545.21 <
-2 14 6 1479.43 2579.94 1024.61 <
2 14 -6 1479.43 1964.64 697.46 <
2 -14 -6 1479.43 532.54 737.86 <
2 -14 -6 1479.43 1631.20 565.11 <
-2 -14 6 1479.43 1499.27 682.36 <
2 14 -5 17504.90 19477.30 1692.10 o
-2 14 5 17504.90 18394.20 1950.94 o
2 -14 -5 17504.90 15912.60 2079.05 o
2 -14 -5 17504.90 15940.20 1416.47 o
-2 14 5 17504.90 17753.70 1448.83 o
-2 14 5 17504.90 20223.30 2174.92 o
-2 -14 5 17504.90 19568.50 1672.14 o
2 -14 -4 15583.50 16674.30 1865.12 o
-2 14 4 15583.50 16761.80 1934.87 o
-2 14 4 15583.50 16800.20 1288.73 o
-2 14 4 15583.50 15159.40 1554.89 o
2 -14 -4 15583.50 15057.50 1373.02 o
2 14 -4 15583.50 14773.20 2403.83 o
-2 14 4 15583.50 16890.20 1390.68 o
2 14 -4 15583.50 16246.10 1513.71 o
-2 -14 4 15583.50 17762.10 1486.07 o
-2 -14 3 1092.16 1207.81 554.74 <
-2 14 3 1092.19 1472.88 571.17 <
2 -14 -3 1092.19 1210.21 507.90 <
2 -14 -3 1092.19 1294.17 480.93 <
2 14 -3 1092.16 476.17 386.43 <
-2 14 3 1092.19 1141.84 591.09 <
2 -14 -3 1092.19 1113.06 690.78 <
-2 -14 3 1092.16 580.52 183.80 o
-2 14 3 1092.19 1167.03 515.35 <
-2 -14 3 1092.16 1157.44 625.81 <
2 14 -3 1092.16 1169.43 844.14 <
2 14 -3 1092.16 197.90 757.04 <
2 14 -2 24181.40 25498.40 2574.55 o
2 -14 -2 24181.20 24928.60 1526.92 o
2 14 -2 24181.40 21779.00 2133.31 o
2 -14 -2 24181.20 25434.80 1864.74 o
-2 14 2 24181.20 25689.10 1592.97 o
-2 -14 2 24181.40 25442.00 2234.47 o
2 -14 -2 24181.20 24290.60 1749.91 o
-2 14 2 24181.20 23881.60 1339.49 o
2 14 -2 24181.40 25644.70 1767.82 o
-2 -14 2 24181.40 26514.30 1698.30 o
-2 14 2 24181.20 23481.00 2186.84 o
-2 14 2 24181.20 23419.80 1964.01 o
-2 -14 2 24181.40 22916.00 2157.27 o
2 -14 -1 7619.55 8156.02 884.42 o
2 -14 -1 7619.55 8079.26 985.48 o
2 14 -1 7619.55 8124.84 1434.99 o
-2 -14 1 7619.55 6577.59 1155.73 o
-2 14 1 7619.55 7591.10 1266.99 o
2 -14 -1 7619.55 6883.44 989.14 o
-2 -14 1 7619.55 8512.25 1019.17 o
-2 14 1 7619.55 7575.51 888.47 o
-2 -14 1 7619.55 7350.02 1290.71 o
2 14 -1 7619.55 10857.10 1374.29 o
-2 14 1 7619.55 7075.35 798.77 o
-2 14 0 5928.20 7588.70 877.78 o
2 -14 0 5928.20 7341.62 859.67 o
-2 -14 0 5928.21 7297.24 1316.79 o
-2 -14 0 5928.21 5352.99 911.60 o
2 14 0 5928.21 3839.33 418.27 o
2 -14 0 5928.20 5797.97 798.70 o
2 14 0 5928.21 6244.16 1178.68 o
-2 14 0 5928.20 6657.95 1261.30 o
2 -14 0 5928.20 5891.53 934.90 o
2 -14 0 5928.20 5857.94 955.77 o
2 -14 0 5928.20 4796.46 775.18 o
2 14 0 5928.21 7615.09 1131.27 o
-2 14 -1 11760.70 11636.70 1094.65 o
-2 -14 -1 11760.50 13937.20 1853.41 o
2 -14 1 11760.70 11597.10 1192.46 o
2 -14 1 11760.70 10732.40 1079.90 o
2 -14 1 11760.70 9493.37 1284.38 o
2 -14 1 11760.70 11489.20 1334.62 o
-2 -14 -1 11760.50 10107.50 1191.08 o
-2 14 -1 11760.70 12573.50 1109.63 o
2 14 1 11760.50 13166.00 1436.17 o
2 -14 1 11760.70 7785.40 1609.39 o
2 -14 1 11760.70 13289.50 1143.53 o
-2 14 -1 11760.70 10225.00 1610.39 o
2 -14 2 4761.52 5165.88 818.05 o
2 -14 2 4761.52 5615.66 814.28 o
-2 14 -2 4761.52 4624.95 736.12 o
2 14 2 4761.45 5408.16 1007.94 o
2 -14 2 4761.52 4014.44 952.00 o
-2 -14 -2 4761.45 5621.66 1348.40 o
-2 14 -2 4761.52 4587.76 1119.59 o
-2 -14 -2 4761.45 4221.94 667.08 o
-2 14 -2 4761.52 5403.37 848.21 o
2 -14 2 4761.52 4185.96 934.84 o
2 14 3 4380.32 4314.30 960.25 o
2 -14 3 4380.33 4881.62 827.97 o
-2 14 -3 4380.33 4381.46 776.01 o
-2 -14 -3 4380.32 5466.93 1411.91 o
2 14 3 4380.32 2559.55 665.22 o
-2 14 -3 4380.33 2779.05 1017.70 <
-2 -14 -3 4380.32 3811.74 561.54 o
2 -14 3 4380.33 3461.51 889.76 o
-2 14 -4 27401.80 31548.20 1893.82 o
-2 -14 -4 27401.80 29699.90 3238.69 o
2 14 4 27401.80 29938.60 2268.06 o
-2 -14 -4 27401.80 23542.10 1396.72 o
-2 14 -4 27401.80 27111.60 3065.90 o
2 -14 4 27401.80 16354.00 2088.08 o
2 -14 4 27401.80 32271.50 1894.52 o
2 14 5 270.82 -972.73 737.81 <
-2 14 -5 270.81 1176.63 997.21 <
-2 14 -5 270.81 315.45 528.88 <
-2 -14 -5 270.82 -1150.24 830.80 <
2 -14 5 270.81 385.01 577.95 <
2 -14 5 270.81 161.92 455.89 <
-2 14 -6 17412.60 16688.70 2813.51 o
-2 -14 -6 17412.60 22888.40 3072.86 o
-2 14 -6 17412.60 22335.50 1949.78 o
2 -14 6 17412.60 17379.50 2106.83 o
2 -14 6 17412.60 22137.60 1907.24 o
2 14 6 17412.60 22516.60 2161.58 o
2 -14 7 17.19 -539.74 668.49 <
-2 14 -7 17.19 371.82 678.55 <
2 -14 7 17.19 1588.03 819.11 <
2 14 7 17.19 1861.49 868.04 <
-2 15 8 1199.73 2051.00 1036.42 <
-2 -15 7 470.76 147.53 571.27 <
2 15 -7 470.76 1874.69 832.72 <
-2 15 7 470.77 2611.13 1078.87 <
-2 -15 6 4066.96 4437.84 977.20 o
2 -15 -6 4067.00 2487.59 1074.57 <
-2 15 6 4067.00 4098.40 1299.93 o
2 15 -6 4066.96 5464.54 1080.86 o
2 -15 -6 4067.00 4627.34 836.08 o
-2 15 6 4067.00 4220.74 814.92 o
-2 15 5 4796.61 5397.37 904.51 o
-2 -15 5 4796.62 4323.89 889.70 o
-2 15 5 4796.61 4632.14 1135.08 o
2 15 -5 4796.62 5586.88 1028.93 o
2 -15 -5 4796.61 4790.46 1259.44 o
2 -15 -5 4796.61 4741.29 870.30 o
-2 15 4 64.37 -25.19 387.42 <
-2 -15 4 64.37 -284.26 430.26 <
2 15 -4 64.37 -1115.46 1130.27 <
2 -15 -4 64.37 1134.65 767.42 <
2 15 -4 64.37 -123.54 419.74 <
-2 15 4 64.37 67.17 521.74 <
2 15 -4 64.37 -831.20 829.70 <
2 -15 -4 64.37 19.19 401.81 <
-2 15 4 64.37 -47.98 477.37 <
-2 -15 3 3151.27 3204.84 727.48 o
-2 15 3 3151.26 5023.15 923.99 o
2 15 -3 3151.27 1063.88 757.76 <
2 -15 -3 3151.26 3122.08 833.86 o
2 15 -3 3151.27 3202.44 731.11 o
-2 15 3 3151.26 3102.89 943.12 o
2 15 -3 3151.27 353.83 686.76 <
2 -15 -3 3151.26 2963.76 684.46 o
-2 -15 3 3151.27 2510.38 936.43 <
-2 15 3 3151.26 2392.83 688.30 o
2 15 -2 2319.84 1819.51 867.53 <
-2 15 2 2319.84 1051.89 589.38 <
2 15 -2 2319.84 717.25 792.91 <
2 15 -2 2319.84 3124.48 725.28 o
2 -15 -2 2319.84 3024.93 630.65 o
-2 15 2 2319.84 3118.48 950.20 o
2 -15 -2 2319.84 2146.95 669.44 o
2 -15 -2 2319.84 2558.35 694.82 o
-2 -15 2 2319.84 2667.50 880.35 o
-2 15 2 2319.84 2569.15 469.41 o
-2 -15 2 2319.84 3186.85 722.14 o
2 -15 -1 2416.01 3024.93 623.11 o
-2 -15 1 2416.02 2352.05 801.66 <
2 -15 -1 2416.01 2271.69 681.25 o
-2 15 1 2416.01 2246.50 791.60 <
2 -15 -1 2416.01 1895.08 661.20 <
-2 -15 1 2416.02 2648.31 879.94 o
2 15 -1 2416.02 3251.61 1069.11 o
-2 15 1 2416.01 2274.09 519.67 o
-2 -15 1 2416.02 3282.80 742.49 o
2 15 -1 2416.02 4433.04 1068.57 o
-2 -15 0 5278.50 4090.01 848.81 o
-2 15 0 5278.51 6202.18 1275.57 o
2 15 0 5278.50 6085.83 1232.28 o
2 -15 0 5278.51 6304.13 847.64 o
2 -15 0 5278.51 4357.48 777.41 o
2 15 0 5278.50 7707.44 1178.98 o
2 -15 0 5278.51 5487.33 859.23 o
-2 -15 0 5278.50 6205.77 1280.36 o
2 -15 0 5278.51 4851.63 867.10 o
2 -15 0 5278.51 4983.57 890.42 o
-2 15 -1 2652.42 2199.73 544.45 o
2 15 1 2652.43 3439.92 861.43 o
2 -15 1 2652.42 2259.70 707.25 o
2 -15 1 2652.42 2788.64 697.97 o
-2 15 -1 2652.42 2341.26 912.36 <
-2 -15 -1 2652.43 3083.70 1057.41 <
2 -15 1 2652.42 2654.31 581.70 o
2 -15 1 2652.42 1698.37 575.40 <
2 -15 1 2652.42 2952.96 639.68 o
2 15 1 2652.43 4478.62 980.77 o
-2 -15 -1 2652.43 3117.28 694.52 o
2 -15 1 2652.42 7774.61 1199.96 o
2 15 2 5544.49 6619.57 1106.95 o
2 -15 2 5544.46 6692.74 915.54 o
-2 15 -2 5544.46 5215.06 815.98 o
2 -15 2 5544.46 5512.51 1090.66 o
-2 15 -2 5544.46 4493.01 1196.48 o
2 -15 2 5544.46 5714.01 1077.34 o
2 -15 2 5544.46 5201.86 912.76 o
-2 -15 -2 5544.49 4886.42 726.04 o
-2 -15 -2 5544.49 6992.59 1440.47 o
2 -15 2 5544.46 6542.81 940.24 o
2 15 3 236.24 92.36 499.05 <
-2 15 -3 236.22 271.07 371.76 <
-2 -15 -3 236.24 165.52 744.88 <
2 15 3 236.24 -320.24 459.07 <
-2 15 -3 236.22 70.77 641.77 <
-2 -15 -3 236.24 129.54 290.40 <
2 -15 3 236.22 268.67 587.68 <
2 -15 3 236.22 374.22 455.54 <
2 15 4 4755.58 5210.26 1106.88 o
2 -15 4 4755.53 6217.77 997.14 o
-2 15 -4 4755.53 5886.73 959.66 o
-2 -15 -4 4755.58 5702.02 1632.12 o
2 -15 4 4755.53 2738.27 864.90 o
-2 15 -4 4755.53 3852.52 1469.43 <
2 15 5 2030.60 489.36 567.90 <
-2 15 -5 2030.59 2083.38 748.09 <
-2 15 -5 2030.59 1651.59 1114.51 <
-2 -15 -5 2030.60 538.54 982.51 <
2 -15 5 2030.59 1784.73 734.34 <
2 -15 5 2030.59 1107.06 703.73 <
-2 15 -6 32.16 767.63 649.86 <
2 -15 6 32.16 -112.75 538.50 <
2 -15 6 32.16 1512.46 876.25 <
-2 15 -6 32.16 -52.77 1014.70 <
2 15 6 32.17 -768.83 632.81 <
2 -15 7 11.36 285.46 689.48 <
-2 15 -7 11.36 1402.12 897.28 <
-2 16 7 964.42 1703.17 1007.35 <
-2 16 6 110.06 109.15 563.73 <
-2 -16 6 110.06 -648.88 664.55 <
-2 16 6 110.06 626.09 627.60 <
2 16 -6 110.06 17.99 585.33 <
2 -16 -6 110.06 -586.51 771.63 <
2 -16 -6 110.06 101.95 380.22 <
-2 -16 5 5307.50 6821.08 1326.15 o
2 -16 -5 5307.58 4557.78 1279.36 o
-2 16 5 5307.58 4479.82 1190.59 o
2 16 -5 5307.50 5341.00 1027.48 o
2 -16 -5 5307.58 4363.47 829.68 o
-2 16 5 5307.58 6254.95 989.15 o
-2 -16 4 668.58 966.73 578.24 <
-2 16 4 668.57 876.77 554.60 <
2 16 -4 668.58 -1222.20 1189.06 <
2 16 -4 668.58 -205.10 500.72 <
-2 16 4 668.57 1198.22 649.28 <
2 -16 -4 668.57 1325.35 800.23 <
2 -16 -4 668.57 494.16 413.16 <
-2 -16 4 668.58 432.99 593.00 <
2 16 -4 668.58 -903.16 1084.45 <
-2 -16 3 524.89 395.81 442.89 <
-2 16 3 524.89 2286.09 777.64 <
2 16 -3 524.89 671.67 527.33 <
2 16 -3 524.89 -1084.27 1112.55 <
-2 16 3 524.89 888.77 735.53 <
2 -16 -3 524.89 49.18 509.02 <
2 -16 -3 524.89 39.58 435.93 <
-2 -16 3 524.89 801.21 711.79 <
2 16 -3 524.89 -167.92 748.66 <
-2 -16 2 2903.51 3236.02 759.55 o
2 16 -2 2903.51 2396.43 979.52 <
2 16 -2 2903.51 2734.67 741.57 o
-2 16 2 2903.54 2546.36 871.00 <
-2 16 2 2903.54 1737.95 542.42 o
2 -16 -2 2903.54 3942.48 913.79 o
2 -16 -2 2903.54 2355.65 769.58 o
-2 -16 2 2903.51 3575.46 1031.07 o
-2 16 2 2903.54 2726.27 508.49 o
2 16 -2 2903.51 1490.87 664.96 <
2 16 -1 2580.40 4905.61 1111.70 o
2 -16 -1 2580.40 3212.03 714.51 o
-2 16 1 2580.40 2378.44 866.15 <
2 -16 -1 2580.40 2647.11 720.27 o
-2 -16 1 2580.40 2245.31 684.04 o
2 -16 -1 2580.40 2738.27 684.58 o
2 16 -1 2580.40 1967.04 972.42 <
-2 -16 1 2580.40 2924.17 888.56 o
2 -16 -1 2580.40 2563.15 759.37 o
-2 16 1 2580.40 2107.37 501.71 o
2 16 0 478.32 857.58 721.13 <
2 -16 0 478.32 460.58 459.42 <
2 16 0 478.32 123.54 131.12 <
2 16 0 478.32 1803.92 841.65 <
-2 -16 0 478.32 871.97 576.91 <
2 -16 0 478.32 291.46 490.88 <
-2 16 0 478.32 1248.59 844.62 <
2 -16 0 478.32 213.50 409.47 <
-2 -16 0 478.32 770.03 634.95 <
2 -16 0 478.32 743.64 435.63 <
2 -16 0 478.32 -47.98 456.17 <
2 16 1 592.83 1020.70 654.70 <
2 -16 1 592.83 110.35 337.97 <
-2 -16 -1 592.83 416.20 483.78 <
2 -16 1 592.83 333.44 398.86 <
-2 16 -1 592.83 874.37 675.69 <
-2 -16 -1 592.83 460.58 625.15 <
2 -16 1 592.83 639.29 528.81 <
2 -16 1 592.83 532.54 481.13 <
2 -16 1 592.83 506.15 439.24 <
2 16 1 592.83 1295.37 813.41 <
2 -16 2 1821.40 2028.21 630.55 o
2 16 2 1821.43 2211.72 799.97 <
-2 16 -2 1821.40 1296.57 803.52 <
-2 16 -2 1821.40 1205.41 523.35 <
2 -16 2 1821.40 935.54 610.01 <
-2 -16 -2 1821.43 2223.72 1057.18 <
2 -16 2 1821.40 1639.60 660.80 <
2 -16 2 1821.40 1198.22 724.95 <
-2 -16 -2 1821.43 1505.27 532.44 <
-2 16 -3 11.21 -622.50 472.30 <
2 -16 3 11.21 437.79 522.37 <
-2 -16 -3 11.21 227.89 780.72 <
2 -16 3 11.21 -712.45 481.47 <
2 16 3 11.21 77.96 515.73 <
-2 16 -3 11.21 -338.23 616.17 <
-2 -16 -3 11.21 -197.90 320.02 <
2 -16 3 11.21 225.49 565.98 <
2 -16 4 5045.49 6518.82 1063.21 o
2 16 4 5045.41 5505.32 1183.64 o
-2 16 -4 5045.49 5241.44 972.62 o
-2 -16 -4 5045.41 6615.97 1734.36 o
2 -16 4 5045.49 2054.60 851.33 <
-2 16 -4 5045.49 5266.63 1663.13 o
-2 16 -5 206.81 -515.75 576.15 <
2 -16 5 206.81 -173.91 498.92 <
-2 -16 -5 206.80 -1535.25 1126.12 <
-2 16 -5 206.81 410.20 1003.74 <
2 -16 5 206.81 1547.25 932.96 <
2 16 5 206.80 -87.56 658.51 <
2 -16 6 227.56 436.59 623.40 <
-2 16 -6 227.56 568.52 701.13 <
2 -16 6 227.56 1543.65 961.91 <
2 16 6 227.56 -540.94 809.01 <
-2 17 7 1723.74 1538.85 1017.80 <
-2 17 6 2110.36 2064.19 705.58 <
-2 -17 6 2110.36 2493.58 863.46 <
2 17 -6 2110.36 2248.90 841.12 <
-2 17 6 2110.36 2864.20 1126.86 <
2 -17 -6 2110.36 202.70 752.36 <
2 -17 -6 2110.36 2254.90 712.58 o
-2 -17 5 7777.58 8418.70 1277.13 o
-2 17 5 7777.65 8162.02 1151.01 o
2 17 -5 7777.58 8446.28 1839.94 o
2 17 -5 7777.58 6732.32 1205.84 o
-2 17 5 7777.65 8273.57 1622.87 o
2 -17 -5 7777.65 7679.86 1562.80 o
2 -17 -5 7777.65 6665.15 1049.55 o
-2 -17 4 2486.68 2970.95 826.05 o
-2 17 4 2486.68 2702.28 747.82 o
2 17 -4 2486.68 723.25 922.39 <
2 17 -4 2486.68 2319.67 1237.37 <
2 17 -4 2486.68 1462.09 586.92 <
-2 17 4 2486.68 2452.80 1008.91 <
2 -17 -4 2486.68 3958.07 1127.44 o
2 -17 -4 2486.68 2560.75 734.63 o
-2 -17 4 2486.68 2621.92 997.08 <
2 -17 -3 18871.50 17486.30 1668.56 o
2 17 -3 18871.40 19566.10 1808.98 o
2 -17 -3 18871.50 18709.70 1981.52 o
-2 -17 3 18871.40 19202.60 2299.89 o
-2 17 3 18871.50 21980.50 1825.79 o
2 17 -3 18871.40 18261.10 2711.08 o
2 17 -3 18871.40 18287.50 2273.52 o
-2 -17 3 18871.40 21186.50 1762.28 o
-2 17 3 18871.50 18981.90 2209.45 o
2 17 -2 853.53 674.07 588.25 <
-2 17 2 853.53 -405.40 762.01 <
2 17 -2 853.53 1692.38 634.82 <
-2 -17 2 853.53 788.02 601.12 <
-2 17 2 853.53 1348.14 709.28 <
2 -17 -2 853.53 1230.60 648.54 <
-2 -17 2 853.53 1044.69 663.80 <
2 -17 -2 853.53 982.32 638.83 <
2 17 -2 853.53 796.41 836.13 <
-2 17 2 853.53 1520.86 401.45 o
2 -17 -1 10049.20 8514.65 1198.69 o
2 17 -1 10049.20 10422.90 1813.23 o
-2 17 1 10049.20 9824.41 1499.24 o
2 -17 -1 10049.20 10015.10 1281.62 o
2 -17 -1 10049.20 8616.60 1105.72 o
-2 -17 1 10049.20 10589.60 1684.38 o
2 -17 -1 10049.20 9014.80 1237.53 o
-2 17 1 10049.20 8723.35 933.73 o
2 17 -1 10049.20 13522.20 1646.52 o
-2 -17 1 10049.20 10805.50 1287.77 o
-2 17 1 10049.20 9502.97 1643.74 o
2 -17 0 25974.90 22704.90 1966.08 o
2 -17 0 25974.90 26351.20 2064.75 o
-2 -17 0 25974.80 30420.80 2753.04 o
2 -17 0 25974.90 25294.50 2125.87 o
2 -17 0 25974.90 22567.00 1801.04 o
-2 -17 0 25974.80 25367.60 2148.77 o
-2 17 0 25974.90 24448.90 2629.33 o
2 17 0 25974.80 27308.30 2599.86 o
2 17 0 25974.80 28258.20 2253.77 o
2 -17 1 223.71 284.26 392.11 <
2 -17 1 223.71 762.83 501.05 <
-2 -17 -1 223.72 1005.11 789.85 <
-2 17 -1 223.71 1159.83 884.22 <
2 -17 1 223.71 869.58 595.61 <
2 17 1 223.72 99.55 512.23 <
2 -17 1 223.71 985.92 598.67 <
2 17 1 223.72 1284.57 754.90 <
2 -17 1 223.71 533.74 499.52 <
2 -17 2 23050.70 18222.70 2090.80 o
2 17 2 23050.60 22695.30 2160.77 o
-2 17 -2 23050.70 24986.20 1783.59 o
-2 -17 -2 23050.60 28057.90 2936.85 o
2 -17 2 23050.70 21683.00 1994.22 o
2 -17 2 23050.70 20629.90 2214.72 o
-2 -17 -2 23050.60 21289.60 1613.98 o
2 -17 2 23050.70 29553.60 1825.41 o
-2 17 -2 23050.70 21705.80 2613.45 o
2 17 2 23050.60 26842.90 2199.46 o
2 -17 3 1508.82 1343.35 630.57 <
2 17 3 1508.76 2408.43 814.83 <
-2 17 -3 1508.82 1788.33 659.16 <
-2 17 -3 1508.82 1043.49 928.59 <
2 -17 3 1508.82 650.08 617.23 <
-2 -17 -3 1508.76 1771.54 1139.71 <
-2 -17 -3 1508.76 1505.27 506.18 <
2 -17 3 1508.82 1992.23 800.96 <
2 -17 3 1508.82 1218.61 644.31 <
-2 -17 -4 2073.44 4614.15 1583.18 <
2 -17 4 2073.48 2769.45 835.73 o
-2 17 -4 2073.48 2472.00 737.01 o
2 17 4 2073.44 2613.53 933.37 <
2 -17 4 2073.48 1432.10 921.51 <
-2 17 -4 2073.48 2952.96 1423.37 <
2 -17 5 4.88 -403.00 619.63 <
2 17 5 4.88 -502.55 695.01 <
-2 17 -5 4.88 273.47 619.91 <
-2 -17 -5 4.88 -784.42 1049.63 <
2 -17 5 4.88 777.22 933.31 <
2 -17 6 3732.35 4380.26 1200.03 o
-2 17 -6 3732.35 3415.93 1037.68 o
-2 18 7 23543.00 23943.90 2972.85 o
-2 18 6 2620.76 1891.48 1123.58 <
2 -18 -6 2620.76 1310.96 985.51 <
2 18 -6 2620.77 755.63 1023.15 <
-2 18 5 19645.90 21985.30 2560.24 o
2 18 -5 19646.00 22847.70 2075.00 o
-2 -18 5 19646.00 20015.80 2639.23 o
-2 18 5 19645.90 22673.70 1889.06 o
2 18 -5 19646.00 20955.00 2714.62 o
2 -18 -5 19645.90 17994.80 1730.58 o
-2 -18 5 19646.00 23618.90 2055.61 o
2 -18 -5 19645.90 21127.70 2459.13 o
-2 -18 4 3576.58 4788.07 965.61 o
-2 18 4 3576.57 4948.79 1010.97 o
2 18 -4 3576.58 1630.01 1015.65 <
2 18 -4 3576.58 2540.36 784.03 o
-2 18 4 3576.57 4062.42 1220.88 o
2 -18 -4 3576.57 5969.49 1311.29 o
2 -18 -4 3576.57 3597.05 823.78 o
-2 -18 4 3576.58 3242.02 1034.10 o
2 18 -4 3576.58 3645.02 1398.09 <
2 18 -3 212.36 -1049.49 1068.06 <
-2 18 3 212.34 47.98 746.09 <
2 18 -3 212.36 -466.57 569.10 <
2 -18 -3 212.34 -1.20 524.21 <
-2 18 3 212.34 2732.27 935.38 <
2 -18 -3 212.34 361.02 492.73 <
-2 -18 3 212.36 239.88 584.09 <
-2 -18 3 212.36 666.88 625.20 <
2 18 -3 212.36 -353.83 796.17 <
2 18 -2 26088.50 27139.20 3125.73 o
-2 -18 2 26088.50 29168.60 2678.48 o
-2 18 2 26088.60 26344.00 2645.83 o
2 -18 -2 26088.60 31180.00 2381.62 o
2 -18 -2 26088.60 24513.70 2077.87 o
2 18 -2 26088.50 30835.80 2562.15 o
-2 -18 2 26088.50 31457.10 2043.30 o
-2 18 2 26088.60 22008.10 2188.20 o
2 -18 -1 17132.30 14642.50 1612.82 o
2 18 -1 17132.30 15778.30 2262.74 o
2 -18 -1 17132.30 17812.50 1784.30 o
2 18 -1 17132.30 20105.80 2028.00 o
2 -18 -1 17132.30 14006.80 1429.42 o
-2 -18 1 17132.30 18521.40 2203.76 o
-2 -18 1 17132.30 18684.50 1708.38 o
2 -18 -1 17132.30 15218.20 1675.26 o
-2 18 1 17132.30 15333.30 1906.32 o
-2 18 1 17132.30 15869.50 2137.79 o
2 -18 0 14163.10 12814.60 1363.21 o
2 -18 0 14163.10 14367.80 1513.83 o
2 18 0 14163.00 16821.80 1822.11 o
2 18 0 14163.00 15040.70 2084.12 o
2 -18 0 14163.10 13180.40 1618.62 o
-2 -18 0 14163.00 17179.20 2229.37 o
-2 18 0 14163.10 14160.30 2060.64 o
2 -18 0 14163.10 12010.90 1445.92 o
2 -18 1 8021.23 8529.04 1233.16 o
2 -18 1 8021.23 7953.32 1005.20 o
2 18 1 8021.31 8400.71 1336.52 o
-2 -18 -1 8021.31 8424.69 1613.04 o
2 -18 1 8021.23 5690.03 1107.83 o
-2 -18 -1 8021.31 8021.69 1134.64 o
-2 18 -1 8021.23 8283.16 1654.48 o
2 -18 1 8021.23 7323.63 1311.05 o
2 18 1 8021.31 8554.23 1505.36 o
2 -18 2 3165.12 2788.64 853.48 o
2 18 2 3165.15 3483.10 973.68 o
2 -18 2 3165.12 4131.99 899.38 o
-2 18 -2 3165.12 1667.19 624.30 <
-2 -18 -2 3165.15 2914.58 1145.82 <
-2 18 -2 3165.12 2436.01 1018.12 <
2 -18 2 3165.12 3021.33 836.06 o
2 -18 2 3165.12 4241.13 1076.19 o
-2 -18 -2 3165.15 2518.77 664.89 o
2 18 2 3165.15 4257.92 1097.80 o
2 -18 3 98.35 310.65 545.51 <
-2 18 -3 98.35 -321.44 522.60 <
2 -18 3 98.35 81.56 585.32 <
-2 -18 -3 98.34 -417.40 967.61 <
2 18 3 98.34 435.39 642.48 <
-2 -18 -3 98.34 217.09 376.48 <
2 -18 3 98.35 722.05 712.57 <
-2 18 -3 98.35 -1002.71 758.06 <
2 -18 3 98.35 299.85 636.71 <
-2 18 -4 29703.00 28351.80 3513.39 o
-2 18 -4 29703.00 35010.90 2247.71 o
2 -18 4 29703.00 20512.40 2560.33 o
2 18 4 29703.10 37624.50 2737.95 o
-2 -18 -4 29703.10 35117.70 3879.22 o
2 -18 4 29703.00 38466.40 2334.23 o
2 -18 4 29703.00 23107.90 2887.67 o
-2 18 -5 2567.82 2102.57 846.17 <
2 -18 5 2567.82 3450.72 1034.65 o
-2 19 6 2296.59 2937.37 1400.33 <
2 -19 -5 15586.70 15973.80 2257.99 o
2 19 -5 15586.70 14841.60 2410.05 o
-2 19 5 15586.70 19245.80 1809.62 o
-2 -19 5 15586.70 15901.80 2405.86 o
-2 19 5 15586.70 17649.40 2398.86 o
2 -19 -5 15586.70 14294.60 1590.61 o
2 -19 -4 28313.20 35688.60 2742.69 o
-2 19 4 28313.20 30359.60 2247.33 o
2 19 -4 28313.30 25452.80 3534.77 o
-2 -19 4 28313.30 29077.40 3071.33 o
2 -19 -4 28313.20 25571.50 2153.88 o
-2 19 4 28313.20 31057.70 3028.43 o
-2 -19 4 28313.30 33285.00 2368.03 o
2 19 -4 28313.30 28839.90 2337.81 o
2 19 -4 28313.30 26699.00 3019.30 o
2 -19 -3 25135.70 25557.10 2426.64 o
-2 -19 3 25135.70 26365.50 2787.68 o
-2 19 3 25135.70 29335.30 2142.90 o
2 -19 -3 25135.70 24008.70 2072.28 o
2 19 -3 25135.70 27548.20 2190.10 o
2 19 -3 25135.70 23442.60 3266.03 o
2 19 -3 25135.70 20606.00 2530.48 o
-2 -19 3 25135.70 27049.20 2172.17 o
-2 19 3 25135.70 26953.30 2761.73 o
-2 19 2 6678.38 3871.71 907.20 o
-2 -19 2 6678.32 7931.73 1214.53 o
-2 19 2 6678.38 7916.14 1543.67 o
-2 -19 2 6678.32 7255.26 1461.41 o
2 -19 -2 6678.38 6284.94 1120.87 o
2 19 -2 6678.32 9475.38 1694.85 o
2 -19 -2 6678.38 9217.51 1685.16 o
2 19 -2 6678.32 5922.71 1775.46 o
2 -19 -1 0.22 19.19 435.39 <
2 19 -1 0.22 2149.35 1025.51 <
2 -19 -1 0.22 824.00 685.68 <
-2 19 1 0.22 219.49 621.17 <
-2 -19 1 0.22 -57.57 633.28 <
2 -19 -1 0.22 490.56 515.00 <
2 19 -1 0.22 375.42 881.31 <
-2 19 1 0.22 -1908.27 1136.09 <
2 -19 0 10873.40 9886.78 1261.91 o
2 -19 0 10873.40 9810.02 1226.74 o
2 -19 0 10873.40 12321.60 1417.76 o
-2 -19 0 10873.40 13565.40 2008.25 o
2 -19 0 10873.40 11028.60 1538.59 o
2 19 0 10873.40 13488.60 1676.98 o
2 19 0 10873.40 12290.40 1980.43 o
-2 19 0 10873.40 13185.20 2045.18 o
2 19 1 21844.20 24083.10 2247.77 o
-2 -19 -1 21844.20 24989.80 2833.50 o
2 -19 1 21844.40 21059.30 2007.54 o
2 19 1 21844.20 23236.30 2475.03 o
2 -19 1 21844.40 20351.70 2142.52 o
-2 -19 -1 21844.20 18357.10 1756.78 o
-2 19 -1 21844.40 20208.90 2684.82 o
2 -19 1 21844.40 19053.90 1929.74 o
-2 19 -2 28128.10 23623.70 3100.61 o
2 -19 2 28128.10 26940.10 2556.64 o
-2 -19 -2 28128.00 24171.80 1960.33 o
-2 -19 -2 28128.00 36648.10 3448.89 o
2 -19 2 28128.10 23423.40 2356.28 o
2 19 2 28128.00 31106.80 2547.15 o
2 -19 2 28128.10 32944.30 2166.89 o
-2 19 -3 11075.90 11022.60 1369.56 o
2 -19 3 11075.90 8443.88 1586.01 o
-2 -19 -3 11075.80 13632.60 2370.78 o
2 -19 3 11075.90 9890.38 1704.83 o
-2 19 -3 11075.90 9615.71 2124.11 o
2 19 3 11075.80 12211.20 1703.54 o
2 -19 3 11075.90 14061.90 1560.31 o
-2 19 -4 2230.99 1612.01 722.20 <
2 -19 4 2230.99 3120.88 943.57 o
2 -19 4 2230.99 2428.82 1070.03 <
2 -19 5 1037.17 1163.43 839.19 <
-2 20 6 25266.20 27413.80 3091.07 o
-2 20 5 1966.10 2413.22 839.10 <
2 -20 -5 1966.10 1699.57 716.45 <
-2 -20 5 1966.12 2133.76 1201.12 <
-2 20 5 1966.10 3179.65 1327.68 <
-2 20 4 5562.53 5797.97 1142.62 o
-2 20 4 5562.53 6662.75 1546.13 o
2 -20 -4 5562.53 6750.31 1198.79 o
-2 -20 4 5562.57 5129.90 1517.28 o
2 20 -4 5562.57 3673.81 1649.07 <
2 20 -3 9571.95 6335.31 1477.60 o
2 20 -3 9571.95 8166.82 1322.37 o
-2 20 3 9571.97 10783.90 1908.10 o
-2 20 3 9571.97 12248.40 1567.34 o
2 -20 -3 9571.97 9458.59 1365.63 o
-2 -20 3 9571.95 10251.40 1785.19 o
2 20 -3 9571.95 7982.11 1927.59 o
-2 -20 3 9571.95 10636.40 1424.58 o
2 20 -2 13152.20 17457.50 2123.13 o
-2 -20 2 13152.20 16326.40 2149.89 o
-2 20 2 13152.10 9841.20 1543.49 o
2 -20 -2 13152.10 12267.60 1628.47 o
-2 20 2 13152.10 13297.90 2091.96 o
2 20 -2 13152.20 14335.40 2474.04 o
-2 -20 2 13152.20 14510.50 1615.07 o
2 -20 -1 32575.70 27551.80 2311.96 o
2 20 -1 32575.80 34639.10 3500.16 o
2 20 -1 32575.80 37630.50 2812.78 o
-2 -20 1 32575.80 39024.20 3264.77 o
2 -20 -1 32575.70 31978.80 2544.15 o
-2 20 1 32575.70 33724.00 3275.26 o
-2 20 1 32575.70 27672.90 2744.59 o
-2 20 0 21090.50 20312.10 2691.41 o
2 20 0 21090.70 22894.40 2261.80 o
2 20 0 21090.70 21668.60 2667.15 o
-2 20 0 21090.50 20985.00 2444.19 o
2 -20 0 21090.50 20757.10 2157.11 o
-2 -20 0 21090.70 19077.90 1954.12 o
-2 -20 0 21090.70 25040.20 2764.84 o
2 20 1 1200.41 1316.96 872.77 <
-2 -20 -1 1200.41 1125.05 885.40 <
-2 20 -1 1200.38 1832.71 1197.36 <
2 -20 1 1200.38 1452.49 652.41 <
2 -20 1 1200.38 1247.39 853.82 <
-2 -20 -1 1200.41 343.03 470.53 <
2 20 1 1200.41 1045.89 945.57 <
2 20 2 38.62 925.95 757.46 <
2 -20 2 38.62 261.47 514.35 <
-2 -20 -2 38.62 1424.91 1441.88 <
2 -20 2 38.62 843.19 538.88 <
-2 20 -2 38.62 -418.60 1113.97 <
-2 -20 -2 38.62 -219.49 432.79 <
2 -20 3 23196.50 27924.80 2139.85 o
-2 -20 -3 23196.40 30501.10 3514.92 o
-2 20 -3 23196.50 25081.00 2059.14 o
2 -20 3 23196.50 18469.80 2374.28 o
2 -20 4 5620.57 6659.15 1275.90 o
-2 20 -4 5620.57 5849.55 1167.92 o
2 -20 4 5620.57 5114.31 1370.82 o
-2 21 5 953.81 3128.07 1335.18 <
-2 21 4 7366.19 9182.72 1804.91 o
2 -21 -4 7366.19 7598.30 1293.33 o
-2 -21 4 7366.22 7874.16 1797.50 o
-2 21 4 7366.19 7098.14 1289.36 o
-2 21 3 154.54 2545.16 1018.09 <
2 -21 -3 154.54 594.91 655.36 <
-2 -21 3 154.54 -525.34 829.42 <
-2 21 3 154.54 47.98 750.86 <
2 21 -3 154.54 633.29 1072.97 <
-2 -21 2 9718.58 11930.60 2012.09 o
2 -21 -2 9718.53 9010.01 1475.18 o
2 21 -2 9718.58 12163.30 2245.84 o
-2 21 2 9718.53 9681.68 1951.89 o
-2 21 2 9718.53 12127.30 1693.73 o
-2 21 1 5441.06 3521.48 935.87 o
-2 21 1 5441.06 6647.16 1603.18 o
-2 -21 1 5441.04 6699.93 1597.78 o
2 -21 -1 5441.06 5862.74 1300.52 o
2 21 -1 5441.04 6992.59 1707.09 o
2 21 0 725.35 1495.67 1282.79 <
-2 21 0 725.35 -2191.33 1246.81 <
-2 -21 0 725.35 1809.92 973.66 <
-2 21 0 725.35 -203.90 744.10 <
2 -21 0 725.35 1143.04 786.74 <
-2 -21 0 725.35 609.30 567.64 <
-2 -21 -1 14345.60 14280.20 1642.17 o
-2 -21 -1 14345.60 20552.00 2663.21 o
-2 -21 -2 159.06 976.32 1206.67 <
2 -21 3 4616.86 4862.43 1099.70 o
2 -21 3 4616.86 4013.24 1112.56 o
-2 22 3 16.76 -1770.34 1162.19 <
2 22 -3 16.77 -1218.61 1302.91 <
-2 22 2 2519.49 6109.82 2073.87 <
-2 22 2 2519.49 3110.08 1313.82 <
-2 -22 2 2519.50 2810.23 1256.68 <
2 22 -2 2519.50 3152.06 1471.05 <
-2 -22 1 1304.70 1200.61 917.89 <
2 22 -1 1304.70 1596.42 1085.70 <
-2 -22 0 832.54 141.53 917.03 <
-2 -22 0 832.54 507.35 699.95 <
2 22 0 832.54 1346.94 1275.04 <
-2 -22 -1 725.80 1170.63 658.02 <
2 23 -2 4066.08 2723.87 1324.69 <
2 23 -1 770.35 1122.65 1492.70 <
-3 0 10 14033.50 17421.50 2136.19 o
3 0 -10 14033.50 17639.80 1970.48 o
3 0 -9 6549.74 8404.30 1423.55 o
-3 0 9 6549.74 7912.54 1599.23 o
3 0 -8 4302.88 4188.36 520.38 o
-3 0 8 4302.88 4519.40 1151.83 o
3 0 -8 4302.88 4828.85 1001.66 o
-3 0 7 45678.00 45126.80 2547.21 o
3 0 -7 45678.00 37907.50 1748.58 o
3 0 -7 45678.00 38386.10 2702.68 o
-3 0 7 45678.00 45429.10 2907.16 o
-3 0 6 1197.15 -142.73 597.97 <
-3 0 6 1197.15 963.13 562.37 <
-3 0 6 1197.15 1662.39 460.53 o
3 0 -6 1197.15 696.86 406.76 <
-3 0 5 48631.60 49459.10 1915.51 o
-3 0 5 48631.60 42556.50 2583.67 o
3 0 -5 48631.60 46943.90 2199.09 o
-3 0 5 48631.60 47468.10 2533.70 o
-3 0 4 30.83 -449.78 506.64 <
-3 0 4 30.83 158.32 311.73 <
3 0 -4 30.83 201.50 270.85 <
-3 0 4 30.83 698.06 356.49 <
-3 0 3 766.66 290.26 313.49 <
3 0 -3 766.66 1478.88 390.41 o
-3 0 3 766.66 912.76 342.15 <
3 0 -3 766.66 725.65 322.87 <
-3 0 3 766.66 1279.78 482.94 <
3 0 -3 766.66 1614.41 239.62 o
3 0 -3 766.66 640.49 371.18 <
-3 0 2 2630.86 2872.60 460.67 o
3 0 -2 2630.86 2292.08 414.94 o
3 0 -2 2630.86 2597.93 295.75 o
3 0 -2 2630.86 3503.49 387.20 o
-3 0 2 2630.86 2648.31 325.90 o
3 0 -2 2630.86 2166.14 317.70 o
-3 0 2 2630.86 2833.02 335.46 o
-3 0 2 2630.86 2729.87 571.00 o
3 0 -2 2630.86 2801.83 462.95 o
-3 0 2 2630.86 2591.94 331.77 o
-3 0 2 2630.86 2428.82 484.67 o
-3 0 1 28155.70 30989.30 1512.45 o
-3 0 1 28155.70 31954.80 1168.82 o
3 0 -1 28155.70 30934.10 1415.95 o
-3 0 1 28155.70 28869.90 1308.76 o
-3 0 1 28155.70 32158.70 1098.11 o
-3 0 1 28155.70 31024.10 1356.84 o
-3 0 1 28155.70 31442.70 1075.15 o
3 0 -1 28155.70 29731.10 1128.24 o
3 0 -1 28155.70 30844.20 1282.14 o
-3 0 1 28155.70 27604.50 713.22 o
3 0 -1 28155.70 29878.60 621.45 o
3 0 0 21142.60 22009.30 1337.57 o
-3 0 0 21142.60 20680.30 1264.60 o
3 0 0 21142.60 22535.80 1141.28 o
-3 0 0 21142.60 21827.00 979.12 o
3 0 0 21142.60 16190.90 801.09 o
-3 0 0 21142.60 21080.90 1306.16 o
-3 0 0 21142.60 23125.90 1397.13 o
3 0 0 21142.60 20615.60 1282.46 o
-3 0 0 21142.60 22184.40 1099.24 o
-3 0 0 21142.60 18184.30 893.74 o
-3 0 0 21142.60 21077.30 1309.89 o
-3 0 0 21142.60 20457.20 1208.71 o
3 0 1 96989.60 96443.80 3064.12 o
-3 0 -1 96989.60 96706.50 3164.52 o
3 0 1 96989.60 103093.00 2461.54 o
3 0 1 96989.60 105786.00 2398.36 o
3 0 1 96989.60 101147.00 1792.66 o
-3 0 -1 96989.60 101157.00 1501.68 o
-3 0 -1 96989.60 104494.00 1520.80 o
3 0 1 96989.60 104095.00 2480.13 o
-3 0 -1 96989.60 95804.50 3265.73 o
3 0 2 17661.10 15651.20 1134.35 o
-3 0 -2 17661.10 17710.60 1555.49 o
3 0 2 17661.10 17040.10 1492.60 o
3 0 2 17661.10 16296.50 941.75 o
-3 0 -2 17661.10 17393.90 1087.43 o
-3 0 -2 17661.10 16216.10 838.59 o
3 0 2 17661.10 16887.80 1447.07 o
3 0 2 17661.10 15067.10 1444.89 o
3 0 2 17661.10 17770.50 1040.22 o
3 0 3 72038.90 80128.10 2147.15 o
-3 0 -3 72038.90 68712.10 2678.14 o
3 0 3 72038.90 74603.60 2226.29 o
-3 0 -3 72038.90 70766.70 3561.46 o
3 0 3 72038.90 75811.40 3432.09 o
-3 0 -3 72038.90 71967.30 3256.62 o
-3 0 -3 72038.90 75442.00 2649.03 o
3 0 3 72038.90 63284.70 2345.57 o
3 0 3 72038.90 77610.60 2924.87 o
3 0 4 606.73 1248.59 541.60 <
3 0 4 606.73 1283.37 477.38 <
-3 0 -4 606.73 -128.34 622.92 <
-3 0 -4 606.73 327.44 455.20 <
3 0 4 606.73 609.30 617.69 <
3 0 4 606.73 245.88 187.61 <
-3 0 -4 606.73 -485.76 621.09 <
3 0 5 12778.40 15653.60 1468.97 o
3 0 5 12778.40 13699.70 1297.94 o
-3 0 -5 12778.40 13309.90 1501.35 o
3 0 5 12778.40 12384.00 1331.88 o
3 0 6 1722.00 2114.57 761.58 <
-3 0 -6 1722.00 2978.15 863.08 o
3 0 6 1722.00 973.92 606.93 <
3 0 6 1722.00 2005.42 589.11 o
3 0 7 2825.63 6241.76 1235.57 o
3 0 7 2825.63 3021.33 693.66 o
-3 0 -7 2825.63 6947.01 1347.41 o
3 0 8 3130.98 2635.12 890.12 <
-3 0 -8 3130.98 4201.55 1116.24 o
3 0 9 11155.10 13206.80 1810.96 o
-3 -1 10 345.40 2991.34 1263.22 <
-3 1 10 345.40 3210.83 1439.36 <
3 1 -10 345.40 2657.90 1122.96 <
3 -1 -10 345.40 4356.28 1280.06 o
-3 -1 9 6149.06 6589.59 1430.95 o
-3 1 9 6149.06 8162.02 1560.20 o
3 1 -9 6149.06 6887.04 1270.55 o
3 -1 -9 6149.06 7681.06 1341.83 o
-3 -1 8 3525.79 3761.37 1024.67 o
3 1 -8 3525.79 3051.31 876.16 o
-3 1 8 3525.78 3990.45 804.30 o
-3 1 8 3525.78 3871.71 571.49 o
3 -1 -8 3525.78 5003.96 1074.27 o
-3 1 8 3525.78 4621.35 1171.91 o
3 1 -8 3525.79 1746.35 405.64 o
-3 1 7 16.61 295.06 324.62 <
3 1 -7 16.61 236.29 753.12 <
3 -1 -7 16.61 93.55 604.48 <
-3 1 7 16.61 -262.67 373.89 <
3 -1 -7 16.61 343.03 196.97 <
3 1 -7 16.61 712.45 304.43 <
-3 1 7 16.61 1370.93 1118.79 <
-3 -1 7 16.61 -656.08 520.26 <
-3 -1 6 2732.03 1157.44 449.75 <
3 1 -6 2732.03 2346.06 647.64 o
3 -1 -6 2732.03 2051.00 635.58 o
-3 1 6 2732.03 2648.31 641.33 o
3 1 -6 2732.03 3018.93 346.87 o
-3 -1 6 2732.03 2192.53 789.52 <
-3 1 6 2732.03 2686.69 554.66 o
-3 1 6 2732.03 2400.03 813.27 <
3 1 -5 11788.80 10102.70 1356.36 o
-3 1 5 11788.80 10063.10 1022.75 o
3 1 -5 11788.80 11808.20 1099.36 o
-3 -1 5 11788.80 10267.00 1189.78 o
-3 1 5 11788.80 11155.80 1313.38 o
3 -1 -5 11788.80 9763.24 1047.53 o
-3 1 5 11788.80 9680.48 1249.40 o
-3 1 5 11788.80 9766.84 1118.53 o
3 1 -5 11788.80 8760.53 688.09 o
-3 -1 5 11788.80 8749.73 1100.62 o
3 1 -4 4958.39 5211.46 691.17 o
-3 1 4 4958.40 4255.53 773.88 o
3 1 -4 4958.39 4875.62 663.55 o
3 -1 -4 4958.40 4338.29 650.96 o
3 1 -4 4958.39 4273.52 371.89 o
-3 -1 4 4958.39 3928.09 650.92 o
-3 -1 4 4958.39 4247.13 772.80 o
-3 1 4 4958.40 3716.99 735.38 o
-3 1 4 4958.40 3947.28 616.80 o
3 1 -3 34736.00 34548.00 1663.41 o
-3 1 3 34735.90 38328.50 1640.79 o
3 -1 -3 34735.90 34303.30 1264.02 o
3 -1 -3 34735.90 35994.50 1674.98 o
-3 1 3 34735.90 30398.00 1711.40 o
3 1 -3 34736.00 36928.80 1516.39 o
-3 -1 3 34736.00 34381.20 1394.55 o
3 1 -3 34736.00 34755.50 1031.12 o
-3 -1 3 34736.00 33185.40 1417.95 o
3 1 -3 34736.00 25295.70 1793.86 o
-3 1 3 34735.90 33636.40 1581.07 o
3 1 -2 12543.90 12933.30 966.42 o
-3 1 2 12543.80 12771.40 970.40 o
-3 1 2 12543.80 13399.90 595.65 o
3 1 -2 12543.90 12759.40 667.92 o
-3 -1 2 12543.90 12102.10 672.09 o
-3 1 2 12543.80 12915.30 664.32 o
-3 -1 2 12543.90 12832.50 941.81 o
-3 1 2 12543.80 13272.70 1065.49 o
-3 1 2 12543.80 11979.80 677.26 o
3 -1 -2 12543.80 13537.80 967.07 o
3 1 -2 12543.90 13687.70 706.92 o
3 -1 -2 12543.80 13125.20 662.98 o
-3 1 2 12543.80 13816.10 1037.17 o
3 1 -2 12543.90 12771.40 907.55 o
3 1 -2 12543.90 13209.20 733.90 o
-3 -1 2 12543.90 11787.90 727.53 o
-3 -1 2 12543.90 12441.50 626.21 o
-3 1 1 40338.20 46025.20 1701.31 o
3 1 -1 40338.20 43051.80 900.10 o
-3 -1 1 40338.20 45910.00 1604.37 o
-3 -1 1 40338.20 41161.50 1035.36 o
-3 1 1 40338.20 40399.90 706.44 o
-3 1 1 40338.20 43676.70 1196.30 o
-3 -1 1 40338.20 43919.00 1555.96 o
-3 1 1 40338.20 44979.30 1605.76 o
-3 1 1 40338.20 44779.00 1542.39 o
3 1 -1 40338.20 44530.70 1359.37 o
3 -1 -1 40338.20 44868.90 1316.65 o
-3 -1 1 40338.20 45220.40 1237.26 o
-3 1 1 40338.20 46034.80 1179.73 o
3 1 -1 40338.20 49087.30 840.38 o
-3 -1 1 40338.20 43724.70 1553.07 o
3 -1 -1 40338.20 37769.60 1605.93 o
-3 1 1 40338.20 44420.30 1563.69 o
-3 1 1 40338.20 43817.00 1425.25 o
-3 -1 1 40338.20 43588.00 1237.40 o
-3 -1 1 40338.20 42868.30 1428.99 o
3 1 -1 40338.20 38306.90 1137.50 o
-3 1 1 40338.20 44403.60 1277.70 o
-3 -1 1 40338.20 40902.50 904.08 o
-3 1 1 40338.20 38540.80 861.27 o
-3 -1 0 803.61 466.57 279.94 <
3 1 0 803.61 386.21 165.14 <
-3 -1 0 803.61 784.42 271.20 <
-3 1 0 803.60 740.04 297.85 <
-3 1 0 803.60 450.98 148.41 o
-3 -1 0 803.61 710.05 223.84 o
-3 1 0 803.60 585.32 297.42 <
-3 1 0 803.60 1018.30 471.54 <
-3 1 0 803.60 943.94 389.03 <
-3 1 0 803.60 717.25 393.80 <
-3 -1 0 803.61 695.66 348.38 <
-3 1 0 803.60 699.26 300.47 <
-3 -1 0 803.61 620.10 317.59 <
3 -1 0 803.60 677.67 270.67 <
-3 -1 0 803.61 933.15 291.71 o
-3 1 0 803.60 1193.42 319.54 o
3 -1 0 803.60 873.17 282.56 o
3 1 0 803.61 892.36 331.68 <
3 -1 0 803.60 707.66 351.91 <
3 1 0 803.61 748.43 336.14 <
3 1 0 803.61 1374.53 470.33 <
-3 -1 0 803.61 929.55 327.82 <
3 -1 0 803.60 645.28 356.97 <
-3 -1 -1 5479.79 4821.65 714.10 o
3 1 1 5479.79 6067.84 781.08 o
-3 -1 -1 5479.79 5266.63 816.55 o
3 -1 1 5479.79 5093.92 731.09 o
3 -1 1 5479.79 5177.88 683.29 o
-3 1 -1 5479.79 4199.15 684.38 o
3 -1 1 5479.79 5574.88 569.91 o
-3 -1 -1 5479.79 5576.08 486.74 o
3 -1 1 5479.79 4809.66 767.45 o
-3 1 -1 5479.79 5917.92 538.17 o
3 1 1 5479.79 4870.83 713.33 o
3 1 1 5479.79 5324.20 722.43 o
3 -1 1 5479.79 6426.47 649.43 o
-3 -1 -1 5479.79 5403.37 652.81 o
-3 1 -1 5479.79 5543.70 813.36 o
-3 -1 -1 5479.79 5668.44 527.75 o
-3 1 -1 5479.79 5550.89 657.04 o
3 -1 1 5479.79 5014.76 769.17 o
3 -1 1 5479.79 5536.50 408.36 o
3 -1 2 517.26 105.55 245.66 <
3 1 2 517.26 256.67 361.62 <
3 1 2 517.26 503.75 218.37 <
3 -1 2 517.26 809.60 354.82 <
3 -1 2 517.26 466.57 363.58 <
3 1 2 517.26 401.80 357.77 <
-3 1 -2 517.26 713.65 524.76 <
-3 1 -2 517.26 542.14 383.73 <
-3 -1 -2 517.26 302.25 367.55 <
3 -1 2 517.26 196.70 301.83 <
-3 1 -2 517.26 470.17 337.20 <
3 -1 2 517.26 689.66 278.53 <
-3 -1 -2 517.26 239.88 208.56 <
-3 -1 -2 517.26 381.41 183.07 <
-3 1 -2 517.26 858.78 271.23 o
-3 -1 -3 2517.70 957.13 495.85 <
3 -1 3 2517.70 3009.33 588.03 o
3 1 3 2517.70 1520.86 518.38 <
3 1 3 2517.70 2942.17 475.00 o
3 -1 3 2517.70 3212.03 610.82 o
-3 1 -3 2517.70 1837.50 713.59 <
-3 -1 -3 2517.70 2782.64 826.73 o
-3 1 -3 2517.70 2957.76 644.29 o
3 1 3 2517.70 2619.52 746.39 o
3 -1 3 2517.70 2497.18 384.13 o
-3 1 -3 2517.70 2889.39 642.66 o
-3 1 -3 2517.70 3943.68 813.13 o
-3 -1 -3 2517.70 1758.34 433.14 o
-3 -1 -4 32.68 -708.85 657.10 <
3 -1 4 32.68 816.80 483.61 <
3 1 4 32.68 -51.57 411.39 <
3 -1 4 32.68 2.40 388.61 <
3 1 4 32.68 -58.77 317.83 <
-3 1 -4 32.68 -620.10 442.22 <
-3 -1 -4 32.68 -86.36 586.49 <
-3 1 -4 32.68 41.98 443.78 <
-3 -1 -4 32.68 70.77 440.17 <
3 -1 4 32.68 143.93 558.88 <
3 -1 4 32.68 32.38 205.10 <
3 1 4 32.68 -196.70 580.40 <
-3 1 -4 32.68 1087.87 639.98 <
3 1 4 32.68 134.34 418.54 <
3 1 4 32.68 3.60 337.04 <
-3 -1 -5 15602.10 11691.90 2102.63 o
3 1 5 15602.10 18811.60 1477.89 o
-3 1 -5 15602.10 17298.00 1613.52 o
-3 -1 -5 15602.10 17359.10 1685.71 o
3 -1 5 15602.10 13682.90 851.40 o
3 -1 5 15602.10 19470.10 1537.06 o
3 -1 5 15602.10 15115.00 1550.41 o
3 1 5 15602.10 20032.60 1652.57 o
3 1 5 15602.10 14472.10 1355.40 o
3 -1 6 168.83 -316.65 552.65 <
3 1 6 168.83 813.20 596.96 <
3 1 6 168.83 1097.46 591.95 <
3 -1 6 168.83 153.52 554.14 <
-3 1 -6 168.83 599.71 597.72 <
-3 -1 -6 168.83 575.72 621.81 <
3 -1 6 168.83 28.79 165.67 <
3 1 6 168.83 207.50 398.16 <
3 -1 6 168.83 -1036.29 497.53 <
3 1 7 10537.10 15137.80 1673.26 o
-3 1 -7 10537.10 13335.10 1596.66 o
-3 -1 -7 10537.10 11527.60 1563.90 o
3 1 7 10537.10 11440.00 1219.36 o
3 -1 7 10537.10 11781.90 1497.15 o
3 -1 8 1014.70 -387.41 661.72 <
3 1 8 1014.70 1049.49 784.31 <
-3 1 -8 1014.70 2245.31 914.04 <
-3 -1 -8 1014.70 1656.39 876.64 <
3 -1 9 227.14 2064.19 1045.78 <
3 1 9 227.15 1962.24 1060.86 <
-3 -2 10 1078.69 1947.85 984.81 <
-3 2 10 1078.70 486.96 704.24 <
3 -2 -10 1078.70 1962.24 885.98 <
3 2 -10 1078.69 1119.05 748.29 <
-3 -2 9 66.68 2133.76 1099.36 <
3 2 -9 66.68 -136.73 598.46 <
3 -2 -9 66.67 2740.66 989.59 <
-3 2 9 66.67 2466.00 1161.20 <
3 -2 -8 881.89 717.25 285.33 <
-3 -2 8 881.89 1502.87 836.09 <
-3 2 8 881.89 2608.73 1066.81 <
3 2 -8 881.89 -365.82 556.02 <
3 -2 -8 881.89 1849.50 888.38 <
-3 2 8 881.89 1397.32 558.62 <
3 2 -8 881.89 2079.79 485.51 o
-3 2 8 881.89 1283.37 431.63 <
-3 -2 7 1633.52 278.26 468.08 <
-3 2 7 1633.52 1969.44 829.39 <
3 2 -7 1633.52 1224.60 327.94 o
3 2 -7 1633.52 1260.59 585.04 <
3 -2 -7 1633.52 1872.29 718.22 <
-3 2 7 1633.52 1436.90 505.16 <
-3 2 7 1633.52 1376.93 522.27 <
-3 -2 6 319.66 47.98 400.83 <
-3 2 6 319.65 861.18 623.48 <
3 2 -6 319.66 7.20 543.49 <
-3 2 6 319.65 -284.26 658.38 <
3 2 -6 319.66 1051.89 545.54 <
3 -2 -6 319.65 626.09 561.84 <
-3 -2 6 319.66 -28.79 463.15 <
-3 2 6 319.65 56.37 362.48 <
-3 2 6 319.65 -98.35 410.36 <
-3 2 5 3695.81 3613.84 770.95 o
-3 -2 5 3695.83 3432.73 685.72 o
3 2 -5 3695.83 2250.10 395.37 o
3 2 -5 3695.83 3022.53 760.17 o
3 2 -5 3695.83 4464.22 729.48 o
3 -2 -5 3695.81 2366.45 570.08 o
-3 -2 5 3695.83 3629.43 720.46 o
-3 2 5 3695.81 2573.95 576.46 o
-3 -2 4 237.88 226.69 326.26 <
-3 2 4 237.88 104.35 338.38 <
3 2 -4 237.88 856.38 509.06 <
3 -2 -4 237.88 214.70 259.12 <
-3 -2 4 237.88 148.73 253.23 <
3 2 -4 237.88 652.48 270.38 <
3 2 -4 237.88 220.69 221.93 <
3 2 -4 237.88 -23.99 183.75 <
3 -2 -4 237.88 -151.13 275.88 <
-3 2 3 439.61 833.59 437.47 <
3 2 -3 439.60 690.86 350.39 <
-3 2 3 439.61 652.48 340.96 <
-3 -2 3 439.60 479.77 275.70 <
3 2 -3 439.60 13.19 531.64 <
3 -2 -3 439.61 465.37 250.57 <
3 -2 -3 439.61 452.18 278.22 <
-3 -2 3 439.60 883.97 332.28 <
3 2 -3 439.60 436.59 260.29 <
3 2 -3 439.60 532.54 232.21 <
3 2 -3 439.60 395.81 232.87 <
3 2 -2 1226.59 1430.90 298.83 o
3 2 -2 1226.59 1003.91 255.34 o
-3 2 2 1226.58 1350.54 343.10 o
-3 2 2 1226.58 1117.85 419.32 <
-3 -2 2 1226.59 1057.88 324.04 o
3 2 -2 1226.59 1073.48 274.97 o
-3 -2 2 1226.59 1012.31 243.38 o
3 -2 -2 1226.58 1432.10 243.13 o
-3 -2 2 1226.59 1614.41 380.19 o
-3 2 2 1226.58 1862.69 304.89 o
3 -2 -2 1226.58 952.34 327.15 <
-3 -2 2 1226.59 1859.09 412.58 o
-3 2 2 1226.58 999.11 326.84 o
3 2 -2 1226.59 1800.32 448.46 o
-3 2 2 1226.58 1081.87 390.82 <
3 2 -2 1226.59 1200.61 343.25 o
3 2 -1 2560.82 2602.73 385.54 o
3 2 -1 2560.82 4024.04 624.51 o
-3 2 1 2560.83 2908.58 359.39 o
-3 2 1 2560.83 3430.33 596.01 o
-3 -2 1 2560.82 2498.38 480.55 o
-3 -2 1 2560.82 2625.52 349.07 o
-3 2 1 2560.83 3184.45 488.73 o
-3 2 1 2560.83 2512.78 463.60 o
3 -2 -1 2560.83 2836.62 451.77 o
-3 2 1 2560.83 2931.37 531.46 o
-3 2 1 2560.83 3131.67 461.52 o
-3 2 1 2560.83 2812.63 478.73 o
-3 -2 1 2560.82 2626.72 484.91 o
3 2 -1 2560.82 3028.52 376.54 o
-3 -2 1 2560.82 2780.24 418.80 o
-3 -2 1 2560.82 3086.10 564.46 o
-3 2 1 2560.83 2286.09 444.92 o
3 2 -1 2560.82 2788.64 429.55 o
-3 -2 1 2560.82 2377.24 316.46 o
-3 -2 1 2560.82 2756.26 427.65 o
3 2 -1 2560.82 2495.98 280.86 o
-3 -2 0 1617.60 1573.63 414.20 o
3 2 0 1617.60 1067.48 254.84 o
-3 2 0 1617.58 2119.37 460.29 o
-3 -2 0 1617.60 1387.72 284.71 o
-3 -2 0 1617.60 1369.73 327.69 o
3 2 0 1617.60 1932.26 492.57 o
-3 2 0 1617.58 2043.80 509.55 o
-3 2 0 1617.58 1665.99 178.84 o
-3 -2 0 1617.60 1830.31 448.98 o
-3 2 0 1617.58 1284.57 340.33 o
-3 2 0 1617.58 1537.65 372.62 o
-3 -2 0 1617.60 1754.74 324.51 o
-3 -2 0 1617.60 1874.69 495.54 o
-3 2 0 1617.58 1459.69 415.18 o
3 -2 0 1617.58 1488.47 414.94 o
3 -2 0 1617.58 1743.95 384.87 o
-3 2 0 1617.58 1267.78 404.69 o
-3 2 0 1617.58 1424.91 333.11 o
3 -2 0 1617.58 1562.84 307.73 o
-3 2 0 1617.58 1586.83 458.43 o
3 2 0 1617.60 2216.52 477.33 o
3 2 0 1617.60 1554.44 413.18 o
3 -2 1 11437.90 9579.73 1056.28 o
3 2 1 11437.80 12809.80 1018.71 o
-3 -2 -1 11437.80 13602.60 584.63 o
-3 2 -1 11437.90 14004.40 1081.37 o
-3 -2 -1 11437.80 13185.20 1235.31 o
3 -2 1 11437.90 12753.40 954.41 o
-3 2 -1 11437.90 11520.40 710.46 o
3 2 1 11437.80 12587.90 1114.41 o
3 2 1 11437.80 10576.40 697.46 o
-3 2 -1 11437.90 12950.10 1090.38 o
-3 -2 -1 11437.80 12597.50 646.26 o
3 -2 1 11437.90 13891.60 826.76 o
-3 2 -1 11437.90 11396.80 1076.92 o
-3 2 -1 11437.90 12766.60 746.72 o
3 -2 1 11437.90 13500.60 959.10 o
3 2 1 11437.80 14791.20 1050.22 o
-3 -2 -1 11437.80 13341.10 916.22 o
-3 2 -1 11437.90 12560.30 997.93 o
3 -2 1 11437.90 12735.40 380.05 o
3 -2 2 18.50 543.34 392.23 <
3 -2 2 18.50 -146.33 276.93 <
3 -2 2 18.50 -480.97 324.96 <
3 -2 2 18.50 -161.92 374.09 <
-3 2 -2 18.50 -100.75 435.35 <
3 2 2 18.50 316.65 346.18 <
-3 2 -2 18.50 111.55 285.40 <
-3 -2 -2 18.50 -91.16 406.57 <
3 -2 2 18.50 315.45 408.62 <
-3 2 -2 18.50 334.64 331.71 <
-3 -2 -2 18.50 154.73 149.69 <
-3 -2 -2 18.50 266.27 188.93 <
-3 2 -2 18.50 176.31 215.68 <
3 2 2 18.50 25.19 293.86 <
-3 -2 -3 3256.87 2835.42 734.55 o
-3 2 -3 3256.85 5018.35 857.60 o
3 -2 3 3256.85 3806.94 689.96 o
-3 2 -3 3256.85 3707.39 656.24 o
-3 -2 -3 3256.87 4626.15 999.89 o
3 2 3 3256.87 3268.41 861.08 o
3 -2 3 3256.85 3095.69 478.72 o
-3 2 -3 3256.85 3714.59 720.23 o
3 2 3 3256.87 2759.85 657.81 o
3 2 3 3256.87 3281.60 410.93 o
-3 -2 -4 71.36 -695.66 586.24 <
3 2 4 71.36 -226.69 549.17 <
3 2 4 71.36 328.64 269.31 <
3 -2 4 71.36 653.68 502.48 <
-3 -2 -4 71.36 327.44 607.86 <
-3 2 -4 71.36 -125.94 393.35 <
-3 -2 -4 71.36 189.51 520.46 <
3 -2 4 71.36 -363.42 504.49 <
3 2 4 71.36 -266.27 651.09 <
3 -2 4 71.36 302.25 283.82 <
-3 2 -4 71.36 -80.36 452.16 <
3 -2 4 71.36 -1375.73 625.48 <
3 2 4 71.36 -375.42 509.26 <
-3 2 -4 71.36 1706.77 766.50 <
3 2 5 170.32 -277.07 623.51 <
3 -2 5 170.32 -61.17 532.57 <
3 2 5 170.32 765.23 737.74 <
3 2 5 170.32 1230.60 556.13 <
3 2 5 170.32 1013.51 492.36 <
-3 -2 -5 170.32 -158.32 695.63 <
3 -2 5 170.32 930.75 668.63 <
-3 2 -5 170.32 1922.66 743.30 <
-3 -2 -5 170.32 284.26 551.61 <
3 -2 5 170.32 446.18 306.29 <
3 2 6 590.06 982.32 627.22 <
3 2 6 590.06 742.44 425.20 <
3 2 6 590.06 791.61 516.27 <
3 -2 6 590.06 -295.06 631.09 <
-3 2 -6 590.06 904.36 650.36 <
-3 -2 -6 590.06 567.32 569.78 <
3 -2 6 590.06 726.85 307.52 <
3 -2 6 590.06 -313.05 572.30 <
3 2 7 479.13 3786.55 1090.09 o
3 -2 7 479.13 -610.50 676.95 <
-3 2 -7 479.13 2890.59 968.73 <
-3 -2 -7 479.13 2104.97 931.42 <
3 2 7 479.13 1354.14 558.54 <
3 -2 8 0.87 2067.79 1036.92 <
3 2 8 0.87 2733.47 1067.13 <
-3 2 -8 0.87 2486.39 1019.44 <
-3 -2 -8 0.87 3014.13 1031.90 <
3 -2 9 161.76 260.27 744.77 <
3 -3 -10 1811.22 10766.00 1763.07 o
3 3 -10 1811.21 5764.39 1443.95 o
-3 -3 10 1811.21 10261.00 1893.73 o
-3 3 10 1811.22 8358.73 1833.28 o
-3 3 9 8234.92 10617.20 1705.33 o
-3 -3 9 8234.96 8117.64 1517.58 o
3 -3 -9 8234.92 9667.29 1475.61 o
3 3 -9 8234.96 6498.43 1296.73 o
-3 3 8 9607.61 13524.60 1921.35 o
-3 3 8 9607.61 9110.76 1001.82 o
3 3 -8 9607.60 8531.44 1324.81 o
3 -3 -8 9607.61 13309.90 1633.97 o
-3 3 8 9607.61 10556.10 1184.70 o
-3 -3 8 9607.60 11941.40 1697.92 o
-3 3 7 5657.70 7392.00 1279.39 o
3 -3 -7 5657.70 6073.84 1146.28 o
-3 3 7 5657.70 6562.00 850.14 o
3 3 -7 5657.70 4269.92 949.89 o
-3 3 7 5657.70 6136.21 937.85 o
-3 -3 7 5657.70 5126.30 1076.18 o
3 3 -7 5657.70 5488.52 603.45 o
-3 3 6 42118.40 47056.70 2737.78 o
3 3 -6 42118.40 36109.60 2859.45 o
-3 3 6 42118.40 39891.40 3126.37 o
3 3 -6 42118.40 42895.90 2299.72 o
3 -3 -6 42118.40 39591.50 2412.74 o
-3 -3 6 42118.40 39020.60 2538.19 o
-3 3 6 42118.40 39987.30 2267.09 o
-3 3 6 42118.40 37743.20 2264.70 o
-3 -3 6 42118.40 43593.90 2363.90 o
3 3 -5 5602.65 5066.33 924.88 o
-3 3 5 5602.64 5682.83 993.22 o
3 -3 -5 5602.64 3786.55 733.05 o
3 3 -5 5602.65 6458.85 923.10 o
3 3 -5 5602.65 5534.10 692.18 o
-3 -3 5 5602.65 6022.26 869.99 o
-3 3 5 5602.64 4627.34 1024.88 o
-3 3 5 5602.64 6611.18 870.29 o
-3 -3 5 5602.65 5746.40 824.02 o
-3 3 4 17227.00 15206.20 1523.12 o
-3 -3 4 17226.90 16283.30 1156.82 o
-3 -3 4 17226.90 17655.40 1168.51 o
3 3 -4 17226.90 18309.10 977.73 o
3 -3 -4 17227.00 13241.50 1197.35 o
3 3 -4 17226.90 17449.10 1103.49 o
3 3 -4 17226.90 16796.60 1049.50 o
3 -3 -4 17227.00 15990.60 1204.54 o
-3 3 4 17227.00 16013.40 1405.38 o
-3 3 3 119422.00 105959.00 4198.19 o
-3 -3 3 119422.00 122235.00 2510.03 o
3 -3 -3 119422.00 120341.00 2792.54 o
-3 -3 3 119422.00 117041.00 2829.99 o
3 -3 -3 119422.00 113519.00 3008.29 o
-3 3 3 119422.00 116807.00 3656.19 o
3 3 -3 119422.00 121645.00 2495.58 o
-3 3 3 119422.00 133199.00 2294.98 o
3 3 -3 119422.00 117260.00 2839.26 o
3 3 -3 119422.00 125656.00 1468.03 o
-3 3 3 119422.00 112647.00 2354.02 o
3 3 -3 119422.00 114073.00 3257.52 o
3 3 -3 119422.00 130243.00 1468.47 o
-3 -3 3 119422.00 116500.00 2782.17 o
3 3 -2 3.50 41.98 199.09 <
3 3 -2 3.50 413.80 264.04 <
-3 -3 2 3.50 -265.07 339.06 <
-3 -3 2 3.50 279.46 265.80 <
-3 3 2 3.50 -103.15 358.57 <
3 3 -2 3.50 297.45 253.72 <
3 -3 -2 3.50 272.27 158.78 <
-3 3 2 3.50 316.65 245.23 <
-3 3 2 3.50 94.75 265.02 <
-3 -3 2 3.50 305.85 224.83 <
-3 3 2 3.50 -825.20 625.34 <
3 3 -2 3.50 249.48 229.86 <
3 -3 -2 3.50 -125.94 292.56 <
3 -3 -2 3.50 183.51 204.84 <
-3 3 2 3.50 262.67 218.99 <
-3 3 1 185135.00 205062.00 12091.40 o
3 3 -1 185135.00 208919.00 12089.60 o
-3 -3 1 185135.00 208971.00 11990.70 o
-3 -3 1 185135.00 213566.00 12347.50 o
-3 3 1 185135.00 197093.00 11569.10 o
-3 -3 1 185135.00 214303.00 12509.60 o
3 3 -1 185135.00 201099.00 11945.00 o
-3 -3 1 185135.00 194533.00 1631.07 o
3 -3 -1 185135.00 207458.00 12108.00 o
3 3 -1 185135.00 206698.00 11953.30 o
-3 3 1 185135.00 192572.00 2736.53 o
-3 3 1 185135.00 178828.00 4084.57 o
-3 3 1 185135.00 213997.00 12487.80 o
-3 3 1 185135.00 200385.00 1823.92 o
-3 3 1 185135.00 209701.00 12398.90 o
-3 -3 1 185135.00 203742.00 11799.50 o
-3 -3 1 185135.00 204957.00 12132.80 o
3 3 -1 185135.00 200144.00 11696.60 o
-3 3 0 1190.27 1158.64 380.45 o
-3 -3 0 1190.24 1213.81 392.04 o
-3 -3 0 1190.24 1434.50 316.55 o
3 -3 0 1190.27 1578.43 446.77 o
-3 3 0 1190.27 1278.58 417.96 o
-3 -3 0 1190.24 1396.12 310.95 o
-3 3 0 1190.27 1221.00 420.78 <
3 3 0 1190.24 1078.27 284.12 o
-3 3 0 1190.27 2084.58 374.92 o
-3 -3 0 1190.24 1713.96 423.65 o
3 3 0 1190.24 1556.84 284.66 o
-3 3 0 1190.27 1963.44 573.83 o
-3 -3 0 1190.24 1634.80 560.90 <
3 -3 0 1190.27 1570.03 370.68 o
3 -3 0 1190.27 1536.45 272.77 o
-3 3 0 1190.27 1554.44 387.79 o
3 3 0 1190.24 1733.16 450.11 o
-3 3 0 1190.27 1586.83 417.69 o
3 3 0 1190.24 1482.48 410.24 o
-3 3 -1 5268.82 5180.27 688.87 o
3 -3 1 5268.82 6182.99 627.46 o
-3 -3 -1 5268.78 5905.92 905.59 o
3 -3 1 5268.82 5110.71 617.28 o
-3 3 -1 5268.82 5122.70 407.48 o
3 3 1 5268.78 5275.03 795.11 o
-3 3 -1 5268.82 4096.00 699.56 o
-3 -3 -1 5268.78 5222.25 453.47 o
-3 3 -1 5268.82 5427.35 576.98 o
-3 3 -1 5268.82 5696.02 790.44 o
-3 -3 -1 5268.78 5661.24 343.79 o
-3 3 -1 5268.82 5442.95 738.20 o
-3 -3 -1 5268.78 5728.41 617.41 o
3 3 1 5268.78 4997.96 509.09 o
3 3 1 5268.78 6379.69 782.19 o
3 3 1 5268.78 5733.21 713.39 o
3 -3 1 5268.82 5266.63 305.94 o
-3 3 -1 5268.82 5319.41 794.40 o
3 -3 1 5268.82 6254.95 758.96 o
3 -3 2 1539.96 2084.58 340.60 o
3 -3 2 1539.96 2336.46 562.73 o
-3 3 -2 1539.96 1470.48 476.69 o
3 -3 2 1539.96 1553.24 562.44 <
3 3 2 1539.98 1338.55 438.14 o
-3 -3 -2 1539.98 1486.08 626.41 <
3 -3 2 1539.96 1408.11 545.38 <
-3 3 -2 1539.96 1494.47 480.11 o
-3 -3 -2 1539.98 1580.83 233.23 o
3 -3 2 1539.96 2097.78 439.19 o
3 3 2 1539.98 2702.28 638.85 o
-3 3 -2 1539.96 1420.11 320.36 o
-3 3 -3 42405.70 48729.80 2190.15 o
-3 -3 -3 42405.70 36157.60 2856.64 o
-3 3 -3 42405.70 39074.60 1979.48 o
3 -3 3 42405.70 47060.30 1456.57 o
3 -3 3 42405.70 38835.90 1844.38 o
3 3 3 42405.70 46485.70 2768.94 o
-3 3 -3 42405.70 41425.40 2328.66 o
-3 -3 -3 42405.70 43492.00 2485.94 o
3 3 3 42405.70 43421.20 2194.36 o
3 -3 3 42405.70 46970.30 2211.72 o
3 -3 4 3292.62 2420.42 506.69 o
3 3 4 3292.59 2898.99 415.94 o
3 -3 4 3292.62 3695.40 855.97 o
-3 3 -4 3292.62 3391.95 680.09 o
-3 -3 -4 3292.59 3503.49 1052.64 o
3 -3 4 3292.62 1005.11 713.00 <
3 3 4 3292.59 2421.62 854.65 <
-3 3 -4 3292.62 2996.14 778.85 o
3 -3 4 3292.62 2793.44 503.65 o
3 3 4 3292.59 3250.42 825.60 o
3 3 5 42099.90 43989.80 2665.48 o
-3 3 -5 42100.00 38160.60 2928.57 o
-3 3 -5 42100.00 44725.00 2337.47 o
-3 -3 -5 42099.90 42640.40 2681.82 o
-3 -3 -5 42099.90 35384.00 3388.78 o
3 -3 5 42100.00 37559.70 1896.10 o
3 3 5 42099.90 41249.10 2700.29 o
3 3 5 42099.90 34450.80 1975.66 o
3 -3 5 42100.00 41008.00 2805.96 o
3 -3 5 42100.00 39105.70 2332.73 o
3 3 6 1389.51 2928.97 1009.50 <
-3 -3 -6 1389.51 1253.39 1047.49 <
3 -3 6 1389.51 1767.94 849.83 <
-3 3 -6 1389.51 2573.95 850.33 o
-3 -3 -6 1389.51 3029.72 980.80 o
3 -3 6 1389.51 1823.11 445.88 o
3 3 6 1389.51 2437.21 1015.55 <
3 -3 6 1389.51 2287.28 970.72 <
3 3 7 7156.70 9992.33 1567.21 o
-3 3 -7 7156.71 10619.60 1485.61 o
-3 -3 -7 7156.70 11581.60 1609.01 o
3 3 7 7156.70 7924.54 1122.12 o
3 -3 7 7156.71 11037.00 1534.80 o
-3 -3 -8 11423.30 16160.90 1946.00 o
-3 3 -8 11423.40 16807.40 1813.90 o
3 3 8 11423.30 15879.10 1905.91 o
3 -3 8 11423.40 15213.40 1728.40 o
3 4 -10 41378.90 49463.90 3288.61 o
3 -4 -10 41378.90 51898.70 3041.32 o
-3 4 10 41378.90 55787.20 3384.49 o
-3 -4 10 41378.90 50806.00 3304.60 o
-3 -4 9 4727.99 3755.37 1123.96 o
-3 4 9 4728.00 6725.12 1476.12 o
3 4 -9 4727.99 5005.16 1144.99 o
3 -4 -9 4728.00 5867.54 1274.05 o
3 4 -9 4727.99 3192.84 718.51 o
-3 4 8 40837.60 53286.40 3177.69 o
-3 4 8 40837.60 42870.70 2162.92 o
3 4 -8 40837.60 44770.60 2739.96 o
3 -4 -8 40837.60 47560.40 2666.35 o
-3 4 8 40837.60 48337.60 2120.43 o
3 4 -8 40837.60 34299.70 2312.24 o
-3 -4 8 40837.60 40311.10 2890.35 o
-3 4 7 12482.20 14993.90 1893.72 o
3 -4 -7 12482.20 13950.40 1581.10 o
-3 4 7 12482.20 12555.50 1305.68 o
3 4 -7 12482.20 13468.20 1510.00 o
-3 -4 7 12482.20 12733.00 1545.93 o
-3 -4 6 1406.61 2256.10 681.39 o
-3 4 6 1406.61 2109.77 828.58 <
3 4 -6 1406.61 1306.16 639.79 <
3 4 -6 1406.61 1234.20 435.42 <
3 4 -6 1406.61 2615.92 943.15 <
-3 4 6 1406.61 1501.67 889.59 <
3 -4 -6 1406.61 1740.35 717.83 <
-3 -4 6 1406.61 1638.40 634.32 <
-3 4 6 1406.61 1032.70 442.54 <
3 4 -5 161356.00 155609.00 4940.00 o
-3 -4 5 161356.00 165369.00 6500.84 o
-3 -4 5 161356.00 162658.00 3816.73 o
-3 4 5 161356.00 162403.00 5103.49 o
3 4 -5 161356.00 146770.00 4262.25 o
3 4 -5 161356.00 160135.00 3561.34 o
3 -4 -5 161356.00 154392.00 4436.84 o
-3 4 5 161356.00 161351.00 4121.64 o
3 -4 -5 161356.00 157779.00 4471.17 o
-3 4 5 161356.00 156738.00 5603.35 o
-3 -4 5 161356.00 164070.00 3727.40 o
-3 4 4 68433.60 65271.00 3221.18 o
3 -4 -4 68433.60 60536.90 2806.40 o
3 4 -4 68433.50 63829.30 2669.16 o
-3 -4 4 68433.50 67889.30 2303.42 o
3 -4 -4 68433.60 69238.60 2292.24 o
3 4 -4 68433.50 70083.00 1936.51 o
3 4 -4 68433.50 67425.10 2132.92 o
-3 4 4 68433.60 61279.30 3318.56 o
3 4 -4 68433.50 61795.10 2575.57 o
-3 -4 4 68433.50 65990.60 2388.92 o
-3 -4 3 67336.60 72077.70 1682.75 o
3 -4 -3 67336.70 67738.20 2148.03 o
3 4 -3 67336.60 67404.70 2060.05 o
3 -4 -3 67336.70 56553.60 2569.19 o
-3 4 3 67336.70 68144.80 2622.58 o
3 4 -3 67336.60 71001.80 1652.81 o
3 -4 -3 67336.70 68670.10 2212.29 o
3 4 -3 67336.60 79114.60 1226.23 o
-3 4 3 67336.70 59299.10 2855.05 o
-3 -4 3 67336.60 69865.90 1883.51 o
-3 -4 3 67336.60 65608.00 2058.29 o
3 4 -3 67336.60 65209.80 2300.58 o
-3 4 2 34936.00 40427.50 1378.32 o
-3 4 2 34936.00 37418.20 1810.84 o
3 4 -2 34936.10 36002.80 1356.83 o
3 -4 -2 34936.00 35046.90 1015.16 o
3 -4 -2 34936.00 36383.10 1540.29 o
-3 -4 2 34936.10 37893.10 1418.88 o
-3 -4 2 34936.10 31627.40 1724.40 o
-3 4 2 34936.00 38148.60 1929.73 o
3 4 -2 34936.10 35279.60 1519.89 o
3 4 -2 34936.10 36886.80 1359.33 o
-3 -4 2 34936.10 33184.20 1347.63 o
3 -4 -2 34936.00 37792.40 1480.22 o
3 4 -2 34936.10 34278.10 1336.76 o
-3 4 1 80652.00 82344.70 2365.48 o
3 4 -1 80651.90 87425.40 1489.52 o
3 4 -1 80651.90 88711.20 1227.07 o
-3 -4 1 80651.90 89008.60 1143.07 o
-3 -4 1 80651.90 90578.60 1566.71 o
-3 -4 1 80651.90 86144.40 2609.91 o
3 4 -1 80651.90 83831.90 2038.74 o
3 -4 -1 80652.00 89957.40 1461.78 o
-3 4 1 80652.00 88464.10 2286.12 o
3 -4 -1 80652.00 84798.70 2260.02 o
-3 4 1 80652.00 76016.50 2667.92 o
-3 4 1 80652.00 83722.80 2606.43 o
-3 4 1 80652.00 81779.70 2845.37 o
-3 -4 1 80651.90 80474.80 2262.89 o
-3 4 1 80652.00 86784.90 5130.52 o
-3 -4 1 80651.90 86633.80 1199.58 o
-3 4 1 80652.00 90518.70 1505.83 o
3 4 -1 80651.90 84973.80 1343.16 o
-3 -4 0 19950.00 22752.90 1193.76 o
-3 4 0 19950.10 21009.00 1264.10 o
-3 -4 0 19950.00 20598.80 1042.26 o
3 -4 0 19950.10 19327.40 744.37 o
3 4 0 19950.00 22858.50 1448.98 o
3 -4 0 19950.10 20548.40 1276.27 o
3 -4 0 19950.10 22177.20 1146.69 o
-3 4 0 19950.10 20086.60 1130.05 o
-3 4 0 19950.10 20286.90 1377.13 o
3 -4 0 19950.10 23050.40 1383.10 o
-3 -4 0 19950.00 22057.20 976.96 o
-3 4 0 19950.10 20801.50 1267.51 o
-3 -4 0 19950.00 22227.60 1234.93 o
-3 4 0 19950.10 21501.90 1406.37 o
-3 -4 0 19950.00 22106.40 1541.82 o
3 4 0 19950.00 20880.60 900.27 o
-3 4 0 19950.10 22479.40 1365.47 o
-3 4 0 19950.10 20481.20 442.72 o
3 4 0 19950.00 20867.40 1240.20 o
3 4 1 255013.00 267558.00 1883.55 o
-3 4 -1 255013.00 261703.00 15672.90 o
3 -4 1 255013.00 253670.00 4238.63 o
-3 -4 -1 255013.00 270402.00 4144.83 o
-3 4 -1 255013.00 258124.00 4230.45 o
-3 -4 -1 255013.00 266640.00 554.07 o
3 -4 1 255013.00 286074.00 16518.60 o
-3 4 -1 255013.00 275783.00 16471.20 o
-3 4 -1 255013.00 247383.00 4964.79 o
-3 4 -1 255013.00 262277.00 4500.25 o
3 -4 1 255013.00 278659.00 16619.10 o
3 4 1 255013.00 262974.00 3832.10 o
3 4 1 255013.00 246933.00 4746.95 o
-3 4 -1 255013.00 260760.00 4514.70 o
3 -4 1 255013.00 259778.00 15564.90 o
-3 4 -2 11945.20 13094.00 1148.92 o
3 -4 2 11945.20 13116.80 1269.89 o
-3 -4 -2 11945.10 11195.30 1441.66 o
3 4 2 11945.10 12599.90 1376.06 o
-3 4 -2 11945.20 11825.00 823.37 o
-3 -4 -2 11945.10 11708.70 571.94 o
3 -4 2 11945.20 12160.90 983.17 o
3 4 2 11945.10 11270.90 1036.41 o
-3 -4 -2 11945.10 12177.70 931.92 o
-3 4 -2 11945.20 13415.50 1306.49 o
-3 4 -2 11945.20 12668.20 1055.64 o
3 -4 2 11945.20 12801.40 1241.24 o
3 4 2 11945.10 14045.20 1177.19 o
3 -4 2 11945.20 11744.70 668.24 o
-3 4 -2 11945.20 12259.20 1293.10 o
-3 4 -3 92294.00 89367.20 3655.06 o
-3 -4 -3 92293.80 91890.80 3591.92 o
-3 -4 -3 92293.80 85724.60 4448.15 o
-3 4 -3 92294.00 84260.10 3138.27 o
3 4 3 92293.80 97830.30 3972.90 o
3 -4 3 92294.00 84554.00 3180.88 o
3 4 3 92293.80 84970.20 3549.19 o
-3 4 -3 92294.00 106477.00 2767.20 o
3 4 3 92293.80 96139.10 2926.83 o
3 -4 3 92294.00 100295.00 3209.26 o
3 -4 3 92294.00 95026.10 2096.25 o
-3 4 -4 17048.30 15657.20 1752.15 o
-3 -4 -4 17048.30 18142.40 2032.96 o
-3 4 -4 17048.30 14894.30 1337.93 o
3 -4 4 17048.30 13986.40 1215.82 o
3 -4 4 17048.30 19881.50 1779.76 o
3 4 4 17048.30 17426.30 1585.35 o
3 -4 4 17048.30 12681.40 1850.99 o
3 -4 4 17048.30 17643.40 1261.38 o
-3 -4 -5 4020.83 3258.81 1180.88 <
3 -4 5 4020.85 2686.69 708.75 o
3 4 5 4020.83 3318.78 934.77 o
3 4 5 4020.83 2878.60 439.42 o
3 -4 5 4020.85 3424.33 1001.90 o
-3 4 -5 4020.85 3295.99 779.16 o
3 -4 5 4020.85 1991.03 1104.50 <
-3 4 -5 4020.85 3238.42 963.97 o
3 -4 5 4020.85 2987.74 582.87 o
3 4 6 33004.90 34425.60 2571.29 o
-3 -4 -6 33004.90 23843.20 3211.11 o
-3 4 -6 33005.00 37719.20 2259.32 o
-3 -4 -6 33004.90 36920.40 2564.13 o
3 -4 6 33005.00 32902.40 1721.08 o
3 4 6 33004.90 34713.50 2604.69 o
3 -4 6 33005.00 25181.70 2694.72 o
3 -4 6 33005.00 33330.60 2192.72 o
3 4 7 27750.30 36327.90 2596.81 o
-3 4 -7 27750.20 33592.00 2291.97 o
-3 -4 -7 27750.30 32732.00 2540.86 o
3 -4 7 27750.20 30043.00 2187.24 o
3 4 8 5900.43 12108.10 1757.99 o
-3 4 -8 5900.42 8347.93 1402.09 o
-3 -4 -8 5900.43 10340.20 1683.99 o
3 -4 8 5900.42 6099.03 1343.61 o
3 -5 -10 1400.09 5098.71 1392.07 o
-3 5 9 6998.88 9885.58 1687.31 o
3 5 -9 6998.90 4772.47 846.37 o
3 5 -9 6998.90 8532.64 1927.80 o
3 -5 -9 6998.88 9812.42 1543.69 o
-3 -5 9 6998.90 7108.93 1464.41 o
-3 5 8 26867.00 31886.50 2785.65 o
3 5 -8 26867.00 33125.50 2558.51 o
3 -5 -8 26867.00 31150.00 2299.59 o
-3 5 8 26867.00 31026.50 1849.41 o
3 5 -8 26867.00 25203.30 1521.65 o
-3 -5 8 26867.00 24859.10 2329.90 o
3 -5 -7 57781.70 64560.90 2868.50 o
-3 5 7 57781.70 59880.80 2580.84 o
-3 -5 7 57781.60 58837.30 3029.17 o
3 5 -7 57781.60 64486.60 3116.78 o
-3 5 7 57781.70 66885.40 3504.81 o
3 5 -6 83725.90 77958.40 2878.66 o
-3 -5 6 83725.90 88897.10 2979.00 o
-3 5 6 83725.90 86011.30 4193.44 o
-3 -5 6 83725.90 78506.50 3591.34 o
3 -5 -6 83725.90 86187.60 3370.22 o
-3 5 6 83725.90 84948.60 4098.28 o
-3 5 6 83725.90 83773.20 3096.22 o
3 5 -5 14824.80 14488.90 1387.83 o
-3 5 5 14824.80 14397.80 1604.54 o
-3 -5 5 14824.80 16186.10 2182.30 o
-3 5 5 14824.80 14805.60 1647.21 o
3 -5 -5 14824.80 14885.90 1395.76 o
-3 5 5 14824.80 16081.80 1299.07 o
3 5 -5 14824.80 14481.70 994.48 o
3 5 -5 14824.80 13506.60 923.46 o
3 -5 -5 14824.80 14778.00 1197.21 o
-3 -5 5 14824.80 15745.90 1260.17 o
-3 -5 5 14824.80 15668.00 1264.99 o
-3 5 4 36.15 98.35 101.84 <
-3 -5 4 36.14 2.40 263.88 <
3 5 -4 36.14 69.57 286.64 <
3 5 -4 36.14 -639.29 503.50 <
3 5 -4 36.14 -345.43 396.47 <
-3 -5 4 36.14 290.26 299.43 <
-3 5 4 36.15 158.32 466.50 <
3 -5 -4 36.15 293.86 337.86 <
3 -5 -4 36.15 -155.92 314.11 <
-3 5 4 36.15 319.04 318.57 <
3 5 -4 36.14 193.11 242.06 <
3 5 -4 36.14 -57.57 206.28 <
3 -5 -4 36.15 -134.34 207.35 <
-3 -5 4 36.14 -183.51 513.23 <
-3 -5 3 86755.60 79198.60 4351.53 o
-3 -5 3 86755.60 91263.50 1897.68 o
3 5 -3 86755.60 85013.40 2553.84 o
-3 -5 3 86755.60 95866.90 1703.81 o
-3 5 3 86755.40 89516.00 2851.18 o
3 -5 -3 86755.40 80665.50 2849.57 o
-3 -5 3 86755.60 84600.80 2462.70 o
3 -5 -3 86755.40 87161.50 2628.22 o
3 5 -3 86755.60 93385.30 1816.20 o
-3 5 3 86755.40 90314.80 2426.97 o
3 -5 -3 86755.40 89420.00 2278.98 o
-3 5 2 158233.00 149266.00 3444.91 o
-3 -5 2 158233.00 156923.00 3927.74 o
-3 -5 2 158233.00 177614.00 10491.50 o
-3 -5 2 158233.00 145147.00 5645.39 o
-3 5 2 158233.00 169260.00 2820.21 o
3 5 -2 158233.00 164106.00 2367.96 o
3 -5 -2 158233.00 168000.00 2065.66 o
3 -5 -2 158233.00 162396.00 2861.88 o
-3 -5 2 158233.00 156597.00 3073.16 o
-3 -5 2 158233.00 170131.00 1195.33 o
-3 5 2 158233.00 184854.00 10678.70 o
3 5 -2 158233.00 159651.00 2759.58 o
3 5 -2 158233.00 168246.00 1863.83 o
-3 5 1 259324.00 302838.00 17411.20 o
-3 5 1 259324.00 282214.00 16884.30 o
-3 -5 1 259325.00 277776.00 2401.00 o
-3 -5 1 259325.00 287518.00 16656.70 o
3 5 -1 259325.00 283237.00 16586.30 o
-3 -5 1 259325.00 289358.00 16788.00 o
-3 -5 1 259325.00 289661.00 17169.20 o
-3 -5 1 259325.00 281798.00 16626.20 o
3 -5 -1 259324.00 281295.00 16737.20 o
3 -5 -1 259324.00 276699.00 16527.70 o
3 5 -1 259325.00 274184.00 16341.20 o
-3 5 1 259324.00 281018.00 16630.40 o
-3 5 1 259324.00 272754.00 3355.27 o
3 5 -1 259325.00 268171.00 2792.61 o
-3 5 1 259324.00 270769.00 16010.70 o
-3 -5 1 259325.00 278613.00 16398.70 o
3 5 -1 259325.00 275256.00 16301.90 o
3 5 0 55211.50 57699.10 1978.61 o
-3 -5 0 55211.50 57075.40 1767.11 o
-3 5 0 55211.50 56855.90 2028.21 o
-3 5 0 55211.50 40747.70 2788.03 o
-3 -5 0 55211.50 59385.50 2530.22 o
-3 -5 0 55211.50 62247.30 1525.61 o
3 -5 0 55211.50 60464.90 1736.74 o
-3 5 0 55211.50 55447.80 1921.99 o
-3 -5 0 55211.50 60097.90 1394.13 o
-3 5 0 55211.50 55756.00 2452.15 o
3 -5 0 55211.50 62352.80 2146.29 o
-3 5 0 55211.50 52783.90 1271.05 o
3 5 0 55211.50 61032.20 1370.01 o
-3 -5 0 55211.50 56865.50 2032.60 o
3 -5 0 55211.50 54815.70 2158.09 o
3 5 0 55211.50 55324.20 1661.81 o
-3 -5 0 55211.50 56803.10 1561.50 o
3 5 1 1982.12 1261.78 386.98 o
3 -5 1 1982.14 1802.72 243.20 o
-3 -5 -1 1982.12 1778.73 437.45 o
-3 5 -1 1982.14 1879.48 300.23 o
-3 5 -1 1982.14 1998.23 485.61 o
-3 5 -1 1982.14 2053.40 619.54 o
-3 5 -1 1982.14 286.66 384.54 <
3 -5 1 1982.14 2313.67 459.17 o
-3 -5 -1 1982.12 2317.27 670.23 o
3 5 1 1982.12 1764.34 394.65 o
3 -5 1 1982.14 2202.13 494.29 o
-3 5 -1 1982.14 1925.06 444.38 o
-3 5 -1 1982.14 2325.67 660.52 o
-3 5 -1 1982.14 1847.10 457.12 o
3 -5 1 1982.14 2374.84 619.09 o
3 5 1 1982.12 1887.88 416.04 o
-3 -5 -1 1982.12 1907.07 352.42 o
-3 -5 -2 35042.90 39039.80 2010.42 o
3 -5 2 35042.90 33747.90 2093.97 o
-3 -5 -2 35042.90 36319.50 2539.40 o
-3 5 -2 35042.90 37403.80 1223.74 o
3 5 2 35042.90 39283.20 2290.30 o
3 5 2 35042.90 34410.00 2010.17 o
3 5 2 35042.90 33807.90 1696.87 o
-3 -5 -2 35042.90 32242.70 1185.82 o
3 -5 2 35042.90 35927.30 1734.47 o
-3 5 -2 35042.90 37816.40 1803.27 o
-3 5 -2 35042.90 40254.80 2049.99 o
-3 5 -2 35042.90 32572.50 1712.63 o
-3 -5 -2 35042.90 37160.30 1449.84 o
3 -5 2 35042.90 38560.00 2120.56 o
3 -5 2 35042.90 36715.30 1063.55 o
-3 5 -2 35042.90 36854.40 1733.25 o
-3 5 -2 35042.90 37343.80 2142.21 o
-3 -5 -3 111530.00 104331.00 5077.67 o
-3 5 -3 111530.00 108603.00 3093.85 o
3 5 3 111530.00 117282.00 3113.34 o
3 5 3 111530.00 117097.00 4436.87 o
-3 5 -3 111530.00 116756.00 3237.25 o
3 -5 3 111530.00 102247.00 3745.18 o
-3 5 -3 111530.00 123395.00 3261.86 o
-3 -5 -3 111530.00 115078.00 3832.82 o
3 -5 3 111530.00 119297.00 3758.64 o
3 -5 3 111530.00 114261.00 2265.59 o
3 5 3 111530.00 99029.70 4051.76 o
-3 5 -3 111530.00 104740.00 4375.39 o
3 -5 4 75429.10 57062.20 3329.51 o
-3 5 -4 75429.10 67541.50 3924.00 o
-3 -5 -4 75429.10 80413.60 4029.33 o
3 -5 4 75429.10 53477.10 4368.87 o
-3 5 -4 75429.10 68540.60 3041.08 o
3 -5 4 75429.10 81935.70 3557.70 o
3 5 4 75429.10 77207.60 3024.21 o
3 -5 4 75429.10 78068.70 2316.51 o
-3 5 -5 38923.90 35885.30 3045.05 o
3 -5 5 38923.90 35168.10 3427.92 o
-3 -5 -5 38923.90 37445.70 3292.75 o
-3 5 -5 38923.90 36972.00 2257.60 o
3 -5 5 38923.90 40265.60 2057.98 o
3 -5 5 38923.90 34701.50 2074.85 o
3 5 5 38923.90 40405.90 2519.42 o
3 -5 5 38923.90 39908.10 2941.74 o
3 -5 6 1094.33 767.63 560.16 <
3 5 6 1094.33 520.55 621.68 <
-3 -5 -6 1094.33 447.38 691.16 <
-3 5 -6 1094.33 580.52 554.60 <
-3 -5 -6 1094.33 1626.41 842.19 <
3 -5 6 1094.33 1403.32 537.95 <
-3 5 -6 1094.33 441.39 776.15 <
3 5 6 1094.33 954.73 656.59 <
3 5 7 999.48 1239.00 877.21 <
-3 5 -7 999.49 1603.62 772.19 <
-3 -5 -7 999.48 2269.29 922.27 <
3 5 7 999.48 2221.32 964.83 <
3 -5 7 999.49 2276.49 832.81 <
3 5 8 13904.50 17300.40 2097.02 o
-3 -5 -8 13904.50 18075.20 2131.15 o
-3 5 -8 13904.40 15236.20 1828.62 o
3 -5 8 13904.40 14917.10 1732.01 o
3 -6 -10 4354.40 6440.86 1315.66 o
3 6 -9 33253.00 40064.10 3116.91 o
3 -6 -9 33253.00 41529.80 2692.70 o
-3 -6 9 33253.00 34182.10 2823.18 o
-3 6 9 33253.00 44519.90 3142.82 o
-3 6 8 43.40 730.44 808.58 <
3 -6 -8 43.40 1632.40 750.05 <
-3 6 8 43.40 483.36 488.63 <
-3 -6 8 43.40 530.14 522.12 <
-3 -6 7 5223.26 5121.50 1023.13 o
-3 6 7 5223.28 3984.46 1136.61 o
3 -6 -7 5223.28 6514.02 1161.71 o
-3 6 7 5223.28 4795.26 878.96 o
3 6 -7 5223.26 4419.85 642.71 o
-3 6 6 35694.20 34605.50 2772.61 o
3 -6 -6 35694.20 33034.30 2017.42 o
-3 6 6 35694.20 27950.00 2789.02 o
-3 6 6 35694.20 34901.80 2036.14 o
-3 -6 6 35694.20 37638.90 2108.59 o
3 6 -6 35694.20 31840.90 1651.03 o
3 -6 -6 35694.20 37405.00 2318.91 o
3 6 -5 33250.10 31507.40 2035.28 o
3 6 -5 33250.10 30700.20 1484.46 o
3 -6 -5 33250.00 33160.20 1749.24 o
-3 -6 5 33250.10 31494.20 3091.75 o
-3 6 5 33250.00 24843.50 2396.99 o
3 6 -5 33250.10 35243.60 1959.93 o
3 -6 -5 33250.00 31070.90 2113.23 o
3 6 -5 33250.10 31472.70 1441.58 o
-3 -6 5 33250.10 35211.20 1821.04 o
-3 6 5 33250.00 33412.10 1919.51 o
-3 6 5 33250.00 27741.30 1125.18 o
-3 -6 5 33250.10 33487.70 1823.49 o
3 -6 -4 85264.30 82838.80 3070.30 o
-3 -6 4 85264.10 78180.30 4736.35 o
-3 6 4 85264.30 71048.60 3868.30 o
3 6 -4 85264.10 85785.80 2690.32 o
-3 6 4 85264.30 74963.50 2414.98 o
-3 -6 4 85264.10 89954.90 2377.62 o
-3 6 4 85264.30 80845.40 3361.50 o
3 -6 -4 85264.30 80852.60 2973.16 o
-3 6 4 85264.30 91772.10 2521.60 o
-3 -6 4 85264.10 84531.20 2648.85 o
3 6 -4 85264.10 82415.40 3039.88 o
3 -6 -4 85264.30 86835.30 2459.40 o
3 6 -4 85264.10 85493.10 3119.06 o
-3 -6 3 39299.30 36754.90 1696.84 o
-3 -6 3 39299.30 35755.80 2829.94 o
-3 -6 3 39299.30 46501.30 1642.20 o
-3 6 3 39299.20 39072.20 2063.76 o
3 -6 -3 39299.20 38852.70 1796.16 o
-3 6 3 39299.20 44109.70 1758.79 o
-3 -6 3 39299.30 40046.10 1502.91 o
3 6 -3 39299.30 43519.60 1668.48 o
3 6 -3 39299.30 38273.30 1746.49 o
3 -6 -3 39299.20 39939.30 1701.25 o
-3 6 3 39299.20 35384.00 1898.04 o
-3 -6 2 125.04 241.08 208.43 <
3 6 -2 125.04 142.73 269.85 <
3 6 -2 125.04 -34.78 279.50 <
-3 6 2 125.05 187.11 135.35 <
-3 6 2 125.05 167.92 302.20 <
3 -6 -2 125.05 -3.60 238.74 <
-3 -6 2 125.04 43.18 398.24 <
-3 -6 2 125.04 95.95 218.33 <
-3 6 2 125.05 160.72 250.63 <
-3 -6 2 125.04 137.93 428.18 <
-3 -6 2 125.04 135.53 272.26 <
-3 6 1 365.42 680.07 206.61 o
3 6 -1 365.43 768.83 379.80 <
3 6 -1 365.43 513.35 293.30 <
-3 -6 1 365.43 65.97 405.70 <
3 -6 -1 365.42 238.68 313.32 <
-3 -6 1 365.43 519.35 355.74 <
3 -6 -1 365.42 409.00 134.03 o
-3 -6 1 365.43 431.79 303.24 <
-3 6 1 365.42 671.67 352.64 <
-3 -6 1 365.43 677.67 320.10 <
3 -6 -1 365.42 572.12 339.90 <
-3 -6 1 365.43 578.12 446.80 <
3 6 -1 365.43 485.76 334.25 <
3 6 -1 365.43 429.39 219.21 <
3 -6 -1 365.42 399.40 286.55 <
-3 6 1 365.42 599.71 296.47 <
-3 -6 1 365.43 588.91 268.84 <
-3 -6 0 111421.00 123166.00 1179.90 o
-3 6 0 111421.00 111000.00 3050.02 o
-3 -6 0 111421.00 115619.00 2440.78 o
3 -6 0 111421.00 117530.00 6981.06 o
-3 -6 0 111421.00 121733.00 3324.12 o
-3 6 0 111421.00 123287.00 2664.58 o
3 -6 0 111421.00 118190.00 2433.25 o
-3 6 0 111421.00 111643.00 2849.47 o
-3 6 0 111421.00 111355.00 3715.77 o
3 -6 0 111421.00 111844.00 3043.07 o
3 -6 0 111421.00 122014.00 2903.79 o
3 6 0 111421.00 113942.00 2868.74 o
-3 6 0 111421.00 109354.00 1998.16 o
-3 -6 0 111421.00 113446.00 2139.73 o
3 6 0 111421.00 122936.00 621.52 o
-3 -6 0 111421.00 111994.00 3027.34 o
3 6 0 111421.00 110343.00 2632.40 o
3 -6 1 23818.80 23558.90 1764.32 o
-3 -6 -1 23818.80 23635.70 1382.08 o
-3 6 -1 23818.80 23609.30 892.61 o
3 -6 1 23818.80 23925.90 1243.66 o
-3 -6 -1 23818.80 25546.30 2004.80 o
3 6 1 23818.80 24322.90 1205.39 o
3 -6 1 23818.80 24805.10 1079.87 o
-3 6 -1 23818.80 24928.60 1430.25 o
3 6 1 23818.80 25801.80 1792.34 o
3 -6 1 23818.80 26002.10 1440.05 o
-3 6 -1 23818.80 21969.70 1390.99 o
3 6 1 23818.80 24506.50 1528.45 o
-3 6 -1 23818.80 25917.00 1595.49 o
3 -6 1 23818.80 24693.60 843.25 o
-3 6 -1 23818.80 24069.90 1785.05 o
-3 -6 -1 23818.80 25287.30 1040.61 o
3 -6 1 23818.80 26779.30 1732.36 o
-3 6 -1 23818.80 21335.20 1058.01 o
-3 6 -2 105425.00 104970.00 2707.83 o
3 6 2 105425.00 97626.40 3298.53 o
3 -6 2 105425.00 89803.80 4280.47 o
-3 -6 -2 105425.00 107565.00 4393.86 o
3 -6 2 105425.00 99690.60 3385.29 o
3 6 2 105425.00 111815.00 3785.37 o
3 -6 2 105425.00 111937.00 3549.45 o
-3 6 -2 105425.00 115349.00 2419.36 o
3 -6 2 105425.00 105666.00 3150.76 o
3 6 2 105425.00 104238.00 3537.27 o
-3 6 -2 105425.00 123848.00 2480.55 o
-3 -6 -2 105425.00 103379.00 2619.78 o
-3 -6 -2 105425.00 113342.00 3127.14 o
-3 6 -2 105425.00 107600.00 3807.11 o
3 -6 2 105425.00 107367.00 1905.35 o
3 -6 2 105425.00 100275.00 4269.18 o
-3 6 -2 105425.00 107933.00 2959.76 o
-3 -6 -3 458.42 664.48 530.79 <
3 -6 3 458.44 296.26 244.04 <
-3 6 -3 458.44 -83.96 452.52 <
-3 6 -3 458.44 670.47 346.95 <
3 -6 3 458.44 870.78 594.89 <
3 6 3 458.42 743.64 381.45 <
-3 -6 -3 458.42 371.82 506.32 <
-3 6 -3 458.44 690.86 441.81 <
3 6 3 458.42 1072.28 599.98 <
-3 6 -3 458.44 784.42 538.76 <
3 -6 3 458.44 1000.31 464.28 <
-3 6 -3 458.44 1168.23 437.77 <
-3 -6 -3 458.42 462.97 266.25 <
-3 6 -3 458.44 1153.84 605.57 <
3 6 3 458.42 1531.65 661.12 <
3 6 4 4477.72 4381.46 806.07 o
3 -6 4 4477.77 5422.56 1170.37 o
-3 6 -4 4477.77 4093.60 746.47 o
-3 -6 -4 4477.72 4442.63 1281.27 o
3 -6 4 4477.77 3002.14 1058.84 <
3 -6 4 4477.77 3152.06 699.02 o
-3 6 -4 4477.77 3710.99 1052.85 o
-3 6 -4 4477.77 4112.79 815.37 o
3 6 4 4477.72 5922.71 980.04 o
3 -6 4 4477.77 4954.78 681.66 o
-3 6 -5 18805.10 17062.90 2179.86 o
-3 -6 -5 18805.10 19453.30 2394.76 o
3 -6 5 18805.10 15919.80 2381.27 o
3 -6 5 18805.10 19283.00 1479.72 o
-3 6 -5 18805.10 17659.00 1543.75 o
3 -6 5 18805.10 16577.10 1471.27 o
3 6 5 18805.10 19227.80 1779.88 o
-3 6 -5 18805.10 19519.30 1723.68 o
-3 6 -6 12830.70 10072.70 1917.81 o
-3 -6 -6 12830.70 10978.20 2145.93 o
-3 6 -6 12830.70 11695.50 1407.69 o
-3 -6 -6 12830.70 14426.60 1755.88 o
3 -6 6 12830.70 14459.00 1302.23 o
3 6 6 12830.70 12555.50 1673.39 o
3 -6 6 12830.70 13209.20 1396.03 o
3 6 7 13748.80 13778.90 1878.96 o
-3 6 -7 13748.90 14863.20 1660.81 o
-3 -6 -7 13748.80 14503.30 1918.86 o
-3 -6 -7 13748.80 9717.66 2343.01 o
3 6 7 13748.80 14015.20 1859.11 o
3 -6 7 13748.90 13186.40 1520.78 o
3 6 8 7179.68 9025.60 1647.12 o
-3 6 -8 7179.68 9782.43 1494.85 o
3 -6 8 7179.68 9128.75 1373.54 o
-3 -7 9 20.56 760.43 731.60 <
-3 7 9 20.55 1351.74 1071.97 <
3 -7 -9 20.55 2485.19 944.37 <
-3 -7 8 1388.30 407.80 526.24 <
-3 7 8 1388.32 669.27 770.86 <
3 -7 -8 1388.32 698.06 388.98 <
3 -7 -8 1388.32 2096.58 809.30 <
-3 7 8 1388.32 1402.12 618.82 <
3 7 -8 1388.30 1120.25 385.83 <
-3 7 7 8709.59 8924.85 1527.46 o
3 -7 -7 8709.59 10240.60 1389.82 o
-3 7 7 8709.59 8257.97 1077.17 o
3 7 -7 8709.52 7485.55 754.63 o
3 -7 -7 8709.59 6959.01 1014.07 o
-3 -7 7 8709.52 8431.89 1220.87 o
-3 -7 6 2370.48 2229.71 656.05 o
3 7 -6 2370.48 3038.12 764.14 o
3 -7 -6 2370.48 1740.35 705.85 <
-3 7 6 2370.48 2169.74 895.97 <
-3 7 6 2370.48 1604.82 582.81 <
3 7 -6 2370.48 1576.03 328.70 o
-3 7 6 2370.48 2091.78 298.79 o
3 -7 -6 2370.48 2385.64 583.97 o
-3 -7 5 25447.50 22255.20 2636.60 o
-3 7 5 25447.40 21036.50 2157.23 o
3 7 -5 25447.50 25812.60 1709.24 o
-3 -7 5 25447.50 26559.90 1687.42 o
3 -7 -5 25447.40 23719.60 1904.36 o
-3 7 5 25447.40 25600.30 1734.96 o
3 7 -5 25447.50 23921.10 1301.29 o
3 7 -5 25447.50 23680.10 1898.52 o
3 -7 -5 25447.40 23906.70 1537.57 o
-3 -7 5 25447.50 26142.50 1641.06 o
-3 7 5 25447.40 19456.90 1105.82 o
-3 -7 4 31171.10 27265.10 2712.90 o
3 7 -4 31171.10 31544.60 1703.51 o
-3 7 4 31171.20 28859.10 2036.26 o
-3 7 4 31171.20 32276.30 2397.37 o
-3 -7 4 31171.10 33598.00 1647.43 o
-3 7 4 31171.20 30393.20 1943.94 o
-3 7 4 31171.20 28564.10 1204.04 o
3 7 -4 31171.10 33145.80 1758.00 o
3 -7 -4 31171.20 29007.90 1751.64 o
-3 7 4 31171.20 34342.90 1780.86 o
3 7 -4 31171.10 29293.30 2076.21 o
-3 -7 4 31171.10 30757.80 1638.03 o
3 -7 -4 31171.20 30413.60 1589.91 o
-3 7 3 17370.80 17960.00 1408.38 o
3 7 -3 17370.90 18113.60 1189.74 o
-3 -7 3 17370.90 15047.90 1382.32 o
-3 7 3 17370.80 15092.20 1152.52 o
3 -7 -3 17370.80 17599.00 1179.31 o
3 -7 -3 17370.80 17203.20 1224.29 o
-3 7 3 17370.80 20460.80 1270.57 o
-3 -7 3 17370.90 16705.50 1128.87 o
-3 7 3 17370.80 17645.80 1637.34 o
-3 -7 3 17370.90 16751.00 1895.24 o
-3 -7 3 17370.90 17452.70 1026.97 o
3 7 -3 17370.90 17432.30 1172.04 o
3 7 -3 17370.90 20123.80 1391.71 o
-3 7 2 52556.30 55408.20 2253.48 o
-3 -7 2 52556.10 58002.50 2642.72 o
3 7 -2 52556.10 52996.20 2012.66 o
-3 -7 2 52556.10 58862.50 1763.54 o
-3 -7 2 52556.10 54935.60 2629.18 o
-3 -7 2 52556.10 51982.70 1896.15 o
3 -7 -2 52556.30 53705.00 2036.42 o
-3 7 2 52556.30 57384.80 1785.74 o
3 -7 -2 52556.30 53323.60 2379.70 o
-3 -7 2 52556.10 52768.30 1880.86 o
3 7 -2 52556.10 54086.40 2099.61 o
-3 7 2 52556.30 49691.80 1761.11 o
-3 -7 1 6066.88 7231.28 853.45 o
-3 -7 1 6066.88 5069.93 739.73 o
-3 -7 1 6066.88 7003.39 707.09 o
3 7 -1 6066.88 6558.40 723.69 o
3 7 -1 6066.88 6514.02 626.07 o
3 -7 -1 6066.88 6581.19 420.58 o
-3 -7 1 6066.88 7412.39 758.94 o
3 -7 -1 6066.88 6872.65 981.39 o
-3 -7 1 6066.88 6018.67 671.51 o
-3 -7 1 6066.88 7377.60 1005.21 o
3 -7 -1 6066.88 5961.09 787.55 o
3 -7 -1 6066.88 6756.31 777.85 o
-3 7 1 6066.88 6516.42 756.20 o
-3 7 1 6066.88 6620.77 518.70 o
3 7 -1 6066.88 6382.09 774.71 o
-3 7 1 6066.88 6655.56 880.87 o
-3 -7 0 24476.30 26592.20 1186.95 o
3 -7 0 24476.10 26451.90 1783.39 o
-3 -7 0 24476.30 25677.10 1377.81 o
3 -7 0 24476.10 23837.20 838.04 o
3 7 0 24476.30 24582.00 1509.54 o
-3 -7 0 24476.30 26687.00 1956.67 o
3 -7 0 24476.10 24920.30 1517.96 o
-3 7 0 24476.10 23735.20 1449.83 o
3 -7 0 24476.10 24555.60 1499.75 o
3 7 0 24476.30 27995.60 1067.24 o
-3 7 0 24476.10 24264.20 1835.86 o
-3 -7 0 24476.30 26152.10 1570.58 o
-3 7 0 24476.10 23834.80 966.25 o
-3 -7 0 24476.30 24270.20 1149.96 o
3 -7 1 1393.12 1406.91 292.50 o
3 7 1 1393.12 1514.86 470.45 o
-3 -7 -1 1393.12 2341.26 612.62 o
-3 7 -1 1393.12 1529.25 310.29 o
-3 7 -1 1393.12 1370.93 406.78 o
3 -7 1 1393.12 1488.47 589.55 <
-3 -7 -1 1393.12 1409.31 393.27 o
-3 7 -1 1393.12 1465.69 277.36 o
3 -7 1 1393.12 1418.91 319.97 o
3 -7 1 1393.12 996.71 328.33 o
-3 7 -1 1393.12 1851.90 648.40 <
3 -7 1 1393.12 1829.11 575.06 o
-3 -7 -1 1393.12 1254.59 575.27 <
3 -7 1 1393.12 1547.25 481.02 o
3 7 1 1393.12 1499.27 558.26 <
-3 -7 -1 1393.12 1379.33 279.63 o
-3 7 -1 1393.12 275.87 515.53 <
3 7 2 470.08 -307.05 489.38 <
3 7 2 470.08 497.76 288.95 <
3 -7 2 470.11 363.42 227.14 <
-3 7 -2 470.11 591.31 294.51 <
-3 -7 -2 470.08 997.91 499.27 <
3 -7 2 470.11 491.76 569.68 <
3 -7 2 470.11 381.41 410.41 <
-3 7 -2 470.11 320.24 246.42 <
3 -7 2 470.11 677.67 413.07 <
3 -7 2 470.11 297.45 287.17 <
-3 -7 -2 470.08 602.11 539.41 <
-3 7 -2 470.11 894.76 538.31 <
-3 7 -2 470.11 633.29 311.12 <
3 7 2 470.08 -92.36 387.83 <
3 -7 2 470.11 438.99 409.08 <
3 7 2 470.08 494.16 273.36 <
-3 7 -2 470.11 415.00 324.02 <
-3 -7 -2 470.08 480.97 239.83 <
3 -7 3 46.65 278.26 283.87 <
-3 7 -3 46.65 229.09 348.82 <
-3 7 -3 46.65 -110.35 323.78 <
3 -7 3 46.65 730.44 606.75 <
-3 -7 -3 46.65 254.28 511.97 <
-3 -7 -3 46.65 -27.59 431.79 <
3 7 3 46.65 -23.99 267.47 <
-3 -7 -3 46.65 49.18 105.55 <
-3 -7 -3 46.65 131.94 234.99 <
3 7 3 46.65 622.50 587.90 <
-3 7 -3 46.65 57.57 467.77 <
3 -7 3 46.65 -110.35 339.38 <
-3 7 -3 46.65 310.65 347.42 <
3 7 3 46.65 -642.89 553.99 <
-3 7 -4 16962.20 14835.60 1668.65 o
-3 7 -4 16962.20 16146.50 1976.18 o
3 -7 4 16962.20 14089.50 1988.72 o
-3 -7 -4 16962.30 14944.70 2092.26 o
-3 7 -4 16962.20 21035.30 1500.89 o
3 7 4 16962.30 20373.30 1602.97 o
3 -7 4 16962.20 10996.20 1308.24 o
-3 7 -4 16962.20 18848.80 1484.27 o
3 -7 4 16962.20 20548.40 2126.38 o
3 -7 4 16962.20 19001.10 1194.97 o
3 7 4 16962.30 14776.80 1379.62 o
3 -7 5 2410.92 2176.94 548.05 o
-3 7 -5 2410.92 1982.63 679.69 <
-3 7 -5 2410.92 4104.40 885.86 o
-3 -7 -5 2410.91 2703.48 1148.65 <
3 -7 5 2410.92 1773.94 1137.32 <
3 -7 5 2410.92 1326.55 590.40 <
-3 7 -5 2410.92 1159.83 755.92 <
3 7 5 2410.91 2218.92 736.67 o
-3 -7 -6 14782.70 13766.90 2409.55 o
-3 7 -6 14782.70 14957.90 1567.24 o
3 -7 6 14782.70 15208.60 1439.43 o
3 7 6 14782.70 14779.20 1730.83 o
-3 7 -6 14782.70 10492.50 1994.78 o
3 -7 6 14782.70 14582.50 1441.79 o
3 -7 7 8646.47 7675.06 1216.05 o
3 7 7 8646.42 9649.30 1666.99 o
-3 -7 -7 8646.42 4911.61 1742.33 <
-3 7 -7 8646.47 9163.53 1395.34 o
-3 -7 -7 8646.42 11244.50 1697.86 o
3 7 7 8646.42 9096.37 1534.97 o
3 -7 8 1675.54 2216.52 809.95 <
-3 7 -8 1675.54 658.48 706.31 <
3 7 8 1675.54 717.25 923.74 <
-3 -8 9 794.56 617.70 651.72 <
-3 8 9 794.57 616.50 883.10 <
3 -8 -9 794.57 2452.80 939.52 <
3 -8 -9 794.57 214.70 443.86 <
3 -8 -8 3170.13 2518.77 731.52 o
-3 8 8 3170.13 2735.87 974.61 <
3 8 -8 3170.13 -2510.38 1441.81 <
-3 -8 8 3170.13 3105.29 904.90 o
3 -8 -8 3170.13 3619.84 1017.03 o
3 -8 -7 6575.10 6380.89 916.04 o
3 8 -7 6575.10 7660.67 1304.86 o
3 -8 -7 6575.10 6884.64 1216.87 o
-3 8 7 6575.10 6878.65 978.49 o
-3 -8 7 6575.10 7402.79 1142.71 o
-3 -8 6 767.50 771.22 500.14 <
3 8 -6 767.50 1242.59 565.14 <
3 -8 -6 767.51 616.50 469.49 <
-3 8 6 767.51 1256.99 946.18 <
-3 8 6 767.51 700.46 442.85 <
3 8 -6 767.50 1003.91 289.65 o
3 -8 -6 767.51 807.21 364.42 <
-3 8 6 767.51 1399.72 308.45 o
3 8 -5 13485.90 14727.60 1312.43 o
-3 8 5 13485.80 13354.30 1617.03 o
-3 -8 5 13485.90 14826.00 1304.77 o
3 -8 -5 13485.80 12993.30 1395.32 o
-3 8 5 13485.80 11485.60 1398.88 o
3 -8 -5 13485.80 13229.60 1106.09 o
3 -8 -5 13485.80 12249.60 1185.95 o
-3 8 5 13485.80 15605.60 1313.23 o
-3 8 5 13485.80 12267.60 766.05 o
3 8 -5 13485.90 13348.30 1623.14 o
-3 8 5 13485.80 14411.00 1839.75 o
-3 -8 5 13485.90 13710.50 1245.10 o
3 8 -5 13485.90 13942.00 1362.29 o
3 -8 -4 4995.02 5189.87 680.15 o
3 8 -4 4995.01 4031.23 801.87 o
-3 8 4 4995.02 5327.80 1059.96 o
-3 -8 4 4995.01 6294.53 829.84 o
-3 -8 4 4995.01 5278.63 1266.20 o
-3 8 4 4995.02 6534.41 572.91 o
3 -8 -4 4995.02 5105.91 762.26 o
-3 8 4 4995.02 4822.85 849.16 o
-3 8 4 4995.02 5430.95 796.70 o
-3 8 4 4995.02 5649.25 881.54 o
-3 -8 4 4995.01 5224.65 714.49 o
3 8 -4 4995.01 5024.35 743.16 o
3 8 -4 4995.01 5309.81 793.87 o
3 8 -3 1461.18 1646.80 477.09 o
3 8 -3 1461.18 2952.96 712.21 o
-3 8 3 1461.21 1636.00 611.82 <
3 8 -3 1461.18 1048.29 409.48 <
-3 -8 3 1461.18 1789.53 420.26 o
-3 8 3 1461.21 1310.96 368.36 o
3 -8 -3 1461.21 1853.10 473.96 o
-3 8 3 1461.21 1643.20 441.02 o
-3 8 3 1461.21 1364.93 428.94 o
-3 -8 3 1461.18 2431.21 843.39 <
-3 -8 3 1461.18 1619.21 359.38 o
-3 -8 2 2447.66 2461.20 489.20 o
3 8 -2 2447.66 3045.32 529.69 o
3 8 -2 2447.66 2940.97 690.92 o
3 -8 -2 2447.66 2485.19 356.80 o
3 8 -2 2447.66 2828.22 532.73 o
-3 -8 2 2447.66 2597.93 522.39 o
-3 8 2 2447.66 2764.65 615.62 o
3 -8 -2 2447.66 2518.77 585.79 o
3 -8 -2 2447.66 3231.22 573.25 o
-3 8 2 2447.66 2830.62 556.88 o
-3 8 2 2447.66 2665.10 420.19 o
-3 -8 2 2447.66 3254.01 750.37 o
-3 -8 2 2447.66 2819.83 688.58 o
-3 8 2 2447.66 2368.85 474.72 o
-3 -8 1 5899.42 5006.36 789.36 o
3 8 -1 5899.42 6194.98 737.80 o
3 -8 -1 5899.33 6396.48 977.14 o
-3 8 1 5899.33 6034.26 757.87 o
-3 -8 1 5899.42 6707.13 792.82 o
-3 -8 1 5899.42 5616.86 638.19 o
3 -8 -1 5899.33 5709.22 823.60 o
3 -8 -1 5899.33 5615.66 477.19 o
3 8 -1 5899.42 6202.18 821.02 o
3 -8 -1 5899.33 6216.57 784.51 o
-3 -8 1 5899.42 6554.80 996.36 o
3 8 -1 5899.42 6138.61 609.62 o
-3 -8 1 5899.42 5415.36 742.82 o
-3 -8 1 5899.42 6821.08 736.32 o
-3 8 1 5899.33 5999.48 546.72 o
3 8 0 502.98 645.28 371.27 <
-3 8 0 502.98 630.89 236.72 <
-3 -8 0 502.98 -215.90 483.61 <
3 -8 0 502.98 1366.13 592.35 <
-3 -8 0 502.98 563.72 286.38 <
3 -8 0 502.98 761.63 246.58 o
-3 8 0 502.98 841.99 458.08 <
-3 -8 0 502.98 508.55 244.65 <
-3 -8 0 502.98 638.09 296.81 <
3 -8 0 502.98 554.13 364.44 <
-3 -8 0 502.98 722.05 554.71 <
3 -8 0 502.98 616.50 391.81 <
3 -8 0 502.98 831.20 366.67 <
-3 8 0 502.98 810.80 449.82 <
3 8 0 502.98 586.51 355.91 <
3 8 0 502.98 816.80 269.08 o
3 -8 1 33157.50 31524.20 2193.05 o
-3 8 -1 33157.50 31150.00 1765.84 o
-3 8 -1 33157.50 31171.60 1330.77 o
3 -8 1 33157.50 31579.40 1546.42 o
-3 -8 -1 33157.50 32071.20 1775.44 o
-3 8 -1 33157.50 30647.50 1339.77 o
3 -8 1 33157.50 34437.60 1169.62 o
-3 -8 -1 33157.50 38047.90 2525.14 o
3 8 1 33157.50 34649.90 2328.89 o
3 -8 1 33157.50 34097.00 1888.75 o
-3 8 -1 33157.50 30288.80 2278.20 o
3 -8 1 33157.50 39133.30 2195.94 o
-3 8 -1 33157.50 36104.80 2031.75 o
3 8 1 33157.50 33196.20 1894.65 o
-3 -8 -1 33157.50 34183.30 1945.06 o
3 8 1 33157.50 32865.20 1633.43 o
3 -8 1 33157.50 34273.30 1224.55 o
3 8 2 1250.63 508.55 345.75 <
3 8 2 1250.63 1000.31 380.73 <
-3 8 -2 1250.61 837.19 367.27 <
-3 -8 -2 1250.63 2015.02 614.87 o
-3 8 -2 1250.61 425.79 270.25 <
3 -8 2 1250.61 532.54 508.77 <
-3 8 -2 1250.61 1283.37 347.54 o
3 -8 2 1250.61 1114.26 601.54 <
3 -8 2 1250.61 712.45 562.18 <
3 -8 2 1250.61 1120.25 400.32 <
3 -8 2 1250.61 1322.96 321.94 o
-3 -8 -2 1250.63 1428.50 750.05 <
-3 8 -2 1250.61 1689.98 684.89 <
3 8 2 1250.63 1478.88 592.41 <
3 -8 2 1250.61 498.96 403.97 <
3 8 2 1250.63 831.20 259.27 o
-3 -8 -2 1250.63 1361.34 283.02 o
-3 8 -2 1250.61 1468.08 529.97 <
-3 8 -3 15221.40 13872.40 1760.89 o
-3 -8 -3 15221.50 13952.80 1986.80 o
-3 8 -3 15221.40 13138.40 1066.08 o
-3 8 -3 15221.40 13474.20 1347.05 o
-3 8 -3 15221.40 16826.60 1319.39 o
3 -8 3 15221.40 12812.20 1376.59 o
3 8 3 15221.50 13205.60 1419.06 o
-3 8 -3 15221.40 13825.70 1246.81 o
3 8 3 15221.50 12103.30 1103.01 o
3 -8 3 15221.40 17614.60 1888.99 o
3 8 3 15221.50 14497.30 1324.45 o
3 -8 3 15221.40 16484.80 1043.39 o
-3 -8 -3 15221.50 13465.80 965.37 o
3 -8 4 2888.14 3764.96 648.51 o
-3 8 -4 2888.14 2370.04 685.89 o
3 -8 4 2888.14 5472.93 1318.22 o
3 8 4 2888.14 2308.87 563.93 o
-3 -8 -4 2888.14 3112.48 1052.73 <
3 -8 4 2888.14 2328.07 735.06 o
3 -8 4 2888.14 2101.38 630.81 o
-3 8 -4 2888.14 2708.28 935.62 <
-3 8 -4 2888.14 2909.78 671.45 o
-3 -8 -4 2888.14 2599.13 490.79 o
3 8 4 2888.14 3722.99 867.66 o
3 -8 5 498.32 543.34 479.65 <
3 8 5 498.31 -305.85 440.25 <
-3 -8 -5 498.31 2071.39 1177.67 <
3 -8 5 498.32 1706.77 997.73 <
-3 8 -5 498.32 1424.91 594.35 <
3 -8 5 498.32 304.65 513.68 <
-3 8 -5 498.32 858.78 829.22 <
3 8 5 498.31 1445.30 677.49 <
-3 -8 -6 1486.63 1167.03 1057.61 <
-3 8 -6 1486.60 1421.31 1120.46 <
3 -8 6 1486.60 615.30 501.55 <
3 -8 6 1486.60 1162.23 578.63 <
3 8 6 1486.63 1968.24 778.14 <
3 -8 7 194.72 -797.61 620.70 <
-3 -8 -7 194.72 -123.54 913.96 <
-3 -8 -7 194.72 987.12 853.57 <
3 8 7 194.72 425.79 554.98 <
3 -8 8 120.32 244.68 593.61 <
-3 -9 9 3226.48 4448.63 1122.94 o
-3 9 9 3226.51 3749.37 1314.75 <
3 9 -9 3226.48 2889.39 1149.95 <
3 -9 -9 3226.51 4211.15 1138.61 o
3 -9 -9 3226.51 2963.76 809.59 o
-3 -9 8 5833.52 6290.93 1245.59 o
-3 9 8 5833.55 4662.13 1278.94 o
3 -9 -8 5833.55 6359.30 1037.19 o
3 9 -8 5833.52 7925.74 1766.70 o
3 -9 -8 5833.55 6866.65 1297.36 o
3 -9 -7 3503.35 3310.39 709.86 o
3 9 -7 3503.36 4611.75 1050.80 o
3 -9 -7 3503.35 3769.76 1002.77 o
-3 9 7 3503.35 1919.06 1003.63 <
-3 -9 7 3503.36 3659.42 895.66 o
-3 9 7 3503.35 3757.77 767.11 o
-3 9 7 3503.35 2569.15 426.81 o
-3 9 6 10.76 140.33 467.71 <
-3 -9 6 10.76 410.20 499.62 <
3 9 -6 10.76 527.74 269.44 <
-3 9 6 10.76 -98.35 562.49 <
3 9 -6 10.76 -77.96 400.58 <
3 -9 -6 10.76 -287.86 511.86 <
-3 9 6 10.76 137.93 811.97 <
-3 9 6 10.76 74.36 375.39 <
3 -9 -6 10.76 55.17 295.04 <
-3 9 6 10.76 -331.04 253.50 <
3 9 -5 1215.36 -230.29 552.50 <
-3 9 5 1215.33 993.12 644.97 <
-3 -9 5 1215.36 1236.60 516.83 <
3 -9 -5 1215.33 1418.91 417.02 o
3 9 -5 1215.36 1595.22 552.91 <
-3 9 5 1215.33 882.77 308.43 <
-3 9 5 1215.33 1763.14 763.71 <
3 -9 -5 1215.33 1039.89 402.95 <
-3 9 5 1215.33 700.46 410.43 <
-3 9 5 1215.33 1075.88 528.45 <
-3 -9 4 10332.20 10311.40 1731.05 o
-3 9 4 10332.30 10374.90 1178.13 o
3 9 -4 10332.20 11258.90 1084.84 o
-3 9 4 10332.30 10564.50 1462.90 o
-3 9 4 10332.30 8690.96 1085.93 o
3 -9 -4 10332.30 11435.20 979.23 o
3 -9 -4 10332.30 10739.60 1043.20 o
-3 9 4 10332.30 11046.60 1087.76 o
-3 -9 4 10332.20 11520.40 1141.98 o
-3 9 4 10332.30 11844.20 825.97 o
3 9 -4 10332.20 9355.44 1317.51 o
-3 -9 4 10332.20 10485.30 1035.00 o
3 9 -4 10332.20 11587.60 1209.08 o
-3 -9 3 424.50 329.84 209.09 <
-3 -9 3 424.50 199.10 303.94 <
-3 9 3 424.51 904.36 600.68 <
3 9 -3 424.50 828.80 382.05 <
-3 9 3 424.51 346.63 295.29 <
-3 9 3 424.51 373.02 303.61 <
3 -9 -3 424.51 -23.99 284.76 <
-3 9 3 424.51 301.05 322.96 <
3 9 -3 424.50 1169.43 621.05 <
-3 -9 3 424.50 94.75 621.56 <
3 9 -3 424.50 482.17 353.65 <
-3 -9 2 14262.10 13635.00 1467.95 o
-3 9 2 14262.10 15664.40 1555.49 o
3 -9 -2 14262.10 14667.70 1390.78 o
-3 9 2 14262.10 15669.20 1107.21 o
3 9 -2 14262.10 14818.80 1168.41 o
-3 -9 2 14262.10 17090.50 1224.50 o
-3 -9 2 14262.10 15075.50 1567.29 o
3 -9 -2 14262.10 14847.60 1199.16 o
-3 9 2 14262.10 15575.60 1228.33 o
3 9 -2 14262.10 15819.10 1331.05 o
3 9 -2 14262.10 15308.10 1107.23 o
3 -9 -2 14262.10 13930.00 862.27 o
-3 9 2 14262.10 14577.70 958.96 o
-3 -9 2 14262.10 14288.60 1094.23 o
-3 9 2 14262.10 15849.10 1323.97 o
-3 -9 1 2861.34 3354.76 578.82 o
-3 9 1 2861.32 3334.37 452.68 o
3 9 -1 2861.34 3141.27 541.97 o
3 9 -1 2861.34 3341.57 663.77 o
3 -9 -1 2861.32 2822.22 721.22 o
3 -9 -1 2861.32 3249.22 405.50 o
3 9 -1 2861.34 3224.03 583.10 o
-3 9 1 2861.32 2415.62 681.71 o
-3 -9 1 2861.34 3156.86 590.05 o
3 -9 -1 2861.32 3460.31 665.87 o
-3 -9 1 2861.34 2647.11 567.39 o
3 -9 -1 2861.32 3110.08 611.15 o
-3 -9 1 2861.34 2475.59 693.15 o
-3 9 1 2861.32 3064.51 644.22 o
3 -9 -1 2861.32 2788.64 631.67 o
3 9 -1 2861.34 3080.10 454.72 o
-3 -9 1 2861.34 2728.67 478.02 o
-3 9 1 2861.32 2940.97 571.15 o
3 -9 0 10446.90 11784.30 1346.57 o
3 -9 0 10446.90 11015.40 1235.49 o
-3 -9 0 10447.00 12160.90 1056.88 o
3 -9 0 10446.90 12818.20 699.83 o
-3 -9 0 10447.00 13025.70 1518.85 o
3 9 0 10447.00 11756.70 942.91 o
3 -9 0 10446.90 10740.80 1126.81 o
3 -9 0 10446.90 11260.10 1077.75 o
-3 -9 0 10447.00 8738.94 1166.63 o
3 9 0 10447.00 11719.50 1149.39 o
3 9 0 10447.00 12694.60 776.18 o
-3 9 0 10446.90 11357.30 1370.21 o
-3 -9 0 10447.00 10211.80 857.19 o
-3 9 0 10446.90 11690.70 759.30 o
-3 -9 0 10447.00 10502.10 780.24 o
3 -9 1 621.31 498.96 269.26 <
-3 9 -1 621.31 801.21 319.24 <
-3 -9 -1 621.34 2121.77 716.34 <
-3 -9 -1 621.34 620.10 231.49 <
3 -9 1 621.31 574.52 578.23 <
-3 -9 -1 621.34 716.05 387.01 <
-3 9 -1 621.31 531.34 222.44 <
3 -9 1 621.31 426.99 293.44 <
3 -9 1 621.31 928.35 292.99 o
-3 9 -1 621.31 915.15 519.44 <
3 -9 1 621.31 875.57 481.16 <
-3 -9 -1 621.34 672.87 583.98 <
3 -9 1 621.31 539.74 448.83 <
3 9 1 621.34 1099.86 541.34 <
3 9 1 621.34 1242.59 460.83 <
3 9 1 621.34 806.01 351.69 <
3 9 2 104.90 277.07 412.38 <
3 9 2 104.90 116.34 364.61 <
-3 9 -2 104.91 243.48 326.04 <
3 -9 2 104.91 504.95 295.05 <
3 -9 2 104.91 436.59 524.85 <
-3 -9 -2 104.90 14.39 358.65 <
-3 9 -2 104.91 147.53 249.42 <
3 -9 2 104.91 -92.36 502.54 <
3 -9 2 104.91 352.63 455.42 <
3 -9 2 104.91 358.62 348.55 <
-3 -9 -2 104.90 322.64 663.08 <
-3 9 -2 104.91 85.16 514.56 <
3 9 2 104.90 189.51 467.70 <
3 -9 2 104.91 129.54 420.98 <
-3 9 -2 104.91 -1055.49 587.93 <
-3 -9 -2 104.90 1412.91 646.56 <
-3 9 -2 104.91 -117.54 357.38 <
3 9 3 276.61 -239.88 545.66 <
3 9 3 276.61 732.84 460.40 <
-3 9 -3 276.63 271.07 374.23 <
-3 9 -3 276.63 725.65 443.59 <
-3 9 -3 276.63 237.48 290.34 <
-3 9 -3 276.63 394.61 325.93 <
-3 -9 -3 276.61 255.48 217.16 <
-3 -9 -3 276.61 597.31 679.51 <
3 -9 3 276.63 173.91 280.85 <
-3 9 -3 276.63 26.39 593.82 <
3 9 3 276.61 586.51 286.61 <
3 -9 3 276.63 310.65 389.75 <
3 9 4 10282.60 7388.40 922.76 o
-3 9 -4 10282.60 9957.55 1722.13 o
3 9 4 10282.60 12260.40 1443.62 o
3 -9 4 10282.60 10532.10 1694.69 o
3 -9 4 10282.60 8064.87 1304.22 o
3 -9 4 10282.60 12802.60 1051.14 o
-3 9 -4 10282.60 11886.20 1177.27 o
-3 9 -4 10282.60 8723.35 953.35 o
-3 -9 -4 10282.60 9004.01 1722.45 o
3 -9 4 10282.60 5877.13 1069.58 o
-3 9 -4 10282.60 8818.10 1022.04 o
-3 -9 -4 10282.60 8567.42 829.86 o
-3 9 -4 10282.60 9447.79 1275.95 o
3 -9 5 2082.29 2583.54 643.18 o
-3 9 -5 2082.29 2595.53 686.53 o
3 9 5 2082.30 1284.57 491.84 <
-3 -9 -5 2082.30 4185.96 1312.01 o
3 -9 5 2082.29 741.24 619.11 <
-3 9 -5 2082.29 1703.17 961.27 <
3 9 5 2082.30 3884.91 926.33 o
-3 9 -6 7412.90 4971.58 1538.26 o
-3 -9 -6 7412.87 7134.12 1883.25 o
3 -9 6 7412.90 7787.80 1124.94 o
3 -9 6 7412.90 6996.19 1120.64 o
3 9 6 7412.87 7695.45 1282.96 o
3 -9 7 182.17 129.54 551.77 <
-3 -9 -7 182.18 539.74 707.15 <
3 -9 7 182.17 -242.28 594.78 <
-3 9 -7 182.17 -289.06 802.26 <
3 9 7 182.18 752.03 699.36 <
3 -9 8 305.21 155.92 581.84 <
-3 10 10 76.81 23.99 922.36 <
-3 10 9 6396.76 3003.34 1401.17 <
-3 10 9 6396.76 5165.88 1547.14 o
3 10 -9 6396.78 6673.55 1418.23 o
3 -10 -9 6396.76 8629.79 1535.56 o
-3 10 8 13871.20 10262.20 2137.56 o
-3 10 8 13871.20 11777.10 1940.85 o
3 10 -8 13871.20 17031.70 1918.05 o
3 -10 -8 13871.20 14809.20 1871.72 o
-3 -10 8 13871.20 14118.30 1832.97 o
3 -10 -8 13871.20 12075.70 1376.42 o
-3 -10 7 1986.61 1727.16 734.38 <
3 -10 -7 1986.61 1607.22 782.84 <
-3 10 7 1986.61 1023.10 822.99 <
3 -10 -7 1986.61 1159.83 472.64 <
3 10 -7 1986.61 3738.58 985.75 o
-3 10 7 1986.61 1921.46 404.95 o
3 10 -6 25791.40 30031.00 2010.60 o
-3 10 6 25791.30 25356.80 2456.46 o
-3 10 6 25791.30 24943.00 2145.83 o
3 -10 -6 25791.30 25265.70 2179.72 o
-3 10 6 25791.30 26275.60 1840.27 o
-3 10 6 25791.30 26424.30 2769.50 o
-3 10 6 25791.30 23452.20 1300.23 o
-3 -10 6 25791.40 29759.90 1958.02 o
3 -10 -6 25791.30 25590.70 1639.95 o
3 -10 -5 753.71 546.93 365.46 <
-3 -10 5 753.70 978.72 415.02 <
3 10 -5 753.70 -569.72 809.45 <
-3 10 5 753.71 308.25 527.47 <
3 10 -5 753.70 716.05 455.92 <
-3 10 5 753.71 622.50 554.51 <
3 -10 -5 753.71 376.62 350.33 <
-3 10 5 753.71 1057.88 519.20 <
-3 10 5 753.71 527.74 454.10 <
-3 10 5 753.71 880.37 325.46 <
-3 -10 4 1601.35 2216.52 541.48 o
3 10 -4 1601.35 1839.90 510.18 o
-3 10 4 1601.38 3708.59 601.32 o
-3 10 4 1601.38 1770.34 707.87 <
3 10 -4 1601.35 2124.16 546.07 o
-3 10 4 1601.38 2021.01 568.80 o
3 -10 -4 1601.38 2018.62 535.03 o
-3 -10 4 1601.35 802.41 561.39 <
-3 10 4 1601.38 1590.42 556.60 <
-3 10 4 1601.38 1674.38 541.60 o
-3 10 3 37.25 263.87 309.12 <
3 10 -3 37.25 109.15 303.40 <
3 10 -3 37.25 382.61 553.73 <
-3 -10 3 37.25 422.19 283.30 <
-3 10 3 37.25 125.94 448.54 <
3 10 -3 37.25 70.77 316.63 <
-3 10 3 37.25 226.69 346.42 <
-3 10 3 37.25 244.68 277.95 <
3 -10 -3 37.25 124.74 316.58 <
-3 -10 3 37.25 -8.40 443.79 <
-3 10 3 37.25 333.44 350.95 <
-3 -10 3 37.25 130.74 288.98 <
-3 10 3 37.25 -22.79 226.69 <
3 -10 -2 5874.56 5703.22 924.91 o
3 10 -2 5874.50 6805.48 786.57 o
-3 10 2 5874.56 6282.54 769.44 o
-3 -10 2 5874.50 8015.69 933.35 o
-3 10 2 5874.56 5875.94 1056.67 o
-3 -10 2 5874.50 6927.82 1147.84 o
3 -10 -2 5874.56 6365.30 858.71 o
-3 10 2 5874.56 6529.62 883.60 o
-3 -10 2 5874.50 6234.56 991.40 o
3 10 -2 5874.50 6944.61 1023.49 o
3 10 -2 5874.50 6306.53 828.31 o
3 -10 -2 5874.56 5558.09 603.28 o
-3 10 2 5874.56 6070.24 683.15 o
-3 -10 2 5874.50 6480.44 801.90 o
-3 10 2 5874.56 6212.97 900.07 o
3 10 -1 7750.83 8088.86 931.02 o
-3 -10 1 7750.83 9556.94 978.20 o
3 -10 -1 7750.76 8435.49 666.12 o
3 -10 -1 7750.76 8027.69 1049.27 o
3 -10 -1 7750.76 7711.04 975.88 o
-3 -10 1 7750.83 7616.29 721.89 o
-3 -10 1 7750.83 8085.26 1175.99 o
3 -10 -1 7750.76 9565.34 1289.44 o
-3 10 1 7750.76 8580.62 920.14 o
3 10 -1 7750.83 9248.69 891.33 o
3 -10 -1 7750.76 7910.14 949.17 o
-3 10 1 7750.76 7069.35 943.48 o
3 10 -1 7750.83 8999.21 1056.61 o
-3 10 1 7750.76 7380.00 1179.90 o
3 10 -1 7750.83 7712.24 694.29 o
-3 -10 1 7750.83 8812.10 909.77 o
-3 10 1 7750.76 8416.30 723.36 o
-3 -10 1 7750.83 7789.00 950.39 o
3 -10 0 12939.10 11835.80 1329.49 o
-3 -10 0 12939.10 13939.60 1182.91 o
3 -10 0 12939.10 14053.50 851.63 o
3 -10 0 12939.10 8747.34 689.26 o
-3 -10 0 12939.10 14455.40 1692.63 o
3 -10 0 12939.10 14273.00 1552.57 o
3 10 0 12939.10 13378.30 1302.70 o
3 -10 0 12939.10 12727.00 1185.73 o
3 -10 0 12939.10 12694.60 1243.84 o
-3 -10 0 12939.10 12412.70 1016.09 o
3 10 0 12939.10 13612.20 851.75 o
-3 10 0 12939.10 11363.30 1458.47 o
-3 -10 0 12939.10 11521.60 1403.90 o
3 10 0 12939.10 13882.00 1091.27 o
-3 10 0 12939.10 14048.80 886.99 o
-3 -10 0 12939.10 12416.30 799.63 o
-3 10 -1 20852.60 20018.20 1118.81 o
-3 -10 -1 20852.50 21963.70 1518.17 o
3 -10 1 20852.60 19813.10 1166.59 o
-3 -10 -1 20852.50 23463.00 2207.27 o
3 -10 1 20852.60 18347.50 1785.76 o
-3 -10 -1 20852.50 18674.90 1799.99 o
3 10 1 20852.50 22610.20 1976.96 o
3 -10 1 20852.60 19817.90 1473.67 o
3 -10 1 20852.60 22136.40 1614.28 o
3 10 1 20852.50 21056.90 1424.89 o
3 -10 1 20852.60 24902.30 2008.46 o
-3 -10 -1 20852.50 17367.50 1087.63 o
3 -10 1 20852.60 21906.10 1165.55 o
3 10 1 20852.50 21746.60 1616.17 o
-3 10 -1 20852.60 19286.60 1938.66 o
-3 10 -1 20852.60 19112.70 1218.50 o
3 10 2 25733.40 28462.10 1873.06 o
3 -10 2 25733.30 23307.00 2029.08 o
-3 10 -2 25733.30 26717.00 1319.74 o
-3 -10 -2 25733.40 29356.90 2615.09 o
3 10 2 25733.40 26820.10 1695.33 o
3 -10 2 25733.30 26156.80 1890.74 o
-3 10 -2 25733.30 28185.10 1879.64 o
3 -10 2 25733.30 27869.60 1315.83 o
3 -10 2 25733.30 23979.90 2198.09 o
-3 10 -2 25733.30 26729.00 1443.01 o
-3 10 -2 25733.30 24454.90 2354.72 o
3 10 3 3737.51 3304.39 793.74 o
-3 10 -3 3737.59 2830.62 628.64 o
3 -10 3 3737.59 3525.08 600.37 o
-3 10 -3 3737.59 3226.43 639.84 o
-3 10 -3 3737.59 3024.93 670.45 o
-3 10 -3 3737.59 3731.38 624.98 o
3 -10 3 3737.59 3329.58 693.38 o
-3 -10 -3 3737.51 3497.50 1099.34 o
-3 10 -3 3737.59 3155.66 1025.28 o
3 -10 3 3737.59 2828.22 799.01 o
-3 10 -4 20459.90 18878.80 1792.70 o
-3 10 -4 20459.90 22882.40 1522.74 o
3 -10 4 20459.90 25421.60 2431.41 o
-3 -10 -4 20460.00 20643.10 2588.44 o
3 -10 4 20459.90 19754.40 1900.97 o
-3 10 -4 20459.90 20109.40 1496.29 o
-3 10 -4 20459.90 19507.30 2396.23 o
3 10 4 20460.00 18752.90 1881.27 o
3 -10 4 20459.90 11930.60 1574.08 o
-3 -10 -4 20460.00 16615.50 1081.65 o
-3 10 -4 20459.90 23049.20 1524.09 o
3 10 4 20460.00 14211.90 1242.10 o
3 -10 4 20459.90 23153.50 1430.80 o
3 -10 5 352.72 478.57 479.49 <
-3 10 -5 352.72 628.49 619.53 <
-3 -10 -5 352.72 1933.46 1127.53 <
3 10 5 352.72 380.21 401.74 <
3 -10 5 352.72 -659.68 643.02 <
-3 10 -5 352.72 1083.07 927.96 <
3 10 5 352.72 1363.74 742.69 <
-3 10 -6 217.74 537.34 827.20 <
-3 -10 -6 217.73 658.48 1095.77 <
3 -10 6 217.74 2386.84 773.30 o
3 -10 6 217.74 444.98 624.57 <
3 10 6 217.73 765.23 634.48 <
3 -10 7 1390.08 1099.86 678.90 <
-3 10 -7 1390.08 987.12 1254.25 <
3 10 7 1390.09 2073.79 845.61 <
3 -10 7 1390.08 2665.10 843.50 o
-3 11 10 4634.48 1710.37 1212.66 <
-3 11 9 38.18 -840.79 948.60 <
3 -11 -9 38.18 929.55 811.54 <
3 -11 -8 64.40 313.05 427.87 <
-3 11 8 64.40 454.58 806.83 <
3 11 -8 64.42 1869.89 954.99 <
3 -11 -8 64.40 337.04 657.03 <
-3 -11 8 64.42 858.78 710.86 <
-3 -11 7 226.50 -70.77 495.42 <
-3 11 7 226.49 -326.24 779.43 <
3 11 -7 226.50 953.53 703.49 <
3 -11 -7 226.49 1059.08 743.94 <
3 -11 -7 226.49 381.41 318.66 <
3 11 -6 12539.80 13473.00 1472.18 o
-3 11 6 12539.80 11190.50 1439.34 o
-3 11 6 12539.80 11428.00 1691.90 o
-3 11 6 12539.80 12771.40 1970.66 o
3 -11 -6 12539.80 9895.18 1196.83 o
-3 11 6 12539.80 11275.70 945.09 o
3 -11 -6 12539.80 12069.70 1170.48 o
-3 -11 6 12539.80 13459.80 1444.52 o
-3 11 5 2752.01 2389.24 516.40 o
-3 -11 5 2751.93 2609.93 683.79 o
3 11 -5 2751.93 989.52 766.78 <
-3 11 5 2752.01 1789.53 785.85 <
3 11 -5 2751.93 3035.72 728.90 o
-3 11 5 2752.01 3595.85 854.56 o
3 -11 -5 2752.01 2559.55 649.55 o
-3 11 5 2752.01 2003.02 624.22 o
3 -11 -5 2752.01 2450.41 522.89 o
-3 11 4 16142.10 15724.30 1455.07 o
3 11 -4 16142.30 16397.20 1415.47 o
-3 11 4 16142.10 13641.00 1348.24 o
3 -11 -4 16142.10 15201.40 1333.89 o
-3 11 4 16142.10 18116.00 1476.67 o
-3 11 4 16142.10 17766.90 1919.16 o
-3 11 4 16142.10 18304.30 1164.30 o
3 11 -4 16142.30 14604.10 1759.17 o
-3 -11 4 16142.30 17416.70 1360.85 o
-3 11 3 25063.10 24897.50 1801.04 o
-3 -11 3 25062.90 25245.30 2293.28 o
3 11 -3 25062.90 26395.50 1675.95 o
-3 11 3 25063.10 19928.30 1440.28 o
-3 -11 3 25062.90 23669.30 2190.12 o
3 -11 -3 25063.10 24530.40 1676.54 o
-3 -11 3 25062.90 23548.10 1254.39 o
-3 11 3 25063.10 25214.10 1822.91 o
-3 11 3 25063.10 25900.20 1518.52 o
-3 11 3 25063.10 28965.90 2216.48 o
-3 11 3 25063.10 23852.80 1697.23 o
3 11 -3 25062.90 29559.60 2058.74 o
-3 11 3 25063.10 25152.90 1455.97 o
-3 -11 3 25062.90 24507.70 1586.12 o
3 11 -3 25062.90 27177.60 1662.62 o
-3 -11 2 4545.00 5271.43 730.53 o
3 -11 -2 4544.89 4979.97 867.37 o
3 11 -2 4545.00 4803.66 705.92 o
-3 11 2 4544.89 5061.53 683.25 o
3 -11 -2 4544.89 4273.52 558.05 o
-3 -11 2 4545.00 6283.74 910.98 o
3 11 -2 4545.00 4356.28 735.57 o
-3 11 2 4544.89 4448.63 963.01 o
3 -11 -2 4544.89 4524.19 601.28 o
-3 -11 2 4545.00 5283.42 941.70 o
3 -11 -2 4544.89 4376.67 742.45 o
-3 -11 2 4545.00 4833.64 998.23 o
-3 11 2 4544.89 4795.26 831.40 o
3 11 -2 4545.00 6392.88 1026.01 o
-3 11 2 4544.89 4942.79 639.34 o
3 -11 -1 26286.50 32595.30 502.27 o
-3 -11 1 26286.50 32086.80 1645.14 o
3 -11 -1 26286.50 27657.30 1245.89 o
3 -11 -1 26286.50 27768.90 1922.00 o
3 -11 -1 26286.50 27569.80 1793.90 o
-3 -11 1 26286.50 24752.30 1301.74 o
-3 -11 1 26286.50 28726.00 2219.64 o
3 -11 -1 26286.50 25741.90 1781.07 o
3 -11 -1 26286.50 28446.50 2219.86 o
3 11 -1 26286.50 26328.40 1253.68 o
3 11 -1 26286.50 29052.20 1826.76 o
-3 11 1 26286.50 26116.10 2175.87 o
-3 -11 1 26286.50 28616.80 1614.23 o
-3 11 1 26286.50 27374.30 1327.22 o
3 11 -1 26286.50 28778.80 1553.47 o
-3 11 1 26286.50 28582.10 1630.96 o
-3 -11 1 26286.50 25034.20 1781.42 o
3 11 0 2160.28 2714.28 604.97 o
3 11 0 2160.28 3018.93 743.30 o
-3 11 0 2160.32 2605.13 475.48 o
-3 -11 0 2160.28 2017.42 623.63 o
3 -11 0 2160.32 2256.10 558.01 o
3 -11 0 2160.32 2910.98 851.97 o
-3 -11 0 2160.28 2667.50 584.94 o
-3 -11 0 2160.28 1867.49 499.33 o
3 -11 0 2160.32 789.22 286.93 <
-3 11 0 2160.32 2223.72 705.98 o
3 -11 0 2160.32 1905.87 306.25 o
-3 -11 0 2160.28 3492.70 954.17 o
3 -11 0 2160.32 2413.22 644.29 o
3 -11 0 2160.32 2720.27 702.83 o
3 11 0 2160.28 2355.65 372.55 o
3 11 1 414.49 579.32 478.13 <
3 11 1 414.49 731.64 422.27 <
3 -11 1 414.42 335.84 337.24 <
-3 11 -1 414.42 213.50 263.19 <
-3 -11 -1 414.49 182.31 260.83 <
3 -11 1 414.42 482.17 388.42 <
-3 11 -1 414.42 446.18 302.14 <
3 -11 1 414.42 277.07 276.25 <
-3 11 -1 414.42 899.56 675.20 <
3 -11 1 414.42 568.52 464.96 <
-3 -11 -1 414.49 870.78 740.18 <
3 -11 1 414.42 -19.19 451.28 <
3 11 2 1691.63 1681.58 593.78 <
3 -11 2 1691.71 2340.06 499.58 o
-3 11 -2 1691.71 2158.95 519.84 o
-3 11 -2 1691.71 1464.49 388.38 o
3 -11 2 1691.71 1258.19 575.86 <
3 -11 2 1691.71 1089.07 589.69 <
-3 -11 -2 1691.63 2501.98 942.95 <
-3 11 -2 1691.71 2066.59 819.47 <
3 -11 2 1691.71 1932.26 641.22 o
-3 11 -2 1691.71 1447.69 576.08 <
3 11 3 5636.04 5555.69 981.02 o
-3 11 -3 5636.19 4063.62 751.45 o
-3 11 -3 5636.19 5845.95 778.29 o
3 -11 3 5636.19 6382.09 966.23 o
-3 -11 -3 5636.04 6079.84 1495.05 o
-3 -11 -3 5636.04 4563.78 514.59 o
-3 11 -3 5636.19 4856.43 1243.12 o
3 -11 3 5636.19 4819.25 1006.68 o
3 -11 3 5636.19 6404.88 805.23 o
-3 11 -3 5636.19 5716.41 970.40 o
3 -11 4 1589.94 1781.13 493.77 o
-3 11 -4 1589.94 1926.26 701.97 <
-3 11 -4 1589.94 1597.62 540.88 <
-3 11 -4 1589.94 1949.05 587.43 o
3 -11 4 1589.94 2115.77 905.26 <
3 -11 4 1589.94 1013.51 573.84 <
-3 -11 -4 1589.98 1409.31 988.96 <
3 -11 4 1589.94 167.92 492.63 <
3 11 4 1589.98 945.14 309.31 o
-3 11 -4 1589.94 1442.90 883.37 <
3 11 4 1589.98 978.72 526.25 <
3 -11 5 3820.30 3846.52 793.71 o
-3 11 -5 3820.30 4664.53 892.06 o
-3 -11 -5 3820.38 3929.28 1443.39 <
3 -11 5 3820.30 1717.56 686.10 <
-3 11 -5 3820.30 3050.11 1231.97 <
3 11 5 3820.38 4714.90 1044.04 o
-3 11 -6 8790.84 8293.96 1990.11 o
-3 11 -6 8790.84 9940.75 1377.10 o
-3 -11 -6 8790.77 10480.50 2270.84 o
3 -11 6 8790.84 9553.34 1409.28 o
3 -11 6 8790.84 11473.60 1332.76 o
3 11 6 8790.77 10079.90 1460.98 o
3 -11 7 686.12 513.35 594.11 <
-3 11 -7 686.12 -289.06 761.93 <
3 -11 7 686.12 140.33 605.20 <
-3 11 -7 686.12 1327.75 1292.84 <
3 11 7 686.15 2030.61 937.31 <
-3 12 9 1369.50 1949.05 1130.09 <
3 -12 -9 1369.50 2122.97 1067.91 <
-3 -12 8 1122.05 2212.92 871.23 <
-3 12 8 1122.06 1577.23 1028.79 <
3 12 -8 1122.05 2739.46 1006.25 <
3 -12 -8 1122.06 122.34 715.18 <
-3 -12 7 117.12 95.95 574.53 <
-3 12 7 117.12 -188.31 772.35 <
3 12 -7 117.12 -599.71 734.38 <
3 -12 -7 117.12 871.97 742.13 <
3 -12 -7 117.12 250.68 378.84 <
-3 12 6 1248.97 1191.02 419.00 <
3 -12 -6 1248.97 1583.23 498.99 o
-3 -12 6 1248.96 2006.62 730.89 <
3 12 -6 1248.96 1006.31 843.94 <
-3 12 6 1248.97 617.70 754.90 <
3 12 -6 1248.96 1896.28 731.68 <
-3 12 6 1248.97 1366.13 789.94 <
3 -12 -6 1248.97 1606.02 544.60 <
-3 12 6 1248.97 1162.23 619.30 <
-3 12 5 8757.65 7745.82 1123.47 o
3 12 -5 8757.56 6323.32 1300.24 o
3 12 -5 8757.56 8500.26 1162.01 o
-3 12 5 8757.65 7759.02 1213.11 o
3 -12 -5 8757.65 8021.69 1040.82 o
-3 12 5 8757.65 8183.61 1475.92 o
-3 12 5 8757.65 8044.48 870.42 o
-3 -12 5 8757.56 9327.85 1141.74 o
-3 12 4 5078.22 5139.49 802.67 o
-3 -12 4 5078.29 5598.87 856.90 o
3 12 -4 5078.29 3168.86 784.19 o
-3 12 4 5078.22 5891.53 1254.27 o
3 12 -4 5078.29 5789.58 924.14 o
-3 12 4 5078.22 4771.27 845.05 o
3 -12 -4 5078.22 4898.41 827.79 o
-3 12 4 5078.22 4363.47 807.45 o
-3 12 4 5078.22 7685.85 891.30 o
-3 12 3 4817.12 5205.46 740.88 o
-3 -12 3 4817.11 4692.11 764.69 o
-3 12 3 4817.12 3547.87 697.63 o
-3 12 3 4817.12 4790.46 1050.98 o
3 12 -3 4817.11 4955.98 826.82 o
3 -12 -3 4817.12 5096.32 878.96 o
-3 12 3 4817.12 4404.25 829.44 o
-3 -12 3 4817.11 4694.51 574.55 o
-3 -12 3 4817.11 5090.32 1171.43 o
3 -12 -3 4817.12 5326.60 833.26 o
-3 12 3 4817.12 3647.42 621.81 o
3 -12 -3 4817.12 4382.66 628.85 o
-3 -12 3 4817.11 4268.72 1076.53 o
3 12 -3 4817.11 7386.00 1159.19 o
-3 12 3 4817.12 4286.71 662.32 o
-3 -12 2 2138.91 2052.20 554.91 o
-3 12 2 2138.92 2226.11 544.89 o
3 -12 -2 2138.92 1585.63 529.80 o
3 12 -2 2138.91 1486.08 482.93 o
-3 12 2 2138.92 1646.80 667.69 <
3 -12 -2 2138.92 2711.88 550.27 o
-3 12 2 2138.92 2096.58 535.34 o
-3 -12 2 2138.91 2233.31 771.78 <
3 -12 -2 2138.92 1827.91 592.55 o
-3 -12 2 2138.91 2623.12 833.77 o
3 12 -2 2138.91 4220.74 992.31 o
-3 12 1 2111.21 2116.97 492.90 o
3 12 -1 2111.26 2097.78 543.46 o
3 12 -1 2111.26 1908.27 637.20 o
3 -12 -1 2111.21 2615.92 660.00 o
-3 12 1 2111.21 1925.06 748.42 <
-3 -12 1 2111.26 2904.98 633.80 o
3 -12 -1 2111.21 1667.19 356.89 o
-3 -12 1 2111.26 1835.11 589.88 o
-3 12 1 2111.21 2210.52 565.21 o
-3 -12 1 2111.26 2559.55 763.04 o
3 -12 -1 2111.21 2354.45 619.16 o
3 -12 -1 2111.21 1976.64 657.08 o
3 12 -1 2111.26 2216.52 417.28 o
-3 -12 1 2111.26 1907.07 381.56 o
3 12 0 3455.53 3567.06 440.44 o
3 12 0 3455.53 3604.24 686.62 o
3 12 0 3455.53 4465.42 894.44 o
3 -12 0 3455.52 3862.12 749.60 o
-3 12 0 3455.52 4398.26 632.03 o
-3 -12 0 3455.53 3144.87 626.38 o
-3 12 0 3455.52 3660.62 949.28 o
3 -12 0 3455.52 2811.43 429.63 o
-3 -12 0 3455.53 3886.11 1075.89 o
3 -12 0 3455.52 3258.81 798.38 o
3 -12 0 3455.52 3687.00 808.33 o
3 -12 1 9775.65 8130.84 1260.48 o
-3 12 -1 9775.65 9570.13 882.18 o
-3 -12 -1 9775.61 10607.60 1645.10 o
3 -12 1 9775.65 7552.72 832.21 o
3 -12 1 9775.65 9739.25 1226.50 o
-3 12 -1 9775.65 10486.50 922.78 o
-3 -12 -1 9775.61 7630.68 858.78 o
3 -12 1 9775.65 10021.10 1104.17 o
3 12 1 9775.61 10159.00 1252.03 o
3 -12 1 9775.65 11610.30 936.77 o
-3 12 -1 9775.65 9108.36 1511.59 o
3 12 2 4987.45 4356.28 906.03 o
-3 12 -2 4987.53 4934.39 681.00 o
3 -12 2 4987.53 4326.29 997.97 o
3 -12 2 4987.53 3924.49 659.65 o
-3 -12 -2 4987.45 6379.69 1483.61 o
-3 12 -2 4987.53 5167.08 1279.26 o
3 -12 2 4987.53 5177.88 1042.45 o
3 -12 2 4987.53 5552.09 737.45 o
-3 12 -2 4987.53 5361.39 786.86 o
3 12 3 4622.20 4627.34 964.27 o
3 -12 3 4622.32 4809.66 750.39 o
-3 12 -3 4622.32 3153.26 687.03 o
3 -12 3 4622.32 5584.48 870.11 o
-3 12 -3 4622.32 5203.06 747.55 o
3 -12 3 4622.32 4545.78 1138.98 o
-3 -12 -3 4622.20 7213.28 1575.15 o
-3 -12 -3 4622.20 4184.76 517.41 o
-3 12 -3 4622.32 4052.82 1192.29 o
3 -12 3 4622.32 5440.55 1072.45 o
-3 12 -3 4622.32 2469.60 713.14 o
3 -12 4 204.29 610.50 437.93 <
-3 12 -4 204.29 754.43 532.33 <
3 -12 4 204.29 219.49 722.04 <
3 -12 4 204.29 1188.62 644.54 <
-3 -12 -4 204.31 -429.39 830.84 <
3 -12 4 204.29 519.35 517.54 <
-3 12 -4 204.29 693.26 782.42 <
3 12 4 204.31 -591.31 674.39 <
3 -12 5 605.33 -39.58 446.83 <
-3 12 -5 605.33 1508.86 636.39 <
-3 -12 -5 605.34 1079.47 957.24 <
3 -12 5 605.33 -382.61 647.73 <
-3 12 -5 605.33 614.10 1001.50 <
3 12 5 605.34 1426.10 768.28 <
3 -12 6 3119.26 4689.71 949.13 o
-3 12 -6 3119.26 3395.54 897.12 o
-3 -12 -6 3119.27 4145.18 1671.19 <
-3 12 -6 3119.26 2306.48 1384.16 <
3 -12 6 3119.26 3407.54 1017.25 o
3 12 6 3119.27 4677.72 1140.28 o
3 -12 7 2870.33 3676.21 936.93 o
-3 12 -7 2870.33 2817.43 980.29 <
-3 12 -7 2870.33 1438.10 1428.32 <
3 -12 7 2870.33 2078.59 852.03 <
-3 13 9 2791.94 2851.01 1254.27 <
3 13 -8 11048.60 13055.60 1776.65 o
3 -13 -8 11048.60 11216.90 1687.31 o
-3 13 8 11048.60 11566.00 2190.88 o
-3 -13 8 11048.60 14455.40 1863.92 o
3 13 -7 20665.00 23524.10 2147.98 o
3 -13 -7 20665.00 20634.70 2177.63 o
-3 13 7 20665.00 20773.90 2688.27 o
-3 -13 7 20665.00 24120.20 2171.28 o
-3 -13 6 4856.17 6425.27 1116.11 o
3 13 -6 4856.17 3234.82 1228.23 <
-3 13 6 4856.24 5469.33 1377.31 o
3 13 -6 4856.17 4185.96 972.85 o
-3 13 6 4856.24 4976.37 722.48 o
3 -13 -6 4856.24 4834.84 871.06 o
3 13 -5 11848.10 9621.71 1690.67 o
3 13 -5 11848.10 11300.90 1336.69 o
-3 13 5 11848.30 9991.13 1348.89 o
3 -13 -5 11848.30 10666.40 1228.82 o
-3 13 5 11848.30 13291.90 1903.08 o
-3 13 5 11848.30 11522.80 1339.35 o
-3 13 5 11848.30 11715.90 1094.89 o
-3 -13 5 11848.10 11792.70 1337.33 o
-3 13 4 16038.70 17180.40 1503.75 o
3 -13 -4 16038.70 14766.00 1273.57 o
3 13 -4 16038.80 17459.90 1531.46 o
-3 13 4 16038.70 13276.30 1327.49 o
-3 -13 4 16038.80 16566.30 1430.87 o
3 -13 -4 16038.70 15420.90 1428.03 o
-3 13 4 16038.70 17322.00 2009.68 o
3 13 -4 16038.80 13513.80 1823.48 o
-3 13 4 16038.70 19341.80 1336.35 o
-3 13 3 360.00 213.50 361.28 <
-3 -13 3 360.01 389.81 450.92 <
3 13 -3 360.01 1384.13 789.57 <
-3 13 3 360.00 -1090.27 710.79 <
3 -13 -3 360.00 434.19 347.62 <
3 13 -3 360.01 142.73 422.46 <
-3 13 3 360.00 46.78 513.57 <
3 -13 -3 360.00 -188.31 459.46 <
-3 -13 3 360.01 545.73 527.33 <
3 -13 -3 360.00 296.26 391.13 <
-3 -13 3 360.01 425.79 272.03 <
-3 -13 3 360.01 -97.15 507.52 <
-3 13 2 65110.30 65104.30 3694.46 o
3 -13 -2 65110.30 76992.90 1599.65 o
3 -13 -2 65110.30 57270.90 2607.91 o
-3 -13 2 65110.10 69692.00 3619.87 o
3 -13 -2 65110.30 61593.60 2998.44 o
3 -13 -2 65110.30 61781.90 3201.49 o
-3 13 2 65110.30 66821.80 2329.16 o
-3 13 2 65110.30 69314.20 2289.64 o
3 13 -2 65110.10 71837.80 2964.93 o
-3 -13 2 65110.10 69377.80 2615.17 o
-3 -13 2 65110.10 61899.40 3423.97 o
3 13 -2 65110.10 67048.50 2840.20 o
3 -13 -1 12136.80 13000.50 906.94 o
-3 -13 1 12136.80 9691.28 831.08 o
3 -13 -1 12136.80 11564.80 1294.70 o
3 -13 -1 12136.80 12084.10 1379.24 o
-3 -13 1 12136.80 13375.90 1699.83 o
3 -13 -1 12136.80 11703.90 1329.85 o
-3 13 1 12136.80 11670.30 1174.76 o
-3 13 1 12136.80 12783.40 1023.41 o
3 13 -1 12136.80 10498.50 860.45 o
3 13 -1 12136.80 13265.50 1431.91 o
-3 -13 1 12136.80 13243.90 1265.01 o
-3 13 1 12136.80 11727.90 1634.75 o
-3 -13 1 12136.80 10643.60 1271.98 o
3 -13 0 24465.10 23273.50 1949.31 o
3 13 0 24465.00 27467.80 1998.51 o
3 -13 0 24465.10 22994.00 1284.85 o
-3 -13 0 24465.00 28909.50 2535.43 o
3 -13 0 24465.10 25590.70 1763.30 o
3 -13 0 24465.10 25911.00 1935.16 o
-3 -13 0 24465.00 21956.50 1663.09 o
-3 13 0 24465.10 25209.30 2336.65 o
-3 13 0 24465.10 28344.60 1374.86 o
3 -13 1 9.41 287.86 345.05 <
3 13 1 9.41 290.26 550.29 <
-3 13 -1 9.41 268.67 329.49 <
-3 -13 -1 9.41 332.24 450.59 <
-3 13 -1 9.41 -206.30 296.00 <
-3 13 -1 9.41 471.37 625.53 <
3 -13 1 9.41 331.04 485.41 <
-3 -13 -1 9.41 295.06 616.28 <
3 -13 1 9.41 70.77 275.84 <
3 -13 1 9.41 17.99 449.78 <
3 -13 1 9.41 -16.79 339.43 <
3 -13 2 2225.12 2296.88 543.82 o
3 13 2 2225.18 2109.77 748.03 <
-3 13 -2 2225.12 2324.47 586.78 o
-3 13 -2 2225.12 1573.63 463.06 o
3 -13 2 2225.12 1433.30 448.63 o
3 -13 2 2225.12 2444.41 842.91 <
-3 -13 -2 2225.18 2218.92 1041.12 <
-3 13 -2 2225.12 1956.25 938.15 <
3 -13 2 2225.12 1686.38 638.28 <
-3 13 -3 9653.38 7248.07 1013.66 o
-3 13 -3 9653.38 9884.38 1037.06 o
-3 -13 -3 9653.35 10948.30 2105.10 o
3 -13 3 9653.38 8947.64 1142.35 o
3 -13 3 9653.38 8568.62 1356.99 o
-3 -13 -3 9653.35 8151.23 781.05 o
-3 13 -3 9653.38 8307.15 1642.52 o
3 13 3 9653.35 10426.50 1411.60 o
3 -13 3 9653.38 11149.80 1075.67 o
3 -13 3 9653.38 8141.63 1538.98 o
-3 13 -4 36131.80 39122.50 2075.41 o
-3 13 -4 36131.80 33187.80 3516.46 o
3 13 4 36131.60 35507.50 2692.24 o
-3 -13 -4 36131.60 40727.30 3895.40 o
3 -13 4 36131.80 42692.00 1987.64 o
3 -13 5 2815.54 2035.41 655.47 o
-3 13 -5 2815.54 1631.20 1124.19 <
-3 13 -5 2815.54 2986.54 830.95 o
-3 -13 -5 2815.54 1284.57 1136.86 <
3 -13 5 2815.54 791.61 563.32 <
3 13 5 2815.54 3541.87 1043.99 o
-3 13 -6 13569.40 16465.60 1735.72 o
3 -13 6 13569.40 13048.40 1795.16 o
3 13 6 13569.40 17499.50 2000.04 o
-3 13 -6 13569.40 12409.20 2566.28 o
3 -13 6 13569.40 15406.50 1612.85 o
3 -13 7 1281.26 1802.72 807.08 <
-3 14 9 29710.20 30618.70 3537.63 o
-3 14 8 57.30 540.94 861.87 <
3 -14 -8 57.30 -145.13 784.37 <
-3 -14 7 3599.45 5360.19 1116.73 o
3 14 -7 3599.45 2016.22 1193.15 <
-3 14 7 3599.43 4976.37 1521.88 o
3 14 -7 3599.45 5483.73 1184.62 o
3 14 -6 36654.20 41395.40 2567.49 o
-3 -14 6 36654.20 39598.70 2546.92 o
3 -14 -6 36654.30 33734.80 2340.82 o
3 14 -6 36654.20 36898.80 3455.26 o
-3 14 6 36654.30 37040.30 1918.11 o
-3 14 6 36654.30 41249.10 3418.46 o
-3 14 5 22487.30 22399.10 1824.52 o
3 14 -5 22487.20 23626.10 1925.93 o
3 -14 -5 22487.30 21579.90 1740.37 o
-3 14 5 22487.30 24668.40 2496.66 o
-3 14 5 22487.30 23513.30 1568.86 o
3 14 -5 22487.20 18981.90 2452.17 o
-3 -14 5 22487.20 22928.00 1849.71 o
3 -14 -4 63511.60 59317.10 3534.54 o
3 -14 -4 63511.60 60343.80 2765.06 o
3 14 -4 63511.70 66640.70 2942.37 o
-3 14 4 63511.60 53961.70 3031.38 o
-3 -14 4 63511.70 63464.70 3999.44 o
3 -14 -4 63511.60 62270.00 2919.31 o
-3 14 4 63511.60 63843.70 3952.44 o
-3 14 4 63511.60 66604.70 2542.74 o
3 14 -4 63511.70 61921.00 3928.09 o
-3 -14 4 63511.70 67162.50 2781.22 o
-3 14 4 63511.60 69092.30 2824.25 o
3 -14 -3 26558.20 24352.90 1603.52 o
3 -14 -3 26558.20 28209.00 1947.55 o
3 14 -3 26558.30 26642.60 1924.66 o
-3 -14 3 26558.30 27761.70 2566.12 o
-3 14 3 26558.20 27831.20 2549.71 o
3 -14 -3 26558.20 26161.60 1895.13 o
-3 -14 3 26558.30 22245.60 1365.08 o
3 14 -3 26558.30 31585.40 2382.64 o
-3 14 3 26558.20 23292.60 1951.22 o
-3 -14 3 26558.30 28069.90 1834.14 o
-3 -14 2 171.07 636.89 485.86 <
3 -14 -2 171.05 9.60 392.27 <
3 14 -2 171.07 2240.51 912.75 <
3 14 -2 171.07 434.19 432.48 <
3 -14 -2 171.05 248.28 322.52 <
-3 14 2 171.05 197.90 512.13 <
3 -14 -2 171.05 882.77 466.61 <
-3 14 2 171.05 430.59 470.92 <
-3 -14 2 171.07 202.70 447.35 <
3 -14 -2 171.05 419.80 515.36 <
-3 -14 2 171.07 37.18 478.62 <
-3 14 2 171.05 562.53 414.02 <
3 14 -1 63.83 399.40 259.38 <
-3 14 1 63.83 185.91 306.91 <
3 14 -1 63.83 361.02 521.39 <
3 -14 -1 63.83 548.13 370.61 <
3 -14 -1 63.83 482.17 470.64 <
-3 -14 1 63.83 85.16 480.96 <
-3 14 1 63.83 431.79 583.65 <
3 -14 -1 63.83 40.78 277.08 <
-3 -14 1 63.83 -201.50 557.60 <
3 -14 -1 63.83 379.02 485.34 <
-3 -14 1 63.83 27.59 207.51 <
-3 14 1 63.83 261.47 363.17 <
3 -14 -1 63.83 714.85 531.08 <
-3 -14 1 63.83 296.26 432.71 <
-3 -14 0 83382.10 71318.40 3612.09 o
3 -14 0 83382.10 79198.60 3831.22 o
3 -14 0 83382.10 84146.20 2468.01 o
-3 -14 0 83382.10 95529.80 4346.94 o
3 -14 0 83382.10 80736.20 3390.12 o
3 -14 0 83382.10 82107.20 3651.29 o
-3 14 0 83382.10 93167.00 2066.92 o
3 14 0 83382.10 91629.30 3413.01 o
-3 14 0 83382.10 76974.90 4423.33 o
3 -14 1 12267.90 12727.00 1068.99 o
-3 -14 -1 12268.00 13464.60 1963.62 o
3 -14 1 12267.90 10416.90 1031.01 o
3 -14 1 12267.90 10292.20 1451.54 o
3 -14 1 12267.90 12121.30 1484.17 o
-3 -14 -1 12268.00 10643.60 1099.48 o
3 14 1 12268.00 12850.50 1478.96 o
3 -14 1 12267.90 12064.90 1255.71 o
3 -14 1 12267.90 14730.00 1158.08 o
-3 14 -1 12267.90 12957.30 1103.74 o
-3 14 -1 12267.90 11413.60 1786.21 o
3 -14 2 92100.60 81644.20 4693.26 o
-3 14 -2 92100.60 88263.80 5095.28 o
-3 14 -2 92100.60 95996.40 2777.80 o
-3 -14 -2 92100.60 108212.00 5098.79 o
3 -14 2 92100.60 99099.30 2651.02 o
3 -14 2 92100.60 88574.40 4190.21 o
3 14 2 92100.60 101052.00 3601.23 o
3 -14 2 92100.60 105582.00 2183.87 o
-3 14 -2 92100.60 96268.70 2894.90 o
3 14 3 349.36 981.12 730.04 <
-3 14 -3 349.36 47.98 364.92 <
3 -14 3 349.36 852.78 802.58 <
3 -14 3 349.36 -47.98 404.43 <
-3 -14 -3 349.36 -297.45 749.55 <
3 -14 3 349.36 -4.80 392.46 <
-3 14 -3 349.36 450.98 724.31 <
3 -14 3 349.36 464.17 671.50 <
-3 -14 -3 349.36 728.04 353.48 <
3 14 4 5976.32 6091.83 1200.42 o
-3 14 -4 5976.30 6569.20 979.10 o
-3 -14 -4 5976.32 5488.52 1632.86 o
3 -14 4 5976.30 2025.81 805.58 <
-3 14 -4 5976.30 7893.35 1824.10 o
3 -14 4 5976.30 7544.32 1019.08 o
-3 14 -5 15411.10 17559.40 1604.34 o
-3 14 -5 15411.10 16370.80 2642.75 o
-3 -14 -5 15411.10 12116.50 2471.46 o
3 -14 5 15411.10 10345.00 1673.09 o
3 14 5 15411.10 14492.50 1964.53 o
3 -14 5 15411.10 17571.40 1577.97 o
-3 14 -6 10250.60 13855.60 1582.67 o
3 -14 6 10250.60 10109.90 1682.42 o
3 -14 6 10250.60 10875.10 1420.89 o
3 15 -8 10497.10 5380.58 1846.85 <
3 -15 -8 10497.00 9865.19 1718.08 o
-3 15 8 10497.00 12495.50 2337.50 o
3 15 -7 27593.60 32145.50 2521.32 o
3 -15 -7 27593.60 23307.00 2060.88 o
3 15 -7 27593.60 22936.40 3076.83 o
-3 -15 7 27593.60 34152.10 2501.43 o
-3 15 7 27593.60 31696.90 3253.42 o
3 15 -6 15527.00 13691.30 2203.33 o
3 15 -6 15527.00 15965.40 1788.64 o
3 -15 -6 15526.90 13046.00 1493.28 o
-3 -15 6 15527.00 17372.30 1762.30 o
-3 15 6 15526.90 18383.40 2419.50 o
3 15 -5 16775.30 17098.90 1741.19 o
3 -15 -5 16775.30 16902.20 1563.16 o
-3 15 5 16775.30 17846.10 1451.84 o
-3 15 5 16775.30 16725.80 2225.81 o
3 15 -5 16775.30 15665.60 2192.90 o
-3 -15 5 16775.30 17149.20 1666.44 o
-3 -15 4 5779.74 5537.70 915.13 o
3 15 -4 5779.74 5355.39 1008.28 o
-3 15 4 5779.70 5553.29 1199.57 o
3 -15 -4 5779.70 4824.05 1039.31 o
3 15 -4 5779.74 3751.77 932.56 o
3 -15 -4 5779.70 5176.68 935.51 o
-3 -15 4 5779.74 5031.55 1260.93 o
-3 15 4 5779.70 8383.91 1070.02 o
-3 15 3 9034.45 7409.99 1097.30 o
3 -15 -3 9034.45 9844.80 1210.52 o
3 -15 -3 9034.45 9657.69 982.43 o
-3 -15 3 9034.50 10962.70 1718.78 o
3 -15 -3 9034.45 9362.64 1210.20 o
-3 15 3 9034.45 11431.60 1723.20 o
3 15 -3 9034.50 14821.20 1766.48 o
-3 -15 3 9034.50 9029.20 1138.35 o
3 15 -3 9034.50 8357.53 1125.52 o
3 -15 -2 82224.40 74134.70 3922.28 o
3 15 -2 82224.60 83263.40 3446.42 o
3 -15 -2 82224.40 101746.00 1259.47 o
3 -15 -2 82224.40 86804.10 2510.30 o
-3 -15 2 82224.60 87559.70 4279.61 o
3 -15 -2 82224.40 79279.00 3590.78 o
-3 15 2 82224.40 83240.60 2822.24 o
3 15 -2 82224.60 92922.30 3436.26 o
-3 -15 2 82224.60 88250.60 3095.01 o
-3 15 2 82224.40 79377.30 4457.18 o
-3 -15 2 82224.60 75305.30 4123.91 o
-3 15 1 32980.30 32079.60 1966.97 o
3 -15 -1 32980.30 35862.50 1689.38 o
3 -15 -1 32980.30 36516.20 1665.01 o
3 -15 -1 32980.30 29726.30 2223.17 o
3 -15 -1 32980.30 31276.00 2292.06 o
-3 -15 1 32980.50 36611.00 2886.39 o
3 -15 -1 32980.30 30452.00 2309.84 o
3 15 -1 32980.50 25903.80 1584.31 o
3 15 -1 32980.50 36064.00 2429.91 o
3 15 -1 32980.50 28086.70 2901.93 o
-3 -15 1 32980.50 29599.20 2281.77 o
-3 -15 1 32980.50 34911.40 2099.00 o
-3 15 1 32980.30 35989.70 1757.98 o
-3 15 1 32980.30 33698.80 2805.33 o
3 -15 0 35201.10 34318.90 2474.21 o
3 -15 0 35201.10 36648.10 1710.41 o
3 15 0 35201.10 39845.80 2506.18 o
3 -15 0 35201.10 35075.70 2203.33 o
3 -15 0 35201.10 33253.80 2472.17 o
-3 -15 0 35201.10 43775.10 3189.65 o
-3 -15 0 35201.10 29624.40 2207.74 o
-3 15 0 35201.10 30893.30 2217.99 o
-3 15 0 35201.10 39394.80 1787.33 o
-3 15 0 35201.10 33860.70 2923.79 o
3 -15 1 2.54 -209.90 425.61 <
3 15 1 2.54 215.90 571.99 <
-3 15 -1 2.54 -113.94 392.15 <
3 -15 1 2.54 -428.19 458.66 <
3 -15 1 2.54 251.88 384.75 <
-3 15 -1 2.54 594.91 768.09 <
3 -15 1 2.54 -221.89 437.58 <
-3 -15 -1 2.54 194.30 699.17 <
3 -15 1 2.54 337.04 356.92 <
3 -15 1 2.54 488.16 638.69 <
3 -15 2 12137.60 10088.30 1636.32 o
-3 15 -2 12137.60 11862.20 1155.89 o
3 15 2 12137.70 14764.80 1650.95 o
-3 -15 -2 12137.70 15462.90 2282.00 o
3 -15 2 12137.60 11663.10 1197.52 o
3 -15 2 12137.60 10335.40 1241.71 o
-3 15 -2 12137.60 11519.20 1887.53 o
3 -15 2 12137.60 12525.50 1615.68 o
3 -15 2 12137.60 14704.80 1269.42 o
-3 15 -3 27487.50 23436.60 2883.07 o
-3 15 -3 27487.50 27960.80 1810.55 o
-3 -15 -3 27487.60 30513.10 3295.18 o
3 -15 3 27487.50 32443.00 1829.55 o
3 -15 3 27487.50 21775.40 2364.07 o
-3 -15 -3 27487.60 22862.10 1528.64 o
3 15 3 27487.60 30232.50 2393.83 o
3 -15 3 27487.50 23834.80 2618.43 o
-3 15 -4 35510.80 39584.30 2195.13 o
-3 -15 -4 35510.90 37593.30 3925.77 o
-3 15 -4 35510.80 34942.60 3613.93 o
3 15 4 35510.90 39145.30 2837.45 o
3 -15 4 35510.80 43355.30 2114.35 o
3 -15 4 35510.80 30827.40 3296.79 o
3 -15 5 7403.70 6236.96 1103.61 o
-3 15 -5 7403.70 7694.25 1172.12 o
-3 -15 -5 7403.76 5311.01 1637.74 o
3 15 5 7403.76 6615.97 1331.56 o
3 -15 5 7403.70 3946.08 1035.99 o
-3 15 -5 7403.70 6761.10 1829.00 o
3 -15 6 3805.65 3974.86 973.49 o
3 -15 6 3805.65 2352.05 925.90 <
3 16 -8 6376.86 2156.55 1369.95 <
-3 16 8 6376.83 9478.98 2018.89 o
-3 16 7 146.24 997.91 1015.67 <
3 -16 -7 146.24 8.40 473.81 <
-3 -16 6 321.00 185.91 591.44 <
3 16 -6 321.00 -1655.19 1330.11 <
-3 16 6 320.99 -11.99 699.38 <
3 16 -6 321.00 74.36 543.51 <
3 -16 -6 320.99 876.77 590.95 <
3 16 -5 13016.60 14348.60 1643.97 o
-3 -16 5 13016.60 13150.40 2119.78 o
3 16 -5 13016.60 10354.60 1805.76 o
3 -16 -5 13016.50 13473.00 1485.88 o
-3 16 5 13016.50 14974.70 2167.70 o
-3 -16 5 13016.60 13782.50 1567.45 o
-3 16 5 13016.50 12344.40 1308.56 o
3 16 -4 10109.50 7250.47 1476.72 o
3 16 -4 10109.50 9377.03 1282.24 o
-3 16 4 10109.60 9902.37 1761.16 o
-3 -16 4 10109.50 10043.90 1707.70 o
3 -16 -4 10109.60 8379.12 1391.92 o
3 -16 -4 10109.60 8619.00 1202.85 o
-3 16 4 10109.60 12039.70 1279.95 o
-3 -16 4 10109.50 10726.40 1302.66 o
-3 16 3 8287.10 5548.50 999.37 o
3 -16 -3 8287.10 10309.00 1247.65 o
3 16 -3 8287.11 8457.08 1177.32 o
-3 16 3 8287.10 9006.41 1699.08 o
3 -16 -3 8287.10 8812.10 1204.81 o
-3 -16 3 8287.11 7723.04 1494.46 o
3 16 -3 8287.11 12819.40 1780.50 o
-3 -16 3 8287.11 9347.04 1169.21 o
-3 -16 2 2038.21 2025.81 660.97 o
3 -16 -2 2038.17 1508.86 677.24 <
3 16 -2 2038.21 3928.09 1064.31 o
3 16 -2 2038.21 1603.62 636.16 <
3 -16 -2 2038.17 2758.66 640.92 o
-3 16 2 2038.17 2059.40 857.46 <
3 -16 -2 2038.17 3057.31 723.72 o
3 -16 -2 2038.17 1901.07 666.64 <
-3 -16 2 2038.21 1817.11 742.59 <
-3 16 2 2038.17 1393.72 512.23 <
-3 -16 1 5397.32 6352.10 996.12 o
-3 -16 1 5397.32 5465.74 1075.04 o
3 -16 -1 5397.31 5420.16 757.64 o
3 -16 -1 5397.31 4746.09 931.91 o
-3 16 1 5397.31 5987.48 1307.10 o
3 -16 -1 5397.31 5813.57 756.57 o
-3 16 1 5397.31 5180.27 840.45 o
-3 -16 1 5397.32 5187.47 1266.28 o
3 -16 -1 5397.31 5549.69 1081.21 o
3 16 -1 5397.32 4161.97 551.70 o
3 -16 -1 5397.31 5446.54 1011.67 o
3 16 -1 5397.32 6407.28 1183.45 o
3 16 -1 5397.32 3249.22 1147.80 <
3 16 0 3215.99 537.34 785.42 <
3 16 0 3215.99 4002.45 982.36 o
-3 -16 0 3215.99 3581.45 838.38 o
-3 16 0 3216.00 4340.68 1192.87 o
3 -16 0 3216.00 3288.80 622.78 o
-3 -16 0 3215.99 4570.97 1286.19 o
3 -16 0 3216.00 3044.12 917.75 o
3 -16 0 3216.00 3267.21 854.72 o
3 -16 0 3216.00 3057.31 753.61 o
3 -16 1 22123.00 20705.50 2107.07 o
3 -16 1 22123.00 20995.80 1710.92 o
3 -16 1 22123.00 23387.40 1534.88 o
-3 -16 -1 22123.10 26664.20 2846.24 o
3 -16 1 22123.00 20689.90 1534.29 o
3 -16 1 22123.00 20805.10 2055.18 o
3 16 1 22123.10 23948.70 2098.78 o
-3 16 -1 22123.00 21013.80 2540.08 o
3 16 2 3070.02 3393.15 906.35 o
-3 16 -2 3070.03 2591.94 627.55 o
3 -16 2 3070.03 3821.34 745.85 o
3 -16 2 3070.03 2547.56 880.66 <
-3 -16 -2 3070.02 4189.56 1377.90 o
-3 16 -2 3070.03 2467.20 1161.96 <
3 -16 2 3070.03 2421.62 676.57 o
3 -16 2 3070.03 3118.48 992.75 o
3 16 3 3949.04 4914.00 1099.83 o
3 -16 3 3948.96 4874.42 890.65 o
-3 16 -3 3948.96 4002.45 1416.15 <
3 -16 3 3948.96 2711.88 952.53 <
-3 -16 -3 3949.04 4716.10 1494.99 o
-3 16 -3 3948.96 3489.10 1248.22 <
3 -16 3 3948.96 4570.97 1155.41 o
3 16 4 1637.05 2415.62 964.96 <
3 -16 4 1637.06 735.24 539.11 <
-3 16 -4 1637.06 1554.44 627.79 <
3 -16 4 1637.06 719.65 810.00 <
-3 -16 -4 1637.05 2332.86 1400.81 <
3 -16 4 1637.06 -187.11 771.53 <
-3 16 -4 1637.06 1049.49 927.84 <
3 -16 5 2267.14 1968.24 722.90 <
3 -16 5 2267.14 1283.37 863.20 <
3 -16 5 2267.14 87.56 837.49 <
3 17 -7 400.44 -2037.81 1650.75 <
-3 17 7 400.43 627.29 1093.59 <
-3 -17 6 1748.89 2318.47 857.79 <
3 17 -6 1748.89 622.50 1081.97 <
-3 17 6 1748.89 1372.13 954.95 <
3 17 -6 1748.89 1446.49 690.09 <
3 -17 -6 1748.89 2494.78 769.61 o
-3 -17 5 3804.99 4445.03 981.72 o
-3 17 5 3804.98 4496.61 940.03 o
3 17 -5 3804.99 945.14 943.46 <
3 17 -5 3804.99 3687.00 930.68 o
-3 17 5 3804.98 4281.91 1401.15 o
3 -17 -5 3804.98 2892.99 792.10 o
-3 -17 5 3804.99 3303.19 1182.56 <
3 17 -4 10138.00 9407.01 1729.78 o
3 17 -4 10138.00 9251.09 1352.46 o
-3 -17 4 10138.00 9993.53 1831.01 o
-3 17 4 10137.90 10012.70 1748.08 o
3 -17 -4 10137.90 9957.55 1524.90 o
3 -17 -4 10137.90 9122.75 1290.57 o
-3 17 4 10137.90 12515.90 1354.80 o
-3 -17 4 10138.00 10727.60 1390.24 o
-3 -17 3 5963.70 7419.58 1142.42 o
3 -17 -3 5963.65 8093.65 1205.69 o
-3 17 3 5963.65 4025.24 872.07 o
3 17 -3 5963.70 5670.84 1043.78 o
-3 17 3 5963.65 7751.82 1487.16 o
3 -17 -3 5963.65 6372.49 1067.76 o
-3 -17 3 5963.70 6320.92 1439.21 o
3 17 -3 5963.70 10798.30 1695.39 o
3 -17 -2 9614.78 7492.75 1289.78 o
3 -17 -2 9614.78 11375.30 1199.17 o
-3 17 2 9614.78 6680.74 1214.67 o
-3 17 2 9614.78 9517.36 1652.95 o
3 -17 -2 9614.78 8708.95 1286.70 o
-3 -17 2 9614.69 9510.16 1648.25 o
3 17 -2 9614.69 13073.60 1711.05 o
-3 -17 2 9614.69 9704.47 1264.94 o
-3 -17 1 4875.74 6028.26 1021.12 o
3 17 -1 4875.74 6420.47 1228.50 o
3 -17 -1 4875.65 4947.59 939.44 o
3 -17 -1 4875.65 5648.05 811.78 o
-3 17 1 4875.65 5203.06 1319.93 o
-3 -17 1 4875.74 6222.57 1381.48 o
-3 17 1 4875.65 5462.14 850.10 o
3 -17 -1 4875.65 4864.83 1070.00 o
3 17 -1 4875.74 3627.03 502.11 o
3 17 -1 4875.74 3822.54 1235.57 o
3 -17 -1 4875.65 4229.14 917.90 o
3 -17 0 3780.72 3266.01 770.76 o
3 17 0 3780.66 4070.82 1021.60 o
3 17 0 3780.66 33.58 948.98 <
-3 17 0 3780.72 3833.33 1172.62 o
3 -17 0 3780.72 2968.55 634.92 o
-3 -17 0 3780.66 4524.19 1220.77 o
3 -17 0 3780.72 3008.13 887.22 o
3 -17 0 3780.72 3528.68 874.48 o
3 17 1 467.47 1529.25 805.90 <
3 -17 1 467.46 416.20 405.53 <
-3 17 -1 467.46 205.10 797.84 <
-3 -17 -1 467.47 1277.38 981.53 <
3 -17 1 467.46 701.66 548.69 <
3 -17 1 467.46 549.33 803.48 <
3 17 1 467.47 552.93 767.49 <
3 -17 2 50.55 194.30 443.67 <
3 17 2 50.55 -187.11 550.42 <
-3 17 -2 50.55 -616.50 510.82 <
3 -17 2 50.55 409.00 640.10 <
-3 -17 -2 50.55 695.66 892.73 <
-3 17 -2 50.55 -323.84 769.78 <
3 -17 2 50.55 418.60 604.07 <
-3 -17 -2 50.55 349.03 379.74 <
3 -17 3 1374.08 1961.04 661.93 <
-3 17 -3 1374.08 1505.27 591.73 <
3 -17 3 1374.08 1145.44 793.66 <
-3 -17 -3 1374.12 2301.68 1288.33 <
-3 17 -3 1374.08 1235.40 819.72 <
3 -17 3 1374.08 2004.22 903.76 <
3 17 3 1374.12 1427.30 797.39 <
3 17 4 2589.62 3014.13 1019.03 <
3 -17 4 2589.69 1394.92 668.61 <
3 -17 4 2589.69 1743.95 1036.67 <
3 -17 4 2589.69 454.58 636.75 <
3 -17 5 1967.10 2643.51 942.18 <
-3 18 7 1433.05 3377.55 1330.21 <
3 18 -6 7186.37 5039.94 1462.12 o
-3 18 6 7186.46 7160.51 1841.34 o
3 -18 -6 7186.46 6673.55 1164.69 o
-3 -18 5 776.30 1055.49 727.16 <
-3 18 5 776.33 227.89 501.24 <
3 18 -5 776.30 -1847.10 1448.59 <
3 18 -5 776.30 770.03 615.32 <
-3 18 5 776.33 1344.54 965.10 <
3 -18 -5 776.33 720.85 556.71 <
-3 -18 5 776.30 1370.93 945.77 <
3 18 -4 8339.18 9243.89 1374.87 o
-3 18 4 8339.23 7784.21 1609.03 o
3 -18 -4 8339.23 8670.57 1264.81 o
-3 -18 4 8339.18 8591.41 1747.00 o
-3 18 4 8339.23 10748.00 1312.23 o
3 18 -4 8339.18 12586.70 1939.17 o
-3 -18 4 8339.18 10009.10 1361.37 o
-3 -18 3 2294.63 2823.42 827.14 o
3 18 -3 2294.63 4778.47 1311.11 o
-3 18 3 2294.64 -500.16 788.01 <
3 18 -3 2294.63 1997.03 748.04 <
-3 18 3 2294.64 2305.28 1144.19 <
3 -18 -3 2294.64 1739.15 643.29 <
-3 -18 3 2294.63 1336.15 940.80 <
-3 -18 2 72.42 -578.12 486.94 <
3 18 -2 72.42 1150.24 993.46 <
3 -18 -2 72.42 -22.79 465.38 <
-3 18 2 72.42 -732.84 976.54 <
-3 18 2 72.42 -6.00 692.07 <
-3 -18 2 72.42 -393.41 700.07 <
3 -18 -2 72.42 -292.66 556.26 <
3 18 -1 442.22 572.12 670.23 <
3 -18 -1 442.22 759.23 627.70 <
-3 18 1 442.22 737.64 983.06 <
-3 -18 1 442.22 1334.95 904.30 <
3 -18 -1 442.22 482.17 552.85 <
3 18 -1 442.22 -731.64 1027.11 <
3 -18 -1 442.22 327.44 467.99 <
3 18 0 15261.20 10299.40 1880.02 o
3 -18 0 15261.20 13782.50 1684.35 o
-3 -18 0 15261.20 19135.50 2387.90 o
3 -18 0 15261.20 14450.60 1532.47 o
3 -18 0 15261.20 15129.40 1763.47 o
3 18 0 15261.20 17844.90 1964.52 o
-3 18 0 15261.20 15086.20 2227.77 o
3 18 1 3.82 269.87 681.10 <
-3 -18 -1 3.82 735.24 735.27 <
-3 18 -1 3.82 -641.69 777.47 <
3 -18 1 3.82 561.33 513.57 <
3 -18 1 3.82 115.14 690.83 <
-3 18 -2 15562.80 13570.20 2268.32 o
3 -18 2 15562.80 13993.60 1994.64 o
-3 -18 -2 15562.90 20141.80 2769.71 o
3 -18 2 15562.80 16392.40 2001.45 o
-3 -18 -2 15562.90 13603.80 1346.12 o
3 18 2 15562.90 18670.10 2011.85 o
3 -18 2 15562.80 18598.10 1606.10 o
3 -18 3 564.55 828.80 610.93 <
3 -18 3 564.55 720.85 901.68 <
-3 -18 -3 564.55 991.92 842.16 <
3 18 3 564.55 1153.84 806.73 <
-3 18 -3 564.55 879.17 913.32 <
3 -18 3 564.55 869.58 728.47 <
3 -18 4 1840.76 1538.85 790.72 <
3 -18 4 1840.76 1511.26 728.61 <
-3 19 6 436.37 497.76 963.06 <
3 -19 -6 436.37 488.16 659.59 <
-3 19 5 15.07 1229.40 1005.12 <
3 -19 -5 15.07 265.07 547.93 <
-3 -19 5 15.08 86.36 891.15 <
-3 19 4 615.92 2356.85 905.80 <
3 19 -4 615.91 3700.20 1344.30 <
-3 -19 4 615.91 172.72 549.95 <
3 19 -4 615.91 1153.84 726.32 <
-3 19 4 615.92 1235.40 1088.86 <
3 -19 -4 615.92 1113.06 648.34 <
-3 -19 4 615.91 -177.51 657.66 <
3 19 -3 998.95 3949.67 1209.76 o
-3 19 3 998.96 768.83 593.30 <
3 19 -3 998.95 682.47 543.24 <
-3 19 3 998.96 1376.93 1011.18 <
-3 -19 3 998.95 1156.24 705.87 <
3 -19 -3 998.96 1296.57 742.49 <
-3 -19 3 998.95 1146.64 776.72 <
3 -19 -3 998.96 453.38 602.29 <
-3 -19 2 3245.62 3306.79 908.63 o
3 19 -2 3245.62 6860.66 1493.15 o
-3 19 2 3245.57 500.16 825.77 <
3 -19 -2 3245.57 3264.81 922.19 o
-3 19 2 3245.57 4241.13 1329.14 o
-3 -19 2 3245.62 4668.12 1286.69 o
3 -19 -2 3245.57 3457.91 878.41 o
3 19 -1 1814.15 2792.24 1024.66 <
-3 19 1 1814.14 2264.50 1053.32 <
3 -19 -1 1814.14 1480.08 739.37 <
-3 -19 1 1814.15 2210.52 1029.58 <
3 -19 -1 1814.14 1657.59 785.24 <
3 19 -1 1814.15 361.02 1030.76 <
3 -19 -1 1814.14 1986.23 624.82 o
3 19 0 1626.77 3156.86 1038.98 o
3 -19 0 1626.76 1008.71 570.49 <
-3 19 0 1626.76 3095.69 1305.14 <
-3 -19 0 1626.77 1111.86 898.93 <
3 -19 0 1626.76 2097.78 989.70 <
3 19 0 1626.77 -761.63 1178.74 <
3 -19 0 1626.76 1177.83 528.06 <
3 19 1 164.49 104.35 650.11 <
-3 -19 -1 164.49 350.23 828.64 <
-3 19 -1 164.49 -988.32 919.26 <
3 -19 1 164.49 -418.60 655.63 <
3 -19 1 164.49 991.92 876.35 <
3 19 2 7.60 -164.32 633.22 <
-3 -19 -2 7.60 2492.39 1458.90 <
3 -19 2 7.60 107.95 598.48 <
-3 19 -2 7.60 -375.42 940.07 <
3 -19 2 7.60 814.40 748.22 <
3 -19 3 1517.69 1722.36 902.26 <
3 -19 3 1517.69 1668.39 765.66 <
3 -19 4 2361.59 1893.88 857.87 <
-3 20 5 1407.23 2659.10 1248.00 <
3 -20 -5 1407.23 1854.30 676.17 <
-3 20 4 426.60 2584.74 993.03 <
-3 20 4 426.60 785.62 940.93 <
3 -20 -4 426.60 488.16 651.18 <
3 -20 -3 215.13 1375.73 797.76 <
-3 20 3 215.13 74.36 878.02 <
3 -20 -3 215.13 374.22 533.51 <
-3 -20 3 215.12 628.49 639.73 <
-3 20 3 215.13 1032.70 723.59 <
-3 -20 2 34.24 617.70 649.17 <
3 20 -2 34.24 2139.76 1142.70 <
-3 20 2 34.24 -1194.62 996.54 <
3 -20 -2 34.24 -94.75 532.51 <
-3 20 2 34.24 1197.02 830.88 <
-3 -20 2 34.24 548.13 930.25 <
3 -20 -2 34.24 -618.90 718.69 <
3 20 -1 1142.48 1105.86 759.36 <
-3 20 1 1142.49 -87.56 729.46 <
-3 20 1 1142.49 923.55 1041.60 <
3 -20 -1 1142.49 438.99 470.20 <
-3 -20 1 1142.48 37.18 893.57 <
3 -20 -1 1142.49 768.83 688.43 <
3 20 -1 1142.48 -725.65 1173.11 <
3 20 0 3660.36 4457.03 1207.19 o
-3 20 0 3660.41 4760.48 1462.57 o
-3 -20 0 3660.36 4179.96 1295.11 o
3 -20 0 3660.41 3281.60 1076.36 o
3 -20 0 3660.41 3652.22 964.40 o
-3 -20 -1 2231.21 3138.87 1188.23 <
3 -20 1 2231.20 1510.06 692.85 <
-3 -20 -1 2231.21 1987.43 742.87 <
3 -20 2 1844.72 1566.44 777.45 <
3 -20 3 4353.29 3920.89 996.16 o
3 -20 3 4353.29 4401.85 1292.57 o
3 -21 -3 1444.86 1133.45 713.75 <
-3 21 3 1444.86 4886.42 1216.26 o
-3 21 2 13538.90 10694.00 1693.21 o
3 -21 -2 13538.90 12445.10 1691.98 o
-3 21 1 4.96 -1368.53 1201.41 <
-3 -21 1 4.96 504.95 751.49 <
3 21 -1 4.96 -880.37 1233.07 <
-3 -21 -1 594.28 506.15 499.18 <
3 -21 2 903.17 -556.53 777.34 <
-3 -22 0 7121.51 5174.28 1216.01 o
4 0 -10 2381.26 9800.42 1672.48 o
-4 0 10 2381.26 11560.00 2221.32 o
4 0 -10 2381.26 2331.66 850.71 <
4 0 -9 42303.80 33269.40 2920.58 o
4 0 -9 42303.80 43675.50 2921.45 o
-4 0 9 42303.80 50846.80 3267.84 o
4 0 -8 16636.30 15106.60 1740.04 o
4 0 -8 16636.30 15123.40 1664.45 o
-4 0 8 16636.30 17573.80 2018.66 o
4 0 -7 91322.20 88123.40 3926.61 o
4 0 -7 91322.20 85361.20 3745.53 o
-4 0 7 91322.20 82415.40 4337.92 o
4 0 -6 35739.60 36089.20 2233.03 o
4 0 -6 35739.60 34272.10 2050.44 o
-4 0 6 35739.60 31401.90 2495.47 o
-4 0 6 35739.60 31752.10 2304.30 o
-4 0 6 35739.60 29328.10 2349.74 o
-4 0 5 115.79 -518.15 454.74 <
4 0 -5 115.79 323.84 411.09 <
-4 0 5 115.79 -148.73 448.52 <
4 0 -5 115.79 49.18 339.47 <
-4 0 5 115.79 -208.70 472.43 <
-4 0 5 115.79 581.72 439.10 <
-4 0 4 3088.29 3407.54 558.01 o
4 0 -4 3088.29 1627.61 417.55 o
-4 0 4 3088.29 3218.03 614.89 o
-4 0 4 3088.29 3218.03 628.12 o
-4 0 4 3088.29 4084.01 759.51 o
4 0 -4 3088.29 2944.56 291.42 o
4 0 -4 3088.29 3787.75 611.62 o
4 0 -4 3088.29 3390.75 647.60 o
4 0 -3 229319.00 214987.00 5883.17 o
-4 0 3 229319.00 228893.00 4811.87 o
-4 0 3 229319.00 223882.00 4010.63 o
4 0 -3 229319.00 226556.00 3629.46 o
-4 0 3 229319.00 228567.00 3580.12 o
-4 0 3 229319.00 236304.00 4619.44 o
4 0 -3 229319.00 237900.00 3628.26 o
4 0 -3 229319.00 215433.00 4896.81 o
-4 0 3 229319.00 222679.00 3858.98 o
-4 0 2 73662.00 79108.60 1431.51 o
4 0 -2 73662.00 78471.80 920.43 o
-4 0 2 73662.00 81385.10 2553.65 o
-4 0 2 73662.00 75416.80 1322.43 o
-4 0 2 73662.00 78975.50 2365.34 o
-4 0 2 73662.00 73341.80 1435.97 o
-4 0 2 73662.00 81367.10 1945.55 o
-4 0 2 73662.00 85230.50 1551.22 o
4 0 -2 73662.00 88989.40 1839.13 o
4 0 -2 73662.00 72342.70 2196.91 o
-4 0 2 73662.00 81394.70 1934.69 o
4 0 -2 73662.00 70730.70 2199.05 o
-4 0 1 287668.00 321359.00 18913.50 o
-4 0 1 287668.00 303777.00 1224.86 o
4 0 -1 287668.00 306916.00 2080.32 o
-4 0 1 287668.00 312502.00 18357.40 o
-4 0 1 287668.00 319410.00 18761.10 o
4 0 -1 287668.00 281334.00 5592.93 o
-4 0 1 287668.00 307239.00 18411.60 o
-4 0 1 287668.00 312091.00 18449.60 o
-4 0 1 287668.00 318177.00 18531.40 o
4 0 -1 287668.00 303607.00 17779.00 o
-4 0 0 2166.54 1825.51 467.58 o
-4 0 0 2166.54 2673.50 514.66 o
-4 0 0 2166.54 2001.82 298.99 o
-4 0 0 2166.54 2197.33 601.84 o
-4 0 0 2166.54 2142.16 513.59 o
-4 0 0 2166.54 2590.74 418.68 o
4 0 0 2166.54 3164.06 572.39 o
4 0 0 2166.54 2230.91 523.49 o
-4 0 0 2166.54 2373.64 599.00 o
-4 0 0 2166.54 2353.25 483.64 o
4 0 0 2166.54 2360.45 576.27 o
4 0 1 8233.95 8219.59 1092.93 o
-4 0 -1 8233.95 7869.36 1094.28 o
4 0 1 8233.95 8699.36 987.09 o
-4 0 -1 8233.95 8726.95 734.77 o
4 0 1 8233.95 8377.92 1052.76 o
4 0 1 8233.95 8704.16 1129.74 o
-4 0 -1 8233.95 7477.16 1008.34 o
-4 0 -1 8233.95 8653.78 1006.22 o
-4 0 -1 8233.95 9487.38 856.28 o
4 0 1 8233.95 6181.79 516.44 o
4 0 2 128516.00 129039.00 2837.72 o
-4 0 -2 128516.00 134970.00 3970.00 o
4 0 2 128516.00 126176.00 4377.16 o
-4 0 -2 128516.00 129462.00 2412.04 o
-4 0 -2 128516.00 119860.00 4908.96 o
4 0 2 128516.00 132385.00 4040.21 o
4 0 2 128516.00 118058.00 4771.82 o
-4 0 -2 128516.00 133933.00 2721.10 o
4 0 3 61348.00 62826.60 2268.55 o
-4 0 -3 61348.00 54232.80 2644.01 o
-4 0 -3 61348.00 54199.20 3545.31 o
4 0 3 61348.00 58551.90 3492.58 o
-4 0 -3 61348.00 60889.50 2712.76 o
4 0 3 61348.00 58819.30 3048.94 o
4 0 3 61348.00 60259.80 2348.50 o
4 0 3 61348.00 64253.90 3085.35 o
4 0 3 61348.00 57702.70 3321.84 o
4 0 4 61429.70 67468.30 2369.39 o
-4 0 -4 61429.70 52939.80 2976.73 o
-4 0 -4 61429.70 53564.70 3983.20 o
4 0 4 61429.70 63210.40 3888.65 o
-4 0 -4 61429.70 67916.90 2704.50 o
4 0 4 61429.70 66947.80 2926.07 o
4 0 4 61429.70 59621.70 2541.02 o
4 0 4 61429.70 57234.90 3672.69 o
-4 0 -5 18622.90 22694.10 1827.53 o
4 0 5 18622.90 17673.40 1502.81 o
4 0 5 18622.90 19907.90 1772.75 o
4 0 5 18622.90 22125.60 1643.64 o
-4 0 -6 2477.15 10309.00 1532.32 o
4 0 6 2477.15 4989.57 1019.22 o
4 0 7 440.68 864.78 771.47 <
-4 0 -7 440.68 3032.12 977.01 o
-4 0 -8 32116.10 41605.30 2682.75 o
4 1 -10 21024.20 16021.80 1997.21 o
-4 1 10 21024.20 25175.70 2640.36 o
4 1 -10 21024.20 21675.80 2306.36 o
4 -1 -10 21024.20 26743.40 2307.09 o
-4 -1 10 21024.20 26643.80 2602.10 o
4 1 -9 6174.91 5198.27 1098.52 o
4 1 -9 6174.91 10342.60 1591.49 o
4 -1 -9 6174.92 9800.42 1584.71 o
-4 -1 9 6174.91 13482.60 1984.45 o
-4 1 9 6174.92 12114.10 2201.01 o
4 1 -8 8567.62 8630.99 1263.15 o
4 1 -8 8567.62 9087.97 1326.58 o
4 -1 -8 8567.64 9261.88 1341.77 o
-4 1 8 8567.64 10352.20 1641.93 o
-4 -1 8 8567.62 10292.20 1597.83 o
4 -1 -7 17481.20 16527.90 1768.28 o
4 1 -7 17481.20 17707.00 1660.24 o
4 1 -7 17481.20 20908.20 1736.69 o
4 -1 -7 17481.20 15845.50 1618.68 o
-4 1 7 17481.20 18946.00 1424.44 o
-4 -1 7 17481.20 17780.10 1964.19 o
-4 1 7 17481.20 17976.80 2067.16 o
4 -1 -6 12022.50 11882.60 1385.82 o
4 1 -6 12022.50 11708.70 1252.12 o
4 1 -6 12022.50 12099.70 1282.83 o
4 -1 -6 12022.50 10632.80 1195.99 o
-4 -1 6 12022.50 9748.85 1358.63 o
-4 1 6 12022.50 12598.70 1235.99 o
-4 1 6 12022.50 10511.70 1297.73 o
-4 -1 6 12022.50 10204.60 1304.45 o
-4 1 6 12022.50 7918.54 1244.06 o
4 1 -5 138245.00 124896.00 5433.50 o
4 -1 -5 138245.00 145992.00 3617.30 o
4 1 -5 138245.00 157676.00 1040.98 o
4 -1 -5 138245.00 139660.00 3280.94 o
-4 -1 5 138245.00 132684.00 4295.55 o
-4 1 5 138245.00 124643.00 5051.46 o
4 1 -5 138245.00 144366.00 3503.26 o
-4 1 5 138245.00 127994.00 4915.23 o
-4 1 5 138245.00 129320.00 4522.66 o
4 -1 -5 138245.00 133179.00 4309.10 o
-4 -1 5 138245.00 146409.00 3021.31 o
-4 1 5 138245.00 130219.00 4523.83 o
4 -1 -4 22334.70 22784.10 1205.72 o
-4 -1 4 22334.60 21792.20 1329.06 o
-4 1 4 22334.70 18233.50 1526.97 o
4 -1 -4 22334.70 23794.00 1585.32 o
-4 1 4 22334.70 22038.10 1620.57 o
4 1 -4 22334.60 20907.00 987.56 o
-4 1 4 22334.70 23896.00 1642.28 o
4 -1 -4 22334.70 23121.10 1509.33 o
-4 -1 4 22334.60 22107.60 1302.28 o
-4 1 4 22334.70 20668.30 1418.88 o
4 1 -3 46969.70 49856.10 1802.41 o
-4 -1 3 46969.70 48112.10 2080.17 o
4 1 -3 46969.70 46429.40 1564.78 o
4 -1 -3 46969.80 49538.30 1239.97 o
-4 -1 3 46969.70 46468.90 1586.57 o
-4 1 3 46969.80 45532.20 1760.97 o
-4 1 3 46969.80 49110.10 2386.81 o
-4 -1 3 46969.70 48035.40 2370.73 o
4 1 -3 46969.70 39939.30 2381.79 o
4 1 -3 46969.70 49042.90 1381.70 o
-4 1 3 46969.80 52653.10 2145.27 o
-4 1 3 46969.80 46380.20 1286.49 o
-4 -1 3 46969.70 50993.10 1154.24 o
-4 -1 3 46969.70 45462.60 1570.58 o
-4 1 3 46969.80 49389.50 1386.86 o
-4 1 2 4427.93 4934.39 522.77 o
4 -1 -2 4427.93 4548.18 354.98 o
4 1 -2 4427.94 4681.32 447.17 o
-4 1 2 4427.93 4704.11 804.62 o
-4 1 2 4427.93 4598.56 671.31 o
-4 -1 2 4427.94 4525.39 445.03 o
-4 -1 2 4427.94 4790.46 759.90 o
-4 1 2 4427.93 4879.22 387.61 o
-4 1 2 4427.93 4682.52 632.46 o
-4 -1 2 4427.94 4723.30 704.21 o
-4 1 2 4427.93 5254.64 696.00 o
-4 -1 2 4427.94 4753.28 609.38 o
4 -1 -2 4427.93 5307.41 743.94 o
4 1 -2 4427.94 5175.48 737.75 o
-4 1 2 4427.93 4295.11 627.10 o
-4 -1 2 4427.94 4315.50 716.49 o
-4 1 2 4427.93 5152.69 772.23 o
4 1 -2 4427.94 5856.74 631.09 o
-4 -1 2 4427.94 4359.87 517.14 o
4 -1 -2 4427.93 5129.90 547.67 o
-4 -1 2 4427.94 4123.59 387.07 o
-4 1 2 4427.93 4082.81 325.12 o
4 1 -2 4427.94 5258.24 494.88 o
-4 1 1 33245.40 35723.40 1933.28 o
-4 -1 1 33245.40 33130.20 1099.83 o
-4 1 1 33245.40 33570.40 702.62 o
-4 1 1 33245.40 35148.90 1482.86 o
-4 -1 1 33245.40 34982.10 1746.44 o
4 -1 -1 33245.40 34160.50 1926.42 o
-4 -1 1 33245.40 34744.70 1585.28 o
-4 1 1 33245.40 35857.70 1810.08 o
-4 -1 1 33245.40 35577.10 1458.95 o
-4 1 1 33245.40 36023.20 1468.93 o
-4 -1 1 33245.40 35622.60 1799.85 o
4 -1 -1 33245.40 29987.80 1699.20 o
-4 1 1 33245.40 35754.60 1728.23 o
-4 1 1 33245.40 35069.70 1591.86 o
4 1 -1 33245.40 35087.70 1518.34 o
-4 -1 1 33245.40 35344.40 1506.29 o
-4 1 1 33245.40 35302.40 1607.35 o
-4 -1 1 33245.40 36205.60 1903.41 o
-4 -1 1 33245.40 34821.40 766.07 o
4 1 -1 33245.40 34567.10 851.48 o
-4 -1 0 62959.00 70664.80 2093.07 o
4 1 0 62959.00 60488.90 1426.96 o
-4 1 0 62959.00 62482.30 2691.85 o
-4 1 0 62959.00 57362.00 1770.65 o
-4 -1 0 62959.00 59513.80 1908.03 o
4 -1 0 62959.00 68696.50 2529.59 o
-4 1 0 62959.00 63315.90 2349.51 o
4 1 0 62959.00 65969.00 2505.92 o
-4 -1 0 62959.00 64311.40 2597.28 o
4 -1 0 62959.00 66838.60 2005.50 o
4 1 0 62959.00 67528.30 2275.42 o
-4 -1 0 62959.00 64588.50 2205.27 o
-4 -1 0 62959.00 67728.60 1585.04 o
-4 1 0 62959.00 66067.40 1831.72 o
-4 1 0 62959.00 68016.40 2414.30 o
4 -1 0 62959.00 58279.60 2740.13 o
4 1 0 62959.00 65287.80 2320.28 o
4 -1 0 62959.00 67533.10 2625.34 o
-4 -1 0 62959.00 67804.10 1781.47 o
-4 1 0 62959.00 69293.80 1990.39 o
-4 1 0 62959.00 63637.40 2382.27 o
-4 -1 0 62959.00 66274.90 2566.35 o
-4 1 0 62959.00 68309.10 2692.00 o
-4 -1 0 62959.00 69617.70 2577.58 o
4 1 1 89255.90 93444.00 3020.61 o
-4 1 -1 89256.00 95089.60 3076.58 o
-4 1 -1 89256.00 81412.70 3611.93 o
-4 -1 -1 89255.90 91193.90 3403.51 o
4 -1 1 89256.00 90870.10 2868.23 o
-4 1 -1 89256.00 83810.30 3678.71 o
4 -1 1 89256.00 90188.80 2501.97 o
-4 -1 -1 89255.90 91948.40 1921.92 o
-4 1 -1 89256.00 92783.20 2000.94 o
-4 1 -1 89256.00 96304.60 2337.39 o
4 1 1 89255.90 93409.30 3250.57 o
4 -1 1 89256.00 90948.10 3236.06 o
4 1 1 89255.90 96107.90 2845.39 o
4 -1 1 89256.00 89147.70 3446.65 o
4 -1 1 89256.00 88063.50 3530.37 o
-4 1 -1 89256.00 90049.70 3064.36 o
-4 -1 -1 89255.90 96207.50 2994.28 o
-4 -1 -1 89255.90 97217.40 2435.66 o
4 -1 1 89256.00 80581.50 2259.25 o
-4 -1 -1 89255.90 97472.90 1642.78 o
4 1 1 89255.90 79107.40 2592.75 o
4 -1 2 12200.50 12285.60 1403.93 o
4 1 2 12200.50 11428.00 1297.78 o
-4 -1 -2 12200.50 11151.00 1338.77 o
-4 1 -2 12200.50 13259.50 1462.62 o
-4 -1 -2 12200.50 10858.30 1433.74 o
-4 1 -2 12200.50 13180.40 1068.33 o
4 1 2 12200.50 13368.70 1396.69 o
4 1 2 12200.50 12243.60 1356.80 o
4 -1 2 12200.50 12237.60 951.19 o
-4 -1 -2 12200.50 12025.30 771.84 o
-4 1 -2 12200.50 12745.00 843.13 o
4 -1 2 12200.50 14109.90 1114.12 o
4 1 2 12200.50 11937.80 1353.75 o
4 -1 2 12200.50 11462.80 1346.83 o
-4 1 -2 12200.50 11609.10 1435.43 o
-4 1 -2 12200.50 12989.70 1144.97 o
4 -1 2 12200.50 11262.50 781.33 o
-4 -1 -2 12200.50 11963.00 902.40 o
4 1 3 19146.10 20544.80 1418.96 o
-4 1 -3 19146.10 18710.90 1486.19 o
-4 -1 -3 19146.10 17176.80 1256.40 o
-4 1 -3 19146.10 16934.50 1952.13 o
-4 -1 -3 19146.10 19094.70 1997.01 o
4 -1 3 19146.10 18888.40 1949.08 o
4 1 3 19146.10 19567.30 1985.96 o
-4 1 -3 19146.10 21168.50 1496.59 o
-4 -1 -3 19146.10 20434.40 1560.88 o
4 -1 3 19146.10 18026.00 1154.33 o
4 1 3 19146.10 21560.70 1840.44 o
4 -1 3 19146.10 18442.20 1689.56 o
4 1 3 19146.10 18626.90 1179.86 o
4 1 3 19146.10 21095.30 1746.39 o
4 -1 3 19146.10 21673.40 1411.21 o
4 -1 3 19146.10 19693.20 1923.79 o
4 -1 3 19146.10 17517.50 1236.31 o
4 1 3 19146.10 18087.20 1784.80 o
4 1 4 23986.10 26899.30 1748.74 o
-4 1 -4 23986.10 21620.70 1835.03 o
-4 -1 -4 23986.10 19675.20 2388.94 o
4 -1 4 23986.10 22387.10 2437.59 o
-4 1 -4 23986.10 27110.40 1813.08 o
-4 -1 -4 23986.10 23704.00 1898.78 o
4 -1 4 23986.10 20878.20 1267.35 o
4 1 4 23986.10 26906.50 2263.53 o
4 1 4 23986.10 23471.40 1984.22 o
4 -1 4 23986.10 25115.80 1707.51 o
4 -1 4 23986.10 24143.00 1952.81 o
4 -1 4 23986.10 22098.00 2297.77 o
4 1 4 23986.10 20953.80 2192.33 o
4 -1 4 23986.10 23693.20 1629.51 o
4 1 4 23986.10 22399.10 1420.60 o
4 1 5 3616.16 4722.10 949.84 o
4 1 5 3616.16 3004.54 620.54 o
4 -1 5 3616.15 3294.79 769.84 o
-4 -1 -5 3616.16 1095.07 940.88 <
-4 1 -5 3616.15 4448.63 982.27 o
-4 -1 -5 3616.16 4971.58 1056.05 o
4 1 5 3616.16 4235.14 921.88 o
4 -1 5 3616.15 3517.89 797.46 o
4 -1 5 3616.15 3262.41 715.28 o
4 1 6 40186.40 49194.00 2434.59 o
-4 1 -6 40186.50 48919.40 2526.93 o
-4 -1 -6 40186.40 46340.60 2675.54 o
4 1 6 40186.40 45348.70 2516.33 o
4 -1 6 40186.50 45144.80 2493.08 o
4 -1 6 40186.50 46232.70 2418.99 o
4 1 7 7219.56 8813.30 1331.76 o
-4 1 -7 7219.55 8454.68 1313.32 o
-4 -1 -7 7219.56 9425.00 1416.79 o
4 -1 7 7219.55 6458.85 1128.76 o
-4 1 -8 4372.63 13271.50 1641.31 o
4 1 8 4372.63 10232.20 1753.11 o
-4 -2 10 1581.05 5814.77 1503.38 o
-4 2 10 1581.05 4602.16 1695.06 <
4 2 -10 1581.05 1861.49 770.88 <
4 2 -10 1581.05 4431.84 1334.00 o
4 -2 -10 1581.05 6012.67 1401.70 o
-4 -2 9 1107.99 1739.15 936.67 <
-4 2 9 1107.99 1194.62 918.49 <
4 2 -9 1107.99 694.46 494.63 <
4 2 -9 1107.99 883.97 644.89 <
4 -2 -9 1107.99 2559.55 920.53 <
4 2 -8 7763.36 8169.22 1189.26 o
4 2 -8 7763.36 9300.27 1365.39 o
4 -2 -8 7763.38 8278.36 1305.71 o
-4 2 8 7763.38 8794.11 991.44 o
4 2 -8 7763.36 4899.61 511.64 o
4 2 -8 7763.36 6142.21 540.97 o
-4 -2 8 7763.36 8201.60 1387.63 o
-4 2 8 7763.38 9652.89 1574.24 o
-4 -2 7 2740.64 2572.75 836.06 o
-4 2 7 2740.65 3432.73 1091.40 o
4 2 -7 2740.64 2288.48 689.91 o
4 2 -7 2740.64 3381.15 869.99 o
4 -2 -7 2740.65 1692.38 688.77 <
4 2 -7 2740.64 2421.62 322.70 o
-4 2 7 2740.65 2972.15 690.94 o
4 2 -7 2740.64 2758.66 361.89 o
4 -2 -6 4270.65 3806.94 882.98 o
-4 -2 6 4270.64 4297.50 922.05 o
-4 2 6 4270.65 3949.67 911.39 o
4 2 -6 4270.64 2819.83 896.89 o
4 2 -6 4270.64 5215.06 1076.40 o
4 -2 -6 4270.65 3222.83 730.85 o
-4 -2 6 4270.64 3041.72 844.53 o
4 2 -6 4270.64 4795.26 808.44 o
-4 2 6 4270.65 3528.68 764.48 o
4 2 -6 4270.64 3481.90 382.43 o
-4 2 6 4270.65 4734.09 864.91 o
4 2 -5 749.54 543.34 216.10 <
-4 2 5 749.54 488.16 426.64 <
-4 -2 5 749.54 1420.11 532.53 <
-4 2 5 749.54 1150.24 559.58 <
4 2 -5 749.54 -111.55 536.93 <
4 -2 -5 749.54 1440.50 569.81 <
4 -2 -5 749.54 928.35 484.99 <
4 -2 -5 749.54 1080.67 438.43 <
-4 -2 5 749.54 1113.06 511.66 <
-4 2 5 749.54 1011.11 538.66 <
4 2 -4 6817.22 7317.63 742.96 o
4 -2 -4 6817.24 7012.98 680.08 o
-4 -2 4 6817.22 6710.73 748.34 o
4 -2 -4 6817.24 7336.82 961.08 o
-4 2 4 6817.24 7288.85 923.24 o
4 -2 -4 6817.24 6788.69 862.92 o
4 2 -4 6817.22 5616.86 741.02 o
-4 2 4 6817.24 7574.31 1014.87 o
4 2 -4 6817.22 5973.09 573.09 o
4 2 -4 6817.22 6154.20 840.95 o
-4 -2 4 6817.22 6647.16 734.18 o
-4 2 4 6817.24 5442.95 776.32 o
4 2 -3 546.90 473.77 227.07 <
-4 2 3 546.90 435.39 147.19 <
-4 -2 3 546.90 496.56 237.74 <
-4 -2 3 546.90 -91.16 374.82 <
-4 2 3 546.90 -50.38 383.23 <
4 -2 -3 546.90 430.59 373.37 <
4 2 -3 546.90 1117.85 410.71 <
-4 -2 3 546.90 680.07 389.29 <
4 2 -3 546.90 646.48 286.15 <
-4 -2 3 546.90 747.24 296.35 <
4 2 -3 546.90 508.55 285.63 <
-4 2 3 546.90 608.10 445.99 <
4 2 -3 546.90 411.40 291.97 <
-4 2 3 546.90 1087.87 512.25 <
-4 2 2 25906.00 25602.70 1606.91 o
-4 2 2 25906.00 28126.30 1762.56 o
4 -2 -2 25906.00 24381.70 817.14 o
4 2 -2 25905.90 26493.90 1111.34 o
-4 -2 2 25905.90 25228.50 1213.62 o
-4 -2 2 25905.90 27132.00 1706.88 o
-4 2 2 25906.00 26427.90 1270.95 o
-4 -2 2 25905.90 28314.60 1637.56 o
-4 -2 2 25905.90 27663.30 1567.15 o
-4 2 2 25906.00 28442.90 1698.10 o
4 2 -2 25905.90 28722.40 1614.77 o
4 2 -2 25905.90 27795.20 1310.04 o
-4 2 2 25906.00 27923.60 1160.34 o
-4 2 2 25906.00 29927.80 1436.04 o
-4 -2 2 25905.90 25118.20 1285.29 o
-4 -2 2 25905.90 24555.60 1042.78 o
-4 2 2 25906.00 24351.70 881.27 o
4 2 -2 25905.90 25821.00 1091.51 o
-4 -2 1 3404.43 3529.88 570.28 o
-4 2 1 3404.46 3840.53 662.26 o
-4 -2 1 3404.43 3144.87 409.15 o
-4 2 1 3404.46 3399.14 483.45 o
-4 -2 1 3404.43 3369.16 628.95 o
-4 2 1 3404.46 3708.59 749.73 o
4 -2 -1 3404.46 3750.57 575.29 o
-4 -2 1 3404.43 3588.65 556.13 o
-4 -2 1 3404.43 3565.86 673.25 o
-4 -2 1 3404.43 3381.15 659.97 o
-4 2 1 3404.46 3792.55 568.55 o
-4 2 1 3404.46 3191.64 626.36 o
-4 -2 1 3404.43 4082.81 561.04 o
4 2 -1 3404.43 4382.66 702.62 o
-4 2 1 3404.46 3445.92 587.13 o
-4 2 1 3404.46 3695.40 678.78 o
-4 -2 1 3404.43 3521.48 366.76 o
4 2 -1 3404.43 3700.20 345.30 o
-4 2 1 3404.46 3892.10 592.39 o
-4 2 0 7168.77 5468.13 391.61 o
4 -2 0 7168.77 7036.97 1020.50 o
-4 -2 0 7168.75 6907.43 634.25 o
-4 2 0 7168.77 6619.57 782.76 o
-4 2 0 7168.77 6527.22 399.88 o
4 2 0 7168.75 7599.50 897.01 o
-4 -2 0 7168.75 7016.58 955.04 o
4 -2 0 7168.77 7553.92 718.55 o
4 2 0 7168.75 8254.38 945.22 o
4 -2 0 7168.77 7697.85 786.76 o
-4 -2 0 7168.75 7844.18 681.37 o
4 -2 0 7168.77 8141.63 1007.54 o
-4 2 0 7168.77 7135.32 756.39 o
-4 2 0 7168.77 7493.95 920.91 o
4 2 0 7168.75 8869.68 931.01 o
-4 2 0 7168.77 7142.52 960.00 o
-4 2 0 7168.77 7679.86 905.03 o
-4 -2 0 7168.75 7693.05 874.42 o
-4 -2 0 7168.75 8279.56 789.33 o
-4 2 0 7168.77 7870.56 897.33 o
-4 -2 0 7168.75 7437.57 687.60 o
4 2 0 7168.75 6574.00 491.45 o
-4 -2 0 7168.75 7705.04 1024.48 o
-4 -2 -1 2212.64 2835.42 639.17 o
4 2 1 2212.64 1765.54 333.66 o
4 -2 1 2212.65 1891.48 512.77 o
-4 2 -1 2212.65 2148.15 588.28 o
-4 -2 -1 2212.64 2378.44 409.15 o
4 2 1 2212.64 2199.73 603.42 o
-4 2 -1 2212.65 2274.09 585.95 o
-4 2 -1 2212.65 2680.69 726.55 o
-4 2 -1 2212.65 2078.59 372.46 o
-4 2 -1 2212.65 2235.71 694.28 o
-4 -2 -1 2212.64 2946.96 750.51 o
4 -2 1 2212.65 1676.78 609.63 <
4 -2 1 2212.65 2220.12 494.08 o
4 -2 1 2212.65 2587.14 559.79 o
-4 -2 -1 2212.64 2475.59 389.56 o
-4 2 -1 2212.65 1963.44 574.26 o
-4 2 -1 2212.65 2131.36 430.37 o
4 2 1 2212.64 2672.30 618.02 o
4 2 1 2212.64 2513.97 705.18 o
4 -2 1 2212.65 -436.59 580.71 <
-4 -2 -1 2212.64 2210.52 501.38 o
4 -2 2 2869.98 1501.67 426.74 o
-4 -2 -2 2869.99 2846.21 698.29 o
4 -2 2 2869.98 3020.13 364.09 o
4 -2 2 2869.98 3822.54 688.92 o
-4 2 -2 2869.98 2370.04 691.68 o
-4 2 -2 2869.98 3112.48 541.28 o
-4 -2 -2 2869.99 2155.35 708.67 o
4 -2 2 2869.98 3213.23 782.36 o
-4 2 -2 2869.98 3990.45 738.99 o
-4 -2 -2 2869.99 3406.34 413.46 o
-4 2 -2 2869.98 3955.67 872.10 o
4 2 2 2869.99 3405.14 723.54 o
-4 2 -2 2869.98 3474.71 525.98 o
-4 -2 -2 2869.99 2623.12 387.97 o
4 -2 2 2869.98 3250.42 538.06 o
4 2 2 2869.99 3703.79 827.75 o
4 2 2 2869.99 2731.07 755.66 o
-4 -2 -2 2869.99 3183.25 669.42 o
4 2 2 2869.99 2609.93 670.59 o
-4 2 -2 2869.98 3406.34 896.14 o
4 2 3 11729.60 10486.50 1348.49 o
-4 2 -3 11729.70 10240.60 1232.16 o
-4 2 -3 11729.70 8824.10 1538.32 o
-4 -2 -3 11729.60 12367.20 1682.56 o
4 -2 3 11729.70 12232.80 1524.52 o
-4 2 -3 11729.70 12398.40 1124.60 o
4 2 3 11729.60 11628.30 1624.56 o
4 -2 3 11729.70 10257.40 930.52 o
4 2 3 11729.60 11198.90 1386.22 o
4 2 3 11729.60 10641.20 1372.84 o
4 -2 3 11729.70 7326.03 1223.89 o
4 -2 3 11729.70 13452.60 1242.43 o
4 -2 3 11729.70 11183.30 1510.37 o
4 -2 3 11729.70 9416.61 899.99 o
4 2 4 8524.75 9002.81 1122.04 o
-4 2 -4 8524.79 7359.61 1206.71 o
4 -2 4 8524.79 5685.23 865.88 o
-4 -2 -4 8524.75 9039.99 1613.63 o
-4 2 -4 8524.79 10033.10 1153.08 o
-4 -2 -4 8524.75 8253.18 1187.21 o
4 -2 4 8524.79 7190.49 1440.78 o
4 -2 4 8524.79 7998.90 798.64 o
4 -2 4 8524.79 8104.45 1547.83 o
4 2 4 8524.75 9320.66 1394.57 o
4 2 4 8524.75 9024.40 1282.31 o
4 -2 4 8524.79 6433.66 1016.94 o
4 -2 4 8524.79 10336.60 1236.41 o
4 2 4 8524.75 8297.55 1321.62 o
4 -2 5 2725.32 1153.84 590.14 <
4 2 5 2725.29 3364.36 847.10 o
4 2 5 2725.29 1869.89 450.12 o
4 -2 5 2725.32 3258.81 880.70 o
4 2 5 2725.29 1883.08 836.44 <
-4 -2 -5 2725.29 717.25 702.84 <
-4 2 -5 2725.32 3208.44 843.81 o
-4 -2 -5 2725.29 2344.86 783.70 o
4 -2 5 2725.32 2161.35 426.12 o
4 2 5 2725.29 3473.51 818.15 o
4 -2 5 2725.32 2506.78 743.06 o
4 -2 6 697.91 3448.32 1022.48 o
4 2 6 697.90 4576.97 1156.48 o
-4 2 -6 697.91 3367.96 1002.59 o
-4 -2 -6 697.90 5622.86 1192.99 o
4 2 6 697.90 2738.27 871.28 o
4 -2 7 1817.41 2770.65 853.43 o
4 2 7 1817.41 3035.72 950.28 o
-4 2 -7 1817.41 4141.58 1027.78 o
-4 -2 -7 1817.41 5484.93 1187.42 o
4 2 8 1001.59 990.72 822.83 <
-4 2 -8 1001.59 2734.67 953.77 <
-4 3 10 831.69 665.67 759.61 <
4 3 -10 831.69 284.26 680.97 <
4 -3 -10 831.69 1621.61 871.42 <
-4 -3 10 831.69 1211.41 923.68 <
-4 3 9 1229.55 3335.57 1286.26 <
-4 -3 9 1229.55 4266.32 1217.27 o
4 3 -9 1229.55 1276.18 597.07 <
4 3 -9 1229.55 756.83 678.00 <
4 -3 -9 1229.55 4175.16 1223.07 o
-4 3 8 6685.68 8157.22 1458.03 o
4 3 -8 6685.72 3659.42 593.88 o
-4 -3 8 6685.72 5193.47 1161.92 o
4 3 -8 6685.72 6072.64 1009.50 o
4 -3 -8 6685.68 6626.77 1199.00 o
-4 3 8 6685.68 6876.25 998.40 o
4 3 -8 6685.72 7122.13 1290.92 o
-4 3 7 15183.30 17687.80 1865.53 o
4 3 -7 15183.30 20177.80 1860.99 o
4 -3 -7 15183.30 13664.90 1467.72 o
4 3 -7 15183.30 16205.30 1445.00 o
-4 3 7 15183.30 14725.20 1460.14 o
4 3 -7 15183.30 15209.80 940.52 o
-4 -3 7 15183.30 15318.90 1625.75 o
-4 3 6 13283.70 12833.70 1571.78 o
4 -3 -6 13283.70 12885.30 1563.62 o
-4 3 6 13283.70 10563.30 1643.83 o
4 3 -6 13283.70 10325.80 1554.22 o
4 -3 -6 13283.70 10416.90 1200.50 o
-4 -3 6 13283.70 11633.10 1451.35 o
4 3 -6 13283.70 13392.70 1257.81 o
-4 3 6 13283.70 12916.50 1405.52 o
4 3 -6 13283.70 11945.00 863.04 o
4 -3 -6 13283.70 12535.10 1330.73 o
-4 3 6 13283.70 13050.80 1421.68 o
-4 -3 6 13283.70 13861.60 1383.68 o
-4 3 5 40868.00 37042.70 2464.41 o
4 3 -5 40868.10 40853.30 2449.80 o
4 -3 -5 40868.00 43216.10 2416.98 o
4 -3 -5 40868.00 41808.00 2129.83 o
4 3 -5 40868.10 39483.60 1848.40 o
4 -3 -5 40868.00 37375.00 1996.85 o
-4 -3 5 40868.10 40703.40 2024.19 o
-4 3 5 40868.00 43387.60 2221.09 o
-4 3 5 40868.00 36327.90 2462.08 o
4 3 -5 40868.10 39273.70 1529.19 o
-4 -3 5 40868.10 41011.60 1970.69 o
-4 3 4 10856.10 8898.46 1122.58 o
4 3 -4 10856.10 10973.50 904.56 o
4 -3 -4 10856.10 10240.60 1194.41 o
4 -3 -4 10856.10 10243.00 863.58 o
-4 -3 4 10856.10 10173.40 906.56 o
-4 3 4 10856.10 9584.53 1286.94 o
-4 3 4 10856.10 12001.30 1181.07 o
4 3 -4 10856.10 10298.20 1013.07 o
-4 3 4 10856.10 11340.50 1294.97 o
4 3 -4 10856.10 10484.10 809.40 o
4 -3 -4 10856.10 9715.26 1019.40 o
-4 -3 4 10856.10 10343.80 891.40 o
-4 3 3 13894.30 14262.20 1020.53 o
4 3 -3 13894.40 14091.90 932.03 o
-4 -3 3 13894.40 14015.20 1146.71 o
4 -3 -3 13894.30 13954.00 721.69 o
-4 -3 3 13894.40 14181.90 915.39 o
-4 3 3 13894.30 13973.20 1340.18 o
-4 3 3 13894.30 14306.60 690.03 o
4 3 -3 13894.40 14710.80 932.05 o
4 3 -3 13894.40 14731.20 1152.92 o
4 3 -3 13894.40 14887.10 1205.77 o
-4 3 3 13894.30 15777.10 1374.78 o
4 -3 -3 13894.30 14456.60 1124.85 o
-4 -3 3 13894.40 12098.50 1030.85 o
-4 -3 3 13894.40 12764.20 883.31 o
4 3 -3 13894.40 12990.90 985.62 o
4 3 -2 2973.90 3030.92 463.29 o
-4 3 2 2973.94 2699.88 601.57 o
-4 3 2 2973.94 2791.04 293.36 o
-4 3 2 2973.94 2643.51 591.42 o
4 -3 -2 2973.94 2398.83 198.80 o
4 3 -2 2973.90 3430.33 636.07 o
-4 -3 2 2973.90 3261.21 577.95 o
-4 3 2 2973.94 3790.15 524.36 o
4 3 -2 2973.90 2944.56 432.27 o
-4 3 2 2973.94 2697.48 424.18 o
4 -3 -2 2973.94 2851.01 528.16 o
-4 3 2 2973.94 2944.56 674.38 o
-4 -3 2 2973.90 2945.76 628.81 o
-4 3 2 2973.94 4790.46 779.34 o
-4 -3 2 2973.90 3532.28 575.17 o
-4 3 2 2973.94 3310.39 577.26 o
-4 -3 2 2973.90 2818.63 627.80 o
-4 -3 2 2973.90 2660.30 398.66 o
4 3 -2 2973.90 3456.72 441.21 o
-4 3 1 937.65 993.12 359.46 <
-4 -3 1 937.64 923.55 278.38 o
-4 -3 1 937.64 1123.85 382.58 <
4 3 -1 937.64 1139.44 252.23 o
-4 -3 1 937.64 1113.06 386.26 <
-4 3 1 937.65 1230.60 437.17 <
-4 -3 1 937.64 936.74 334.64 <
-4 3 1 937.65 940.34 410.18 <
-4 3 1 937.65 1621.61 566.90 <
-4 3 1 937.65 990.72 247.78 o
4 -3 -1 937.65 1223.40 374.56 o
-4 -3 1 937.64 1048.29 421.56 <
-4 -3 1 937.64 1043.49 455.22 <
-4 3 1 937.65 829.99 330.52 <
-4 3 1 937.65 832.39 407.14 <
-4 -3 1 937.64 961.93 316.47 o
-4 3 1 937.65 1328.95 506.33 <
4 3 -1 937.64 696.86 324.03 <
-4 -3 0 241.97 244.68 325.04 <
4 3 0 241.97 315.45 206.05 <
-4 3 0 241.96 359.83 298.35 <
-4 -3 0 241.97 339.43 219.17 <
-4 3 0 241.96 11.99 365.95 <
-4 -3 0 241.97 284.26 221.77 <
-4 -3 0 241.97 341.83 345.22 <
-4 3 0 241.96 125.94 304.80 <
-4 -3 0 241.97 328.64 441.24 <
-4 -3 0 241.97 304.65 212.10 <
4 -3 0 241.96 73.16 296.43 <
-4 3 0 241.96 520.55 320.55 <
4 -3 0 241.96 313.05 246.88 <
-4 -3 0 241.97 183.51 208.84 <
-4 3 0 241.96 337.04 280.42 <
-4 3 0 241.96 399.40 360.66 <
4 3 0 241.97 651.28 362.03 <
-4 3 0 241.96 291.46 384.93 <
4 3 0 241.97 510.95 451.58 <
4 -3 1 8357.97 8341.93 1144.52 o
-4 3 -1 8357.97 7899.35 975.85 o
-4 -3 -1 8358.05 6509.23 764.58 o
4 3 1 8358.05 8545.83 980.83 o
-4 -3 -1 8358.05 9371.03 1236.96 o
-4 3 -1 8357.97 8225.59 550.53 o
4 -3 1 8357.97 8045.68 851.59 o
4 3 1 8358.05 9452.59 1084.06 o
4 -3 1 8357.97 9241.50 890.50 o
-4 -3 -1 8358.05 8478.67 668.03 o
-4 3 -1 8357.97 7818.99 772.74 o
-4 3 -1 8357.97 8175.21 1121.08 o
-4 3 -1 8357.97 8910.46 1082.03 o
4 3 1 8358.05 10360.50 1056.66 o
4 -3 1 8357.97 9804.02 1015.72 o
4 -3 1 8357.97 8147.63 1109.61 o
-4 3 -1 8357.97 7870.56 1031.06 o
-4 -3 -1 8358.05 9309.86 1074.92 o
-4 -3 -1 8358.05 9213.91 874.03 o
-4 -3 -1 8358.05 8517.05 591.88 o
4 3 1 8358.05 6923.03 659.93 o
4 -3 2 11982.90 11296.10 1439.36 o
4 3 2 11982.90 11369.30 1226.59 o
-4 -3 -2 11982.90 10966.30 1570.90 o
4 3 2 11982.90 12278.40 1258.54 o
4 -3 2 11982.90 11598.30 1242.94 o
-4 3 -2 11982.90 10408.50 865.91 o
4 3 2 11982.90 11943.80 1438.88 o
4 -3 2 11982.90 11928.20 1019.84 o
-4 -3 -2 11982.90 11401.60 727.83 o
-4 3 -2 11982.90 11025.00 943.22 o
-4 -3 -2 11982.90 12189.70 1161.87 o
4 -3 2 11982.90 10755.20 1308.76 o
-4 -3 -2 11982.90 9403.42 603.50 o
-4 -3 -2 11982.90 12064.90 1375.21 o
-4 3 -2 11982.90 11484.40 1358.44 o
4 3 2 11982.90 9198.32 907.88 o
-4 3 -2 11982.90 14818.80 1473.71 o
4 -3 2 11982.90 11750.70 628.28 o
-4 3 -2 11982.90 12482.30 1277.87 o
4 -3 2 11982.90 13018.50 1248.81 o
4 3 3 15855.10 14894.30 1531.94 o
-4 3 -3 15855.00 14467.30 1533.25 o
-4 -3 -3 15855.10 11904.20 1824.79 o
4 -3 3 15855.00 15206.20 1701.75 o
-4 3 -3 15855.00 14460.20 1195.20 o
4 3 3 15855.10 17392.70 1930.24 o
4 -3 3 15855.00 13522.20 1151.25 o
-4 -3 -3 15855.10 16129.70 681.52 o
4 3 3 15855.10 16349.20 1606.10 o
4 -3 3 15855.00 13080.80 1511.88 o
4 -3 3 15855.00 17547.40 1504.47 o
-4 3 -3 15855.00 17140.80 1737.30 o
4 -3 3 15855.00 15219.40 1004.83 o
4 -3 3 15855.00 14349.80 1785.06 o
-4 3 -4 14485.60 12031.30 1558.22 o
-4 -3 -4 14485.60 13217.60 1912.11 o
4 -3 4 14485.60 12040.90 1793.70 o
-4 3 -4 14485.60 14105.10 1312.50 o
4 -3 4 14485.60 11911.40 1085.22 o
4 3 4 14485.60 15091.00 1661.41 o
4 3 4 14485.60 15049.10 1630.92 o
4 -3 4 14485.60 17701.00 1627.34 o
4 -3 4 14485.60 13170.80 1864.28 o
4 -3 4 14485.60 12572.30 1128.57 o
4 3 4 14485.60 12664.60 1607.72 o
4 3 5 9217.50 11267.30 1414.96 o
-4 3 -5 9217.52 8362.32 1400.45 o
-4 3 -5 9217.52 11899.40 1310.76 o
4 -3 5 9217.52 9010.01 1401.75 o
-4 -3 -5 9217.50 10053.50 1414.71 o
-4 -3 -5 9217.50 7634.28 1692.80 o
4 -3 5 9217.52 9829.21 877.61 o
4 3 5 9217.50 9824.41 1512.82 o
4 3 5 9217.50 9638.50 1315.68 o
4 3 5 9217.50 8084.06 1469.44 o
4 -3 5 9217.52 9391.42 1097.52 o
4 -3 6 3532.31 4532.59 842.10 o
4 3 6 3532.31 4562.58 1003.16 o
4 3 6 3532.31 2074.99 974.76 <
-4 -3 -6 3532.31 1042.29 1271.81 <
-4 3 -6 3532.31 5621.66 1028.14 o
-4 -3 -6 3532.31 4072.01 1073.59 o
4 3 6 3532.31 5211.46 997.28 o
4 -3 7 1771.52 2495.98 825.26 o
4 3 7 1771.52 2789.84 1009.99 <
-4 3 -7 1771.52 3185.65 995.90 o
-4 -3 -7 1771.52 2350.85 956.40 <
4 3 7 1771.52 2565.55 805.38 o
4 3 8 669.08 2693.89 1009.83 <
-4 4 10 396.01 632.09 899.21 <
4 -4 -10 396.01 967.93 826.31 <
-4 4 9 23056.80 28385.40 2633.67 o
4 4 -9 23056.90 36175.60 2812.51 o
4 -4 -9 23056.80 26689.40 2220.60 o
4 4 -9 23056.90 20131.00 1841.85 o
-4 -4 9 23056.90 22561.00 2271.64 o
-4 -4 8 50.08 1476.48 769.18 <
4 4 -8 50.08 -1141.84 607.86 <
-4 4 8 50.08 1210.21 829.64 <
4 -4 -8 50.08 623.70 676.79 <
4 4 -8 50.08 -73.16 390.99 <
-4 4 8 50.08 99.55 458.15 <
-4 4 7 5837.82 6719.12 1340.44 o
4 -4 -7 5837.82 5024.35 941.79 o
-4 4 7 5837.82 5478.93 920.41 o
4 4 -7 5837.84 5698.42 729.48 o
4 4 -7 5837.84 5660.04 883.14 o
-4 4 7 5837.82 6398.88 1446.72 o
4 -4 -7 5837.82 5703.22 1032.10 o
-4 -4 7 5837.84 7522.73 1162.25 o
4 4 -6 421.76 1787.13 520.62 o
-4 -4 6 421.76 1039.89 555.51 <
-4 4 6 421.76 503.75 634.34 <
4 4 -6 421.76 383.81 525.41 <
4 -4 -6 421.76 133.13 315.95 <
-4 4 6 421.76 57.57 525.64 <
4 -4 -6 421.76 -58.77 412.93 <
-4 -4 6 421.76 423.39 522.94 <
-4 4 6 421.76 91.16 379.44 <
-4 4 6 421.76 -1793.13 808.65 <
-4 -4 5 3112.30 2998.54 564.00 o
4 -4 -5 3112.29 3059.71 817.28 o
4 4 -5 3112.30 3072.90 763.21 o
-4 4 5 3112.29 2590.74 793.59 o
4 4 -5 3112.30 1782.33 408.77 o
4 4 -5 3112.30 3179.65 532.78 o
4 4 -5 3112.30 2749.06 599.10 o
-4 4 5 3112.29 2455.20 732.62 o
4 -4 -5 3112.29 1980.23 496.44 o
-4 -4 5 3112.30 3102.89 650.19 o
-4 4 5 3112.29 632.09 512.59 <
-4 4 5 3112.29 2798.24 674.92 o
4 -4 -5 3112.29 3845.33 693.78 o
4 4 -4 515.70 858.78 409.91 <
4 4 -4 515.70 684.87 329.07 <
-4 -4 4 515.70 326.24 310.02 <
4 4 -4 515.70 528.94 298.60 <
-4 4 4 515.71 647.68 416.94 <
4 -4 -4 515.71 273.47 356.80 <
4 4 -4 515.70 752.03 331.09 <
-4 -4 4 515.70 508.55 313.08 <
4 -4 -4 515.71 412.60 295.43 <
-4 4 4 515.71 310.65 331.60 <
4 -4 -4 515.71 605.71 318.65 <
-4 4 4 515.71 -1260.59 753.33 <
-4 4 4 515.71 696.86 449.17 <
-4 4 3 27208.00 34136.60 2040.15 o
-4 4 3 27208.00 24505.30 1603.19 o
4 4 -3 27208.00 28145.50 1315.77 o
-4 4 3 27208.00 28483.70 1900.78 o
-4 -4 3 27208.00 28702.00 1336.89 o
4 -4 -3 27208.00 26198.80 1037.82 o
-4 -4 3 27208.00 29541.60 1540.77 o
4 -4 -3 27208.00 28122.70 1606.83 o
-4 4 3 27208.00 32540.10 1592.60 o
-4 4 3 27208.00 28369.80 2018.71 o
4 4 -3 27208.00 28943.10 1664.86 o
-4 4 3 27208.00 29864.20 902.21 o
4 4 -3 27208.00 27490.60 1604.07 o
4 4 -3 27208.00 29815.10 1269.03 o
4 -4 -3 27208.00 28764.40 1560.19 o
-4 -4 3 27208.00 25426.40 1322.39 o
-4 4 2 14522.80 14450.60 854.53 o
-4 4 2 14522.80 15413.70 1376.43 o
4 4 -2 14522.80 15134.20 960.99 o
-4 -4 2 14522.80 15540.80 917.51 o
-4 -4 2 14522.80 15141.40 1297.58 o
-4 4 2 14522.80 16903.40 1173.84 o
-4 4 2 14522.80 12675.40 778.99 o
-4 -4 2 14522.80 13636.20 885.71 o
-4 -4 2 14522.80 16489.60 1373.94 o
4 -4 -2 14522.80 15164.20 1178.85 o
-4 -4 2 14522.80 14750.40 1189.09 o
-4 4 2 14522.80 15261.40 985.67 o
4 4 -2 14522.80 15964.20 1332.52 o
-4 4 2 14522.80 15769.90 1398.42 o
4 4 -2 14522.80 14604.10 1047.98 o
4 -4 -2 14522.80 14780.40 1135.07 o
-4 4 2 14522.80 15765.10 1468.42 o
-4 -4 2 14522.80 15171.40 1093.16 o
4 4 -2 14522.80 14732.40 873.16 o
-4 4 1 53728.10 58182.40 2512.40 o
-4 -4 1 53728.20 60389.40 2110.49 o
-4 4 1 53728.10 56457.70 1043.89 o
-4 4 1 53728.10 55991.10 2252.58 o
-4 -4 1 53728.20 55025.60 1780.44 o
-4 -4 1 53728.20 58319.20 2479.61 o
-4 4 1 53728.10 56127.80 2148.57 o
4 -4 -1 53728.10 57501.20 1994.94 o
-4 4 1 53728.10 56205.80 2075.49 o
-4 4 1 53728.10 48370.00 2418.27 o
-4 4 1 53728.10 67491.10 2022.23 o
4 4 -1 53728.20 56139.80 2111.93 o
-4 -4 1 53728.20 53498.70 2140.39 o
-4 4 1 53728.10 56293.40 2402.25 o
4 -4 -1 53728.10 53733.80 2352.94 o
-4 -4 1 53728.20 55654.10 1555.93 o
-4 -4 1 53728.20 57509.60 2195.46 o
4 4 -1 53728.20 54560.20 1467.98 o
-4 -4 0 14831.40 16102.20 1319.59 o
-4 4 0 14831.40 15098.20 1332.55 o
-4 4 0 14831.40 14932.70 996.68 o
-4 -4 0 14831.40 15020.30 995.93 o
-4 -4 0 14831.40 16002.60 1491.72 o
-4 4 0 14831.40 15633.20 1304.07 o
-4 -4 0 14831.40 15647.60 970.97 o
4 -4 0 14831.40 16176.50 1152.57 o
-4 4 0 14831.40 14265.80 1123.46 o
-4 4 0 14831.40 12981.30 1306.45 o
4 4 0 14831.40 15840.70 1250.09 o
-4 -4 0 14831.40 15656.00 1054.59 o
-4 -4 0 14831.40 16436.80 1267.09 o
-4 4 0 14831.40 15542.00 1310.38 o
-4 4 0 14831.40 14754.00 1352.57 o
4 4 0 14831.40 14607.70 854.86 o
4 -4 1 17912.90 16875.80 1658.45 o
4 4 1 17912.80 20065.00 1447.39 o
-4 -4 -1 17912.80 16096.20 1213.03 o
-4 -4 -1 17912.80 18054.80 1201.52 o
4 4 1 17912.80 17921.70 1380.25 o
-4 4 -1 17912.90 17707.00 721.14 o
-4 -4 -1 17912.80 18880.00 625.41 o
-4 -4 -1 17912.80 17838.90 1773.32 o
4 -4 1 17912.90 16681.50 1171.40 o
4 4 1 17912.80 18239.50 1577.84 o
-4 -4 -1 17912.80 18058.40 961.41 o
4 -4 1 17912.90 19031.10 1298.13 o
-4 4 -1 17912.90 19323.80 1494.32 o
-4 4 -1 17912.90 16544.70 1209.31 o
-4 4 -1 17912.90 17552.20 1584.51 o
-4 4 -1 17912.90 17348.30 1458.08 o
4 -4 1 17912.90 20356.50 1529.23 o
4 4 1 17912.80 15945.00 1071.38 o
-4 -4 -1 17912.80 19918.70 1550.97 o
-4 4 -1 17912.90 19641.60 1557.22 o
4 -4 2 7067.33 6672.35 1139.12 o
4 4 2 7067.34 6967.40 955.29 o
-4 -4 -2 7067.34 6866.65 1296.75 o
-4 4 -2 7067.33 7119.73 655.92 o
4 -4 2 7067.33 5869.94 888.88 o
4 4 2 7067.34 7347.62 1174.88 o
-4 4 -2 7067.33 6969.80 1064.22 o
4 -4 2 7067.33 5778.78 789.92 o
-4 -4 -2 7067.34 7203.69 551.09 o
-4 4 -2 7067.33 6698.73 800.39 o
-4 4 -2 7067.33 6827.07 1012.65 o
-4 4 -2 7067.33 7459.16 1103.23 o
4 4 2 7067.34 8592.61 1078.77 o
4 -4 2 7067.33 7532.33 1048.86 o
-4 -4 -2 7067.34 7023.78 1099.33 o
-4 -4 -2 7067.34 7314.03 897.20 o
4 -4 2 7067.33 6371.29 474.81 o
4 -4 3 216.69 27.59 240.05 <
4 -4 3 216.69 1029.10 563.51 <
4 -4 3 216.69 -134.34 491.77 <
-4 4 -3 216.69 340.63 505.98 <
-4 4 -3 216.69 123.54 315.56 <
-4 -4 -3 216.69 -26.39 544.60 <
4 4 3 216.69 223.09 364.61 <
4 -4 3 216.69 75.56 459.47 <
4 4 3 216.69 146.33 555.38 <
4 -4 3 216.69 -7.20 320.36 <
-4 4 -3 216.69 -165.52 429.36 <
-4 -4 -3 216.69 229.09 160.68 <
-4 -4 -3 216.69 301.05 336.87 <
4 4 3 216.69 388.61 493.88 <
4 -4 4 5276.64 5420.16 1048.93 o
-4 4 -4 5276.64 4160.77 732.81 o
-4 -4 -4 5276.63 5520.91 1384.22 o
4 4 4 5276.63 4724.50 980.58 o
4 -4 4 5276.64 5791.98 1285.17 o
4 -4 4 5276.64 4660.93 726.02 o
-4 4 -4 5276.64 4398.26 1010.15 o
4 4 4 5276.63 5345.79 1061.85 o
4 -4 4 5276.64 5380.58 717.79 o
4 4 5 6516.94 5448.94 1047.01 o
4 -4 5 6516.95 6967.40 1412.50 o
4 4 5 6516.94 5845.95 1178.95 o
-4 4 -5 6516.95 6443.26 1018.23 o
-4 -4 -5 6516.94 5552.09 1451.10 o
-4 -4 -5 6516.94 6001.87 1146.12 o
4 -4 5 6516.95 5348.19 774.30 o
4 4 5 6516.94 6936.22 1311.75 o
-4 4 -5 6516.95 5534.10 1282.21 o
4 -4 5 6516.95 7296.04 953.02 o
4 -4 6 1.64 -184.71 390.85 <
4 4 6 1.64 164.32 622.43 <
4 4 6 1.64 -788.02 768.57 <
-4 -4 -6 1.64 95.95 882.75 <
-4 4 -6 1.64 -22.79 468.97 <
-4 -4 -6 1.64 561.33 758.57 <
4 4 6 1.64 -496.56 493.26 <
4 4 6 1.64 503.75 643.46 <
4 -4 7 5930.48 6248.95 1093.18 o
4 4 7 5930.46 7165.31 1358.68 o
-4 4 -7 5930.48 7240.87 1241.06 o
-4 -4 -7 5930.46 7539.52 1366.88 o
4 4 7 5930.46 7415.98 1214.04 o
4 4 8 3469.75 5814.77 1337.93 o
4 -5 -10 2199.40 4113.99 1182.39 o
-4 -5 9 233.72 1150.24 767.61 <
-4 5 9 233.72 2350.85 1173.12 <
4 -5 -9 233.72 2210.52 995.34 <
4 5 -9 233.72 425.79 466.21 <
4 -5 -9 233.72 -448.58 549.95 <
-4 -5 8 859.44 1588.03 717.58 <
4 5 -8 859.44 -392.21 617.01 <
-4 5 8 859.42 1340.95 906.45 <
4 -5 -8 859.42 74.36 453.58 <
4 -5 -8 859.42 1091.47 732.07 <
-4 5 8 859.42 -522.95 584.28 <
4 5 -8 859.44 1233.00 476.49 <
-4 5 7 9006.42 10268.20 1611.61 o
4 5 -7 9006.40 5904.72 931.58 o
-4 5 7 9006.42 8879.27 1719.15 o
4 -5 -7 9006.42 8230.39 1236.26 o
4 -5 -7 9006.42 8284.36 1152.34 o
-4 5 7 9006.42 10153.10 1336.57 o
-4 -5 7 9006.40 9711.67 1267.18 o
-4 -5 6 3412.17 2984.15 715.76 o
-4 5 6 3412.16 3832.13 1089.26 o
4 5 -6 3412.17 2708.28 498.24 o
-4 5 6 3412.16 3998.85 1072.09 o
4 -5 -6 3412.16 2571.55 716.92 o
-4 5 6 3412.16 3661.81 811.77 o
4 5 -6 3412.17 5133.50 742.68 o
4 -5 -6 3412.16 4197.95 801.60 o
-4 5 6 3412.16 3708.59 912.34 o
4 5 -5 8684.45 8467.87 1166.05 o
-4 5 5 8684.53 8169.22 1308.08 o
4 -5 -5 8684.53 8831.29 1302.59 o
-4 5 5 8684.53 8647.78 1269.58 o
4 5 -5 8684.45 9219.91 994.70 o
-4 -5 5 8684.45 7585.10 1006.97 o
4 -5 -5 8684.53 5723.61 876.60 o
-4 5 5 8684.53 8058.87 1290.63 o
4 -5 -5 8684.53 8515.85 1001.39 o
-4 -5 5 8684.45 9129.95 1778.14 o
-4 5 5 8684.53 10028.30 1130.43 o
4 5 -5 8684.45 8840.89 874.21 o
4 5 -5 8684.45 9691.28 912.29 o
-4 5 5 8684.53 7750.62 1228.60 o
-4 -5 5 8684.45 8790.51 969.23 o
4 -5 -4 269.33 418.60 334.24 <
4 5 -4 269.33 325.04 287.72 <
-4 -5 4 269.33 290.26 280.61 <
-4 5 4 269.33 279.46 140.28 <
4 5 -4 269.33 -187.11 422.18 <
-4 5 4 269.33 -121.14 484.63 <
4 -5 -4 269.33 443.78 427.81 <
4 5 -4 269.33 484.56 315.97 <
-4 5 4 269.33 279.46 441.37 <
-4 -5 4 269.33 692.06 373.92 <
4 -5 -4 269.33 6.00 285.67 <
-4 5 4 269.33 658.48 560.45 <
-4 5 4 269.33 898.36 498.07 <
-4 5 4 269.33 352.63 326.04 <
4 5 -4 269.33 819.20 463.57 <
4 5 -3 91.56 242.28 302.02 <
-4 -5 3 91.56 317.85 289.80 <
-4 5 3 91.56 -356.23 570.53 <
-4 5 3 91.56 -50.38 438.99 <
4 5 -3 91.56 657.28 373.72 <
4 5 -3 91.56 153.52 239.80 <
4 5 -3 91.56 25.19 233.92 <
-4 5 3 91.56 94.75 303.45 <
-4 -5 3 91.56 322.64 495.08 <
4 -5 -3 91.56 44.38 199.14 <
4 -5 -3 91.56 431.79 386.74 <
4 -5 -3 91.56 -173.91 365.69 <
-4 -5 3 91.56 98.35 307.05 <
-4 5 3 91.56 315.45 321.04 <
-4 5 3 91.56 502.55 442.97 <
-4 5 3 91.56 -267.47 707.48 <
4 -5 -3 91.56 343.03 346.18 <
-4 5 3 91.56 -27.59 244.70 <
-4 5 3 91.56 296.26 229.80 <
4 5 -2 784.61 1121.45 390.12 <
-4 -5 2 784.61 784.42 321.44 <
4 5 -2 784.61 858.78 314.98 <
-4 -5 2 784.61 64.77 444.97 <
-4 5 2 784.61 810.80 411.28 <
4 -5 -2 784.61 1147.84 427.30 <
4 5 -2 784.61 917.55 320.58 <
-4 -5 2 784.61 803.61 443.70 <
-4 5 2 784.61 850.39 190.02 o
-4 -5 2 784.61 877.97 337.67 <
-4 5 2 784.61 582.92 153.20 o
-4 5 2 784.61 1003.91 435.46 <
4 -5 -2 784.61 1348.14 457.16 <
-4 5 2 784.61 615.30 345.02 <
-4 -5 2 784.61 1047.09 476.10 <
-4 5 2 784.61 1249.79 547.10 <
-4 5 2 784.61 689.66 367.47 <
-4 5 2 784.61 504.95 323.89 <
-4 -5 2 784.61 952.34 410.52 <
4 5 -1 67.30 437.79 283.28 <
-4 -5 1 67.30 135.53 263.80 <
-4 5 1 67.30 69.57 100.75 <
4 5 -1 67.30 226.69 219.19 <
-4 -5 1 67.30 735.24 515.36 <
-4 5 1 67.30 230.29 297.22 <
-4 5 1 67.30 334.64 463.83 <
-4 -5 1 67.30 195.51 292.50 <
-4 5 1 67.30 103.15 332.21 <
4 -5 -1 67.30 213.50 347.66 <
4 -5 -1 67.30 512.15 381.60 <
-4 -5 1 67.30 121.14 408.97 <
-4 -5 1 67.30 226.69 351.24 <
-4 5 1 67.30 248.28 269.57 <
-4 5 1 67.30 185.91 332.11 <
4 -5 -1 67.30 116.34 316.61 <
-4 5 1 67.30 191.91 332.10 <
-4 5 1 67.30 -20.39 391.02 <
4 5 0 1114.53 831.20 353.21 <
4 5 0 1114.53 1098.66 316.78 o
4 -5 0 1114.53 1765.54 531.61 o
-4 -5 0 1114.53 1174.23 485.42 <
-4 -5 0 1114.53 1562.84 404.05 o
-4 5 0 1114.53 1013.51 461.13 <
-4 -5 0 1114.53 1477.68 492.97 <
-4 5 0 1114.53 1422.51 465.68 o
-4 5 0 1114.53 900.76 520.31 <
-4 -5 0 1114.53 1248.59 524.61 <
4 -5 0 1114.53 1540.05 452.63 o
4 -5 0 1114.53 897.16 485.61 <
-4 5 0 1114.53 912.76 363.53 <
4 5 0 1114.53 1667.19 552.98 <
-4 5 0 1114.53 1632.40 614.76 <
-4 -5 0 1114.53 1183.82 352.08 o
-4 5 0 1114.53 1316.96 468.88 <
4 5 1 2081.68 1939.45 432.16 o
-4 -5 -1 2081.68 2769.45 689.61 o
4 -5 1 2081.68 2275.29 610.02 o
-4 -5 -1 2081.68 2134.96 521.23 o
-4 5 -1 2081.68 1244.99 277.52 o
-4 5 -1 2081.68 2713.08 709.53 o
-4 -5 -1 2081.68 2392.83 694.40 o
4 -5 1 2081.68 2110.97 657.05 o
4 -5 1 2081.68 1865.09 417.42 o
-4 -5 -1 2081.68 2103.77 384.72 o
4 -5 1 2081.68 2191.33 543.49 o
4 5 1 2081.68 2596.73 651.49 o
-4 5 -1 2081.68 2146.95 549.93 o
4 5 1 2081.68 1555.64 536.63 <
-4 5 -1 2081.68 2945.76 673.13 o
4 5 1 2081.68 2238.11 539.42 o
-4 -5 -1 2081.68 2299.28 459.25 o
-4 5 -1 2081.68 2656.70 662.96 o
-4 5 -1 2081.68 2519.97 737.86 o
-4 -5 -2 910.29 660.88 491.47 <
4 -5 2 910.29 1081.87 256.23 o
4 -5 2 910.29 1250.99 646.25 <
-4 5 -2 910.29 1151.44 358.10 o
4 -5 2 910.29 832.39 486.09 <
-4 -5 -2 910.29 736.44 633.81 <
-4 5 -2 910.29 923.55 527.69 <
4 -5 2 910.29 789.22 495.85 <
-4 5 -2 910.29 921.15 501.31 <
-4 -5 -2 910.29 752.03 237.57 o
4 -5 2 910.29 1411.71 538.16 <
4 5 2 910.29 1387.72 651.52 <
4 5 2 910.29 1123.85 430.54 <
-4 -5 -2 910.29 1153.84 401.45 <
-4 5 -2 910.29 1246.19 683.53 <
4 5 2 910.29 1755.94 647.88 <
-4 5 -3 9823.76 9606.12 1361.46 o
4 5 3 9823.72 8923.65 1120.19 o
-4 -5 -3 9823.72 9149.14 1593.98 o
-4 5 -3 9823.76 8710.15 914.50 o
4 5 3 9823.72 8000.10 994.56 o
4 5 3 9823.72 10112.30 1253.87 o
4 -5 3 9823.76 9390.22 1042.26 o
-4 -5 -3 9823.72 8641.79 482.25 o
-4 5 -3 9823.76 10445.70 1323.45 o
4 -5 3 9823.76 11885.00 1433.55 o
4 -5 3 9823.76 9765.64 753.85 o
-4 -5 -3 9823.72 9651.70 1047.33 o
4 -5 3 9823.76 9723.66 1528.39 o
4 -5 4 1275.96 1049.49 400.93 <
4 -5 4 1275.96 1340.95 690.57 <
-4 5 -4 1275.96 1117.85 448.37 <
-4 -5 -4 1275.96 2498.38 1070.16 <
4 5 4 1275.96 967.93 574.70 <
4 -5 4 1275.96 988.32 768.60 <
4 -5 4 1275.96 1071.08 439.06 <
-4 5 -4 1275.96 1294.17 737.56 <
4 5 4 1275.96 1210.21 625.21 <
4 -5 5 844.97 1236.60 486.03 <
-4 5 -5 844.97 -22.79 446.26 <
4 5 5 844.97 -121.14 461.76 <
-4 -5 -5 844.97 1416.51 843.60 <
4 -5 5 844.97 849.19 464.15 <
-4 5 -5 844.97 479.77 630.53 <
4 5 5 844.97 558.93 533.38 <
4 -5 6 1360.52 331.04 449.90 <
4 5 6 1360.52 965.53 650.48 <
4 5 6 1360.52 881.57 662.69 <
-4 -5 -6 1360.52 296.26 792.52 <
-4 5 -6 1360.52 1351.74 630.94 <
-4 -5 -6 1360.52 2313.67 873.96 <
-4 5 -6 1360.52 1529.25 1053.72 <
4 5 6 1360.52 795.21 731.07 <
4 -5 7 2863.11 3742.18 950.71 o
4 5 7 2863.11 3246.82 1021.49 o
4 5 7 2863.11 1077.07 770.98 <
-4 5 -7 2863.11 2340.06 831.40 <
-4 -5 -7 2863.11 2643.51 1043.66 <
4 5 7 2863.11 2906.18 836.84 o
4 -6 -10 8231.98 13059.20 1755.09 o
4 -6 -10 8231.98 5994.68 1189.46 o
-4 -6 9 60.52 -1753.55 882.52 <
-4 6 9 60.52 -239.88 622.34 <
4 -6 -9 60.52 789.22 720.72 <
4 -6 -9 60.52 -307.05 522.63 <
-4 -6 8 5513.52 4748.49 1016.59 o
-4 6 8 5513.52 6486.44 1442.55 o
4 -6 -8 5513.52 5989.88 1226.38 o
4 -6 -8 5513.52 4954.78 998.84 o
-4 -6 7 1620.31 526.54 468.00 <
4 6 -7 1620.31 -250.68 620.91 <
-4 6 7 1620.32 2857.01 1024.44 <
4 6 -7 1620.31 313.05 764.71 <
4 -6 -7 1620.32 1243.79 717.78 <
-4 6 7 1620.32 2607.53 1111.81 <
-4 6 7 1620.32 1366.13 744.83 <
4 -6 -7 1620.32 1694.77 596.81 <
-4 -6 6 514.96 28.79 391.58 <
4 6 -6 514.96 1510.06 546.61 <
-4 6 6 514.96 -196.70 536.40 <
4 6 -6 514.96 35.98 449.08 <
4 -6 -6 514.96 711.25 565.59 <
-4 6 6 514.96 1655.19 890.85 <
4 6 -6 514.96 -289.06 361.20 <
4 -6 -6 514.96 680.07 427.61 <
4 6 -5 386.86 1163.43 596.89 <
4 6 -5 386.86 296.26 345.64 <
-4 6 5 386.86 -190.71 671.75 <
4 6 -5 386.86 380.21 357.44 <
-4 -6 5 386.86 452.18 425.63 <
-4 6 5 386.86 497.76 606.70 <
4 -6 -5 386.86 76.76 362.59 <
-4 -6 5 386.86 109.15 364.99 <
-4 6 5 386.86 586.51 486.45 <
4 6 -5 386.86 99.55 303.90 <
4 -6 -5 386.86 394.61 327.42 <
-4 -6 5 386.86 -230.29 765.26 <
-4 6 5 386.86 345.43 475.04 <
4 -6 -5 386.86 8.40 463.24 <
-4 -6 4 7809.64 7690.65 845.80 o
-4 6 4 7809.67 7597.10 976.74 o
4 6 -4 7809.64 8097.25 869.24 o
-4 6 4 7809.67 7947.33 1123.93 o
-4 -6 4 7809.64 8897.26 913.88 o
4 -6 -4 7809.67 6389.29 796.37 o
4 -6 -4 7809.67 7407.59 1129.12 o
4 -6 -4 7809.67 6914.63 896.62 o
-4 6 4 7809.67 10097.90 1099.78 o
-4 6 4 7809.67 7592.30 538.81 o
-4 -6 4 7809.64 7538.33 826.43 o
-4 6 4 7809.67 7609.09 1276.68 o
4 6 -4 7809.64 8689.76 960.43 o
4 -6 -4 7809.67 8290.36 919.40 o
4 6 -4 7809.64 8028.89 894.90 o
-4 -6 4 7809.64 6950.61 1477.02 o
4 6 -4 7809.64 6460.05 861.19 o
-4 6 3 5479.48 6127.81 937.78 o
-4 6 3 5479.48 5180.27 950.34 o
4 6 -3 5479.41 5939.50 719.22 o
4 6 -3 5479.41 6023.46 790.42 o
-4 -6 3 5479.41 10087.10 994.55 o
4 -6 -3 5479.48 4536.19 547.00 o
4 -6 -3 5479.48 5622.86 927.48 o
-4 -6 3 5479.41 5805.17 756.97 o
-4 6 3 5479.48 4236.33 572.89 o
4 -6 -3 5479.48 5501.72 802.04 o
-4 6 3 5479.48 5926.31 857.58 o
-4 6 3 5479.48 5323.00 648.41 o
-4 6 3 5479.48 6650.76 1080.09 o
-4 6 3 5479.48 5716.41 780.32 o
4 6 -3 5479.41 5156.29 744.34 o
4 -6 -3 5479.48 4752.08 724.59 o
-4 -6 3 5479.41 5093.92 629.03 o
-4 -6 3 5479.41 4523.00 1175.33 o
4 6 -3 5479.41 5321.81 696.19 o
-4 6 2 20103.20 22015.30 1634.62 o
-4 -6 2 20103.10 18610.10 1976.80 o
4 -6 -2 20103.20 14575.30 804.15 o
4 6 -2 20103.10 20879.40 1264.13 o
-4 -6 2 20103.10 20677.90 1136.43 o
-4 -6 2 20103.10 23936.70 1226.98 o
4 -6 -2 20103.20 18454.20 622.53 o
-4 -6 2 20103.10 21250.00 1502.29 o
-4 -6 2 20103.10 22686.90 1786.06 o
4 -6 -2 20103.20 22148.40 1602.74 o
-4 6 2 20103.20 21900.10 1399.10 o
4 -6 -2 20103.20 21589.50 1407.20 o
-4 6 2 20103.20 21819.80 1444.69 o
-4 6 2 20103.20 17519.90 1361.43 o
-4 -6 2 20103.10 20985.00 1399.96 o
-4 6 2 20103.20 25332.90 1859.70 o
-4 6 2 20103.20 20856.60 1700.59 o
4 6 -2 20103.10 19853.90 1390.33 o
-4 6 2 20103.20 19124.70 884.44 o
-4 -6 2 20103.10 17092.90 1485.69 o
-4 -6 1 10395.00 9973.14 1201.97 o
-4 -6 1 10395.00 11449.60 1064.19 o
-4 -6 1 10395.00 11290.10 913.65 o
4 -6 -1 10395.00 10546.50 1221.48 o
-4 -6 1 10395.00 11801.00 1318.25 o
4 -6 -1 10395.00 11201.30 1035.25 o
-4 6 1 10395.00 10425.30 982.75 o
4 -6 -1 10395.00 9929.96 1099.36 o
-4 6 1 10395.00 9153.94 1138.37 o
-4 6 1 10395.00 14989.10 1413.52 o
4 6 -1 10395.00 10325.80 1025.98 o
-4 6 1 10395.00 10695.20 1084.45 o
-4 6 1 10395.00 12000.20 1273.13 o
-4 -6 1 10395.00 11027.40 1088.48 o
-4 -6 1 10395.00 10127.90 885.40 o
-4 6 1 10395.00 10171.00 487.60 o
-4 6 1 10395.00 10360.50 1249.28 o
-4 -6 0 22210.00 23209.90 1177.68 o
4 -6 0 22210.00 22228.80 1809.37 o
-4 6 0 22210.00 23459.40 1558.71 o
-4 -6 0 22210.00 22573.00 1342.04 o
-4 -6 0 22210.00 25885.80 2033.03 o
4 6 0 22210.00 24856.70 1831.73 o
4 -6 0 22210.00 23379.00 1518.54 o
-4 6 0 22210.00 21636.30 1416.30 o
-4 6 0 22210.00 22222.80 1802.34 o
4 -6 0 22210.00 25573.90 1804.39 o
-4 6 0 22210.00 25557.10 1771.94 o
4 6 0 22210.00 22893.20 1549.83 o
-4 6 0 22210.00 21997.30 1644.07 o
-4 6 0 22210.00 21931.30 1804.91 o
-4 -6 0 22210.00 23331.00 1580.60 o
-4 6 0 22210.00 22579.00 621.26 o
-4 -6 0 22210.00 24215.00 1503.68 o
-4 -6 -1 3089.52 3752.97 773.58 o
-4 6 -1 3089.55 3637.83 704.83 o
-4 6 -1 3089.55 2672.30 306.77 o
4 -6 1 3089.55 3754.17 806.24 o
-4 -6 -1 3089.52 2898.99 580.46 o
-4 6 -1 3089.55 3105.29 767.47 o
-4 -6 -1 3089.52 3051.31 901.07 o
4 -6 1 3089.55 2781.44 750.08 o
4 -6 1 3089.55 2779.05 446.23 o
-4 6 -1 3089.55 3639.03 721.76 o
4 -6 1 3089.55 3612.64 699.11 o
4 6 1 3089.52 3576.66 825.17 o
-4 6 -1 3089.55 2933.77 602.76 o
-4 -6 -1 3089.52 3846.52 549.57 o
-4 6 -1 3089.55 3218.03 810.80 o
4 6 1 3089.52 3394.35 593.26 o
4 6 1 3089.52 2348.46 551.77 o
4 -6 2 6980.82 6582.39 1199.98 o
4 6 2 6980.80 7092.14 905.88 o
-4 -6 -2 6980.80 7723.04 1440.88 o
4 -6 2 6980.82 7197.69 979.74 o
4 6 2 6980.80 8993.22 1281.16 o
4 -6 2 6980.82 8880.47 1230.40 o
-4 6 -2 6980.82 7895.75 1079.74 o
-4 -6 -2 6980.80 6957.81 548.83 o
4 6 2 6980.80 6841.47 813.64 o
4 -6 2 6980.82 7218.08 966.13 o
-4 6 -2 6980.82 8007.30 1241.87 o
-4 6 -2 6980.82 7285.25 974.55 o
4 6 2 6980.80 8193.21 1102.28 o
-4 -6 -2 6980.80 6654.36 768.55 o
4 -6 2 6980.82 7376.40 550.16 o
-4 6 -2 6980.82 6815.08 1177.75 o
4 6 3 1649.70 822.80 323.46 <
4 -6 3 1649.70 1687.58 367.81 o
4 -6 3 1649.70 2088.18 764.96 <
-4 6 -3 1649.70 2440.81 614.61 o
4 -6 3 1649.70 1372.13 706.64 <
-4 -6 -3 1649.70 1221.00 704.85 <
4 6 3 1649.70 1739.15 571.48 o
-4 6 -3 1649.70 1526.86 625.64 <
-4 6 -3 1649.70 1789.53 675.60 <
4 -6 3 1649.70 1710.37 544.08 o
-4 -6 -3 1649.70 1454.89 222.71 o
-4 -6 -3 1649.70 1492.07 497.73 o
4 6 3 1649.70 3106.49 820.10 o
-4 6 -4 791.73 894.76 600.55 <
4 -6 4 791.73 758.03 338.42 <
4 -6 4 791.73 1337.35 716.34 <
4 -6 4 791.73 632.09 595.35 <
-4 6 -4 791.73 605.71 461.22 <
-4 -6 -4 791.73 1248.59 881.41 <
4 -6 4 791.73 687.27 657.55 <
4 6 4 791.73 340.63 511.99 <
4 -6 4 791.73 898.36 485.31 <
-4 6 -4 791.73 430.59 519.07 <
-4 -6 -4 791.73 933.15 450.31 <
4 6 4 791.73 837.19 603.16 <
4 -6 5 342.69 -50.38 366.07 <
-4 6 -5 342.69 -70.77 429.59 <
-4 -6 -5 342.70 379.02 729.20 <
4 6 5 342.70 165.52 741.37 <
4 -6 5 342.69 1114.26 562.11 <
-4 6 -5 342.69 901.96 840.85 <
4 6 5 342.70 339.43 645.29 <
4 -6 6 6482.12 5662.44 952.68 o
4 6 6 6482.11 6505.63 1311.88 o
-4 6 -6 6482.12 5690.03 1028.17 o
-4 -6 -6 6482.11 5711.62 1769.39 o
4 6 6 6482.11 3810.54 1031.17 o
-4 -6 -6 6482.11 5899.92 1301.93 o
4 -6 6 6482.12 7394.40 966.39 o
-4 6 -6 6482.12 5291.82 1616.10 o
4 6 6 6482.11 6211.77 1339.21 o
4 6 7 61.26 -462.97 800.73 <
-4 6 -7 61.26 -551.73 757.31 <
-4 -6 -7 61.26 895.96 782.84 <
4 6 7 61.26 1206.61 717.70 <
4 -7 -10 2919.83 4887.62 1237.34 o
4 -7 -10 2919.83 1602.42 715.53 <
-4 -7 9 566.29 497.76 571.07 <
-4 7 9 566.30 1289.37 946.82 <
4 -7 -9 566.30 1983.83 857.60 <
4 -7 -9 566.30 764.03 615.96 <
-4 -7 8 6055.73 5839.95 1112.22 o
4 7 -8 6055.73 2913.38 857.19 o
-4 7 8 6055.74 7760.22 1583.95 o
4 7 -8 6055.73 9095.17 1512.35 o
4 -7 -8 6055.74 7032.17 1342.48 o
4 -7 -8 6055.74 6895.44 1115.56 o
-4 -7 7 13437.80 15810.70 1533.22 o
-4 7 7 13437.80 13210.40 1841.45 o
4 7 -7 13437.80 17636.20 1680.45 o
4 -7 -7 13437.80 14505.70 1606.39 o
-4 7 7 13437.80 10877.50 1879.85 o
4 -7 -7 13437.80 14697.60 1456.74 o
4 7 -7 13437.80 10632.80 1384.01 o
-4 7 6 8383.32 7173.70 1377.40 o
4 7 -6 8383.30 8981.22 1188.86 o
4 -7 -6 8383.32 8813.30 1210.04 o
-4 7 6 8383.32 7315.23 1325.88 o
4 7 -6 8383.30 7282.85 814.41 o
4 -7 -6 8383.32 8299.95 1069.04 o
4 7 -6 8383.30 7715.84 1088.82 o
-4 -7 6 8383.30 8849.29 1109.12 o
-4 7 5 35898.30 28024.30 2438.14 o
4 7 -5 35898.20 36024.40 2018.02 o
-4 -7 5 35898.20 37411.00 2052.70 o
4 -7 -5 35898.30 32715.30 2165.24 o
-4 7 5 35898.30 34103.00 2506.00 o
-4 7 5 35898.30 38681.10 2237.25 o
-4 7 5 35898.30 36172.00 2937.71 o
4 -7 -5 35898.30 34671.50 2010.69 o
4 7 -5 35898.20 38984.60 1961.74 o
4 7 -5 35898.20 38279.30 1734.93 o
-4 -7 5 35898.20 36735.70 1937.99 o
4 7 -5 35898.20 32792.00 2256.81 o
-4 -7 4 11707.90 11994.20 1016.29 o
4 -7 -4 11707.90 12010.90 1426.04 o
-4 -7 4 11707.90 10813.90 1817.09 o
4 7 -4 11707.90 11384.90 1061.51 o
-4 7 4 11707.90 10099.10 1089.07 o
-4 7 4 11707.90 12725.80 1380.37 o
-4 -7 4 11707.90 12056.50 1134.27 o
4 -7 -4 11707.90 10876.30 1046.98 o
4 -7 -4 11707.90 11444.80 1172.06 o
-4 7 4 11707.90 13860.40 1324.21 o
-4 7 4 11707.90 12494.30 1592.79 o
4 -7 -4 11707.90 12897.30 1147.13 o
4 7 -4 11707.90 11927.00 1142.40 o
-4 -7 4 11707.90 11973.80 1024.12 o
4 7 -4 11707.90 11588.80 1135.18 o
-4 -7 3 18587.10 17778.90 2035.88 o
-4 7 3 18587.00 19069.50 1623.77 o
4 7 -3 18587.10 18738.50 1281.69 o
-4 7 3 18587.00 13599.00 988.41 o
4 -7 -3 18587.00 18595.70 1647.76 o
4 -7 -3 18587.00 12429.50 1147.52 o
-4 -7 3 18587.10 19910.30 1318.86 o
4 -7 -3 18587.00 18016.40 1423.34 o
-4 7 3 18587.00 21070.10 1515.20 o
-4 7 3 18587.00 18453.00 1780.88 o
4 7 -3 18587.10 17184.00 1383.40 o
-4 7 3 18587.00 19485.70 1413.93 o
4 7 -3 18587.10 19008.30 1377.54 o
-4 -7 3 18587.10 17392.70 1208.78 o
4 7 -3 18587.10 18537.00 1258.76 o
-4 7 2 4465.98 5387.77 924.67 o
-4 -7 2 4465.97 3817.74 714.10 o
4 -7 -2 4465.98 4119.99 309.05 o
-4 7 2 4465.98 5018.35 731.33 o
-4 -7 2 4465.97 5096.32 699.57 o
-4 7 2 4465.98 5079.52 955.65 o
4 -7 -2 4465.98 4171.57 382.20 o
-4 -7 2 4465.97 4501.41 733.52 o
4 7 -2 4465.97 4286.71 627.88 o
4 -7 -2 4465.98 5032.75 903.09 o
4 -7 -2 4465.98 4898.41 752.70 o
-4 7 2 4465.98 4860.03 741.23 o
-4 7 2 4465.98 5153.89 938.92 o
-4 -7 2 4465.97 4257.92 884.02 o
-4 -7 2 4465.97 4761.68 710.21 o
-4 -7 2 4465.97 4250.73 963.05 o
4 7 -2 4465.97 4694.51 763.11 o
4 -7 -2 4465.98 4085.21 786.93 o
-4 7 2 4465.98 4600.96 463.40 o
-4 -7 2 4465.97 4964.38 619.29 o
-4 -7 1 38.51 233.89 288.79 <
4 7 -1 38.51 74.36 346.62 <
-4 7 1 38.51 269.87 178.11 <
-4 -7 1 38.51 371.82 326.80 <
-4 7 1 38.51 -248.28 654.71 <
-4 7 1 38.51 15.59 438.99 <
-4 -7 1 38.51 449.78 362.57 <
-4 7 1 38.51 -127.14 365.74 <
-4 -7 1 38.51 261.47 363.15 <
4 -7 -1 38.51 -171.52 374.08 <
-4 -7 1 38.51 191.91 435.27 <
-4 -7 1 38.51 39.58 260.27 <
-4 7 1 38.51 245.88 339.17 <
4 -7 -1 38.51 -39.58 303.45 <
4 -7 -1 38.51 226.69 407.62 <
-4 7 1 38.51 251.88 349.96 <
4 7 0 133.34 187.11 326.17 <
-4 7 0 133.34 17.99 280.72 <
-4 -7 0 133.34 1194.62 638.34 <
-4 7 0 133.34 173.91 165.43 <
4 -7 0 133.34 -124.74 436.56 <
-4 -7 0 133.34 269.87 303.21 <
4 -7 0 133.34 442.58 424.00 <
-4 7 0 133.34 17.99 489.39 <
-4 -7 0 133.34 235.09 318.89 <
-4 -7 0 133.34 -19.19 202.77 <
-4 -7 0 133.34 394.61 488.97 <
4 -7 0 133.34 450.98 387.93 <
4 -7 0 133.34 81.56 391.04 <
-4 7 0 133.34 205.10 365.74 <
4 7 0 133.34 -227.89 441.20 <
-4 7 0 133.34 104.35 458.19 <
-4 7 0 133.34 227.89 309.30 <
-4 7 0 133.34 500.16 511.50 <
4 -7 1 16055.90 15665.60 1654.56 o
-4 -7 -1 16055.90 16535.10 1273.47 o
-4 7 -1 16055.90 14204.70 749.76 o
-4 7 -1 16055.90 17034.10 1421.56 o
4 -7 1 16055.90 12367.20 945.65 o
-4 -7 -1 16055.90 17386.70 1901.61 o
4 7 1 16055.90 18273.10 1737.84 o
-4 7 -1 16055.90 18163.90 1548.79 o
4 -7 1 16055.90 17776.50 1406.46 o
-4 7 -1 16055.90 14508.10 1309.90 o
4 7 1 16055.90 15485.70 1461.25 o
-4 -7 -1 16055.90 16174.10 1089.67 o
-4 7 -1 16055.90 16166.90 1770.31 o
4 -7 1 16055.90 17585.80 1670.85 o
4 -7 1 16055.90 16850.60 676.82 o
-4 -7 -1 16055.90 18372.60 1547.62 o
4 7 1 16055.90 15644.00 1132.91 o
-4 7 -1 16055.90 16920.20 1708.28 o
-4 7 -1 16055.90 16380.40 909.72 o
4 -7 2 6751.01 6660.35 1191.04 o
-4 -7 -2 6751.01 5815.96 889.96 o
-4 7 -2 6751.01 6126.61 603.65 o
4 7 2 6751.01 6133.81 822.30 o
4 -7 2 6751.01 6302.93 940.55 o
-4 7 -2 6751.01 7408.79 1002.24 o
4 -7 2 6751.01 7521.53 1208.74 o
-4 7 -2 6751.01 7886.16 1048.14 o
-4 -7 -2 6751.01 5943.10 552.40 o
-4 -7 -2 6751.01 7629.48 1467.17 o
4 -7 2 6751.01 6608.78 969.08 o
-4 -7 -2 6751.01 6738.31 745.11 o
4 7 2 6751.01 6534.41 822.19 o
4 -7 2 6751.01 6368.90 556.54 o
-4 7 -2 6751.01 7286.45 1273.83 o
4 7 2 6751.01 5471.73 957.05 o
-4 7 -3 21203.60 19943.90 2111.55 o
4 7 3 21203.60 19413.70 1559.01 o
-4 -7 -3 21203.60 20023.00 2453.70 o
-4 7 -3 21203.60 24993.40 1843.89 o
-4 -7 -3 21203.60 16164.50 891.14 o
-4 -7 -3 21203.60 20956.20 1385.97 o
4 -7 3 21203.60 17522.30 1651.97 o
4 7 3 21203.60 25304.10 1853.63 o
4 -7 3 21203.60 25773.00 2172.96 o
4 7 3 21203.60 22244.40 1559.33 o
4 -7 3 21203.60 24417.70 1044.00 o
4 -7 3 21203.60 20319.30 2239.74 o
-4 7 -4 14744.40 14021.20 1930.73 o
4 -7 4 14744.40 16223.30 1130.68 o
-4 -7 -4 14744.40 11610.30 2083.99 o
4 -7 4 14744.40 10378.50 1744.57 o
-4 7 -4 14744.40 24651.60 1517.93 o
4 7 4 14744.40 13309.90 1433.23 o
4 -7 4 14744.40 12142.90 1366.94 o
-4 7 -4 14744.40 16237.70 1674.61 o
4 7 4 14744.40 16295.30 1623.00 o
-4 -7 -4 14744.40 14798.40 1326.31 o
4 -7 4 14744.40 13549.80 2022.89 o
4 -7 5 4756.71 4911.61 770.08 o
-4 7 -5 4756.71 4880.42 1031.30 o
-4 -7 -5 4756.69 4570.97 1523.41 o
4 7 5 4756.69 3597.05 845.61 o
4 -7 5 4756.71 4397.06 864.50 o
-4 7 -5 4756.71 3794.95 1197.78 o
4 7 5 4756.69 4151.18 1071.00 o
-4 7 -6 12054.20 11572.00 2141.31 o
-4 7 -6 12054.20 11087.40 1432.71 o
-4 -7 -6 12054.20 14291.00 1831.81 o
-4 -7 -6 12054.20 10329.40 2152.44 o
4 -7 6 12054.20 13012.50 1329.97 o
4 7 6 12054.20 12740.20 1828.67 o
4 7 6 12054.20 9225.90 1522.51 o
4 -7 6 12054.20 11479.60 1248.36 o
4 7 7 94.98 -2615.92 1088.61 <
-4 7 -7 94.98 -1695.97 917.93 <
-4 -7 -7 94.98 -698.06 869.78 <
4 -8 -10 13.79 377.82 774.53 <
4 -8 -10 13.79 6.00 539.74 <
-4 8 9 15504.80 22389.50 2476.92 o
4 8 -9 15504.80 19951.10 2186.96 o
4 -8 -9 15504.80 19892.30 1996.85 o
4 -8 -9 15504.80 14676.00 1711.04 o
-4 -8 9 15504.80 18119.60 2018.46 o
-4 -8 8 5229.39 6310.12 1231.32 o
4 8 -8 5229.39 3333.18 962.87 o
-4 8 8 5229.36 5881.93 1428.30 o
4 8 -8 5229.39 7925.74 1376.67 o
4 -8 -8 5229.36 6354.50 1221.05 o
4 -8 -8 5229.36 6018.67 1070.54 o
-4 8 7 17589.50 19358.60 2193.68 o
-4 8 7 17589.50 13511.40 2130.06 o
4 8 -7 17589.50 22022.50 1825.83 o
4 -8 -7 17589.50 18598.10 1829.09 o
4 -8 -7 17589.50 16610.70 1589.27 o
4 8 -7 17589.50 13940.80 1743.84 o
-4 -8 7 17589.50 18991.50 1786.15 o
-4 -8 6 4634.29 5406.96 939.83 o
4 8 -6 4634.29 3065.71 808.50 o
-4 8 6 4634.25 3556.27 1170.92 o
4 8 -6 4634.29 5237.85 937.39 o
4 -8 -6 4634.25 4582.97 939.74 o
-4 8 6 4634.25 2777.85 929.19 o
4 8 -6 4634.29 5123.90 681.16 o
4 -8 -6 4634.25 4271.12 774.98 o
-4 8 5 883.10 700.46 205.53 o
-4 -8 5 883.10 1015.90 470.71 <
4 8 -5 883.10 3325.98 840.23 o
-4 8 5 883.10 604.51 620.85 <
4 8 -5 883.10 651.28 463.85 <
4 -8 -5 883.10 1276.18 609.93 <
-4 8 5 883.10 867.18 602.16 <
4 -8 -5 883.10 532.54 374.48 <
4 8 -5 883.10 1310.96 473.64 <
-4 8 5 883.10 645.28 466.26 <
4 -8 -5 883.10 1015.90 447.89 <
-4 -8 4 2267.31 2407.23 562.32 o
4 8 -4 2267.31 3036.92 752.43 o
4 -8 -4 2267.30 2308.87 726.53 o
4 8 -4 2267.31 1903.47 578.78 o
-4 -8 4 2267.31 2425.22 510.39 o
-4 8 4 2267.30 1272.58 292.85 o
-4 8 4 2267.30 1874.69 680.45 <
4 8 -4 2267.31 2909.78 618.21 o
-4 -8 4 2267.31 2437.21 641.38 o
4 -8 -4 2267.30 2336.46 636.29 o
-4 8 4 2267.30 1789.53 529.58 o
4 -8 -4 2267.30 1904.67 583.55 o
-4 8 4 2267.30 2684.29 688.37 o
-4 8 4 2267.30 2916.98 729.49 o
-4 -8 4 2267.31 1925.06 927.76 <
4 -8 -4 2267.30 2161.35 559.93 o
-4 -8 3 40939.40 42104.30 3007.99 o
-4 8 3 40939.50 43253.30 2360.91 o
4 8 -3 40939.40 42151.10 1941.47 o
4 -8 -3 40939.50 41671.30 2456.95 o
4 -8 -3 40939.50 35192.00 1965.59 o
-4 -8 3 40939.40 44335.20 2660.64 o
-4 -8 3 40939.40 42408.90 1867.91 o
4 -8 -3 40939.50 41542.90 2098.22 o
-4 8 3 40939.50 45892.00 2061.93 o
-4 8 3 40939.50 40475.50 2698.71 o
-4 8 3 40939.50 44925.30 2035.41 o
4 8 -3 40939.40 42743.60 2125.13 o
-4 -8 3 40939.40 38862.30 1901.05 o
4 8 -3 40939.40 42756.80 1862.42 o
-4 8 2 11162.40 12796.60 1331.73 o
-4 -8 2 11162.50 12366.00 1405.32 o
4 8 -2 11162.50 11386.00 1040.07 o
4 -8 -2 11162.40 10598.00 570.73 o
-4 -8 2 11162.50 12890.10 1117.44 o
-4 -8 2 11162.50 11549.20 1124.06 o
4 -8 -2 11162.40 11352.50 1323.87 o
-4 -8 2 11162.50 12525.50 1465.37 o
4 -8 -2 11162.40 11480.80 1265.73 o
4 -8 -2 11162.40 11845.40 1156.68 o
-4 8 2 11162.40 11935.40 1122.71 o
-4 8 2 11162.40 12950.10 1136.92 o
-4 8 2 11162.40 12795.40 1439.91 o
4 8 -2 11162.50 11687.10 1160.61 o
-4 -8 2 11162.50 11412.40 1087.64 o
-4 8 2 11162.40 11377.70 750.28 o
-4 -8 2 11162.50 11310.50 978.24 o
-4 -8 2 11162.50 11953.40 1324.30 o
4 8 -2 11162.50 11129.40 942.48 o
-4 -8 1 62066.50 63837.70 2448.51 o
-4 -8 1 62066.50 72004.50 1880.15 o
-4 8 1 62066.40 58652.60 3270.65 o
-4 -8 1 62066.50 70887.80 1939.19 o
4 -8 -1 62066.40 67344.80 3947.93 o
4 -8 -1 62066.40 64316.20 3005.16 o
-4 -8 1 62066.50 68962.80 3154.42 o
4 -8 -1 62066.40 67885.70 2390.67 o
-4 8 1 62066.40 62977.70 2525.03 o
4 -8 -1 62066.40 66049.40 2651.08 o
-4 8 1 62066.40 76173.70 2870.11 o
4 8 -1 62066.50 66242.50 2471.13 o
-4 8 1 62066.40 67212.80 2412.70 o
-4 -8 1 62066.50 69353.80 1819.42 o
-4 -8 1 62066.50 56049.90 3073.51 o
-4 8 1 62066.40 65112.70 1220.76 o
4 8 -1 62066.50 66464.40 1923.96 o
4 8 0 968.44 1333.75 437.77 o
-4 8 0 968.46 1153.84 265.65 o
-4 -8 0 968.44 2125.36 710.48 <
4 -8 0 968.46 937.94 511.09 <
-4 8 0 968.46 1041.09 428.98 <
-4 -8 0 968.44 1033.90 412.21 <
-4 -8 0 968.44 1372.13 430.21 o
-4 8 0 968.46 1327.75 581.13 <
-4 -8 0 968.44 846.79 278.00 o
4 8 0 968.44 1234.20 531.17 <
-4 -8 0 968.44 1721.16 725.59 <
4 -8 0 968.46 1421.31 563.68 <
4 -8 0 968.46 1237.80 603.28 <
-4 8 0 968.46 1066.28 499.67 <
4 -8 0 968.46 1165.83 517.14 <
-4 8 0 968.46 -1235.40 748.17 <
4 -8 1 7291.93 7669.06 1194.91 o
-4 8 -1 7291.93 8040.88 980.13 o
-4 8 -1 7291.93 6704.73 518.08 o
-4 -8 -1 7291.89 7520.33 962.50 o
4 -8 1 7291.93 5287.02 563.17 o
-4 -8 -1 7291.89 8388.71 1420.91 o
4 8 1 7291.89 9205.51 1372.54 o
4 -8 1 7291.93 8523.04 1088.86 o
-4 8 -1 7291.93 8700.56 1376.04 o
-4 8 -1 7291.93 8242.38 1145.36 o
4 8 1 7291.89 7623.48 1043.78 o
4 -8 1 7291.93 9401.02 1275.70 o
4 -8 1 7291.93 7648.67 561.96 o
4 8 1 7291.89 7655.87 822.03 o
-4 8 -1 7291.93 7979.71 1316.87 o
-4 8 -1 7291.93 6938.62 620.23 o
-4 8 -2 18291.90 18377.40 1284.04 o
4 -8 2 18291.90 17974.40 2002.72 o
4 8 2 18291.90 17046.10 1654.67 o
-4 -8 -2 18291.90 17072.50 1552.95 o
-4 8 -2 18291.90 17084.50 1028.06 o
4 -8 2 18291.90 15751.90 1445.13 o
-4 -8 -2 18291.90 19116.30 2261.26 o
-4 8 -2 18291.90 20773.90 1596.83 o
4 8 2 18291.90 15436.50 1323.19 o
4 -8 2 18291.90 16602.30 1579.94 o
4 -8 2 18291.90 21951.70 1997.82 o
-4 -8 -2 18291.90 19918.70 1143.46 o
-4 8 -2 18291.90 19001.10 1601.79 o
4 8 2 18291.90 19386.20 1374.64 o
4 -8 2 18291.90 19190.60 942.43 o
-4 8 -2 18291.90 19591.20 2038.69 o
-4 8 -3 11845.60 10999.80 1667.78 o
4 8 3 11845.60 13776.50 1507.40 o
4 8 3 11845.60 10339.00 1102.43 o
-4 -8 -3 11845.60 13353.10 2058.52 o
-4 8 -3 11845.60 12725.80 1008.17 o
-4 8 -3 11845.60 11666.70 1290.88 o
-4 8 -3 11845.60 13928.80 1412.39 o
-4 -8 -3 11845.60 8509.85 615.24 o
4 -8 3 11845.60 8668.17 1219.84 o
-4 -8 -3 11845.60 11203.70 998.89 o
4 8 3 11845.60 10852.30 1247.36 o
4 -8 3 11845.60 12531.50 885.37 o
4 -8 3 11845.60 11820.20 1733.57 o
-4 8 -4 16824.30 15253.00 2134.24 o
4 8 4 16824.30 14342.60 1460.55 o
-4 -8 -4 16824.30 13717.70 2243.31 o
-4 8 -4 16824.30 18219.10 1771.89 o
4 -8 4 16824.30 10015.10 1741.02 o
4 8 4 16824.30 19244.60 1760.91 o
4 -8 4 16824.30 11910.20 1469.62 o
-4 -8 -4 16824.30 15919.80 1297.61 o
4 -8 4 16824.30 19748.40 1211.50 o
4 -8 4 16824.30 14802.00 2141.54 o
4 8 5 8952.68 7789.00 1200.60 o
-4 -8 -5 8952.68 11165.40 2101.58 o
-4 8 -5 8952.67 10823.50 1549.14 o
4 -8 5 8952.67 9739.25 1286.33 o
-4 8 -5 8952.67 6924.22 1649.00 o
4 8 5 8952.68 10600.40 1483.51 o
4 -8 5 8952.67 10303.00 1059.34 o
4 -8 6 316.58 52.77 490.74 <
-4 -8 -6 316.58 2641.11 1351.25 <
4 -8 6 316.58 502.55 503.36 <
-4 8 -6 316.58 1417.71 933.78 <
4 8 6 316.58 490.56 659.41 <
4 8 7 38.09 668.07 735.50 <
-4 9 9 12445.50 18448.20 2349.22 o
-4 9 9 12445.50 9324.25 2302.07 o
4 9 -9 12445.60 14409.80 1965.51 o
4 -9 -9 12445.50 16699.50 1838.48 o
4 -9 -9 12445.50 11382.50 1509.64 o
-4 -9 9 12445.60 14584.90 1858.34 o
-4 -9 8 56.26 1163.43 685.39 <
4 9 -8 56.26 -537.34 883.38 <
-4 9 8 56.26 -1219.81 855.66 <
-4 9 8 56.26 -37.18 708.85 <
4 9 -8 56.26 1387.72 787.79 <
4 -9 -8 56.26 1576.03 878.34 <
4 -9 -8 56.26 11.99 453.39 <
-4 -9 7 1408.77 1169.43 609.28 <
4 9 -7 1408.77 -617.70 920.93 <
-4 9 7 1408.81 290.26 942.23 <
-4 9 7 1408.81 1456.09 910.18 <
4 -9 -7 1408.81 873.17 470.65 <
4 9 -7 1408.77 2426.42 800.87 o
4 -9 -7 1408.81 1999.43 772.72 <
4 9 -7 1408.77 665.67 252.42 <
4 9 -6 53639.00 56577.60 2701.15 o
-4 9 6 53638.80 46284.20 3469.53 o
4 -9 -6 53638.80 53309.20 2938.59 o
4 -9 -6 53638.80 53705.00 2571.83 o
4 9 -6 53639.00 52253.70 2207.44 o
-4 9 6 53638.80 55432.20 4039.19 o
4 9 -6 53639.00 50285.50 3142.66 o
-4 -9 6 53639.00 56893.10 2654.42 o
4 9 -5 45325.90 45263.50 2374.10 o
-4 9 5 45325.90 44114.50 2846.47 o
-4 9 5 45325.90 38272.10 2677.72 o
4 -9 -5 45325.90 43950.20 2523.59 o
4 -9 -5 45325.90 40515.00 2458.94 o
-4 -9 5 45325.90 45648.50 2266.98 o
4 9 -5 45325.90 53878.90 2387.81 o
-4 9 5 45325.90 37866.70 1736.60 o
4 -9 -5 45325.90 48371.20 2246.09 o
-4 9 5 45325.90 44744.20 3362.68 o
4 -9 -4 67351.20 67841.30 3510.87 o
-4 -9 4 67351.30 60902.70 4345.86 o
-4 -9 4 67351.30 69664.40 2209.22 o
-4 9 4 67351.20 72039.30 3095.19 o
4 9 -4 67351.30 65754.40 2799.36 o
-4 9 4 67351.20 51305.00 2967.25 o
4 -9 -4 67351.20 62800.20 2942.03 o
4 -9 -4 67351.20 64811.60 2903.52 o
4 -9 -4 67351.20 68231.10 2640.09 o
-4 9 4 67351.20 70318.10 3702.31 o
4 9 -4 67351.30 73761.60 2675.44 o
-4 9 4 67351.20 61952.20 2533.25 o
-4 -9 4 67351.30 65804.70 2647.05 o
4 9 -4 67351.30 68878.80 2744.36 o
-4 9 3 11737.00 12769.00 1339.76 o
-4 -9 3 11736.90 12308.40 1709.07 o
4 -9 -3 11737.00 9874.79 777.71 o
4 9 -3 11736.90 11948.60 1122.09 o
4 -9 -3 11737.00 12076.90 1415.63 o
-4 -9 3 11736.90 11858.60 1549.82 o
4 -9 -3 11737.00 11880.20 1198.42 o
-4 -9 3 11736.90 12652.60 1068.77 o
-4 9 3 11737.00 13355.50 1252.64 o
-4 9 3 11737.00 12778.60 1183.03 o
-4 9 3 11737.00 12378.00 1545.98 o
4 9 -3 11736.90 12195.70 1273.00 o
-4 9 3 11737.00 11128.20 881.37 o
-4 -9 3 11736.90 11166.60 1039.37 o
4 9 -3 11736.90 12210.00 1120.10 o
4 -9 -2 25.69 525.34 501.70 <
-4 9 2 25.69 161.92 238.52 <
-4 -9 2 25.70 86.36 327.41 <
4 9 -2 25.70 154.73 428.11 <
4 9 -2 25.70 236.29 319.98 <
-4 9 2 25.69 480.97 558.28 <
4 9 -2 25.70 -70.77 367.00 <
4 -9 -2 25.69 251.88 202.23 <
-4 -9 2 25.70 682.47 513.13 <
-4 9 2 25.69 447.38 414.25 <
4 -9 -2 25.69 208.70 368.04 <
4 -9 -2 25.69 82.76 424.57 <
-4 -9 2 25.70 -124.74 532.49 <
-4 9 2 25.69 237.48 378.79 <
-4 -9 2 25.70 407.80 454.01 <
-4 9 2 25.69 428.19 416.72 <
-4 -9 2 25.70 435.39 387.85 <
-4 -9 2 25.70 521.75 380.30 <
-4 -9 1 32000.20 31553.00 1790.64 o
-4 -9 1 32000.20 36008.80 1620.50 o
-4 -9 1 32000.20 36060.40 1740.53 o
4 -9 -1 32000.30 34909.00 622.88 o
4 -9 -1 32000.30 32865.20 2240.51 o
-4 -9 1 32000.20 33969.80 2483.74 o
4 -9 -1 32000.30 33647.20 1958.93 o
4 -9 -1 32000.30 32861.60 2072.74 o
4 9 -1 32000.20 35277.20 1566.41 o
-4 9 1 32000.30 32102.30 1925.78 o
4 -9 -1 32000.30 36008.80 2428.26 o
4 9 -1 32000.20 33168.60 1973.78 o
-4 9 1 32000.30 34983.30 1881.45 o
-4 9 1 32000.30 31200.40 2395.40 o
-4 -9 1 32000.20 34476.00 1649.69 o
-4 -9 1 32000.20 29367.70 2254.94 o
-4 9 1 32000.30 32760.80 1178.90 o
4 -9 0 74793.70 77259.10 3461.57 o
-4 -9 0 74793.80 78564.10 2648.02 o
4 -9 0 74793.70 79837.90 1000.15 o
-4 -9 0 74793.80 85205.30 3768.13 o
4 -9 0 74793.70 80946.10 2772.89 o
-4 9 0 74793.70 69997.90 3103.78 o
-4 9 0 74793.70 94079.70 2928.28 o
4 -9 0 74793.70 85663.40 3392.58 o
4 9 0 74793.80 75562.00 3039.56 o
4 -9 0 74793.70 74025.50 3123.06 o
-4 9 0 74793.70 75534.40 3078.91 o
-4 -9 0 74793.80 68527.40 3555.63 o
-4 9 0 74793.70 73696.90 3699.31 o
4 9 0 74793.80 76148.50 2452.79 o
-4 -9 0 74793.80 65303.40 2631.05 o
-4 -9 0 74793.80 79735.90 2257.82 o
-4 9 0 74793.70 75266.90 1720.25 o
4 -9 1 45389.00 43916.60 2889.06 o
-4 9 -1 45389.00 42730.40 1520.91 o
-4 -9 -1 45388.90 45770.90 2306.40 o
-4 -9 -1 45388.90 49893.30 3313.21 o
4 -9 1 45389.00 45041.60 1780.81 o
4 -9 1 45389.00 48140.90 2429.60 o
-4 9 -1 45389.00 49104.10 2304.49 o
-4 9 -1 45389.00 52893.00 2637.15 o
4 9 1 45388.90 47296.50 2499.49 o
4 9 1 45388.90 47326.50 1978.97 o
-4 9 -1 45389.00 45456.60 2987.67 o
-4 9 -1 45389.00 45743.30 1559.75 o
-4 9 -2 50415.80 52341.30 1981.89 o
4 -9 2 50415.80 46813.20 3284.58 o
-4 9 -2 50415.80 55053.20 2439.29 o
-4 9 -2 50415.80 48527.10 1794.76 o
4 -9 2 50415.80 41859.60 2571.38 o
-4 -9 -2 50415.90 55861.60 3752.75 o
4 -9 2 50415.80 47218.60 2793.83 o
4 9 2 50415.90 51061.50 2843.83 o
-4 9 -2 50415.80 56150.60 2528.02 o
4 -9 2 50415.80 54335.90 1451.42 o
4 9 2 50415.90 52154.20 2271.21 o
-4 9 -2 50415.80 51604.80 3347.37 o
4 -9 3 595.86 578.12 333.51 <
-4 9 -3 595.86 -182.31 552.14 <
-4 9 -3 595.86 1099.86 446.06 <
-4 9 -3 595.86 864.78 518.38 <
4 -9 3 595.86 357.43 492.27 <
-4 -9 -3 595.87 1613.21 964.71 <
-4 -9 -3 595.87 570.92 192.09 <
-4 9 -3 595.86 922.35 835.23 <
4 -9 3 595.86 389.81 511.39 <
-4 9 -3 595.86 1462.09 624.60 <
4 9 3 595.87 467.77 303.97 <
-4 -9 -3 595.87 906.76 334.05 <
4 9 3 595.87 419.80 529.32 <
4 -9 4 1115.87 1278.58 510.01 <
4 -9 4 1115.87 847.99 673.77 <
-4 9 -4 1115.87 1662.39 560.27 <
-4 -9 -4 1115.87 1029.10 863.83 <
4 -9 4 1115.87 -681.27 898.54 <
-4 9 -4 1115.87 1388.92 651.18 <
4 -9 4 1115.87 694.46 583.17 <
4 9 4 1115.87 831.20 441.62 <
-4 9 -4 1115.87 782.02 899.16 <
4 9 4 1115.87 2897.79 948.00 o
-4 9 -5 21498.60 20306.10 2700.33 o
-4 -9 -5 21498.70 26140.10 3109.56 o
4 -9 5 21498.60 20550.80 1927.06 o
4 9 5 21498.70 23585.30 2071.96 o
4 -9 5 21498.60 24322.90 1548.84 o
-4 9 -6 17033.80 14583.70 2677.55 o
-4 -9 -6 17033.80 17434.70 2895.64 o
4 -9 6 17033.80 19644.00 1824.52 o
4 9 6 17033.80 19013.10 2113.29 o
4 -9 6 17033.80 18804.40 1615.16 o
-4 9 -7 16480.70 13777.70 2707.70 o
-4 10 9 1243.08 819.20 885.07 <
-4 10 9 1243.08 -526.54 1005.84 <
-4 10 8 45547.40 50175.10 3717.14 o
4 10 -8 45547.50 56493.70 3055.93 o
4 -10 -8 45547.40 53697.80 2951.53 o
-4 10 8 45547.40 48722.60 4429.75 o
4 -10 -8 45547.40 42063.50 2695.93 o
4 10 -8 45547.50 37480.50 3361.96 o
-4 -10 8 45547.50 58291.60 2944.12 o
4 10 -7 23714.20 26475.90 2156.14 o
4 -10 -7 23714.20 24409.30 2159.54 o
-4 10 7 23714.20 21259.60 2845.52 o
4 -10 -7 23714.20 23346.60 1833.24 o
4 10 -7 23714.20 20183.80 2301.35 o
-4 -10 7 23714.20 28011.10 2071.38 o
4 10 -6 27580.10 31502.60 2037.07 o
-4 10 6 27580.30 24191.00 2352.54 o
4 -10 -6 27580.30 28097.50 2199.62 o
4 10 -6 27580.10 27386.20 1615.14 o
-4 10 6 27580.30 28558.10 2914.73 o
-4 10 6 27580.30 20659.90 1235.05 o
4 -10 -6 27580.30 29314.90 1889.15 o
4 10 -6 27580.10 22255.20 2255.13 o
-4 -10 6 27580.10 29890.60 1996.90 o
-4 -10 5 5361.67 5478.93 883.44 o
4 -10 -5 5361.78 5339.80 847.12 o
-4 10 5 5361.78 4296.31 1220.00 o
4 10 -5 5361.67 5706.82 918.52 o
4 -10 -5 5361.78 5139.49 986.34 o
-4 10 5 5361.78 4196.75 841.77 o
4 -10 -5 5361.78 4832.44 878.05 o
-4 10 5 5361.78 4694.51 1029.58 o
4 10 -5 5361.67 7629.48 1252.66 o
-4 10 5 5361.78 5155.09 571.87 o
-4 -10 4 32625.50 29159.00 2970.74 o
4 -10 -4 32625.30 33458.90 2529.85 o
-4 10 4 32625.30 33819.90 2301.19 o
-4 -10 4 32625.50 33226.20 1582.20 o
4 10 -4 32625.50 33541.60 1967.42 o
-4 10 4 32625.30 23514.50 1746.56 o
4 -10 -4 32625.30 31939.20 2011.54 o
-4 10 4 32625.30 33620.80 2704.22 o
4 10 -4 32625.50 36993.60 2129.80 o
-4 10 4 32625.30 28827.90 1758.77 o
-4 -10 4 32625.50 31280.80 1876.11 o
-4 10 3 17354.70 18839.20 1634.89 o
-4 -10 3 17354.60 19319.00 2046.83 o
4 -10 -3 17354.70 15250.60 1005.91 o
4 -10 -3 17354.70 17439.50 1717.90 o
4 10 -3 17354.60 18078.80 1381.05 o
-4 -10 3 17354.60 17752.50 1886.18 o
4 -10 -3 17354.70 18793.60 1481.16 o
-4 -10 3 17354.60 18469.80 1272.24 o
-4 10 3 17354.70 20945.40 1443.39 o
-4 10 3 17354.70 18842.80 1923.68 o
4 10 -3 17354.60 19296.20 1604.31 o
-4 10 3 17354.70 17830.50 1131.34 o
-4 -10 3 17354.60 17896.50 1304.21 o
4 10 -3 17354.60 18799.60 1370.93 o
-4 -10 2 195489.00 188251.00 5895.30 o
4 10 -2 195489.00 204675.00 3731.01 o
4 -10 -2 195489.00 183033.00 4429.03 o
-4 -10 2 195489.00 219539.00 1150.06 o
-4 -10 2 195489.00 190311.00 4913.06 o
4 -10 -2 195489.00 206987.00 4613.82 o
4 -10 -2 195489.00 199650.00 5036.50 o
-4 -10 2 195489.00 207198.00 5410.59 o
4 -10 -2 195489.00 194699.00 4944.97 o
4 10 -2 195489.00 182929.00 5212.11 o
-4 10 2 195489.00 215920.00 1710.72 o
4 10 -2 195489.00 207907.00 3914.96 o
-4 10 2 195489.00 187168.00 6560.15 o
-4 -10 2 195489.00 198936.00 4041.81 o
-4 10 2 195489.00 192910.00 3794.34 o
-4 10 2 195489.00 204258.00 4802.20 o
4 10 -2 195489.00 207084.00 2910.18 o
-4 -10 1 13108.30 13804.10 1110.83 o
-4 -10 1 13108.30 14035.60 1255.68 o
4 -10 -1 13108.40 15843.10 615.31 o
4 -10 -1 13108.40 13344.70 1468.97 o
-4 -10 1 13108.30 13639.80 1682.20 o
4 10 -1 13108.30 13439.40 1339.05 o
4 -10 -1 13108.40 13865.20 1397.73 o
4 -10 -1 13108.40 13699.70 1341.13 o
-4 10 1 13108.40 13597.80 850.01 o
-4 10 1 13108.40 12822.90 1631.84 o
-4 10 1 13108.40 14424.20 1311.29 o
-4 -10 1 13108.30 13158.80 1157.26 o
-4 -10 1 13108.30 11252.90 1420.64 o
4 10 -1 13108.30 13543.80 1122.24 o
-4 -10 1 13108.30 12222.00 1186.10 o
4 -10 0 57489.90 59774.10 3136.93 o
-4 -10 0 57489.80 59570.20 2509.81 o
4 -10 0 57489.90 61689.50 1107.76 o
-4 -10 0 57489.80 66862.60 3549.65 o
4 -10 0 57489.90 61351.30 2675.68 o
4 -10 0 57489.90 57526.40 2744.83 o
4 10 0 57489.80 60851.10 2698.37 o
-4 10 0 57489.90 58081.70 2792.94 o
4 10 0 57489.80 60866.70 2196.90 o
-4 -10 0 57489.80 47964.60 2333.84 o
-4 10 0 57489.90 54905.60 3395.82 o
-4 10 0 57489.90 59029.20 1572.42 o
4 -10 1 33311.10 32453.80 2503.84 o
-4 10 -1 33311.10 30672.60 1388.80 o
-4 -10 -1 33311.20 39223.30 3032.90 o
4 -10 1 33311.10 35376.80 1474.48 o
4 -10 1 33311.10 34020.20 2218.34 o
4 10 1 33311.20 33847.50 2218.66 o
4 10 1 33311.20 34919.80 1808.73 o
-4 10 -1 33311.10 31954.80 2633.50 o
-4 10 -1 33311.10 36142.00 1299.06 o
-4 10 -2 19119.30 21270.40 1642.18 o
-4 10 -2 19119.30 17843.70 1125.52 o
4 -10 2 19119.30 15128.20 1447.13 o
4 -10 2 19119.30 17004.10 2021.61 o
-4 -10 -2 19119.40 20541.20 2438.07 o
4 -10 2 19119.30 16176.50 1491.69 o
4 -10 2 19119.30 17510.30 1735.41 o
4 10 2 19119.40 18917.20 1776.73 o
4 -10 2 19119.30 20420.00 1097.17 o
-4 10 -2 19119.30 18563.30 2138.29 o
-4 10 -2 19119.30 19227.80 1238.56 o
-4 10 -3 76874.70 83214.20 2765.85 o
-4 10 -3 76874.70 70177.80 4582.90 o
-4 10 -3 76874.70 83119.50 3023.47 o
-4 10 -3 76874.70 77073.20 2488.48 o
-4 -10 -3 76874.60 81217.20 4999.88 o
4 -10 3 76874.70 58959.70 3990.48 o
4 10 3 76874.60 75082.20 3771.93 o
4 -10 3 76874.70 83481.70 1904.82 o
4 -10 3 76874.70 71274.10 4525.05 o
-4 10 -4 39228.80 34137.80 3412.42 o
-4 -10 -4 39228.80 37861.90 3821.98 o
-4 10 -4 39228.80 43244.90 1990.63 o
4 -10 4 39228.80 25280.10 2607.79 o
4 10 4 39228.80 45016.50 2701.44 o
4 -10 4 39228.80 43986.20 1781.76 o
4 -10 4 39228.80 34207.30 3401.60 o
4 -10 5 4435.48 5528.10 873.40 o
4 -10 5 4435.48 2390.43 1418.78 <
-4 10 -5 4435.48 3411.14 861.17 o
-4 -10 -5 4435.41 7858.57 1853.54 o
4 -10 5 4435.48 4094.80 994.18 o
-4 10 -5 4435.48 3383.55 1365.86 <
4 10 5 4435.41 5824.36 1177.13 o
4 -10 6 880.71 906.76 665.59 <
-4 10 -6 880.71 716.05 979.03 <
4 10 6 880.68 1448.89 778.62 <
-4 11 9 11683.30 8364.72 2188.89 o
4 -11 -9 11683.30 14623.30 1834.95 o
-4 -11 8 536.15 2018.62 911.62 <
4 11 -8 536.15 -1168.23 1035.35 <
-4 11 8 536.14 -265.07 914.07 <
-4 11 8 536.14 416.20 789.38 <
4 11 -8 536.15 314.25 606.05 <
4 -11 -8 536.14 977.52 786.90 <
4 -11 -8 536.14 616.50 527.53 <
-4 -11 7 2664.70 4124.79 951.02 o
4 11 -7 2664.70 -106.75 849.88 <
-4 11 7 2664.74 2094.18 1282.22 <
4 11 -7 2664.70 4263.92 1006.58 o
4 -11 -7 2664.74 2939.77 919.11 o
4 -11 -7 2664.74 3307.99 751.70 o
4 -11 -6 40582.70 43764.30 2265.18 o
4 11 -6 40582.90 46617.70 2427.76 o
-4 11 6 40582.70 34418.40 2810.19 o
-4 11 6 40582.70 34260.10 1671.57 o
4 -11 -6 40582.70 40675.80 2672.50 o
4 -11 -6 40582.70 37716.80 2449.95 o
4 11 -6 40582.90 41162.70 2024.23 o
-4 11 6 40582.70 43565.20 3535.88 o
4 11 -6 40582.90 32367.40 2982.55 o
-4 -11 6 40582.90 44060.50 2407.99 o
-4 -11 5 2991.70 3291.20 721.27 o
-4 11 5 2991.61 3336.77 522.66 o
-4 11 5 2991.61 2913.38 987.68 <
4 11 -5 2991.70 2605.13 667.09 o
4 -11 -5 2991.61 3453.12 885.85 o
-4 11 5 2991.61 1968.24 611.45 o
4 -11 -5 2991.61 2749.06 686.07 o
4 11 -5 2991.70 5074.73 1159.08 o
4 -11 -4 62083.00 63732.10 3495.03 o
-4 11 4 62083.00 66071.00 3042.34 o
-4 -11 4 62082.60 64016.40 2073.20 o
4 11 -4 62082.60 63209.20 2757.69 o
-4 11 4 62083.00 63475.50 3696.43 o
-4 11 4 62083.00 45034.40 2737.08 o
4 -11 -4 62083.00 60726.40 2840.46 o
4 11 -4 62082.60 70217.40 2826.97 o
-4 11 4 62083.00 60524.90 2503.72 o
-4 11 4 62083.00 55610.90 2742.31 o
-4 -11 4 62082.60 62362.40 2631.26 o
-4 11 3 93.11 -163.12 335.71 <
-4 -11 3 93.10 -97.15 356.20 <
4 11 -3 93.10 -11.99 456.99 <
4 -11 -3 93.11 -38.38 429.40 <
-4 11 3 93.11 261.47 588.77 <
4 -11 -3 93.11 -16.79 225.52 <
4 11 -3 93.10 -256.67 437.53 <
-4 11 3 93.11 341.83 375.01 <
-4 11 3 93.11 -79.16 359.81 <
4 -11 -3 93.11 -82.76 420.98 <
-4 -11 3 93.10 -473.77 587.04 <
-4 -11 3 93.10 -77.96 260.26 <
-4 -11 3 93.10 462.97 610.01 <
4 -11 -2 914.22 995.52 550.19 <
-4 -11 2 914.24 1603.62 563.30 <
-4 11 2 914.22 1271.38 405.37 o
4 11 -2 914.24 1313.36 619.47 <
4 11 -2 914.24 740.04 401.44 <
4 11 -2 914.24 706.46 419.52 <
-4 11 2 914.22 1105.86 711.78 <
4 -11 -2 914.22 1151.44 327.98 o
4 -11 -2 914.22 1483.68 599.16 <
-4 -11 2 914.24 1309.76 648.36 <
4 -11 -2 914.22 1252.19 574.11 <
-4 -11 2 914.24 538.54 527.68 <
4 11 -2 914.24 1246.19 453.79 <
-4 11 2 914.22 1239.00 518.85 <
-4 -11 2 914.24 846.79 396.16 <
-4 11 1 14464.00 14575.30 1776.55 o
-4 -11 1 14464.10 15841.90 1102.64 o
4 -11 -1 14464.00 9652.89 879.02 o
4 -11 -1 14464.00 15530.00 1613.31 o
-4 -11 1 14464.10 17441.90 1927.37 o
4 11 -1 14464.10 14919.50 1460.67 o
4 -11 -1 14464.00 15140.20 1500.01 o
4 -11 -1 14464.00 16511.20 1488.70 o
-4 11 1 14464.00 15723.10 1396.98 o
-4 -11 1 14464.10 15642.80 1259.16 o
-4 11 1 14464.00 15917.40 936.07 o
4 11 -1 14464.10 15318.90 1241.99 o
-4 -11 1 14464.10 14125.50 1278.07 o
4 -11 0 43875.80 43969.40 2824.73 o
4 -11 0 43875.80 44743.00 1406.16 o
-4 -11 0 43875.90 50840.80 3320.38 o
4 -11 0 43875.80 45475.80 2496.14 o
4 11 0 43875.90 44864.10 2509.41 o
4 -11 0 43875.80 45192.80 2411.64 o
-4 -11 0 43875.90 34961.80 2039.65 o
-4 11 0 43875.80 41330.70 3029.64 o
4 11 0 43875.90 44678.20 2121.41 o
-4 11 0 43875.80 45594.60 1493.66 o
4 -11 1 12182.50 11488.00 1550.30 o
-4 -11 -1 12182.60 13710.50 1981.14 o
4 -11 1 12182.50 12896.10 964.91 o
4 -11 1 12182.50 11453.20 1440.39 o
4 11 1 12182.60 13083.20 1443.07 o
-4 11 -1 12182.50 12156.10 1726.41 o
-4 11 -1 12182.50 12150.10 913.79 o
4 -11 2 35761.50 32434.60 2804.27 o
-4 11 -2 35761.50 35242.40 1580.22 o
4 -11 2 35761.50 26756.60 2103.48 o
-4 -11 -2 35761.50 40966.00 3398.21 o
4 -11 2 35761.50 34825.00 2485.98 o
4 11 2 35761.50 35387.50 2482.47 o
4 -11 2 35761.50 41928.00 1403.90 o
-4 11 -2 35761.50 34753.10 3013.66 o
-4 11 -2 35761.50 37840.40 1705.72 o
4 -11 3 4348.52 4815.65 682.05 o
-4 11 -3 4348.52 4096.00 670.66 o
4 -11 3 4348.52 4961.98 1554.74 o
4 -11 3 4348.52 3017.73 817.25 o
-4 -11 -3 4348.49 5173.08 1451.83 o
-4 11 -3 4348.52 4038.43 1270.21 o
4 -11 3 4348.52 3400.34 942.16 o
4 11 3 4348.49 3567.06 886.11 o
4 -11 4 586.51 882.77 473.79 <
-4 11 -4 586.51 826.40 493.29 <
4 -11 4 586.51 555.33 740.10 <
-4 -11 -4 586.50 -249.48 815.80 <
4 -11 4 586.51 -39.58 560.61 <
-4 11 -4 586.51 -79.16 751.18 <
4 11 4 586.50 1803.92 799.72 <
-4 11 -5 27245.90 26104.10 3196.44 o
-4 -11 -5 27245.80 32492.20 3550.82 o
-4 11 -5 27245.90 29159.00 1963.82 o
4 -11 5 27245.90 27686.10 2392.70 o
4 11 5 27245.80 31897.20 2465.35 o
4 -11 5 27245.90 33602.80 1768.80 o
4 -11 5 27245.90 25563.10 3186.55 o
4 -11 6 3141.34 3438.72 1038.80 o
-4 11 -6 3141.34 987.12 1191.25 <
-4 12 9 63.95 -877.97 1122.62 <
4 -12 -9 63.95 170.32 716.00 <
-4 -12 8 220.56 299.85 557.64 <
4 12 -8 220.56 -1788.33 1211.50 <
-4 12 8 220.56 -1585.63 1175.21 <
-4 12 8 220.56 1222.20 936.87 <
4 12 -8 220.56 851.59 769.96 <
4 -12 -8 220.56 -307.05 678.68 <
-4 -12 7 39.02 149.93 542.08 <
4 12 -7 39.02 -1410.51 1123.07 <
-4 12 7 39.02 214.70 736.35 <
4 12 -7 39.02 804.81 606.44 <
4 -12 -7 39.02 -821.60 806.90 <
4 -12 -7 39.02 14.39 388.61 <
-4 -12 6 27.29 1271.38 669.06 <
4 12 -6 27.29 -708.85 679.94 <
-4 12 6 27.29 379.02 995.29 <
4 12 -6 27.29 538.54 607.36 <
4 -12 -6 27.29 320.24 661.84 <
4 -12 -6 27.29 -75.56 386.19 <
-4 -12 5 19.34 170.32 437.69 <
-4 12 5 19.34 462.97 404.57 <
-4 12 5 19.34 -650.08 600.84 <
4 12 -5 19.34 -9.60 466.57 <
4 -12 -5 19.34 -223.09 385.98 <
4 -12 -4 163.98 -285.46 550.30 <
-4 12 4 163.98 490.56 450.32 <
-4 -12 4 163.97 442.58 500.89 <
4 12 -4 163.97 1688.78 897.16 <
-4 12 4 163.98 -778.42 595.52 <
-4 -12 4 163.97 281.86 302.02 <
-4 12 4 163.98 784.42 783.32 <
4 -12 -4 163.98 241.08 334.52 <
4 12 -4 163.97 -376.62 488.88 <
-4 12 4 163.98 507.35 1321.51 <
4 -12 -4 163.98 530.14 530.67 <
-4 12 4 163.98 311.85 270.72 <
-4 -12 4 163.97 287.86 642.77 <
-4 12 3 23.61 -263.87 348.67 <
-4 -12 3 23.61 -159.52 425.69 <
4 12 -3 23.61 500.16 614.66 <
4 -12 -3 23.61 -175.12 414.87 <
-4 12 3 23.61 -39.58 530.14 <
4 12 -3 23.61 -109.15 422.14 <
-4 12 3 23.61 -235.09 511.96 <
-4 -12 3 23.61 351.43 557.39 <
4 -12 -3 23.61 293.86 431.48 <
-4 -12 3 23.61 -21.59 526.54 <
-4 -12 3 23.61 -9.60 332.24 <
-4 12 3 23.61 233.89 408.80 <
4 -12 -2 2831.79 3432.73 821.94 o
-4 -12 2 2831.79 3173.65 690.84 o
-4 12 2 2831.79 2848.61 511.93 o
4 12 -2 2831.79 3329.58 829.05 o
4 12 -2 2831.79 2985.34 689.30 o
-4 12 2 2831.79 2801.83 790.67 o
4 -12 -2 2831.79 3228.83 480.86 o
-4 -12 2 2831.79 2891.79 827.10 o
4 -12 -2 2831.79 3130.47 776.83 o
4 -12 -2 2831.79 2163.75 698.76 o
-4 -12 2 2831.79 2427.62 883.19 <
-4 12 2 2831.79 3068.10 682.39 o
4 12 -2 2831.79 3106.49 606.03 o
-4 -12 2 2831.79 2589.54 607.07 o
-4 -12 1 31.62 -65.97 386.19 <
4 12 -1 31.62 634.49 480.86 <
-4 12 1 31.62 338.23 325.71 <
4 -12 -1 31.62 -291.46 453.04 <
-4 12 1 31.62 428.19 581.23 <
-4 -12 1 31.62 100.75 384.98 <
-4 -12 1 31.62 179.91 314.10 <
-4 -12 1 31.62 1194.62 776.72 <
4 -12 -1 31.62 349.03 487.78 <
4 -12 -1 31.62 392.21 516.49 <
-4 12 1 31.62 50.38 362.22 <
4 12 0 1078.06 1639.60 644.66 <
-4 12 0 1078.06 1036.29 361.32 <
4 -12 0 1078.06 1271.38 575.95 <
-4 -12 0 1078.06 1006.31 604.80 <
4 -12 0 1078.06 1157.44 299.13 o
-4 12 0 1078.06 1310.96 777.53 <
-4 -12 0 1078.06 2290.88 928.45 <
4 -12 0 1078.06 1043.49 559.08 <
4 -12 0 1078.06 1508.86 631.06 <
4 12 1 27.11 -453.38 442.95 <
-4 12 -1 27.11 116.34 334.58 <
4 -12 1 27.11 -51.57 277.05 <
-4 12 -1 27.11 792.81 709.86 <
-4 -12 -1 27.11 -158.32 647.61 <
4 -12 1 27.11 313.05 490.26 <
4 -12 1 27.11 -94.75 555.30 <
4 12 2 241.15 97.15 509.85 <
4 -12 2 241.15 636.89 393.39 <
-4 12 -2 241.15 -429.39 377.06 <
-4 12 -2 241.15 251.88 286.64 <
4 -12 2 241.15 478.57 475.69 <
4 -12 2 241.15 332.24 509.62 <
-4 -12 -2 241.15 94.75 760.50 <
-4 12 -2 241.15 160.72 663.33 <
4 -12 2 241.15 323.84 548.03 <
4 12 3 1558.13 321.44 572.34 <
4 -12 3 1558.10 911.56 420.38 <
-4 12 -3 1558.10 1940.65 513.72 o
4 -12 3 1558.10 1320.56 871.69 <
-4 -12 -3 1558.13 1649.20 1107.94 <
-4 12 -3 1558.10 2102.57 1049.50 <
4 -12 3 1558.10 1309.76 674.10 <
4 -12 4 179.35 665.67 417.19 <
-4 12 -4 179.35 1334.95 546.94 <
4 -12 4 179.35 141.53 650.10 <
-4 -12 -4 179.35 -502.55 859.48 <
4 -12 4 179.35 -262.67 539.55 <
-4 12 -4 179.35 -584.11 945.72 <
4 12 4 179.35 1364.93 747.15 <
4 -12 5 485.07 692.06 1423.49 <
-4 -12 -5 485.04 1441.70 1198.47 <
4 -12 5 485.07 41.98 591.65 <
-4 12 -5 485.07 1398.52 1090.47 <
4 12 5 485.04 2674.70 1040.92 <
4 -12 6 9.31 1693.57 877.57 <
-4 12 -6 9.31 278.26 1199.31 <
4 -13 -9 2592.86 3935.28 1153.73 o
4 13 -8 1575.22 -1054.29 1186.21 <
-4 13 8 1575.24 1895.08 1357.93 <
4 -13 -8 1575.24 2576.34 952.69 <
-4 -13 7 1091.21 833.59 615.03 <
4 13 -7 1091.21 -1000.31 1160.30 <
-4 13 7 1091.21 695.66 738.71 <
4 13 -7 1091.21 1698.37 778.02 <
4 -13 -7 1091.21 424.59 678.00 <
4 13 -6 13733.10 15977.40 1664.18 o
4 -13 -6 13733.20 12781.00 1625.74 o
4 -13 -6 13733.20 12782.20 1445.74 o
-4 13 6 13733.20 15117.40 2208.98 o
4 13 -6 13733.10 10965.10 1812.06 o
-4 -13 6 13733.10 15440.10 1603.24 o
-4 -13 5 318.75 486.96 425.38 <
-4 13 5 318.76 528.94 444.46 <
4 13 -5 318.75 2203.33 1063.20 <
-4 13 5 318.76 930.75 707.35 <
4 13 -5 318.75 357.43 478.50 <
4 -13 -5 318.76 521.75 485.31 <
4 -13 -4 18511.40 18589.70 2048.10 o
4 -13 -4 18511.40 17579.80 1307.15 o
4 13 -4 18511.60 20940.60 1677.80 o
-4 -13 4 18511.60 18942.40 2224.59 o
4 -13 -4 18511.40 18757.70 1658.15 o
-4 13 4 18511.40 21806.60 2291.25 o
4 13 -4 18511.60 22437.50 2008.17 o
-4 13 4 18511.40 16002.60 1461.24 o
-4 -13 4 18511.60 19516.90 1574.49 o
-4 13 3 548.71 430.59 378.17 <
-4 -13 3 548.68 185.91 370.14 <
-4 13 3 548.71 335.84 404.72 <
4 13 -3 548.68 1265.38 723.21 <
4 -13 -3 548.71 344.23 475.39 <
4 13 -3 548.68 588.91 450.86 <
-4 13 3 548.71 471.37 574.68 <
-4 -13 3 548.68 1516.06 835.08 <
4 -13 -3 548.71 533.74 416.24 <
-4 -13 3 548.68 966.73 592.31 <
-4 -13 3 548.68 797.61 379.09 <
4 -13 -2 1181.76 1252.19 528.55 <
-4 -13 2 1181.78 1037.49 472.17 <
-4 13 2 1181.76 1320.56 433.21 o
4 13 -2 1181.78 1874.69 730.31 <
4 13 -2 1181.78 1173.03 500.21 <
-4 13 2 1181.76 1890.28 784.44 <
-4 -13 2 1181.78 616.50 511.89 <
4 -13 -2 1181.76 1880.68 707.36 <
4 -13 -2 1181.76 1048.29 539.19 <
-4 -13 2 1181.78 1277.38 694.05 <
4 13 -2 1181.78 993.12 422.13 <
-4 13 2 1181.76 1260.59 503.29 <
-4 -13 2 1181.78 943.94 403.26 <
-4 -13 1 3424.62 3722.99 764.24 o
4 13 -1 3424.62 4730.49 986.76 o
-4 13 1 3424.66 3749.37 586.49 o
4 -13 -1 3424.66 3493.90 795.69 o
-4 13 1 3424.66 3910.09 1032.07 o
-4 -13 1 3424.62 3078.90 635.08 o
-4 -13 1 3424.62 3395.54 523.40 o
-4 -13 1 3424.62 4128.39 1134.86 o
4 -13 -1 3424.66 3537.08 797.63 o
4 -13 -1 3424.66 3459.11 886.05 o
-4 13 0 11758.70 11757.90 951.16 o
4 -13 0 11758.70 10678.40 1502.84 o
4 -13 0 11758.70 12093.70 886.36 o
-4 -13 0 11758.70 12656.20 1945.01 o
4 13 0 11758.70 13479.00 1514.87 o
4 -13 0 11758.70 11841.80 1465.28 o
4 -13 0 11758.70 11147.40 1340.24 o
-4 -13 0 11758.70 9245.09 1019.83 o
-4 13 0 11758.70 10625.60 1725.40 o
4 13 1 504.83 202.70 502.99 <
-4 13 -1 504.80 698.06 410.68 <
-4 13 -1 504.80 609.30 667.86 <
-4 -13 -1 504.83 -19.19 614.43 <
4 -13 1 504.80 682.47 616.07 <
4 -13 1 504.80 599.71 510.70 <
4 -13 2 10877.80 9589.33 1631.12 o
-4 13 -2 10877.80 10437.30 988.90 o
-4 -13 -2 10877.90 13973.20 2247.30 o
4 -13 2 10877.80 9880.78 1458.55 o
4 13 2 10877.90 11053.80 1472.13 o
4 -13 2 10877.80 13354.30 1055.51 o
-4 13 -2 10877.80 9403.42 1831.53 o
4 13 3 2350.61 1424.91 692.85 <
4 -13 3 2350.64 2193.73 562.83 o
-4 13 -3 2350.64 2181.74 546.20 o
4 -13 3 2350.64 2175.74 1037.20 <
-4 -13 -3 2350.61 2114.57 1151.32 <
-4 13 -3 2350.64 2170.94 1024.04 <
4 -13 3 2350.64 564.92 548.87 <
4 -13 4 1982.23 1877.08 586.14 o
4 -13 4 1982.23 1500.47 892.12 <
-4 -13 -4 1982.21 1544.85 1052.38 <
4 -13 4 1982.23 304.65 614.98 <
-4 13 -4 1982.23 1333.75 1042.21 <
4 13 4 1982.21 1646.80 819.73 <
4 -13 5 6997.24 5686.43 1571.55 o
4 -13 5 6997.24 8475.07 1538.55 o
-4 13 -5 6997.24 6269.34 1909.44 o
4 13 5 6997.24 7125.73 1456.99 o
4 -13 6 23.52 75.56 738.83 <
4 14 -8 11306.40 5361.39 1471.53 o
-4 14 8 11306.30 9651.70 2114.63 o
4 -14 -8 11306.30 13740.50 1818.01 o
-4 -14 7 117.25 275.87 622.36 <
4 14 -7 117.25 -1927.46 1229.98 <
-4 14 7 117.25 477.37 1043.20 <
4 14 -7 117.25 -226.69 559.98 <
4 -14 -7 117.25 -45.58 608.12 <
-4 -14 6 349.34 975.12 643.50 <
4 14 -6 349.34 1060.28 780.22 <
-4 14 6 349.35 1707.97 1019.09 <
4 14 -6 349.34 202.70 563.88 <
4 -14 -6 349.35 -9.60 433.21 <
-4 -14 5 2.41 507.35 502.94 <
-4 14 5 2.41 429.39 467.14 <
4 14 -5 2.41 1462.09 1016.15 <
-4 14 5 2.41 491.76 750.32 <
4 14 -5 2.41 310.65 550.25 <
4 -14 -5 2.41 223.09 471.20 <
-4 -14 5 2.41 -788.02 742.13 <
4 -14 -4 11820.80 9879.58 1600.97 o
-4 14 4 11820.80 11540.80 1813.04 o
-4 14 4 11820.80 9107.16 1141.69 o
4 -14 -4 11820.80 10564.50 1085.24 o
4 14 -4 11820.90 11885.00 1367.20 o
-4 -14 4 11820.90 13221.20 1943.92 o
4 -14 -4 11820.80 10878.70 1363.24 o
4 14 -4 11820.90 14093.10 1718.94 o
-4 -14 4 11820.90 13676.90 1358.76 o
-4 -14 3 86.58 265.07 479.58 <
-4 14 3 86.59 235.09 350.04 <
4 14 -3 86.58 352.63 675.02 <
4 -14 -3 86.59 633.29 631.16 <
4 14 -3 86.58 -412.60 452.72 <
4 -14 -3 86.59 262.67 342.78 <
-4 14 3 86.59 297.45 625.91 <
4 -14 -3 86.59 -301.05 538.25 <
-4 -14 3 86.58 -442.58 617.14 <
-4 14 3 86.59 56.37 340.65 <
-4 -14 3 86.58 193.11 339.32 <
4 14 -2 36061.50 42255.40 2569.38 o
-4 -14 2 36061.50 29816.30 1952.49 o
4 -14 -2 36061.60 34464.00 2523.35 o
-4 -14 2 36061.50 38939.00 3025.81 o
4 -14 -2 36061.60 37805.60 2384.74 o
4 14 -2 36061.50 33714.40 1849.77 o
-4 14 2 36061.60 37249.00 2145.32 o
-4 14 2 36061.60 35890.10 3017.84 o
-4 -14 2 36061.50 37889.50 2217.10 o
-4 14 2 36061.60 36817.30 1804.72 o
-4 -14 2 36061.50 32518.50 2512.02 o
-4 -14 1 1299.34 1922.66 608.70 o
4 -14 -1 1299.32 1769.14 676.18 <
4 14 -1 1299.34 1221.00 660.03 <
-4 14 1 1299.32 1388.92 444.33 o
-4 -14 1 1299.34 1396.12 501.92 <
-4 14 1 1299.32 1671.98 855.97 <
-4 -14 1 1299.34 1137.05 364.70 o
-4 -14 1 1299.34 2096.58 977.54 <
4 -14 -1 1299.32 1630.01 667.47 <
4 -14 -1 1299.32 1313.36 640.42 <
4 -14 0 24113.40 24199.40 2253.89 o
-4 -14 0 24113.20 27969.20 2769.22 o
4 -14 0 24113.40 24862.70 2137.14 o
4 -14 0 24113.40 24044.70 1984.63 o
4 14 0 24113.20 27772.50 2151.51 o
-4 14 0 24113.40 22201.20 2442.13 o
-4 14 0 24113.40 26612.60 1388.44 o
4 14 1 6239.16 7455.57 1230.78 o
-4 14 -1 6238.99 5236.65 1449.77 o
-4 -14 -1 6239.16 7358.41 1602.75 o
4 -14 1 6238.99 5825.56 1211.51 o
4 -14 1 6238.99 6757.51 1233.57 o
4 14 2 1038.16 1292.97 672.97 <
4 -14 2 1038.17 1340.95 487.52 <
-4 14 -2 1038.17 1165.83 437.00 <
-4 -14 -2 1038.16 2374.84 1200.27 <
4 -14 2 1038.17 1164.63 768.38 <
-4 14 -2 1038.17 404.20 784.41 <
4 -14 2 1038.17 904.36 703.29 <
4 14 3 9250.54 9964.74 1492.94 o
4 -14 3 9250.45 8052.87 1659.11 o
-4 -14 -3 9250.54 11406.40 2290.86 o
-4 14 -3 9250.45 8753.33 1848.07 o
4 -14 3 9250.45 6216.57 1337.71 o
4 -14 3 9250.45 10601.60 1115.10 o
4 -14 4 4279.17 4924.80 872.04 o
4 -14 4 4279.17 3852.52 1318.86 <
-4 -14 -4 4279.08 2728.67 1296.32 <
4 -14 4 4279.17 2254.90 836.40 <
-4 14 -4 4279.17 4552.98 1571.77 <
4 14 4 4279.08 3381.15 1043.92 o
4 -14 5 1828.47 2065.39 1040.01 <
-4 14 -5 1828.47 3955.67 1561.86 <
4 15 -8 3448.48 27.59 1220.49 <
-4 15 8 3448.55 3641.43 1531.77 <
4 -15 -8 3448.55 2889.39 1079.71 <
-4 15 7 276.78 1055.49 1085.30 <
4 -15 -7 276.78 263.87 678.88 <
4 -15 -7 276.78 -358.62 561.02 <
4 15 -6 8088.86 8737.74 1389.00 o
-4 15 6 8088.90 10174.60 1914.83 o
4 -15 -6 8088.90 6668.75 1184.17 o
-4 -15 6 8088.86 8604.61 1318.66 o
4 15 -6 8088.86 13085.60 1904.85 o
-4 -15 5 649.22 710.05 589.94 <
-4 15 5 649.20 369.42 448.08 <
4 15 -5 649.22 1915.47 1015.04 <
-4 15 5 649.20 -82.76 690.14 <
4 15 -5 649.22 635.69 509.79 <
4 -15 -5 649.20 970.33 593.79 <
-4 -15 5 649.22 1055.49 761.65 <
-4 -15 4 3111.68 3379.95 805.78 o
4 -15 -4 3111.68 2361.65 969.19 <
4 15 -4 3111.68 5272.63 1297.69 o
-4 15 4 3111.68 1288.17 485.19 <
4 15 -4 3111.68 3306.79 813.74 o
-4 15 4 3111.68 2528.37 1007.70 <
4 -15 -4 3111.68 2829.42 773.79 o
-4 -15 4 3111.68 3221.63 1119.50 <
-4 -15 3 1458.21 1758.34 635.01 <
4 15 -3 1458.21 1772.74 836.89 <
4 -15 -3 1458.25 1848.30 749.89 <
4 15 -3 1458.21 1440.50 553.04 <
4 -15 -3 1458.25 2053.40 538.44 o
-4 15 3 1458.25 1005.11 647.23 <
4 -15 -3 1458.25 1302.56 628.10 <
-4 -15 3 1458.21 2161.35 916.41 <
-4 15 3 1458.25 2370.04 649.15 o
-4 -15 2 77.55 1105.86 570.03 <
4 15 -2 77.55 -178.71 561.23 <
4 -15 -2 77.54 -143.93 334.54 <
-4 15 2 77.54 116.34 560.11 <
-4 -15 2 77.55 -202.70 530.01 <
4 -15 -2 77.54 376.62 568.17 <
4 -15 -2 77.54 936.74 673.28 <
-4 -15 2 77.55 807.21 666.59 <
4 15 -2 77.55 197.90 255.30 <
4 -15 -1 279.16 140.33 435.53 <
4 15 -1 279.13 994.32 646.88 <
-4 15 1 279.16 596.11 440.54 <
4 -15 -1 279.16 557.73 517.55 <
-4 15 1 279.16 663.28 680.54 <
-4 -15 1 279.13 187.11 621.38 <
4 -15 -1 279.16 134.34 520.67 <
4 15 0 446.35 215.90 574.80 <
4 -15 0 446.36 708.85 585.85 <
-4 15 0 446.36 -89.96 575.97 <
-4 -15 0 446.35 482.17 767.57 <
4 -15 0 446.36 -466.57 656.93 <
4 -15 0 446.36 434.19 453.41 <
4 15 1 22.18 369.42 670.16 <
-4 15 -1 22.18 411.40 730.08 <
-4 -15 -1 22.18 1134.65 903.30 <
4 -15 1 22.18 -621.30 651.42 <
4 -15 1 22.18 710.05 577.95 <
4 -15 2 5398.73 5495.72 818.85 o
4 15 2 5398.81 6416.87 1207.57 o
-4 -15 -2 5398.81 8082.86 1847.39 o
4 -15 2 5398.73 4320.29 1201.15 o
-4 15 -2 5398.73 3901.70 1282.57 o
4 -15 2 5398.73 4653.73 1122.10 o
4 15 3 110.09 -931.95 817.30 <
4 -15 3 110.08 -319.04 421.78 <
4 -15 3 110.08 321.44 649.89 <
-4 -15 -3 110.09 362.22 818.99 <
-4 15 -3 110.08 -1181.42 883.54 <
4 -15 3 110.08 -121.14 687.24 <
4 -15 4 5796.29 4339.48 1449.78 o
4 -15 4 5796.29 3352.37 1077.22 o
-4 15 -4 5796.29 5562.89 1718.20 o
4 15 4 5796.39 4809.66 1194.06 o
4 -15 5 417.96 2949.36 1217.74 <
4 16 -8 651.89 -2489.99 1356.98 <
4 -16 -8 651.90 1332.55 954.04 <
4 16 -7 619.12 -1319.36 1147.78 <
-4 16 7 619.13 1644.40 1022.37 <
4 -16 -7 619.13 92.36 708.13 <
4 -16 -7 619.13 -283.06 602.38 <
-4 -16 6 1423.40 2609.93 875.60 <
4 16 -6 1423.40 4966.78 1365.55 o
-4 16 6 1423.40 883.97 978.93 <
4 16 -6 1423.40 1117.85 692.16 <
4 -16 -6 1423.40 1445.30 691.95 <
-4 -16 6 1423.40 2601.53 1208.65 <
-4 -16 5 575.00 -141.53 567.73 <
4 16 -5 575.00 2687.89 1200.66 <
-4 16 5 574.99 249.48 723.63 <
4 16 -5 575.00 -191.91 501.75 <
4 -16 -5 574.99 1135.85 670.97 <
-4 -16 5 575.00 1745.15 894.12 <
-4 -16 4 855.28 883.97 561.22 <
4 -16 -4 855.26 -100.75 613.83 <
4 16 -4 855.28 4225.54 1206.38 o
-4 16 4 855.26 8.40 447.51 <
4 16 -4 855.28 1718.76 705.86 <
-4 16 4 855.26 1634.80 1020.58 <
4 -16 -4 855.26 748.43 644.40 <
-4 -16 4 855.28 1438.10 963.73 <
-4 -16 3 96.38 291.46 565.94 <
4 16 -3 96.38 271.07 624.75 <
-4 16 3 96.38 -1258.19 836.20 <
4 -16 -3 96.38 -255.48 514.34 <
4 16 -3 96.38 -23.99 473.78 <
-4 16 3 96.38 611.70 831.74 <
4 -16 -3 96.38 57.57 515.76 <
-4 -16 3 96.38 -106.75 634.47 <
4 16 -2 6971.92 7616.29 1302.20 o
-4 16 2 6971.86 7032.17 1516.59 o
4 -16 -2 6971.86 6046.25 1211.13 o
4 -16 -2 6971.86 6936.22 1217.89 o
-4 -16 2 6971.92 7261.26 1542.82 o
4 16 -2 6971.92 5387.77 775.60 o
-4 -16 2 6971.92 8052.87 1169.28 o
4 -16 -1 3.77 75.56 442.56 <
4 16 -1 3.77 1056.68 706.33 <
-4 16 1 3.77 45.58 652.48 <
-4 -16 1 3.77 266.27 703.90 <
4 -16 -1 3.77 17.99 562.53 <
4 -16 -1 3.77 68.37 452.16 <
4 16 0 1150.85 1021.90 716.51 <
4 -16 0 1150.81 1224.60 625.76 <
-4 16 0 1150.81 2164.94 1083.77 <
-4 -16 0 1150.85 1755.94 922.30 <
4 -16 0 1150.81 994.32 595.57 <
4 -16 0 1150.81 1336.15 769.29 <
4 16 1 1752.79 1872.29 758.54 <
-4 16 -1 1752.83 2726.27 1177.87 <
-4 -16 -1 1752.79 2335.26 1159.66 <
4 -16 1 1752.83 1517.26 793.95 <
4 -16 1 1752.83 1444.10 746.37 <
4 16 2 547.16 612.90 767.50 <
-4 -16 -2 547.16 1626.41 1296.44 <
4 -16 2 547.17 14.39 558.17 <
-4 16 -2 547.17 1054.29 1092.88 <
4 -16 2 547.17 -95.95 640.84 <
4 16 3 1524.13 1006.31 681.02 <
4 -16 3 1524.14 2047.40 641.63 o
-4 -16 -3 1524.13 1514.86 1253.42 <
4 -16 3 1524.14 2085.78 950.85 <
-4 16 -3 1524.14 129.54 755.87 <
4 -16 3 1524.14 41.98 705.57 <
4 -16 4 412.04 -165.52 844.49 <
4 17 -7 787.12 -391.01 808.68 <
4 -17 -7 787.09 1018.30 848.57 <
4 -17 -7 787.09 374.22 569.41 <
4 -17 -6 18574.50 16802.60 1876.15 o
4 17 -6 18574.30 23320.20 2719.46 o
-4 17 6 18574.50 22069.20 2960.28 o
-4 -17 5 14.97 438.99 604.00 <
4 17 -5 14.97 2576.34 1255.78 <
4 17 -5 14.97 -47.98 545.73 <
-4 17 5 14.97 495.36 787.53 <
4 -17 -5 14.97 524.14 701.04 <
-4 -17 5 14.97 65.97 764.02 <
4 -17 -4 16938.50 13589.40 2006.45 o
4 17 -4 16938.60 18041.60 1872.65 o
-4 -17 4 16938.60 19387.30 2590.93 o
4 -17 -4 16938.50 16617.90 1787.15 o
4 17 -4 16938.60 21274.00 2309.98 o
-4 17 4 16938.50 18653.30 2487.84 o
-4 17 4 16938.50 19764.00 1709.22 o
-4 -17 4 16938.60 19876.70 1827.14 o
-4 -17 3 25.07 442.58 524.77 <
4 17 -3 25.07 551.73 756.20 <
-4 17 3 25.07 -1610.81 941.39 <
4 -17 -3 25.07 1440.50 858.55 <
4 17 -3 25.07 554.13 526.83 <
-4 17 3 25.07 961.93 869.10 <
4 -17 -3 25.07 915.15 700.97 <
-4 -17 3 25.07 829.99 906.76 <
4 17 -3 25.07 239.88 364.38 <
-4 -17 2 748.18 1272.58 594.99 <
4 17 -2 748.18 443.78 657.89 <
-4 17 2 748.14 973.92 816.21 <
4 -17 -2 748.14 1077.07 735.40 <
-4 -17 2 748.18 1695.97 1008.00 <
4 -17 -2 748.14 1089.07 716.14 <
4 17 -2 748.18 299.85 312.20 <
4 17 -1 3048.11 3797.35 1022.88 o
4 -17 -1 3048.14 3173.65 872.09 o
-4 17 1 3048.14 3034.52 1098.75 <
-4 -17 1 3048.11 3821.34 1329.99 <
4 -17 -1 3048.14 2813.83 875.03 o
4 -17 -1 3048.14 3032.12 873.31 o
4 -17 0 10209.10 8620.20 1488.12 o
-4 -17 0 10209.10 13914.40 2216.60 o
-4 17 0 10209.10 9174.33 1887.25 o
4 -17 0 10209.10 9844.80 1549.28 o
4 -17 0 10209.10 8899.66 1347.31 o
4 17 0 10209.10 11244.50 1598.76 o
4 17 1 1736.25 2260.90 925.51 <
-4 17 -1 1736.23 1482.48 1015.65 <
-4 -17 -1 1736.25 1585.63 1099.20 <
4 -17 1 1736.23 1537.65 798.57 <
4 -17 1 1736.23 1280.98 813.93 <
-4 17 -2 17795.40 15720.70 2478.80 o
4 -17 2 17795.40 15542.00 2145.25 o
-4 -17 -2 17795.50 21825.80 3088.57 o
4 -17 2 17795.40 14860.80 2080.15 o
4 17 2 17795.50 21199.70 2204.54 o
4 -17 3 869.88 1195.82 923.83 <
4 -17 3 869.88 21.59 786.41 <
4 18 -6 3885.05 8439.09 1902.50 o
4 -18 -6 3885.06 3619.84 1008.65 o
4 18 -5 185.54 2847.41 1244.57 <
-4 18 5 185.54 1308.56 1095.17 <
4 -18 -5 185.54 400.61 598.22 <
4 -18 -5 185.54 -919.95 899.10 <
4 -18 -4 10180.90 8939.24 1709.95 o
4 18 -4 10181.00 9330.25 1436.24 o
-4 18 4 10180.90 10938.70 2029.45 o
4 -18 -4 10180.90 10652.00 1496.16 o
-4 -18 4 10181.00 8900.86 1810.23 o
4 18 -4 10181.00 15444.90 2017.39 o
-4 18 4 10180.90 13377.10 1493.70 o
-4 -18 4 10181.00 12519.50 1539.82 o
-4 -18 3 3214.53 2749.06 841.06 o
4 18 -3 3214.53 4368.27 1209.52 o
-4 18 3 3214.52 855.18 678.32 <
4 -18 -3 3214.52 2945.76 984.31 <
-4 18 3 3214.52 4074.41 1364.01 <
4 -18 -3 3214.52 3863.32 971.70 o
-4 -18 3 3214.53 2268.09 1136.23 <
-4 -18 2 39358.70 43590.40 3635.80 o
4 -18 -2 39358.80 34857.40 2865.59 o
4 -18 -2 39358.80 39440.40 2809.88 o
4 18 -2 39358.70 46212.30 3179.48 o
-4 -18 2 39358.70 42864.70 2628.40 o
-4 18 2 39358.80 37604.10 3514.77 o
4 18 -1 2780.31 2795.84 1075.78 <
4 -18 -1 2780.31 2807.83 842.97 o
-4 18 1 2780.31 3499.89 1260.93 <
-4 -18 1 2780.31 2525.97 1212.72 <
4 -18 -1 2780.31 1731.96 731.64 <
4 -18 -1 2780.31 2815.03 931.70 o
4 -18 0 13813.10 13824.50 1863.69 o
-4 -18 0 13813.10 17838.90 2476.82 o
4 -18 0 13813.10 13778.90 1852.51 o
4 -18 0 13813.10 13431.10 1648.36 o
4 18 0 13813.10 16799.00 1966.65 o
-4 18 0 13813.10 15070.70 2370.66 o
4 18 1 4032.78 5308.61 1284.98 o
-4 -18 -1 4032.78 4795.26 1443.15 o
-4 18 -1 4032.75 4555.38 1479.97 o
4 -18 1 4032.75 4545.78 1199.73 o
4 -18 1 4032.75 4331.09 1212.51 o
4 -18 2 1316.26 1459.69 809.01 <
4 -18 3 19536.50 18096.80 2558.38 o
4 -19 -5 21311.50 21865.30 2092.45 o
4 -19 -4 19842.90 17596.60 2266.58 o
4 -19 -4 19842.90 19498.90 2058.88 o
4 19 -4 19842.80 24024.30 2573.52 o
-4 19 4 19842.90 24398.50 2942.30 o
-4 -19 3 5078.98 7155.71 1178.38 o
4 19 -3 5078.98 6259.75 1407.14 o
-4 19 3 5078.96 2882.20 813.00 o
4 -19 -3 5078.96 4148.78 1218.41 o
-4 19 3 5078.96 6155.40 1556.85 o
4 -19 -3 5078.96 5741.60 1195.69 o
-4 -19 3 5078.98 4930.80 1436.93 o
-4 -19 2 59.31 260.27 519.17 <
4 19 -2 59.31 -256.67 715.89 <
-4 19 2 59.31 1727.16 1084.76 <
-4 -19 2 59.31 1153.84 1043.91 <
4 -19 -2 59.31 985.92 778.89 <
4 -19 -2 59.31 278.26 687.11 <
4 -19 -1 10443.40 9363.83 1497.00 o
4 -19 -1 10443.40 9378.23 1458.85 o
-4 19 1 10443.40 9459.79 1996.64 o
4 -19 -1 10443.40 11033.40 1641.07 o
-4 -19 1 10443.50 12676.60 2159.52 o
4 19 -1 10443.50 13459.80 1856.73 o
4 -19 0 23432.00 21937.30 2332.84 o
-4 -19 0 23432.00 27066.00 3170.48 o
4 -19 1 25162.40 21695.00 2526.82 o
4 -19 2 11741.20 10427.70 1920.19 o
4 -20 -4 925.91 1321.76 790.18 <
4 -20 -3 28424.50 23476.20 2583.02 o
-4 20 3 28424.50 20422.40 2314.80 o
-4 20 2 11982.60 7884.96 1470.16 o
4 -20 -2 11982.60 11178.60 1654.21 o
4 -20 -1 30262.50 28566.50 2553.64 o
4 -20 0 81.16 -57.57 612.90 <
4 -20 1 15.05 334.64 738.60 <
4 -20 2 17483.10 16172.90 2336.14 o
4 -21 -3 5749.27 5444.15 1400.22 o
-4 21 2 1017.39 -1352.94 1180.54 <
-5 0 10 714.31 1914.27 1032.08 <
5 0 -10 714.31 1181.42 709.64 <
5 0 -10 714.31 -152.33 780.09 <
-5 0 9 463.02 2266.90 1309.06 <
5 0 -9 463.02 1235.40 750.82 <
5 0 -9 463.02 1543.65 897.35 <
-5 0 8 3573.13 2788.64 950.00 <
5 0 -8 3573.13 3075.30 952.81 o
5 0 -8 3573.13 3022.53 913.80 o
5 0 -7 16773.80 18120.80 1676.63 o
5 0 -7 16773.80 19061.10 1831.43 o
5 0 -7 16773.80 16794.20 1745.88 o
-5 0 7 16773.80 18243.10 1789.66 o
-5 0 6 908.70 1122.65 616.82 <
-5 0 6 908.70 345.43 508.77 <
5 0 -6 908.70 320.24 451.40 <
5 0 -6 908.70 1104.66 558.05 <
-5 0 5 39223.70 32270.30 2425.50 o
5 0 -5 39223.70 41259.90 2330.84 o
5 0 -5 39223.70 37649.60 2328.48 o
-5 0 5 39223.70 38082.60 2004.70 o
5 0 -4 28407.90 27556.60 1351.33 o
-5 0 4 28407.90 27815.60 1581.03 o
-5 0 4 28407.90 26635.40 2267.00 o
-5 0 4 28407.90 28618.00 2003.04 o
5 0 -4 28407.90 28722.40 1859.51 o
5 0 -4 28407.90 27508.60 1849.85 o
-5 0 4 28407.90 25584.70 1334.48 o
-5 0 4 28407.90 27774.90 1381.67 o
-5 0 3 22227.50 22808.10 1680.93 o
5 0 -3 22227.50 23111.50 1003.56 o
-5 0 3 22227.50 23407.80 1879.90 o
5 0 -3 22227.50 22758.90 1700.71 o
-5 0 3 22227.50 22511.80 1110.16 o
-5 0 3 22227.50 23049.20 1596.11 o
-5 0 3 22227.50 23970.30 1612.41 o
5 0 -3 22227.50 21041.30 1243.50 o
5 0 -3 22227.50 23314.20 1543.73 o
-5 0 3 22227.50 22842.90 1102.33 o
5 0 -3 22227.50 23055.20 1639.82 o
-5 0 3 22227.50 20531.60 1029.81 o
-5 0 2 27631.80 31554.20 2039.40 o
-5 0 2 27631.80 27809.60 970.19 o
-5 0 2 27631.80 30128.10 1631.29 o
-5 0 2 27631.80 29223.80 1879.61 o
-5 0 2 27631.80 29136.20 1422.35 o
-5 0 2 27631.80 30447.20 1615.31 o
5 0 -2 27631.80 24488.50 1598.34 o
5 0 -2 27631.80 20067.40 1940.64 o
-5 0 2 27631.80 29324.50 1671.87 o
5 0 -2 27631.80 29825.90 1725.71 o
-5 0 2 27631.80 25419.20 1002.52 o
-5 0 1 5208.32 6058.25 809.58 o
-5 0 1 5208.32 6348.50 981.41 o
-5 0 1 5208.32 5535.30 783.80 o
-5 0 1 5208.32 5865.14 890.83 o
5 0 -1 5208.32 5787.18 928.41 o
-5 0 1 5208.32 5176.68 717.80 o
-5 0 1 5208.32 6093.03 802.81 o
5 0 -1 5208.32 5032.75 925.87 o
-5 0 1 5208.32 5481.33 760.60 o
5 0 -1 5208.32 4123.59 705.22 o
-5 0 0 20789.00 18460.20 1032.36 o
-5 0 0 20789.00 20549.60 1670.70 o
5 0 0 20789.00 22591.00 1750.41 o
-5 0 0 20789.00 22254.00 1273.83 o
-5 0 0 20789.00 23277.10 1801.77 o
5 0 0 20789.00 19219.40 1683.18 o
5 0 0 20789.00 21368.80 1874.63 o
-5 0 0 20789.00 23809.60 1689.57 o
-5 0 0 20789.00 22052.40 1519.06 o
-5 0 0 20789.00 24909.50 1433.99 o
-5 0 -1 1276.30 1418.91 630.15 <
5 0 1 1276.30 1025.50 167.16 o
5 0 1 1276.30 861.18 172.59 o
-5 0 -1 1276.30 951.14 327.58 <
-5 0 -1 1276.30 1715.16 522.19 o
-5 0 -1 1276.30 917.55 544.98 <
-5 0 -1 1276.30 1200.61 397.57 o
5 0 1 1276.30 1138.25 544.06 <
5 0 1 1276.30 910.36 439.85 <
-5 0 -1 1276.30 1292.97 500.05 <
5 0 1 1276.30 597.31 537.44 <
5 0 2 2793.07 2257.30 367.26 o
5 0 2 2793.07 2287.28 378.58 o
-5 0 -2 2793.07 3462.71 978.21 o
-5 0 -2 2793.07 3110.08 697.19 o
-5 0 -2 2793.07 2373.64 572.96 o
5 0 2 2793.07 3676.21 916.97 o
5 0 2 2793.07 2978.15 723.86 o
-5 0 -2 2793.07 2410.82 459.67 o
5 0 2 2793.07 1391.32 610.04 <
5 0 2 2793.07 2707.08 800.72 o
-5 0 -3 19160.80 17180.40 1414.23 o
5 0 3 19160.80 16844.60 1986.97 o
-5 0 -3 19160.80 16296.50 2146.56 o
-5 0 -3 19160.80 19147.50 1572.82 o
5 0 3 19160.80 19741.20 2060.62 o
5 0 3 19160.80 19846.70 1972.32 o
5 0 3 19160.80 16399.60 1229.45 o
5 0 4 3782.34 4045.63 769.18 o
-5 0 -4 3782.34 2476.79 972.56 <
-5 0 -4 3782.34 4403.05 919.17 o
5 0 4 3782.34 4612.95 1177.71 o
5 0 4 3782.34 3567.06 956.70 o
5 0 5 4125.28 3393.15 746.25 o
-5 0 -5 4125.28 6054.65 1092.76 o
5 0 5 4125.28 3591.05 1173.56 o
5 0 5 4125.28 5915.52 1122.87 o
-5 0 -6 16304.00 19960.70 1871.53 o
5 0 6 16304.00 16496.80 1817.73 o
5 0 6 16304.00 14256.20 2353.47 o
5 -1 -11 3983.75 6589.59 1467.90 o
-5 -1 10 216.85 1614.41 980.80 <
-5 1 10 216.85 1309.76 991.82 <
5 -1 -10 216.85 -77.96 651.32 <
5 1 -10 216.85 -1273.78 891.54 <
5 -1 -10 216.85 -2041.40 943.26 <
5 1 -10 216.85 -166.72 560.10 <
5 -1 -9 12891.10 11485.60 1724.32 o
5 1 -9 12891.10 11558.80 1691.23 o
5 1 -9 12891.10 11840.60 1633.34 o
5 -1 -9 12891.10 8218.39 1399.99 o
-5 -1 9 12891.10 11873.00 1784.74 o
-5 1 9 12891.10 11104.20 1814.99 o
-5 -1 8 1953.53 759.23 755.24 <
-5 1 8 1953.54 224.29 650.41 <
5 1 -8 1953.53 2588.34 1367.09 <
5 -1 -8 1953.54 1875.89 732.13 <
5 -1 -8 1953.54 2709.48 829.43 o
5 -1 -8 1953.54 1077.07 575.94 <
5 1 -8 1953.53 1621.61 680.90 <
-5 -1 7 4438.47 5149.09 1039.06 o
-5 1 7 4438.47 2671.10 924.24 <
5 -1 -7 4438.47 3962.87 958.46 o
5 -1 -7 4438.47 4054.02 982.66 o
5 -1 -7 4438.47 3465.11 857.18 o
5 1 -7 4438.47 4108.00 911.64 o
5 1 -6 7804.30 6696.34 1107.37 o
5 -1 -6 7804.32 8150.03 1061.22 o
5 -1 -6 7804.32 8720.95 1265.23 o
-5 -1 6 7804.30 5907.12 1066.98 o
5 1 -6 7804.30 7442.37 1110.59 o
-5 1 6 7804.32 9087.97 1239.24 o
5 -1 -6 7804.32 7618.69 1171.16 o
-5 -1 6 7804.30 7759.02 1100.63 o
-5 1 6 7804.32 7026.17 1068.30 o
5 -1 -5 1.53 -281.86 385.84 <
-5 -1 5 1.53 603.31 443.67 <
-5 1 5 1.53 412.60 526.03 <
-5 1 5 1.53 560.13 576.05 <
5 1 -5 1.53 23.99 391.01 <
5 1 -5 1.53 -58.77 185.88 <
-5 -1 5 1.53 171.52 440.08 <
-5 1 5 1.53 119.94 425.74 <
5 1 -5 1.53 124.74 414.94 <
5 1 -5 1.53 550.53 441.49 <
5 -1 -5 1.53 253.08 387.15 <
-5 -1 4 3268.29 3880.11 909.24 o
-5 -1 4 3268.29 3046.51 473.69 o
-5 1 4 3268.29 2092.98 347.06 o
5 1 -4 3268.29 3120.88 660.18 o
5 1 -4 3268.29 3070.50 494.78 o
5 -1 -4 3268.29 3457.91 465.67 o
-5 -1 4 3268.29 2900.19 583.91 o
-5 1 4 3268.29 2304.08 590.89 o
-5 -1 4 3268.29 2632.72 648.41 o
-5 1 4 3268.29 3798.55 791.81 o
-5 1 4 3268.29 4953.58 939.61 o
5 -1 -4 3268.29 3640.23 750.26 o
5 1 -4 3268.29 2803.03 638.49 o
5 -1 -4 3268.29 3000.94 632.83 o
5 1 -4 3268.29 3201.24 680.83 o
-5 1 4 3268.29 3361.96 850.71 o
5 1 -4 3268.29 2499.58 404.96 o
-5 1 4 3268.29 3322.38 568.97 o
-5 1 3 1827.13 2052.20 593.11 o
-5 1 3 1827.13 1835.11 357.33 o
-5 -1 3 1827.13 1717.56 344.38 o
-5 1 3 1827.13 1573.63 277.13 o
-5 -1 3 1827.13 2148.15 457.15 o
5 -1 -3 1827.13 2364.05 640.91 o
5 1 -3 1827.13 1560.44 406.81 o
-5 -1 3 1827.13 2631.52 609.05 o
5 1 -3 1827.13 2034.21 371.60 o
5 -1 -3 1827.13 2004.22 329.74 o
-5 -1 3 1827.13 2055.80 390.64 o
-5 1 3 1827.13 1989.83 411.97 o
-5 -1 3 1827.13 2293.28 582.42 o
-5 1 3 1827.13 2594.34 645.85 o
-5 1 3 1827.13 1807.52 464.36 o
-5 -1 3 1827.13 2401.23 583.72 o
5 1 -3 1827.13 794.01 456.01 <
-5 -1 3 1827.13 1926.26 606.16 o
5 1 -3 1827.13 1760.74 469.58 o
5 -1 -3 1827.13 2013.82 510.44 o
-5 1 3 1827.13 1760.74 633.74 <
5 1 -3 1827.13 1866.29 426.58 o
-5 1 2 303.44 25.19 312.10 <
-5 1 2 303.44 261.47 135.74 <
-5 -1 2 303.44 315.45 205.06 <
-5 -1 2 303.44 458.18 341.39 <
5 1 -2 303.44 578.12 321.65 <
-5 1 2 303.44 155.92 437.95 <
-5 -1 2 303.44 460.58 298.14 <
-5 1 2 303.44 514.55 218.46 <
-5 1 2 303.44 490.56 414.53 <
-5 -1 2 303.44 470.17 401.39 <
-5 1 2 303.44 596.11 357.65 <
-5 1 2 303.44 614.10 434.51 <
-5 1 2 303.44 363.42 329.69 <
-5 -1 2 303.44 374.22 352.46 <
-5 -1 2 303.44 -33.58 376.81 <
-5 -1 2 303.44 616.50 405.65 <
5 1 -2 303.44 218.29 376.75 <
-5 -1 2 303.44 572.12 301.22 <
-5 1 2 303.44 401.80 387.19 <
5 -1 -2 303.44 -70.77 333.63 <
5 1 -2 303.44 359.83 321.30 <
5 -1 -2 303.44 410.20 341.55 <
5 1 -2 303.44 207.50 334.80 <
-5 1 1 16208.40 17920.50 1625.10 o
-5 -1 1 16208.40 18744.50 1604.26 o
-5 -1 1 16208.40 16934.50 802.95 o
-5 1 1 16208.40 16687.50 526.39 o
-5 1 1 16208.40 16554.30 1252.13 o
-5 -1 1 16208.40 18252.70 1436.88 o
5 -1 -1 16208.40 18561.00 1574.70 o
-5 1 1 16208.40 18746.90 1534.11 o
-5 -1 1 16208.40 18833.20 1182.93 o
-5 1 1 16208.40 19277.00 1230.13 o
-5 -1 1 16208.40 18648.50 1533.35 o
5 -1 -1 16208.40 14582.50 1311.20 o
5 1 -1 16208.40 17078.50 1330.45 o
-5 -1 1 16208.40 17407.10 1295.31 o
5 1 -1 16208.40 16675.50 1593.24 o
5 -1 -1 16208.40 13969.60 1549.95 o
-5 1 1 16208.40 18400.20 1365.66 o
-5 1 1 16208.40 18292.30 1349.18 o
-5 -1 1 16208.40 18021.20 1301.98 o
-5 -1 1 16208.40 18876.40 1295.69 o
-5 1 1 16208.40 18142.40 1334.18 o
5 1 -1 16208.40 17199.60 643.23 o
-5 1 0 5129.22 5013.56 874.78 o
-5 -1 0 5129.22 5812.37 907.52 o
-5 -1 0 5129.22 4609.35 554.21 o
-5 1 0 5129.22 3818.94 443.85 o
5 -1 0 5129.22 6306.53 1001.76 o
-5 -1 0 5129.22 6343.71 965.76 o
5 -1 0 5129.22 5574.88 737.00 o
-5 1 0 5129.22 4880.42 837.14 o
-5 -1 0 5129.22 5501.72 682.66 o
-5 1 0 5129.22 5183.87 699.49 o
-5 1 0 5129.22 5825.56 990.92 o
5 1 0 5129.22 6805.48 1075.55 o
-5 -1 0 5129.22 5674.43 954.43 o
-5 1 0 5129.22 5952.70 857.79 o
5 -1 0 5129.22 6861.85 1041.48 o
-5 -1 0 5129.22 5306.21 761.10 o
-5 1 0 5129.22 5679.23 812.72 o
5 1 0 5129.22 5301.42 887.53 o
5 -1 0 5129.22 4887.62 896.78 o
-5 -1 0 5129.22 6897.84 817.05 o
5 1 0 5129.22 5109.51 914.22 o
5 1 0 5129.22 4945.19 344.71 o
5 -1 1 11163.20 11508.40 1420.68 o
-5 -1 -1 11163.20 8230.39 906.92 o
5 1 1 11163.20 11587.60 1356.37 o
-5 1 -1 11163.20 8507.45 1264.47 o
-5 -1 -1 11163.20 9589.33 1355.05 o
-5 1 -1 11163.20 10466.10 908.68 o
5 1 1 11163.20 11771.10 1285.91 o
-5 -1 -1 11163.20 10913.50 940.18 o
-5 1 -1 11163.20 11129.40 958.08 o
5 1 1 11163.20 10191.40 1347.28 o
5 -1 1 11163.20 12147.70 1540.01 o
-5 1 -1 11163.20 8226.79 1286.84 o
-5 -1 -1 11163.20 10909.90 1387.75 o
-5 -1 -1 11163.20 12050.50 1221.06 o
-5 1 -1 11163.20 11748.30 1366.31 o
-5 -1 -1 11163.20 11954.60 1044.02 o
-5 1 -1 11163.20 11640.30 1184.77 o
5 1 1 11163.20 9111.96 635.22 o
5 1 1 11163.20 9375.83 1391.23 o
5 1 2 10214.30 10202.20 871.11 o
5 -1 2 10214.30 9688.88 1407.38 o
5 1 2 10214.30 9901.17 1353.71 o
-5 1 -2 10214.30 8046.88 1357.00 o
-5 -1 -2 10214.30 7985.71 1447.92 o
-5 1 -2 10214.30 10870.30 1046.78 o
5 -1 2 10214.30 11110.20 1319.85 o
5 1 2 10214.30 11230.10 1380.62 o
-5 -1 -2 10214.30 9810.02 829.71 o
-5 1 -2 10214.30 9771.64 893.44 o
5 1 2 10214.30 10070.30 1399.82 o
5 1 2 10214.30 9881.98 1408.98 o
5 -1 2 10214.30 9763.24 1427.64 o
5 -1 2 10214.30 7682.25 608.98 o
5 1 2 10214.30 9079.57 745.45 o
5 -1 2 10214.30 9612.11 603.30 o
-5 1 -2 10214.30 9995.93 1128.54 o
-5 -1 -2 10214.30 9120.35 918.68 o
5 -1 3 163.53 -716.05 358.52 <
5 1 3 163.53 215.90 426.93 <
-5 1 -3 163.53 -802.41 730.09 <
-5 -1 -3 163.53 907.96 790.12 <
-5 1 -3 163.53 -88.76 417.41 <
-5 -1 -3 163.53 -116.34 509.75 <
5 -1 3 163.53 850.39 602.81 <
5 1 3 163.53 472.57 605.25 <
5 -1 3 163.53 1757.14 802.59 <
-5 1 -3 163.53 620.10 519.56 <
-5 -1 -3 163.53 412.60 365.28 <
5 1 3 163.53 972.73 647.98 <
5 -1 3 163.53 1179.03 607.14 <
5 1 3 163.53 56.37 652.52 <
5 1 4 11745.50 12663.40 1226.59 o
5 -1 4 11745.50 10739.60 1710.48 o
5 1 4 11745.50 11840.60 1712.39 o
-5 1 -4 11745.50 8800.11 1232.85 o
-5 1 -4 11745.50 13611.00 1367.43 o
-5 -1 -4 11745.50 10479.30 1388.99 o
5 1 4 11745.50 11513.20 1564.58 o
-5 -1 -4 11745.50 7275.65 1766.81 o
5 -1 4 11745.50 10716.80 1265.56 o
5 -1 4 11745.50 8796.51 1471.52 o
5 -1 4 11745.50 8371.92 970.34 o
5 -1 5 581.32 638.09 519.18 <
5 1 5 581.33 1559.24 638.37 <
-5 -1 -5 581.33 -629.69 912.27 <
-5 1 -5 581.32 1592.82 747.97 <
5 -1 5 581.32 492.96 719.80 <
-5 -1 -5 581.33 1831.51 768.12 <
5 1 5 581.33 1339.75 849.26 <
5 1 5 581.33 -256.67 586.77 <
5 -1 5 581.32 20.39 566.62 <
5 -1 6 1600.80 1746.35 1068.12 <
-5 1 -6 1600.80 3834.53 1032.37 o
-5 -1 -6 1600.80 4828.85 1122.22 o
5 1 6 1600.80 2878.60 1137.65 <
5 1 6 1600.80 3612.64 970.19 o
5 -1 6 1600.80 1854.30 755.41 <
5 1 7 221.08 -917.55 860.67 <
-5 -1 -7 221.08 369.42 681.10 <
5 -2 -11 532.43 -462.97 699.03 <
-5 -2 10 11.75 1114.26 868.50 <
-5 2 10 11.75 -183.51 694.37 <
5 -2 -10 11.75 -756.83 648.49 <
5 -2 -10 11.75 596.11 694.85 <
5 2 -10 11.75 -497.76 608.57 <
-5 -2 9 37.92 3026.12 1346.97 <
-5 2 9 37.92 3262.41 1507.27 <
5 -2 -9 37.92 428.19 708.46 <
5 -2 -9 37.92 2051.00 1098.61 <
5 2 -9 37.92 286.66 522.71 <
5 -2 -9 37.92 45.58 513.35 <
-5 -2 8 16.42 76.76 623.68 <
-5 2 8 16.42 -527.74 769.37 <
5 -2 -8 16.42 -388.61 485.20 <
5 -2 -8 16.42 -355.03 547.72 <
-5 2 8 16.42 1079.47 613.49 <
5 2 -8 16.42 -489.36 584.58 <
5 -2 -8 16.42 73.16 484.55 <
5 2 -7 572.42 874.37 503.84 <
-5 -2 7 572.42 1332.55 820.40 <
-5 2 7 572.42 -1107.06 676.00 <
5 -2 -7 572.42 249.48 492.32 <
5 -2 -7 572.42 887.57 756.05 <
-5 2 7 572.42 714.85 546.52 <
5 -2 -7 572.42 1115.46 627.76 <
-5 -2 6 196.80 1326.55 601.44 <
-5 2 6 196.80 -770.03 715.80 <
5 -2 -6 196.80 694.46 485.66 <
-5 -2 6 196.80 -47.98 447.44 <
5 2 -6 196.80 106.75 409.07 <
5 -2 -6 196.80 99.55 392.29 <
-5 2 6 196.80 1440.50 723.83 <
5 2 -6 196.80 -11.99 395.89 <
5 -2 -6 196.80 681.27 513.37 <
5 2 -6 196.80 858.78 220.95 o
-5 -2 5 1017.36 418.60 319.44 <
-5 2 5 1017.36 -141.53 436.01 <
5 2 -5 1017.36 532.54 546.02 <
5 2 -5 1017.36 863.58 446.94 <
5 2 -5 1017.36 1181.42 457.21 <
5 -2 -5 1017.36 1851.90 679.04 <
-5 -2 5 1017.36 1280.98 479.39 <
5 -2 -5 1017.36 1084.27 508.22 <
-5 2 5 1017.36 2140.96 751.72 <
5 2 -5 1017.36 875.57 455.27 <
5 -2 -5 1017.36 762.83 509.57 <
5 2 -5 1017.36 1827.91 380.73 o
-5 -2 4 1261.85 1595.22 684.33 <
-5 2 4 1261.85 1769.14 299.41 o
-5 -2 4 1261.85 1114.26 340.65 o
-5 2 4 1261.85 1332.55 386.84 o
5 2 -4 1261.85 2234.51 610.44 o
5 2 -4 1261.85 1101.06 329.99 o
5 -2 -4 1261.85 235.09 566.24 <
-5 -2 4 1261.85 1573.63 441.30 o
5 -2 -4 1261.85 1501.67 585.12 <
-5 -2 4 1261.85 1320.56 546.60 <
5 2 -4 1261.85 147.53 553.05 <
-5 2 4 1261.85 1767.94 589.22 <
-5 2 4 1261.85 1650.40 730.91 <
5 2 -4 1261.85 1198.22 500.53 <
5 -2 -4 1261.85 1631.20 451.63 o
-5 2 4 1261.85 1589.23 666.33 <
5 2 -4 1261.85 1835.11 438.66 o
-5 2 3 865.00 925.95 485.49 <
-5 2 3 865.00 868.38 284.24 o
-5 -2 3 865.00 1027.90 309.42 o
-5 2 3 865.00 1137.05 278.22 o
-5 -2 3 865.00 1544.85 486.16 o
5 2 -3 865.00 1163.43 428.82 <
5 2 -3 865.00 912.76 391.95 <
5 2 -3 865.00 835.99 288.06 <
5 -2 -3 865.00 753.23 219.26 o
-5 -2 3 865.00 862.38 491.77 <
5 -2 -3 865.00 1054.29 504.06 <
-5 -2 3 865.00 901.96 314.00 <
-5 -2 3 865.00 943.94 438.59 <
-5 2 3 865.00 786.82 402.18 <
-5 2 3 865.00 794.01 388.97 <
-5 -2 3 865.00 1167.03 544.32 <
-5 2 3 865.00 442.58 454.68 <
5 2 -3 865.00 1101.06 486.97 <
-5 -2 3 865.00 886.37 512.06 <
5 -2 -3 865.00 959.53 409.69 <
5 2 -3 865.00 1528.06 492.35 o
-5 2 2 438.16 404.20 289.18 <
5 2 -2 438.16 316.65 421.24 <
-5 2 2 438.16 271.07 110.34 <
-5 -2 2 438.16 455.78 224.21 <
-5 -2 2 438.16 488.16 318.87 <
5 2 -2 438.16 381.41 230.52 <
-5 2 2 438.16 393.41 423.50 <
-5 2 2 438.16 699.26 445.32 <
-5 -2 2 438.16 2078.59 420.07 o
-5 -2 2 438.16 221.89 306.35 <
-5 2 2 438.16 560.13 465.05 <
-5 2 2 438.16 321.44 248.68 <
-5 2 2 438.16 600.91 382.05 <
-5 -2 2 438.16 681.27 433.38 <
-5 -2 2 438.16 650.08 432.31 <
-5 2 2 438.16 1519.66 595.88 <
-5 2 2 438.16 945.14 428.39 <
5 2 -2 438.16 543.34 313.84 <
5 -2 -2 438.16 629.69 302.59 <
-5 -2 2 438.16 394.61 323.97 <
5 2 -2 438.16 1161.03 516.26 <
5 -2 -2 438.16 634.49 366.29 <
-5 -2 1 1099.04 1649.20 480.55 o
5 2 -1 1099.04 1277.38 264.30 o
-5 -2 1 1099.04 912.76 339.52 <
-5 2 1 1099.04 1454.89 571.33 <
-5 -2 1 1099.04 1394.92 365.71 o
-5 2 1 1099.04 1116.66 526.45 <
-5 -2 1 1099.04 2119.37 651.83 o
-5 2 1 1099.04 1442.90 453.37 o
-5 -2 1 1099.04 1333.75 592.52 <
-5 -2 1 1099.04 1486.08 417.99 o
-5 2 1 1099.04 1590.42 483.49 o
-5 2 1 1099.04 1026.70 505.32 <
5 2 -1 1099.04 1399.72 562.06 <
5 -2 -1 1099.04 1229.40 521.03 <
-5 -2 1 1099.04 1513.66 475.70 o
-5 2 1 1099.04 1081.87 505.04 <
-5 -2 1 1099.04 1397.32 492.27 <
5 -2 -1 1099.04 1384.13 527.27 <
5 2 -1 1099.04 1126.25 531.20 <
-5 2 1 1099.04 1119.05 423.27 <
-5 -2 0 924.32 820.40 443.07 <
5 2 0 924.32 1151.44 227.73 o
5 -2 0 924.32 413.80 471.69 <
-5 -2 0 924.32 1400.92 451.44 o
-5 2 0 924.32 846.79 409.40 <
-5 -2 0 924.32 826.40 302.92 <
-5 2 0 924.32 602.11 130.22 o
-5 -2 0 924.32 1101.06 576.15 <
-5 2 0 924.32 1113.06 549.67 <
-5 2 0 924.32 804.81 178.87 o
-5 2 0 924.32 635.69 376.77 <
-5 -2 0 924.32 1176.63 557.74 <
-5 -2 0 924.32 1117.85 567.66 <
-5 -2 0 924.32 941.54 334.52 <
-5 2 0 924.32 820.40 378.38 <
5 2 0 924.32 1222.20 474.48 <
5 -2 0 924.32 1151.44 512.21 <
-5 -2 0 924.32 975.12 383.51 <
-5 2 0 924.32 1111.86 473.97 <
5 2 0 924.32 633.29 489.21 <
5 2 0 924.32 651.28 408.99 <
5 2 0 924.32 784.42 475.56 <
-5 2 0 924.32 -44.38 538.60 <
-5 -2 -1 42.07 -92.36 576.90 <
5 2 1 42.07 226.69 226.37 <
-5 -2 -1 42.07 53.97 302.25 <
-5 -2 -1 42.07 538.54 336.92 <
-5 2 -1 42.07 353.83 409.74 <
-5 2 -1 42.07 343.03 245.17 <
-5 2 -1 42.07 687.27 573.25 <
-5 -2 -1 42.07 87.56 543.32 <
5 -2 1 42.07 31.18 386.21 <
-5 -2 -1 42.07 268.67 279.09 <
5 -2 1 42.07 -41.98 414.99 <
-5 2 -1 42.07 191.91 266.08 <
5 2 1 42.07 503.75 446.52 <
5 2 1 42.07 515.75 440.46 <
5 2 1 42.07 746.04 657.17 <
5 -2 1 42.07 483.36 511.45 <
-5 -2 -1 42.07 193.11 333.28 <
5 2 1 42.07 -110.35 546.90 <
-5 2 -1 42.07 -614.10 811.17 <
5 2 2 192.52 997.91 644.30 <
5 2 2 192.52 368.22 251.36 <
-5 2 -2 192.53 -332.24 618.63 <
-5 2 -2 192.53 297.45 387.24 <
-5 -2 -2 192.52 -235.09 594.79 <
-5 2 -2 192.53 295.06 501.23 <
5 -2 2 192.53 321.44 539.58 <
-5 -2 -2 192.52 437.79 248.64 <
5 -2 2 192.53 380.21 373.83 <
5 -2 2 192.53 640.49 535.15 <
5 2 2 192.52 857.58 579.97 <
5 2 2 192.52 434.19 476.94 <
-5 -2 -2 192.52 285.46 263.66 <
-5 2 -2 192.53 370.62 347.45 <
5 -2 2 192.53 -93.55 641.71 <
-5 -2 -2 192.52 403.00 497.42 <
5 -2 2 192.53 -23.99 277.17 <
5 2 2 192.52 879.17 614.76 <
5 -2 3 1065.80 2103.77 415.38 o
5 2 3 1065.81 935.54 400.17 <
5 -2 3 1065.80 623.70 495.81 <
-5 2 -3 1065.80 -197.90 699.26 <
-5 2 -3 1065.80 1338.55 514.16 <
-5 -2 -3 1065.81 1357.74 922.59 <
5 -2 3 1065.80 635.69 586.69 <
5 2 3 1065.81 981.12 645.60 <
5 -2 3 1065.80 820.40 373.24 <
5 -2 3 1065.80 1484.88 727.39 <
-5 2 -3 1065.80 935.54 553.48 <
-5 -2 -3 1065.81 994.32 295.65 o
5 -2 3 1065.80 924.75 493.63 <
5 2 3 1065.81 726.85 615.21 <
5 2 3 1065.81 1466.89 652.92 <
5 -2 4 244.89 461.77 534.56 <
5 2 4 244.90 1073.48 634.40 <
5 -2 4 244.89 623.70 510.07 <
-5 -2 -4 244.90 171.52 669.33 <
-5 2 -4 244.89 1182.62 625.37 <
-5 -2 -4 244.90 349.03 661.96 <
5 -2 4 244.89 267.47 668.05 <
5 2 4 244.90 606.90 574.98 <
5 2 4 244.90 905.56 579.84 <
5 -2 4 244.89 516.95 622.05 <
-5 2 -4 244.89 386.21 517.92 <
5 2 4 244.90 -671.67 664.53 <
5 -2 5 69.33 1181.42 512.74 <
5 2 5 69.33 1205.41 587.49 <
-5 -2 -5 69.33 -786.82 1017.21 <
-5 2 -5 69.33 502.55 548.65 <
5 -2 5 69.33 -522.95 696.16 <
-5 -2 -5 69.33 -617.70 567.32 <
5 2 5 69.33 218.29 600.81 <
5 2 5 69.33 1812.32 827.39 <
5 2 6 1019.35 2854.61 833.82 o
5 -2 6 1019.35 1176.63 890.69 <
-5 2 -6 1019.35 1364.93 696.57 <
-5 -2 -6 1019.35 1923.86 818.51 <
5 2 6 1019.35 1610.81 1072.81 <
5 2 6 1019.35 1730.76 742.61 <
-5 -2 -7 37.18 2903.78 1013.56 <
5 2 7 37.18 -778.42 992.02 <
-5 3 10 142.31 959.53 948.52 <
5 -3 -10 142.31 -344.23 635.38 <
5 -3 -10 142.31 778.42 822.95 <
5 -3 -10 142.31 520.55 633.93 <
5 -3 -9 26840.60 22396.70 2585.63 o
5 -3 -9 26840.60 27876.80 2283.89 o
5 3 -9 26840.70 26733.80 2247.16 o
5 -3 -9 26840.60 24398.50 2430.43 o
-5 -3 9 26840.70 27902.00 2527.14 o
-5 3 9 26840.60 31572.20 2830.27 o
5 3 -8 239.62 362.22 475.97 <
-5 -3 8 239.62 618.90 714.22 <
-5 3 8 239.62 420.99 585.05 <
5 -3 -8 239.62 61.17 547.03 <
5 -3 -8 239.62 -780.82 626.82 <
-5 3 8 239.62 1002.71 614.27 <
5 -3 -8 239.62 256.67 489.34 <
5 -3 -7 28972.40 28116.70 2522.81 o
5 -3 -7 28972.40 26203.60 2009.66 o
5 3 -7 28972.50 29035.40 2100.49 o
5 -3 -7 28972.40 30179.70 2244.37 o
-5 3 7 28972.40 31195.60 2220.06 o
-5 -3 7 28972.50 33053.50 2089.70 o
-5 3 7 28972.40 24585.60 2354.04 o
-5 -3 6 2844.09 2036.61 585.80 o
-5 3 6 2844.09 761.63 534.34 <
5 3 -6 2844.09 1730.76 583.03 o
5 3 -6 2844.09 3726.58 739.87 o
5 -3 -6 2844.09 2879.80 667.71 o
-5 -3 6 2844.09 2788.64 778.90 o
5 -3 -6 2844.09 3427.93 960.83 o
-5 3 6 2844.09 3028.52 820.00 o
5 -3 -6 2844.09 3131.67 755.26 o
5 3 -6 2844.09 3305.59 719.61 o
5 3 -6 2844.09 1350.54 320.07 o
-5 -3 5 157.55 -99.55 356.23 <
-5 3 5 157.56 -185.91 550.46 <
5 3 -5 157.55 238.68 452.09 <
5 3 -5 157.55 586.51 380.21 <
5 3 -5 157.55 327.44 367.92 <
5 -3 -5 157.56 169.12 382.60 <
-5 -3 5 157.55 516.95 446.62 <
5 -3 -5 157.56 281.86 482.02 <
-5 3 5 157.56 452.18 618.49 <
5 -3 -5 157.56 521.75 439.39 <
5 3 -5 157.55 373.02 379.80 <
5 3 -5 157.55 139.13 331.06 <
5 3 -5 157.55 -197.90 332.09 <
5 3 -4 9352.87 9387.82 842.26 o
-5 -3 4 9352.87 10115.90 1125.92 o
5 3 -4 9352.87 9325.45 869.08 o
-5 3 4 9352.84 8406.70 1318.87 o
-5 -3 4 9352.87 8929.65 907.37 o
5 -3 -4 9352.84 10430.10 1234.88 o
-5 3 4 9352.84 10596.80 1210.54 o
-5 3 4 9352.84 10746.80 1324.83 o
5 3 -4 9352.87 10570.40 1193.98 o
5 3 -4 9352.87 10900.30 1144.61 o
5 -3 -4 9352.84 8972.83 1049.03 o
-5 3 4 9352.84 8347.93 537.08 o
-5 -3 4 9352.87 8806.11 834.65 o
-5 3 4 9352.84 8289.16 856.17 o
-5 3 3 19349.70 22249.20 1841.52 o
5 3 -3 19349.80 20230.50 1137.77 o
5 -3 -3 19349.70 18066.80 769.96 o
-5 -3 3 19349.80 20513.60 1102.79 o
-5 -3 3 19349.80 21671.00 1734.45 o
-5 -3 3 19349.80 22335.50 1552.44 o
-5 3 3 19349.70 19544.50 1236.45 o
-5 -3 3 19349.80 21558.30 1686.94 o
-5 3 3 19349.70 22367.90 1812.84 o
-5 3 3 19349.70 22200.00 1542.05 o
5 -3 -3 19349.70 21142.10 1638.08 o
-5 3 3 19349.70 20165.80 1784.62 o
5 3 -3 19349.80 20584.40 1283.19 o
-5 3 3 19349.70 19753.20 1028.79 o
5 3 -3 19349.80 20156.20 1477.04 o
5 -3 -3 19349.70 21649.40 1517.48 o
-5 -3 3 19349.80 17925.30 1281.85 o
-5 -3 3 19349.80 19261.40 1043.82 o
5 3 -3 19349.80 20802.70 1653.67 o
-5 3 3 19349.70 20264.10 877.37 o
5 3 -3 19349.80 19020.30 1223.83 o
-5 3 2 4089.56 4382.66 778.16 o
-5 3 2 4089.56 4356.28 808.63 o
-5 -3 2 4089.53 4551.78 807.18 o
-5 3 2 4089.56 4381.46 558.38 o
-5 3 2 4089.56 4291.51 857.60 o
-5 -3 2 4089.53 4470.22 710.49 o
-5 3 2 4089.56 4640.54 776.87 o
-5 -3 2 4089.53 3940.08 758.72 o
-5 -3 2 4089.53 4864.83 873.01 o
-5 3 2 4089.56 4953.58 940.91 o
5 3 -2 4089.53 3496.30 748.30 o
-5 3 2 4089.56 4891.22 766.91 o
5 3 -2 4089.53 4868.43 733.18 o
-5 -3 2 4089.53 4283.11 677.18 o
5 -3 -2 4089.56 4647.73 823.97 o
-5 -3 2 4089.53 3763.77 491.96 o
5 3 -2 4089.53 5312.21 742.49 o
5 3 -2 4089.53 4489.41 505.14 o
-5 3 2 4089.56 4080.41 605.85 o
-5 -3 1 36223.00 40864.10 2169.60 o
-5 3 1 36223.00 40533.00 1985.11 o
-5 -3 1 36223.00 38814.30 1376.96 o
-5 3 1 36223.00 35741.40 1671.80 o
-5 -3 1 36223.00 39971.70 2251.48 o
5 -3 -1 36223.00 38757.90 2346.90 o
-5 3 1 36223.00 38933.00 2156.28 o
5 -3 -1 36223.00 40372.30 1866.64 o
-5 -3 1 36223.00 39026.60 1744.26 o
-5 3 1 36223.00 39340.80 1818.10 o
-5 -3 1 36223.00 38502.40 2210.15 o
-5 3 1 36223.00 39533.90 2251.46 o
5 3 -1 36223.00 39308.40 2370.90 o
5 3 -1 36223.00 40349.50 1858.58 o
-5 -3 1 36223.00 38008.30 1847.44 o
-5 3 1 36223.00 42082.70 1916.57 o
-5 -3 1 36223.00 38484.40 1903.10 o
-5 3 1 36223.00 39896.20 2104.71 o
5 3 -1 36223.00 37113.50 1139.53 o
-5 3 1 36223.00 40524.60 2428.69 o
-5 3 0 10587.00 10388.10 1057.81 o
-5 -3 0 10587.00 10662.80 880.58 o
5 -3 0 10587.00 10575.20 1333.97 o
-5 -3 0 10587.00 11461.60 1374.37 o
5 3 0 10587.00 11288.90 1217.80 o
5 3 0 10587.00 12278.40 1296.37 o
-5 3 0 10587.00 11832.20 1317.70 o
5 -3 0 10587.00 11544.40 1092.09 o
-5 -3 0 10587.00 10800.70 910.33 o
-5 3 0 10587.00 11454.40 1046.70 o
5 3 0 10587.00 10238.20 1346.20 o
5 3 0 10587.00 11719.50 1207.74 o
-5 3 0 10587.00 11852.60 1357.59 o
-5 -3 0 10587.00 11630.70 909.79 o
-5 -3 0 10587.00 11104.20 1064.40 o
-5 -3 0 10587.00 11805.80 1228.95 o
-5 3 0 10587.00 10743.20 1200.88 o
-5 3 0 10587.00 11004.60 1239.84 o
-5 -3 0 10587.00 11091.00 1362.47 o
5 3 0 10587.00 11292.50 655.71 o
-5 -3 0 10587.00 11127.00 1342.41 o
5 -3 1 9400.68 8920.05 1334.43 o
-5 3 -1 9400.68 8230.39 1155.79 o
-5 -3 -1 9400.65 8040.88 914.79 o
-5 -3 -1 9400.65 9944.35 1469.03 o
5 3 1 9400.65 9691.28 1185.39 o
-5 3 -1 9400.68 8622.60 573.05 o
5 -3 1 9400.68 8677.77 984.97 o
5 3 1 9400.65 10450.50 1310.88 o
5 -3 1 9400.68 9696.07 1027.29 o
-5 -3 -1 9400.65 9425.00 825.73 o
-5 3 -1 9400.68 9564.14 939.98 o
5 3 1 9400.65 9724.86 1219.68 o
-5 3 -1 9400.68 8750.93 1407.29 o
5 -3 1 9400.68 7941.33 1239.06 o
5 3 1 9400.65 8079.26 1377.49 o
-5 -3 -1 9400.65 8852.88 1038.20 o
-5 -3 -1 9400.65 10484.10 1311.43 o
-5 -3 -1 9400.65 10024.70 765.44 o
-5 3 -1 9400.68 9147.94 1220.80 o
5 3 1 9400.65 8232.79 699.90 o
-5 -3 -2 47494.20 37289.80 1805.98 o
5 -3 2 47494.30 46112.70 3116.85 o
-5 3 -2 47494.30 37818.80 3135.37 o
5 3 2 47494.20 44770.60 2805.99 o
-5 -3 -2 47494.20 45159.20 3272.48 o
-5 3 -2 47494.30 40892.90 1985.18 o
5 3 2 47494.20 49711.00 2947.41 o
5 -3 2 47494.30 43321.70 2356.14 o
-5 -3 -2 47494.20 48259.70 1650.58 o
-5 3 -2 47494.30 45364.30 2129.84 o
5 -3 2 47494.30 55705.60 2486.92 o
5 3 2 47494.20 49858.50 2792.60 o
5 3 2 47494.20 41421.80 3007.14 o
-5 -3 -2 47494.20 51011.10 2425.49 o
5 -3 2 47494.30 45639.00 2973.87 o
5 3 2 47494.20 44719.00 1897.21 o
-5 3 -2 47494.30 48654.30 2722.94 o
5 -3 3 423.10 -52.77 209.36 <
5 -3 3 423.10 867.18 561.16 <
-5 3 -3 423.10 307.05 319.35 <
-5 -3 -3 423.10 1331.35 852.56 <
5 -3 3 423.10 510.95 604.34 <
5 -3 3 423.10 572.12 656.99 <
5 -3 3 423.10 345.43 404.37 <
5 3 3 423.10 1205.41 646.15 <
-5 3 -3 423.10 340.63 439.15 <
-5 -3 -3 423.10 280.66 227.18 <
5 3 3 423.10 501.36 491.58 <
5 3 3 423.10 326.24 535.09 <
5 -3 4 24933.50 24138.20 2636.05 o
5 3 4 24933.40 27349.10 1927.16 o
5 3 4 24933.40 23224.30 2320.15 o
-5 3 -4 24933.50 22322.30 2184.55 o
-5 -3 -4 24933.40 23187.10 2766.12 o
-5 3 -4 24933.50 24451.30 1735.25 o
-5 -3 -4 24933.40 25979.30 2069.32 o
5 -3 4 24933.50 23440.20 1567.00 o
5 3 4 24933.40 25620.70 2401.85 o
5 3 4 24933.40 31038.50 2333.68 o
5 -3 4 24933.50 28072.30 2125.19 o
5 -3 4 24933.50 25644.70 1376.97 o
5 -3 5 301.45 834.79 542.99 <
5 3 5 301.44 1177.83 671.30 <
-5 -3 -5 301.44 -285.46 813.11 <
-5 3 -5 301.45 952.34 621.85 <
5 -3 5 301.45 196.70 701.74 <
-5 -3 -5 301.44 497.76 666.57 <
5 3 5 301.44 851.59 848.15 <
5 3 5 301.44 -142.73 551.80 <
5 3 5 301.44 196.70 648.97 <
5 3 6 118.33 3201.24 1024.31 o
5 -3 6 118.33 735.24 953.91 <
-5 3 -6 118.33 3426.73 1078.08 o
5 3 6 118.33 1483.68 795.79 <
-5 -3 -6 118.33 4804.86 1148.91 o
5 3 6 118.33 907.96 984.68 <
-5 -3 -7 950.26 2132.56 904.92 <
5 3 7 950.26 593.71 946.98 <
5 -4 -10 8764.56 5500.52 1382.40 o
-5 4 10 8764.56 8728.15 1710.81 o
5 -4 -10 8764.56 9299.07 1511.94 o
5 -4 -10 8764.56 5832.76 1352.85 o
5 -4 -9 7120.44 5904.72 1381.92 o
5 4 -9 7120.45 6364.10 1101.23 o
5 -4 -9 7120.44 10391.70 1541.35 o
5 -4 -9 7120.44 6304.13 1285.04 o
-5 -4 9 7120.45 8451.08 1590.01 o
-5 4 9 7120.44 10795.90 2060.81 o
-5 -4 8 82.37 214.70 636.80 <
-5 4 8 82.37 -213.50 683.55 <
5 -4 -8 82.37 265.07 592.36 <
5 -4 -8 82.37 290.26 700.30 <
5 4 -8 82.37 -27.59 385.02 <
5 -4 -8 82.37 984.72 669.46 <
5 -4 -7 28310.80 29280.10 2576.72 o
-5 4 7 28310.80 23788.00 2725.79 o
5 4 -7 28310.80 32884.40 2204.69 o
5 -4 -7 28310.80 24322.90 1983.41 o
5 4 -7 28310.80 29825.90 1983.57 o
-5 4 7 28310.80 31421.10 2348.54 o
5 4 -7 28310.80 19680.00 1411.05 o
5 -4 -7 28310.80 28622.80 2198.43 o
-5 -4 7 28310.80 32871.20 2097.21 o
-5 4 7 28310.80 26633.00 2471.13 o
-5 4 6 17334.10 14413.40 1666.07 o
-5 4 6 17334.10 13184.00 1857.37 o
5 4 -6 17334.10 17384.30 1483.46 o
5 -4 -6 17334.10 18041.60 1902.03 o
5 -4 -6 17334.10 15699.10 1373.76 o
-5 -4 6 17334.10 16650.30 1573.35 o
-5 4 6 17334.10 14870.40 1767.27 o
5 4 -6 17334.10 16520.70 1491.42 o
5 4 -6 17334.10 14003.20 1048.34 o
5 -4 -6 17334.10 15677.60 1566.21 o
-5 -4 6 17334.10 15904.20 1460.32 o
5 4 -5 122290.00 124244.00 4060.02 o
5 4 -5 122290.00 124245.00 3330.07 o
5 -4 -5 122290.00 122963.00 2972.15 o
-5 -4 5 122290.00 123481.00 3453.44 o
5 4 -5 122290.00 120333.00 3062.94 o
5 -4 -5 122290.00 131069.00 4194.63 o
-5 4 5 122290.00 113412.00 5120.18 o
5 4 -5 122290.00 93955.00 5095.32 o
5 4 -5 122290.00 117588.00 4463.33 o
5 -4 -5 122290.00 118158.00 4197.87 o
-5 -4 5 122290.00 120217.00 3511.24 o
-5 4 5 122290.00 105627.00 4782.22 o
5 4 -4 1057.71 1360.14 458.59 <
-5 4 4 1057.71 838.39 189.66 o
-5 -4 4 1057.71 1164.63 467.15 <
-5 -4 4 1057.71 1165.83 386.65 o
-5 4 4 1057.71 1235.40 457.08 <
5 4 -4 1057.71 1812.32 546.58 o
5 4 -4 1057.71 885.17 365.69 <
5 -4 -4 1057.71 2113.37 384.37 o
-5 -4 4 1057.71 1101.06 436.33 <
-5 4 4 1057.71 1260.59 697.23 <
5 4 -4 1057.71 815.60 394.73 <
-5 4 4 1057.71 1019.50 595.07 <
5 4 -4 1057.71 1075.88 513.26 <
5 -4 -4 1057.71 1356.54 486.31 <
5 -4 -4 1057.71 991.92 505.27 <
-5 4 3 41389.30 46043.20 2559.35 o
5 4 -3 41389.50 43820.60 1651.15 o
5 -4 -3 41389.30 34031.00 1406.94 o
-5 -4 3 41389.50 43526.80 1686.79 o
5 4 -3 41389.50 41469.80 2127.61 o
-5 -4 3 41389.50 46143.90 2434.53 o
-5 -4 3 41389.50 45297.10 2164.35 o
-5 4 3 41389.30 38314.10 1751.67 o
-5 -4 3 41389.50 44264.40 2478.99 o
-5 4 3 41389.30 47601.20 2100.97 o
5 -4 -3 41389.30 43898.60 2387.32 o
-5 4 3 41389.30 45058.40 2630.17 o
5 4 -3 41389.50 43296.50 2349.53 o
-5 4 3 41389.30 53022.60 2447.43 o
-5 4 3 41389.30 43345.70 1522.80 o
5 4 -3 41389.50 44140.90 1852.47 o
-5 4 3 41389.30 45385.90 2140.18 o
5 -4 -3 41389.30 42605.60 2177.45 o
-5 -4 3 41389.50 35375.60 2179.00 o
-5 -4 3 41389.50 40031.70 1638.25 o
-5 4 3 41389.30 41786.40 1439.57 o
-5 4 2 52796.90 54611.80 2561.67 o
-5 4 2 52796.90 57471.20 2768.57 o
5 4 -2 52796.70 55762.00 1783.20 o
-5 -4 2 52796.70 59848.40 2528.92 o
-5 -4 2 52796.70 47315.70 2201.80 o
-5 4 2 52796.90 48547.50 1843.44 o
-5 -4 2 52796.70 58279.60 2676.49 o
-5 4 2 52796.90 59464.60 2736.02 o
5 -4 -2 52796.90 55829.20 2330.68 o
-5 4 2 52796.90 56271.80 2321.37 o
-5 -4 2 52796.70 58675.40 2382.44 o
5 4 -2 52796.70 55818.40 2745.86 o
-5 4 2 52796.90 61430.50 1704.24 o
5 4 -2 52796.70 55508.90 2258.58 o
-5 4 2 52796.90 53504.70 2752.36 o
-5 4 2 52796.90 61832.30 2124.49 o
5 -4 -2 52796.90 52406.10 2643.03 o
5 4 -2 52796.70 55403.40 2287.86 o
-5 -4 2 52796.70 52876.20 2149.46 o
-5 -4 2 52796.70 53840.60 1696.71 o
5 4 -2 52796.70 52166.20 1777.13 o
-5 -4 1 16201.30 18361.80 1518.13 o
-5 4 1 16201.50 14990.30 1006.23 o
-5 -4 1 16201.30 17431.10 1066.97 o
-5 4 1 16201.50 17390.30 1497.21 o
5 -4 -1 16201.50 17223.60 1631.20 o
-5 -4 1 16201.30 17655.40 1644.33 o
-5 -4 1 16201.30 17118.10 1219.84 o
5 -4 -1 16201.50 17530.70 1358.98 o
-5 4 1 16201.50 17109.70 1320.69 o
-5 -4 1 16201.30 17312.40 1344.95 o
5 4 -1 16201.30 17522.30 1631.94 o
-5 4 1 16201.50 18087.20 1649.96 o
-5 4 1 16201.50 18634.10 1426.92 o
5 4 -1 16201.30 18351.10 1384.68 o
-5 -4 1 16201.30 17233.20 1230.65 o
-5 4 1 16201.50 18944.80 1596.90 o
-5 4 1 16201.50 15906.60 1399.44 o
5 4 -1 16201.30 17859.30 1350.87 o
-5 -4 1 16201.30 16981.30 1524.45 o
5 4 -1 16201.30 16249.70 872.22 o
-5 4 1 16201.50 17599.00 1704.57 o
-5 4 0 86682.50 86856.90 2751.49 o
-5 -4 0 86682.40 87385.80 2505.09 o
5 -4 0 86682.50 89140.50 3772.01 o
-5 -4 0 86682.40 93643.10 3690.27 o
5 4 0 86682.40 93059.00 3349.72 o
-5 4 0 86682.50 94717.80 3234.65 o
5 -4 0 86682.50 90366.40 2914.77 o
-5 -4 0 86682.40 90145.70 2325.45 o
-5 4 0 86682.50 88233.80 2742.82 o
5 4 0 86682.40 99332.00 3300.62 o
-5 4 0 86682.50 104070.00 2623.24 o
-5 4 0 86682.50 82655.30 3649.24 o
5 4 0 86682.40 94897.70 2732.74 o
-5 -4 0 86682.40 92594.90 1896.92 o
-5 -4 0 86682.40 93800.30 2479.97 o
-5 4 0 86682.50 87954.30 3377.31 o
-5 -4 0 86682.40 98905.00 2675.88 o
-5 4 0 86682.50 89611.90 3452.21 o
5 4 0 86682.40 84802.30 2232.15 o
-5 -4 0 86682.40 98170.90 3036.02 o
5 -4 1 37729.90 39217.30 2672.65 o
-5 -4 -1 37729.90 33803.10 1992.00 o
-5 -4 -1 37729.90 39848.20 2807.39 o
5 4 1 37729.90 39189.70 2243.23 o
5 -4 1 37729.90 33901.50 1910.57 o
5 4 1 37729.90 40796.90 2547.88 o
5 -4 1 37729.90 38679.90 2053.21 o
-5 -4 -1 37729.90 39946.50 1476.97 o
-5 4 -1 37729.90 38464.00 1856.76 o
5 4 1 37729.90 35679.00 2658.93 o
-5 4 -1 37729.90 37112.30 2633.42 o
5 4 1 37729.90 39971.70 2224.33 o
-5 -4 -1 37729.90 43228.10 1872.60 o
-5 -4 -1 37729.90 38883.80 1165.22 o
5 4 1 37729.90 36433.40 1539.69 o
-5 4 -1 37729.90 39352.80 2428.52 o
5 -4 2 9109.95 9691.28 1448.17 o
5 4 2 9110.03 8632.19 1187.55 o
-5 4 -2 9109.95 8171.62 727.22 o
5 -4 2 9109.95 9126.35 1075.54 o
-5 -4 -2 9110.03 7550.32 1457.77 o
-5 -4 -2 9110.03 8392.31 740.02 o
-5 4 -2 9109.95 8449.88 970.20 o
5 4 2 9110.03 9134.75 1254.16 o
5 4 2 9110.03 10149.50 1412.49 o
5 -4 2 9109.95 10079.90 1285.01 o
-5 -4 -2 9110.03 9732.06 1113.55 o
-5 4 -2 9109.95 9115.56 1319.26 o
5 4 3 532.71 722.05 427.49 <
5 -4 3 532.71 115.14 292.33 <
5 -4 3 532.71 188.31 564.17 <
-5 4 -3 532.71 311.85 347.22 <
-5 -4 -3 532.71 213.50 644.47 <
5 -4 3 532.71 1892.68 840.01 <
5 -4 3 532.71 580.52 548.02 <
5 -4 3 532.71 1210.21 525.91 <
-5 4 -3 532.71 829.99 774.15 <
5 4 3 532.71 744.84 573.92 <
-5 -4 -3 532.71 406.60 244.04 <
5 4 3 532.71 1342.15 717.95 <
5 4 3 532.71 359.83 577.22 <
5 -4 4 29358.80 26739.80 2892.46 o
-5 4 -4 29358.80 26495.10 2494.82 o
5 4 4 29358.80 26645.00 2444.58 o
-5 -4 -4 29358.80 30363.20 2979.14 o
-5 4 -4 29358.80 24464.50 1836.47 o
5 4 4 29358.80 32090.40 2501.93 o
5 -4 4 29358.80 28995.90 1772.71 o
5 4 4 29358.80 31044.50 2561.02 o
5 -4 4 29358.80 31446.30 2405.18 o
5 4 4 29358.80 27227.90 2001.37 o
5 -4 4 29358.80 28829.10 1455.26 o
5 4 5 5888.09 5983.88 1078.21 o
-5 4 -5 5888.11 5959.89 976.48 o
-5 -4 -5 5888.09 3307.99 1344.69 <
5 -4 5 5888.11 4810.85 1387.79 o
-5 -4 -5 5888.09 5463.34 1107.43 o
5 4 5 5888.09 4814.45 1187.90 o
5 4 5 5888.09 6035.46 1252.90 o
-5 4 -5 5888.11 5750.00 1354.36 o
5 4 5 5888.09 5420.16 1284.66 o
5 4 6 41608.90 53303.20 2666.35 o
5 4 6 41608.90 34678.70 3389.11 o
-5 -4 -6 41608.90 32421.40 4124.75 o
-5 -4 -6 41608.90 48482.80 2979.60 o
5 4 6 41608.90 44974.50 2999.01 o
5 -4 6 41608.90 33172.20 3888.71 o
5 -5 -10 2973.49 26.39 710.57 <
5 -5 -10 2973.49 2104.97 812.18 <
5 -5 -9 26980.20 22006.90 2665.32 o
5 -5 -9 26980.20 27223.10 2299.60 o
5 5 -9 26980.20 23664.50 2010.05 o
5 -5 -9 26980.20 25829.40 2433.56 o
-5 -5 9 26980.20 25948.20 2454.30 o
-5 5 9 26980.20 33487.70 2833.26 o
-5 5 8 32090.10 33586.00 2910.02 o
5 -5 -8 32090.10 32760.80 2911.04 o
5 5 -8 32090.10 38063.40 2621.04 o
5 -5 -8 32090.10 29246.50 2298.40 o
5 5 -8 32090.10 30321.20 2138.46 o
5 -5 -8 32090.10 30934.10 2448.97 o
-5 -5 8 32090.10 31562.60 2485.81 o
-5 5 7 47907.60 50707.70 3204.04 o
5 -5 -7 47907.60 45274.30 3380.99 o
-5 5 7 47907.60 45521.40 3485.68 o
5 5 -7 47907.70 51221.00 2702.57 o
5 -5 -7 47907.60 36289.50 2664.52 o
5 -5 -7 47907.60 46441.40 2830.80 o
5 5 -7 47907.70 39334.80 2137.28 o
5 5 -7 47907.70 46788.00 2522.74 o
-5 -5 7 47907.70 51296.60 2596.40 o
-5 5 6 7871.76 7075.35 1290.69 o
5 -5 -6 7871.76 6809.08 1326.01 o
5 5 -6 7871.73 8591.41 1085.46 o
5 -5 -6 7871.76 6696.34 976.63 o
-5 5 6 7871.76 6972.20 1351.41 o
5 5 -6 7871.73 7113.73 933.22 o
5 -5 -6 7871.76 7931.73 1108.43 o
5 5 -6 7871.73 6743.11 798.16 o
-5 -5 6 7871.73 7353.61 1031.02 o
5 5 -5 1393.79 1536.45 472.69 o
-5 -5 5 1393.79 1554.44 517.03 o
5 5 -5 1393.79 1668.39 662.91 <
-5 5 5 1393.80 876.77 542.14 <
5 5 -5 1393.79 2019.82 586.69 o
-5 5 5 1393.80 1020.70 489.06 <
5 -5 -5 1393.80 1621.61 479.20 o
-5 -5 5 1393.79 1544.85 521.91 <
5 -5 -5 1393.80 1825.51 730.46 <
5 5 -5 1393.79 680.07 386.70 <
-5 5 5 1393.80 768.83 641.58 <
5 5 -5 1393.79 1495.67 558.29 <
5 -5 -5 1393.80 1433.30 540.69 <
-5 5 4 39771.10 34210.90 2226.08 o
-5 -5 4 39771.10 41497.40 2161.03 o
-5 5 4 39771.10 30144.90 2316.90 o
5 5 -4 39771.10 40122.80 1863.85 o
5 -5 -4 39771.10 40043.70 1351.73 o
-5 -5 4 39771.10 40635.00 1857.78 o
5 -5 -4 39771.10 42652.40 2560.89 o
-5 5 4 39771.10 41192.70 2866.52 o
5 5 -4 39771.10 42472.50 2197.88 o
-5 5 4 39771.10 43078.20 2809.18 o
-5 5 4 39771.10 33897.90 1479.55 o
5 5 -4 39771.10 39368.40 1898.50 o
5 5 -4 39771.10 37377.40 2300.71 o
5 -5 -4 39771.10 42209.80 2191.37 o
-5 -5 4 39771.10 39889.00 1761.55 o
5 5 -4 39771.10 39486.00 2015.31 o
-5 5 3 106300.00 115181.00 3784.04 o
5 5 -3 106300.00 110385.00 2619.34 o
-5 -5 3 106300.00 127103.00 7603.39 o
-5 -5 3 106300.00 115086.00 3540.06 o
-5 5 3 106300.00 89440.40 3471.80 o
-5 5 3 106300.00 111678.00 4083.81 o
-5 -5 3 106300.00 116553.00 3708.85 o
-5 -5 3 106300.00 117751.00 2827.33 o
5 -5 -3 106300.00 108254.00 3460.13 o
-5 5 3 106300.00 117306.00 2968.28 o
5 -5 -3 106300.00 113243.00 3588.16 o
5 5 -3 106300.00 117005.00 3201.29 o
-5 5 3 106300.00 121786.00 3736.15 o
-5 5 3 106300.00 120847.00 7231.29 o
5 5 -3 106300.00 111402.00 2806.93 o
-5 5 3 106300.00 117880.00 2834.94 o
5 5 -3 106300.00 106058.00 3467.33 o
5 -5 -3 106300.00 109020.00 3351.98 o
-5 -5 3 106300.00 102193.00 3771.47 o
-5 -5 3 106300.00 104637.00 2808.03 o
-5 5 3 106300.00 108565.00 2423.48 o
-5 5 2 90024.00 96626.10 3553.38 o
5 5 -2 90023.90 94751.40 2325.95 o
-5 -5 2 90023.90 102970.00 2860.13 o
-5 -5 2 90023.90 99490.30 1989.32 o
-5 -5 2 90023.90 96672.90 3543.58 o
5 -5 -2 90024.00 94204.50 3034.43 o
-5 5 2 90024.00 99297.20 2125.04 o
-5 5 2 90024.00 97045.90 2860.67 o
-5 -5 2 90023.90 97417.70 2985.46 o
5 5 -2 90023.90 93851.80 3524.18 o
-5 5 2 90024.00 114881.00 2551.55 o
5 5 -2 90023.90 94928.90 2819.90 o
5 -5 -2 90024.00 91630.50 3449.92 o
-5 5 2 90024.00 90920.50 3694.57 o
-5 5 2 90024.00 98728.70 2772.96 o
5 5 -2 90023.90 95088.40 2769.93 o
-5 -5 2 90023.90 94857.00 2681.66 o
-5 -5 2 90023.90 92260.20 2230.52 o
-5 5 2 90024.00 78663.70 2441.43 o
-5 -5 1 50254.20 56005.50 2437.08 o
-5 -5 1 50254.20 53077.70 2245.45 o
-5 5 1 50254.10 54410.30 2495.01 o
-5 -5 1 50254.20 53444.70 1845.10 o
5 -5 -1 50254.10 55147.90 2791.37 o
-5 -5 1 50254.20 55022.00 2859.32 o
5 -5 -1 50254.10 54109.20 2297.05 o
-5 5 1 50254.10 54836.10 2145.92 o
-5 5 1 50254.10 48763.40 2499.16 o
-5 5 1 50254.10 53906.50 2737.58 o
5 5 -1 50254.20 51198.20 2465.25 o
-5 5 1 50254.10 53281.60 2390.00 o
-5 5 1 50254.10 56486.50 2617.85 o
5 5 -1 50254.20 55059.20 2148.00 o
-5 -5 1 50254.20 52981.80 2603.26 o
5 5 -1 50254.20 51504.10 1603.07 o
-5 5 1 50254.10 54168.00 2895.41 o
5 5 0 59.65 398.21 275.02 <
-5 -5 0 59.65 220.69 437.64 <
-5 -5 0 59.65 29.99 231.50 <
-5 -5 0 59.65 212.30 279.25 <
-5 -5 0 59.65 407.80 421.62 <
-5 5 0 59.65 448.58 511.57 <
-5 5 0 59.65 274.67 343.93 <
-5 -5 0 59.65 -85.16 502.54 <
-5 -5 0 59.65 462.97 296.38 <
5 -5 0 59.65 118.74 359.79 <
-5 5 0 59.65 317.85 312.59 <
5 5 0 59.65 820.40 546.24 <
5 -5 0 59.65 79.16 483.36 <
-5 -5 0 59.65 229.09 338.03 <
-5 5 0 59.65 -82.76 382.59 <
-5 5 0 59.65 -217.09 459.20 <
5 5 0 59.65 1164.63 663.70 <
5 -5 1 17650.50 18612.50 1900.57 o
-5 -5 -1 17650.50 16753.40 1316.36 o
-5 -5 -1 17650.50 17998.40 2046.11 o
5 5 1 17650.50 17666.20 1520.42 o
5 -5 1 17650.50 14688.00 1163.94 o
5 5 1 17650.50 19988.30 1871.95 o
-5 -5 -1 17650.50 17787.30 1071.65 o
5 -5 1 17650.50 18779.20 1476.68 o
-5 5 -1 17650.50 17776.50 1358.59 o
5 -5 1 17650.50 20826.60 1788.74 o
-5 -5 -1 17650.50 19131.90 1373.90 o
-5 5 -1 17650.50 17401.10 1747.55 o
5 5 1 17650.50 20547.20 1643.94 o
5 -5 2 73017.60 69689.60 3997.76 o
-5 -5 -2 73017.50 69592.50 3038.05 o
5 5 2 73017.50 69302.20 3353.58 o
-5 -5 -2 73017.50 71857.00 4326.28 o
-5 5 -2 73017.60 69720.80 2197.99 o
5 -5 2 73017.60 63882.10 3257.50 o
-5 -5 -2 73017.50 71834.20 2066.42 o
5 5 2 73017.50 75330.50 3197.87 o
5 -5 2 73017.60 83437.30 3291.40 o
-5 -5 -2 73017.50 73272.30 2861.80 o
-5 5 -2 73017.60 70991.00 3709.04 o
-5 5 -3 56455.80 54884.00 3307.04 o
5 -5 3 56455.80 53422.00 3778.99 o
5 -5 3 56455.80 61891.00 3206.58 o
5 5 3 56455.70 50242.30 3168.76 o
-5 -5 -3 56455.70 51537.70 4020.20 o
-5 5 -3 56455.80 51384.20 2297.86 o
5 -5 3 56455.80 52260.90 3198.54 o
5 -5 3 56455.80 48437.20 2791.21 o
5 5 3 56455.70 56923.10 3142.66 o
-5 -5 -3 56455.70 55325.40 2776.44 o
5 5 3 56455.70 50337.10 2648.43 o
5 -5 3 56455.80 47192.20 2077.90 o
5 -5 4 28689.30 25771.80 2906.57 o
-5 5 -4 28689.30 26729.00 2576.47 o
5 5 4 28689.30 25526.00 2340.38 o
-5 -5 -4 28689.30 29269.30 3028.38 o
-5 5 -4 28689.30 24932.20 1785.53 o
5 -5 4 28689.30 27635.70 1860.35 o
5 5 4 28689.30 29799.50 2521.45 o
5 5 4 28689.30 34880.20 2578.42 o
5 -5 4 28689.30 28049.50 1394.02 o
5 5 5 1153.17 843.19 580.53 <
-5 5 -5 1153.18 484.56 502.42 <
-5 -5 -5 1153.17 1505.27 1106.00 <
5 -5 5 1153.18 1626.41 1131.97 <
-5 -5 -5 1153.17 1598.82 775.22 <
5 5 5 1153.17 1688.78 827.65 <
5 -5 5 1153.18 1373.33 531.25 <
5 5 5 1153.17 1952.65 847.78 <
-5 5 -5 1153.18 1837.50 901.43 <
5 5 5 1153.17 548.13 769.04 <
5 5 6 1527.36 3817.74 1049.20 o
-5 -5 -6 1527.36 1205.41 1101.98 <
5 -5 6 1527.37 2761.05 1265.90 <
-5 -5 -6 1527.36 3266.01 1090.83 <
5 5 6 1527.36 3094.49 1133.34 <
5 5 6 1527.36 3244.42 1107.96 <
5 -6 -10 15333.70 7080.15 1751.00 o
5 -6 -10 15333.70 18787.60 1983.41 o
5 -6 -10 15333.70 13353.10 1886.35 o
5 -6 -9 2595.54 1279.78 696.30 <
5 -6 -9 2595.54 3904.10 1047.54 o
-5 -6 9 2595.54 1817.11 865.67 <
-5 6 9 2595.54 5263.03 1395.39 o
5 6 -9 2595.54 4188.36 1227.66 o
5 -6 -9 2595.54 4723.30 1172.47 o
5 -6 -8 129.94 -749.64 721.87 <
-5 -6 8 129.94 377.82 527.41 <
5 6 -8 129.94 -409.00 355.42 <
-5 6 8 129.94 1838.70 1003.54 <
5 6 -8 129.94 1062.68 770.24 <
5 -6 -8 129.94 430.59 664.12 <
5 -6 -8 129.94 351.43 592.26 <
5 6 -7 4292.21 4160.77 704.74 o
-5 -6 7 4292.21 4827.65 958.11 o
5 -6 -7 4292.17 4960.78 1208.73 o
-5 6 7 4292.17 4623.75 1252.92 o
5 6 -7 4292.21 6709.53 1102.82 o
5 -6 -7 4292.17 3022.53 763.51 o
-5 6 7 4292.17 7505.94 1509.93 o
5 -6 -7 4292.17 4119.99 927.81 o
-5 6 6 60288.10 62942.90 3397.43 o
5 -6 -6 60288.10 59972.00 3677.83 o
-5 6 6 60288.10 54357.50 3525.30 o
5 6 -6 60288.10 64241.90 2655.33 o
5 -6 -6 60288.10 46182.30 2941.94 o
5 -6 -6 60288.10 58866.10 2949.28 o
5 6 -6 60288.10 58206.40 2440.96 o
5 6 -6 60288.10 46237.50 2987.81 o
-5 -6 6 60288.10 63143.20 2604.68 o
5 6 -5 19748.00 20267.70 1673.87 o
-5 6 5 19748.00 17495.90 1817.05 o
-5 6 5 19748.00 16078.20 1689.18 o
5 6 -5 19748.00 20892.60 1475.97 o
5 -6 -5 19748.00 17855.70 1302.72 o
-5 -6 5 19748.00 20531.60 1535.82 o
5 -6 -5 19748.00 21626.70 2036.20 o
-5 6 5 19748.00 19089.90 2225.47 o
5 6 -5 19748.00 20133.40 1561.83 o
5 6 -5 19748.00 19598.40 1744.40 o
5 6 -5 19748.00 19448.50 1401.38 o
5 -6 -5 19748.00 20385.30 1623.10 o
-5 -6 5 19748.00 18342.70 1458.29 o
-5 6 4 61112.90 52150.60 3049.08 o
-5 -6 4 61112.80 62571.10 2629.30 o
-5 6 4 61112.90 50499.00 2788.95 o
5 6 -4 61112.80 61516.80 2411.46 o
5 -6 -4 61112.90 58599.80 1877.38 o
-5 -6 4 61112.80 62633.50 2358.55 o
5 -6 -4 61112.90 60274.20 3307.86 o
-5 6 4 61112.90 54157.20 2067.81 o
5 -6 -4 61112.90 64749.20 2698.37 o
5 6 -4 61112.80 68012.80 2540.02 o
5 6 -4 61112.80 67567.90 2607.62 o
5 6 -4 61112.80 63575.00 2332.48 o
-5 6 4 61112.90 64803.20 3558.53 o
-5 -6 4 61112.80 58740.20 2358.90 o
5 6 -4 61112.80 60413.30 2595.48 o
5 6 -3 2615.53 2858.21 618.69 o
-5 -6 3 2615.53 2542.76 484.29 o
5 6 -3 2615.53 2841.41 582.75 o
-5 6 3 2615.55 2371.24 540.01 o
-5 -6 3 2615.53 1691.18 582.19 <
-5 6 3 2615.55 3317.58 851.50 o
-5 -6 3 2615.53 8072.06 991.68 o
5 -6 -3 2615.55 2892.99 729.09 o
5 6 -3 2615.53 3126.88 569.38 o
-5 6 3 2615.55 1842.30 349.57 o
5 -6 -3 2615.55 2276.49 562.40 o
-5 6 3 2615.55 1644.40 273.96 o
-5 6 3 2615.55 2933.77 768.42 o
-5 -6 3 2615.53 3418.33 931.45 o
-5 6 3 2615.55 3523.88 609.89 o
5 6 -3 2615.53 2653.11 815.31 o
5 6 -3 2615.53 2867.80 602.92 o
-5 6 3 2615.55 2396.43 612.63 o
-5 -6 3 2615.53 2709.48 657.56 o
-5 -6 3 2615.53 3147.27 818.18 o
5 6 -2 79.38 -40.78 416.20 <
-5 6 2 79.38 160.72 147.35 <
-5 -6 2 79.38 119.94 280.63 <
-5 -6 2 79.38 46.78 370.63 <
5 -6 -2 79.38 231.49 484.43 <
-5 6 2 79.38 570.92 271.70 <
-5 6 2 79.38 298.65 451.92 <
5 6 -2 79.38 107.95 331.02 <
-5 -6 2 79.38 397.01 388.04 <
-5 6 2 79.38 -152.33 388.52 <
5 -6 -2 79.38 -191.91 398.05 <
-5 -6 2 79.38 320.24 490.28 <
-5 6 2 79.38 492.96 545.09 <
-5 -6 2 79.38 88.76 357.42 <
-5 6 2 79.38 80.36 301.05 <
5 6 -2 79.38 166.72 339.35 <
-5 6 2 79.38 422.19 434.80 <
-5 -6 2 79.38 -63.57 369.41 <
-5 -6 1 76328.10 83953.10 2796.57 o
-5 6 1 76328.20 80474.80 3075.07 o
-5 -6 1 76328.10 73076.80 3495.64 o
-5 -6 1 76328.10 81298.80 2252.84 o
5 -6 -1 76328.20 79957.80 3490.94 o
-5 -6 1 76328.10 81657.40 3620.09 o
5 -6 -1 76328.20 80419.60 2840.41 o
-5 6 1 76328.20 78413.00 2777.96 o
-5 6 1 76328.20 64237.10 3591.08 o
5 6 -1 76328.10 78041.20 3008.41 o
5 6 -1 76328.10 81349.10 2596.76 o
-5 6 1 76328.20 72926.90 3636.55 o
-5 -6 1 76328.10 78639.70 2845.79 o
-5 -6 1 76328.10 79414.50 3198.50 o
5 -6 -1 76328.20 74736.80 3338.86 o
-5 -6 0 29897.20 29332.90 1570.51 o
5 -6 0 29897.20 31108.00 2374.74 o
-5 -6 0 29897.20 30651.10 1632.64 o
-5 6 0 29897.20 31081.60 2098.59 o
-5 -6 0 29897.20 31431.90 2509.78 o
-5 -6 0 29897.20 29660.30 1578.38 o
5 -6 0 29897.20 32554.50 1912.16 o
-5 6 0 29897.20 28727.20 1817.10 o
-5 -6 0 29897.20 29305.30 1314.45 o
-5 6 0 29897.20 28072.30 2203.52 o
5 6 0 29897.20 31482.30 2048.27 o
-5 -6 0 29897.20 31063.70 1671.76 o
-5 -6 0 29897.20 33261.00 2005.93 o
-5 6 0 29897.20 29199.80 2298.03 o
-5 -6 0 29897.20 31515.80 2072.90 o
5 -6 1 36338.50 35502.70 2720.40 o
-5 -6 -1 36338.50 37017.60 1902.19 o
-5 -6 -1 36338.50 39641.90 2945.75 o
5 -6 1 36338.50 28484.90 1738.52 o
5 6 1 36338.50 36233.10 2115.31 o
-5 -6 -1 36338.50 35622.60 1578.38 o
5 -6 1 36338.50 37563.30 2129.86 o
-5 6 -1 36338.50 36191.20 1973.54 o
5 -6 1 36338.50 44890.50 2543.83 o
5 6 1 36338.50 40919.30 2233.04 o
-5 -6 -1 36338.50 40862.90 1806.61 o
-5 6 -1 36338.50 36891.60 2618.97 o
5 -6 2 11081.30 11022.60 1629.76 o
-5 -6 -2 11081.40 11994.20 1227.91 o
-5 6 -2 11081.30 8358.73 680.95 o
-5 -6 -2 11081.40 11601.90 1827.31 o
5 6 2 11081.40 10497.30 1248.66 o
5 -6 2 11081.30 9580.93 1123.07 o
5 -6 2 11081.30 10310.20 1240.47 o
-5 -6 -2 11081.40 11623.50 783.63 o
5 -6 2 11081.30 13709.30 1648.79 o
5 6 2 11081.40 14270.60 1504.27 o
-5 -6 -2 11081.40 12698.20 1164.37 o
5 6 2 11081.40 10961.50 1040.54 o
-5 6 -2 11081.30 11790.30 1622.73 o
5 6 3 2568.20 2248.90 649.27 o
5 -6 3 2568.19 1927.46 440.53 o
-5 -6 -3 2568.20 2695.09 1137.54 <
5 -6 3 2568.19 3535.88 1130.46 o
5 -6 3 2568.19 2248.90 802.26 <
-5 6 -3 2568.19 2419.22 904.14 <
5 -6 3 2568.19 2341.26 683.20 o
5 6 3 2568.20 1633.60 591.54 <
-5 -6 -3 2568.20 2088.18 630.22 o
5 6 3 2568.20 2986.54 825.34 o
5 -6 4 1040.19 1198.22 398.32 o
-5 6 -4 1040.19 1131.05 722.91 <
-5 -6 -4 1040.19 2791.04 1233.90 <
5 -6 4 1040.19 1572.43 1016.55 <
5 -6 4 1040.19 1535.25 615.06 <
5 6 4 1040.19 1492.07 687.55 <
-5 6 -4 1040.19 1767.94 853.27 <
5 6 4 1040.19 1234.20 748.91 <
5 6 5 28470.80 25879.80 2443.86 o
-5 6 -5 28470.70 23891.20 2787.58 o
-5 -6 -5 28470.80 30598.30 3329.63 o
5 -6 5 28470.70 28553.30 1908.91 o
5 6 5 28470.80 26972.50 2739.78 o
5 6 5 28470.80 33570.40 2647.59 o
5 -6 5 28470.70 25277.70 3181.38 o
5 6 6 2912.95 1146.64 699.07 <
-5 -6 -6 2912.95 3100.49 1037.38 <
5 6 6 2912.95 3665.41 1013.44 o
5 -7 -10 6025.53 6717.92 1411.29 o
5 -7 -10 6025.53 5376.98 1250.77 o
5 -7 -9 1917.07 305.85 728.93 <
-5 -7 9 1917.09 1505.27 775.72 <
-5 7 9 1917.07 2103.77 1127.84 <
5 7 -9 1917.09 3764.96 1089.52 o
5 -7 -9 1917.07 3527.48 1016.59 o
5 -7 -9 1917.07 2095.38 812.13 <
-5 7 8 18492.00 22041.70 2391.62 o
5 -7 -8 18492.00 17310.00 2267.56 o
5 7 -8 18492.00 23231.50 2060.70 o
5 -7 -8 18492.00 20068.60 1858.09 o
5 -7 -8 18492.00 18108.80 1853.77 o
-5 -7 8 18492.00 20723.50 2003.07 o
5 7 -7 3012.10 2018.62 577.11 o
-5 -7 7 3012.10 3319.98 823.52 o
5 -7 -7 3012.09 2454.00 858.11 <
-5 7 7 3012.09 3421.93 1059.64 o
5 7 -7 3012.10 3920.89 939.17 o
5 -7 -7 3012.09 1847.10 628.92 <
5 -7 -7 3012.09 3166.46 845.42 o
-5 7 6 11908.20 14316.20 1804.32 o
5 -7 -6 11908.20 12169.30 1764.85 o
5 7 -6 11908.20 12867.30 1332.64 o
5 -7 -6 11908.20 8430.69 1096.32 o
-5 7 6 11908.20 8278.36 1424.21 o
-5 7 6 11908.20 12481.10 1964.45 o
5 7 -6 11908.20 12074.50 1207.44 o
5 -7 -6 11908.20 12283.20 1346.03 o
5 7 -6 11908.20 13058.00 1215.35 o
-5 -7 6 11908.20 13257.10 1312.12 o
-5 -7 5 5934.84 5849.55 817.08 o
-5 7 5 5934.85 5769.19 1143.87 o
-5 7 5 5934.85 5366.18 1255.84 o
5 7 -5 5934.84 7088.54 895.87 o
5 -7 -5 5934.85 5532.90 1178.87 o
5 -7 -5 5934.85 4639.34 711.00 o
-5 7 5 5934.85 4140.38 869.39 o
5 7 -5 5934.84 6174.59 884.81 o
5 7 -5 5934.84 7204.89 913.18 o
5 -7 -5 5934.85 6620.77 980.04 o
5 7 -4 128.22 145.13 373.00 <
-5 -7 4 128.22 20.39 293.91 <
5 7 -4 128.22 -416.20 467.13 <
-5 7 4 128.22 -374.22 497.28 <
-5 7 4 128.22 153.52 482.15 <
-5 -7 4 128.22 393.41 412.13 <
5 7 -4 128.22 358.62 330.57 <
-5 -7 4 128.22 -189.51 363.28 <
5 -7 -4 128.22 57.57 243.54 <
-5 7 4 128.22 279.46 318.78 <
5 -7 -4 128.22 280.66 406.39 <
5 -7 -4 128.22 376.62 419.38 <
5 7 -4 128.22 -188.31 420.87 <
5 7 -4 128.22 170.32 378.97 <
5 -7 -4 128.22 334.64 313.83 <
-5 -7 4 128.22 -178.71 828.74 <
-5 7 4 128.22 857.58 361.66 <
-5 -7 3 2128.94 2443.21 610.02 o
5 7 -3 2128.94 1899.87 544.14 o
-5 -7 3 2128.94 2253.70 475.98 o
5 7 -3 2128.94 2403.63 494.69 o
5 -7 -3 2128.90 2290.88 672.78 o
-5 7 3 2128.90 1391.32 397.17 o
-5 7 3 2128.90 1851.90 697.52 <
5 -7 -3 2128.90 1294.17 198.84 o
5 7 -3 2128.94 2348.46 529.08 o
5 -7 -3 2128.90 1837.50 171.21 o
-5 -7 3 2128.94 -261.47 700.68 <
5 -7 -3 2128.90 1837.50 530.30 o
-5 -7 3 2128.94 2487.59 740.89 o
-5 7 3 2128.90 2452.80 628.00 o
5 7 -3 2128.94 2288.48 595.87 o
-5 -7 3 2128.94 2396.43 1078.10 <
-5 7 3 2128.90 2138.56 568.44 o
-5 -7 3 2128.94 2337.66 708.45 o
-5 -7 2 18192.90 18137.60 1902.34 o
5 7 -2 18192.90 20092.60 1331.06 o
-5 -7 2 18192.90 19990.70 1612.51 o
-5 -7 2 18192.90 20583.20 1356.88 o
-5 -7 2 18192.90 20391.30 1918.52 o
5 -7 -2 18193.00 18862.00 1861.07 o
5 -7 -2 18193.00 18836.80 1534.61 o
5 -7 -2 18193.00 18870.40 1691.34 o
-5 7 2 18193.00 15927.00 1532.09 o
-5 -7 2 18192.90 18780.40 1573.86 o
-5 7 2 18193.00 20328.90 1544.63 o
5 7 -2 18192.90 19287.80 1497.61 o
-5 7 2 18193.00 19596.00 1842.45 o
5 7 -2 18192.90 19021.50 1408.27 o
-5 -7 2 18192.90 15317.70 1540.41 o
-5 -7 2 18192.90 18193.90 1240.16 o
-5 7 2 18193.00 15963.00 811.03 o
5 7 -2 18192.90 18563.30 1177.18 o
5 7 -1 3835.86 3978.46 749.04 o
5 7 -1 3835.86 4024.04 541.24 o
-5 7 1 3835.89 3328.38 805.32 o
-5 -7 1 3835.86 5018.35 738.06 o
-5 -7 1 3835.86 4741.29 798.82 o
5 -7 -1 3835.89 4752.08 816.91 o
-5 -7 1 3835.86 4382.66 1046.63 o
-5 -7 1 3835.86 4208.75 807.49 o
5 -7 -1 3835.89 3902.90 844.85 o
5 -7 -1 3835.89 4470.22 944.29 o
-5 -7 1 3835.86 5739.20 984.09 o
5 7 -1 3835.86 4118.79 720.66 o
-5 -7 1 3835.86 4442.63 924.09 o
-5 7 1 3835.89 3102.89 834.68 o
-5 -7 0 22113.30 20333.70 1190.66 o
5 -7 0 22113.40 23629.70 2119.61 o
-5 -7 0 22113.30 23328.60 1483.65 o
-5 -7 0 22113.30 24468.10 2283.38 o
5 -7 0 22113.40 24534.00 1712.02 o
-5 7 0 22113.40 23098.30 2080.46 o
5 7 0 22113.30 22736.10 1797.28 o
-5 7 0 22113.40 23484.60 2089.40 o
5 7 0 22113.30 23117.50 1263.43 o
5 -7 1 22278.80 23254.30 2222.48 o
-5 -7 -1 22278.80 23712.40 1577.73 o
-5 -7 -1 22278.80 24903.50 2459.17 o
5 -7 1 22278.80 15779.50 1159.04 o
-5 -7 -1 22278.80 22118.40 1264.95 o
5 -7 1 22278.80 22710.90 1780.03 o
5 -7 1 22278.80 29103.80 2232.78 o
5 7 1 22278.80 24982.60 1935.91 o
-5 -7 -1 22278.80 25185.30 1453.31 o
5 7 1 22278.80 22549.00 1383.23 o
-5 7 -1 22278.80 23407.80 2156.59 o
-5 7 -2 6028.11 5240.25 548.26 o
5 7 2 6028.09 5716.41 925.86 o
-5 -7 -2 6028.09 5644.45 586.06 o
-5 -7 -2 6028.09 6239.36 1489.97 o
-5 7 -2 6028.11 6009.07 1233.22 o
5 -7 2 6028.11 6407.28 1274.10 o
5 -7 2 6028.11 4413.85 738.89 o
5 -7 2 6028.11 5764.39 1002.81 o
5 7 2 6028.09 8128.44 1223.15 o
-5 -7 -2 6028.09 6016.27 840.99 o
5 7 2 6028.09 5189.87 794.79 o
-5 7 -3 19301.30 17766.90 2208.82 o
5 -7 3 19301.30 17268.00 2249.79 o
5 7 3 19301.30 18893.20 1710.50 o
-5 -7 -3 19301.30 18060.80 2608.31 o
5 -7 3 19301.30 16547.10 1677.51 o
5 7 3 19301.30 21065.30 1905.28 o
-5 -7 -3 19301.30 21009.00 1529.40 o
5 7 3 19301.30 18558.60 1619.65 o
5 -7 3 19301.30 17529.50 1005.73 o
5 -7 4 873.03 1087.87 411.33 <
-5 -7 -4 873.01 764.03 899.79 <
5 -7 4 873.03 346.63 628.34 <
5 -7 4 873.03 758.03 450.27 <
5 7 4 873.01 1476.48 637.60 <
-5 7 -4 873.03 1382.93 896.71 <
5 7 4 873.01 863.58 664.51 <
5 -7 5 3670.57 2637.51 1272.41 <
-5 -7 -5 3670.57 4537.39 1598.10 <
5 -7 5 3670.57 3583.85 817.72 o
-5 7 -5 3670.57 3178.45 1266.11 <
5 7 5 3670.57 2625.52 1092.32 <
5 7 6 197.42 -341.83 790.19 <
-5 -7 -6 197.42 285.46 711.18 <
5 7 6 197.42 1345.74 803.91 <
5 -8 -10 5.50 489.36 776.73 <
5 -8 -10 5.50 199.10 634.39 <
-5 -8 9 42.66 -710.05 667.92 <
-5 8 9 42.66 153.52 742.40 <
5 8 -9 42.66 532.54 763.46 <
5 -8 -9 42.66 784.42 755.57 <
5 -8 -9 42.66 -875.57 599.81 <
5 -8 -9 42.66 -1006.31 1047.75 <
5 -8 -8 178.91 220.69 636.86 <
-5 -8 8 178.91 379.02 612.66 <
-5 8 8 178.91 2358.05 1122.27 <
5 8 -8 178.91 1237.80 806.82 <
5 -8 -8 178.91 1661.19 736.83 <
5 -8 -8 178.91 720.85 591.32 <
-5 -8 7 2332.17 2535.56 781.68 o
5 8 -7 2332.17 2208.12 748.13 <
5 -8 -7 2332.19 1131.05 760.26 <
-5 8 7 2332.19 2286.09 1007.76 <
-5 8 7 2332.19 981.12 872.51 <
5 8 -7 2332.17 2729.87 804.13 o
5 -8 -7 2332.19 2406.03 755.07 o
5 8 -7 2332.17 1764.34 506.64 o
5 -8 -7 2332.19 1609.62 621.68 <
-5 -8 6 119.85 334.64 479.48 <
5 8 -6 119.85 654.88 473.68 <
-5 8 6 119.85 -430.59 629.18 <
5 -8 -6 119.85 -205.10 590.00 <
-5 8 6 119.85 -399.40 672.46 <
5 8 -6 119.85 483.36 521.14 <
5 -8 -6 119.85 -317.85 543.02 <
-5 8 6 119.85 -65.97 530.15 <
5 8 -6 119.85 -259.07 355.92 <
5 -8 -6 119.85 388.61 469.76 <
-5 8 5 16444.40 16709.10 1860.62 o
5 8 -5 16444.40 17198.40 1430.00 o
-5 8 5 16444.40 12963.30 1453.33 o
5 -8 -5 16444.40 17349.50 1938.43 o
-5 8 5 16444.40 11733.90 771.18 o
5 8 -5 16444.40 17890.50 1501.54 o
-5 8 5 16444.40 17343.50 2153.93 o
5 -8 -5 16444.40 17558.20 1556.38 o
5 8 -5 16444.40 17668.60 1476.10 o
-5 -8 5 16444.40 15978.60 1369.77 o
5 8 -4 2657.79 2546.36 669.11 o
-5 -8 4 2657.79 2467.20 553.83 o
5 8 -4 2657.79 2696.29 644.90 o
-5 8 4 2657.79 1886.68 723.95 <
-5 -8 4 2657.79 2244.11 611.98 o
5 8 -4 2657.79 2831.82 600.18 o
5 -8 -4 2657.79 2287.28 441.47 o
-5 8 4 2657.79 1785.93 410.14 o
5 -8 -4 2657.79 2542.76 785.33 o
5 -8 -4 2657.79 2264.50 645.20 o
-5 -8 4 2657.79 2618.32 892.64 <
5 8 -4 2657.79 3352.37 765.66 o
-5 -8 4 2657.79 3021.33 1086.74 <
5 8 -4 2657.79 2182.94 682.79 o
-5 8 4 2657.79 2613.53 483.94 o
5 -8 -3 8102.13 5486.13 467.00 o
5 8 -3 8102.07 9516.16 1000.06 o
5 -8 -3 8102.13 7432.78 458.26 o
-5 -8 3 8102.07 8434.29 1183.02 o
-5 -8 3 8102.07 9856.79 1424.13 o
5 -8 -3 8102.13 8609.40 1268.10 o
-5 -8 3 8102.07 8782.12 1060.39 o
5 -8 -3 8102.13 7689.45 1037.79 o
-5 8 3 8102.13 7543.12 990.45 o
-5 8 3 8102.13 8777.32 1353.53 o
5 8 -3 8102.07 7000.99 1004.30 o
-5 -8 3 8102.07 7881.36 1485.32 o
5 8 -3 8102.07 9690.08 1098.51 o
-5 8 3 8102.13 8176.41 663.49 o
-5 -8 3 8102.07 9138.35 916.79 o
5 8 -3 8102.07 9156.34 928.65 o
-5 -8 2 9624.33 10251.40 1388.88 o
-5 -8 2 9624.33 8069.67 1111.10 o
-5 -8 2 9624.33 10414.50 1197.84 o
-5 -8 2 9624.33 11810.60 1116.09 o
-5 -8 2 9624.33 11516.80 1494.12 o
5 -8 -2 9624.35 10364.10 1367.45 o
5 -8 -2 9624.35 10983.00 1203.60 o
5 -8 -2 9624.35 10522.50 1304.98 o
-5 8 2 9624.35 7140.12 1129.54 o
-5 -8 2 9624.33 10153.10 1183.97 o
5 8 -2 9624.33 10425.30 1118.52 o
5 8 -2 9624.33 10130.30 1050.03 o
-5 8 2 9624.35 12477.50 1563.52 o
-5 -8 2 9624.33 11062.20 1015.33 o
-5 8 2 9624.35 9780.03 608.15 o
5 8 -2 9624.33 11402.80 929.12 o
5 8 -1 231.87 -169.12 490.54 <
5 8 -1 231.87 58.77 277.24 <
-5 8 1 231.86 508.55 157.78 o
-5 -8 1 231.87 546.93 521.10 <
-5 8 1 231.86 164.32 520.60 <
-5 -8 1 231.87 879.17 524.58 <
5 -8 -1 231.86 161.92 440.26 <
-5 -8 1 231.87 377.82 309.08 <
5 -8 -1 231.86 861.18 516.24 <
-5 -8 1 231.87 185.91 531.38 <
-5 -8 1 231.87 594.91 492.12 <
5 -8 -1 231.86 19.19 455.88 <
5 8 -1 231.87 314.25 323.67 <
-5 8 1 231.86 -125.94 558.95 <
5 -8 0 13353.90 13824.50 1708.55 o
-5 -8 0 13353.80 14568.10 1243.41 o
-5 -8 0 13353.80 13041.20 1763.94 o
5 -8 0 13353.90 13415.50 1409.11 o
-5 8 0 13353.90 13152.80 1675.80 o
5 8 0 13353.80 13541.40 1443.50 o
-5 8 0 13353.90 13178.00 1637.02 o
5 8 0 13353.80 14601.70 1077.94 o
-5 -8 0 13353.80 11047.80 844.22 o
5 8 1 1171.32 1562.84 478.16 o
-5 -8 -1 1171.32 1003.91 483.05 <
-5 8 -1 1171.33 2110.97 870.93 <
-5 -8 -1 1171.32 1205.41 748.30 <
-5 -8 -1 1171.32 1015.90 334.63 o
5 -8 1 1171.33 711.25 493.70 <
5 -8 1 1171.33 1182.62 650.03 <
5 8 1 1171.32 365.82 553.95 <
5 8 2 522.89 208.70 415.57 <
-5 8 -2 522.90 567.32 281.65 <
-5 -8 -2 522.89 296.26 577.27 <
-5 8 -2 522.90 773.62 699.87 <
5 -8 2 522.90 17.99 489.82 <
5 -8 2 522.90 783.22 430.78 <
-5 -8 -2 522.89 646.48 316.08 <
5 -8 2 522.90 442.58 449.98 <
-5 -8 -2 522.89 501.36 349.11 <
5 8 2 522.89 1077.07 721.60 <
5 -8 3 842.93 915.15 322.16 <
-5 8 -3 842.93 585.32 427.96 <
-5 -8 -3 842.94 1264.18 988.37 <
5 -8 3 842.93 1315.76 794.76 <
-5 8 -3 842.93 409.00 674.93 <
5 -8 3 842.93 639.29 487.67 <
5 8 3 842.94 963.13 512.83 <
5 8 3 842.94 2115.77 782.64 <
-5 -8 -4 3903.38 2391.63 1253.40 <
5 -8 4 3903.43 2950.56 1202.05 <
5 -8 4 3903.43 3600.64 804.56 o
-5 8 -4 3903.43 3541.87 1227.20 <
5 8 4 3903.38 2751.46 739.86 o
5 8 4 3903.38 4614.15 1055.63 o
5 -8 5 158.10 815.60 1025.78 <
-5 -8 -5 158.10 1198.22 1091.92 <
5 -8 5 158.10 448.58 517.67 <
-5 8 -5 158.10 1420.11 1098.31 <
5 8 5 158.10 425.79 656.95 <
-5 -8 -6 3219.50 3971.26 2292.75 <
5 -9 -10 6064.34 8765.33 1472.23 o
-5 9 9 2525.32 3451.92 1268.28 <
-5 9 9 2525.32 206.30 882.97 <
5 9 -9 2525.30 3319.98 1021.01 o
5 -9 -9 2525.32 3814.14 1028.57 o
5 -9 -9 2525.32 1177.83 688.95 <
5 -9 -8 5315.52 4103.20 1237.64 o
-5 -9 8 5315.54 6917.03 1265.33 o
-5 9 8 5315.52 7269.66 1545.28 o
-5 9 8 5315.52 5116.71 1672.27 o
5 9 -8 5315.54 8016.89 1361.44 o
5 -9 -8 5315.52 6701.13 1217.27 o
5 9 -8 5315.54 5069.93 1060.75 o
5 -9 -8 5315.52 5299.02 1074.87 o
5 -9 -7 7.17 -743.64 813.18 <
-5 -9 7 7.17 -219.49 462.79 <
5 9 -7 7.17 489.36 613.48 <
-5 9 7 7.17 -623.70 674.23 <
-5 9 7 7.17 -939.14 1050.38 <
5 9 -7 7.17 387.41 565.70 <
5 -9 -7 7.17 147.53 558.87 <
5 9 -7 7.17 -1005.11 504.96 <
5 -9 -7 7.17 247.08 465.17 <
-5 -9 6 322.84 476.17 437.43 <
5 9 -6 322.84 171.52 518.30 <
5 -9 -6 322.84 536.14 589.71 <
-5 9 6 322.84 -195.51 609.33 <
-5 9 6 322.84 530.14 643.73 <
5 9 -6 322.84 858.78 522.47 <
5 -9 -6 322.84 289.06 461.83 <
5 9 -6 322.84 488.16 427.79 <
5 -9 -6 322.84 446.18 461.52 <
-5 -9 5 3982.14 4650.13 791.09 o
5 9 -5 3982.14 4265.12 853.07 o
-5 9 5 3982.13 3824.94 1061.66 o
5 -9 -5 3982.13 4374.27 1085.40 o
5 9 -5 3982.14 4134.38 798.14 o
5 -9 -5 3982.13 2317.27 632.51 o
-5 9 5 3982.13 2824.62 689.53 o
5 -9 -5 3982.13 3125.68 782.63 o
-5 9 5 3982.13 3606.64 469.00 o
5 9 -5 3982.14 4209.95 803.20 o
-5 9 5 3982.13 3968.87 452.46 o
5 -9 -5 3982.13 4568.57 843.12 o
-5 -9 4 4775.90 4268.72 723.56 o
-5 9 4 4775.91 5091.52 1133.72 o
5 9 -4 4775.90 4534.99 780.65 o
-5 -9 4 4775.90 4878.02 775.69 o
5 -9 -4 4775.91 4013.24 602.03 o
5 -9 -4 4775.91 5528.10 1163.67 o
5 -9 -4 4775.91 4289.11 893.41 o
-5 -9 4 4775.90 4256.72 1288.86 o
-5 -9 4 4775.90 3983.26 1019.07 o
5 9 -4 4775.90 6548.81 989.41 o
5 9 -4 4775.90 3742.18 809.04 o
-5 9 4 4775.91 4014.44 687.90 o
-5 9 3 3500.06 3695.40 517.27 o
-5 -9 3 3500.03 3487.90 637.05 o
5 9 -3 3500.03 3908.89 771.24 o
5 9 -3 3500.03 4194.36 710.41 o
5 -9 -3 3500.06 2810.23 326.45 o
5 -9 -3 3500.06 3670.21 419.89 o
-5 9 3 3500.06 3836.93 1040.60 o
5 9 -3 3500.03 4496.61 749.66 o
-5 -9 3 3500.03 4000.05 770.07 o
5 -9 -3 3500.06 4184.76 854.81 o
-5 -9 3 3500.03 4226.74 1065.78 o
-5 -9 3 3500.03 3998.85 1059.56 o
5 9 -3 3500.03 3726.58 744.57 o
5 -9 -3 3500.06 4435.44 948.62 o
-5 9 3 3500.06 2390.43 673.09 o
-5 -9 3 3500.03 3148.47 792.70 o
-5 -9 2 10003.20 9898.77 1383.53 o
-5 -9 2 10003.20 8223.19 1216.39 o
-5 -9 2 10003.20 9946.75 1190.95 o
-5 -9 2 10003.20 11284.10 1138.07 o
-5 -9 2 10003.20 10610.00 1515.69 o
5 -9 -2 10003.30 10129.10 1404.75 o
5 -9 -2 10003.30 9917.97 1207.10 o
5 -9 -2 10003.30 10004.30 1352.92 o
-5 9 2 10003.30 6621.97 1183.06 o
5 9 -2 10003.20 9995.93 1216.35 o
-5 -9 2 10003.20 9854.40 1228.69 o
5 9 -2 10003.20 9986.33 1042.68 o
-5 9 2 10003.30 10511.70 1512.54 o
-5 -9 2 10003.20 10662.80 1065.27 o
-5 9 2 10003.30 9276.28 677.46 o
5 9 -2 10003.20 10763.60 967.49 o
5 9 -1 1761.15 1595.22 568.48 <
5 9 -1 1761.15 2064.19 485.23 o
-5 9 1 1761.21 1723.56 286.01 o
-5 9 1 1761.21 1181.42 598.12 <
-5 -9 1 1761.15 2325.67 603.32 o
-5 -9 1 1761.15 1938.26 547.88 o
5 -9 -1 1761.21 1824.31 612.46 <
-5 -9 1 1761.15 2319.67 838.59 <
-5 -9 1 1761.15 1297.77 450.98 <
5 -9 -1 1761.21 1736.75 698.21 <
5 9 -1 1761.15 1959.84 522.42 o
5 -9 -1 1761.21 2016.22 716.80 <
-5 9 1 1761.21 2334.06 826.44 <
5 9 0 3304.62 2776.65 764.14 o
5 9 0 3304.62 3565.86 638.28 o
-5 9 0 3304.60 3417.13 1012.60 o
-5 -9 0 3304.62 2259.70 424.69 o
-5 -9 0 3304.62 4119.99 1125.58 o
5 -9 0 3304.60 2660.30 768.63 o
5 -9 0 3304.60 2974.55 829.35 o
-5 9 0 3304.60 3084.90 352.58 o
5 9 1 2156.24 2224.92 571.49 o
-5 9 -1 2156.24 1991.03 820.19 <
-5 -9 -1 2156.24 2079.79 813.68 <
5 -9 1 2156.24 2246.50 767.00 <
5 -9 1 2156.24 2263.30 848.51 <
5 9 1 2156.24 1995.83 703.98 <
-5 9 -2 118.19 261.47 239.58 <
-5 -9 -2 118.18 -260.27 654.71 <
-5 9 -2 118.19 158.32 563.70 <
5 -9 2 118.19 -87.56 478.56 <
5 -9 2 118.19 570.92 406.68 <
5 -9 2 118.19 297.45 492.75 <
-5 -9 -2 118.18 -41.98 283.09 <
5 9 2 118.18 597.31 600.07 <
-5 -9 -3 9760.83 11189.30 2201.09 o
5 9 3 9760.83 7906.55 1063.01 o
5 -9 3 9760.84 8910.46 1684.36 o
-5 9 -3 9760.84 6937.42 1567.29 o
5 -9 3 9760.84 6883.44 1194.09 o
5 9 3 9760.83 11316.50 1559.99 o
5 -9 3 9760.84 9592.92 754.80 o
-5 -9 -4 3990.32 2300.48 1027.27 <
5 -9 4 3990.31 3953.27 1335.21 <
5 -9 4 3990.31 3467.51 861.70 o
-5 9 -4 3990.31 1211.41 810.60 <
5 9 4 3990.32 3198.84 997.33 o
-5 -9 -5 3324.51 5206.66 1829.83 <
5 -9 5 3324.53 3337.97 1322.87 <
5 -9 5 3324.53 3011.73 885.42 o
-5 9 -5 3324.53 2412.02 1223.48 <
5 9 5 3324.51 3106.49 1027.12 o
-5 10 9 766.05 1285.77 986.91 <
5 -10 -9 766.05 2786.24 982.75 <
5 -10 -9 766.05 1456.09 684.30 <
-5 -10 8 3523.21 4621.35 1043.59 o
5 10 -8 3523.21 5065.13 1057.67 o
-5 10 8 3523.17 2847.41 1102.00 <
-5 10 8 3523.17 737.64 890.57 <
5 10 -8 3523.21 3687.00 1078.15 o
5 -10 -8 3523.17 5240.25 1138.26 o
5 -10 -8 3523.17 3818.94 942.34 o
5 -10 -8 3523.17 1764.34 1076.73 <
5 -10 -7 498.57 936.74 738.91 <
-5 -10 7 498.56 326.24 572.40 <
5 10 -7 498.56 1898.67 818.14 <
-5 10 7 498.57 566.12 750.72 <
-5 10 7 498.57 407.80 688.60 <
5 10 -7 498.56 845.59 679.17 <
5 -10 -7 498.57 627.29 675.00 <
5 -10 -7 498.57 802.41 565.22 <
-5 10 6 14559.30 12963.30 1919.79 o
5 -10 -6 14559.30 14925.50 2045.85 o
5 10 -6 14559.30 16835.00 1588.87 o
5 -10 -6 14559.30 12988.50 1519.97 o
5 10 -6 14559.30 14387.00 1376.48 o
-5 10 6 14559.30 14589.70 2206.44 o
5 -10 -6 14559.30 15670.40 1556.03 o
5 10 -6 14559.30 15514.40 1634.01 o
-5 -10 6 14559.30 15903.00 1537.96 o
-5 -10 5 2908.93 3279.20 742.27 o
5 10 -5 2908.93 3088.49 775.54 o
-5 10 5 2908.93 3484.30 1053.58 o
5 -10 -5 2908.93 2232.11 807.37 <
5 10 -5 2908.93 3336.77 734.39 o
5 -10 -5 2908.93 2608.73 728.33 o
5 -10 -5 2908.93 2420.42 688.08 o
5 10 -5 2908.93 4307.10 833.87 o
-5 10 5 2908.93 3645.02 530.94 o
5 -10 -4 17254.70 13050.80 1036.89 o
5 10 -4 17254.60 17375.90 1505.52 o
-5 -10 4 17254.60 18276.70 1424.33 o
5 -10 -4 17254.70 12140.50 1214.20 o
5 -10 -4 17254.70 17613.40 1961.78 o
-5 -10 4 17254.60 18445.80 2113.08 o
5 -10 -4 17254.70 16351.60 1623.60 o
-5 10 4 17254.70 18226.30 2120.16 o
5 10 -4 17254.60 14600.50 1575.18 o
5 10 -4 17254.60 17473.10 1640.04 o
-5 10 4 17254.70 15629.60 1194.66 o
-5 -10 4 17254.60 16723.40 1397.23 o
-5 -10 3 15012.80 16333.60 1995.93 o
5 10 -3 15012.80 16193.30 1388.23 o
5 -10 -3 15012.60 13464.60 753.66 o
5 -10 -3 15012.60 13012.50 907.86 o
-5 -10 3 15012.80 13956.40 1546.89 o
-5 -10 3 15012.80 15534.80 1913.83 o
5 -10 -3 15012.60 14352.20 1686.93 o
5 -10 -3 15012.60 15468.90 1486.83 o
-5 -10 3 15012.80 14811.60 1390.50 o
5 10 -3 15012.80 14989.10 1390.74 o
-5 10 3 15012.60 16583.10 1909.21 o
5 10 -3 15012.80 16292.90 1552.14 o
-5 10 3 15012.60 13859.20 1004.38 o
-5 -10 3 15012.80 16296.50 1311.38 o
-5 -10 2 7861.51 7161.71 1162.18 o
-5 -10 2 7861.51 8603.41 1077.75 o
-5 10 2 7861.64 8334.74 1381.02 o
-5 -10 2 7861.51 8988.42 1444.85 o
5 -10 -2 7861.64 9490.97 1402.58 o
5 -10 -2 7861.64 9411.81 1148.16 o
5 -10 -2 7861.64 8242.38 1237.82 o
5 10 -2 7861.51 8118.84 1114.61 o
5 10 -2 7861.51 8284.36 953.30 o
-5 -10 2 7861.51 8012.09 1111.67 o
-5 -10 2 7861.51 9434.60 1019.41 o
-5 10 2 7861.64 8080.46 644.79 o
5 10 -2 7861.51 8009.70 912.05 o
-5 -10 1 11040.00 10084.70 1068.45 o
-5 -10 1 11040.00 11625.90 1155.60 o
5 -10 -1 11040.10 10812.70 1491.26 o
-5 -10 1 11040.00 12912.90 1790.12 o
5 -10 -1 11040.10 12856.50 1383.22 o
-5 10 1 11040.10 12878.10 1677.21 o
5 -10 -1 11040.10 11450.80 1395.35 o
5 10 -1 11040.00 11652.30 1329.55 o
5 10 -1 11040.00 11750.70 1119.64 o
-5 10 1 11040.10 12844.50 1707.17 o
5 10 -1 11040.00 12298.80 1064.26 o
-5 10 1 11040.10 11258.90 661.65 o
5 10 0 266.91 -75.56 579.40 <
5 10 0 266.91 164.32 368.35 <
-5 10 0 266.91 -87.56 226.88 <
-5 -10 0 266.91 417.40 268.17 <
-5 10 0 266.91 164.32 659.75 <
-5 -10 0 266.91 110.35 539.85 <
5 -10 0 266.91 200.30 523.01 <
5 -10 0 266.91 65.97 427.14 <
5 10 1 2936.17 2707.08 750.48 o
-5 10 -1 2936.20 3317.58 1053.92 o
-5 -10 -1 2936.17 2978.15 1081.60 <
5 -10 1 2936.20 2669.90 836.90 o
5 -10 1 2936.20 2641.11 908.90 <
-5 -10 -2 4453.81 3985.66 1314.51 o
-5 10 -2 4453.78 3988.06 1167.41 o
5 -10 2 4453.78 3629.43 1092.56 o
5 -10 2 4453.78 4399.46 984.11 o
5 10 2 4453.81 3144.87 904.88 o
-5 -10 -3 26.56 -688.46 742.49 <
5 -10 3 26.56 528.94 691.43 <
-5 10 -3 26.56 -339.43 755.36 <
5 -10 3 26.56 810.80 635.26 <
-5 -10 -4 5565.22 4922.40 1624.10 o
5 -10 4 5565.24 4852.83 1668.81 <
5 -10 4 5565.24 3591.05 954.48 o
-5 10 -4 5565.24 4048.03 1434.12 <
5 10 4 5565.22 6250.15 1337.16 o
5 -10 5 4771.32 5591.67 1148.35 o
-5 10 -5 4771.32 4611.75 1528.03 o
-5 11 9 1613.78 2711.88 2651.98 <
5 -11 -9 1613.78 2871.40 1096.73 <
-5 -11 8 4415.21 5430.95 1164.82 o
-5 11 8 4415.19 4297.50 1269.95 o
-5 11 8 4415.19 3016.53 1366.32 <
5 11 -8 4415.21 5469.33 1201.88 o
5 -11 -8 4415.19 5562.89 1185.04 o
5 -11 -8 4415.19 3111.28 886.97 o
5 -11 -8 4415.19 1644.40 986.59 <
5 -11 -7 7701.07 7375.21 1701.81 o
-5 11 7 7701.07 7162.91 1567.70 o
-5 11 7 7701.07 7221.68 1776.32 o
5 11 -7 7701.03 9287.07 1323.18 o
5 -11 -7 7701.07 7780.61 1270.22 o
5 -11 -7 7701.07 8716.15 1237.00 o
5 11 -7 7701.03 9386.62 1414.28 o
-5 -11 7 7701.03 9524.56 1333.59 o
-5 -11 6 906.78 1370.93 567.34 <
5 11 -6 906.78 1693.57 846.00 <
5 -11 -6 906.79 879.17 626.19 <
-5 11 6 906.79 277.07 617.69 <
5 11 -6 906.78 1174.23 602.15 <
5 -11 -6 906.79 933.15 705.17 <
5 11 -6 906.78 1342.15 613.26 <
5 -11 -6 906.79 665.67 455.53 <
-5 -11 5 3012.54 3090.89 736.86 o
5 11 -5 3012.54 3009.33 820.43 o
-5 11 5 3012.48 4338.29 1249.50 o
5 -11 -5 3012.48 3270.81 985.12 o
5 11 -5 3012.54 3507.09 781.76 o
5 -11 -5 3012.48 2708.28 734.44 o
5 -11 -5 3012.48 2633.92 733.87 o
-5 11 5 3012.48 4696.91 591.27 o
-5 11 4 310.39 405.40 358.39 <
-5 -11 4 310.38 -97.15 423.54 <
5 11 -4 310.38 818.00 629.64 <
-5 11 4 310.39 743.64 717.58 <
5 -11 -4 310.39 26.39 228.25 <
5 11 -4 310.38 299.85 410.22 <
-5 -11 4 310.38 243.48 379.13 <
5 -11 -4 310.39 585.32 489.90 <
5 -11 -4 310.39 111.55 503.92 <
5 -11 -4 310.39 68.37 422.40 <
-5 -11 4 310.38 250.68 582.98 <
5 11 -4 310.38 387.41 387.24 <
-5 11 3 473.78 608.10 329.29 <
-5 -11 3 473.79 -255.48 409.15 <
5 11 -3 473.79 470.17 575.73 <
-5 11 3 473.78 173.91 669.57 <
5 11 -3 473.79 155.92 385.53 <
5 -11 -3 473.78 671.67 237.48 <
5 -11 -3 473.78 205.10 312.46 <
-5 -11 3 473.79 909.16 512.99 <
5 -11 -3 473.78 797.61 590.41 <
-5 -11 3 473.79 -244.68 583.04 <
-5 -11 3 473.79 882.77 678.99 <
5 -11 -3 473.78 202.70 501.74 <
5 11 -3 473.79 351.43 354.15 <
-5 -11 3 473.79 779.62 517.19 <
5 -11 -2 888.55 804.81 555.63 <
-5 -11 2 888.55 937.94 502.34 <
5 11 -2 888.55 1180.22 552.76 <
-5 11 2 888.55 1364.93 382.62 o
5 -11 -2 888.55 1199.42 227.93 o
-5 11 2 888.55 699.26 651.81 <
5 -11 -2 888.55 961.93 621.03 <
-5 -11 2 888.55 608.10 483.14 <
5 -11 -2 888.55 1120.25 599.94 <
-5 -11 2 888.55 808.41 591.58 <
-5 -11 2 888.55 1045.89 512.62 <
-5 -11 2 888.55 987.12 590.93 <
5 11 -2 888.55 826.40 380.55 <
5 11 -1 5094.00 4742.49 954.24 o
-5 11 1 5094.02 4626.15 1151.31 o
5 -11 -1 5094.02 5067.53 1053.39 o
-5 -11 1 5094.00 4955.98 753.04 o
-5 -11 1 5094.00 4172.77 729.75 o
-5 -11 1 5094.00 6475.64 1317.50 o
5 -11 -1 5094.02 5251.04 976.72 o
5 11 -1 5094.00 5169.48 783.23 o
5 -11 -1 5094.02 5398.57 1126.42 o
-5 11 1 5094.02 5035.15 523.11 o
5 -11 0 10467.30 10376.10 1555.91 o
-5 -11 0 10467.20 13065.20 1939.00 o
5 -11 0 10467.30 10845.10 1465.06 o
5 11 0 10467.20 10746.80 1401.82 o
-5 11 0 10467.30 11401.60 1750.19 o
-5 11 0 10467.30 12004.90 721.88 o
5 11 1 3983.08 4957.18 1028.21 o
-5 11 -1 3983.02 3730.18 1067.25 o
-5 -11 -1 3983.08 3196.44 1167.84 <
5 -11 1 3983.02 4538.59 1002.94 o
5 -11 1 3983.02 4109.20 1074.73 o
5 -11 2 10643.20 10694.00 1722.80 o
-5 -11 -2 10643.10 12560.30 2154.02 o
5 -11 2 10643.20 9622.91 1430.07 o
-5 11 -2 10643.20 11400.40 1879.53 o
5 11 2 10643.10 9911.97 1455.19 o
-5 -11 -3 4189.90 5848.35 1565.02 o
5 -11 3 4189.82 4211.15 1210.03 o
-5 11 -3 4189.82 4612.95 1462.58 o
5 -11 3 4189.82 3570.66 966.56 o
5 11 3 4189.90 5446.54 1160.03 o
-5 -11 -4 1473.22 1111.86 937.88 <
5 -11 4 1473.24 1370.93 922.72 <
5 -11 4 1473.24 1680.38 777.39 <
-5 11 -4 1473.24 840.79 1012.68 <
5 11 4 1473.22 3902.90 1167.27 o
5 -11 5 3076.66 3785.35 1072.66 o
-5 11 -5 3076.66 3582.65 1458.05 <
5 -12 -9 197.76 2248.90 1052.99 <
-5 12 8 0.92 -1866.29 1082.09 <
-5 12 8 0.92 -736.44 899.68 <
5 -12 -8 0.92 1663.59 841.54 <
5 -12 -7 1585.14 1940.65 1062.42 <
-5 -12 7 1585.16 1476.48 692.63 <
5 12 -7 1585.16 4278.31 1155.47 o
-5 12 7 1585.14 738.84 819.34 <
-5 12 7 1585.14 1402.12 1028.52 <
5 12 -7 1585.16 2095.38 815.11 <
5 -12 -7 1585.14 2186.53 744.59 <
5 -12 -7 1585.14 1883.08 717.88 <
-5 -12 6 2143.55 1254.59 626.60 <
5 12 -6 2143.55 2053.40 944.42 <
5 -12 -6 2143.56 2074.99 1060.61 <
-5 12 6 2143.56 2443.21 1033.47 <
5 12 -6 2143.55 2921.78 865.05 o
5 -12 -6 2143.56 1931.06 730.64 <
5 -12 -6 2143.56 1390.12 653.44 <
5 12 -6 2143.55 2258.50 685.17 o
-5 -12 5 3254.48 4255.53 856.24 o
5 12 -5 3254.48 3469.91 994.95 o
5 -12 -5 3254.53 2955.36 1058.76 <
-5 12 5 3254.53 4997.96 1307.70 o
5 12 -5 3254.48 3581.45 853.20 o
5 -12 -5 3254.53 2591.94 788.91 o
5 -12 -5 3254.53 3040.52 842.69 o
-5 -12 5 3254.48 3922.09 1217.34 o
-5 12 5 3254.53 4043.23 676.77 o
-5 12 4 870.81 1077.07 463.10 <
-5 -12 4 870.84 771.22 500.54 <
5 12 -4 870.84 764.03 610.84 <
-5 12 4 870.81 1283.37 785.37 <
5 12 -4 870.84 698.06 540.32 <
5 -12 -4 870.81 522.95 662.88 <
5 -12 -4 870.81 903.16 534.81 <
5 -12 -4 870.81 1304.96 580.84 <
-5 -12 4 870.84 1477.68 831.36 <
5 12 -4 870.84 498.96 435.47 <
-5 -12 3 799.58 725.65 526.80 <
-5 12 3 799.59 512.15 358.60 <
5 12 -3 799.58 1041.09 694.86 <
5 12 -3 799.58 1292.97 558.94 <
-5 12 3 799.59 766.43 610.60 <
5 -12 -3 799.59 894.76 307.61 <
5 -12 -3 799.59 867.18 535.88 <
-5 -12 3 799.58 76.76 567.10 <
-5 -12 3 799.58 640.49 434.80 <
-5 -12 3 799.58 684.87 602.44 <
5 -12 -3 799.59 371.82 817.45 <
5 12 -3 799.58 888.77 485.39 <
-5 -12 3 799.58 371.82 465.31 <
5 -12 -2 725.03 526.54 531.87 <
-5 -12 2 725.03 1189.82 470.12 <
-5 -12 2 725.03 921.15 544.99 <
5 12 -2 725.03 361.02 511.77 <
-5 12 2 725.03 1002.71 371.39 <
5 -12 -2 725.03 2575.14 351.49 o
5 -12 -2 725.03 952.34 638.54 <
-5 12 2 725.03 466.57 563.14 <
-5 -12 2 725.03 1007.51 560.22 <
5 -12 -2 725.03 675.27 484.73 <
-5 -12 2 725.03 966.73 813.77 <
-5 -12 2 725.03 672.87 406.81 <
5 12 -2 725.03 689.66 306.05 <
5 12 -1 913.13 863.58 513.55 <
5 -12 -1 913.10 440.18 536.21 <
-5 12 1 913.10 952.34 655.95 <
5 -12 -1 913.10 1176.63 218.77 o
-5 -12 1 913.13 660.88 412.49 <
-5 -12 1 913.13 931.95 498.87 <
-5 -12 1 913.13 2009.02 1044.16 <
5 -12 -1 913.10 1021.90 572.87 <
5 -12 -1 913.10 972.73 631.88 <
5 12 -1 913.13 741.24 384.67 <
5 12 0 4610.21 4862.43 1020.27 o
5 -12 0 4610.20 3588.65 1021.78 o
-5 12 0 4610.20 3609.04 1110.82 o
-5 -12 0 4610.21 6729.92 1488.42 o
5 -12 0 4610.20 5423.76 1073.74 o
5 12 1 2335.60 2470.80 767.80 o
-5 12 -1 2335.60 2873.80 1079.85 <
-5 -12 -1 2335.60 1480.08 857.02 <
5 -12 1 2335.60 2661.50 956.25 <
5 -12 1 2335.60 3360.76 1055.67 o
-5 -12 -2 2327.50 2717.88 1166.15 <
-5 12 -2 2327.53 1838.70 1024.20 <
5 -12 2 2327.53 2949.36 1047.99 <
5 -12 2 2327.53 2432.41 903.69 <
5 12 2 2327.50 1357.74 840.66 <
-5 -12 -3 3.85 -447.38 885.96 <
5 -12 3 3.85 371.82 638.94 <
-5 12 -3 3.85 845.59 925.92 <
5 -12 3 3.85 311.85 582.65 <
5 12 3 3.85 1013.51 754.66 <
-5 -12 -4 857.77 238.68 931.46 <
5 -12 4 857.77 1324.15 986.99 <
5 -12 4 857.77 466.57 706.05 <
-5 12 -4 857.77 -82.76 895.41 <
5 12 4 857.77 2110.97 977.12 <
5 -12 5 1574.89 1884.28 890.88 <
-5 12 -5 1574.89 2884.59 1438.76 <
-5 13 8 22690.00 24802.70 2773.72 o
5 -13 -8 22690.00 26544.30 2325.63 o
5 -13 -7 1304.82 922.35 1111.53 <
-5 -13 7 1304.82 1550.84 810.93 <
5 13 -7 1304.82 3439.92 1128.32 o
-5 13 7 1304.82 1077.07 1219.12 <
5 13 -7 1304.82 207.50 572.37 <
5 -13 -7 1304.82 966.73 771.16 <
-5 -13 6 6630.75 6330.51 1118.41 o
5 -13 -6 6630.67 6552.41 1513.28 o
-5 13 6 6630.67 6924.22 1669.11 o
5 13 -6 6630.75 6125.41 1129.43 o
5 -13 -6 6630.67 6414.47 1208.20 o
5 -13 -6 6630.67 6686.74 1201.07 o
5 13 -6 6630.75 7539.52 1109.72 o
5 13 -6 6630.75 8248.38 1513.20 o
-5 -13 5 5451.60 5602.47 934.59 o
5 13 -5 5451.60 6288.53 1278.77 o
5 -13 -5 5451.58 5759.59 1363.07 o
-5 13 5 5451.58 7996.50 1662.72 o
5 13 -5 5451.60 6594.39 1075.74 o
5 -13 -5 5451.58 6314.92 1102.99 o
5 -13 -5 5451.58 5856.74 1092.38 o
-5 -13 5 5451.60 5908.32 1590.06 o
5 13 -4 6612.54 7954.52 1354.40 o
5 -13 -4 6612.50 7210.88 1058.00 o
-5 13 4 6612.50 6275.34 1458.44 o
5 13 -4 6612.54 6818.68 1099.23 o
5 -13 -4 6612.50 6992.59 1342.29 o
5 -13 -4 6612.50 6931.42 1130.03 o
-5 -13 4 6612.54 8248.38 1572.51 o
5 13 -4 6612.54 5212.66 968.64 o
-5 -13 4 6612.54 7607.89 1107.06 o
5 13 -3 15154.30 15817.90 1551.71 o
-5 -13 3 15154.30 14090.70 1530.75 o
-5 -13 3 15154.30 16219.70 2104.98 o
5 -13 -3 15154.20 14702.40 1823.57 o
5 -13 -3 15154.20 14650.90 1632.61 o
-5 -13 3 15154.30 14132.70 1416.60 o
5 13 -3 15154.30 13810.10 1393.55 o
5 13 -3 15154.30 18261.10 1865.85 o
-5 13 3 15154.20 15202.60 2050.14 o
-5 -13 3 15154.30 16687.50 1488.59 o
-5 -13 2 33984.20 30575.50 2064.40 o
-5 -13 2 33984.20 37341.40 3100.09 o
5 -13 -2 33984.10 36026.80 2725.79 o
5 -13 -2 33984.10 30432.80 2589.05 o
5 -13 -2 33984.10 32469.40 2415.40 o
5 13 -2 33984.20 29971.00 1943.07 o
5 13 -2 33984.20 37864.30 2510.12 o
-5 13 2 33984.10 31569.80 2934.83 o
-5 -13 2 33984.20 35013.30 2126.24 o
-5 -13 2 33984.20 30256.50 2356.12 o
5 13 -1 907.23 1336.15 713.13 <
5 -13 -1 907.24 1131.05 575.93 <
-5 13 1 907.24 682.47 782.54 <
-5 -13 1 907.23 1357.74 928.14 <
5 -13 -1 907.24 1223.40 567.03 <
5 -13 -1 907.24 1342.15 719.11 <
5 13 -1 907.23 635.69 355.16 <
5 -13 0 8298.52 7829.78 1487.33 o
-5 13 0 8298.52 7036.97 1500.01 o
5 -13 0 8298.52 9603.72 1411.90 o
-5 -13 0 8298.59 9943.15 1762.62 o
5 13 0 8298.59 10293.40 1449.82 o
5 -13 0 8298.52 7799.80 1280.05 o
5 -13 1 11874.90 10456.50 1766.34 o
-5 -13 -1 11874.80 12195.70 2155.83 o
-5 13 -1 11874.90 8712.55 1777.75 o
5 -13 1 11874.90 12521.90 1710.02 o
5 13 1 11874.80 12472.70 1672.28 o
5 13 2 2024.93 788.02 717.44 <
-5 -13 -2 2024.93 1832.71 1046.73 <
-5 13 -2 2024.94 1791.93 1109.20 <
5 -13 2 2024.94 1547.25 875.41 <
5 -13 2 2024.94 1898.67 836.70 <
-5 13 -3 29635.30 29023.50 3260.01 o
5 -13 3 29635.30 26249.20 3058.96 o
-5 -13 -3 29635.30 34288.90 3864.59 o
5 -13 3 29635.30 19503.70 2389.95 o
5 13 3 29635.30 29998.60 2722.72 o
5 -13 4 4149.79 2457.60 1010.14 <
-5 13 -4 4149.79 3929.28 1537.83 <
5 -13 5 5274.40 5103.51 1401.23 o
-5 14 8 649.23 419.80 903.46 <
-5 -14 7 5158.60 5651.65 1193.99 o
5 14 -7 5158.60 6933.82 1527.26 o
-5 14 7 5158.61 6714.33 1838.16 o
5 -14 -7 5158.61 4569.77 1138.18 o
5 -14 -6 56743.10 52722.70 4179.56 o
5 14 -6 56743.00 62590.30 3185.52 o
5 -14 -6 56743.10 56905.10 3296.49 o
-5 -14 6 56743.00 61187.00 4608.73 o
5 -14 -6 56743.10 52484.00 3273.38 o
-5 14 6 56743.10 63939.60 4634.91 o
5 14 -6 56743.00 61894.60 3531.43 o
-5 -14 6 56743.00 61293.70 3072.39 o
5 -14 -5 14395.00 12595.10 1943.82 o
5 14 -5 14395.10 14851.20 1617.69 o
5 -14 -5 14395.00 14887.10 1539.59 o
-5 -14 5 14395.10 13948.00 2176.70 o
5 -14 -5 14395.00 12739.00 1619.77 o
-5 14 5 14395.00 16525.50 2316.20 o
5 14 -5 14395.10 15465.30 1927.83 o
-5 -14 5 14395.10 15029.90 1560.43 o
5 14 -4 55562.90 57545.50 2987.22 o
5 -14 -4 55563.00 52975.80 3679.46 o
-5 -14 4 55562.90 59581.00 4164.76 o
5 -14 -4 55563.00 53604.30 3133.79 o
5 14 -4 55562.90 47011.10 3045.97 o
5 14 -4 55562.90 65901.90 3283.14 o
-5 14 4 55563.00 57148.50 4092.87 o
-5 14 4 55563.00 49535.90 2954.46 o
-5 -14 4 55562.90 57689.50 2846.57 o
-5 -14 3 2853.89 3174.85 809.09 o
5 14 -3 2853.89 3968.87 1083.82 o
5 14 -3 2853.89 3361.96 813.23 o
-5 14 3 2853.87 3146.07 1013.80 o
5 -14 -3 2853.87 2951.76 855.58 o
-5 -14 3 2853.89 3866.91 1171.73 o
5 -14 -3 2853.87 3382.35 1048.01 o
5 14 -3 2853.89 3200.04 705.23 o
-5 -14 2 145.44 88.76 524.17 <
5 14 -2 145.44 268.67 637.98 <
5 -14 -2 145.44 668.07 598.67 <
-5 14 2 145.44 4.80 663.30 <
5 -14 -2 145.44 392.21 676.20 <
-5 -14 2 145.44 604.51 639.71 <
5 14 -2 145.44 67.17 313.10 <
5 -14 -1 61818.30 62378.00 3712.55 o
-5 -14 1 61818.50 71460.00 4341.23 o
5 -14 -1 61818.30 64580.10 3397.07 o
5 -14 -1 61818.30 61617.60 3395.91 o
5 14 -1 61818.50 67048.50 3392.23 o
-5 14 1 61818.30 58934.50 4135.13 o
5 -14 0 25117.80 23660.90 2443.23 o
-5 -14 0 25117.80 27164.40 2982.83 o
5 -14 0 25117.80 27106.80 2341.94 o
5 14 0 25117.80 27735.30 2320.00 o
5 -14 0 25117.80 25511.60 2220.13 o
-5 14 0 25117.80 24459.70 2705.93 o
5 -14 1 33745.50 33045.10 3043.36 o
-5 -14 -1 33745.70 39000.20 3666.60 o
5 -14 1 33745.50 35306.00 2702.47 o
5 14 1 33745.70 37171.10 2716.49 o
-5 14 -1 33745.50 33366.50 3257.38 o
5 -14 2 11478.60 9999.53 1912.25 o
5 -14 2 11478.60 10954.30 1670.79 o
-5 -14 -2 11478.50 11294.90 2318.23 o
-5 14 -2 11478.60 9065.18 1914.38 o
5 14 2 11478.50 11124.60 1754.20 o
5 -14 3 1215.97 2228.51 1058.35 <
-5 14 -3 1215.97 2036.61 1230.18 <
5 -14 3 1215.97 1217.41 788.01 <
5 -14 4 705.81 0.00 655.49 <
5 15 -7 9783.42 10965.10 1905.80 o
5 -15 -6 10127.20 9518.56 1879.86 o
5 15 -6 10127.40 11916.20 1559.57 o
-5 -15 6 10127.40 11519.20 2208.26 o
5 -15 -6 10127.20 9438.20 1467.03 o
-5 15 6 10127.20 13409.50 2350.72 o
5 15 -6 10127.40 13834.10 1946.27 o
-5 -15 6 10127.40 12721.00 1545.79 o
-5 -15 5 2726.54 2325.67 726.51 o
5 15 -5 2726.54 2888.19 1031.63 <
5 -15 -5 2726.57 3334.37 1122.19 <
-5 15 5 2726.57 3206.04 1226.55 <
5 15 -5 2726.54 2091.78 787.69 <
5 -15 -5 2726.57 2919.38 780.33 o
-5 -15 5 2726.54 3460.31 1283.77 <
5 15 -4 16360.40 16704.30 1708.37 o
5 -15 -4 16360.50 15100.60 2061.89 o
-5 -15 4 16360.40 16960.90 2385.13 o
5 -15 -4 16360.50 16120.10 1742.13 o
5 15 -4 16360.40 13512.60 1562.66 o
5 15 -4 16360.40 18924.40 2071.16 o
-5 15 4 16360.50 16639.50 2435.06 o
-5 15 4 16360.50 13772.90 1503.42 o
-5 -15 4 16360.40 16740.20 1625.51 o
5 15 -3 41882.10 44234.40 2643.45 o
-5 -15 3 41882.10 45925.60 3550.39 o
5 -15 -3 41882.40 41505.80 3141.28 o
5 -15 -3 41882.40 42491.70 2784.51 o
5 15 -3 41882.10 36265.50 2375.45 o
5 15 -3 41882.10 47873.50 3036.86 o
-5 15 3 41882.40 44582.30 3589.81 o
-5 -15 3 41882.10 44182.90 2508.93 o
-5 -15 2 48311.10 53615.10 3910.33 o
5 -15 -2 48310.90 46839.60 3191.67 o
5 -15 -2 48310.90 49621.00 3040.45 o
5 15 -2 48311.10 42440.10 2381.59 o
5 15 -2 48311.10 55332.60 3126.71 o
-5 -15 2 48311.10 51129.90 2677.91 o
-5 15 2 48310.90 46596.10 3732.19 o
5 -15 -1 10555.30 9998.33 1604.93 o
-5 -15 1 10555.30 12880.50 2107.95 o
5 -15 -1 10555.30 11281.70 1613.32 o
5 -15 -1 10555.30 10438.50 1512.01 o
5 15 -1 10555.30 11611.50 1622.10 o
-5 15 1 10555.30 10534.50 1882.16 o
5 -15 0 2610.38 2804.23 880.12 o
5 15 0 2610.44 3504.69 969.25 o
-5 15 0 2610.38 3930.48 1315.78 <
-5 -15 0 2610.44 2223.72 1148.54 <
5 -15 0 2610.38 2396.43 928.51 <
5 -15 0 2610.38 3609.04 1058.89 o
5 -15 1 20904.30 21366.40 2481.72 o
-5 -15 -1 20904.20 24303.80 3024.22 o
5 -15 1 20904.30 21896.50 2216.26 o
5 15 1 20904.20 24985.00 2316.61 o
-5 15 -1 20904.30 22277.90 2737.30 o
5 -15 2 12860.10 10843.90 1944.34 o
5 -15 2 12860.10 11538.40 1740.73 o
-5 -15 -2 12860.10 12834.90 2462.71 o
-5 15 -2 12860.10 11009.40 2144.78 o
5 15 2 12860.10 13563.00 1861.45 o
-5 15 -3 35464.20 33148.20 3701.12 o
5 -15 3 35464.20 22399.10 2788.68 o
5 16 -7 2713.91 3533.48 1452.88 <
5 16 -6 4038.49 5544.90 1407.21 o
5 -16 -6 4038.46 3658.22 970.29 o
5 16 -5 15330.20 17192.40 1850.68 o
5 -16 -5 15330.10 12358.80 2023.05 o
-5 -16 5 15330.20 17835.30 2561.94 o
5 -16 -5 15330.10 14427.80 1713.49 o
5 16 -5 15330.20 18065.60 2160.20 o
-5 16 5 15330.10 15846.70 2471.34 o
-5 -16 5 15330.20 17878.50 1748.95 o
-5 -16 4 2813.16 3028.52 816.13 o
5 16 -4 2813.16 4203.95 1141.76 o
5 16 -4 2813.16 2769.45 835.14 o
-5 16 4 2813.20 3221.63 1133.18 <
5 -16 -4 2813.20 3004.54 1099.84 <
5 -16 -4 2813.20 4100.80 1031.35 o
-5 -16 4 2813.16 3693.00 1285.00 <
5 16 -4 2813.16 2209.32 704.24 o
-5 -16 3 3033.78 3588.65 883.65 o
5 16 -3 3033.78 4171.57 1184.71 o
-5 16 3 3033.79 2061.79 928.36 <
5 -16 -3 3033.79 3131.67 973.18 o
-5 -16 3 3033.78 3377.55 1197.17 <
5 -16 -3 3033.79 2367.65 874.32 <
5 16 -3 3033.78 1823.11 572.74 o
-5 -16 2 4588.44 4909.21 970.12 o
5 16 -2 4588.44 6156.60 1340.82 o
5 -16 -2 4588.55 4434.24 1085.80 o
-5 16 2 4588.55 4752.08 1316.76 o
-5 -16 2 4588.44 5522.11 1479.40 o
5 -16 -2 4588.55 4325.09 1023.43 o
5 16 -2 4588.44 4932.00 753.98 o
5 16 -1 4754.22 6178.19 1218.30 o
5 -16 -1 4754.22 4732.89 1054.52 o
-5 16 1 4754.22 4415.05 1318.56 o
-5 -16 1 4754.22 4476.22 1394.71 o
5 -16 -1 4754.22 5097.52 1111.77 o
5 -16 -1 4754.22 4630.94 1050.80 o
5 -16 0 10239.20 10667.60 1649.85 o
-5 16 0 10239.20 11139.00 1970.79 o
5 -16 0 10239.20 11299.70 1635.85 o
-5 -16 0 10239.20 13017.30 2213.99 o
5 16 0 10239.20 11503.60 1694.23 o
5 -16 0 10239.20 10238.20 1475.30 o
5 16 1 6779.57 6270.54 1325.31 o
-5 16 -1 6779.56 7075.35 1748.32 o
-5 -16 -1 6779.57 8156.02 1809.11 o
5 -16 1 6779.56 7881.36 1454.49 o
5 -16 1 6779.56 5991.08 1367.62 o
-5 16 -2 300.42 1544.85 1191.79 <
5 -16 2 300.42 1785.93 1013.77 <
5 -16 2 300.42 934.34 771.00 <
5 17 -7 2078.84 4681.32 1631.06 <
5 17 -6 2184.48 2071.39 1161.53 <
5 17 -5 1809.02 1902.27 1047.89 <
5 -17 -5 1809.02 1970.64 1113.59 <
5 -17 -5 1809.02 2004.22 815.69 <
-5 -17 4 261.40 -87.56 592.58 <
5 17 -4 261.40 441.39 718.22 <
5 17 -4 261.40 -287.86 595.95 <
-5 17 4 261.41 -1186.22 898.01 <
5 -17 -4 261.41 515.75 670.08 <
5 -17 -4 261.41 614.10 691.46 <
-5 -17 4 261.40 995.52 884.87 <
5 17 -4 261.40 501.36 486.46 <
-5 -17 3 25.07 474.97 531.88 <
5 17 -3 25.07 843.19 752.95 <
-5 17 3 25.07 79.16 906.75 <
5 -17 -3 25.07 750.83 689.58 <
-5 -17 3 25.07 219.49 885.09 <
5 -17 -3 25.07 -33.58 557.72 <
-5 -17 2 3050.41 2914.58 841.94 o
5 17 -2 3050.41 3635.43 1220.65 <
5 -17 -2 3050.44 3124.48 933.76 o
-5 17 2 3050.44 4012.04 1338.19 <
-5 -17 2 3050.41 3190.44 1257.35 <
5 -17 -2 3050.44 3136.47 984.07 o
5 17 -1 1332.82 2079.79 921.19 <
5 -17 -1 1332.83 1157.44 714.37 <
-5 17 1 1332.83 1072.28 998.64 <
-5 -17 1 1332.82 1866.29 1151.96 <
5 -17 -1 1332.83 1385.32 687.01 <
5 -17 -1 1332.83 782.02 595.86 <
5 17 0 3534.24 3627.03 1070.33 o
-5 17 0 3534.26 3836.93 1307.69 <
-5 -17 0 3534.24 3522.68 1293.05 <
5 -17 0 3534.26 4317.90 1168.92 o
5 -17 0 3534.26 2776.65 958.10 <
5 -17 0 3534.26 3839.33 995.17 o
5 -17 1 5639.84 5109.51 1367.46 o
5 -17 2 3407.86 2368.85 1091.69 <
5 18 -5 1097.11 -512.15 931.27 <
5 -18 -4 12666.60 11621.10 1985.82 o
5 18 -4 12666.60 14905.10 2051.43 o
-5 -18 3 1556.88 2330.46 763.80 o
5 18 -3 1556.88 3196.44 1155.64 <
-5 18 3 1556.90 -538.54 807.76 <
5 -18 -3 1556.90 1688.78 835.37 <
5 18 -2 430.22 1059.08 872.91 <
5 -18 -2 430.21 71.96 599.98 <
5 -18 -1 13017.70 12328.80 1784.41 o
5 -18 -1 13017.70 12818.20 1723.54 o
5 -18 0 2716.81 2070.19 997.88 <
5 -18 1 5534.97 5577.28 1472.50 o
5 -19 -3 4297.12 4569.77 1229.42 o
5 -19 -2 3344.20 2815.03 1115.27 <
5 -19 -1 1692.40 1680.38 887.62 <
5 -19 -1 1692.40 1664.79 788.16 <
5 -19 0 268.74 -622.50 706.75 <
5 -20 -2 1955.40 2116.97 938.29 <
5 -20 0 526.87 101.95 815.91 <
-6 0 10 7813.78 5943.10 1385.18 o
6 0 -10 7813.78 4130.79 1202.30 o
6 0 -9 54519.80 35530.30 3817.93 o
6 0 -9 54519.80 51203.00 3687.75 o
6 0 -9 54519.80 49375.10 3764.90 o
-6 0 9 54519.80 51783.60 3525.10 o
6 0 -8 16692.20 17351.90 1982.19 o
6 0 -8 16692.20 18626.90 2020.89 o
-6 0 8 16692.20 14015.20 1829.46 o
6 0 -7 69676.60 74405.70 3669.78 o
6 0 -7 69676.60 71109.70 3659.59 o
-6 0 7 69676.60 73051.60 3228.25 o
6 0 -6 9280.58 9916.77 1161.54 o
-6 0 6 9280.58 7397.99 1257.38 o
6 0 -6 9280.58 9520.96 1369.36 o
6 0 -6 9280.58 8680.17 1259.99 o
-6 0 6 9280.58 11406.40 1330.52 o
-6 0 5 364.67 504.95 417.03 <
6 0 -5 364.67 672.87 433.22 <
-6 0 5 364.67 -183.51 448.68 <
6 0 -5 364.67 411.40 482.07 <
6 0 -5 364.67 804.81 497.56 <
6 0 -4 170550.00 170257.00 3246.69 o
-6 0 4 170550.00 167375.00 4161.29 o
-6 0 4 170550.00 175747.00 4574.62 o
6 0 -4 170550.00 173469.00 4660.30 o
-6 0 4 170550.00 173805.00 2849.10 o
6 0 -4 170550.00 170077.00 5125.72 o
-6 0 4 170550.00 166309.00 3573.34 o
-6 0 3 76980.40 82324.30 1554.21 o
-6 0 3 76980.40 80771.00 2967.99 o
6 0 -3 76980.40 76016.50 2734.07 o
6 0 -3 76980.40 83867.90 3029.45 o
-6 0 3 76980.40 76292.40 2502.61 o
6 0 -3 76980.40 79695.10 3526.32 o
-6 0 3 76980.40 71390.40 2170.98 o
-6 0 2 114261.00 118607.00 1331.32 o
-6 0 2 114261.00 116466.00 3629.97 o
6 0 -2 114261.00 100732.00 4322.48 o
-6 0 2 114261.00 120811.00 3758.36 o
6 0 -2 114261.00 125418.00 4112.91 o
-6 0 2 114261.00 120233.00 2944.01 o
-6 0 1 17155.30 19799.90 711.06 o
-6 0 1 17155.30 16964.50 1557.06 o
-6 0 1 17155.30 19245.80 1368.09 o
6 0 -1 17155.30 16157.30 1543.07 o
6 0 -1 17155.30 16430.80 1833.00 o
-6 0 1 17155.30 18160.30 1503.32 o
-6 0 1 17155.30 19405.30 1538.27 o
-6 0 0 17285.40 17396.30 898.03 o
-6 0 0 17285.40 16525.50 1737.66 o
6 0 0 17285.40 20180.20 1856.91 o
-6 0 0 17285.40 18279.10 1312.32 o
6 0 0 17285.40 17232.00 1763.20 o
6 0 0 17285.40 19893.50 2031.59 o
-6 0 0 17285.40 19922.30 1560.60 o
-6 0 -1 19170.10 14402.60 1199.94 o
-6 0 -1 19170.10 15789.10 1853.15 o
6 0 1 19170.10 19976.30 2015.38 o
-6 0 -1 19170.10 18195.10 1294.51 o
6 0 1 19170.10 20459.60 1731.30 o
-6 0 -1 19170.10 20224.50 1326.35 o
6 0 1 19170.10 17707.00 2058.29 o
-6 0 -1 19170.10 20652.70 1565.65 o
6 0 2 144405.00 138630.00 5927.62 o
-6 0 -2 144405.00 138578.00 5689.21 o
-6 0 -2 144405.00 147684.00 3621.25 o
6 0 2 144405.00 144110.00 5105.60 o
-6 0 -2 144405.00 144615.00 3451.33 o
6 0 2 144405.00 137794.00 5988.12 o
-6 0 -2 144405.00 137674.00 4506.78 o
6 0 3 14919.00 15479.70 2051.79 o
-6 0 -3 14919.00 10470.90 1802.98 o
-6 0 -3 14919.00 14235.90 1395.23 o
6 0 3 14919.00 16964.50 2022.65 o
6 0 4 35778.20 35821.70 3246.86 o
-6 0 -4 35778.20 24538.80 3202.03 o
-6 0 -4 35778.20 41586.10 2225.34 o
6 0 4 35778.20 32807.60 3021.79 o
6 0 5 4724.89 5983.88 1643.80 o
6 0 5 4724.89 3553.87 991.17 o
6 1 -10 2764.32 2836.62 955.42 <
-6 1 10 2764.33 3612.64 1266.04 <
6 -1 -10 2764.33 3459.11 2368.97 <
6 -1 -10 2764.33 1102.26 809.41 <
6 1 -9 5499.05 5071.13 1176.39 o
6 -1 -9 5499.03 6097.83 1380.40 o
6 1 -9 5499.05 5315.81 1266.05 o
6 -1 -9 5499.03 6630.37 1411.73 o
-6 -1 9 5499.05 10965.10 1789.69 o
-6 1 9 5499.03 11640.30 2229.54 o
6 1 -8 7994.88 8009.70 1391.12 o
6 1 -8 7994.88 7687.05 1411.00 o
6 -1 -8 7994.87 7724.23 1399.75 o
6 -1 -8 7994.87 8164.42 1491.06 o
-6 -1 8 7994.88 9371.03 1480.72 o
-6 1 8 7994.87 8115.24 1524.13 o
6 1 -7 20495.00 25148.10 1848.80 o
6 -1 -7 20495.00 20512.40 2115.36 o
6 1 -7 20495.00 20134.60 2015.33 o
6 1 -7 20495.00 20346.90 2071.29 o
6 -1 -7 20495.00 20528.00 2019.01 o
-6 -1 7 20495.00 23609.30 2049.43 o
-6 1 7 20495.00 21440.70 2188.72 o
6 1 -6 56131.20 56698.80 2443.09 o
6 -1 -6 56131.20 59179.20 2411.96 o
-6 -1 6 56131.20 49347.50 3123.16 o
6 -1 -6 56131.20 58729.40 3246.67 o
6 1 -6 56131.20 57197.70 3058.07 o
6 1 -6 56131.20 54190.80 3171.27 o
6 -1 -6 56131.20 53586.30 3131.75 o
-6 -1 6 56131.20 55212.70 2579.85 o
-6 1 6 56131.20 56123.00 2617.54 o
6 1 -5 58855.30 59055.60 2229.02 o
6 -1 -5 58855.40 59341.10 2086.56 o
-6 -1 5 58855.30 60387.00 2517.99 o
6 -1 -5 58855.40 59509.00 3121.21 o
6 1 -5 58855.30 57968.90 3004.10 o
6 -1 -5 58855.40 58333.60 3002.65 o
6 1 -5 58855.30 58436.70 3076.50 o
-6 -1 5 58855.30 59945.60 2127.68 o
-6 1 5 58855.40 56648.40 2320.26 o
-6 -1 4 5290.54 3088.49 547.95 o
6 1 -4 5290.54 5426.15 654.61 o
6 -1 -4 5290.54 5409.36 583.90 o
-6 -1 4 5290.54 5800.37 770.73 o
-6 1 4 5290.54 4015.64 675.31 o
6 -1 -4 5290.54 5825.56 997.87 o
-6 1 4 5290.54 5115.51 882.84 o
-6 -1 4 5290.54 5125.10 985.61 o
6 1 -4 5290.54 5750.00 1007.40 o
6 1 -4 5290.54 6390.48 955.02 o
6 -1 -4 5290.54 5408.16 938.73 o
-6 1 4 5290.54 6036.66 657.29 o
6 1 -4 5290.54 5067.53 667.41 o
-6 -1 4 5290.54 5217.46 614.40 o
-6 1 4 5290.54 4879.22 618.56 o
-6 1 3 3500.51 3591.05 576.78 o
-6 -1 3 3500.51 3964.07 649.59 o
-6 1 3 3500.51 2943.36 720.68 o
6 1 -3 3500.51 3447.12 463.93 o
-6 -1 3 3500.51 3888.50 482.15 o
-6 1 3 3500.51 3287.60 486.90 o
-6 1 3 3500.51 3642.62 733.57 o
-6 -1 3 3500.51 4022.84 822.95 o
6 1 -3 3500.51 3998.85 685.41 o
6 1 -3 3500.51 4873.22 841.67 o
6 -1 -3 3500.51 4431.84 820.04 o
-6 -1 3 3500.51 3615.04 435.54 o
-6 1 3 3500.51 3014.13 399.21 o
6 1 -3 3500.51 3799.75 633.91 o
-6 -1 2 71628.70 73771.20 1594.32 o
-6 1 2 71628.60 67644.60 1736.57 o
-6 1 2 71628.60 74170.60 2747.95 o
-6 -1 2 71628.70 75398.80 2994.62 o
-6 -1 2 71628.70 78034.00 2578.86 o
6 1 -2 71628.70 65704.00 3082.50 o
-6 -1 2 71628.70 74349.40 3067.91 o
6 1 -2 71628.70 81476.30 3451.57 o
-6 1 2 71628.60 75256.10 3159.31 o
6 -1 -2 71628.60 74787.10 3458.22 o
-6 1 2 71628.60 75414.40 2484.01 o
-6 -1 2 71628.70 74976.60 2556.59 o
-6 1 1 26141.50 23893.60 783.67 o
-6 1 1 26141.50 27076.80 1813.06 o
-6 -1 1 26141.50 24584.40 1952.13 o
6 -1 -1 26141.50 26153.20 2131.02 o
-6 -1 1 26141.50 27953.60 1623.08 o
-6 1 1 26141.50 28229.40 1670.50 o
6 1 -1 26141.50 24197.00 1883.32 o
6 1 -1 26141.50 27738.90 2287.72 o
6 -1 -1 26141.50 27050.40 2340.45 o
-6 -1 1 26141.50 28180.30 1775.25 o
-6 1 1 26141.50 27840.80 1922.01 o
-6 1 1 26141.50 27584.20 1885.53 o
-6 -1 1 26141.50 28454.90 1854.76 o
-6 -1 0 102003.00 100079.00 2553.22 o
-6 1 0 102003.00 85670.60 3123.02 o
-6 1 0 102003.00 99101.70 4060.32 o
-6 -1 0 102003.00 98614.70 4372.01 o
6 -1 0 102003.00 106659.00 4180.11 o
-6 1 0 102003.00 96965.50 2520.77 o
6 1 0 102003.00 107000.00 4008.27 o
-6 -1 0 102003.00 110647.00 2425.79 o
-6 1 0 102003.00 105709.00 2991.62 o
6 1 0 102003.00 101528.00 4070.62 o
6 1 0 102003.00 101183.00 4660.82 o
6 -1 0 102003.00 100353.00 4687.03 o
-6 -1 0 102003.00 108822.00 3033.57 o
-6 1 0 102003.00 108896.00 3418.62 o
-6 1 -1 10303.10 8030.09 757.08 o
-6 -1 -1 10303.10 8337.14 896.63 o
-6 1 -1 10303.10 9681.68 1404.26 o
-6 -1 -1 10303.10 9482.58 1446.64 o
6 -1 1 10303.10 10328.20 1525.25 o
6 1 1 10303.10 10346.20 1430.16 o
-6 1 -1 10303.10 9910.77 853.15 o
6 -1 1 10303.10 11279.30 1274.19 o
6 1 1 10303.10 12632.20 1445.74 o
-6 -1 -1 10303.10 10683.20 1010.01 o
-6 1 -1 10303.10 10601.60 1004.85 o
6 1 1 10303.10 10135.10 1456.52 o
6 1 1 10303.10 9771.64 1493.40 o
-6 -1 -1 10303.10 10864.30 1104.92 o
-6 1 -1 10303.10 10432.50 1276.05 o
6 1 2 5530.94 3514.29 482.94 o
-6 -1 -2 5530.94 4789.27 830.07 o
-6 -1 -2 5530.94 7119.73 1363.42 o
-6 1 -2 5530.93 6145.80 1218.63 o
-6 1 -2 5530.93 5387.77 765.27 o
-6 -1 -2 5530.94 5308.61 852.56 o
-6 1 -2 5530.93 5546.10 968.92 o
-6 -1 -2 5530.94 5323.00 826.06 o
-6 1 -2 5530.93 6121.82 852.58 o
-6 -1 -2 5530.94 4606.95 732.29 o
6 -1 2 5530.93 5329.00 1044.80 o
6 -1 2 5530.93 5355.39 1214.49 o
6 1 2 5530.94 6455.25 1443.07 o
6 1 2 5530.94 5678.03 1198.96 o
6 1 2 5530.94 5003.96 1186.96 o
6 1 2 5530.94 4100.80 445.76 o
6 1 3 6895.67 5361.39 693.97 o
-6 1 -3 6895.63 6789.89 973.31 o
-6 1 -3 6895.63 4717.30 1286.50 o
-6 -1 -3 6895.67 5702.02 1413.34 o
-6 -1 -3 6895.67 6172.19 979.36 o
6 -1 3 6895.63 6069.04 1353.87 o
6 1 3 6895.67 5805.17 1303.02 o
-6 1 -3 6895.63 5618.06 950.45 o
6 1 3 6895.67 6173.39 1262.23 o
6 -1 3 6895.63 5187.47 1115.23 o
6 -1 4 17695.50 16142.90 2320.19 o
6 1 4 17695.50 16820.60 2246.96 o
-6 -1 -4 17695.50 12556.70 2227.42 o
-6 -1 -4 17695.50 19996.70 1770.10 o
6 1 4 17695.50 18364.20 2241.95 o
6 -1 4 17695.50 18051.20 2119.35 o
6 -1 5 13452.10 13470.60 2270.23 o
6 1 5 13452.10 13235.50 2219.64 o
6 1 5 13452.10 13889.20 1868.18 o
6 -1 5 13452.10 12882.90 1807.83 o
6 1 6 16129.50 11939.00 2455.28 o
-6 2 10 3315.74 3972.46 1841.49 <
6 -2 -10 3315.74 3018.93 1115.05 <
-6 -2 9 2718.11 3636.63 1083.51 o
-6 2 9 2718.09 3459.11 1170.56 <
6 -2 -9 2718.09 1290.57 786.16 <
6 2 -9 2718.11 3008.13 963.43 o
6 -2 -9 2718.09 1633.60 913.66 <
6 2 -9 2718.11 2663.90 1009.05 <
6 -2 -9 2718.09 2779.05 953.11 <
6 -2 -8 7479.65 9661.29 1787.54 o
6 2 -8 7479.65 8078.06 1130.68 o
6 2 -8 7479.65 7322.43 1328.65 o
6 -2 -8 7479.65 7889.75 1470.10 o
6 -2 -8 7479.65 7834.58 1440.74 o
6 2 -8 7479.65 6108.62 1326.15 o
-6 -2 8 7479.65 8601.01 1338.90 o
-6 2 8 7479.65 7256.46 1462.38 o
6 2 -7 1169.39 925.95 610.27 <
-6 -2 7 1169.39 758.03 668.20 <
-6 2 7 1169.37 1817.11 934.08 <
6 2 -7 1169.39 1513.66 742.08 <
6 2 -7 1169.39 1564.04 694.91 <
6 -2 -7 1169.37 371.82 478.72 <
6 -2 -7 1169.37 1379.33 699.52 <
6 2 -6 1032.20 909.16 491.13 <
-6 -2 6 1032.20 1336.15 645.09 <
-6 2 6 1032.21 1302.56 871.07 <
6 -2 -6 1032.21 788.02 677.22 <
6 2 -6 1032.20 1915.47 635.10 <
-6 -2 6 1032.20 1946.65 700.13 <
6 2 -6 1032.20 1327.75 698.01 <
6 -2 -6 1032.21 1097.46 504.62 <
6 2 -5 4661.17 2817.43 828.15 o
6 2 -5 4661.17 5398.57 753.22 o
6 -2 -5 4661.19 4508.60 663.40 o
-6 -2 5 4661.17 5787.18 856.26 o
6 2 -5 4661.17 5114.31 934.58 o
6 -2 -5 4661.19 5087.92 1055.50 o
6 2 -5 4661.17 4597.36 897.95 o
6 -2 -5 4661.19 4618.95 883.30 o
6 2 -5 4661.17 4124.79 552.26 o
-6 -2 5 4661.17 4982.37 695.07 o
-6 2 5 4661.19 4818.05 815.80 o
-6 -2 4 2325.83 2655.51 475.55 o
-6 2 4 2325.80 2523.57 419.42 o
-6 2 4 2325.80 2455.20 396.32 o
-6 -2 4 2325.83 1713.96 325.42 o
6 2 -4 2325.83 2867.80 502.85 o
6 -2 -4 2325.80 2416.82 374.03 o
-6 -2 4 2325.83 2528.37 519.45 o
-6 2 4 2325.80 2569.15 651.46 o
-6 -2 4 2325.83 2342.46 733.91 o
6 -2 -4 2325.80 3279.20 790.28 o
6 2 -4 2325.83 2431.21 645.55 o
6 2 -4 2325.83 2233.31 653.25 o
6 -2 -4 2325.80 3270.81 780.67 o
6 2 -4 2325.83 2449.21 472.26 o
6 2 -3 12818.80 14790.00 1084.24 o
6 2 -3 12818.80 13279.90 925.98 o
-6 -2 3 12818.80 12950.10 898.65 o
-6 2 3 12818.90 13569.00 1160.95 o
-6 -2 3 12818.80 13770.50 1456.74 o
6 2 -3 12818.80 11731.50 1082.64 o
-6 2 3 12818.90 12802.60 1528.38 o
6 2 -3 12818.80 14517.70 1653.53 o
-6 2 3 12818.90 13198.40 994.41 o
6 2 -3 12818.80 13741.70 1364.90 o
6 -2 -3 12818.90 12515.90 1313.17 o
-6 -2 3 12818.80 13143.20 1116.00 o
-6 -2 3 12818.80 11897.00 850.37 o
-6 2 3 12818.90 10037.90 670.41 o
6 -2 -3 12818.90 13648.10 1475.34 o
-6 2 2 6208.62 6825.87 1065.51 o
-6 -2 2 6208.64 7707.44 773.17 o
-6 2 2 6208.62 6529.62 793.80 o
-6 -2 2 6208.64 7766.21 1123.99 o
-6 -2 2 6208.64 7525.13 975.22 o
6 2 -2 6208.64 7394.40 1175.39 o
6 2 -2 6208.64 6890.64 957.81 o
-6 -2 2 6208.64 6481.64 844.24 o
6 2 -2 6208.64 6049.85 946.40 o
-6 2 2 6208.62 7102.94 885.62 o
6 2 -2 6208.64 7841.78 653.25 o
6 -2 -1 1328.89 2190.13 686.35 o
-6 2 1 1328.89 1358.94 586.35 <
6 2 -1 1328.91 1212.61 614.67 <
-6 -2 1 1328.91 1384.13 543.00 <
6 2 -1 1328.91 1369.73 241.73 o
-6 -2 1 1328.91 1493.27 484.59 o
-6 2 1 1328.89 1845.90 672.19 <
-6 -2 1 1328.91 1432.10 392.53 o
-6 2 1 1328.89 1528.06 521.61 <
-6 -2 1 1328.91 964.33 479.35 <
-6 -2 1 1328.91 1486.08 483.45 o
-6 2 1 1328.89 1345.74 507.25 <
6 2 -1 1328.91 1346.94 578.02 <
6 2 0 3.29 298.65 202.00 <
-6 -2 0 3.29 140.33 323.75 <
-6 2 0 3.29 520.55 502.90 <
-6 -2 0 3.29 176.31 321.29 <
-6 2 0 3.29 217.09 353.62 <
-6 -2 0 3.29 927.15 597.41 <
-6 -2 0 3.29 -237.48 325.93 <
-6 2 0 3.29 569.72 435.40 <
6 2 0 3.29 788.02 589.63 <
6 -2 0 3.29 455.78 531.92 <
6 -2 0 3.29 650.08 524.06 <
6 2 0 3.29 122.34 551.69 <
6 2 0 3.29 319.04 465.02 <
-6 2 -1 5874.67 4249.53 492.88 o
-6 2 -1 5874.67 5815.96 1186.91 o
-6 -2 -1 5874.67 5648.05 709.66 o
-6 2 -1 5874.67 4800.06 506.74 o
-6 2 -1 5874.67 6232.16 1040.86 o
-6 -2 -1 5874.67 5943.10 1247.81 o
-6 -2 -1 5874.67 5801.57 746.21 o
-6 2 -1 5874.67 6143.41 808.39 o
6 -2 1 5874.67 5452.54 1183.82 o
6 -2 1 5874.67 4624.95 836.28 o
6 2 1 5874.67 6671.15 1166.17 o
6 -2 1 5874.67 5710.42 1162.99 o
6 2 1 5874.67 6740.71 1281.35 o
6 2 1 5874.67 6743.11 1155.45 o
-6 -2 -1 5874.67 7040.57 817.12 o
6 2 1 5874.67 5013.56 1125.23 o
6 2 1 5874.67 5458.54 455.04 o
6 2 2 3884.60 3068.10 458.30 o
6 2 2 3884.60 3671.41 565.92 o
-6 -2 -2 3884.60 2705.88 686.95 o
-6 2 -2 3884.57 2257.30 837.16 <
-6 2 -2 3884.57 3299.59 529.89 o
-6 -2 -2 3884.60 2788.64 989.54 <
-6 2 -2 3884.57 3140.07 787.35 o
-6 -2 -2 3884.60 3022.53 525.35 o
6 -2 2 3884.57 3475.91 831.87 o
6 -2 2 3884.57 3449.52 1011.23 o
-6 2 -2 3884.57 4341.88 709.60 o
6 2 2 3884.60 3943.68 974.55 o
6 2 2 3884.60 3445.92 1027.99 o
6 -2 2 3884.57 3661.81 1035.83 o
6 2 2 3884.60 3096.89 954.22 o
6 2 3 10118.80 10564.50 1004.88 o
-6 2 -3 10118.80 9708.07 1308.80 o
6 -2 3 10118.80 9222.30 1690.15 o
6 2 3 10118.80 9846.00 1543.07 o
-6 -2 -3 10118.80 8187.21 1744.78 o
-6 2 -3 10118.80 9179.12 1015.62 o
-6 -2 -3 10118.80 9830.41 1223.04 o
6 2 3 10118.80 9806.42 1666.85 o
6 2 3 10118.80 10384.50 1665.65 o
6 -2 3 10118.80 10836.70 1657.41 o
-6 -2 -4 1126.29 1442.90 869.61 <
-6 -2 -4 1126.29 1665.99 818.05 <
6 -2 4 1126.27 2043.80 1122.85 <
6 2 4 1126.29 618.90 905.42 <
6 2 4 1126.29 1649.20 917.94 <
-6 -2 -5 834.28 -698.06 1244.74 <
6 -2 5 834.30 949.94 884.88 <
6 2 5 834.28 1896.28 1122.76 <
6 2 5 834.28 560.13 686.69 <
6 2 6 1276.31 2497.18 1347.20 <
-6 3 10 3388.24 4965.58 2616.71 <
6 -3 -10 3388.24 784.42 776.25 <
6 -3 -10 3388.24 3746.97 1273.73 <
-6 -3 9 2106.20 2468.40 1000.67 <
-6 3 9 2106.20 1985.03 1076.42 <
6 3 -9 2106.20 893.56 860.78 <
6 -3 -9 2106.20 2060.60 865.04 <
6 -3 -9 2106.20 2830.62 1092.15 <
6 3 -9 2106.20 2927.77 903.38 o
6 3 -9 2106.20 1868.69 928.34 <
6 -3 -9 2106.20 2064.19 984.93 <
6 3 -8 3056.91 3017.73 862.71 o
-6 -3 8 3056.91 2386.84 792.13 o
-6 3 8 3056.95 1181.42 826.70 <
6 3 -8 3056.91 3941.28 992.54 o
6 -3 -8 3056.95 2819.83 922.94 o
6 -3 -8 3056.95 1911.87 853.01 <
6 3 -8 3056.91 2361.65 838.77 <
6 -3 -8 3056.95 2362.85 880.49 <
-6 -3 7 102.22 -189.51 460.45 <
-6 3 7 102.22 -1402.12 805.23 <
6 -3 -7 102.22 1210.21 1097.83 <
6 3 -7 102.22 798.81 623.38 <
6 3 -7 102.22 394.61 577.76 <
6 -3 -7 102.22 -322.64 688.20 <
6 3 -7 102.22 170.32 544.49 <
6 -3 -7 102.22 185.91 448.51 <
-6 -3 6 657.77 597.31 426.00 <
-6 3 6 657.79 -21.59 505.64 <
6 -3 -6 657.79 919.95 680.50 <
6 3 -6 657.77 1026.70 544.27 <
6 3 -6 657.77 813.20 510.39 <
6 -3 -6 657.79 -1584.43 553.84 <
-6 -3 6 657.77 1047.09 601.88 <
6 3 -6 657.77 753.23 550.23 <
6 -3 -6 657.79 785.62 620.93 <
6 3 -6 657.77 1706.77 404.23 o
-6 -3 5 4227.75 4325.09 667.77 o
6 3 -5 4227.75 2745.46 705.01 o
6 -3 -5 4227.72 4705.31 612.85 o
6 3 -5 4227.75 4749.68 728.62 o
-6 -3 5 4227.75 4562.58 733.98 o
6 -3 -5 4227.72 5008.76 1039.76 o
6 3 -5 4227.75 4929.60 659.79 o
6 3 -5 4227.75 4054.02 875.14 o
6 3 -5 4227.75 4424.64 910.49 o
6 -3 -5 4227.72 4576.97 907.45 o
-6 3 5 4227.72 4903.21 769.83 o
-6 3 4 4191.14 3450.72 443.27 o
-6 -3 4 4191.13 3563.46 641.02 o
-6 3 4 4191.14 3830.93 951.14 o
6 -3 -4 4191.14 3664.21 430.04 o
6 -3 -4 4191.14 5289.42 989.68 o
6 3 -4 4191.13 4102.00 611.95 o
-6 -3 4 4191.13 4695.71 662.24 o
-6 3 4 4191.14 4042.03 746.80 o
-6 -3 4 4191.13 4681.32 990.16 o
6 3 -4 4191.13 5267.83 750.92 o
6 3 -4 4191.13 5614.46 906.79 o
6 3 -4 4191.13 4374.27 816.88 o
6 -3 -4 4191.14 4765.28 882.86 o
-6 -3 4 4191.13 4362.27 594.34 o
-6 3 4 4191.14 4157.17 545.16 o
6 3 -3 10104.00 11392.00 979.50 o
6 3 -3 10104.00 11219.30 889.07 o
-6 -3 3 10104.00 11103.00 851.78 o
-6 3 3 10104.00 9678.08 962.82 o
-6 -3 3 10104.00 10592.00 1333.01 o
6 3 -3 10104.00 11793.90 1111.18 o
-6 3 3 10104.00 11258.90 1430.37 o
6 3 -3 10104.00 10780.30 1358.38 o
-6 3 3 10104.00 10935.10 921.14 o
6 3 -3 10104.00 11103.00 1200.89 o
6 -3 -3 10104.00 11270.90 1230.06 o
-6 -3 3 10104.00 11814.20 1104.41 o
6 -3 -3 10104.00 11047.80 1338.50 o
-6 -3 3 10104.00 10656.80 797.16 o
-6 3 3 10104.00 7510.74 571.35 o
-6 3 2 23453.00 22797.30 1380.63 o
-6 -3 2 23452.90 24615.60 1983.62 o
-6 -3 2 23452.90 25707.10 1697.38 o
6 3 -2 23452.90 25121.80 1649.36 o
6 3 -2 23452.90 24327.70 2140.30 o
-6 3 2 23453.00 24752.30 1956.24 o
-6 3 2 23453.00 24831.50 1635.40 o
6 3 -2 23452.90 24370.90 1792.57 o
-6 -3 2 23452.90 23370.60 1631.64 o
-6 -3 2 23452.90 21733.40 1144.93 o
6 3 -2 23452.90 24276.20 1141.82 o
-6 3 1 6771.61 6775.50 1017.04 o
-6 3 1 6771.61 7140.12 851.52 o
-6 -3 1 6771.60 7182.10 734.24 o
6 -3 -1 6771.61 8054.07 1218.68 o
-6 -3 1 6771.60 8050.48 952.05 o
-6 -3 1 6771.60 7468.76 1172.34 o
6 3 -1 6771.60 7937.73 1063.39 o
-6 -3 1 6771.60 7291.25 910.25 o
-6 3 1 6771.61 8176.41 1169.00 o
-6 -3 1 6771.60 7633.08 1021.53 o
6 3 -1 6771.60 8488.26 557.15 o
6 3 -1 6771.60 6556.00 1208.25 o
-6 -3 1 6771.60 7413.59 1179.25 o
-6 3 0 19582.00 22083.60 1542.19 o
-6 -3 0 19581.90 19597.20 1234.81 o
-6 -3 0 19581.90 18315.10 1961.52 o
6 -3 0 19582.00 20517.20 1985.11 o
-6 -3 0 19581.90 19978.70 1355.87 o
-6 3 0 19582.00 20008.60 1492.90 o
6 3 0 19581.90 19286.60 1732.71 o
6 3 0 19581.90 17415.50 1965.25 o
-6 -3 0 19581.90 20621.50 1372.95 o
-6 3 0 19582.00 19670.40 1824.43 o
6 3 0 19581.90 18804.40 909.57 o
-6 3 -1 5249.38 4002.45 401.43 o
-6 -3 -1 5249.34 4672.92 701.72 o
-6 3 -1 5249.38 3661.81 871.31 o
-6 3 -1 5249.38 5087.92 1050.19 o
-6 -3 -1 5249.34 5069.93 1264.73 o
-6 -3 -1 5249.34 5522.11 698.99 o
-6 3 -1 5249.38 5271.43 787.66 o
6 -3 1 5249.38 5472.93 1182.58 o
6 3 1 5249.34 2986.54 873.95 o
6 3 1 5249.34 5312.21 1047.53 o
-6 -3 -1 5249.34 5452.54 677.40 o
6 3 1 5249.34 4819.25 524.41 o
6 3 1 5249.34 4719.70 1017.24 o
6 3 2 2928.84 2300.48 441.64 o
-6 -3 -2 2928.84 1765.54 570.76 o
-6 3 -2 2928.85 2080.99 434.61 o
-6 -3 -2 2928.84 1093.87 561.67 <
-6 3 -2 2928.85 2786.24 867.10 o
6 -3 2 2928.85 2414.42 693.09 o
6 -3 2 2928.85 2286.09 952.79 <
-6 3 -2 2928.85 3474.71 688.22 o
6 3 2 2928.84 2642.31 883.70 <
6 3 2 2928.84 3178.45 919.14 o
6 3 2 2928.84 2437.21 850.40 <
6 3 3 938.75 1445.30 542.88 <
-6 -3 -3 938.75 2292.08 1178.76 <
6 -3 3 938.77 1681.58 942.43 <
-6 3 -3 938.77 1642.00 757.30 <
6 3 3 938.75 1500.47 773.74 <
6 3 3 938.75 868.38 707.87 <
6 3 3 938.75 567.32 739.67 <
-6 -3 -4 249.61 -100.75 760.47 <
-6 -3 -4 249.61 945.14 615.77 <
6 -3 4 249.61 958.33 921.02 <
6 3 4 249.61 -163.12 681.27 <
6 3 4 249.61 1307.36 784.93 <
6 3 4 249.61 -7.20 692.14 <
6 3 5 641.75 876.77 763.44 <
-6 -3 -5 641.75 -675.27 969.82 <
-6 -3 -5 641.75 895.96 734.57 <
6 -3 5 641.75 804.81 1056.41 <
6 3 5 641.75 668.07 715.99 <
6 -4 -10 2034.86 62.37 743.44 <
6 -4 -10 2034.86 392.21 851.15 <
-6 4 9 9723.31 9344.64 1641.26 o
6 -4 -9 9723.31 11136.60 1902.54 o
6 4 -9 9723.32 10397.70 1549.85 o
6 -4 -9 9723.31 7487.95 1263.65 o
6 4 -9 9723.32 9341.05 1430.99 o
6 -4 -9 9723.31 9640.90 1641.97 o
-6 -4 9 9723.32 11117.40 1554.47 o
-6 -4 8 2058.84 1267.78 617.63 <
-6 4 8 2058.83 93.55 741.22 <
6 4 -8 2058.84 2998.54 941.12 o
6 -4 -8 2058.83 1808.72 734.39 <
6 -4 -8 2058.83 2620.72 1059.59 <
6 4 -8 2058.84 1466.89 648.94 <
6 4 -8 2058.84 2981.75 1008.85 <
6 -4 -8 2058.83 2458.80 824.90 <
-6 4 7 8336.61 5012.36 1046.85 o
6 4 -7 8336.58 8958.43 1299.75 o
6 -4 -7 8336.61 7302.04 1139.44 o
6 -4 -7 8336.61 7986.91 1512.17 o
6 -4 -7 8336.61 8216.00 1273.26 o
6 4 -7 8336.58 6233.36 1298.62 o
6 4 -7 8336.58 7971.31 1207.70 o
-6 -4 7 8336.58 9368.63 1224.47 o
6 4 -6 15085.00 15705.10 1403.77 o
6 -4 -6 15085.00 22519.00 1411.69 o
6 -4 -6 15085.00 16277.30 1932.88 o
6 4 -6 15085.00 11610.30 1046.40 o
6 4 -6 15085.00 14853.60 1749.89 o
6 -4 -6 15085.00 14456.60 1603.08 o
-6 -4 6 15085.00 16587.90 1377.41 o
-6 4 6 15085.00 12344.40 1425.10 o
-6 -4 5 1973.90 2193.73 544.88 o
-6 4 5 1973.93 827.60 433.54 <
6 4 -5 1973.90 1908.27 738.05 <
6 4 -5 1973.90 1531.65 519.19 <
6 -4 -5 1973.93 -365.82 692.63 <
6 -4 -5 1973.93 2185.33 828.70 <
-6 -4 5 1973.90 2097.78 567.45 o
6 4 -5 1973.90 -397.01 584.19 <
6 4 -5 1973.90 1772.74 643.07 <
6 -4 -5 1973.93 2406.03 695.90 o
6 4 -5 1973.90 1096.27 427.89 <
6 4 -4 19628.10 20576.00 1545.29 o
6 4 -4 19628.10 19919.90 1329.35 o
6 -4 -4 19628.10 15678.80 916.56 o
-6 -4 4 19628.10 21038.90 1316.66 o
-6 4 4 19628.10 17179.20 1355.40 o
-6 -4 4 19628.10 22722.90 2009.55 o
6 -4 -4 19628.10 20278.50 1897.84 o
-6 4 4 19628.10 20935.80 2138.67 o
6 4 -4 19628.10 19617.60 1838.97 o
6 4 -4 19628.10 20139.40 1422.17 o
-6 4 4 19628.10 17037.70 1039.21 o
6 4 -4 19628.10 20500.40 1691.53 o
6 -4 -4 19628.10 19367.00 1723.45 o
-6 -4 4 19628.10 19022.70 1240.14 o
-6 4 4 19628.10 18883.60 1151.53 o
-6 4 3 641.78 597.31 385.18 <
-6 -4 3 641.77 564.92 303.81 <
-6 4 3 641.78 422.19 183.74 <
-6 -4 3 641.77 717.25 447.10 <
-6 4 3 641.78 993.12 647.74 <
6 4 -3 641.77 858.78 363.50 <
6 -4 -3 641.78 1131.05 605.03 <
-6 -4 3 641.77 861.18 383.93 <
-6 4 3 641.78 923.55 370.31 <
-6 -4 3 641.77 918.75 652.84 <
6 4 -3 641.77 928.35 640.79 <
6 4 -3 641.77 1025.50 417.82 <
6 4 -3 641.77 1369.73 561.43 <
-6 -4 2 9497.97 10141.10 1357.29 o
-6 4 2 9498.03 9440.60 807.62 o
-6 -4 2 9497.97 10342.60 1359.61 o
6 4 -2 9497.97 9810.02 1406.55 o
6 4 -2 9497.97 12755.80 1243.21 o
-6 4 2 9498.03 8334.74 1057.19 o
-6 4 2 9498.03 10249.00 1356.51 o
6 4 -2 9497.97 10028.30 1187.70 o
-6 -4 2 9497.97 9910.77 1132.12 o
-6 -4 2 9497.97 8922.45 770.94 o
6 4 -2 9497.97 9697.27 797.85 o
-6 -4 1 1584.40 2017.42 645.88 o
6 4 -1 1584.40 1897.47 396.02 o
-6 -4 1 1584.40 1477.68 425.51 o
-6 4 1 1584.39 1093.87 480.46 <
-6 -4 1 1584.40 1778.73 488.93 o
-6 4 1 1584.39 2204.53 518.44 o
-6 -4 1 1584.40 2005.42 694.15 <
6 -4 -1 1584.39 1392.52 501.49 <
-6 -4 1 1584.40 1899.87 692.50 <
-6 -4 1 1584.40 2096.58 552.26 o
6 4 -1 1584.40 1319.36 699.34 <
6 -4 -1 1584.39 1528.06 661.19 <
6 4 -1 1584.40 2587.14 771.42 o
-6 4 1 1584.39 876.77 487.26 <
6 4 0 1497.67 1268.98 322.54 o
-6 -4 0 1497.67 2083.38 505.73 o
-6 -4 0 1497.67 1454.89 459.70 o
-6 4 0 1497.66 975.12 594.94 <
-6 4 0 1497.66 1379.33 506.95 <
-6 -4 0 1497.67 1399.72 704.53 <
6 -4 0 1497.66 1090.27 460.79 <
-6 -4 0 1497.67 1723.56 498.37 o
6 4 0 1497.67 2446.81 891.74 <
6 -4 0 1497.66 1814.72 808.00 <
6 4 0 1497.67 2172.14 758.68 <
6 4 1 2751.03 2208.12 443.66 o
-6 -4 -1 2751.03 2173.34 543.41 o
-6 -4 -1 2751.03 2816.23 439.19 o
-6 4 -1 2751.00 3150.86 896.34 o
-6 -4 -1 2751.03 1760.74 905.07 <
6 -4 1 2751.00 2252.50 701.00 o
-6 -4 -1 2751.03 2913.38 554.52 o
6 -4 1 2751.00 2080.99 559.59 o
6 -4 1 2751.00 2529.57 874.76 <
6 4 1 2751.03 3110.08 988.11 o
6 4 1 2751.03 2968.55 774.07 o
6 4 1 2751.03 2548.76 726.20 o
6 -4 2 14992.50 16048.20 2065.42 o
-6 -4 -2 14992.50 12458.30 1398.84 o
-6 -4 -2 14992.50 12477.50 2092.17 o
6 4 2 14992.50 14828.40 1730.55 o
6 -4 2 14992.50 11996.60 1364.46 o
6 -4 2 14992.50 13606.20 1416.37 o
6 4 2 14992.50 14002.00 1793.04 o
6 4 2 14992.50 14876.30 1923.63 o
-6 4 -2 14992.50 14881.10 1771.39 o
-6 -4 -3 138.63 1420.11 969.58 <
6 -4 3 138.63 269.87 418.43 <
6 -4 3 138.63 947.54 753.89 <
-6 4 -3 138.63 242.28 533.64 <
6 4 3 138.63 -226.69 534.79 <
6 4 3 138.63 1003.91 770.50 <
6 4 3 138.63 646.48 649.19 <
6 -4 4 17537.30 14744.40 2325.71 o
6 4 4 17537.30 16178.90 2059.51 o
-6 -4 -4 17537.30 16068.60 2487.18 o
-6 -4 -4 17537.30 17818.50 1843.02 o
6 4 4 17537.30 18803.20 2262.74 o
6 4 4 17537.30 18436.20 2151.63 o
-6 -4 -5 582.03 248.28 902.28 <
-6 -4 -5 582.03 -747.24 669.38 <
6 4 5 582.03 -118.74 655.26 <
6 4 5 582.03 1535.25 860.35 <
6 -5 -10 300.11 983.52 901.79 <
-6 -5 9 1487.95 1158.64 797.67 <
-6 5 9 1487.95 1555.64 888.49 <
6 5 -9 1487.95 2024.61 917.36 <
6 -5 -9 1487.95 -229.09 535.68 <
6 -5 -9 1487.95 2294.48 1087.87 <
6 -5 -9 1487.95 1731.96 830.03 <
-6 -5 8 5168.56 6434.86 1103.82 o
-6 5 8 5168.57 4466.62 1034.38 o
6 5 -8 5168.56 5390.17 1045.59 o
6 5 -8 5168.56 6902.64 1241.97 o
6 -5 -8 5168.57 5301.42 1055.10 o
6 -5 -8 5168.57 7898.15 1576.03 o
6 5 -8 5168.56 4693.31 1184.90 o
6 -5 -8 5168.57 4917.60 1119.35 o
-6 -5 7 2625.18 3202.44 799.61 o
-6 5 7 2625.20 -226.69 744.95 <
6 5 -7 2625.18 2946.96 857.43 o
6 -5 -7 2625.20 2869.00 809.99 o
6 -5 -7 2625.20 2823.42 967.77 <
6 5 -7 2625.18 2336.46 864.33 <
6 -5 -7 2625.20 2593.14 848.22 o
6 5 -6 3033.96 1883.08 505.50 o
-6 -5 6 3033.96 3411.14 720.33 o
-6 5 6 3033.95 859.98 511.78 <
6 5 -6 3033.96 2994.94 741.62 o
6 -5 -6 3033.95 3841.73 776.75 o
-6 5 6 3033.95 1931.06 804.02 <
6 5 -6 3033.96 2660.30 677.77 o
6 -5 -6 3033.95 2650.71 920.33 <
6 5 -6 3033.96 3976.06 947.23 o
6 -5 -6 3033.95 2913.38 779.52 o
-6 -5 5 1066.37 1157.44 474.45 <
-6 5 5 1066.38 -107.95 622.73 <
6 5 -5 1066.37 1621.61 674.84 <
-6 5 5 1066.38 244.68 667.21 <
6 -5 -5 1066.38 1143.04 612.57 <
6 5 -5 1066.37 1487.28 529.98 <
-6 5 5 1066.38 780.82 504.95 <
-6 -5 5 1066.37 888.77 474.62 <
6 5 -5 1066.37 1600.02 690.63 <
6 5 -5 1066.37 1325.35 597.22 <
6 -5 -5 1066.38 1258.19 633.62 <
6 5 -5 1066.37 340.63 366.20 <
-6 5 4 324.42 379.02 222.88 <
-6 -5 4 324.43 426.99 364.36 <
-6 5 4 324.42 226.69 314.44 <
6 5 -4 324.43 801.21 385.51 <
-6 5 4 324.42 283.06 496.62 <
6 5 -4 324.43 401.80 372.83 <
6 -5 -4 324.42 480.97 197.09 <
-6 -5 4 324.43 525.34 457.69 <
-6 5 4 324.42 464.17 347.43 <
-6 -5 4 324.43 826.40 659.67 <
6 -5 -4 324.42 560.13 476.80 <
6 5 -4 324.43 -46.78 442.77 <
6 5 -4 324.43 651.28 386.31 <
6 -5 -4 324.42 734.04 489.36 <
6 5 -4 324.43 137.93 397.23 <
-6 -5 3 11.35 59.97 296.24 <
-6 5 3 11.35 231.49 184.26 <
-6 -5 3 11.35 -826.40 692.69 <
-6 5 3 11.35 51.57 461.77 <
6 5 -3 11.35 418.60 354.25 <
-6 -5 3 11.35 359.83 400.10 <
-6 5 3 11.35 34.78 242.28 <
-6 -5 3 11.35 435.39 506.76 <
6 5 -3 11.35 187.11 513.24 <
6 -5 -3 11.35 -117.54 431.73 <
6 5 -3 11.35 364.62 424.10 <
6 5 -3 11.35 -662.08 592.38 <
-6 5 3 11.35 -382.61 396.34 <
-6 -5 2 1439.08 1791.93 409.15 o
-6 -5 2 1439.08 2582.34 753.66 o
-6 5 2 1439.05 2006.62 758.37 <
-6 -5 2 1439.08 -207.50 821.13 <
-6 5 2 1439.05 1458.49 243.20 o
6 -5 -2 1439.05 1325.35 566.78 <
-6 -5 2 1439.08 1953.85 667.18 <
-6 -5 2 1439.08 2157.75 792.25 <
6 5 -2 1439.08 2512.78 750.67 o
6 5 -2 1439.08 1803.92 611.70 <
6 5 -2 1439.08 2551.16 715.16 o
-6 5 2 1439.05 1180.22 426.44 <
6 5 -1 491.13 614.10 355.75 <
-6 -5 1 491.13 -118.74 321.96 <
-6 5 1 491.14 353.83 511.21 <
-6 -5 1 491.13 855.18 424.28 <
-6 -5 1 491.13 23.99 470.60 <
6 -5 -1 491.14 -450.98 514.21 <
-6 -5 1 491.13 308.25 554.42 <
-6 -5 1 491.13 -393.41 443.59 <
6 5 -1 491.13 593.71 605.48 <
6 -5 -1 491.14 310.65 469.31 <
6 5 -1 491.13 1291.77 718.11 <
-6 5 1 491.14 959.53 688.35 <
-6 -5 0 4685.63 5312.21 735.68 o
-6 5 0 4685.60 4606.95 1044.33 o
-6 -5 0 4685.63 5197.07 735.29 o
-6 -5 0 4685.63 4612.95 1058.65 o
6 -5 0 4685.60 5097.52 915.81 o
6 5 0 4685.63 6502.03 1056.62 o
6 5 0 4685.63 3920.89 962.73 o
6 -5 0 4685.60 4501.41 1043.03 o
-6 -5 0 4685.63 5511.31 675.68 o
6 5 0 4685.63 4090.01 569.79 o
-6 -5 -1 587.03 639.29 398.01 <
-6 5 -1 587.04 1260.59 755.82 <
-6 -5 -1 587.03 987.12 808.59 <
6 -5 1 587.04 495.36 554.34 <
-6 -5 -1 587.03 587.71 363.42 <
6 -5 1 587.04 664.48 375.10 <
6 -5 1 587.04 1681.58 805.32 <
6 5 1 587.03 543.34 580.62 <
6 5 1 587.03 714.85 583.76 <
6 5 1 587.03 508.55 575.89 <
6 5 2 6445.25 7244.47 1193.05 o
-6 -5 -2 6445.25 5517.31 1401.81 o
-6 5 -2 6445.22 8105.65 1359.77 o
6 -5 2 6445.22 5477.73 955.74 o
6 -5 2 6445.22 5486.13 1317.55 o
6 5 2 6445.25 7886.16 1347.26 o
6 5 2 6445.25 5655.24 1278.99 o
-6 -5 -3 891.55 157.12 863.20 <
6 -5 3 891.56 2445.61 997.93 <
6 -5 3 891.56 -64.77 458.35 <
-6 5 -3 891.56 -44.38 566.04 <
6 5 3 891.55 1475.28 705.11 <
6 5 3 891.55 1362.54 746.61 <
6 5 3 891.55 749.64 712.83 <
-6 -5 -4 23.02 1048.29 1052.64 <
6 -5 4 23.02 -235.09 833.47 <
6 -5 4 23.02 -136.73 498.89 <
6 5 4 23.02 -913.95 681.47 <
6 5 4 23.02 -458.18 720.33 <
-6 -5 -5 582.21 7.20 886.68 <
-6 -5 -5 582.21 -8.40 609.75 <
6 5 5 582.21 399.40 723.53 <
6 -6 -10 2694.44 2043.80 839.01 <
-6 -6 9 154.08 223.09 627.24 <
-6 6 9 154.09 -576.92 718.84 <
6 -6 -9 154.09 314.25 810.68 <
6 6 -9 154.08 1183.82 803.43 <
6 -6 -9 154.09 530.14 617.11 <
6 -6 -9 154.09 618.90 712.93 <
-6 -6 8 1831.51 1589.23 756.92 <
-6 6 8 1831.51 1802.72 916.49 <
6 6 -8 1831.51 3689.40 1012.06 o
6 -6 -8 1831.51 1198.22 655.76 <
6 -6 -8 1831.51 1649.20 977.09 <
6 -6 -8 1831.51 1478.88 782.55 <
-6 6 7 10778.20 8790.51 1421.02 o
6 6 -7 10778.10 10606.40 1402.85 o
6 -6 -7 10778.20 9264.28 1220.46 o
6 -6 -7 10778.20 12653.80 1894.29 o
6 6 -7 10778.10 6603.98 891.33 o
6 6 -7 10778.10 8081.66 1482.63 o
6 -6 -7 10778.20 9602.52 1360.63 o
-6 -6 7 10778.10 10897.90 1363.85 o
6 6 -6 1345.31 1543.65 433.77 o
-6 -6 6 1345.31 1715.16 609.39 <
-6 6 6 1345.31 1054.29 522.09 <
-6 6 6 1345.31 779.62 684.39 <
6 6 -6 1345.31 1351.74 585.28 <
6 -6 -6 1345.31 2102.57 585.60 o
6 -6 -6 1345.31 1057.88 1662.87 <
6 6 -6 1345.31 -179.91 524.40 <
6 6 -6 1345.31 1676.78 630.12 <
6 -6 -6 1345.31 2031.81 720.34 <
-6 6 5 10106.90 8268.77 1165.17 o
6 6 -5 10106.90 10030.70 1111.11 o
6 -6 -5 10106.90 13553.40 799.31 o
6 -6 -5 10106.90 11107.80 1604.36 o
-6 6 5 10106.90 10380.90 1731.65 o
6 6 -5 10106.90 9847.20 1294.16 o
6 6 -5 10106.90 9614.51 1079.44 o
6 6 -5 10106.90 11909.00 1440.52 o
6 -6 -5 10106.90 11311.70 1510.92 o
-6 -6 5 10106.90 10787.50 1060.94 o
-6 6 5 10106.90 7714.64 1092.77 o
-6 6 4 2800.20 1911.87 384.27 o
6 6 -4 2800.20 2575.14 600.90 o
-6 -6 4 2800.20 2302.88 545.17 o
-6 6 4 2800.20 1793.13 409.76 o
6 6 -4 2800.20 2714.28 589.87 o
6 -6 -4 2800.20 1764.34 252.04 o
-6 6 4 2800.20 2942.17 947.70 o
6 6 -4 2800.20 3695.40 664.38 o
-6 6 4 2800.20 2371.24 532.62 o
-6 -6 4 2800.20 3870.51 686.23 o
6 -6 -4 2800.20 3381.15 899.43 o
-6 6 4 2800.20 2164.94 433.04 o
-6 -6 4 2800.20 2732.27 918.04 <
6 6 -4 2800.20 3661.81 935.31 o
6 6 -4 2800.20 3054.91 774.88 o
6 -6 -4 2800.20 3078.90 731.32 o
-6 6 3 1264.42 800.01 213.74 o
-6 -6 3 1264.44 1576.03 435.27 o
-6 6 3 1264.42 1211.41 254.89 o
6 6 -3 1264.44 1439.30 397.95 o
-6 -6 3 1264.44 -171.52 672.30 <
-6 -6 3 1264.44 7418.38 1345.64 o
-6 6 3 1264.42 1541.25 707.49 <
6 6 -3 1264.44 1595.22 519.48 o
6 -6 -3 1264.42 1201.81 616.80 <
6 -6 -3 1264.42 1049.49 451.07 <
-6 -6 3 1264.44 1514.86 659.58 <
6 6 -3 1264.44 2855.81 884.78 o
6 6 -3 1264.44 1145.44 503.23 <
-6 6 3 1264.42 1199.42 488.55 <
6 6 -3 1264.44 722.05 507.28 <
-6 -6 2 246.96 295.06 328.54 <
-6 -6 2 246.96 1316.96 712.60 <
6 -6 -2 246.96 518.15 528.42 <
-6 6 2 246.96 1146.64 753.21 <
-6 -6 2 246.96 828.80 373.05 <
6 -6 -2 246.96 6.00 459.48 <
-6 -6 2 246.96 289.06 478.51 <
-6 -6 2 246.96 1224.60 735.98 <
6 6 -2 246.96 340.63 652.38 <
6 6 -2 246.96 147.53 393.52 <
-6 6 2 246.96 546.93 587.17 <
6 6 -2 246.96 -373.02 653.37 <
-6 6 1 6.69 519.35 535.34 <
-6 -6 1 6.69 680.07 455.36 <
-6 -6 1 6.69 549.33 421.06 <
-6 -6 1 6.69 -304.65 402.59 <
6 -6 -1 6.69 -253.08 501.13 <
-6 -6 1 6.69 -56.37 503.74 <
6 6 -1 6.69 443.78 547.56 <
6 -6 -1 6.69 388.61 530.89 <
-6 6 1 6.69 1075.88 741.15 <
6 6 -1 6.69 816.80 585.90 <
-6 -6 0 4244.93 5199.47 765.14 o
-6 6 0 4244.92 4686.12 1043.69 o
-6 -6 0 4244.93 5152.69 1128.92 o
6 -6 0 4244.92 3378.75 856.93 o
-6 -6 0 4244.93 4904.41 726.30 o
6 6 0 4244.93 6066.64 1098.74 o
-6 -6 0 4244.93 3689.40 605.90 o
-6 -6 0 4244.93 4939.19 584.03 o
6 -6 0 4244.92 4082.81 986.35 o
6 6 0 4244.93 4754.48 1142.95 o
-6 -6 -1 761.44 145.13 385.16 <
-6 6 -1 761.46 1464.49 727.60 <
-6 -6 -1 761.44 1292.97 877.55 <
6 -6 1 761.46 1444.10 602.41 <
-6 -6 -1 761.44 954.73 392.36 <
6 -6 1 761.46 1080.67 640.52 <
6 6 1 761.44 1091.47 720.97 <
6 6 1 761.44 1182.62 668.90 <
-6 -6 -2 3606.42 2727.47 1133.09 <
-6 6 -2 3606.45 2968.55 1050.54 <
6 -6 2 3606.45 3709.79 788.06 o
6 -6 2 3606.45 3245.62 1080.97 o
6 6 2 3606.42 4734.09 1236.69 o
6 6 2 3606.42 3667.81 891.76 o
6 6 2 3606.42 3328.38 902.10 o
-6 -6 -3 6421.73 4580.57 1367.43 o
6 -6 3 6421.71 6484.04 1605.41 o
6 -6 3 6421.71 5380.58 1034.63 o
-6 6 -3 6421.71 5506.52 1263.53 o
6 6 3 6421.73 6079.84 1351.91 o
6 6 3 6421.73 5703.22 1091.30 o
6 6 3 6421.73 5141.89 1244.42 o
-6 -6 -4 199.57 1787.13 1149.68 <
6 -6 4 199.57 919.95 942.69 <
6 -6 4 199.57 273.47 465.28 <
-6 6 -4 199.57 470.17 718.11 <
6 6 4 199.57 -690.86 628.38 <
6 6 4 199.57 600.91 598.96 <
6 6 4 199.57 -515.75 728.63 <
-6 -6 -5 6223.98 4845.64 1179.60 o
6 6 5 6223.98 8619.00 1554.58 o
6 -7 -10 1516.05 -644.09 766.65 <
-6 -7 9 4329.27 4518.20 1098.03 o
-6 7 9 4329.23 5771.59 1430.15 o
6 -7 -9 4329.23 3052.51 1304.76 <
6 7 -9 4329.27 5583.28 1280.89 o
6 -7 -9 4329.23 3279.20 1026.06 o
6 -7 -9 4329.23 4197.95 1123.84 o
-6 -7 8 3634.52 3481.90 924.95 o
-6 7 8 3634.55 4617.75 1225.97 o
6 7 -8 3634.52 3568.26 913.38 o
6 -7 -8 3634.55 3826.13 1153.54 o
6 -7 -8 3634.55 2679.49 778.90 o
6 -7 -8 3634.55 3237.22 949.73 o
6 7 -7 145.29 423.39 345.99 <
-6 -7 7 145.29 714.85 526.38 <
-6 7 7 145.30 976.32 791.05 <
-6 7 7 145.30 -623.70 968.42 <
6 7 -7 145.29 -217.09 458.03 <
6 -7 -7 145.30 273.47 526.41 <
6 -7 -7 145.30 281.86 605.58 <
6 7 -7 145.29 -858.78 786.35 <
6 -7 -7 145.30 937.94 615.62 <
6 7 -6 1889.03 1688.78 535.32 o
-6 -7 6 1889.03 2107.37 665.27 o
-6 7 6 1889.01 1344.54 852.73 <
-6 7 6 1889.01 1031.50 771.15 <
6 7 -6 1889.03 1673.18 681.40 <
6 -7 -6 1889.01 2557.15 627.35 o
6 -7 -6 1889.01 1206.61 765.90 <
6 7 -6 1889.03 2653.11 737.70 o
6 7 -6 1889.03 736.44 590.59 <
6 -7 -6 1889.01 2774.25 834.50 o
-6 7 5 8830.65 7863.37 1241.21 o
6 7 -5 8830.64 8530.24 1078.06 o
6 -7 -5 8830.65 9360.24 887.71 o
-6 -7 5 8830.64 9012.41 1640.82 o
6 -7 -5 8830.65 9096.37 1478.60 o
6 7 -5 8830.64 10012.70 1328.96 o
-6 7 5 8830.65 9246.29 1682.19 o
6 7 -5 8830.64 9373.43 1103.46 o
6 7 -5 8830.64 9001.61 1320.18 o
6 -7 -5 8830.65 9432.20 1275.37 o
-6 -7 5 8830.64 8983.62 1004.25 o
6 7 -4 2869.28 3382.35 762.46 o
-6 -7 4 2869.28 2474.39 544.29 o
6 7 -4 2869.28 2104.97 453.43 o
-6 7 4 2869.33 3192.84 657.24 o
-6 7 4 2869.33 3130.47 905.85 o
6 7 -4 2869.28 2884.59 625.93 o
-6 -7 4 2869.28 3347.57 654.11 o
-6 7 4 2869.33 1367.33 314.83 o
6 -7 -4 2869.33 2878.60 819.12 o
-6 -7 4 2869.28 3194.04 936.58 o
6 7 -4 2869.28 2696.29 808.62 o
6 7 -4 2869.28 2680.69 711.80 o
-6 7 4 2869.33 2193.73 432.56 o
6 7 -3 12964.50 14201.10 1232.62 o
-6 -7 3 12964.50 21031.70 1693.34 o
-6 -7 3 12964.50 14046.40 1751.36 o
6 -7 -3 12964.40 13116.80 1427.56 o
6 -7 -3 12964.40 14144.70 1632.70 o
6 7 -3 12964.50 14226.30 1648.01 o
-6 7 3 12964.40 14734.80 1230.67 o
6 7 -3 12964.50 14173.50 1359.85 o
-6 7 3 12964.40 13528.20 1670.81 o
6 7 -3 12964.50 13672.10 1374.82 o
-6 7 3 12964.40 9805.22 706.31 o
-6 -7 3 12964.50 11149.80 1888.79 o
-6 -7 3 12964.50 13331.50 1138.87 o
-6 -7 3 12964.50 11340.50 1411.33 o
-6 7 3 12964.40 11536.00 784.80 o
6 7 -3 12964.50 14352.20 1184.99 o
-6 -7 2 21889.20 25803.00 1998.99 o
-6 -7 2 21889.20 21998.50 2177.89 o
-6 -7 2 21889.20 28843.50 1530.61 o
-6 -7 2 21889.20 25595.50 2284.27 o
6 -7 -2 21889.30 25003.00 1862.45 o
6 7 -2 21889.20 23587.70 2204.33 o
-6 7 2 21889.30 23885.20 1772.22 o
6 7 -2 21889.20 23681.30 1846.88 o
-6 7 2 21889.30 25246.50 2175.71 o
6 7 -2 21889.20 25982.90 1791.17 o
6 -7 -2 21889.30 23663.30 2028.32 o
-6 -7 2 21889.20 23832.40 1363.37 o
6 7 -2 21889.20 24890.30 1294.60 o
6 7 -1 3851.61 4392.26 588.09 o
-6 7 1 3851.56 3462.71 892.53 o
-6 -7 1 3851.61 4687.31 753.58 o
-6 -7 1 3851.61 3749.37 858.66 o
-6 -7 1 3851.61 4249.53 755.24 o
-6 -7 1 3851.61 4207.55 1072.62 o
6 -7 -1 3851.56 4215.94 869.06 o
6 7 -1 3851.61 3834.53 989.68 o
-6 -7 1 3851.61 3342.77 780.34 o
6 -7 -1 3851.56 4094.80 957.09 o
-6 7 1 3851.56 4437.84 924.31 o
6 7 -1 3851.61 3195.24 779.35 o
-6 -7 0 26969.20 29414.50 1738.72 o
6 -7 0 26969.20 29057.00 2538.97 o
-6 -7 0 26969.20 29681.90 2726.77 o
-6 -7 0 26969.20 27819.20 1641.71 o
6 -7 0 26969.20 28454.90 2066.88 o
6 7 0 26969.20 31983.60 2187.61 o
-6 -7 0 26969.20 24974.20 1210.70 o
-6 7 0 26969.20 27956.00 2447.81 o
6 7 0 26969.20 30080.10 1394.80 o
6 7 1 1250.81 1409.31 476.29 <
-6 7 -1 1250.80 1675.58 936.27 <
-6 -7 -1 1250.81 1627.61 833.16 <
6 -7 1 1250.80 1348.14 719.22 <
6 -7 1 1250.80 1139.44 672.14 <
6 7 1 1250.81 3414.74 952.15 o
-6 -7 -2 5465.70 6139.81 1486.85 o
-6 7 -2 5465.68 4197.95 1253.86 o
6 -7 2 5465.68 5066.33 992.15 o
6 -7 2 5465.68 5482.53 1296.40 o
6 7 2 5465.70 5246.24 1080.87 o
6 7 2 5465.70 5874.74 1040.49 o
-6 -7 -3 875.50 1099.86 762.10 <
6 -7 3 875.50 1173.03 909.51 <
6 -7 3 875.50 1903.47 705.82 <
-6 7 -3 875.50 363.42 676.24 <
6 7 3 875.50 1458.49 874.75 <
6 7 3 875.50 1445.30 712.45 <
6 7 3 875.50 349.03 616.38 <
-6 -7 -4 1479.93 3961.67 1613.68 <
6 -7 4 1479.98 4185.96 1494.66 <
6 -7 4 1479.98 1122.65 631.38 <
-6 7 -4 1479.98 1819.51 893.21 <
6 7 4 1479.93 2236.91 1003.92 <
6 7 4 1479.93 1513.66 817.85 <
-6 -7 -5 184.17 364.62 682.27 <
6 7 5 184.17 943.94 749.16 <
-6 8 9 15400.00 19584.10 2387.07 o
6 8 -9 15400.00 17888.10 2054.78 o
6 -8 -9 15400.00 14115.90 1743.46 o
6 -8 -9 15400.00 14497.30 1914.30 o
-6 -8 8 3021.58 2988.94 942.99 o
-6 8 8 3021.58 3761.37 1166.49 o
-6 8 8 3021.58 1362.54 1105.58 <
6 -8 -8 3021.58 3122.08 1217.99 <
6 8 -8 3021.58 4229.14 1058.25 o
6 -8 -8 3021.58 1266.58 711.51 <
6 -8 -8 3021.58 2567.95 850.28 o
-6 8 7 14413.00 14273.00 1939.54 o
6 8 -7 14413.00 15636.80 1631.60 o
6 -8 -7 14413.00 11579.20 1481.17 o
6 -8 -7 14413.00 13854.40 2080.46 o
-6 8 7 14413.00 13464.60 2413.06 o
6 8 -7 14413.00 14475.70 1470.20 o
6 8 -7 14413.00 12497.90 1841.80 o
6 8 -7 14413.00 10932.70 1270.76 o
6 -8 -7 14413.00 14070.30 1671.78 o
-6 -8 7 14413.00 17182.80 1626.01 o
6 8 -6 4751.51 4051.62 849.31 o
-6 -8 6 4751.51 5457.34 917.56 o
-6 8 6 4751.50 4045.63 1114.78 o
-6 8 6 4751.50 4032.43 1291.49 o
6 8 -6 4751.51 4604.56 900.19 o
6 -8 -6 4751.50 4199.15 765.66 o
6 -8 -6 4751.50 4660.93 1273.38 o
6 8 -6 4751.51 4151.18 886.27 o
6 8 -6 4751.51 4208.75 1013.17 o
6 -8 -6 4751.50 5242.64 1030.50 o
6 8 -5 411.46 756.83 556.77 <
-6 -8 5 411.46 564.92 372.51 <
-6 8 5 411.48 151.13 589.16 <
-6 8 5 411.48 226.69 542.37 <
6 8 -5 411.46 -27.59 402.14 <
6 -8 -5 411.48 994.32 397.80 <
-6 -8 5 411.46 397.01 712.47 <
6 8 -5 411.46 484.56 575.58 <
6 8 -5 411.46 582.92 529.73 <
6 -8 -5 411.48 307.05 514.72 <
6 -8 -5 411.48 385.01 527.79 <
-6 8 4 36031.20 33948.20 2138.38 o
6 8 -4 36031.00 36807.70 2076.01 o
-6 -8 4 36031.00 40659.00 3083.82 o
6 -8 -4 36031.20 35098.50 2430.47 o
6 -8 -4 36031.20 37087.10 2803.61 o
6 8 -4 36031.00 38823.90 2575.50 o
-6 8 4 36031.20 37397.80 2985.82 o
6 8 -4 36031.00 38838.30 2194.23 o
6 8 -4 36031.00 34887.40 2371.64 o
-6 -8 4 36031.00 37249.00 1899.16 o
-6 -8 3 18659.70 18880.00 2276.92 o
6 8 -3 18659.70 18983.10 1485.84 o
-6 -8 3 18659.70 20771.50 2126.03 o
6 -8 -3 18659.70 18763.70 1750.88 o
6 -8 -3 18659.70 17666.20 1906.92 o
6 8 -3 18659.70 18617.30 1971.60 o
-6 8 3 18659.70 20833.80 1457.77 o
6 8 -3 18659.70 19408.90 1652.47 o
-6 8 3 18659.70 18870.40 2077.62 o
6 8 -3 18659.70 18389.40 1609.88 o
-6 8 3 18659.70 15290.10 924.51 o
-6 -8 3 18659.70 19887.50 1372.92 o
6 8 -3 18659.70 19934.30 1388.57 o
-6 8 3 18659.70 20223.30 1054.74 o
-6 -8 2 25649.80 24886.70 2249.08 o
-6 -8 2 25649.80 27740.10 2091.46 o
-6 -8 2 25649.80 30858.60 1710.88 o
-6 -8 2 25649.80 29637.60 2561.43 o
6 -8 -2 25649.80 28318.20 2054.78 o
-6 8 2 25649.80 26672.60 1970.49 o
6 8 -2 25649.80 28067.50 2029.68 o
6 8 -2 25649.80 28946.70 1916.49 o
6 -8 -2 25649.80 25479.20 2200.89 o
-6 8 2 25649.80 24506.50 2329.98 o
-6 -8 2 25649.80 26822.50 1566.42 o
6 8 -2 25649.80 28547.30 1467.48 o
-6 -8 1 4928.54 5266.63 898.52 o
-6 8 1 4928.52 5095.12 1189.33 o
-6 -8 1 4928.54 6045.05 880.06 o
-6 -8 1 4928.54 4022.84 861.37 o
-6 -8 1 4928.54 5873.54 1310.97 o
6 -8 -1 4928.52 5206.66 982.45 o
6 -8 -1 4928.52 6108.62 1201.61 o
6 8 -1 4928.54 5808.77 717.99 o
6 8 -1 4928.54 4707.71 914.33 o
6 8 0 926.05 1370.93 483.07 <
-6 8 0 926.05 1080.67 788.73 <
-6 -8 0 926.05 1369.73 824.82 <
-6 -8 0 926.05 1005.11 407.35 <
6 -8 0 926.05 1674.38 685.94 <
6 -8 0 926.05 628.49 573.03 <
6 8 0 926.05 743.64 615.87 <
6 8 1 2698.62 2804.23 578.10 o
-6 8 -1 2698.66 3267.21 1163.43 <
-6 -8 -1 2698.62 2793.44 1158.09 <
6 -8 1 2698.66 3516.69 932.34 o
6 -8 1 2698.66 2910.98 903.96 o
6 8 1 2698.62 4630.94 1021.96 o
6 -8 2 31351.40 31476.30 3050.63 o
-6 -8 -2 31351.30 33755.10 3486.56 o
6 -8 2 31351.40 27303.50 2268.38 o
6 8 2 31351.30 35655.00 2482.19 o
-6 8 -2 31351.40 29231.00 2962.86 o
-6 -8 -3 5424.13 4815.65 1443.19 o
6 -8 3 5424.18 5104.71 1548.63 o
6 -8 3 5424.18 4398.26 977.54 o
-6 8 -3 5424.18 4161.97 1266.79 o
6 8 3 5424.13 5952.70 1270.42 o
-6 8 -4 15393.30 16760.60 2553.07 o
-6 -8 -4 15393.30 17914.50 2757.42 o
6 -8 4 15393.30 16282.10 1731.56 o
-6 9 9 104.01 2752.66 1306.69 <
6 -9 -9 104.01 -334.64 632.99 <
-6 -9 8 2803.55 4588.96 1152.27 o
-6 9 8 2803.53 4253.13 1397.56 o
-6 9 8 2803.53 2149.35 1626.30 <
6 -9 -8 2803.53 2510.38 1192.56 <
6 9 -8 2803.55 2475.59 899.43 <
6 -9 -8 2803.53 1899.87 835.73 <
6 -9 -8 2803.53 3214.43 949.14 o
-6 9 7 28003.40 30864.60 2701.66 o
6 9 -7 28003.40 31514.60 2245.73 o
6 -9 -7 28003.40 29516.40 3044.49 o
6 -9 -7 28003.40 18800.80 1846.20 o
-6 9 7 28003.40 28151.50 3464.63 o
6 9 -7 28003.40 20552.00 1990.54 o
6 9 -7 28003.40 27754.50 2597.15 o
6 9 -7 28003.40 23502.50 1965.68 o
6 -9 -7 28003.40 29629.20 2391.41 o
-6 -9 7 28003.40 30861.00 2152.01 o
-6 9 6 51861.60 51675.60 3395.16 o
6 9 -6 51861.60 53399.20 2798.92 o
6 -9 -6 51861.60 44298.00 2473.99 o
6 -9 -6 51861.60 52033.00 3796.52 o
6 9 -6 51861.60 49300.80 2864.76 o
-6 9 6 51861.60 53865.70 4270.39 o
6 9 -6 51861.60 44942.10 3372.93 o
6 9 -6 51861.60 49613.80 2794.08 o
6 -9 -6 51861.60 52836.60 3030.22 o
-6 -9 6 51861.60 53243.20 2688.32 o
-6 9 5 34947.60 30540.70 2619.01 o
6 9 -5 34947.60 37093.10 2197.64 o
6 -9 -5 34947.60 33006.70 1514.24 o
-6 -9 5 34947.60 36217.50 3239.70 o
6 -9 -5 34947.60 37372.60 2985.67 o
6 9 -5 34947.60 36239.10 2458.44 o
-6 9 5 34947.60 37494.90 3215.05 o
6 9 -5 34947.60 36992.40 2511.16 o
6 9 -5 34947.60 35599.80 2292.03 o
-6 -9 5 34947.60 35796.60 2049.58 o
-6 9 4 18436.70 16005.00 1629.04 o
6 9 -4 18436.60 18761.30 1560.75 o
-6 -9 4 18436.60 20439.20 2329.60 o
6 -9 -4 18436.70 19172.70 1797.41 o
6 -9 -4 18436.70 18297.10 2104.30 o
6 9 -4 18436.60 19389.70 1914.40 o
-6 9 4 18436.70 21212.90 2308.62 o
6 9 -4 18436.60 20357.70 1714.51 o
6 9 -4 18436.60 18552.60 1712.16 o
-6 -9 4 18436.60 18503.40 1434.84 o
6 9 -3 2302.03 2752.66 830.21 o
-6 -9 3 2302.03 2686.69 611.45 o
-6 9 3 2302.00 2384.44 542.48 o
-6 9 3 2302.00 3053.71 1061.53 <
6 9 -3 2302.03 2695.09 665.65 o
6 -9 -3 2302.00 2824.62 731.91 o
-6 -9 3 2302.03 2672.30 913.88 <
-6 -9 3 2302.03 2140.96 853.78 <
6 -9 -3 2302.00 2401.23 889.33 <
6 9 -3 2302.03 2010.22 658.33 o
-6 9 3 2302.00 3280.40 752.47 o
-6 -9 2 17394.40 17684.20 1757.39 o
-6 -9 2 17394.40 19356.20 1728.52 o
-6 -9 2 17394.40 18810.40 2129.88 o
6 -9 -2 17394.20 19408.90 1775.19 o
6 9 -2 17394.40 17300.40 1704.27 o
-6 9 2 17394.20 16331.20 1723.25 o
6 -9 -2 17394.20 16220.90 1830.85 o
6 9 -2 17394.40 19089.90 1580.61 o
-6 9 2 17394.20 15579.20 1968.41 o
-6 -9 2 17394.40 18432.60 1337.65 o
6 9 -2 17394.40 18646.10 1337.80 o
-6 9 2 17394.20 13405.90 785.06 o
6 -9 -1 68193.80 71942.10 3872.76 o
-6 -9 1 68193.80 76694.20 4209.03 o
6 -9 -1 68193.80 72117.30 3217.37 o
6 9 -1 68193.80 69025.10 3444.71 o
-6 9 1 68193.80 64325.80 4079.05 o
6 9 -1 68193.80 69753.20 2447.48 o
-6 -9 1 68193.80 74597.60 3061.98 o
6 -9 0 38877.70 39145.30 3092.39 o
-6 -9 0 38877.70 45352.30 3492.65 o
-6 -9 0 38877.70 38342.90 2071.41 o
6 -9 0 38877.70 41141.10 2562.89 o
6 9 0 38877.70 40113.20 2738.79 o
-6 9 0 38877.70 38345.30 3079.33 o
6 9 0 38877.70 41208.30 1913.46 o
6 -9 1 31275.60 31141.60 2930.00 o
-6 -9 -1 31275.50 34601.90 3366.20 o
6 -9 1 31275.60 30219.30 2378.86 o
6 9 1 31275.50 35604.60 2482.86 o
-6 9 -1 31275.60 30297.20 2865.42 o
-6 -9 -2 1179.48 692.06 797.67 <
-6 9 -2 1179.51 1083.07 908.24 <
6 -9 2 1179.51 1938.26 756.38 <
6 -9 2 1179.51 1249.79 768.56 <
6 9 2 1179.48 2883.39 965.37 <
-6 -9 -3 3341.63 2794.64 1264.88 <
6 -9 3 3341.65 4320.29 1452.04 <
-6 9 -3 3341.65 2901.39 1258.35 <
6 -9 3 3341.65 3046.51 923.57 o
6 9 3 3341.63 3178.45 1049.50 o
-6 9 -4 12796.60 10635.20 2170.66 o
6 -9 4 12796.60 13687.70 1675.37 o
-6 10 9 11501.80 12975.30 2057.24 o
6 -10 -9 11501.80 11570.80 1684.04 o
-6 10 8 52024.50 63794.50 3780.31 o
6 10 -8 52024.30 61972.60 3194.83 o
6 -10 -8 52024.50 58032.50 3352.13 o
-6 -10 8 52024.30 64960.30 3058.55 o
6 10 -7 3063.43 2101.38 806.97 <
-6 -10 7 3063.43 3780.56 908.47 o
-6 10 7 3063.44 3946.08 1157.97 o
-6 10 7 3063.44 2635.12 1345.47 <
6 10 -7 3063.43 4316.70 994.59 o
6 -10 -7 3063.44 4056.42 1322.25 o
6 10 -7 3063.43 2635.12 920.66 <
6 -10 -7 3063.44 3502.29 936.58 o
-6 10 6 12926.30 16090.20 1968.65 o
6 10 -6 12926.20 14180.70 1517.79 o
6 -10 -6 12926.30 11410.00 1176.88 o
6 -10 -6 12926.30 14989.10 2184.34 o
6 10 -6 12926.20 14286.20 1536.12 o
-6 10 6 12926.30 13302.70 2217.15 o
6 10 -6 12926.20 12390.00 1697.14 o
6 10 -6 12926.20 14071.50 1564.15 o
-6 -10 6 12926.20 15468.90 1493.45 o
-6 10 5 35310.40 32300.30 2736.49 o
6 10 -5 35310.40 36619.40 2295.87 o
6 -10 -5 35310.40 33232.20 1582.48 o
-6 -10 5 35310.40 35046.90 3254.85 o
6 -10 -5 35310.40 37313.80 3056.57 o
6 -10 -5 35310.40 32801.60 2505.02 o
6 10 -5 35310.40 36064.00 2491.71 o
-6 10 5 35310.40 36804.10 3241.70 o
6 10 -5 35310.40 36788.50 2554.01 o
6 10 -5 35310.40 36819.70 2416.97 o
-6 -10 5 35310.40 36979.20 2126.19 o
-6 10 4 18802.10 13284.70 1672.79 o
6 10 -4 18802.00 19489.30 1626.18 o
-6 -10 4 18802.00 19316.60 2292.59 o
6 -10 -4 18802.10 19344.20 2200.42 o
6 -10 -4 18802.10 19068.30 1844.13 o
6 10 -4 18802.00 21452.70 2001.03 o
6 10 -4 18802.00 19811.90 1831.09 o
-6 10 4 18802.10 20490.80 2316.24 o
6 10 -4 18802.00 18306.70 1735.06 o
-6 -10 4 18802.00 18828.40 1494.87 o
-6 10 3 87709.00 66249.70 3942.85 o
-6 -10 3 87708.80 89032.60 4437.22 o
6 10 -3 87708.80 92708.80 3208.11 o
-6 -10 3 87708.80 93839.90 4628.43 o
6 -10 -3 87709.00 88622.40 3832.31 o
6 -10 -3 87709.00 90192.40 4259.40 o
-6 10 3 87709.00 88169.00 3524.00 o
6 10 -3 87708.80 92283.00 3634.81 o
6 10 -3 87708.80 87105.10 3496.68 o
-6 10 3 87709.00 91279.10 4564.40 o
-6 -10 3 87708.80 95026.10 2784.68 o
-6 -10 2 34056.70 34996.50 2320.99 o
-6 -10 2 34056.70 38304.50 3074.05 o
6 -10 -2 34056.80 34714.70 2415.97 o
-6 10 2 34056.80 28484.90 2494.04 o
6 -10 -2 34056.80 34805.80 2630.80 o
6 10 -2 34056.70 36102.40 2458.62 o
6 10 -2 34056.70 37352.20 2159.56 o
-6 10 2 34056.80 29803.10 2864.96 o
-6 -10 2 34056.70 37209.50 1892.37 o
6 10 -1 5234.87 5754.79 1054.90 o
-6 10 1 5234.90 4400.65 1183.37 o
-6 -10 1 5234.87 5048.34 981.06 o
-6 -10 1 5234.87 7016.58 1547.59 o
6 -10 -1 5234.90 6364.10 1165.18 o
6 -10 -1 5234.90 6720.32 1306.07 o
-6 10 0 1101.81 2384.44 1091.96 <
-6 -10 0 1101.82 417.40 769.01 <
6 -10 0 1101.81 1889.08 758.79 <
6 -10 0 1101.81 1887.88 904.57 <
6 10 0 1101.82 1210.21 573.99 <
6 -10 1 49426.20 48866.60 3754.96 o
-6 -10 -1 49426.00 58403.10 4244.48 o
6 -10 1 49426.20 48155.30 3081.78 o
6 10 1 49426.00 53751.80 3148.37 o
-6 10 -1 49426.20 47866.30 3674.27 o
6 -10 2 19232.20 16069.80 2398.47 o
-6 -10 -2 19232.20 20207.80 2859.97 o
6 -10 2 19232.20 16785.80 1941.85 o
6 10 2 19232.20 22105.20 2136.12 o
-6 10 -2 19232.20 18337.90 2471.44 o
-6 10 -3 56641.60 50145.20 4306.54 o
6 -10 3 56641.60 53973.70 4433.83 o
-6 -10 -3 56641.60 58284.40 4965.52 o
6 -10 3 56641.60 47727.10 3448.81 o
6 10 3 56641.60 58184.80 3527.41 o
6 -10 4 213.83 416.20 713.41 <
-6 10 -4 213.83 960.73 1019.45 <
-6 11 8 64.84 1325.35 1040.86 <
6 -11 -8 64.84 1036.29 719.74 <
-6 11 7 12086.90 13277.50 1956.72 o
6 11 -7 12086.90 14643.70 1687.32 o
-6 11 7 12086.90 12911.70 2512.43 o
6 -11 -7 12086.90 11458.00 2078.68 o
6 11 -7 12086.90 11019.00 1485.44 o
6 -11 -7 12086.90 12554.30 1622.66 o
-6 -11 7 12086.90 14397.80 1610.12 o
-6 11 6 20423.40 21662.60 2939.94 o
6 11 -6 20423.50 22594.60 1916.88 o
6 -11 -6 20423.40 21511.50 2565.70 o
-6 -11 6 20423.50 24151.40 2848.30 o
6 11 -6 20423.50 19205.00 1818.94 o
-6 11 6 20423.40 21834.20 2749.26 o
6 11 -6 20423.50 18650.90 2085.82 o
6 11 -6 20423.50 21180.50 1939.14 o
-6 -11 6 20423.50 22189.20 1820.28 o
6 11 -5 9417.85 9150.34 1307.11 o
-6 11 5 9417.68 8271.17 1515.07 o
6 11 -5 9417.85 9871.19 1266.66 o
-6 11 5 9417.68 9267.88 1834.53 o
6 -11 -5 9417.68 9248.69 1325.80 o
-6 -11 5 9417.85 9574.93 1857.16 o
6 -11 -5 9417.68 8469.07 1656.52 o
6 11 -5 9417.85 10655.60 1426.52 o
6 11 -5 9417.85 8785.72 1367.75 o
-6 -11 5 9417.85 8981.22 1171.62 o
6 11 -4 16127.60 15556.40 1527.86 o
-6 -11 4 16127.60 17535.50 2259.51 o
6 -11 -4 16127.60 16344.40 2031.24 o
6 -11 -4 16127.60 15013.10 1702.33 o
6 11 -4 16127.60 16944.10 1748.15 o
6 11 -4 16127.60 14554.90 1584.78 o
-6 11 4 16127.60 19485.70 2323.99 o
-6 -11 4 16127.60 16805.00 1439.89 o
6 11 -3 7060.82 7438.77 1261.33 o
-6 11 3 7060.87 5806.37 1316.87 o
6 -11 -3 7060.87 8724.55 1334.72 o
6 -11 -3 7060.87 7569.51 1388.43 o
-6 -11 3 7060.82 7657.07 1500.57 o
-6 -11 3 7060.82 7467.56 1236.82 o
6 11 -3 7060.82 7039.37 1055.83 o
-6 -11 3 7060.82 8813.30 1072.87 o
-6 -11 2 282.01 295.06 416.17 <
6 11 -2 282.01 119.94 491.90 <
-6 11 2 282.02 644.09 703.41 <
6 -11 -2 282.02 937.94 655.55 <
-6 -11 2 282.01 656.08 528.04 <
6 -11 -2 282.02 1759.54 772.63 <
-6 -11 2 282.01 552.93 827.23 <
6 11 -2 282.01 611.70 436.88 <
-6 -11 1 49211.60 56372.50 3921.31 o
6 -11 -1 49211.40 50897.20 3474.15 o
6 -11 -1 49211.40 51500.50 3000.59 o
6 11 -1 49211.60 52509.20 3047.75 o
-6 11 1 49211.40 47602.40 3596.34 o
6 -11 -1 49211.40 49385.90 3214.01 o
6 11 0 3408.85 2541.56 864.42 <
-6 11 0 3408.83 3534.68 1085.70 o
-6 -11 0 3408.85 3906.50 1388.11 <
6 -11 0 3408.83 3944.88 1077.38 o
6 -11 0 3408.83 3954.47 1115.84 o
6 -11 1 20738.70 22616.20 2537.59 o
-6 -11 -1 20738.90 26382.30 3037.51 o
6 -11 1 20738.70 21727.40 2118.32 o
6 11 1 20738.90 20447.60 2157.22 o
-6 11 -1 20738.70 21926.50 2591.15 o
-6 -11 -2 955.97 1080.67 1040.79 <
-6 11 -2 955.97 2349.65 1217.03 <
6 -11 2 955.97 967.93 750.80 <
6 -11 2 955.97 598.51 726.49 <
6 11 2 955.97 2944.56 1049.96 <
-6 -11 -3 888.89 2866.60 1540.46 <
6 -11 3 888.90 260.27 606.87 <
-6 11 -3 888.90 1368.53 991.71 <
6 -11 4 6837.58 7279.25 1389.49 o
-6 11 -4 6837.58 8046.88 2076.33 o
-6 12 8 560.72 1436.90 1216.63 <
6 -12 -8 560.72 1465.69 798.05 <
-6 -12 7 7.91 -532.54 598.86 <
6 12 -7 7.91 628.49 705.57 <
-6 12 7 7.91 -913.95 966.37 <
-6 12 7 7.91 -416.20 1003.60 <
6 12 -7 7.91 -271.07 579.09 <
-6 -12 6 69.92 863.58 573.73 <
6 12 -6 69.92 1300.17 805.15 <
-6 12 6 69.92 -627.29 859.16 <
-6 12 6 69.92 425.79 806.88 <
6 12 -6 69.92 417.40 583.68 <
6 -12 -6 69.92 323.84 765.04 <
-6 -12 6 69.92 -1110.66 865.82 <
6 12 -6 69.92 800.01 631.75 <
6 12 -6 69.92 591.31 616.85 <
-6 -12 5 72.14 -434.19 564.33 <
6 12 -5 72.14 135.53 539.71 <
-6 12 5 72.13 202.70 708.78 <
6 12 -5 72.14 603.31 542.33 <
6 -12 -5 72.13 189.51 476.08 <
-6 -12 5 72.14 -452.18 783.95 <
6 -12 -5 72.13 344.23 743.41 <
6 12 -5 72.14 205.10 572.03 <
6 12 -5 72.14 844.39 612.33 <
6 -12 -4 14.37 1097.46 816.86 <
-6 -12 4 14.37 -253.08 487.93 <
6 12 -4 14.37 554.13 724.98 <
-6 12 4 14.37 809.60 864.78 <
6 12 -4 14.37 -904.36 603.27 <
6 -12 -4 14.37 -514.55 536.45 <
-6 -12 4 14.37 109.15 707.63 <
6 12 -4 14.37 -39.58 383.81 <
-6 -12 3 1026.42 1266.58 605.78 <
6 12 -3 1026.42 903.16 608.56 <
-6 12 3 1026.47 808.41 665.17 <
6 -12 -3 1026.47 1038.69 783.18 <
6 -12 -3 1026.47 1380.53 740.99 <
-6 -12 3 1026.42 1594.02 926.28 <
6 12 -3 1026.42 678.87 436.91 <
-6 -12 2 22.17 0.00 492.96 <
6 12 -2 22.17 864.78 578.48 <
-6 12 2 22.17 213.50 645.18 <
6 -12 -2 22.17 159.52 520.47 <
6 -12 -2 22.17 80.36 501.34 <
-6 -12 2 22.17 620.10 940.90 <
6 12 -2 22.17 57.57 381.40 <
6 12 -1 266.84 -254.28 690.78 <
-6 12 1 266.85 728.04 864.04 <
6 -12 -1 266.85 399.40 657.11 <
-6 -12 1 266.84 616.50 797.09 <
6 -12 -1 266.85 664.48 679.32 <
6 -12 -1 266.85 771.22 704.22 <
6 12 0 106.68 -717.25 721.98 <
-6 12 0 106.68 1074.68 874.78 <
-6 -12 0 106.68 64.77 783.23 <
6 -12 0 106.68 -8.40 540.95 <
6 -12 0 106.68 937.94 675.72 <
-6 12 -1 221.54 1109.46 866.38 <
-6 -12 -1 221.53 361.02 847.86 <
6 -12 1 221.54 1506.47 889.84 <
6 -12 1 221.54 1223.40 881.55 <
6 12 1 221.53 -179.91 816.78 <
-6 -12 -2 272.63 112.75 833.67 <
-6 12 -2 272.64 1109.46 1077.93 <
6 -12 2 272.64 -149.93 594.94 <
6 -12 2 272.64 177.51 927.20 <
6 12 2 272.63 711.25 706.81 <
6 -12 3 320.05 918.75 685.76 <
-6 12 -3 320.05 1931.06 1170.83 <
6 -12 4 52.84 50.38 742.44 <
-6 12 -4 52.84 370.62 1156.06 <
-6 -13 7 3102.01 3947.28 989.22 o
6 13 -7 3102.01 2753.86 948.87 <
-6 13 7 3101.99 2999.74 1143.69 <
-6 -13 6 5050.98 4801.26 1003.23 o
6 13 -6 5050.98 5705.62 1274.23 o
-6 13 6 5051.01 4538.59 1230.52 o
-6 13 6 5051.01 6149.40 1679.73 o
6 13 -6 5050.98 5283.42 1080.39 o
6 -13 -6 5051.01 3421.93 1145.86 o
6 -13 -6 5051.01 3722.99 992.20 o
-6 -13 6 5050.98 5463.34 1684.45 o
6 13 -6 5050.98 5619.26 1129.31 o
6 13 -6 5050.98 4900.81 1145.80 o
-6 -13 5 829.14 1143.04 640.47 <
6 13 -5 829.14 1644.40 848.42 <
-6 13 5 829.12 1592.82 1118.06 <
6 13 -5 829.14 380.21 545.58 <
6 -13 -5 829.12 1039.89 688.95 <
6 -13 -5 829.12 730.44 766.66 <
-6 -13 5 829.14 586.51 787.31 <
6 13 -5 829.14 1313.36 652.83 <
-6 -13 4 3935.00 3811.74 840.95 o
6 13 -4 3935.00 3589.85 1008.16 o
-6 13 4 3934.93 4037.23 1311.41 o
6 13 -4 3935.00 3740.98 821.36 o
6 -13 -4 3934.93 2873.80 878.98 o
-6 -13 4 3935.00 5236.65 1407.09 o
6 13 -4 3935.00 3607.84 841.86 o
6 -13 -4 3934.93 3463.91 1061.75 o
-6 -13 3 4006.24 4110.40 849.19 o
6 13 -3 4006.24 4230.34 969.22 o
-6 13 3 4006.26 4048.03 1110.29 o
6 -13 -3 4006.26 4052.82 1135.45 o
6 -13 -3 4006.26 4139.18 972.58 o
-6 -13 3 4006.24 4665.73 1261.01 o
6 13 -3 4006.24 3477.10 779.60 o
6 13 -2 401.96 850.39 623.69 <
6 -13 -2 401.97 886.37 617.53 <
-6 13 2 401.97 1149.04 926.61 <
6 -13 -2 401.97 1364.93 803.01 <
-6 -13 2 401.96 847.99 863.91 <
6 13 -2 401.96 749.64 428.16 <
-6 -13 1 17833.60 20414.00 2596.08 o
6 -13 -1 17833.50 17501.90 2188.15 o
6 -13 -1 17833.50 20677.90 2006.55 o
6 13 -1 17833.60 18286.30 1963.03 o
-6 13 1 17833.50 16940.50 2293.85 o
6 -13 -1 17833.50 16526.70 1965.51 o
6 13 0 18.45 -365.82 676.11 <
-6 13 0 18.45 725.65 724.50 <
-6 -13 0 18.45 965.53 883.50 <
6 -13 0 18.45 -473.77 624.25 <
6 -13 0 18.45 615.30 682.79 <
-6 13 -1 5376.97 5842.35 1534.72 o
-6 -13 -1 5377.00 7368.01 1899.88 o
6 -13 1 5376.97 5572.48 1270.55 o
6 -13 1 5376.97 4388.66 1306.36 o
6 13 1 5377.00 5181.47 1182.31 o
-6 13 -2 118.64 291.46 832.28 <
6 -13 2 118.64 315.45 681.09 <
6 -13 2 118.64 7.20 684.88 <
6 -13 3 85.74 -179.91 707.58 <
-6 13 -3 85.74 -684.87 874.61 <
6 14 -7 4026.09 4262.72 1268.31 o
-6 -14 6 2378.58 3435.13 984.00 o
6 14 -6 2378.58 1572.43 867.69 <
6 14 -6 2378.58 2693.89 913.01 <
6 -14 -6 2378.62 1525.66 793.90 <
6 14 -6 2378.58 1819.51 843.98 <
6 14 -5 15100.90 16041.00 1752.60 o
-6 -14 5 15100.90 18372.60 2634.47 o
6 -14 -5 15100.80 15508.40 2218.15 o
6 -14 -5 15100.80 13765.70 1798.24 o
6 14 -5 15100.90 14241.90 1714.73 o
6 14 -5 15100.90 16969.30 1985.64 o
-6 14 5 15100.80 16164.50 2443.54 o
-6 -14 5 15100.90 16344.40 1670.14 o
-6 -14 4 44.00 497.76 570.26 <
6 14 -4 44.00 62.37 600.90 <
6 14 -4 44.00 281.86 519.12 <
-6 14 4 44.01 -75.56 683.65 <
6 -14 -4 44.01 921.15 638.42 <
-6 -14 4 44.00 47.98 724.45 <
6 14 -4 44.00 206.30 423.25 <
6 -14 -4 44.01 -397.01 613.64 <
-6 14 3 9764.56 9351.84 1793.58 o
6 -14 -3 9764.56 10482.90 1545.46 o
6 -14 -3 9764.56 9458.59 1603.21 o
-6 -14 3 9764.58 11568.40 2011.95 o
6 14 -3 9764.58 11539.60 1592.59 o
6 14 -3 9764.58 8207.60 1118.61 o
-6 -14 3 9764.58 11585.20 1330.56 o
6 14 -2 723.69 76.76 586.09 <
6 -14 -2 723.73 660.88 568.70 <
-6 14 2 723.73 1198.22 899.45 <
6 -14 -2 723.73 1001.51 775.24 <
-6 -14 2 723.69 1687.58 1101.80 <
6 14 -2 723.69 459.38 446.96 <
6 14 -1 619.80 1169.43 834.43 <
-6 14 1 619.81 1271.38 926.57 <
6 -14 -1 619.81 1456.09 760.93 <
-6 -14 1 619.80 1334.95 1040.48 <
6 -14 -1 619.81 706.46 709.85 <
6 -14 -1 619.81 86.36 555.94 <
6 14 0 1385.53 1043.49 778.44 <
-6 14 0 1385.57 2196.13 1255.21 <
-6 -14 0 1385.53 1697.17 1142.00 <
6 -14 0 1385.57 1490.87 804.35 <
6 -14 0 1385.57 664.48 645.32 <
6 14 1 4613.46 4242.33 1158.40 o
-6 14 -1 4613.45 5758.39 1669.15 o
-6 -14 -1 4613.46 6106.22 1734.80 o
6 -14 1 4613.45 5159.88 1278.28 o
6 -14 1 4613.45 3461.51 1223.73 <
-6 14 -2 194.80 455.78 870.51 <
6 -14 2 194.80 681.27 774.04 <
6 15 -6 202.08 327.44 749.52 <
6 15 -6 202.08 325.04 612.76 <
-6 -15 5 185.42 832.39 687.07 <
6 15 -5 185.42 1024.30 918.32 <
6 15 -5 185.42 -257.87 537.17 <
6 -15 -5 185.43 -44.38 887.59 <
6 15 -5 185.42 458.18 640.11 <
-6 -15 4 218.39 -446.18 546.35 <
6 15 -4 218.39 350.23 742.31 <
6 15 -4 218.39 -232.69 643.99 <
-6 15 4 218.37 -239.88 857.51 <
6 -15 -4 218.37 537.34 547.53 <
-6 -15 4 218.39 1258.19 1071.36 <
6 15 -4 218.39 -135.53 458.19 <
6 -15 -4 218.37 1374.53 1040.86 <
-6 -15 3 2174.76 3646.22 876.14 o
6 15 -3 2174.76 3881.31 1112.93 o
-6 15 3 2174.84 1286.97 871.06 <
6 -15 -3 2174.84 1967.04 871.94 <
6 -15 -3 2174.84 3044.12 1005.41 o
-6 -15 3 2174.76 3142.47 1183.10 <
6 15 -3 2174.76 1909.47 556.42 o
6 15 -2 1470.54 2391.63 881.15 <
6 -15 -2 1470.51 2157.75 876.75 <
-6 15 2 1470.51 1194.62 1038.31 <
-6 -15 2 1470.54 3395.54 1316.93 <
6 -15 -2 1470.51 2126.56 858.89 <
6 15 -1 1681.62 2211.72 938.79 <
6 -15 -1 1681.65 1877.08 818.16 <
-6 15 1 1681.65 1724.76 985.74 <
-6 -15 1 1681.62 2789.84 1265.10 <
6 -15 -1 1681.65 1779.93 877.50 <
6 -15 -1 1681.65 2342.46 939.16 <
6 15 0 810.21 2869.00 1218.18 <
-6 15 0 810.22 1725.96 952.66 <
6 -15 0 810.22 1271.38 931.82 <
6 -15 0 810.22 738.84 790.58 <
6 -15 1 3006.84 1916.67 1037.26 <
6 16 -6 1666.46 2013.82 953.08 <
6 16 -6 1666.46 1935.86 879.01 <
6 16 -5 1081.25 1192.22 899.22 <
6 16 -5 1081.25 1002.71 673.16 <
-6 -16 4 540.37 426.99 611.91 <
6 16 -4 540.37 747.24 925.59 <
6 16 -4 540.37 726.85 459.93 <
6 -16 -4 540.35 -52.77 740.35 <
-6 -16 3 4263.90 5065.13 1035.82 o
6 16 -3 4263.90 6005.47 1338.50 o
6 -16 -3 4263.84 4830.05 1280.86 o
6 16 -2 1395.87 1221.00 812.66 <
6 -16 -2 1395.83 941.54 678.23 <
6 16 -1 21.23 747.24 768.88 <
6 -16 -1 21.23 606.90 705.64 <
6 -16 -1 21.23 -260.27 768.67 <
6 -16 0 93.34 629.69 940.92 <
6 17 -5 1775.17 2737.07 1097.19 <
6 17 -4 5671.69 6027.06 1562.01 o
-6 -17 3 3341.27 4003.65 1019.62 o
6 -17 -3 3341.34 2425.22 1013.45 <
6 -17 -2 267.02 838.39 771.27 <
6 -17 -1 18069.00 16133.30 2243.15 o
6 -17 -1 18069.00 16796.60 2091.89 o
6 -18 -2 6466.15 5753.60 1420.14 o
6 -18 -1 2005.00 1940.65 1021.00 <
6 -18 -1 2005.00 2846.21 1137.30 <
7 0 -10 7537.79 9690.08 1614.75 o
7 0 -10 7537.79 5470.53 1512.42 o
-7 0 9 261.63 1523.26 795.83 <
7 0 -9 261.63 417.40 769.85 <
7 0 -9 261.63 328.64 750.77 <
7 0 -8 20870.90 21324.40 1882.88 o
7 0 -8 20870.90 23461.80 2365.34 o
7 0 -8 20870.90 21238.00 2353.76 o
-7 0 8 20870.90 23797.60 1998.73 o
-7 0 7 186.06 -514.55 631.38 <
7 0 -7 186.06 482.17 496.01 <
7 0 -7 186.06 653.68 609.59 <
7 0 -7 186.06 575.72 567.79 <
7 0 -6 13272.60 14045.20 1188.90 o
7 0 -6 13272.60 14100.30 1640.94 o
7 0 -6 13272.60 13103.60 1707.50 o
-7 0 6 13272.60 12601.10 1243.73 o
-7 0 5 391.44 413.80 342.97 <
7 0 -5 391.44 446.18 350.07 <
-7 0 5 391.44 540.94 547.81 <
7 0 -5 391.44 829.99 540.81 <
-7 0 4 304.70 155.92 286.92 <
-7 0 4 304.70 758.03 457.94 <
-7 0 4 304.70 606.90 476.60 <
7 0 -4 304.70 403.00 527.58 <
-7 0 3 778.92 847.99 473.48 <
-7 0 3 778.92 485.76 545.29 <
-7 0 3 778.92 765.23 446.24 <
-7 0 2 9974.24 10121.90 1221.69 o
7 0 -2 9974.24 11019.00 1653.48 o
-7 0 2 9974.24 10708.40 1312.58 o
-7 0 2 9974.24 9693.67 1163.12 o
-7 0 1 1376.77 2126.56 678.71 o
-7 0 1 1376.77 1945.45 783.77 <
7 0 -1 1376.77 2476.79 876.44 <
-7 0 0 16801.90 15841.90 1842.24 o
7 0 0 16801.90 19007.10 2006.98 o
7 0 0 16801.90 11987.00 1921.08 o
-7 0 0 16801.90 19364.60 1697.34 o
-7 0 -1 1545.62 2133.76 847.16 <
-7 0 -1 1545.62 1260.59 602.45 <
7 0 1 1545.62 -1928.66 1005.16 <
7 0 1 1545.62 1302.56 684.85 <
7 0 2 20417.80 21283.60 2427.70 o
-7 0 -2 20417.80 15507.20 2678.07 o
7 0 2 20417.80 12659.80 2059.45 o
-7 0 -3 1633.35 759.23 807.54 <
7 0 3 1633.35 2656.70 1101.91 <
7 0 3 1633.35 1063.88 707.68 <
7 0 4 1242.12 -668.07 925.22 <
7 0 4 1242.12 338.23 664.17 <
7 -1 -10 4400.83 1999.43 1050.57 <
7 1 -10 4400.83 7929.33 1759.72 o
7 1 -10 4400.83 5651.65 1497.21 o
7 1 -9 1069.20 1790.73 876.11 <
-7 -1 9 1069.20 -622.50 757.12 <
-7 1 9 1069.19 1186.22 857.21 <
7 1 -9 1069.20 563.72 626.32 <
7 -1 -9 1069.19 671.67 685.98 <
-7 -1 8 248.89 205.10 867.20 <
7 1 -8 248.89 861.18 783.19 <
7 -1 -8 248.89 610.50 787.48 <
7 1 -8 248.89 -27.59 696.93 <
7 -1 -8 248.89 694.46 647.98 <
7 1 -8 248.89 245.88 569.72 <
7 -1 -8 248.89 768.83 665.76 <
-7 1 8 248.89 3577.86 1349.20 <
-7 -1 7 350.17 -224.29 424.61 <
-7 1 7 350.17 1468.08 652.79 <
7 -1 -7 350.17 720.85 657.67 <
7 1 -7 350.17 -87.56 482.34 <
7 1 -7 350.17 696.86 558.06 <
7 -1 -7 350.17 669.27 538.94 <
7 1 -7 350.17 522.95 565.78 <
7 -1 -7 350.17 165.52 515.94 <
7 1 -6 8161.45 8664.58 992.43 o
7 -1 -6 8161.45 8183.61 919.48 o
7 -1 -6 8161.45 8460.68 1418.28 o
7 1 -6 8161.45 8798.91 1357.69 o
7 -1 -6 8161.45 9260.69 1359.78 o
-7 -1 6 8161.45 8517.05 1026.94 o
7 1 -6 8161.45 9890.38 1437.85 o
-7 1 6 8161.45 8636.99 1041.44 o
-7 -1 5 395.73 502.55 370.30 <
-7 1 5 395.73 350.23 335.95 <
7 1 -5 395.73 621.30 351.79 <
7 -1 -5 395.73 741.24 348.74 <
-7 1 5 395.73 539.74 585.02 <
-7 -1 5 395.73 262.67 578.29 <
7 -1 -5 395.73 1018.30 610.92 <
7 1 -5 395.73 925.95 588.49 <
7 -1 -5 395.73 361.02 487.03 <
-7 1 4 8391.67 7708.64 1316.09 o
7 1 -4 8391.69 8337.14 761.87 o
-7 1 4 8391.67 9444.20 1175.23 o
-7 -1 4 8391.69 8837.29 1249.57 o
7 1 -4 8391.69 9976.74 1349.35 o
7 -1 -4 8391.67 10097.90 1300.49 o
-7 -1 4 8391.69 9538.95 950.15 o
-7 -1 4 8391.69 7651.07 707.40 o
-7 1 4 8391.67 6840.27 635.96 o
-7 -1 3 1905.80 1512.46 276.73 o
-7 1 3 1905.80 1863.89 546.08 o
-7 -1 3 1905.80 2228.51 634.30 o
-7 -1 3 1905.80 1017.10 577.00 <
-7 1 3 1905.80 1409.31 687.60 <
-7 1 3 1905.80 1364.93 538.68 <
-7 -1 3 1905.80 2647.11 746.33 o
7 1 -3 1905.80 1963.44 750.48 <
7 1 -3 1905.80 1951.45 678.56 <
7 1 -3 1905.80 1284.57 593.87 <
-7 1 2 6242.41 5987.48 944.28 o
-7 -1 2 6242.39 6396.48 991.95 o
-7 -1 2 6242.39 6306.53 1037.76 o
-7 1 2 6242.41 7004.59 1157.61 o
-7 1 2 6242.41 6253.75 935.36 o
-7 -1 2 6242.39 6853.46 1087.33 o
7 1 -2 6242.39 6057.05 933.67 o
-7 -1 1 489.28 474.97 464.21 <
-7 1 1 489.27 1270.18 614.63 <
-7 1 1 489.27 484.56 489.37 <
-7 -1 1 489.28 734.04 618.28 <
7 1 -1 489.28 -14.39 633.59 <
7 -1 -1 489.27 929.55 759.34 <
7 1 -1 489.28 111.55 574.90 <
7 1 0 1038.01 516.95 445.73 <
-7 -1 0 1038.01 857.58 481.79 <
-7 1 0 1038.01 886.37 693.75 <
-7 1 0 1038.01 759.23 465.40 <
-7 -1 0 1038.01 934.34 619.29 <
7 1 0 1038.01 2355.65 910.92 <
7 -1 0 1038.01 1715.16 1271.88 <
7 1 0 1038.01 865.98 636.29 <
7 -1 0 1038.01 1378.13 719.41 <
-7 1 -1 27.04 624.90 732.01 <
-7 1 -1 27.04 603.31 586.74 <
-7 -1 -1 27.04 -184.71 685.98 <
7 1 1 27.04 243.48 748.32 <
7 -1 1 27.04 855.18 722.86 <
7 -1 1 27.04 34.78 518.15 <
7 1 1 27.04 323.84 520.24 <
-7 1 -2 1603.34 858.78 662.67 <
-7 -1 -2 1603.34 2413.22 1057.55 <
7 -1 2 1603.34 1282.17 786.98 <
7 1 2 1603.34 2342.46 1193.91 <
7 -1 2 1603.34 1228.20 771.60 <
7 1 2 1603.34 1693.57 805.56 <
-7 1 -3 355.39 437.79 965.45 <
-7 -1 -3 355.40 188.31 758.16 <
7 -1 3 355.39 386.21 671.63 <
7 1 3 355.40 593.71 829.64 <
7 1 3 355.40 538.54 677.36 <
7 -1 3 355.39 -857.58 871.77 <
-7 -1 -4 5240.12 1980.23 1199.20 <
7 -1 4 5240.13 3330.78 1273.74 <
7 1 4 5240.12 5332.60 1460.08 o
7 2 -10 124.65 3011.73 1304.92 <
-7 -2 9 239.62 975.12 811.62 <
-7 2 9 239.62 684.87 819.70 <
7 -2 -9 239.62 -129.54 758.05 <
7 2 -9 239.62 651.28 693.73 <
7 2 -9 239.62 766.43 609.28 <
-7 -2 8 647.49 94.75 557.19 <
-7 2 8 647.50 1337.35 777.27 <
7 2 -8 647.49 496.56 614.42 <
7 2 -8 647.49 722.05 658.29 <
7 -2 -8 647.50 -621.30 1239.91 <
7 -2 -8 647.50 580.52 664.62 <
7 2 -8 647.49 1170.63 648.16 <
7 -2 -8 647.50 776.02 616.13 <
-7 -2 7 81.27 488.16 533.09 <
-7 2 7 81.27 1290.57 822.07 <
7 2 -7 81.27 -88.76 526.53 <
7 2 -7 81.27 172.72 531.28 <
7 -2 -7 81.27 153.52 717.22 <
7 -2 -7 81.27 298.65 623.51 <
7 2 -7 81.27 148.73 496.52 <
7 -2 -7 81.27 367.02 456.57 <
-7 -2 6 762.42 772.42 552.90 <
-7 2 6 762.42 887.57 630.49 <
7 2 -6 762.42 1303.76 568.36 <
7 -2 -6 762.42 953.53 483.72 <
7 -2 -6 762.42 406.60 535.78 <
7 2 -6 762.42 1534.05 732.02 <
7 -2 -6 762.42 714.85 556.68 <
-7 -2 5 112.42 339.43 323.40 <
-7 2 5 112.42 -31.18 271.10 <
7 2 -5 112.42 -51.57 365.84 <
7 -2 -5 112.42 281.86 298.35 <
7 -2 -5 112.42 117.54 549.33 <
-7 2 5 112.42 494.16 400.97 <
-7 -2 5 112.42 313.05 603.11 <
7 2 -5 112.42 164.32 389.76 <
7 -2 -5 112.42 185.91 464.11 <
7 2 -5 112.42 338.23 345.02 <
-7 -2 4 33.57 316.65 308.96 <
-7 -2 4 33.57 -882.77 555.21 <
-7 2 4 33.57 -750.83 862.40 <
7 2 -4 33.57 484.56 325.13 <
-7 2 4 33.57 474.97 357.65 <
-7 -2 4 33.57 447.38 619.60 <
7 2 -4 33.57 -289.06 517.86 <
7 2 -4 33.57 154.73 478.50 <
7 -2 -4 33.57 15.59 406.60 <
-7 2 4 33.57 51.57 546.93 <
7 2 -4 33.57 -51.57 386.20 <
-7 -2 3 130.82 63.57 226.75 <
-7 2 3 130.81 -7.20 337.08 <
-7 -2 3 130.82 1174.23 587.80 <
-7 2 3 130.81 -236.29 571.97 <
-7 2 3 130.81 373.02 442.20 <
-7 -2 3 130.82 513.35 529.47 <
7 2 -3 130.82 382.61 473.39 <
7 2 -3 130.82 -113.94 486.94 <
-7 2 2 631.98 808.41 535.55 <
-7 -2 2 631.97 720.85 526.26 <
-7 2 2 631.98 479.77 477.77 <
-7 2 2 631.98 479.77 437.03 <
-7 -2 2 631.97 238.68 448.16 <
7 2 -2 631.97 1862.69 850.15 <
7 2 -2 631.97 492.96 516.10 <
-7 -2 1 62.60 371.82 437.33 <
-7 2 1 62.60 251.88 585.17 <
-7 2 1 62.60 131.94 398.16 <
-7 -2 1 62.60 122.34 569.70 <
7 2 -1 62.60 -41.98 578.12 <
7 2 -1 62.60 -255.48 613.91 <
-7 -2 0 1843.45 1951.45 630.10 o
-7 2 0 1843.46 2233.31 898.57 <
-7 2 0 1843.46 2301.68 752.50 o
-7 -2 0 1843.45 1838.70 770.05 <
7 2 0 1843.45 2034.21 890.15 <
7 2 0 1843.45 1423.71 629.80 <
7 -2 0 1843.46 2289.68 820.01 <
-7 2 -1 21.88 542.14 582.12 <
-7 2 -1 21.88 -122.34 503.70 <
-7 -2 -1 21.88 -263.87 623.50 <
7 2 1 21.88 221.89 557.59 <
7 -2 1 21.88 -309.45 501.01 <
7 2 1 21.88 432.99 707.24 <
7 2 1 21.88 265.07 589.93 <
-7 2 -2 1027.66 -455.78 811.39 <
-7 -2 -2 1027.65 2326.87 998.01 <
7 -2 2 1027.66 422.19 701.75 <
7 2 2 1027.65 954.73 682.72 <
7 2 2 1027.65 773.62 744.34 <
7 2 2 1027.65 1061.48 792.71 <
-7 -2 -3 429.59 642.89 822.44 <
7 -2 3 429.59 299.85 761.77 <
7 2 3 429.59 -15.59 662.30 <
7 2 3 429.59 620.10 764.89 <
-7 -2 -4 46.53 -843.19 1071.08 <
7 2 4 46.53 235.09 743.53 <
7 2 4 46.53 -207.50 810.71 <
-7 -3 9 5316.82 5357.79 1194.18 o
-7 3 9 5316.81 4519.40 1232.06 o
7 -3 -9 5316.81 4257.92 1300.81 o
7 3 -9 5316.82 6091.83 1222.96 o
7 3 -9 5316.82 5417.76 1261.95 o
-7 -3 8 2457.78 2684.29 961.66 <
-7 3 8 2457.79 3297.19 1178.68 <
7 3 -8 2457.78 2507.98 877.63 <
7 -3 -8 2457.79 1941.85 923.99 <
7 3 -8 2457.78 3505.89 994.76 o
7 3 -8 2457.78 2930.17 1169.14 <
7 -3 -8 2457.79 1853.10 862.25 <
-7 -3 7 5384.69 6536.81 1050.20 o
7 3 -7 5384.69 6626.77 1054.86 o
7 -3 -7 5384.68 6144.60 1070.68 o
7 -3 -7 5384.68 4875.62 1220.07 o
7 3 -7 5384.69 5128.70 1206.87 o
7 -3 -7 5384.68 5299.02 1159.58 o
-7 3 7 5384.68 5997.08 1142.81 o
7 3 -6 11086.10 11249.30 1225.83 o
7 -3 -6 11086.10 10318.60 1118.61 o
7 -3 -6 11086.10 13632.60 1771.14 o
7 3 -6 11086.10 11282.90 1575.07 o
7 -3 -6 11086.10 11839.40 1537.27 o
-7 -3 6 11086.10 11542.00 1225.27 o
-7 3 6 11086.10 12280.80 1331.19 o
-7 -3 5 134.11 183.51 315.38 <
-7 3 5 134.11 3.60 338.28 <
-7 3 5 134.11 22.79 724.47 <
7 3 -5 134.11 -447.38 791.18 <
7 3 -5 134.11 35.98 346.68 <
7 -3 -5 134.11 197.90 279.37 <
-7 3 5 134.11 339.43 457.89 <
-7 -3 5 134.11 317.85 532.33 <
7 3 -5 134.11 725.65 616.48 <
7 3 -5 134.11 755.63 610.36 <
7 -3 -5 134.11 521.75 515.04 <
7 3 -5 134.11 629.69 424.49 <
7 -3 -5 134.11 764.03 582.68 <
7 3 -4 45052.10 46704.00 1908.23 o
-7 3 4 45052.10 37593.30 2409.46 o
-7 -3 4 45052.10 48779.00 2986.55 o
7 3 -4 45052.10 39728.20 2321.87 o
-7 3 4 45052.10 46243.50 3259.62 o
7 3 -4 45052.10 39583.10 3071.73 o
7 3 -4 45052.10 48531.90 2731.40 o
7 -3 -4 45052.10 45123.20 2788.28 o
-7 -3 4 45052.10 39024.20 2514.09 o
-7 -3 4 45052.10 45132.80 1783.44 o
7 -3 -4 45052.10 46568.50 2986.10 o
-7 -3 3 204.73 308.25 273.22 <
-7 3 3 204.73 230.29 388.58 <
-7 -3 3 204.73 1576.03 675.84 <
7 3 -3 204.73 115.14 373.10 <
-7 3 3 204.73 76.76 517.02 <
-7 -3 3 204.73 341.83 347.55 <
-7 3 3 204.73 160.72 333.49 <
-7 -3 3 204.73 207.50 492.96 <
7 3 -3 204.73 152.33 564.96 <
7 3 -3 204.73 410.20 471.01 <
7 3 -3 204.73 491.76 544.03 <
7 3 -2 25518.80 26810.50 1231.88 o
-7 3 2 25518.90 25992.50 1621.59 o
-7 -3 2 25518.80 27640.50 2252.39 o
7 3 -2 25518.80 23806.00 1981.10 o
-7 -3 2 25518.80 27635.70 1988.13 o
7 3 -2 25518.80 26141.30 2481.62 o
-7 3 2 25518.90 26904.10 1902.18 o
-7 3 2 25518.90 27563.80 2212.85 o
7 -3 -1 1795.81 2018.62 821.53 <
-7 -3 1 1795.79 1842.30 582.57 o
-7 3 1 1795.81 1513.66 645.77 <
-7 3 1 1795.81 1540.05 520.07 <
-7 -3 1 1795.79 1957.45 698.20 <
7 3 -1 1795.79 2349.65 912.00 <
7 3 -1 1795.79 1788.33 614.15 <
-7 -3 0 61.54 990.72 547.77 <
-7 3 0 61.54 220.69 543.22 <
-7 3 0 61.54 428.19 559.65 <
-7 -3 0 61.54 853.98 733.71 <
7 3 0 61.54 -254.28 581.52 <
7 -3 0 61.54 426.99 576.46 <
7 3 0 61.54 6.00 562.53 <
-7 3 -1 7697.97 6882.24 1237.18 o
-7 -3 -1 7697.98 5938.31 1437.01 o
7 3 1 7697.98 5363.79 1382.85 o
7 -3 1 7697.97 8773.72 1536.77 o
7 3 1 7697.98 8092.46 1407.57 o
7 3 1 7697.98 7799.80 1327.52 o
7 -3 2 14708.30 14972.30 2155.78 o
-7 -3 -2 14708.30 11880.20 1976.79 o
7 3 2 14708.30 14400.20 1930.62 o
7 3 2 14708.30 16054.20 2073.61 o
7 3 2 14708.30 12339.60 1942.29 o
-7 -3 -3 1753.33 2307.68 1180.23 <
7 -3 3 1753.34 1885.48 1050.13 <
7 3 3 1753.33 3024.93 1159.00 <
7 3 3 1753.33 2001.82 982.36 <
7 3 3 1753.33 2866.60 1268.53 <
-7 -3 -4 8764.34 6942.22 1868.45 o
7 3 4 8764.34 8513.45 1736.14 o
7 3 4 8764.34 8223.19 1698.81 o
-7 -4 9 2404.72 3639.03 1291.59 <
-7 4 9 2404.68 2368.85 1253.55 <
7 4 -9 2404.72 5042.34 1204.11 o
7 -4 -9 2404.68 2927.77 1227.79 <
7 4 -8 29140.20 34279.30 2271.58 o
7 -4 -8 29140.30 30837.00 3059.26 o
7 4 -8 29140.20 28120.30 2865.83 o
7 -4 -8 29140.30 29094.20 2609.96 o
-7 -4 8 29140.20 33720.40 2349.93 o
-7 4 8 29140.30 29262.10 2451.72 o
7 4 -7 14531.50 13527.00 1476.50 o
7 -4 -7 14531.50 11867.00 1148.07 o
7 -4 -7 14531.50 14038.00 2035.29 o
7 4 -7 14531.50 11961.80 1875.35 o
7 -4 -7 14531.50 13504.20 1761.04 o
-7 -4 7 14531.50 14775.60 1501.94 o
-7 4 7 14531.50 14249.10 1579.80 o
7 4 -6 67700.80 68233.50 2888.21 o
7 -4 -6 67700.90 60127.90 2629.19 o
7 -4 -6 67700.90 69569.70 4054.01 o
-7 4 6 67700.90 69933.10 4700.26 o
7 4 -6 67700.80 64589.70 3803.69 o
7 -4 -6 67700.90 67583.50 3673.00 o
-7 -4 6 67700.80 67761.00 2798.34 o
-7 4 6 67700.90 64658.10 2942.04 o
7 4 -5 15068.00 14097.90 1585.36 o
7 -4 -5 15067.90 10562.10 845.75 o
7 4 -5 15068.00 16278.50 1309.79 o
-7 4 5 15067.90 11753.10 1374.33 o
-7 -4 5 15068.00 15831.10 2017.72 o
7 4 -5 15068.00 13257.10 1207.21 o
-7 4 5 15067.90 15279.40 2119.33 o
7 -4 -5 15067.90 16083.00 1940.18 o
7 4 -5 15068.00 15570.80 1798.41 o
7 4 -5 15068.00 15413.70 1658.35 o
7 -4 -5 15067.90 16189.70 1726.66 o
-7 -4 5 15068.00 14830.80 1207.66 o
-7 4 5 15067.90 15083.80 1060.94 o
-7 -4 4 2792.31 2606.33 545.52 o
-7 -4 4 2792.31 1991.03 705.44 <
7 4 -4 2792.31 2577.54 692.84 o
-7 4 4 2792.29 2198.53 902.16 <
7 4 -4 2792.31 3065.71 638.64 o
-7 -4 4 2792.31 2654.31 602.39 o
-7 4 4 2792.29 2555.95 623.70 o
-7 -4 4 2792.31 2733.47 871.22 o
7 4 -4 2792.31 3917.29 947.09 o
7 4 -4 2792.31 2729.87 747.79 o
7 4 -4 2792.31 1973.04 648.53 o
7 -4 -4 2792.29 3460.31 945.66 o
-7 4 3 4378.02 4218.34 766.17 o
-7 -4 3 4377.94 3677.41 565.87 o
-7 4 3 4378.02 5370.98 1190.57 o
-7 -4 3 4377.94 4398.26 624.55 o
-7 4 3 4378.02 2774.25 515.87 o
-7 -4 3 4377.94 3611.44 907.43 o
7 4 -3 4377.94 4704.11 1123.05 o
7 4 -3 4377.94 4154.77 917.63 o
-7 -4 3 4377.94 5050.74 976.77 o
7 4 -3 4377.94 4514.60 903.94 o
-7 4 2 58358.80 61207.40 1994.50 o
-7 -4 2 58358.70 60998.70 3503.15 o
-7 -4 2 58358.70 58908.10 2920.57 o
7 4 -2 58358.70 56100.20 2981.42 o
7 4 -2 58358.70 57138.90 3669.63 o
-7 4 2 58358.80 61113.80 2827.53 o
-7 4 2 58358.80 59960.00 3347.19 o
7 4 -2 58358.70 60165.10 1918.42 o
-7 -4 1 20660.30 20855.40 2195.30 o
7 -4 -1 20660.30 21782.60 2209.77 o
7 4 -1 20660.30 21130.10 1900.66 o
7 4 -1 20660.30 23899.50 2308.84 o
-7 -4 1 20660.30 21552.30 1578.65 o
-7 4 1 20660.30 19958.30 2062.76 o
-7 -4 0 68733.30 66236.50 4299.66 o
7 -4 0 68733.30 70711.50 4076.39 o
7 4 0 68733.30 69740.00 3684.95 o
7 4 0 68733.30 62779.80 4253.46 o
-7 4 0 68733.30 69761.60 3713.11 o
-7 4 -1 6.63 549.33 664.95 <
-7 -4 -1 6.63 1199.42 783.89 <
7 4 1 6.63 326.24 751.81 <
7 -4 1 6.63 1061.48 836.24 <
7 4 1 6.63 -454.58 681.92 <
-7 -4 -2 2611.65 1227.00 845.06 <
-7 4 -2 2611.63 4122.39 1178.74 o
7 -4 2 2611.63 3400.34 1196.86 <
7 4 2 2611.65 3653.42 1287.77 <
7 4 2 2611.65 2338.86 930.06 <
7 4 2 2611.65 2567.95 1064.14 <
7 -4 3 24624.20 22228.80 2836.90 o
-7 -4 -3 24624.10 25318.50 2890.56 o
7 4 3 24624.10 23878.00 2548.97 o
7 4 3 24624.10 25663.90 2653.39 o
7 4 3 24624.10 30003.40 2856.99 o
-7 -4 -4 8917.59 6133.81 1820.43 o
7 4 4 8917.59 8058.87 1617.88 o
7 4 4 8917.59 9209.11 1771.54 o
7 5 -9 28867.90 35894.90 2594.61 o
-7 -5 9 28867.90 32598.90 2567.58 o
-7 5 9 28867.90 25572.70 2680.22 o
7 5 -8 23922.50 29659.10 2137.02 o
7 -5 -8 23922.40 25890.60 2857.57 o
7 5 -8 23922.50 24541.20 2668.38 o
7 -5 -8 23922.40 23530.10 2361.51 o
-7 -5 8 23922.50 28535.30 2173.03 o
-7 5 8 23922.40 21421.60 2304.03 o
-7 5 7 8073.64 6191.38 1715.23 o
7 5 -7 8073.65 9644.50 1253.84 o
7 -5 -7 8073.64 10144.70 1763.07 o
7 5 -7 8073.65 9080.77 1551.67 o
7 -5 -7 8073.64 8195.60 1419.63 o
-7 -5 7 8073.65 8729.34 1218.46 o
-7 5 7 8073.64 9395.02 1397.53 o
-7 -5 6 3459.79 3480.70 773.40 o
-7 5 6 3459.78 2031.81 991.03 <
7 5 -6 3459.79 2715.48 707.98 o
7 -5 -6 3459.78 3976.06 1246.01 o
7 5 -6 3459.79 4687.31 777.98 o
7 5 -6 3459.79 2892.99 837.42 o
7 5 -6 3459.79 3646.22 1073.18 o
7 -5 -6 3459.78 3505.89 959.13 o
-7 5 6 3459.78 3960.47 1042.73 o
7 5 -5 28643.80 29981.80 1799.96 o
-7 -5 5 28643.80 31045.70 2832.08 o
7 -5 -5 28643.90 28561.70 2561.75 o
-7 5 5 28643.90 28676.80 2889.81 o
7 5 -5 28643.80 24500.50 1816.11 o
7 5 -5 28643.80 22324.70 2306.43 o
7 5 -5 28643.80 29723.90 2314.60 o
7 -5 -5 28643.90 27905.60 2279.29 o
-7 -5 5 28643.80 27114.00 1721.16 o
-7 5 5 28643.90 26523.90 1534.79 o
7 5 -4 74999.00 79311.30 2852.27 o
7 5 -4 74999.00 76779.40 2699.41 o
-7 -5 4 74999.00 79857.10 2486.21 o
-7 -5 4 74999.00 81142.80 4070.82 o
7 5 -4 74999.00 69598.50 3220.81 o
7 5 -4 74999.00 77575.80 3880.87 o
-7 5 4 74999.00 74730.80 4250.08 o
7 5 -4 74999.00 76615.10 3500.56 o
7 -5 -4 74999.00 75102.60 4032.61 o
-7 -5 4 74999.00 70897.40 3644.25 o
-7 -5 4 74999.00 75230.90 2526.26 o
-7 -5 3 57809.90 61714.70 2101.61 o
-7 -5 3 57809.90 61502.40 3544.17 o
7 5 -3 57809.90 59846.00 2726.56 o
7 5 -3 57809.90 57248.10 3592.28 o
-7 5 3 57809.90 57541.90 3516.45 o
7 5 -3 57809.90 61799.90 3048.03 o
-7 -5 3 57809.90 60843.90 1940.06 o
-7 -5 2 31816.10 35090.10 2783.01 o
-7 -5 2 31816.10 31337.10 2131.62 o
7 5 -2 31816.10 33336.50 2196.22 o
7 5 -2 31816.10 34531.20 2766.93 o
-7 5 2 31816.10 34312.90 2215.29 o
-7 5 2 31816.10 34622.30 2645.46 o
-7 -5 1 165.77 83.96 454.63 <
-7 5 1 165.78 225.49 694.42 <
-7 -5 1 165.77 -140.33 653.66 <
7 5 -1 165.77 500.16 625.60 <
7 5 -1 165.77 512.15 566.74 <
7 -5 -1 165.78 1000.31 711.62 <
-7 -5 0 14669.40 14466.10 2102.35 o
7 -5 0 14669.50 15617.60 2047.26 o
7 5 0 14669.40 14802.00 1717.23 o
7 5 0 14669.40 11780.70 1888.48 o
-7 5 0 14669.50 14335.40 1833.04 o
-7 -5 -1 48693.60 46095.90 3894.85 o
7 -5 1 48693.60 45690.50 3708.13 o
7 5 1 48693.60 48379.60 3285.54 o
7 5 1 48693.60 37911.10 3555.74 o
-7 5 -1 48693.60 44806.60 3368.61 o
7 -5 2 46826.30 45082.40 3850.90 o
-7 -5 -2 46826.30 39381.60 3874.33 o
7 5 2 46826.30 41622.10 3211.42 o
7 5 2 46826.30 46885.10 3403.19 o
7 5 2 46826.30 44023.30 3674.30 o
-7 5 -2 46826.30 44926.50 3399.63 o
7 -5 3 17411.80 14113.50 2352.24 o
-7 -5 -3 17411.70 17324.40 2565.77 o
7 5 3 17411.70 16124.90 2068.67 o
7 5 3 17411.70 18187.90 2430.71 o
-7 -5 -4 2138.88 1560.44 1087.71 <
-7 -6 9 2925.20 4527.79 1196.24 o
-7 6 9 2925.20 3166.46 1306.00 <
7 6 -9 2925.20 4314.30 1233.43 o
-7 -6 8 773.59 1520.86 852.51 <
-7 6 8 773.57 -1314.56 929.12 <
7 6 -8 773.59 2178.14 824.23 <
7 6 -8 773.59 1536.45 1103.74 <
7 -6 -8 773.57 961.93 677.07 <
7 -6 -8 773.57 1268.98 907.71 <
7 6 -7 39597.60 43029.00 2471.71 o
7 -6 -7 39597.60 40921.70 3467.79 o
-7 6 7 39597.60 41298.30 4045.52 o
7 6 -7 39597.60 41438.60 3143.17 o
7 -6 -7 39597.60 41696.50 2941.13 o
-7 -6 7 39597.60 44257.20 2405.81 o
-7 6 7 39597.60 35034.90 2649.26 o
7 6 -6 16623.60 16230.50 1536.93 o
-7 -6 6 16623.60 16598.70 2298.51 o
7 -6 -6 16623.60 18282.70 2218.51 o
-7 6 6 16623.60 15672.80 2390.16 o
7 6 -6 16623.60 16847.00 1824.19 o
7 6 -6 16623.60 12460.70 1322.89 o
7 6 -6 16623.60 15354.90 1880.03 o
7 -6 -6 16623.60 15699.10 1823.50 o
-7 -6 6 16623.60 16806.20 1489.55 o
-7 6 6 16623.60 14826.00 1517.39 o
7 6 -5 21429.10 23201.50 1614.68 o
-7 -6 5 21429.10 23387.40 2562.57 o
7 -6 -5 21429.10 21044.90 2311.34 o
7 6 -5 21429.10 20682.70 2121.52 o
-7 6 5 21429.10 23293.80 2613.36 o
7 6 -5 21429.10 20191.00 1687.08 o
7 6 -5 21429.10 17927.70 1969.90 o
7 -6 -5 21429.10 21993.70 2023.26 o
-7 -6 5 21429.10 22352.30 1531.27 o
-7 -6 4 1556.08 1406.91 427.02 o
7 6 -4 1556.08 2340.06 667.03 o
-7 6 4 1556.11 2264.50 911.38 <
7 6 -4 1556.08 1766.74 522.51 o
-7 -6 4 1556.08 1306.16 725.60 <
7 6 -4 1556.08 1033.90 543.73 <
7 6 -4 1556.08 1676.78 645.75 <
7 -6 -4 1556.11 1659.99 804.30 <
7 6 -4 1556.08 2843.81 751.77 o
-7 -6 3 10083.10 10637.60 1633.51 o
7 6 -3 10083.10 11888.60 1685.19 o
7 6 -3 10083.10 10929.10 1350.22 o
-7 6 3 10083.10 10052.30 1582.50 o
7 6 -3 10083.10 11384.90 1394.59 o
-7 -6 3 10083.10 9795.63 951.14 o
7 -6 -3 10083.10 9182.72 1485.54 o
7 6 -3 10083.10 9945.55 1006.00 o
-7 -6 2 15493.40 16181.30 2000.70 o
7 6 -2 15493.40 13214.00 1851.67 o
7 6 -2 15493.40 17593.00 1695.67 o
-7 6 2 15493.40 15677.60 1917.87 o
-7 -6 1 64289.10 66195.70 4053.85 o
7 -6 -1 64289.20 65591.20 3965.83 o
7 -6 -1 64289.20 61542.00 3468.40 o
7 6 -1 64289.10 63179.20 4002.98 o
7 6 -1 64289.10 67145.70 3186.62 o
-7 -6 1 64289.10 61738.70 2684.67 o
-7 6 1 64289.20 62375.60 3839.89 o
7 -6 0 8929.05 9840.00 1629.25 o
-7 -6 0 8929.07 9255.89 1733.82 o
7 -6 0 8929.05 8758.13 1279.01 o
7 6 0 8929.07 10562.10 1455.75 o
7 6 0 8929.07 9702.07 1625.26 o
-7 6 0 8929.05 8121.24 1544.62 o
7 -6 1 17835.50 18207.10 2399.31 o
-7 -6 -1 17835.30 16633.50 2476.32 o
7 -6 1 17835.50 16152.50 1755.25 o
7 6 1 17835.30 19473.70 2044.91 o
7 6 1 17835.30 18461.40 2313.84 o
-7 6 -1 17835.50 17276.40 2185.29 o
-7 -6 -2 4654.95 5053.14 1438.43 o
-7 6 -2 4654.91 5345.79 1380.39 o
7 -6 2 4654.91 3521.48 886.42 o
7 -6 2 4654.91 4305.90 1378.42 o
7 6 2 4654.95 6233.36 1487.20 o
7 6 2 4654.95 5341.00 1294.88 o
-7 -6 -3 2679.54 2617.12 1287.28 <
7 -6 3 2679.52 779.62 537.47 <
7 6 3 2679.54 3495.10 1295.30 <
7 7 -9 933.60 2425.22 1028.41 <
-7 -7 8 2409.12 2828.22 936.26 o
7 7 -8 2409.12 4482.22 1009.38 o
7 -7 -8 2409.13 2454.00 965.26 <
7 -7 -7 1510.68 1306.16 990.20 <
-7 -7 7 1510.67 1537.65 699.12 <
-7 7 7 1510.68 584.11 937.66 <
7 7 -7 1510.67 1463.29 740.27 <
7 7 -7 1510.67 2194.93 1021.14 <
7 -7 -7 1510.68 2326.87 899.90 <
-7 -7 6 3601.82 4024.04 790.25 o
-7 7 6 3601.78 2433.61 1052.24 <
7 7 -6 3601.82 2993.74 786.77 o
7 -7 -6 3601.78 6045.05 1388.60 o
-7 -7 6 3601.82 4020.44 1217.81 o
7 7 -6 3601.82 3599.45 960.75 o
7 -7 -6 3601.78 4093.60 976.38 o
7 7 -6 3601.82 2079.79 609.42 o
7 7 -5 14155.10 16222.10 1429.56 o
-7 -7 5 14155.10 16325.20 2164.91 o
7 -7 -5 14155.30 16444.00 2077.10 o
7 7 -5 14155.10 14271.80 1752.47 o
-7 7 5 14155.30 14481.70 2065.95 o
7 7 -5 14155.10 12068.50 1394.75 o
7 7 -5 14155.10 15748.30 1740.83 o
-7 -7 5 14155.10 15795.10 1349.97 o
-7 -7 4 2697.27 2603.93 571.96 o
-7 7 4 2697.25 2988.94 1042.75 <
7 7 -4 2697.27 2615.92 594.58 o
7 -7 -4 2697.25 3274.40 961.10 o
-7 -7 4 2697.27 3114.88 979.28 o
7 7 -4 2697.27 4345.48 1121.33 o
7 7 -4 2697.27 3210.83 817.03 o
7 7 -4 2697.27 1795.52 629.74 <
-7 -7 3 24045.10 26958.10 2564.01 o
7 7 -3 24045.10 24400.90 2384.15 o
7 7 -3 24045.10 25997.30 2003.37 o
-7 7 3 24045.00 24446.50 2475.74 o
7 7 -3 24045.10 26058.50 2086.57 o
-7 -7 3 24045.10 26583.80 1479.59 o
7 -7 -3 24045.00 24224.60 2322.39 o
7 7 -3 24045.10 25276.50 1615.12 o
-7 7 2 2197.42 1950.25 699.78 <
7 -7 -2 2197.42 2374.84 765.14 o
-7 -7 2 2197.42 3501.09 1187.77 <
7 7 -2 2197.42 3586.25 1057.68 o
7 7 -2 2197.42 4226.74 991.42 o
-7 7 1 5700.95 5303.81 1251.54 o
-7 -7 1 5700.99 6071.44 1439.23 o
7 -7 -1 5700.95 6087.03 1118.93 o
7 7 -1 5700.99 7974.91 1256.00 o
7 7 -1 5700.99 5235.45 1320.33 o
7 -7 -1 5700.95 5416.56 1242.03 o
-7 7 0 2476.71 3667.81 1102.21 o
-7 -7 0 2476.69 3755.37 1253.66 <
7 -7 0 2476.71 1839.90 776.47 <
7 7 0 2476.69 2934.97 1042.96 <
7 -7 0 2476.71 2723.87 1028.78 <
7 7 0 2476.69 4135.58 1017.58 o
-7 7 -1 2731.28 3172.45 1125.81 <
-7 -7 -1 2731.24 3056.11 1241.94 <
7 -7 1 2731.28 3122.08 885.60 o
7 7 1 2731.24 1687.58 1019.72 <
7 -7 1 2731.28 2197.33 876.65 <
7 7 1 2731.24 2762.25 953.32 <
-7 -7 -2 967.38 752.03 725.03 <
-7 7 -2 967.39 1031.50 731.43 <
7 -7 2 967.39 1003.91 557.57 <
7 -7 2 967.39 798.81 949.10 <
7 7 2 967.38 1229.40 959.98 <
7 7 2 967.38 1316.96 778.33 <
-7 -7 -3 7206.42 4515.80 1588.59 <
7 -7 3 7206.39 7549.12 1202.74 o
-7 -8 8 4340.79 4278.31 1048.90 o
7 8 -8 4340.79 5171.88 1118.76 o
7 -8 -8 4340.78 5254.64 1257.98 o
-7 -8 7 119.68 468.97 608.82 <
-7 8 7 119.68 -129.54 907.94 <
7 8 -7 119.68 -25.19 510.97 <
7 8 -7 119.68 -347.83 610.16 <
7 8 -7 119.68 1168.23 880.43 <
7 -8 -7 119.68 356.23 653.44 <
7 -8 -7 119.68 257.87 1176.57 <
7 8 -6 7329.12 5863.94 975.51 o
-7 8 6 7329.12 5983.88 1520.19 o
7 -8 -6 7329.12 7443.57 1487.11 o
7 8 -6 7329.12 7279.25 1118.64 o
-7 -8 6 7329.12 8311.95 1760.87 o
7 8 -6 7329.12 7309.24 1286.04 o
7 8 -6 7329.12 6908.63 1328.32 o
7 -8 -6 7329.12 7348.82 1265.11 o
-7 -8 6 7329.12 7661.86 1077.49 o
7 8 -5 102.89 -376.62 558.49 <
-7 -8 5 102.89 590.11 523.19 <
-7 8 5 102.89 99.55 728.05 <
7 8 -5 102.89 326.24 462.68 <
-7 -8 5 102.89 780.82 964.59 <
7 -8 -5 102.89 599.71 702.12 <
7 8 -5 102.89 -333.44 577.79 <
7 8 -5 102.89 296.26 431.54 <
-7 -8 4 23.26 -307.05 412.19 <
-7 8 4 23.26 68.37 658.47 <
7 8 -4 23.26 -446.18 486.23 <
7 -8 -4 23.26 134.34 560.08 <
-7 -8 4 23.26 -646.48 630.90 <
7 8 -4 23.26 50.38 576.91 <
7 8 -4 23.26 105.55 432.95 <
7 8 -4 23.26 -863.58 728.60 <
-7 -8 3 37.90 701.66 439.65 <
-7 8 3 37.90 546.93 817.44 <
7 -8 -3 37.90 -70.77 575.71 <
-7 -8 3 37.90 1151.44 890.03 <
7 8 -3 37.90 1277.38 763.07 <
7 -8 -3 37.90 1081.87 747.18 <
7 8 -3 37.90 356.23 521.38 <
7 8 -3 37.90 -430.59 764.79 <
-7 8 2 6124.31 5766.79 1275.35 o
7 -8 -2 6124.31 6583.59 1100.64 o
-7 -8 2 6124.33 8856.48 1646.64 o
7 8 -2 6124.33 5566.49 1286.97 o
7 8 -2 6124.33 7575.51 1250.58 o
-7 8 1 146.36 -548.13 674.49 <
-7 -8 1 146.37 227.89 783.17 <
7 -8 -1 146.36 -121.14 536.12 <
7 8 -1 146.37 478.57 560.80 <
7 8 -1 146.37 1518.46 875.19 <
7 -8 -1 146.36 446.18 643.70 <
-7 8 0 5567.71 6168.59 1441.74 o
-7 -8 0 5567.74 5891.53 1503.48 o
7 -8 0 5567.71 5229.45 1088.26 o
7 8 0 5567.74 8195.60 1422.81 o
7 8 0 5567.74 3793.75 1236.20 o
7 -8 0 5567.71 5728.41 1309.29 o
-7 8 -1 1100.29 919.95 920.41 <
-7 -8 -1 1100.31 2396.43 1270.18 <
7 -8 1 1100.29 1051.89 697.04 <
7 8 1 1100.31 648.88 796.30 <
7 -8 1 1100.29 1059.08 873.30 <
7 8 1 1100.31 2101.38 856.23 <
-7 -8 -2 2121.87 1090.27 976.37 <
-7 8 -2 2121.85 3549.07 1248.58 <
7 -8 2 2121.85 1540.05 748.08 <
7 -8 2 2121.85 2348.46 1054.31 <
7 8 2 2121.87 2276.49 892.64 <
7 8 2 2121.87 1564.04 826.84 <
7 -8 3 2016.43 1385.32 730.16 <
-7 -9 8 504.80 253.08 574.87 <
7 9 -8 504.80 223.09 613.25 <
7 -9 -8 504.80 771.22 759.85 <
-7 -9 7 342.46 -355.03 651.08 <
7 9 -7 342.46 -437.79 706.10 <
7 9 -7 342.46 1138.25 855.64 <
7 -9 -7 342.46 1250.99 689.07 <
7 -9 -7 342.46 1302.56 1109.82 <
7 9 -6 568.61 339.43 510.20 <
-7 -9 6 568.61 702.86 499.73 <
7 -9 -6 568.61 273.47 761.97 <
-7 9 6 568.61 33.58 821.93 <
7 9 -6 568.61 -65.97 561.77 <
-7 -9 6 568.61 334.64 923.80 <
7 9 -6 568.61 184.71 597.79 <
7 9 -6 568.61 734.04 708.47 <
7 9 -5 7929.85 7744.62 1185.55 o
7 9 -5 7929.85 8802.51 1152.87 o
-7 9 5 7929.89 7129.32 1548.06 o
7 -9 -5 7929.89 8778.52 1656.78 o
-7 -9 5 7929.85 10006.70 1835.17 o
7 9 -5 7929.85 7982.11 1415.80 o
7 9 -5 7929.85 8731.74 1322.69 o
-7 -9 5 7929.85 8271.17 1049.14 o
7 9 -4 655.69 829.99 531.93 <
-7 -9 4 655.69 550.53 451.31 <
7 -9 -4 655.69 507.35 558.08 <
-7 9 4 655.69 1388.92 858.84 <
7 9 -4 655.69 868.38 573.81 <
-7 -9 4 655.69 449.78 637.29 <
7 9 -4 655.69 1002.71 652.55 <
7 9 -4 655.69 1429.70 627.43 <
-7 9 3 6602.16 6614.78 1471.55 o
7 -9 -3 6602.16 6678.34 1289.63 o
7 -9 -3 6602.16 5589.28 1136.60 o
-7 -9 3 6602.16 7080.15 1480.72 o
7 9 -3 6602.16 7063.36 1342.46 o
7 9 -3 6602.16 7206.09 1130.50 o
-7 -9 3 6602.16 7541.92 954.60 o
7 9 -3 6602.16 6123.02 1115.95 o
-7 9 2 577.85 647.68 659.52 <
7 -9 -2 577.85 752.03 583.62 <
-7 -9 2 577.87 1595.22 977.99 <
7 9 -2 577.87 1090.27 617.07 <
7 9 -2 577.87 -255.48 794.20 <
-7 9 1 1013.33 633.29 731.39 <
-7 -9 1 1013.35 1182.62 897.85 <
7 -9 -1 1013.33 797.61 572.91 <
7 9 -1 1013.35 1205.41 852.17 <
7 -9 -1 1013.33 1060.28 712.29 <
7 9 -1 1013.35 2192.53 879.40 <
-7 9 0 188.09 357.43 649.90 <
-7 -9 0 188.08 801.21 832.54 <
7 -9 0 188.09 -194.30 561.26 <
7 9 0 188.08 1612.01 831.33 <
7 -9 0 188.09 734.04 682.61 <
7 9 0 188.08 1974.24 926.79 <
-7 9 -1 834.49 608.10 810.06 <
-7 -9 -1 834.49 2389.24 1373.05 <
7 -9 1 834.49 1252.19 768.57 <
7 9 1 834.49 2120.57 1022.81 <
7 -9 1 834.49 1105.86 795.58 <
7 9 1 834.49 2886.99 990.62 <
-7 -9 -2 1734.35 1325.35 1038.88 <
-7 9 -2 1734.35 2096.58 1107.91 <
7 -9 2 1734.35 1751.15 715.95 <
7 -9 3 5995.61 4662.13 1151.33 o
7 -10 -8 126.15 351.43 565.86 <
-7 -10 7 8849.67 9161.13 1280.50 o
7 10 -7 8849.67 9690.08 1406.68 o
7 10 -7 8849.67 9164.73 1595.73 o
7 10 -6 475.58 136.73 552.10 <
-7 -10 6 475.58 711.25 513.85 <
7 -10 -6 475.58 1428.50 1030.23 <
-7 10 6 475.58 350.23 855.32 <
7 10 -6 475.58 253.08 498.11 <
-7 -10 6 475.58 549.33 969.03 <
7 10 -6 475.58 1009.91 713.36 <
7 10 -6 475.58 51.57 480.17 <
7 10 -5 1466.73 1173.03 678.99 <
-7 -10 5 1466.73 1152.64 604.88 <
-7 10 5 1466.72 1429.70 1029.22 <
7 10 -5 1466.73 2710.68 727.07 o
7 -10 -5 1466.72 2218.92 1052.11 <
-7 -10 5 1466.73 2202.13 1004.07 <
7 10 -5 1466.73 1636.00 740.37 <
7 10 -5 1466.73 1404.52 530.54 <
7 -10 -4 162.62 906.76 714.41 <
7 10 -4 162.64 -65.97 719.67 <
-7 -10 4 162.64 415.00 455.34 <
-7 10 4 162.62 554.13 882.32 <
7 10 -4 162.64 398.21 520.20 <
7 -10 -4 162.62 356.23 555.09 <
-7 -10 4 162.64 281.86 679.97 <
7 10 -4 162.64 1318.16 894.27 <
7 10 -4 162.64 605.71 522.01 <
7 10 -3 1026.33 399.40 632.34 <
-7 -10 3 1026.33 1104.66 593.37 <
7 -10 -3 1026.29 1342.15 804.84 <
-7 10 3 1026.29 2015.02 989.08 <
7 -10 -3 1026.29 1740.35 719.68 <
-7 -10 3 1026.33 2170.94 1058.05 <
7 10 -3 1026.33 1134.65 661.65 <
7 10 -3 1026.33 1320.56 639.14 <
-7 10 2 1032.81 1345.74 837.28 <
7 -10 -2 1032.81 1327.75 643.93 <
-7 -10 2 1032.78 1689.98 1064.10 <
7 10 -2 1032.78 2797.04 1069.56 <
7 10 -2 1032.78 283.06 738.94 <
-7 10 1 9066.04 8571.02 1704.47 o
-7 -10 1 9066.07 11712.30 2009.87 o
7 -10 -1 9066.04 8966.83 1464.75 o
7 10 -1 9066.07 8232.79 1671.40 o
7 -10 -1 9066.04 9301.47 1680.88 o
7 10 -1 9066.07 8820.50 1462.08 o
-7 10 0 1898.07 2767.05 1171.02 <
-7 -10 0 1898.08 2296.88 1108.79 <
7 -10 0 1898.07 2036.61 951.64 <
7 -10 0 1898.07 2326.87 911.49 <
7 10 0 1898.08 3559.86 1024.66 o
7 -10 1 13232.30 13786.10 2195.11 o
7 -10 1 13232.30 11437.60 1700.35 o
-7 -10 -1 13232.20 11997.80 2445.10 o
7 10 1 13232.20 17912.10 1997.04 o
-7 10 -1 13232.30 12940.50 2157.19 o
-7 10 -2 695.60 1081.87 1142.27 <
7 -10 2 695.60 1145.44 719.36 <
7 -10 3 3923.19 3389.55 1143.45 <
-7 -11 7 3801.78 3725.38 929.09 o
7 11 -7 3801.78 4301.10 1041.14 o
7 11 -7 3801.78 3507.09 1140.48 o
7 11 -6 1177.29 1086.67 669.64 <
-7 -11 6 1177.29 1000.31 593.27 <
7 11 -6 1177.29 1734.35 768.53 <
-7 -11 6 1177.29 1242.59 955.73 <
7 11 -6 1177.29 1855.50 815.96 <
7 11 -6 1177.29 904.36 750.50 <
7 11 -5 3563.19 4706.51 1005.37 o
-7 -11 5 3563.19 3863.32 826.72 o
-7 11 5 3563.15 5355.39 1561.78 o
7 11 -5 3563.19 4006.05 921.51 o
7 -11 -5 3563.15 4566.17 1297.13 o
-7 -11 5 3563.19 3298.39 1194.02 <
7 11 -5 3563.19 3817.74 1120.62 o
7 11 -5 3563.19 4055.22 905.29 o
7 11 -4 8330.67 9008.81 1388.26 o
-7 11 4 8330.61 8848.09 1687.20 o
7 -11 -4 8330.61 8219.59 1378.53 o
-7 -11 4 8330.67 9818.41 1826.57 o
7 11 -4 8330.67 8503.85 1484.91 o
7 11 -4 8330.67 8680.17 1282.58 o
-7 -11 4 8330.67 10172.20 1226.61 o
7 -11 -4 8330.61 8947.64 1696.76 o
7 11 -3 2669.07 3116.08 844.22 o
-7 -11 3 2669.07 3084.90 752.94 o
7 -11 -3 2669.12 3652.22 1118.06 o
-7 11 3 2669.12 3003.34 1096.55 <
7 -11 -3 2669.12 3367.96 899.73 o
-7 -11 3 2669.07 3900.50 1410.41 <
7 11 -3 2669.07 2572.75 1113.60 <
7 11 -3 2669.07 3469.91 874.56 o
7 11 -2 5405.10 5714.01 1099.69 o
-7 11 2 5405.01 6511.63 1553.57 o
7 -11 -2 5405.01 6115.82 1205.52 o
-7 -11 2 5405.10 6875.05 1574.99 o
-7 11 1 3725.14 4875.62 1372.72 o
-7 -11 1 3725.13 4025.24 1342.44 <
7 -11 -1 3725.14 5108.31 1190.12 o
7 -11 -1 3725.14 3737.38 1096.17 o
7 11 -1 3725.13 3498.69 1039.36 o
-7 11 0 6.33 1083.07 928.73 <
-7 -11 0 6.33 -189.51 774.74 <
7 -11 0 6.33 387.41 634.11 <
7 -11 0 6.33 400.61 1281.98 <
7 11 0 6.33 550.53 757.39 <
-7 11 -1 507.69 873.17 747.55 <
-7 -11 -1 507.70 1219.81 1176.40 <
7 -11 1 507.69 448.58 690.96 <
-7 11 -2 389.21 1141.84 1038.34 <
7 -11 2 389.21 656.08 813.96 <
-7 -12 7 1806.27 2364.05 871.03 <
7 12 -6 4058.31 4836.04 1100.52 o
-7 -12 6 4058.31 2854.61 803.41 o
7 12 -6 4058.31 4320.29 990.43 o
7 12 -6 4058.31 5696.02 1254.14 o
7 12 -6 4058.31 3345.17 1067.24 o
7 12 -5 975.87 1862.69 817.53 <
-7 -12 5 975.87 900.76 590.40 <
-7 12 5 975.90 2388.04 1253.01 <
7 12 -5 975.87 243.48 548.50 <
7 -12 -5 975.90 789.22 937.15 <
7 -12 -5 975.90 646.48 630.64 <
-7 -12 5 975.87 2224.92 1134.68 <
7 12 -5 975.87 2663.90 979.67 <
7 12 -5 975.87 1390.12 565.12 <
7 12 -4 355.59 -719.65 631.98 <
-7 -12 4 355.59 434.19 474.81 <
-7 12 4 355.60 903.16 1127.81 <
7 -12 -4 355.60 684.87 577.33 <
-7 -12 4 355.59 1141.84 981.83 <
7 12 -4 355.59 337.04 675.29 <
7 12 -4 355.59 1102.26 587.52 <
7 -12 -4 355.60 -202.70 689.70 <
7 12 -3 281.58 -746.04 677.48 <
-7 -12 3 281.58 57.57 443.94 <
-7 12 3 281.58 321.44 895.93 <
7 -12 -3 281.58 1176.63 685.72 <
-7 -12 3 281.58 1116.66 1053.89 <
7 12 -3 281.58 789.22 860.30 <
7 12 -3 281.58 828.80 645.17 <
7 -12 -3 281.58 1107.06 797.95 <
7 12 -2 1954.10 1324.15 738.39 <
-7 12 2 1954.11 2449.21 1206.76 <
7 -12 -2 1954.11 1597.62 831.76 <
-7 -12 2 1954.10 2933.77 1189.48 <
7 -12 -2 1954.11 1878.28 959.89 <
-7 12 1 2437.11 2769.45 1280.52 <
-7 -12 1 2437.11 3136.47 1334.90 <
7 -12 -1 2437.11 3567.06 1149.94 o
7 -12 -1 2437.11 3252.81 1187.31 <
7 12 -1 2437.11 2245.31 876.79 <
-7 12 0 3545.27 2875.00 1149.78 <
-7 -12 0 3545.27 4172.77 1515.73 <
7 -12 0 3545.27 3935.28 1071.36 o
7 -12 0 3545.27 4178.76 1302.74 o
7 12 0 3545.27 2495.98 1019.36 <
-7 12 -1 661.88 2239.31 1208.45 <
7 -12 1 661.88 338.23 682.97 <
-7 12 -2 161.50 605.71 1287.79 <
7 13 -6 12.03 674.07 704.23 <
-7 -13 6 12.03 516.95 623.02 <
7 13 -6 12.03 274.67 609.11 <
7 13 -6 12.03 163.12 531.26 <
7 13 -6 12.03 -39.58 585.31 <
7 13 -5 18090.70 20423.60 1906.60 o
7 13 -5 18090.70 16722.20 2113.84 o
7 13 -5 18090.70 20601.20 2194.08 o
7 13 -5 18090.70 18301.90 1934.68 o
-7 -13 5 18090.70 19843.10 1795.34 o
7 13 -4 4605.20 4854.03 1204.25 o
-7 -13 4 4605.20 4327.49 905.22 o
-7 -13 4 4605.20 4393.46 1415.71 o
7 13 -4 4605.20 4722.10 1270.35 o
7 -13 -4 4605.16 4262.72 1233.52 o
7 13 -4 4605.20 4353.88 1006.57 o
-7 -13 3 28958.40 35493.10 3443.73 o
7 -13 -3 28958.30 28615.70 2629.72 o
7 -13 -3 28958.30 27327.50 2846.42 o
7 13 -3 28958.40 31689.80 2632.73 o
7 13 -3 28958.40 28506.50 2251.95 o
-7 13 3 28958.30 28717.60 3121.42 o
-7 -13 3 28958.40 30967.70 2155.78 o
7 13 -2 1360.57 287.86 689.68 <
-7 13 2 1360.57 1427.30 1014.48 <
-7 -13 2 1360.57 1885.48 1184.40 <
7 -13 -2 1360.57 2174.54 992.98 <
7 -13 -2 1360.57 2090.58 1048.81 <
7 13 -1 2190.66 2074.99 859.46 <
-7 13 1 2190.65 1811.12 998.48 <
-7 -13 1 2190.66 3658.22 1292.76 <
7 -13 -1 2190.65 2407.23 1017.11 <
7 -13 -1 2190.65 2837.82 1109.39 <
-7 13 0 3169.00 2662.70 1298.02 <
7 14 -6 14466.30 11754.30 1826.80 o
7 14 -5 18534.40 22335.50 2050.47 o
7 14 -5 18534.40 16595.10 2113.31 o
7 14 -5 18534.40 19985.90 2241.59 o
7 14 -5 18534.40 20235.30 2039.59 o
-7 -14 5 18534.40 21143.30 1915.06 o
7 14 -4 1008.21 1354.14 773.49 <
-7 -14 4 1008.21 764.03 572.99 <
7 14 -4 1008.21 1933.46 1007.53 <
7 14 -4 1008.21 1067.48 673.85 <
7 14 -3 8340.54 8641.79 1591.35 o
-7 -14 3 8340.54 7389.60 1199.77 o
7 -14 -3 8340.60 7264.86 1527.80 o
7 14 -3 8340.54 7832.18 1196.81 o
7 14 -2 13459.30 14264.60 1943.58 o
7 -14 -2 13459.30 12194.50 1853.48 o
7 15 -6 70.59 -272.27 627.09 <
7 15 -5 22447.70 20811.10 2473.76 o
7 15 -5 22447.70 24901.10 2499.86 o
7 15 -5 22447.70 20151.40 2164.89 o
7 15 -4 18277.30 18701.30 2325.96 o
-7 -15 4 18277.30 19121.10 1840.88 o
7 15 -3 41447.30 47719.90 3384.22 o
7 -15 -2 6145.12 6919.43 1558.51 o
8 0 -8 19005.20 19591.20 2432.02 o
8 0 -7 2.50 923.55 756.23 <
-8 0 6 18376.70 16901.00 2128.12 o
8 0 -6 18376.70 18371.40 2067.90 o
-8 0 5 28243.20 25107.40 2359.06 o
-8 0 5 28243.20 26597.00 2806.73 o
8 0 -5 28243.20 28904.70 2554.99 o
-8 0 4 98649.50 97224.60 4248.55 o
-8 0 4 98649.50 104902.00 4749.48 o
8 0 -4 98649.50 104133.00 4222.53 o
-8 0 3 12520.80 12021.70 1464.89 o
-8 0 3 12520.80 11772.30 1602.76 o
-8 0 2 27514.20 27346.70 2281.32 o
8 0 -2 27514.20 29846.20 2833.75 o
-8 0 2 27514.20 31042.10 2314.84 o
8 0 -1 22207.30 21667.40 2676.90 o
-8 0 1 22207.30 24943.00 2141.67 o
8 0 0 9934.29 8555.43 1777.60 o
8 0 1 69557.80 68836.80 4434.88 o
8 0 1 69557.80 59627.70 4692.42 o
8 0 2 21115.50 18397.80 2556.51 o
8 1 -9 343.46 1965.84 1185.15 <
8 -1 -8 26167.30 27033.60 2843.52 o
8 1 -8 26167.30 27388.60 2720.14 o
8 1 -7 13654.30 12748.60 1858.83 o
8 -1 -7 13654.20 12998.10 1854.76 o
8 -1 -7 13654.20 14027.20 1970.33 o
-8 -1 6 41687.60 41145.90 3303.90 o
8 1 -6 41687.60 41366.60 3092.84 o
8 -1 -6 41687.70 42479.70 3155.52 o
-8 1 5 1242.45 478.57 611.51 <
-8 -1 5 1242.47 1120.25 768.07 <
8 1 -5 1242.47 1292.97 787.82 <
8 -1 -5 1242.45 1390.12 745.40 <
-8 -1 4 302.30 -68.37 732.93 <
-8 1 4 302.30 188.31 574.63 <
-8 -1 4 302.30 656.08 630.17 <
8 1 -4 302.30 356.23 503.67 <
-8 -1 3 21661.70 20549.60 2016.51 o
-8 -1 3 21661.70 21561.90 2121.81 o
8 1 -3 21661.70 21323.20 2407.28 o
-8 1 3 21661.90 20193.40 2129.88 o
-8 -1 2 32153.50 32596.50 2489.36 o
8 1 -2 32153.50 31712.50 3077.88 o
-8 -1 2 32153.50 33065.50 2417.32 o
-8 1 2 32153.50 32243.90 2526.80 o
-8 -1 1 28341.70 26390.70 2503.89 o
8 1 -1 28341.70 28152.70 2968.07 o
-8 1 1 28341.70 27230.30 2386.70 o
-8 -1 0 20429.00 17746.50 2284.07 o
8 -1 0 20429.00 22534.60 2462.37 o
8 1 0 20429.00 21577.50 2526.94 o
8 1 1 53.43 207.50 705.17 <
8 1 1 53.43 -20.39 825.20 <
8 -1 1 53.43 310.65 713.46 <
8 -1 2 480.64 820.40 849.71 <
8 1 2 480.63 1135.85 991.66 <
8 -2 -8 949.74 1258.19 1001.86 <
8 -2 -7 18.12 546.93 681.78 <
-8 -2 7 18.12 1045.89 800.24 <
8 2 -7 18.12 -301.05 534.64 <
8 -2 -7 18.12 626.09 664.75 <
-8 2 6 815.54 901.96 971.34 <
8 -2 -6 815.54 2128.96 937.07 <
-8 -2 6 815.54 1301.37 1010.99 <
8 2 -6 815.54 1164.63 792.91 <
8 -2 -6 815.54 1020.70 761.01 <
-8 2 5 4288.42 4466.62 1275.90 o
-8 -2 5 4288.41 5095.12 1227.81 o
8 2 -5 4288.41 4165.57 1105.78 o
8 -2 -5 4288.42 4175.16 1000.26 o
-8 -2 4 3112.76 2040.21 761.38 <
-8 2 4 3112.77 3224.03 934.63 o
-8 -2 4 3112.76 3294.79 1204.24 <
8 2 -4 3112.76 3812.94 1159.46 o
8 2 -4 3112.76 3317.58 936.24 o
8 2 -4 3112.76 3192.84 991.30 o
-8 -2 3 6553.84 5734.40 1174.73 o
-8 2 3 6553.84 6332.91 1282.43 o
-8 -2 3 6553.84 6293.33 1208.72 o
8 2 -3 6553.84 7213.28 1485.84 o
8 2 -3 6553.84 5103.51 1046.65 o
-8 -2 2 54.91 -418.60 485.12 <
-8 2 2 54.92 304.65 672.67 <
-8 -2 2 54.91 233.89 542.00 <
8 2 -2 54.91 308.25 893.41 <
8 2 -2 54.91 -331.04 618.58 <
-8 2 1 222.13 861.18 832.40 <
-8 -2 1 222.14 304.65 801.14 <
8 2 -1 222.14 235.09 618.89 <
8 -2 0 3857.37 4249.53 1199.79 o
-8 -2 0 3857.37 3579.06 1367.93 <
8 2 0 3857.37 2533.17 1035.87 <
8 2 0 3857.37 4436.64 1195.69 o
8 2 1 2616.19 4000.05 1107.29 o
-8 -2 -1 2616.19 1101.06 925.09 <
8 2 1 2616.19 2022.21 729.99 <
8 -2 1 2616.20 3399.14 1212.55 <
8 2 2 4766.47 5364.98 1487.09 o
-8 3 7 3007.38 3087.29 1202.53 <
-8 -3 7 3007.38 3509.49 1217.70 <
8 -3 -7 3007.38 2685.49 980.92 <
8 -3 -7 3007.38 3239.62 1133.09 <
8 -3 -6 8403.22 9069.98 1711.71 o
-8 3 6 8403.22 8678.97 1776.74 o
-8 -3 6 8403.23 8915.25 1684.81 o
8 3 -6 8403.23 8346.73 1565.96 o
8 -3 -6 8403.22 8511.05 1465.39 o
-8 3 5 4814.37 5920.31 1443.52 o
-8 -3 5 4814.35 4617.75 1081.52 o
8 3 -5 4814.35 5986.28 1257.73 o
8 -3 -5 4814.37 4620.15 1031.22 o
-8 3 4 2274.46 1790.73 847.07 <
-8 -3 4 2274.47 2928.97 927.36 o
8 3 -4 2274.47 2472.00 971.55 <
8 3 -4 2274.47 2529.57 867.85 <
8 3 -4 2274.47 1459.69 578.01 <
-8 -3 3 2810.83 2443.21 692.94 o
-8 3 3 2810.84 2751.46 932.37 <
-8 -3 3 2810.83 2723.87 910.99 <
8 3 -3 2810.83 -400.61 953.88 <
8 3 -3 2810.83 2258.50 736.06 o
-8 -3 2 328.72 -7.20 451.17 <
-8 3 2 328.72 -203.90 622.52 <
-8 -3 2 328.72 -263.87 674.01 <
8 3 -2 328.72 1385.32 817.20 <
8 3 -2 328.72 319.04 542.15 <
-8 3 1 53.86 440.18 707.25 <
-8 -3 1 53.86 883.97 800.90 <
8 3 -1 53.86 183.51 831.14 <
8 3 -1 53.86 -392.21 658.06 <
-8 3 0 1952.86 2107.37 845.89 <
-8 -3 0 1952.89 1669.59 970.36 <
8 3 0 1952.89 1206.61 908.43 <
8 3 0 1952.89 734.04 661.15 <
8 -3 0 1952.86 2270.49 980.64 <
-8 -3 -1 2841.90 2427.62 1089.02 <
8 3 1 2841.90 1970.64 1011.00 <
8 -3 1 2841.93 3284.00 1184.62 <
8 3 1 2841.90 3365.56 1145.54 <
8 3 2 2522.86 2695.09 1032.84 <
-8 4 7 1170.52 -570.92 1251.40 <
8 4 -7 1170.51 1090.27 616.85 <
8 -4 -7 1170.52 1392.52 921.59 <
-8 -4 7 1170.51 1228.20 1172.89 <
-8 4 6 3714.44 2933.77 1110.07 <
8 4 -6 3714.41 3191.64 749.29 o
8 -4 -6 3714.44 6212.97 1453.25 o
-8 -4 6 3714.41 3796.15 1218.00 o
8 4 -6 3714.41 3712.19 1033.92 o
8 -4 -6 3714.44 3408.74 1002.88 o
-8 4 5 28.90 -934.34 789.63 <
8 4 -5 28.90 -80.36 400.58 <
8 -4 -5 28.90 197.90 603.21 <
-8 -4 5 28.90 1259.39 766.76 <
8 4 -5 28.90 -454.58 528.24 <
8 4 -5 28.90 401.80 640.10 <
-8 4 4 8151.01 8773.72 1634.18 o
-8 -4 4 8151.01 9793.23 1557.61 o
8 4 -4 8151.01 6480.44 1250.96 o
8 4 -4 8151.01 9342.25 1382.54 o
8 4 -4 8151.01 8242.38 1129.46 o
-8 -4 3 1647.54 415.00 545.43 <
-8 4 3 1647.54 1992.23 870.19 <
-8 -4 3 1647.54 1360.14 733.02 <
8 4 -3 1647.54 2894.19 907.01 o
8 4 -3 1647.54 906.76 626.98 <
-8 -4 2 10844.00 11052.60 1684.32 o
-8 4 2 10844.00 9249.89 1568.88 o
8 4 -2 10844.00 10529.70 1510.59 o
8 4 -2 10844.00 10756.40 1775.21 o
-8 4 1 5962.91 6341.31 1284.99 o
-8 -4 1 5962.92 6905.03 1507.41 o
8 4 -1 5962.92 4852.83 1350.09 o
8 4 -1 5962.92 5815.96 1208.32 o
-8 4 0 2378.72 1988.63 851.52 <
-8 -4 0 2378.72 2883.39 1182.24 <
8 4 0 2378.72 1686.38 887.57 <
8 4 0 2378.72 1183.82 816.38 <
8 -4 0 2378.72 1898.67 911.76 <
-8 -4 -1 6025.44 4564.97 1317.28 o
8 -4 1 6025.42 5827.96 1437.64 o
8 4 1 6025.44 6130.21 1437.03 o
-8 -4 -2 1252.41 1909.47 1180.37 <
8 5 -7 729.60 747.24 591.26 <
-8 -5 7 729.60 1809.92 1184.25 <
8 -5 -6 2103.27 2827.02 1086.14 <
-8 5 6 2103.27 755.63 829.91 <
8 5 -6 2103.27 2185.33 687.85 o
-8 -5 6 2103.27 3208.44 1173.82 <
8 5 -6 2103.27 1859.09 747.56 <
8 -5 -6 2103.27 2286.09 875.66 <
-8 5 5 505.30 419.80 670.61 <
8 5 -5 505.31 441.39 430.76 <
-8 -5 5 505.31 1681.58 840.07 <
8 -5 -5 505.30 1075.88 772.05 <
8 5 -5 505.31 1141.84 706.85 <
8 5 -5 505.31 665.67 701.32 <
-8 5 4 25.39 147.53 750.79 <
-8 -5 4 25.39 624.90 811.25 <
8 5 -4 25.39 338.23 714.61 <
8 5 -4 25.39 -103.15 510.91 <
8 5 -4 25.39 -134.34 489.30 <
-8 -5 3 692.16 -10.79 539.25 <
-8 5 3 692.16 1524.46 907.62 <
-8 -5 3 692.16 403.00 609.87 <
8 5 -3 692.16 970.33 811.28 <
8 5 -3 692.16 1001.51 805.18 <
-8 5 2 1683.41 2013.82 860.63 <
-8 -5 2 1683.42 1705.57 821.49 <
8 5 -2 1683.42 1548.45 837.81 <
8 5 -2 1683.42 2407.23 866.44 <
-8 5 1 1621.80 1475.28 930.12 <
-8 -5 1 1621.79 2668.70 1124.68 <
8 5 -1 1621.79 1074.68 723.14 <
8 5 -1 1621.79 2404.83 955.32 <
-8 5 0 2627.92 3459.11 1065.13 o
-8 -5 0 2627.91 4014.44 1230.63 o
8 5 0 2627.91 2464.80 1183.46 <
8 5 0 2627.91 2783.84 1076.13 <
8 -5 0 2627.92 2979.35 1209.42 <
-8 -5 -1 1522.98 1272.58 981.95 <
8 5 1 1522.98 1032.70 884.36 <
-8 -5 -2 1303.78 -2.40 1079.53 <
8 6 -8 1253.49 1067.48 655.65 <
8 6 -7 621.58 930.75 653.94 <
-8 -6 7 621.58 -369.42 939.21 <
-8 6 6 348.92 -417.40 859.73 <
8 6 -6 348.90 528.94 491.35 <
8 -6 -6 348.92 766.43 866.45 <
-8 -6 6 348.90 1018.30 1097.50 <
8 6 -6 348.90 1128.65 779.94 <
8 6 -6 348.90 327.44 617.73 <
8 -6 -6 348.92 1204.21 796.45 <
-8 6 5 2523.27 3487.90 1188.47 <
8 6 -5 2523.26 2531.97 699.18 o
-8 -6 5 2523.26 3817.74 1234.10 o
8 6 -5 2523.26 -1129.85 791.56 <
8 -6 -5 2523.27 2624.32 1054.89 <
8 6 -5 2523.26 3266.01 943.05 o
-8 6 4 643.17 1294.17 918.12 <
-8 -6 4 643.18 1855.50 961.15 <
8 6 -4 643.18 1302.56 818.31 <
8 6 -4 643.18 837.19 714.35 <
8 6 -4 643.18 1195.82 662.45 <
-8 6 3 3335.30 4826.45 1300.30 o
-8 -6 3 3335.34 4900.81 1235.34 o
8 6 -3 3335.34 4368.27 1224.88 o
8 6 -3 3335.34 4105.60 956.92 o
-8 6 2 1411.84 2162.55 937.88 <
-8 -6 2 1411.83 477.37 730.47 <
8 6 -2 1411.83 1410.51 1109.46 <
8 6 -2 1411.83 2963.76 917.27 o
-8 6 1 4297.21 3979.66 1115.85 o
-8 -6 1 4297.24 5382.98 1299.73 o
8 6 -1 4297.24 6330.51 1427.30 o
8 6 -1 4297.24 4777.27 1160.06 o
-8 6 0 1267.09 1883.08 987.01 <
-8 -6 0 1267.08 1506.47 947.87 <
8 6 0 1267.08 1812.32 1137.57 <
8 6 0 1267.08 2247.70 1030.72 <
8 -6 0 1267.09 1520.86 884.18 <
-8 -6 -1 630.10 443.78 812.28 <
-8 -6 -2 1616.04 -73.16 986.83 <
8 7 -8 5834.93 5796.77 1190.27 o
8 7 -7 1794.89 1965.84 724.57 <
-8 -7 7 1794.89 1403.32 1139.51 <
-8 7 6 8228.03 8142.83 1852.80 o
8 7 -6 8228.08 9532.95 1207.22 o
-8 -7 6 8228.08 8305.95 1824.66 o
8 7 -6 8228.08 9444.20 1571.33 o
8 7 -6 8228.08 9222.30 1539.52 o
-8 7 5 3667.04 2527.17 1043.94 <
8 7 -5 3667.05 3858.52 768.96 o
8 -7 -5 3667.04 4640.54 1269.46 o
-8 -7 5 3667.05 4600.96 1281.89 o
8 7 -5 3667.05 5054.34 1227.81 o
8 7 -5 3667.05 3384.75 982.33 o
-8 7 4 3231.65 5029.15 1318.13 o
-8 -7 4 3231.60 3466.31 1125.76 o
8 7 -4 3231.60 4752.08 1242.18 o
8 7 -4 3231.60 4149.98 1047.43 o
8 -7 -4 3231.65 5007.56 1336.53 o
8 7 -4 3231.60 4782.07 1054.94 o
-8 7 3 1966.44 3367.96 1087.33 o
-8 -7 3 1966.44 3610.24 1154.21 o
8 7 -3 1966.44 2138.56 1249.10 <
8 7 -3 1966.44 3754.17 1009.77 o
-8 7 2 215.44 1049.49 778.84 <
-8 -7 2 215.44 172.72 676.50 <
8 7 -2 215.44 1496.87 1042.74 <
8 7 -2 215.44 702.86 782.41 <
8 -7 -1 215.22 1752.35 929.44 <
-8 7 1 215.22 714.85 801.59 <
-8 -7 1 215.22 689.66 762.03 <
8 7 -1 215.22 -31.18 758.08 <
8 7 -1 215.22 196.70 788.03 <
-8 7 0 3840.71 3808.14 1277.61 <
-8 -7 0 3840.71 3952.07 1430.17 <
8 7 0 3840.71 3907.69 1130.50 o
-8 -7 -1 987.18 1620.41 1108.73 <
8 8 -7 217.37 355.03 599.54 <
8 8 -6 4456.69 3857.32 819.16 o
-8 -8 6 4456.69 5031.55 1553.75 o
8 8 -6 4456.69 5314.61 1265.62 o
8 -8 -5 6010.99 5772.79 1451.20 o
-8 8 5 6010.99 6041.46 1623.74 o
8 8 -5 6010.97 5603.67 961.78 o
-8 -8 5 6010.97 6978.20 1651.86 o
8 8 -5 6010.97 5610.86 1284.08 o
8 8 -5 6010.97 5993.48 1284.77 o
-8 -8 4 20112.50 23972.70 2655.47 o
8 8 -4 20112.50 20516.00 2385.77 o
8 8 -4 20112.50 21523.50 1952.45 o
-8 8 4 20112.50 22427.90 2650.06 o
8 8 -4 20112.50 22489.00 2161.20 o
8 -8 -4 20112.50 22313.90 2481.64 o
-8 8 3 2619.19 1077.07 808.53 <
-8 -8 3 2619.20 4163.17 1163.87 o
8 8 -3 2619.20 3474.71 1286.69 <
8 8 -3 2619.20 4470.22 1104.87 o
-8 8 2 8050.57 9060.38 1649.62 o
-8 -8 2 8050.71 9187.52 1715.61 o
8 8 -2 8050.71 11113.80 1534.41 o
8 8 -2 8050.71 9247.49 1803.07 o
8 -8 -1 2561.13 3852.52 1267.84 o
-8 8 1 2561.13 2547.56 1033.98 <
-8 -8 1 2561.11 3113.68 1108.36 <
8 8 -1 2561.11 1519.66 1027.65 <
8 8 -1 2561.11 2823.42 1035.83 <
-8 8 0 990.69 1765.54 987.88 <
-8 -8 0 990.67 1113.06 1074.38 <
8 8 0 990.67 365.82 717.25 <
8 -8 1 15668.20 12851.70 1856.04 o
-8 -8 -1 15668.20 14153.10 2571.96 o
-8 8 -1 15668.20 15011.90 2324.02 o
8 9 -7 34849.10 35330.00 2637.76 o
8 9 -6 17248.40 16097.40 1691.92 o
-8 -9 6 17248.40 17680.60 2679.91 o
8 9 -6 17248.40 17599.00 2107.60 o
8 9 -6 17248.40 14974.70 2013.73 o
8 9 -5 10414.10 11033.40 1342.20 o
-8 -9 5 10414.10 11350.10 2035.25 o
8 9 -5 10414.10 9643.30 1704.35 o
8 9 -5 10414.10 11665.50 1685.64 o
-8 9 4 1303.41 1764.34 1133.08 <
8 -9 -4 1303.41 2424.02 1146.64 <
-8 -9 4 1303.42 2152.95 989.27 <
8 9 -4 1303.42 2993.74 1227.39 <
8 9 -4 1303.42 725.65 703.47 <
8 9 -4 1303.42 1989.83 781.92 <
-8 -9 3 13459.60 13862.80 2150.38 o
8 9 -3 13459.60 11338.10 1915.37 o
8 9 -3 13459.60 16583.10 1820.16 o
-8 9 3 13459.60 13097.60 2081.71 o
-8 -9 2 33276.20 34574.30 3330.17 o
8 9 -2 33276.20 29392.90 3196.06 o
8 9 -2 33276.20 37371.40 2692.66 o
-8 9 2 33276.20 33291.00 3190.07 o
-8 -9 1 35046.00 36976.80 3599.75 o
8 -9 -1 35045.90 36804.10 2877.54 o
8 9 -1 35046.00 38127.00 2828.80 o
-8 9 1 35045.90 32638.50 3261.04 o
-8 9 0 11592.00 10247.80 1979.75 o
-8 -9 0 11592.00 12710.20 3815.07 o
8 -9 0 11592.00 9953.95 1676.40 o
-8 9 -1 2465.36 2591.94 1263.57 <
8 -9 1 2465.36 2057.00 984.51 <
8 10 -7 627.18 1414.11 850.23 <
8 10 -6 6522.29 6011.47 1079.32 o
8 10 -6 6522.29 6055.85 1336.56 o
-8 -10 5 41426.60 47415.30 4018.26 o
8 10 -5 41426.60 38591.20 3313.44 o
8 10 -5 41426.60 40410.70 3089.63 o
-8 -10 4 22996.20 25950.60 3034.30 o
8 10 -4 22996.20 23401.80 2624.10 o
8 10 -4 22996.20 21781.40 2234.86 o
8 10 -4 22996.20 24724.70 2331.06 o
-8 -10 3 51425.70 59886.80 4285.83 o
8 10 -3 51425.70 45592.20 3917.13 o
8 10 -3 51425.70 60900.30 3238.19 o
-8 10 3 51425.80 50633.30 4073.06 o
-8 10 2 83.46 283.06 916.24 <
-8 -10 2 83.46 139.13 849.17 <
8 10 -2 83.46 2009.02 1124.24 <
-8 10 1 55.29 656.08 1046.46 <
-8 -10 1 55.28 -23.99 901.96 <
8 10 -1 55.28 2265.70 1217.96 <
-8 10 0 36901.90 33179.40 3442.87 o
8 11 -6 2863.05 1836.30 826.92 <
8 11 -6 2863.05 2290.88 971.44 <
8 11 -5 13472.20 15654.80 2082.15 o
8 11 -5 13472.20 14384.60 1849.70 o
8 11 -4 2780.65 2073.79 987.50 <
8 11 -4 2780.65 3204.84 940.63 o
8 11 -4 2780.65 2164.94 809.15 <
-8 -11 3 3243.04 2584.74 1221.04 <
8 11 -3 3243.04 1626.41 810.44 <
8 11 -2 17697.70 23524.10 2375.78 o
8 12 -5 149.71 617.70 600.04 <
8 12 -4 342.63 371.82 644.05 <
8 12 -4 342.63 -337.04 909.03 <
8 12 -3 288.02 -915.15 1026.50 <
8 13 -5 3223.89 3319.98 1064.37 o
8 13 -4 1355.43 417.40 878.65 <
8 13 -4 1355.43 929.55 641.00 <
-9 0 6 4488.37 3318.78 1032.04 o
-9 0 5 5998.77 5577.28 1361.99 o
-9 0 4 3596.73 3393.15 1122.96 o
-9 0 3 11517.60 12159.70 1720.09 o
-9 -1 6 260.43 -273.47 913.87 <
-9 1 6 260.42 -1298.97 1293.06 <
-9 -1 5 1680.88 291.46 711.20 <
-9 1 5 1680.86 385.01 742.27 <
-9 -1 4 426.33 1002.71 722.90 <
-9 1 4 426.34 560.13 717.02 <
-9 1 3 34.99 699.26 889.11 <
-9 -2 5 128.59 2052.20 1003.44 <
-9 2 5 128.59 -64.77 732.85 <
-9 -2 4 364.91 -238.68 792.82 <
-9 2 4 364.91 -142.73 734.14 <
-9 2 3 684.76 1352.94 819.39 <
-9 -3 5 13007.90 12551.90 1990.83 o
-9 3 5 13007.80 12002.50 1996.40 o
-9 3 4 11429.20 11702.70 1893.45 o
-9 3 3 1593.07 1598.82 891.14 <
-9 3 2 3695.99 3910.09 1182.16 o
9 3 -2 3696.00 2933.77 1041.91 <
-9 4 5 601.81 316.65 812.35 <
-9 4 4 148.84 1510.06 1041.38 <
9 4 -3 48843.10 39746.20 3133.58 o
-9 4 3 48843.00 49444.70 3638.73 o
9 4 -2 21784.50 18086.00 2184.92 o
-9 4 2 21784.50 19424.50 2332.10 o
9 4 -1 35661.20 32986.30 3063.18 o
-9 -5 5 48039.10 51970.70 3870.05 o
-9 -5 4 42532.40 44755.00 3537.28 o
-9 5 4 42532.40 44407.20 3601.53 o
-9 5 3 14770.50 14053.50 2133.32 o
9 5 -3 14770.60 10203.40 1597.46 o
-9 5 2 33.44 -87.56 730.43 <
9 5 -2 33.44 -586.51 818.45 <
9 5 -1 15296.00 14033.20 2020.03 o
-9 -6 5 5074.78 6672.35 1692.92 o
-9 6 4 11076.40 11999.00 2049.20 o
-9 -6 4 11076.40 12066.10 1934.69 o
-9 6 3 8793.56 8642.99 1700.22 o
-9 -6 3 8793.53 8322.74 1674.12 o
9 6 -3 8793.53 7784.21 1482.61 o
-9 -6 2 33983.30 35825.30 3331.15 o
9 6 -2 33983.30 32752.40 2886.35 o
-9 6 2 33983.40 31981.20 3140.06 o
-9 -7 5 574.37 1624.01 1199.14 <
-9 -7 4 966.05 934.34 868.46 <
-9 7 3 2411.52 2191.33 1006.30 <
-9 -7 3 2411.54 4118.79 1419.49 <
9 7 -3 2411.54 1899.87 879.67 <
-9 7 2 1056.46 1634.80 1135.28 <
-9 -7 2 1056.44 1808.72 1068.45 <
9 7 -2 1056.44 1590.42 960.05 <
-9 -8 4 206.65 191.91 828.80 <
-9 -8 3 5873.27 7396.79 1725.82 o
9 8 -3 5873.27 6755.11 1358.50 o
9 8 -2 648.33 89.96 793.28 <
9 9 -3 2038.14 2196.13 1005.50 <
loop_
_restr_angle_atom_site_label_1
_restr_angle_site_symmetry_1
_restr_angle_atom_site_label_2
_restr_angle_site_symmetry_2
_restr_angle_atom_site_label_3
_restr_angle_site_symmetry_3
_restr_angle_target
_restr_angle_target_weight_param
H1o5 . O5 . H2o5 . 109.47 0.01
loop_
_restr_distance_atom_site_label_1
_restr_distance_site_symmetry_1
_restr_distance_atom_site_label_2
_restr_distance_site_symmetry_2
_restr_distance_target
_restr_distance_target_weight_param
O5 . H1o5 . 0.82 0.01
O5 . H2o5 . 0.82 0.01
loop_
_twin_individual_id
_twin_individual_mass_fraction_refined
_twin_individual_twin_matrix_11
_twin_individual_twin_matrix_12
_twin_individual_twin_matrix_13
_twin_individual_twin_matrix_21
_twin_individual_twin_matrix_22
_twin_individual_twin_matrix_23
_twin_individual_twin_matrix_31
_twin_individual_twin_matrix_32
_twin_individual_twin_matrix_33
? ? ? ? ? ? ? ? ? ? ?
loop_
_twin_refln_datum_id
_twin_refln_individual_id
_twin_refln_index_h
_twin_refln_index_k
_twin_refln_index_l
_twin_refln_F_squared_calc
_twin_refln_F_squared_meas
_twin_refln_F_squared_sigma
_twin_refln_include_status
? ? ? ? ? ? ? ? ?
