#------------------------------------------------------------------------------
#$Date: 2022-01-01 06:19:30 +0200 (Sat, 01 Jan 2022) $
#$Revision: 271667 $
#$URL: file:///home/coder/svn-repositories/cod/cif/2/10/89/2108916.cif $
#------------------------------------------------------------------------------
#
# This file is available in the Crystallography Open Database (COD),
# http://www.crystallography.net/. The original data for this entry
# were provided by IUCr Journals, http://journals.iucr.org/.
#
# The file may be used within the scientific community so long as
# proper attribution is given to the journal article from which the
# data were obtained.
#
data_2108916
loop_
_publ_author_name
'Rejnhardt, Piotr'
'Drozd, Marek'
'Daszkiewicz, Marek'
_publ_section_title
;
 Low-temperature phase transition and high-pressure phase stability of
 1<i>H</i>-pyrazole-1-carboxamidine nitrate
;
_journal_issue                   6
_journal_name_full               'Acta Crystallographica Section B'
_journal_page_first              996
_journal_page_last               1002
_journal_paper_doi               10.1107/S2052520621010970
_journal_volume                  77
_journal_year                    2021
_chemical_formula_moiety         'C4 H7 N4, N O3'
_chemical_formula_sum            'C4 H7 N5 O3'
_chemical_formula_weight         173.15
_space_group_crystal_system      monoclinic
_space_group_IT_number           14
_space_group_name_Hall           '-P 2ybc'
_space_group_name_H-M_alt        'P 1 21/c 1'
_atom_sites_solution_hydrogens   geom
_atom_sites_solution_primary     direct
_audit_creation_date             2021-07-14
_audit_creation_method
;
Olex2 1.2
(compiled 2018.05.29 svn.r3508 for OlexSys, GUI svn.r5506)
;
_cell_angle_alpha                90
_cell_angle_beta                 98.93(6)
_cell_angle_gamma                90
_cell_formula_units_Z            4
_cell_length_a                   5.0851(15)
_cell_length_b                   10.1654(13)
_cell_length_c                   13.751(13)
_cell_measurement_reflns_used    1174
_cell_measurement_temperature    293(2)
_cell_measurement_theta_max      22.3070
_cell_measurement_theta_min      3.9920
_cell_volume                     702.2(7)
_computing_cell_refinement       'CrysAlisPro 1.171.39.46 (Rigaku OD, 2018)'
_computing_data_collection       'CrysAlisPro 1.171.39.46 (Rigaku OD, 2018)'
_computing_data_reduction        'CrysAlisPro 1.171.39.46 (Rigaku OD, 2018)'
_computing_molecular_graphics    'Olex2 (Dolomanov et al., 2009)'
_computing_publication_material  'Olex2 (Dolomanov et al., 2009)'
_computing_structure_refinement  'ShelXL (Sheldrick, 2015)'
_computing_structure_solution    'ShelXS (Sheldrick, 2008)'
_diffrn_ambient_temperature      293(2)
_diffrn_detector                 'CCD plate'
_diffrn_detector_area_resol_mean 8.2214
_diffrn_detector_type            'Sapphire2, large Be window'
_diffrn_measured_fraction_theta_full 0.352
_diffrn_measured_fraction_theta_max 0.352
_diffrn_measurement_details
;
List of Runs (angles in degrees, time in seconds):

  # Type    Start    End  Width  t~exp~   \w     \q     \k     \f   Frames
--------------------------------------------------------------------------
  1  \w    -20.00  31.60   0.60   30.00    --   25.00   0.00   0.00   86
  2  \w    -20.00  35.80   0.60   30.00    --   25.00   0.00 180.00   93
  3  \w     -3.00  46.80   0.60   30.00    --   25.00 -40.00-170.00   83
  4  \w     -3.00  46.80   0.60   30.00    --   25.00 -40.00  10.00   83
  5  \w      8.00  65.00   0.60   30.00    --   25.00 -82.00  30.00   95
  6  \w      8.00  65.00   0.60   30.00    --   25.00 -82.00-150.00   95
  7  \w     32.50  88.90   0.60   30.00    --   25.00-135.00-122.00   94
  8  \w     32.00  89.00   0.60   30.00    --   25.00-135.00  58.00   95
  9  \w     25.00  46.60   0.60   30.00    --  -25.00-135.00  58.00   36
 10  \w     25.00  46.60   0.60   30.00    --  -25.00-135.00-122.00   36
 11  \w      0.00  22.80   0.60   30.00    --  -25.00 -82.00-150.00   38
 12  \w      0.00  22.80   0.60   30.00    --  -25.00 -82.00  30.00   38
 13  \w    -19.00  17.00   0.60   30.00    --  -25.00 -40.00  10.00   60
 14  \w    -19.00  17.00   0.60   30.00    --  -25.00 -40.00-170.00   60
 15  \w    -33.00  21.60   0.60   30.00    --  -25.00   0.00 180.00   91
 16  \w    -33.00  21.60   0.60   30.00    --  -25.00   0.00   0.00   91
;
_diffrn_measurement_device       'four-circle diffractometer'
_diffrn_measurement_device_type  'Xcalibur, Sapphire2, large Be window'
_diffrn_measurement_method       '\w scans'
_diffrn_orient_matrix_type
'CrysAlisPro convention (1999,Acta A55,543-557)'
_diffrn_orient_matrix_UB_11      -0.0581672000
_diffrn_orient_matrix_UB_12      -0.0153104000
_diffrn_orient_matrix_UB_13      0.0422719000
_diffrn_orient_matrix_UB_21      -0.1285442000
_diffrn_orient_matrix_UB_22      0.0040583000
_diffrn_orient_matrix_UB_23      -0.0285184000
_diffrn_orient_matrix_UB_31      0.0054711000
_diffrn_orient_matrix_UB_32      -0.0679484000
_diffrn_orient_matrix_UB_33      -0.0112620000
_diffrn_radiation_monochromator  graphite
_diffrn_radiation_probe          x-ray
_diffrn_radiation_type           MoK\a
_diffrn_radiation_wavelength     0.71073
_diffrn_reflns_av_R_equivalents  0.0566
_diffrn_reflns_av_unetI/netI     0.0391
_diffrn_reflns_Laue_measured_fraction_full 0.352
_diffrn_reflns_Laue_measured_fraction_max 0.352
_diffrn_reflns_limit_h_max       5
_diffrn_reflns_limit_h_min       -5
_diffrn_reflns_limit_k_max       12
_diffrn_reflns_limit_k_min       -12
_diffrn_reflns_limit_l_max       9
_diffrn_reflns_limit_l_min       -8
_diffrn_reflns_number            3830
_diffrn_reflns_point_group_measured_fraction_full 0.352
_diffrn_reflns_point_group_measured_fraction_max 0.352
_diffrn_reflns_theta_full        25.034
_diffrn_reflns_theta_max         25.034
_diffrn_reflns_theta_min         4.009
_diffrn_source                   'fine-focus sealed X-ray tube'
_diffrn_source_type              'Enhance (Mo) X-ray Source'
_exptl_absorpt_coefficient_mu    0.140
_exptl_absorpt_correction_T_max  1.00000
_exptl_absorpt_correction_T_min  0.10707
_exptl_absorpt_correction_type   multi-scan
_exptl_absorpt_process_details
;
CrysAlisPro 1.171.39.46 (Rigaku Oxford Diffraction, 2018)
Empirical absorption correction using spherical harmonics,
 implemented in SCALE3 ABSPACK scaling algorithm.
;
_exptl_crystal_colour            colourless
_exptl_crystal_density_diffrn    1.638
_exptl_crystal_description       prism
_exptl_crystal_F_000             360
_refine_diff_density_max         0.134
_refine_diff_density_min         -0.148
_refine_diff_density_rms         0.035
_refine_ls_extinction_coef       0.031(17)
_refine_ls_extinction_expression Fc^*^=kFc[1+0.001xFc^2^\l^3^/sin(2\q)]^-1/4^
_refine_ls_extinction_method     'SHELXL-2018/3 (Sheldrick 2018)'
_refine_ls_goodness_of_fit_ref   1.096
_refine_ls_hydrogen_treatment    constr
_refine_ls_matrix_type           full
_refine_ls_number_parameters     110
_refine_ls_number_reflns         438
_refine_ls_number_restraints     0
_refine_ls_restrained_S_all      1.096
_refine_ls_R_factor_all          0.0757
_refine_ls_R_factor_gt           0.0486
_refine_ls_shift/su_max          0.000
_refine_ls_shift/su_mean         0.000
_refine_ls_structure_factor_coef Fsqd
_refine_ls_weighting_details
'w=1/[\s^2^(Fo^2^)+(0.0796P)^2^+0.3747P] where P=(Fo^2^+2Fc^2^)/3'
_refine_ls_weighting_scheme      calc
_refine_ls_wR_factor_gt          0.1207
_refine_ls_wR_factor_ref         0.1413
_reflns_Friedel_coverage         0.000
_reflns_number_gt                317
_reflns_number_total             438
_reflns_threshold_expression     'I > 2\s(I)'
_cod_data_source_file            xk5086sup1.cif
_cod_data_source_block           0.52GPa
_cod_database_code               2108916
_shelx_shelxl_version_number     2018/3
_chemical_oxdiff_formula         C4N4NO3H7
_shelx_space_group_comment
;
The symmetry employed for this shelxl refinement is uniquely defined
by the following loop, which should always be used as a source of
symmetry information in preference to the above space-group names.
They are only intended as comments.
;
_reflns_odcompleteness_completeness 35.07
_reflns_odcompleteness_iscentric 1
_reflns_odcompleteness_theta     24.98
_olex2_refinement_description
;
1. Fixed Uiso
 At 1.2 times of:
  All C(H) groups, All N(H,H) groups
2.a Aromatic/amide H refined with riding coordinates:
 C1(H1), C2(H2), C3(H3)
2.b X=CH2 refined with riding coordinates:
 N3(H3A,H3B), N4(H4A,H4B)
;
_shelx_res_file
;
TITL instrument in P21/c #14
    instrument.res
    created by SHELXL-2018/3 at 11:38:36 on 14-Jul-2021
REM reset to P21/c #14
CELL 0.71073 5.085147 10.165368 13.750685 90 98.934 90
ZERR 4 0.001467 0.001298 0.013117 0 0.0582 0
LATT 1
SYMM -X,0.5+Y,0.5-Z
SFAC C H N O
UNIT 16 28 20 12

L.S. 99
PLAN  20
BOND
fmap 2 53
ACTA
OMIT 2 2 7
OMIT 1 7 7
OMIT 2 5 5
OMIT 2 7 8
OMIT 0 7 4
OMIT 2 6 8
OMIT 2 10 2
OMIT 1 2 5
OMIT 4 7 5
OMIT -3 10 2
REM <olex2.extras>
REM <HklSrc "%.\\instrument.hkl">
REM </olex2.extras>

WGHT    0.079600    0.374700
EXTI    0.031148
FVAR       2.36802
C1    1    0.105950    0.790409    0.537709    11.00000    0.04637    0.04299 =
         0.07975    0.00170   -0.00478    0.00367
AFIX  43
H1    2   -0.041590    0.829834    0.500607    11.00000   -1.20000
AFIX   0
C2    1    0.322582    0.860576    0.587991    11.00000    0.06020    0.03888 =
         0.06765   -0.00771   -0.00213   -0.00075
AFIX  43
H2    2    0.344256    0.951404    0.590976    11.00000   -1.20000
AFIX   0
C3    1    0.492124    0.768989    0.630921    11.00000    0.05866    0.04252 =
         0.08471   -0.01001   -0.01846   -0.00795
AFIX  43
H3    2    0.655024    0.784108    0.670404    11.00000   -1.20000
AFIX   0
C4    1    0.476464    0.524012    0.629106    11.00000    0.03475    0.03747 =
         0.04678    0.00403    0.00782   -0.00385
N1    3    0.379337    0.648799    0.605461    11.00000    0.03990    0.03686 =
         0.08242    0.00207   -0.01758   -0.00221
N2    3    0.134927    0.662589    0.548928    11.00000    0.05217    0.03829 =
         0.11157   -0.00284   -0.02849    0.00233
N3    3    0.336856    0.424781    0.591786    11.00000    0.05462    0.03380 =
         0.11432   -0.00355   -0.02850    0.00443
AFIX  93
H3A   2    0.395274    0.346042    0.603375    11.00000   -1.20000
H3B   2    0.185579    0.437516    0.555373    11.00000   -1.20000
AFIX   0
N4    3    0.706222    0.510621    0.684608    11.00000    0.04860    0.05276 =
         0.07796    0.00173   -0.01980    0.00185
AFIX  93
H4A   2    0.771089    0.433387    0.697819    11.00000   -1.20000
H4B   2    0.793389    0.578994    0.708125    11.00000   -1.20000
AFIX   0
N5    3    0.244096    0.647346    0.826054    11.00000    0.05457    0.04561 =
         0.10873   -0.00382   -0.02663    0.00090
O1    4    0.482990    0.673396    0.856728    11.00000    0.04701    0.04435 =
         0.12315   -0.00355   -0.02639   -0.00476
O2    4    0.166114    0.533485    0.824812    11.00000    0.06381    0.04430 =
         0.16160   -0.00104   -0.03051   -0.01514
O3    4    0.085259    0.737845    0.793741    11.00000    0.04500    0.05613 =
         0.09763    0.01130   -0.00769    0.00593
HKLF 4




REM  instrument in P21/c #14
REM wR2 = 0.1413, GooF = S = 1.096, Restrained GooF = 1.096 for all data
REM R1 = 0.0486 for 317 Fo > 4sig(Fo) and 0.0757 for all 438 data
REM 110 parameters refined using 0 restraints

END

WGHT      0.0799      0.3727

REM Highest difference peak  0.134,  deepest hole -0.148,  1-sigma level  0.035
Q1    1   0.0248  0.6546  0.4608  11.00000  0.05    0.13
Q2    1   0.6477  0.7552  0.7667  11.00000  0.05    0.13
Q3    1   0.6665  0.7407  0.7451  11.00000  0.05    0.13
Q4    1   0.3568  0.7594  0.8826  11.00000  0.05    0.12
Q5    1   0.0805  0.8381  0.8072  11.00000  0.05    0.11
Q6    1   0.2637  0.7764  0.8757  11.00000  0.05    0.11
Q7    1   0.3766  0.8375  0.6558  11.00000  0.05    0.11
Q8    1   0.3384  0.8172  0.7001  11.00000  0.05    0.11
Q9    1   0.2380  0.6411  0.5619  11.00000  0.05    0.11
Q10   1   0.1522  0.6598  0.4766  11.00000  0.05    0.10
Q11   1   0.3874  0.7035  0.7583  11.00000  0.05    0.10
Q12   1   0.2159  0.6748  0.4625  11.00000  0.05    0.09
Q13   1   0.9106  0.4967  0.7564  11.00000  0.05    0.09
Q14   1   0.1157  0.4233  0.5995  11.00000  0.05    0.09
Q15   1   0.2991  0.5799  0.4518  11.00000  0.05    0.09
Q16   1   0.0154  0.7245  0.5990  11.00000  0.05    0.09
Q17   1  -0.0012  0.5947  0.5523  11.00000  0.05    0.09
Q18   1   0.8901  0.6193  0.7128  11.00000  0.05    0.09
Q19   1   0.2504  0.5335  0.9129  11.00000  0.05    0.09
Q20   1   0.4313  0.7805  0.5321  11.00000  0.05    0.09
;
_shelx_res_checksum              80785
_shelx_hkl_file
;
   0  -2   0 3455.96 111.920   8
   0  -2   0 3302.08 107.934   7
   0  -2   0 3401.57 88.4357   3
   0   2   0 3353.78 99.5285  12
   0  -2   0 3364.71 106.418   6
   0   2   0 3273.59 106.983   9
   0  -2   0 3378.59 101.255   5
   0   2   1 12067.5 183.779  11
   0  -2  -1 12152.5 164.151   4
   0  -2  -1 12479.3 206.875   8
   0  -2  -1 12009.6 127.654   3
   0   2   1 12021.5 130.934  14
   0  -2  -1 11882.3 199.260   5
   0   2   1 12040.1 160.684  13
   0  -2  -1 11974.7 206.810   7
   0  -2  -1 12142.5 186.667   6
   0  -2  -2 2024.88 80.7072   6
   0  -2  -2 2014.05 90.9244   7
   0  -2  -2 2107.75 92.2560   8
   0   2   2 2167.68 95.3591  10
   0  -2  -2 1894.69 83.3675   4
   0  -2  -2 2031.80 93.7732   5
   0   3   0 0.60543 5.12365  12
   0  -3   0 1.87678 8.39707   8
   0  -3   0 10.0924 5.99812   5
   0  -3   0 10.8373 13.2176   7
   0  -3   0 4.21513 7.03444   4
   0   3   0 4.52236 7.70047   9
   0  -3   0 7.43906 9.79464   6
   0  -3  -1 4168.05 141.692   5
   0  -3  -1 4099.98 110.258   4
   0   3  -1 3752.73 164.528   9
   0   3   1 4069.19 96.2634  14
   0  -3   1 3826.69 185.073   8
   0  -3  -1 4279.18 149.770   8
   0   3   1 4059.32 138.972  12
   0  -3   1 3806.96 285.482   6
   0  -3  -1 4267.87 140.334   6
   0  -3  -1 3978.65 144.009   7
   0  -3   1 3952.18 189.969   7
   0   3   1 4355.53 113.385  13
   0  -3  -1 4163.44 98.8366   3
   0   3   2 1443.79 87.8842  10
   0  -3  -2 1386.77 88.4710   5
   0  -3  -2 1491.99 92.1599   8
   0  -3  -2 1469.21 82.1009   6
   0  -3  -2 1499.31 42.9511  15
   0   3   2 1498.45 45.0079  16
   0   3   2 1570.83 83.2145  11
   0  -3  -2 1472.03 54.4610   3
   0  -3  -2 1490.10 44.3166   2
   0  -3  -2 1466.99 91.6008   7
   0   3   2 1547.54 46.2024   1
   0  -3  -2 1473.47 76.7280   4
   0  -3  -3 10943.3 276.156   5
   0  -3  -3 10704.1 227.900   6
   0   3   3 10823.1 268.224  10
   0  -3  -3 10370.8 255.042   7
   0  -3  -3 10817.2 261.052   8
   0  -4   0 1036.70 87.2295   7
   0  -4   0 960.947 80.8564   6
   0  -4   0 1059.78 81.5243   5
   0   4   0 1026.40 78.9041  12
   0  -4   0 1041.99 61.3780   4
   0   4   0 1002.28 83.7149   9
   0  -4   0 1037.49 88.2913   8
   0  -4  -1 1096.26 88.8575   7
   0   4   1 1075.75 87.9077   9
   0   4   1 998.568 79.5915  12
   0   4   1 1047.24 58.4555  14
   0  -4  -1 1035.67 87.0894   8
   0  -4  -1 988.408 57.5566   3
   0  -4   1 982.655 102.696   5
   0  -4  -1 1069.77 83.1678   6
   0  -4   1 1144.79 108.769   8
   0  -4   1 1013.55 145.973   6
   0  -4  -1 1026.18 62.6031   4
   0   4  -1 1271.54 108.174   9
   0  -4  -1 1085.26 84.0310   5
   0   4   1 1041.30 62.4578  13
   0  -4   1 1084.53 107.818   7
   0   4   2 7422.92 233.156  10
   0   4   2 7701.42 211.387  11
   0  -4  -2 7712.18 239.390   8
   0  -4  -2 7788.74 233.458   5
   0  -4  -2 7664.19 216.751   6
   0  -4  -2 7502.52 144.624   3
   0   4   2 7691.30 185.495  13
   0  -4  -2 7788.23 192.098   4
   0  -4  -2 7490.80 236.831   7
   0  -4  -3 1773.56 118.566   7
   0  -4  -3 1794.49 105.334   4
   0  -4  -3 1799.12 118.054   5
   0   4   3 1894.59 106.384  11
   0  -4  -3 1902.79 60.3800  15
   0  -4  -3 1814.08 104.357   6
   0   4   3 1759.27 116.265  10
   0  -4  -3 1809.21 120.531   8
   0  -4  -3 1838.71 70.5897   3
   0   4   3 1880.57 63.0863  16
   0  -4  -4 665.089 79.3659   7
   0  -4  -4 599.475 74.3232   8
   0  -4  -4 688.730 85.2575   5
   0  -4  -4 607.388 65.5508   6
   0   4   4 683.778 81.2111  10
   0   5   0 27.2360 26.3340  12
   0  -5   0 9.51621 14.5482   4
   0  -5   0 15.9785 18.6088   6
   0  -5   0 7.83729 18.3470   7
   0  -5   0 8.43191 18.4856   5
   0  -5   0-2.59655 15.9915   8
   0   5   0 25.2946 27.6168   9
   0  -5  -1 1786.65 127.388   7
   0   5   1 1497.63 104.978  13
   0   5  -1 1773.62 142.155   9
   0   5   1 1774.40 86.2948  14
   0  -5  -1 1710.66 118.606   6
   0  -5   1 1863.52 157.896   7
   0  -5  -1 1744.40 89.4250   4
   0  -5  -1 1792.41 121.395   5
   0   5   1 1773.91 129.380   9
   0  -5  -1 1663.84 125.295   8
   0   5   1 1745.69 117.858  12
   0  -5   1 1767.23 146.184   5
   0  -5   1 1712.03 155.028   8
   0  -5  -2 689.272 50.7741   3
   0  -5  -2 756.856 86.0310   8
   0   5   2 655.360 67.1675  11
   0  -5  -2 707.425 83.0083   7
   0  -5  -2 692.554 74.4963   6
   0  -5  -2 713.120 62.3931   4
   0   5   2 766.584 79.8161  12
   0  -5  -2 684.295 76.6430   5
   0   5   2 684.928 76.3229  10
   0   5   2 721.885 60.9328  13
   0   5   2 660.072 63.9281  14
   0   5   3 130.185 35.7837  10
   0  -5  -3 107.027 35.2673   5
   0  -5  -3 105.125 29.3268   4
   0  -5  -3 124.760 36.0414   8
   0   5   3 98.0116 25.1758  13
   0  -5  -3 81.0279 16.5701   3
   0  -5  -3 101.706 32.5373   7
   0  -5  -3 81.9742 25.2444   6
   0   5   3 117.212 34.5686  11
   0  -5  -4 2570.50 93.7327   3
   0  -5  -4 2561.87 141.951   6
   0  -5  -4 2591.83 79.7325  15
   0  -5  -4 2525.19 161.223   8
   0   5   4 2576.79 83.3987  16
   0   5   4 2698.67 167.359  10
   0   5   4 2547.02 135.447  13
   0  -5  -4 2550.45 160.372   7
   0  -5  -4 2599.31 167.278   5
   0  -5  -5 13.6222 31.3258   5
   0  -5  -5 14.8688 18.9348   7
   0  -5  -5-22.1700 30.2467   8
   0  -5  -5 10.9452 20.5659   6
   0  -6   0 5221.71 245.386   7
   0   6   0 5350.48 247.743   9
   0  -6   0 5365.09 169.413   4
   0  -6   0 5220.27 243.323   8
   0  -6   0 5563.26 256.025   6
   0   6   0 5262.86 178.478  14
   0  -6   0 5303.46 224.714   5
   0  -6  -1 553.778 78.7249   7
   0  -6   1 447.026 91.9123   7
   0  -6  -1 572.479 54.5178   4
   0   6  -1 530.290 87.8620   9
   0   6   1 552.798 53.2004  14
   0  -6  -1 559.627 78.7273   8
   0   6   1 591.278 82.0860   9
   0  -6  -1 548.724 73.7310   6
   0   6   1 507.587 69.3021  12
   0  -6  -1 551.999 75.8465   5
   0  -6   1 429.411 82.6601   5
   0  -6   1 529.358 102.136   8
   0  -6  -2 78.3297 35.4322   8
   0   6   2 40.1931 22.5346   9
   0  -6  -2 63.2287 24.7209   4
   0   6   2 65.8097 30.8947  12
   0   6   2 97.4096 46.2639  10
   0  -6  -2 96.1111 34.0831   5
   0  -6  -2 48.0697 25.7664   7
   0   6   2 47.3998 20.7647  13
   0   6   2 102.801 36.0013  14
   0   6   2 50.8541 26.5826  11
   0  -6  -2 58.6603 26.4568   6
   0  -6  -3 778.044 95.5188   5
   0  -6  -3 789.440 78.6175   4
   0   6   3 877.708 92.7730  11
   0   6   3 736.701 90.0327  12
   0  -6  -3 730.196 95.7992   7
   0  -6  -3 777.607 97.2660   8
   0  -6  -3 793.870 88.5870   6
   0   6   3 872.476 79.9815  13
   0  -6  -3 793.328 58.4640   3
   0   6   3 702.017 90.5104  10
   0   6   4 1109.69 118.027  10
   0  -6  -4 1083.24 102.446   6
   0   6   4 1149.73 98.1763  13
   0  -6  -4 1041.60 61.6665   3
   0  -6  -4 1129.02 116.932   5
   0  -6  -4 1085.29 115.455   8
   0  -6  -4 1089.52 113.211   7
   0   6   5 417.963 68.1189  13
   0  -6  -5 401.961 35.4100  15
   0  -6  -5 420.879 40.6760   3
   0   6   5 473.712 85.1613  10
   0  -6  -5 474.382 82.4590   7
   0  -6  -5 437.257 75.9341   8
   0  -6  -5 504.334 92.8696   5
   0  -6  -5 395.716 66.0882   6
   0   7   0 14.6115 24.8604   9
   0  -7   0-27.3639 15.6289   4
   0  -7   0-42.6514 33.9205   8
   0  -7   0-16.9685 28.9470   7
   0  -7   0-12.6457 22.6247   5
   0   7   0-2.63117 21.0790  14
   0  -7   0 24.2597 34.6777   6
   0  -7   1 295.356 118.593   8
   0   7   1 421.074 70.4835  11
   0  -7   1 192.984 75.5266   5
   0  -7  -1 369.624 70.6872   5
   0  -7  -1 325.774 67.4383   6
   0   7   1 363.251 47.6910  14
   0  -7  -1 367.128 71.2721   7
   0   7   1 433.518 72.5737  12
   0   7   1 355.695 69.8823   9
   0  -7  -1 372.490 49.0761   4
   0  -7  -1 390.210 71.8378   8
   0  -7  -2 22.3672 28.2182   5
   0   7   2 45.1989 38.6410  10
   0  -7  -2 42.3919 32.2054   6
   0   7   2 59.6075 32.3749  11
   0  -7  -2-12.1798 32.6048   7
   0   7   2 45.7083 29.9712   9
   0   7   2 55.7284 18.9783  12
   0  -7  -2 7.57451 16.2243   4
   0  -7  -2 86.3270 46.4149   8
   0  -7  -3-24.2065 20.3823   5
   0   7   3-47.9059 36.6728  11
   0  -7  -3-25.6473 32.6906   7
   0   7   3 11.0350 23.2079  12
   0   7   3 18.7304 29.6483  10
   0  -7  -3-12.0332 27.2403   8
   0   7   3 14.7567 27.1545   9
   0  -7  -3 6.45895 19.0625   6
   0  -7  -3-9.91053 16.3219   4
   0   7   3-32.4450 33.3111  13
   0  -7  -4 630.198 87.8681   6
   0   7   4 708.634 83.1950  13
   0  -7  -4 619.169 95.2980   8
   0  -7  -4 605.713 92.0332   7
   0   7   4 736.370 102.844  12
   0   7   4 776.024 103.782  10
   0  -7  -4 629.833 96.5375   5
   0  -7  -5 151.975 52.9276   5
   0   7   5 127.200 53.0550  10
   0  -7  -5 104.670 25.4862   6
   0  -7  -5 205.360 57.9579   7
   0   7   5 186.211 45.6129  13
   0  -7  -5 140.933 52.4149   8
   0   7   6 303.855 62.8388  13
   0  -7  -6 360.123 86.0018   7
   0  -7  -6 339.637 73.9676   6
   0  -8   0 186.211 59.8645   5
   0  -8   0 114.612 48.1652   8
   0   8   0 136.382 47.0114  14
   0  -8   0 145.685 69.5022   7
   0   8   0 155.925 61.4675   9
   0  -8   0 111.479 29.8320   4
   0  -8  -1 3651.05 166.412   4
   0  -8  -1 3407.84 234.952   8
   0   8   1 3713.50 224.907  11
   0   8   1 3587.17 239.875   9
   0  -8  -1 3387.94 236.639   7
   0  -8  -1 3733.67 252.822   6
   0  -8  -1 3428.71 218.235   5
   0  -8  -2 574.083 100.809   7
   0   8   2 567.894 96.5017   9
   0   8   2 636.520 95.7315  12
   0   8   2 516.713 82.6941  11
   0  -8  -2 570.432 71.7782   4
   0  -8  -2 664.574 100.634   5
   0  -8  -2 614.228 103.548   8
   0  -8  -2 568.720 89.8377   6
   0   8   2 521.712 89.0872  10
   0  -8  -3 1822.61 155.014   6
   0   8   3 1922.11 169.014  12
   0   8   3 1775.08 171.100   9
   0  -8  -3 1969.03 146.000   4
   0  -8  -3 1911.71 180.809   7
   0  -8  -3 2011.48 186.146   8
   0   8   3 1998.45 162.101  11
   0   8   3 1824.57 169.044  10
   0  -8  -3 1805.90 162.525   5
   0   8   4 97.3706 49.9162  10
   0   8   4-28.5049 29.0385  12
   0  -8  -4 136.546 50.8634   6
   0   8   4 28.2957 26.2716   9
   0  -8  -4 52.1268 48.3309   7
   0  -8  -4 58.4055 42.3726   5
   0  -8  -4 53.2426 34.9930   8
   0   8   4 51.1075 42.3537  11
   0  -8  -5 614.733 105.249   7
   0  -8  -5 655.157 113.394   5
   0   8   5 471.451 68.8416  13
   0  -8  -5 652.127 100.797   6
   0  -8  -5 603.816 102.573   8
   0   8   5 593.985 102.931  10
   0   8   5 603.903 101.809  12
   0  -8  -6-18.8859 49.4732   7
   0  -8  -6-51.2395 51.3624   6
   0  -8  -6 16.4697 26.9120   8
   0   8   6-8.63439 27.8625  12
   0  -9   0-28.4840 49.4676   5
   0  -9   0-65.1166 74.3270   7
   0  -9   0 2.01276 65.1469   8
   0   9   1 360.707 91.3033   9
   0  -9  -1 248.441 102.701   6
   0  -9  -1 284.963 78.2451   7
   0   9   1 277.753 77.5478  11
   0  -9  -1 282.975 82.6177   8
   0  -9  -1 349.576 83.5910   5
   0   9   2 753.328 113.282  12
   0  -9  -2 653.324 107.975   5
   0  -9  -2 650.005 116.000   7
   0   9   2 731.101 115.281  10
   0   9   2 633.336 100.348  11
   0  -9  -2 732.119 118.585   6
   0  -9  -2 732.439 118.220   8
   0   9   2 603.281 107.230   9
   0   9   3 529.333 93.6120  11
   0  -9  -3 428.226 91.7049   7
   0  -9  -3 491.024 88.4852   6
   0  -9  -3 453.953 87.1530   5
   0  -9  -3 537.794 111.564   8
   0   9   3 577.465 109.642  10
   0   9   3 470.558 90.8050  12
   0   9   3 425.507 93.0558   9
   0  -9  -4 853.004 129.997   5
   0  -9  -4 874.914 127.457   8
   0   9   4 770.456 132.021   9
   0  -9  -4 953.321 128.470   6
   0   9   4 850.601 115.790  11
   0   9   4 767.544 117.514  12
   0  -9  -4 855.874 133.852   7
   0   9   4 884.154 129.672  10
   0  -9  -5 78.5071 41.0849   5
   0   9   5 72.7508 36.1355  10
   0   9   5 113.505 57.9750  12
   0  -9  -5 141.745 54.0144   8
   0  -9  -5 93.0114 47.9456   7
   0  -9  -5 141.806 65.4791   6
   0   9   5 237.747 77.1012   9
   0   9   6 617.507 114.050   9
   0  -9  -6 978.174 156.944   7
   0   9   6 780.207 134.607  12
   0  -9  -6 919.656 141.639   8
   0   9   6 807.431 135.319  10
   0 -10  -1 258.665 113.863   8
   0 -10  -1 63.0277 59.4961   7
   0  10   1 165.369 67.6374   9
   0  10   1 137.852 73.5681  10
   0  10   1 99.3691 35.8363  11
   0 -10  -1 188.840 104.083   5
   0 -10  -2 1.33075 53.7127   5
   0  10   2-79.0866 66.6782  11
   0  10   2 35.0759 46.1444   9
   0 -10  -2-35.5844 39.2104   8
   0 -10  -2-51.1299 52.9285   7
   0  10   2 44.5670 57.0859  10
   0 -10  -2 119.361 130.170   6
   0 -10  -3 137.687 55.2774   6
   0  10   3 120.351 36.6222  10
   0 -10  -3 155.426 76.1681   8
   0  10   3 54.7604 35.6311  12
   0 -10  -3 142.452 62.9279   7
   0  10   3 109.911 49.0571   9
   0 -10  -3 59.1992 36.1613   5
   0  10   3 105.870 43.0557  11
   0  10   4 306.116 84.3772   9
   0 -10  -4 324.465 87.1850   8
   0 -10  -4 260.717 85.2696   6
   0  10   4 265.762 74.2115  10
   0 -10  -4 311.853 82.1958   5
   0 -10  -4 271.385 87.5638   7
   0  10   4 284.398 83.4034  12
   0  10   5 28.7748 43.1038   9
   0 -10  -5 76.9658 58.6308   7
   0  10   5 51.9183 48.8467  12
   0 -10  -5 127.388 54.9520   6
   0 -10  -5 70.8909 48.1628   8
   0  10   5-10.1082 48.5298  10
   0 -10  -5-18.5391 32.0751   5
   0  10   6-16.3790 38.6823  12
   0  10   6-18.6352 47.0831  10
   0  10   6 14.7698 56.9646   9
   0 -10  -6 16.5173 42.5732   7
   0 -10  -6 9.19193 36.0624   8
   0  11   2 227.692 102.639  11
   0  11   2 262.809 95.0062  10
   0  11   2 135.797 56.0347   9
   0 -11  -2 25.0987 68.9482   5
   0 -11  -2 176.342 99.6390   7
   0 -11  -2 77.5608 46.9286   8
   0 -11  -3-7.87013 196.534   6
   0  11   3 42.1454 33.7507  11
   0  11   3-164.463 95.6419  10
   0 -11  -3 7.97606 55.9489   7
   0 -11  -3 100.208 59.7331   5
   0 -11  -3 114.529 70.2421   8
   0  11   3 80.2274 55.4426   9
   0  11   4 23.1641 69.8891  12
   0 -11  -4 62.6850 34.6810   7
   0  11   4-57.9792 53.8170   9
   0 -11  -4-16.3149 40.5577   5
   0 -11  -4 33.1625 45.8564   8
   0 -11  -4 160.578 105.760   6
   0  11   4 32.7194 55.3503  10
   0  11   5 17.6545 33.9920   9
   0  11   5 119.483 62.5799  10
   0  11   5 11.8881 31.5015  12
   0 -11  -5-6.32933 51.7167   7
   0 -11  -5 18.6113 59.0587   5
   0 -11  -5-47.8109 46.1280   8
   0 -11  -6-24.8333 36.1248   8
   0  11   6 20.8237 36.4669  12
   0  11   6-24.8591 56.7298   9
   0 -11  -6 0.87896 59.2893   7
   0  11   6 88.6970 67.3973  10
   0  12   2 11.2746 55.7146  10
   0 -12  -2-117.578 143.580   8
  -1   0   0 8692.74 177.924  15
  -1   0   0 8334.89 184.216  14
   1   0   0 8958.89 181.205  16
  -1   0  -1 15.8013 6.74372  14
  -1   0  -1 28.9317 13.6302  15
  -1   0  -1 18.0920 7.75162   5
   1   0   1 5.43728 4.16187   6
  -1   0  -1 16.3580 7.63123  11
  -1   0  -1 11.6636 7.02051   1
   1   0   1 14.3687 9.01953  16
   1   0   1 15.4613 9.56952  13
   1   0   1 3.19319 6.48268   2
   1   0   1 5.74952 4.49883  12
   1   0   1 8.56391 8.47432   3
  -1   0  -1 9.24628 8.23875   4
  -1   0  -2 68.0779 13.8091  15
   1   0   2 75.6012 19.9844  16
   1   0   2 86.1511 20.3272   2
   1   0   2 82.2474 19.2561   3
  -1   0  -2 89.2539 15.3624   5
  -1   0  -2 79.9623 19.1038   4
  -1   0  -2 91.9212 21.4173   1
   1   0   2 86.4459 17.0045   6
  -1   0  -3 10.6748 9.04918  15
   1   0   3-6.52028 9.04134   2
  -1   0  -3 2.98408 8.65786   4
  -1   0  -3-2.11446 11.5847   1
   1   0   3 9.65285 13.3019  16
  -1   1   0 28895.3 335.519  14
  -1   1   0 28918.7 312.507  15
  -1   1   0 29096.0 319.177  11
   1  -1   0 28871.0 315.105  16
   1  -1   0 29384.8 339.997   3
   1  -1   0 29018.3 308.643   6
   1  -1   0 29149.2 313.643   2
  -1   1   0 29104.2 312.495   1
  -1   1  -1 8515.38 187.799  14
   1   1   1 8470.71 141.652   3
   1   1   1 8614.30 176.889  12
  -1  -1  -1 8454.88 177.673  15
  -1   1  -1 8581.15 182.115   1
  -1  -1  -1 8484.25 177.566   5
  -1   1  -1 8459.59 111.351   7
  -1  -1  -1 8626.16 145.730  14
   1   1   1 8348.08 189.342  13
   1  -1   1 8335.25 176.765   2
   1  -1   1 8602.74 184.484   3
   1   1   1 8516.02 179.106   2
   1  -1   1 8509.29 146.594  13
   1  -1   1 8285.77 177.778  16
  -1   1  -1 8604.65 179.935  15
  -1  -1  -1 8437.81 134.289   8
  -1   1  -1 8646.34 115.080   8
  -1   1  -1 8482.66 165.265  11
  -1   1  -1 8521.13 112.177  10
  -1   1  -1 8617.65 147.286   4
   1   1   1 8693.66 182.694  16
  -1  -1  -1 8591.00 193.939   4
   1  -1   1 8415.27 113.454   8
   1  -1   1 8433.41 165.523   6
   1  -1   1 8668.27 113.780   7
  -1  -1  -1 8524.24 181.573   1
   1  -1   2 459.116 48.2277  16
  -1  -1  -2 469.928 45.9830  15
  -1  -1  -2 453.191 48.0195   4
   1   1   2 442.569 46.1578  16
  -1   1  -2 433.184 44.7250  15
  -1   1  -2 428.778 25.7873   7
   1   1   2 425.772 46.6587  13
  -1  -1  -2 456.219 30.6098   8
   1  -1   2 428.451 46.9361   3
   1   1   2 479.089 37.6335   3
   1  -1   2 414.667 25.8615   8
  -1  -1  -2 462.423 43.1755   5
  -1  -1  -2 434.997 30.7579   7
  -1  -1  -2 466.950 46.2113   1
  -1   1  -2 465.488 41.6648   4
   1   1   2 469.801 30.9188  10
  -1  -1  -2 454.787 35.7180  14
   1   1   2 475.277 46.7668   2
   1  -1   2 471.349 47.8458   2
   1  -1   2 435.838 26.8873   5
   1  -1   2 419.685 39.9628   6
  -1   1  -2 418.599 45.6679   1
  -1  -1  -3 1.41054 10.1003   1
  -1  -1  -3 9.67334 12.3370   4
  -1  -1  -3-12.3860 10.4888  15
  -1  -1  -3 12.3683 8.47251   7
   1   1   3 7.61694 11.7241   2
  -1   1  -3 28.6447 17.8206   1
   1  -1   3-4.33743 14.0403   3
   1  -1   3 3.26919 11.1353   2
   1  -1   3 29.4396 18.0577  16
  -1  -1  -3-3.11167 7.57540   5
  -1   1  -3-12.1965 14.2442  15
   1   1   3-2.97946 6.58018  16
  -1  -1  -4 2173.21 120.884  15
   1   1   4 1694.88 130.588   2
  -1  -1  -4 1811.37 123.951   1
  -1  -1  -4 2466.77 137.082   4
   1   1   4 2226.82 125.591  16
   1  -2  -1 1666.07 83.8700   7
   1  -2  -1 1751.55 94.3238   6
   1  -2  -1 1618.69 87.8001   3
  -1   2   1 1567.85 89.2743  11
  -1   2   1 1746.90 97.6860  14
  -1   2   0 1572.30 87.3020  14
   1  -2   0 1715.14 79.0921   8
   1  -2   0 1738.33 77.6115  16
  -1   2   0 1708.11 75.5673  15
  -1   2   0 1690.31 74.7911   1
   1  -2   0 1664.30 74.3423   2
   1  -2   0 1720.67 89.3409   3
   1  -2   0 1752.78 77.7002   7
  -1   2   0 1643.90 87.5807  11
  -1   2   0 1697.09 76.9352  10
  -1   2   0 1728.05 49.9266   5
   1  -2   0 1732.53 90.9388   6
   1  -2   1 3653.64 109.792   7
  -1   2  -1 3548.49 117.360  15
   1  -2   1 3537.40 132.761   3
  -1  -2  -1 3697.42 126.853   7
  -1   2  -1 3598.09 135.611  14
   1   2   1 3577.77 114.317   2
  -1  -2  -1 3466.68 135.552   5
  -1  -2  -1 3591.87 117.887   1
   1  -2   1 3593.73 120.126  16
   1  -2   1 3496.99 105.258   8
   1  -2   1 3700.18 134.515   6
  -1  -2  -1 3521.19 137.065   4
   1   2   1 3438.61 132.097  12
  -1  -2  -1 3543.98 118.493  15
   1  -2   1 3576.97 120.332   2
  -1   2  -1 3687.04 111.029   9
   1   2   1 3426.18 133.881  13
  -1  -2  -1 3437.56 115.771   8
   1   2   1 3408.10 112.768  16
   1  -2   1 3624.17 81.3539  13
  -1   2  -1 3608.01 121.549   1
   1   2   1 3501.46 123.539   9
   1   2   2 579.576 58.8862  12
  -1   2  -2 589.033 54.5375  15
   1  -2   2 558.622 58.7274   3
  -1  -2  -2 604.887 32.2280  14
  -1  -2  -2 604.140 58.1751   4
  -1  -2  -2 611.208 52.6448   1
  -1   2  -2 642.264 60.2275   1
  -1  -2  -2 556.149 48.1985   7
   1   2   2 583.953 50.2390  16
   1   2   2 625.260 50.6698   2
   1  -2   2 634.044 58.1085   2
  -1  -2  -2 547.733 57.3723   5
   1  -2   2 606.686 57.0470  16
   1   2   2 579.433 49.2548   9
  -1  -2  -2 599.555 47.1049   8
   1  -2   2 570.567 56.5585   6
   1   2   2 563.793 31.3817   3
   1  -2   2 591.624 44.4326   8
   1   2   2 595.445 57.4885  13
  -1  -2  -2 616.159 51.2265  15
  -1  -2  -3 3268.18 143.399   4
   1  -2   3 3259.62 192.658  16
  -1  -2  -3 3269.05 128.198  15
  -1  -2  -3 3374.10 118.097   8
   1   2   3 3404.79 133.444  16
  -1  -2  -3 3499.33 138.349   1
   1  -2   3 3203.02 175.082   3
   1   2   3 3419.41 149.728  13
  -1  -2  -3 3472.04 146.489   5
  -1   2  -3 3376.57 164.135  15
   1   2   3 3443.71 134.434   2
  -1  -2  -3 3343.11 117.432   7
   1   2   3 3464.05 119.228  10
  -1  -2  -4 6484.28 200.361  15
  -1  -2  -4 6376.34 222.297   4
   1   2   4 6714.12 240.007   2
  -1  -2  -4 6653.78 180.952   7
  -1  -2  -4 6811.90 220.565   5
   1   2   4 6732.09 206.898  16
  -1  -2  -4 6511.74 228.471   1
  -1  -2  -5 683.430 69.5309  15
   1   2   5 283.634 51.6651  16
   1  -3  -2 699.117 70.8318   6
   1  -3  -2 492.600 57.6628   8
   1  -3  -2 672.384 67.5204   7
   1  -3  -1 12618.6 280.060   6
  -1   3   1 12462.9 266.838  10
   1  -3  -1 12786.6 267.921   7
   1  -3  -1 12331.0 252.653   3
  -1   3   1 12476.4 260.240  14
  -1   3   1 12533.0 193.935   1
   1  -3  -1 12219.5 189.399   2
  -1   3   1 12469.6 277.722  11
   1  -3  -1 12533.5 268.530   8
  -1   3   0 201.896 34.2724  14
  -1   3   0 199.580 24.8640  15
  -1   3   0 194.738 35.3511  11
   1  -3   0 180.660 31.1601   8
   1  -3   0 197.729 34.6879   3
  -1   3   0 204.171 24.1515  12
   1  -3   0 206.714 27.4382  16
   1  -3   0 191.224 33.2163   6
  -1   3   0 213.887 26.9223   1
  -1   3   0 204.433 31.5685  10
  -1  -3   0 140.613 48.9740   5
   1  -3   0 195.503 23.9072   5
   1  -3   0 178.347 31.4120   7
   1  -3   0 202.317 26.0789   2
   1  -3   1 20.8216 13.3234   3
   1  -3   1 25.6148 13.1446   7
  -1  -3  -1 12.4983 15.9303   5
   1   3   1 30.2114 16.7135   9
  -1   3  -1 37.1728 16.0779   1
   1  -3   1 7.49823 5.74528  16
   1   3   1 18.6956 9.50635  13
  -1  -3  -1 11.3432 13.1124   8
   1   3   1 22.3932 15.8285  12
  -1  -3  -1 25.6094 15.3425   4
  -1  -3  -1 6.54502 7.80148   1
   1  -3   1 17.6531 9.00905   6
   1  -3   1 18.1646 9.20311   8
  -1   3  -1 28.8671 16.9866  14
  -1   3  -1 40.5105 17.7245   9
  -1  -3  -1 19.3480 10.5877   7
   1  -3   1 24.3274 7.96556   5
   1   3   1 27.9014 11.2019   2
   1  -3   1 33.2376 13.6162   2
  -1   3  -1 38.5301 14.2237  15
  -1  -3  -2-10.2769 13.2612   8
   1  -3   2 16.5832 19.8648   6
   1   3   2-4.99658 7.44485  11
   1  -3   2 2.45562 12.2138   3
  -1  -3  -2-3.80313 12.4017   7
   1  -3   2-2.75663 8.02809   8
   1   3   2 7.27727 10.1155   9
  -1  -3  -2 10.6005 9.26196   4
  -1  -3  -2-18.7223 16.4513   5
  -1  -3  -2 7.13530 7.22560   1
   1   3   2 6.41137 7.12414  16
   1  -3   2-9.71359 12.6873  16
  -1   3  -2-3.93251 9.61265   1
  -1   3  -2 8.16334 8.81507  15
   1   3   2 1.13889 9.52547   2
   1  -3   2-26.4185 25.5559   2
   1   3   2 23.8365 21.5092  13
   1   3   2-5.53214 16.0027  12
  -1  -3  -2 16.7988 11.3961  15
   1   3   3 4433.46 178.243  13
  -1  -3  -3 4423.23 161.062   7
   1   3   3 4609.04 150.503  16
  -1  -3  -3 4500.74 147.735  15
  -1  -3  -3 4658.80 188.259   5
   1   3   3 4459.34 159.555  10
   1   3   3 4494.06 149.565   2
  -1  -3  -3 4310.70 106.044   6
  -1  -3  -3 4550.67 164.282   8
  -1  -3  -3 4615.74 157.040   1
  -1  -3  -3 4429.86 177.139   4
  -1  -3  -4 1653.73 112.374   1
  -1  -3  -4 1721.48 104.678   7
   1   3   4 1889.07 113.694  10
   1   3   4 1747.50 123.570  13
  -1  -3  -4 1643.86 66.3619   6
   1   3   4 1790.28 104.830  16
  -1  -3  -4 1730.91 120.924   5
  -1  -3  -4 1727.67 99.9294  15
   1   3   4 1720.32 122.173   2
  -1  -3  -4 1785.14 108.768   8
  -1  -3  -4 1629.78 115.159   4
  -1  -3  -5 15.8236 8.91436   6
  -1  -3  -5 9.96059 17.0854   7
  -1  -3  -5 29.4702 23.4937   5
  -1  -3  -5 18.7311 16.2207  15
   1   3   5 21.1424 19.2577  16
  -1  -3  -5 19.8706 20.3603   4
   1  -4  -3 184.488 49.0998   7
   1  -4  -3 198.029 47.9157   6
   1  -4  -3 188.202 46.8055   8
   1  -4  -2 8496.91 260.251   6
   1  -4  -2 8009.56 217.018   3
  -1   4   2 8553.52 261.696  11
   1  -4  -2 8688.05 261.723   7
   1  -4  -2 8875.52 160.501   2
  -1   4   2 8563.06 265.599  10
   1  -4  -2 8499.25 262.437   8
   1  -4  -1 4175.07 108.503   2
  -1   4   1 4157.62 160.105  14
   1  -4  -1 4272.45 179.263   8
  -1   4   1 4149.66 108.150   1
  -1   4   1 4043.45 171.533  10
  -1   4   1 4000.83 174.939  11
   1  -4  -1 4109.66 179.049   6
   1  -4  -1 4170.09 148.995   5
   1  -4  -1 4143.74 157.538   3
   1  -4  -1 4080.11 171.589   7
   1  -4   0 1415.08 70.1253  16
   1  -4   0 1317.51 74.6483   5
  -1   4   0 1411.21 95.9378  14
   1  -4   0 1405.56 107.151   6
  -1   4   0 1380.43 104.082  11
  -1   4   0 1365.05 67.0491  15
   1  -4   0 1353.29 98.0166   7
   1  -4   0 1433.17 98.0249   3
  -1  -4   0 1307.50 148.334   5
   1  -4   0 1342.97 98.5291   8
  -1   4   0 1391.16 75.9579  12
   1  -4   0 1368.99 68.8404   2
  -1   4   0 1363.98 69.8083   1
   1  -4   1 195.901 37.9037   7
   1   4   1 189.568 41.9908  12
  -1   4  -1 230.938 39.6118  14
   1  -4   1 212.319 30.4051  16
   1   4   1 188.549 36.5984  13
  -1  -4  -1 195.521 41.0390   5
  -1  -4  -1 198.147 41.5567   8
  -1   4  -1 203.605 27.2471  15
  -1   4  -1 217.308 39.5151   9
   1  -4   1 184.356 36.8653   6
   1  -4   1 73.9767 32.3005   2
   1  -4   1 177.413 34.9370   3
   1  -4   1 198.502 27.1209   5
  -1  -4  -1 226.034 29.5810   1
   1   4   1 175.790 38.6799   9
   1   4   1 217.801 28.9120   2
   1  -4   1 213.010 39.0901   8
  -1  -4  -1 163.815 36.0449   7
  -1  -4  -1 216.158 40.5529   4
   1   4   2 3384.20 170.567  12
   1  -4   2 3256.82 137.572  16
   1   4   2 3438.72 160.597  13
   1   4   2 3332.85 129.580  16
   1  -4   2 3418.61 174.618   6
  -1   4  -2 3728.46 184.305   9
   1  -4   2 3501.37 198.187   7
   1  -4   2 3388.18 171.506   3
  -1   4  -2 3258.53 135.186  15
   1  -4   2 3274.17 151.756   8
  -1  -4  -2 3525.56 166.627   7
   1   4   2 3493.82 118.160   2
  -1  -4  -2 3363.44 159.448   4
   1  -4   2 3473.12 117.829   5
  -1  -4  -2 3468.11 176.286   5
  -1  -4  -2 3530.68 164.743   8
   1   4   2 3397.19 160.942   9
  -1  -4  -2 3510.65 123.674   1
  -1  -4  -3 971.211 88.0601   4
   1   4   3 912.154 85.6107  13
  -1  -4  -3 902.725 92.8794   5
   1   4   3 923.238 65.6263  16
  -1  -4  -3 913.036 84.9936   8
  -1  -4  -3 840.245 59.5904   6
  -1  -4  -3 855.493 64.6738   1
   1   4   3 881.431 80.5313  10
   1   4   3 874.726 63.5664   2
  -1  -4  -3 911.011 66.4730  15
   1   4   3 879.969 59.0696  11
  -1  -4  -3 892.055 83.5644   7
  -1  -4  -4 85.7022 21.3137  15
   1   4   4 78.5691 34.1542  13
   1   4   4 80.8351 25.3163  16
  -1  -4  -4 79.5907 27.8657   4
  -1  -4  -4 102.135 33.6588   7
   1   4   4 81.6867 30.2438  10
  -1  -4  -4 87.1763 33.0253   5
  -1  -4  -4 66.6266 18.3593   6
   1   4   4 59.5054 27.1171   2
  -1  -4  -4 74.0438 26.7915   8
  -1  -4  -5 0.81663 20.1949  15
  -1  -4  -5-23.1803 19.8819   4
  -1  -4  -5-11.7920 17.3698   7
   1   4   5-9.76986 18.7454  13
  -1  -4  -5-13.5413 12.2890   6
   1   4   5-12.3946 21.5326  10
   1   4   5-4.37120 12.0887  16
  -1  -4  -5 10.7870 17.0388   8
  -1  -4  -5-14.6201 28.5388   5
   1   4   6 65.5269 48.4395  16
  -1  -4  -6-15.9458 13.0325   6
  -1  -4  -6-0.94896 24.8039   7
  -1  -4  -6-20.3950 32.2984   5
  -1  -4  -6 45.7156 33.4136  15
   1  -5  -3 391.569 65.9212   8
   1  -5  -3 361.282 60.6620   6
   1  -5  -3 422.876 67.4419   7
   1  -5  -3 351.312 51.0030   3
  -1   5   3 347.085 63.6800  10
  -1   5   2 327.628 59.7805  11
  -1   5   2 319.240 29.1584  13
   1  -5  -2 378.917 28.2383   2
  -1   5   2 323.714 27.3388   1
   1  -5  -2 372.005 59.9481   5
  -1   5   2 316.901 51.7419  14
  -1   5   2 342.195 60.2866  10
   1  -5  -2 343.666 57.3499   6
   1  -5  -2 360.650 58.4545   7
   1  -5  -2 316.266 45.8898   3
   1  -5  -2 366.627 59.9329   8
   1  -5  -1 32.5249 12.7585   2
  -1   5   1 47.0430 21.1943  12
  -1   5   1 31.3571 15.3315  14
   1  -5  -1 40.7323 29.3826   6
   1  -5  -1 48.2773 28.9166   7
  -1   5   1 31.6845 22.5738  11
   1  -5  -1 37.1337 22.3439   8
   1  -5  -1 42.4856 11.6230   3
   1  -5  -1 61.3403 20.4282   5
  -1   5   1 55.6165 24.7287  10
  -1   5   1 46.9684 12.8106   1
  -1   5   0 4068.64 193.457   9
  -1   5   0 3979.16 195.259  11
   1  -5   0 3895.39 188.550   7
  -1   5   0 3886.71 148.721  12
   1  -5   0 4067.89 119.876  16
  -1   5   0 3946.55 175.541  14
  -1  -5   0 3490.93 278.417   5
   1  -5   0 4028.77 201.871   6
   1  -5   0 4041.66 178.970   3
   1  -5   0 3935.23 191.220   8
  -1   5   0 3875.78 114.310  15
   1  -5   0 4035.19 154.273   5
  -1   5  -1 23.7133 17.4806  14
  -1  -5  -1 35.6611 13.8397   1
  -1  -5  -1-21.1815 19.4620   8
  -1   5  -1 6.69298 10.2654  15
   1  -5   1 37.4606 22.9027   8
   1   5   1 39.9651 22.8533  12
  -1   5  -1 4.10148 12.9908   9
   1  -5   1 5.12373 10.1671  16
   1  -5   1 25.7162 23.6016   6
  -1  -5  -1 23.6302 23.0265   7
   1  -5   1 36.5446 17.7386   7
   1  -5   1-3.43441 17.7973   3
   1   5   1 28.2229 14.0488   2
   1  -5   1 34.0944 17.3813   5
   1   5   1 3.63283 23.9832   9
  -1  -5  -1-1.45400 18.1960   4
  -1  -5  -1 21.7891 18.6593   5
   1  -5   2 7197.34 291.318   3
  -1  -5  -2 7540.03 270.407   7
  -1   5  -2 7421.01 294.406   9
   1  -5   2 7172.84 321.818   7
  -1  -5  -2 7374.17 278.930   5
   1  -5   2 7406.26 201.410   5
   1  -5   2 7666.55 289.328   6
  -1   5  -2 7640.90 212.758  15
  -1  -5  -2 7314.00 173.248   1
   1  -5   2 7464.55 213.808  16
   1   5   2 7516.70 254.399  13
   1  -5   2 7333.50 262.332   8
   1   5   2 7510.12 269.510   9
   1   5   2 7471.27 170.587   2
  -1  -5  -2 7256.71 266.714   8
  -1  -5  -2 7279.75 251.643   4
  -1  -5  -3-7.41049 18.5202   8
   1   5   3-14.9030 28.8229  10
   1   5   3-9.86769 9.42432  16
  -1  -5  -3 6.36831 21.4136   7
   1   5   3 7.49951 14.0391  11
  -1  -5  -3 20.1296 18.7880   6
   1   5   3 29.6893 28.8611  13
  -1  -5  -3 0.94418 17.2150  15
  -1  -5  -3-0.50829 11.7153   1
   1   5   3 0.43956 25.2499   9
  -1  -5  -3 38.4169 30.9410   5
  -1  -5  -3 0.91002 17.3785   4
   1   5   3-7.06628 11.4145   2
   1   5   3 0.09660 23.6081  12
  -1  -5  -4 6151.43 181.841  15
  -1  -5  -4 6453.32 193.232   6
  -1  -5  -4 6319.41 252.634   4
  -1  -5  -4 6094.38 271.657   5
  -1  -5  -4 6098.03 249.892   7
  -1  -5  -4 6639.87 260.602   8
   1   5   4 6334.84 248.530  10
   1   5   5 163.267 55.7334  16
  -1  -5  -5 503.330 78.7080   4
   1   5   5 135.677 74.6347  13
  -1  -5  -5 575.902 79.4126   8
   1   5   5 546.397 83.5314  10
  -1  -5  -5 474.390 76.8567   5
  -1  -5  -5 418.320 53.0124  15
  -1  -5  -5 532.014 76.6464   7
  -1  -5  -5 483.607 52.6731   6
   1   5   6 72.1970 68.7184  13
   1   5   6 80.3368 51.9008  16
  -1  -5  -6 344.307 73.8425   5
  -1  -5  -6 356.761 49.1024   6
  -1  -5  -6 288.175 56.4094  15
  -1  -5  -6 231.156 56.5799   4
  -1  -5  -6 367.383 70.6375   7
  -1   6   4 2264.86 177.918  10
   1  -6  -4 2641.45 182.415   6
   1  -6  -4 2385.39 141.109   3
   1  -6  -4 2432.58 182.982   8
   1  -6  -4 2684.80 190.282   7
   1  -6  -3 448.262 74.1994   7
  -1   6   3 381.466 64.6691  11
   1  -6  -3 440.896 69.1633   6
  -1   6   3 440.421 78.4942  10
   1  -6  -3 381.235 63.0831   8
  -1   6   3 427.116 42.4311  13
   1  -6  -3 467.714 57.1428   3
  -1   6   2 387.921 59.5250  12
   1  -6  -2 466.606 67.8557   5
  -1   6   2 431.506 77.5730  14
   1  -6  -2 449.054 73.5756   6
  -1   6   2 361.580 65.1399  10
  -1   6   2 426.938 69.6199  11
   1  -6  -2 436.185 71.8851   7
   1  -6  -2 406.194 56.6786   3
   1  -6  -2 369.726 64.0926   8
   1  -6  -1 1342.88 127.097   6
  -1   6   1 1213.90 99.9886  14
  -1   6   1 1261.06 119.573  10
   1  -6  -1 1212.99 101.097   3
  -1   6   1 1259.89 100.025  12
  -1   6   1 1243.89 118.626  11
   1  -6  -1 1163.21 98.2862   5
   1  -6  -1 1231.00 117.182   7
  -1   6   1 1225.01 120.637   9
   1  -6  -1 1282.15 121.338   8
   1  -6   0 1213.72 105.116   3
   1  -6   0 1183.68 77.8812  16
  -1   6   0 1356.70 101.350  12
   1  -6   0 1263.46 122.937   6
   1  -6   0 1341.90 100.444   5
  -1   6   0 1287.22 121.455  11
   1  -6   0 1254.92 119.889   7
  -1   6   0 1224.84 103.115  14
  -1   6   0 1231.70 118.792   9
  -1   6   0 1302.40 66.3766  15
   1  -6   0 1284.05 121.137   8
   1  -6   1 66.7615 26.3817   8
  -1  -6  -1 71.9619 28.9036   5
  -1  -6  -1 15.5477 36.1993   7
   1  -6   1 66.2640 26.9363   6
  -1  -6  -1 20.0677 22.3784   4
  -1   6  -1 28.3053 25.3506   9
  -1  -6  -1 82.0801 38.2859   8
   1  -6   1 49.8653 26.3007   3
   1   6   1 49.3755 32.5738   9
   1   6   1 51.6259 33.4010  12
  -1   6  -1 44.0838 14.1435  15
   1   6   1 76.4360 24.1255   2
   1  -6   1 72.4488 23.7156   5
  -1   6  -1 48.5055 27.0387  14
  -1  -6  -1 44.8950 14.7137   1
   1  -6   1 57.8228 22.5835  16
   1  -6   1 97.9974 43.0650   7
   1  -6   2 1922.37 114.337  16
  -1  -6  -2 1921.48 87.0122   1
   1   6   2 1949.58 120.746  11
   1   6   2 2177.26 153.162  13
  -1  -6  -2 1840.47 149.422   7
  -1   6  -2 1878.73 108.341  15
   1  -6   2 1935.69 168.746   6
   1  -6   2 1554.88 182.703   7
   1   6   2 1931.53 150.208  12
   1   6   2 1874.32 152.996   9
   1  -6   2 2064.18 125.452   5
  -1  -6  -2 1828.30 154.262   5
   1   6   2 1900.18 83.6183   2
  -1  -6  -2 1822.26 148.842   8
   1  -6   2 2050.99 161.780   8
  -1  -6  -2 1903.04 137.043   4
  -1  -6  -3 52.7755 26.1770   8
   1   6   3 3.30438 25.0485  13
   1   6   3 55.9736 26.3469   2
  -1  -6  -3 26.3824 25.2278   4
   1   6   3 48.4551 26.1251  10
   1   6   3 34.7439 30.9176  12
  -1  -6  -3-6.11940 21.1117   7
   1   6   3 5.47408 15.3572  11
   1   6   3 13.6953 23.5294   9
  -1  -6  -3 41.5471 27.5444   6
  -1  -6  -3 4.21945 25.9692   5
   1   6   4 44.1284 50.8854  12
  -1  -6  -4 163.801 49.9595   7
  -1  -6  -4 167.426 47.1632   4
   1   6   4 1.55136 45.4991   9
   1   6   4 32.1936 26.1237  16
   1   6   4 135.682 39.6574  10
  -1  -6  -4 133.569 42.3825   5
  -1  -6  -4 165.846 39.2932   6
   1   6   4 22.6698 47.6485  13
  -1  -6  -4 145.734 41.4232   8
   1   6   5 120.011 54.6115  16
   1   6   5 85.4665 67.2932  13
  -1  -6  -5 416.331 55.3922   6
  -1  -6  -5 472.681 80.1452   7
   1   6   5 414.952 72.2595  10
  -1  -6  -5 381.499 52.6359  15
  -1  -6  -5 477.705 80.1690   4
   1   6   5 66.1525 72.7386  12
  -1  -6  -5 402.848 78.2037   5
  -1  -6  -5 304.992 69.4094   8
  -1  -6  -6 123.965 34.8833  15
  -1  -6  -6 145.773 50.0758   7
   1   6   6 13.3996 31.2481  13
  -1  -6  -6 177.605 39.4313   6
  -1  -6  -6 221.951 70.0483   5
   1   6   6 113.419 45.4878  10
  -1  -6  -6 134.873 54.7199   8
  -1  -6  -6 174.600 50.5395   4
   1   6   7 3.90141 23.7971  13
  -1  -6  -7 33.5747 44.0116   5
  -1  -6  -7-30.6614 39.5789  15
  -1  -6  -7-43.4238 33.4365   7
  -1   7   4 53.1886 38.2535  10
   1  -7  -4 44.5126 18.2915   3
   1  -7  -4 82.6513 41.4110   6
   1  -7  -4 65.2294 25.8332   8
   1  -7  -4 65.5173 43.1322   7
  -1   7   3 465.430 75.1846  12
   1  -7  -3 474.732 83.6648   6
  -1   7   3 454.260 84.8018  10
  -1   7   3 462.385 78.7133  11
   1  -7  -3 537.191 101.269   5
   1  -7  -3 417.099 61.6848   3
   1  -7  -3 473.385 83.0437   7
   1  -7  -3 448.563 81.9109   8
   1  -7  -2 80.1609 44.9227   7
  -1   7   2 30.9449 32.1115  14
   1  -7  -2 17.6246 26.8561   6
  -1   7   2 41.6519 23.6128  12
  -1   7   2 4.79538 25.8330  11
  -1   7   2 40.4536 40.0411  10
   1  -7  -2 70.3616 35.8449   5
  -1   7   2 45.5397 34.6180   9
   1  -7  -2 17.8760 19.7229   3
   1  -7  -2 52.9141 33.2556   8
   1  -7  -1 66.2078 30.7555   8
  -1   7   1 6.13190 34.5148  10
   1  -7  -1 80.9555 43.6621   6
   1  -7  -1 102.060 47.1233   7
  -1   7   1 72.7878 27.6585  12
  -1   7   1 86.8533 37.8242  11
   1  -7  -1 81.1908 38.2363   3
  -1   7   1 114.943 35.3951  14
   1  -7  -1 81.6616 28.1828   5
  -1   7   1 100.995 36.8796   9
   1  -7   0 757.981 102.080   7
  -1   7   0 655.692 79.1924  14
   1  -7   0 698.701 87.3632   3
   1  -7   0 697.698 99.7397   6
  -1   7   0 742.778 97.5706  11
   1  -7   0 741.230 83.0870   5
  -1   7   0 713.435 100.842   9
   1  -7   0 665.542 92.0436   8
   1  -7   1 102.283 38.5595   8
  -1  -7  -1 116.970 54.5569   8
  -1  -7  -1 89.2849 42.3510   7
   1   7   1 74.3506 43.7483   9
   1  -7   1 146.248 28.1577  16
   1  -7   1 114.105 52.0142   7
  -1   7  -1 183.648 54.9923   9
  -1  -7  -1 109.930 48.9362   4
   1  -7   1 83.6853 26.1984   5
  -1  -7  -1 99.4530 37.5345   5
   1  -7   1 85.0136 38.0679   6
  -1   7  -1 124.850 41.1756  14
  -1  -7  -2 586.356 97.2819   5
  -1  -7  -2 408.212 80.0137   8
   1  -7   2 535.151 67.4323  16
  -1  -7  -2 515.809 74.2278   4
   1  -7   2 474.476 101.560   8
   1  -7   2 452.172 104.627   6
  -1  -7  -2 570.938 93.2804   7
   1   7   2 463.489 82.4486  12
  -1   7  -2 478.982 79.2355  14
   1   7   2 532.250 97.0317   9
   1   7   2 486.536 71.3535  11
   1  -7   2 467.855 79.7449   5
  -1   7  -2 443.586 50.4391  15
  -1  -7  -3 398.804 77.2326   8
   1   7   3 425.499 75.9445  13
   1   7   3 404.175 77.6458  12
  -1  -7  -3 395.450 83.7982   5
  -1  -7  -3 335.949 62.9437   4
   1   7   3 434.387 83.5907   9
  -1  -7  -3 353.760 75.6142   7
   1   7   3 377.704 59.2988  11
   1   7   3 415.504 77.8916  10
   1   7   4 135.263 36.5501  11
   1   7   4 148.551 42.3178  13
   1   7   4 26.3419 53.0803  12
  -1  -7  -4 184.082 43.1283   4
  -1  -7  -4 150.618 38.2448   6
   1   7   4 201.505 60.8060  10
  -1  -7  -4 182.313 60.9889   5
   1   7   4 6.99380 44.0108   9
  -1  -7  -4 133.532 47.5485   7
  -1  -7  -4 167.369 51.2305   8
   1   7   5 25.4137 59.1560  12
   1   7   5 5.73960 69.7122   9
  -1  -7  -5 321.186 74.2990   4
   1   7   5 60.7743 63.6855  13
  -1  -7  -5 213.181 45.1299   6
   1   7   5 335.344 72.2631  10
  -1  -7  -5 315.486 76.6206   7
  -1  -7  -5 202.283 57.8174   5
  -1  -7  -5 192.951 59.2557   8
  -1  -7  -6 135.415 52.5058   4
   1   7   6 1.36205 50.9956   9
  -1  -7  -6 141.940 56.6396   7
  -1  -7  -6 173.391 48.5503   5
   1   7   6 163.313 45.3992  10
   1   7   6 0.79431 45.3560  13
  -1  -7  -6 16.6300 33.0167   8
   1   7   6 28.6274 57.1780  12
  -1  -7  -7 1228.34 172.508   7
  -1  -7  -7 1309.07 185.298   5
   1  -8  -5 1245.98 153.716   7
   1  -8  -5 1341.47 162.808   8
   1  -8  -4 121.104 52.7302   7
   1  -8  -4 181.611 62.7025   6
   1  -8  -4 113.029 45.4651   8
  -1   8   4 201.062 57.5101  12
   1  -8  -4 186.543 50.6374   3
  -1   8   4 172.719 77.3953  10
   1  -8  -3 1552.63 157.399   6
   1  -8  -3 1437.27 120.929   3
   1  -8  -3 1691.12 175.466   5
  -1   8   3 1487.67 143.696  12
  -1   8   3 1502.49 154.513  11
   1  -8  -3 1499.28 156.778   7
  -1   8   3 1435.00 156.070  10
  -1   8   3 1430.40 159.659   9
   1  -8  -3 1421.86 155.265   8
   1  -8  -2 662.822 102.913   6
  -1   8   2 666.462 89.5209  12
   1  -8  -2 742.135 115.282   7
  -1   8   2 780.870 108.995  14
   1  -8  -2 705.238 92.0249   5
  -1   8   2 622.552 96.7798  10
   1  -8  -2 622.969 80.8503   3
  -1   8   2 680.989 105.698   9
  -1   8   2 631.209 93.6651  11
   1  -8  -2 609.284 96.8969   8
   1  -8  -1 1149.38 130.988   7
  -1   8   1 1174.34 128.808  10
  -1   8   1 1047.26 102.971  14
  -1   8   1 1274.31 121.041  12
   1  -8  -1 1089.24 132.068   6
  -1   8   1 1172.27 139.565  11
   1  -8  -1 950.371 114.816   8
   1  -8  -1 1136.26 112.825   5
  -1   8   1 1130.48 133.855   9
   1  -8  -1 1171.65 116.877   3
  -1   8   0-14.1252 32.3182  14
   1  -8   0 3.20522 23.3912   7
   1  -8   0-10.8472 29.2836   6
   1  -8   0-9.09166 25.7228   8
  -1   8   0 0.39756 40.8142  11
  -1   8   0 63.0537 44.9398  10
   1  -8   0 12.4768 19.0284   5
  -1   8   0-16.9291 27.1916   9
   1  -8   1 286.895 73.9747   8
  -1   8  -1 184.002 52.4719  11
  -1   8  -1 179.221 41.7796  14
   1  -8   1 271.516 80.4640   7
  -1  -8  -1 198.394 57.9365   4
   1  -8   1 258.534 71.4213   6
  -1  -8  -1 321.650 102.551   8
   1  -8   1 227.224 58.6780   5
  -1   8  -1 342.291 86.9342   9
  -1  -8  -1 197.074 79.0967   5
  -1  -8  -2-7.33479 29.6674   8
   1   8   2 20.1668 34.5744   9
   1  -8   2-106.952 135.168   8
   1   8   2-24.4739 38.9338  12
  -1  -8  -2 55.0577 30.7947   7
   1   8   2-31.7884 31.4712  11
  -1  -8  -2 16.7060 32.7019   4
  -1  -8  -2-41.0877 44.8740   5
  -1  -8  -3 451.280 88.8447   8
   1   8   3 576.081 105.901  10
   1   8   3 423.657 95.2725  13
  -1  -8  -3 539.577 98.1703   7
  -1  -8  -3 452.246 78.3028   4
   1   8   3 473.069 96.5509  12
   1   8   3 510.729 78.2102  11
  -1  -8  -3 519.334 99.7605   5
   1   8   4 73.6563 42.9099  10
  -1  -8  -4 23.0616 54.7709   6
   1   8   4 36.5951 31.5417  13
   1   8   4 2.41978 52.0551   9
   1   8   4 46.3810 34.7479  12
  -1  -8  -4 40.0537 29.5438   4
  -1  -8  -4 87.5053 50.4987   5
  -1  -8  -4 60.4265 36.7305   7
  -1  -8  -4 98.4959 53.8398   8
  -1  -8  -5 80.6121 36.6778   4
   1   8   5 70.7414 33.3365  13
   1   8   5-3.57608 34.0930  12
   1   8   5-15.3598 30.4998  10
  -1  -8  -5 86.9232 44.0610   5
   1   8   5 0.76380 26.3437   9
  -1  -8  -5 23.5485 34.8945   7
  -1  -8  -5 86.1089 48.3898   8
   1   8   6 6.99134 71.2433   9
   1   8   6 102.885 81.2817  13
  -1  -8  -6 230.018 70.2356   5
   1   8   6 263.465 67.1775  10
  -1  -8  -6 262.837 77.4329   7
   1   8   6 43.7620 75.1860  12
  -1  -8  -6 201.288 64.8270   8
  -1  -8  -7 406.030 113.478   7
   1   8   7 36.3712 65.2623  12
   1   8   7 5.03373 48.3383   9
   1   8   7 6.40131 57.4484  13
  -1  -8  -7 484.018 118.524   5
  -1   9   5 136.024 51.9710  12
   1  -9  -5 171.928 65.5693   7
   1  -9  -5 135.221 74.7157   6
   1  -9  -5 178.800 71.5485   8
  -1   9   4 359.898 77.9451  12
   1  -9  -4 387.247 88.5706   6
  -1   9   4 457.623 108.319  10
   1  -9  -4 441.242 94.8267   7
   1  -9  -4 445.845 102.748   8
  -1   9   4 502.574 122.190   9
   1  -9  -3 200.547 62.6003   6
  -1   9   3 186.775 57.6397  12
   1  -9  -3 328.023 86.4150   8
   1  -9  -3 213.570 69.5616   7
  -1   9   3 262.879 74.2791  11
   1  -9  -3 280.560 79.4090   5
  -1   9   3 265.225 78.4721  10
  -1   9   3 299.656 86.1109   9
   1  -9  -2 1349.80 163.118   6
   1  -9  -2 1265.36 137.808   5
  -1   9   2 1443.12 145.291  12
  -1   9   2 1399.07 157.242  10
  -1   9   2 1274.26 151.010  11
   1  -9  -2 1384.46 164.248   7
  -1   9   2 1432.06 166.901   9
   1  -9  -2 1278.18 156.344   8
   1  -9  -1 803.804 122.924   7
   1  -9  -1 738.862 102.150   5
  -1   9   1 734.547 119.276   9
  -1   9   1 655.792 109.044  11
   1  -9  -1 769.724 122.921   8
   1  -9  -1 678.864 115.064   6
  -1   9   1 727.915 110.179  10
   1  -9   0 1555.15 176.271   7
  -1   9   0 1684.63 161.199  14
  -1   9   0 1629.60 170.995  11
   1  -9   0 1402.92 151.131   5
  -1   9   0 1535.38 161.979  10
   1  -9   0 1699.14 186.058   6
  -1   9   0 1851.31 191.413   9
   1  -9   0 1409.28 166.451   8
   1  -9   1 77.2553 53.8561   8
   1  -9   1 40.3180 49.2522   7
   1  -9   1-13.6809 79.2952   6
  -1   9  -1 106.451 51.1257  11
  -1   9  -1 25.7611 34.7248  14
   1  -9   1 58.2050 89.2562   5
   1   9   2 1626.15 147.862  11
  -1  -9  -2 2048.40 226.812   5
  -1  -9  -2 1804.41 226.539   7
   1   9   2 1848.11 205.583   9
  -1  -9  -2 2066.39 224.508   8
  -1  -9  -2 1626.90 177.989   4
  -1  -9  -3 241.053 73.7644   8
  -1  -9  -3 267.255 77.1464   5
   1   9   3 200.290 62.9030  10
  -1  -9  -3 288.412 71.9758   4
   1   9   3 236.625 70.8392  12
   1   9   3 253.819 71.8150   9
  -1  -9  -3 170.409 67.8342   7
  -1  -9  -4 248.647 56.9577   4
  -1  -9  -4 264.975 73.2600   7
   1   9   4 276.737 80.5128  13
   1   9   4 292.052 80.4953  12
   1   9   4 181.969 61.1356  10
  -1  -9  -4 260.604 78.3452   5
   1   9   4 5.87699 69.7893   9
  -1  -9  -4 255.991 80.0437   8
  -1  -9  -5 160.572 66.6280   4
  -1  -9  -5 101.102 28.3835   7
   1   9   5 118.790 52.4234  13
  -1  -9  -5 82.8676 47.9242   5
   1   9   5 15.0469 63.0758  12
   1   9   5 105.523 40.4044  10
   1   9   5 124.801 60.1473   9
  -1  -9  -5 84.4838 60.2759   8
  -1  -9  -6 95.6796 58.0044   7
   1   9   6 9.55269 52.5284  12
  -1  -9  -6-81.9174 64.1232   5
   1   9   6-22.8684 28.1702  13
   1   9   6 30.1242 34.7802  10
   1   9   6-33.1565 31.9440   9
  -1  -9  -6 22.7107 30.6717   8
   1   9   7 24.3504 71.5733  12
  -1  -9  -7 288.793 105.312   5
  -1  -9  -7 270.872 120.448   7
   1   9   7 51.9507 40.5210   9
   1 -10  -5 11.1240 45.2529   7
  -1  10   5-32.4613 33.5685  12
  -1  10   5-25.8903 47.3385   9
   1 -10  -5 53.9988 40.6415   8
   1 -10  -4 469.444 114.138   8
  -1  10   4 550.548 118.671  10
   1 -10  -4 446.042 107.083   7
   1 -10  -4 521.300 107.940   6
  -1  10   4 396.552 87.7068  12
  -1  10   4 645.156 135.095   9
   1 -10  -3 74.8904 45.7110   7
   1 -10  -3 267.982 91.9541   5
  -1  10   3 116.756 46.9550  12
   1 -10  -3 186.563 69.2125   6
  -1  10   3 128.206 52.4313  11
  -1  10   3 192.813 72.3343  10
  -1  10   3 224.099 84.1336   9
   1 -10  -3 85.9166 41.4420   8
   1 -10  -2 32.9135 39.1581   7
   1 -10  -2-26.8939 49.5689   5
   1 -10  -2 2.97967 37.6142   6
  -1  10   2 59.0669 55.4171   9
  -1  10   2 28.4512 31.9050  11
  -1  10   2-3.83496 38.8626  10
   1 -10  -2 0.93032 30.8898   8
   1 -10  -1 380.168 89.4842   6
   1 -10  -1 281.155 84.5256   7
  -1  10   1 413.123 94.8296  11
  -1  10   1 280.530 82.8471  10
   1 -10  -1 295.840 83.4858   5
  -1  10   1 422.069 99.9117   9
   1 -10  -1 356.434 93.4431   8
   1 -10   0-73.9759 63.1468   8
  -1  10   0 6.93503 47.1149   9
   1 -10   0-17.9953 50.8061   6
   1 -10   0 109.205 78.6214   7
  -1  10   0 22.8750 57.5340  11
  -1  10   0-25.5072 49.8172  10
  -1 -10  -2 126.689 61.9152   8
   1  10   2 119.219 64.6461  10
  -1 -10  -2 110.249 104.927   5
  -1 -10  -3-31.9118 44.2505   8
   1  10   3-52.6526 70.6261  10
  -1 -10  -3 93.9371 74.3023   5
   1  10   3-17.9754 52.3485   9
  -1 -10  -3 57.5839 62.8999   7
  -1 -10  -4-48.5365 64.7874   7
   1  10   4 1.74429 37.7325  12
  -1 -10  -4-13.3029 37.4889   5
   1  10   4 109.548 75.5633  10
   1  10   4 80.7847 55.8282   9
  -1 -10  -4-23.8916 53.4767   8
  -1 -10  -5 750.757 142.867   7
   1  10   5 654.482 132.713  10
  -1 -10  -5 640.050 131.502   5
   1  10   5 534.617 112.331   9
  -1 -10  -5 785.026 140.169   8
  -1 -10  -6 105.683 57.5050   7
   1  10   6 18.2449 87.5759  12
  -1 -10  -6 52.4101 40.6620   5
   1  10   6 104.977 50.8920  10
   1  10   6 101.223 53.7465   9
  -1 -10  -6 133.915 68.2558   8
  -1 -10  -7 148.270 86.1612   7
   1  10   7 17.7683 37.3738  12
  -1 -10  -7 53.9691 66.7253   5
   1  10   7 15.3659 31.2879   9
  -1 -10  -7 35.1081 52.6172   8
   1 -11  -5 206.617 81.0606   7
  -1  11   5 88.7066 64.1525   9
   1 -11  -5 128.258 67.8862   8
  -1  11   4 88.0861 56.6692  12
   1 -11  -4-56.1134 59.7732   6
   1 -11  -4 28.8573 58.3417   7
  -1  11   4 13.9902 47.5634  10
  -1  11   4 92.9585 64.5844   9
   1 -11  -4 97.1560 72.9239   8
   1 -11  -3-55.9912 137.985   5
   1 -11  -3-40.4096 69.1801   7
   1 -11  -3 81.6607 41.7667   6
  -1  11   3-36.7264 51.0890  11
  -1  11   3 82.9092 45.0360  10
  -1  11   3-48.6048 67.7794   9
   1 -11  -3-37.4110 40.2999   8
   1 -11  -2 108.630 38.4462   7
   1 -11  -2 130.685 68.6136   6
  -1  11   2 183.444 80.4475  11
  -1  11   2 190.426 80.3744  10
  -1  11   2 136.655 59.6390   9
   1 -11  -2 195.489 83.8170   8
   1 -11  -1 113.150 93.3331   6
  -1  11   1 32.9131 41.4887  11
   1 -11  -1-70.3139 81.1239   7
  -1  11   1 2.26775 57.9339  10
  -1  11   1 0.24337 47.6023   9
   1 -11  -1 4.62820 39.5766   8
   1 -11   0 26.5107 97.2453   8
  -1  11   0 9.61847 52.4031  11
  -1  11   0-10.7407 60.0249  10
   1  11   3 223.707 90.4990  10
  -1 -11  -3 364.254 166.806   5
  -1 -11  -3 213.360 74.9155   8
  -1 -11  -4 2.69407 62.9113   7
   1  11   4-7.82916 39.2211  10
  -1 -11  -4-52.9526 45.4067   5
   1  11   4-88.9735 54.2641   9
  -1 -11  -4 87.6831 76.8588   8
  -1 -11  -5 91.9499 100.304   7
   1  11   5-0.70635 43.5109  12
  -1 -11  -5 10.0142 46.1191   5
   1  11   5 74.8213 62.0276  10
   1  11   5 57.2934 64.7574   9
  -1 -11  -5-34.1983 64.6564   8
  -2   0  -1-2.63478 8.76503   4
  -2   0  -1 3.32957 17.4245  15
   2   0   1 5.85466 10.2351  16
  -2   0  -1 12.8146 15.3918  14
   2   0   1 3.31099 9.38544  13
   2   0   1 1.45279 6.31987   6
  -2   0  -1 1.25075 11.3087   1
   2   0   1 3.61068 11.0679   2
   2   0   1 17.2553 17.9275   3
  -2   0  -1-9.08294 7.79532   5
  -2   0  -2 10878.9 294.950   1
  -2   0  -2 11357.5 296.874  15
   2   0   2 10897.7 198.055   6
  -2   0  -2 11383.0 272.960  14
   2   0   2 11524.5 295.760   2
   2   0   2 11287.6 295.797  16
   2   0   2 10690.4 273.367  13
  -2   0  -2 11103.2 212.066   5
   2   0   2 11215.1 266.530   3
  -2   0  -2 10789.9 271.224   4
  -2   0  -3 30.5007 14.6260  14
  -2   0  -3 27.0934 24.7279   1
   2   0   3 30.5784 26.8838  13
   2   0   3 58.6217 18.2845   6
   2   0   3 35.5061 26.9373  16
   2   0   3 55.4400 21.5069  12
   2   0   3 82.3725 40.0748   2
  -2   0  -3 13.9026 30.3195  15
  -2   0  -3 37.7546 17.0224  11
  -2   0  -3 34.7210 16.5004   5
  -2   0  -3 37.9547 26.2575   4
   2   0   3 54.8178 30.7883   3
   2   0   4 4287.94 201.174  16
  -2   0  -4 4211.95 196.247  15
   2   0   4 4279.44 191.656  13
  -2   0  -4 4294.23 182.005  14
  -2   0  -4 4026.62 201.135   5
  -2   0  -4 4324.22 129.202  11
   2   0   4 4303.69 182.723   3
   2   0   4 4388.99 199.334   2
  -2   0  -4 4419.25 195.508   4
  -2   0  -4 4220.38 200.683   1
  -2   0  -5 14.9206 15.5593   4
   2   0   5-44.2099 27.7986  16
   2   0   5-29.0838 29.0353   2
  -2   0  -5 30.2185 9.54160   7
  -2   0  -5-42.1882 37.1565  15
  -2   0  -5 32.5891 25.4466   1
   2   0   6 1220.48 144.898  16
  -2   0  -6 1622.29 155.294   1
  -2   0  -6 1576.75 138.508  15
  -2   1   0 3904.43 149.951   4
  -2   1   0 4255.57 180.645   1
  -2   1   0 4177.93 177.317  15
  -2   1   0 4546.07 194.661  14
   2  -1   0 3964.37 177.352  16
   2  -1   0 3680.76 169.780   6
   2  -1   0 4103.02 173.669   2
   2  -1   0 4408.04 180.861   3
   2  -1   1 635.172 36.2270   7
   2  -1   1 570.579 65.2318  16
   2  -1   1 654.600 59.4236   6
   2  -1   1 562.329 62.9264   2
   2  -1   1 644.018 64.4368  13
   2   1   1 574.341 70.5800  13
  -2   1  -1 602.779 65.0327  15
  -2   1  -1 661.199 68.4459  14
  -2   1  -1 625.060 67.6572   1
  -2  -1  -1 579.115 67.6126   1
   2  -1   1 637.363 66.2766   3
   2   1   1 659.385 60.8231   3
   2   1   1 630.004 68.1733   2
  -2   1  -1 664.396 41.3972   5
  -2  -1  -1 606.839 62.9209   5
  -2  -1  -1 642.558 71.0803  15
  -2  -1  -1 634.381 70.6145   4
   2   1   1 581.204 65.9654  16
  -2   1  -1 633.372 59.1024   4
  -2   1  -2-23.1580 18.8965   4
   2   1   2-14.4394 19.3492  16
  -2   1  -2-34.5470 29.3918  15
  -2  -1  -2-25.1818 24.3936  15
  -2  -1  -2-12.2774 5.82190   8
  -2  -1  -2-7.63271 14.2901   4
  -2  -1  -2 1.51294 14.5490  14
   2  -1   2-1.95889 12.0191  13
   2   1   2 3.75098 14.2340  13
  -2   1  -2 20.2380 14.7702  14
   2  -1   2-21.3150 15.7000   6
   2   1   2-15.2161 8.95469   6
   2  -1   2-1.13183 14.2565  16
  -2   1  -2-18.7816 17.9497   1
   2   1   2-11.7064 9.34134  12
  -2   1  -2 12.6419 10.1687  11
   2  -1   2-3.32889 20.3252   2
  -2  -1  -2-7.52232 11.5198   1
   2   1   2-6.52665 21.0386   2
  -2   1  -2-5.06027 7.25578   5
   2  -1   2-9.83454 20.6057   3
   2   1   2-1.30995 9.63109   3
  -2  -1  -2-6.04599 17.4988   5
   2  -1   3 645.247 76.5930  16
  -2   1  -3 708.578 82.0988  15
  -2  -1  -3 764.856 70.5397  14
   2  -1   3 670.178 61.5837   6
  -2  -1  -3 731.569 83.5440   1
   2  -1   3 678.394 76.0005   3
   2  -1   3 685.911 71.2107  13
   2   1   3 715.603 79.7517  13
   2   1   3 707.062 65.6881   3
  -2  -1  -3 641.436 65.3601   5
  -2   1  -3 722.119 79.6800  14
   2   1   3 673.280 70.2849  12
   2   1   3 659.960 76.7623  16
  -2   1  -3 735.591 62.9939  11
  -2  -1  -3 652.609 74.3626  15
   2  -1   3 635.495 44.9094  12
  -2   1  -3 631.885 79.1332   1
  -2   1  -3 692.668 70.8189   4
  -2  -1  -3 692.418 77.2703   4
   2  -1   3 657.703 77.2146   2
   2   1   3 732.232 79.5265   2
  -2   1  -4 3055.81 171.889  15
   2  -1   4 2967.01 172.320  16
  -2  -1  -4 3059.55 166.620  15
  -2  -1  -4 2959.56 168.437   1
   2  -1   4 3078.05 155.074  13
  -2   1  -4 3138.76 167.412  14
   2   1   4 3167.81 174.565  16
   2  -1   4 3111.28 166.046   3
   2   1   4 3077.57 171.885  13
   2   1   4 3129.09 146.550   3
  -2  -1  -4 3192.46 148.166  14
   2   1   4 3065.00 147.692  12
  -2  -1  -4 3101.14 145.905   5
  -2  -1  -4 3023.44 103.617   7
  -2   1  -4 3092.41 159.728   4
   2  -1   4 3017.18 167.854   2
  -2  -1  -4 3079.61 171.005   4
   2   1   4 3263.14 172.268   2
  -2   1  -4 3068.58 173.967   1
   2   1   5 57.6677 28.9178  16
  -2   1  -5 34.2964 21.6248  15
   2  -1   5 47.5101 31.7556   2
  -2  -1  -5 61.4231 15.9952   7
   2   1   5 27.6220 19.4001  13
  -2  -1  -5 63.8167 29.9717  14
  -2  -1  -5 54.2241 31.2293   4
  -2  -1  -5 39.8229 12.2872  11
  -2  -1  -5 57.5996 29.5077  15
  -2  -1  -5 51.4324 30.0964   5
  -2   1  -5 60.8460 33.4144   1
   2   1   5 60.1577 26.0574   2
   2  -1   5 48.5038 30.8341  16
  -2  -1  -5 57.1305 31.6632   1
  -2  -1  -6 17.4864 20.7569   4
   2   1   6 37.0415 25.7248  16
   2   1   6 36.4276 24.5466   2
  -2  -1  -6 50.1307 29.9757  15
  -2  -1  -6 39.9254 12.6726   7
  -2  -1  -6 48.3331 21.7748   1
  -2   2   0 9774.77 207.224   4
   2  -2   0 9774.13 272.303  16
  -2   2   0 9413.62 275.436  14
  -2   2   0 9824.95 268.933  15
   2  -2   0 9844.82 261.656   6
  -2   2   0 9411.53 254.909   1
   2  -2   0 10032.8 279.614   3
   2  -2   0 10051.4 210.603   7
   2  -2   0 9558.23 255.505   2
  -2  -2  -1 1323.05 103.282   1
   2   2   1 1077.85 96.3553  16
   2  -2   1 1199.96 91.5823   2
  -2   2  -1 1294.98 95.9328  15
   2  -2   1 1299.00 94.0577   6
   2  -2   1 1447.60 89.7707  13
   2   2   1 1464.42 120.053  13
   2   2   1 1232.51 80.7904   3
  -2   2  -1 1204.29 91.9410   1
   2  -2   1 1350.97 67.1703   7
  -2   2  -1 1340.89 97.3360  11
   2   2   1 1433.80 107.916   2
  -2  -2  -1 1339.63 105.093   5
   2  -2   1 1280.72 96.9072  16
  -2   2  -1 1272.29 99.6815  14
   2  -2   1 1241.72 98.6370   3
  -2   2  -1 1291.42 76.4515   4
  -2  -2  -1 1353.44 108.958   4
   2   2   2 4099.55 179.319  16
   2  -2   2 4129.27 114.358   7
  -2   2  -2 4164.15 185.278  15
  -2   2  -2 4207.48 192.311  14
   2  -2   2 4081.45 184.944  16
   2   2   2 3900.59 183.164  13
  -2  -2  -2 3915.09 180.333   1
   2  -2   2 4259.27 173.893   6
   2  -2   2 4149.94 153.458  13
  -2   2  -2 4001.35 182.096   1
   2   2   2 4018.78 135.525   3
   2   2   2 4106.80 179.071  12
   2  -2   2 4184.67 190.257   3
   2   2   2 3924.19 170.327   2
  -2   2  -2 4014.85 165.397  11
  -2  -2  -2 4247.68 179.781   5
  -2   2  -2 4051.84 117.425   9
  -2  -2  -2 3905.95 127.072   8
  -2   2  -2 4150.46 147.350   4
  -2  -2  -2 4176.30 191.210   4
   2  -2   2 4153.76 182.842   2
  -2  -2  -2 4048.36 180.387  15
   2   2   3 4293.63 188.111   2
  -2   2  -3 4118.67 192.415   1
   2   2   3 4164.87 188.588  16
  -2   2  -3 4154.15 191.755  15
  -2  -2  -3 4156.44 186.331  15
  -2  -2  -3 4201.82 146.934  14
  -2  -2  -3 4260.90 194.898   1
   2  -2   3 4276.65 198.342   3
   2   2   3 4233.39 146.630   3
   2  -2   3 4245.81 163.850  13
   2   2   3 4254.35 200.202  13
   2  -2   3 4109.22 194.136  16
  -2   2  -3 4025.73 192.022  14
   2   2   3 4107.92 181.206  12
   2  -2   3 4071.30 169.133   6
  -2   2  -3 4166.83 171.074  11
  -2  -2  -3 4107.49 182.970   5
   2   2   3 4206.23 125.498  10
  -2   2  -3 4133.89 102.614  10
   2  -2   3 4103.71 102.966   8
  -2  -2  -3 4233.73 125.149   8
  -2   2  -3 4147.36 163.791   4
   2  -2   3 3994.10 186.900   2
  -2  -2  -3 4289.14 201.719   4
   2   2   4 2624.96 150.086  12
   2  -2   4 2693.76 166.817  16
  -2  -2  -4 2556.63 106.174   7
  -2   2  -4 2741.31 164.255  15
   2  -2   4 2564.80 160.410   3
  -2   2  -4 2699.29 165.452  14
   2   2   4 2715.89 160.350  16
   2   2   4 2701.84 169.117  13
  -2  -2  -4 2729.25 162.510   1
  -2  -2  -4 2594.01 154.871  15
  -2  -2  -4 2646.35 150.285   5
  -2  -2  -4 2648.52 122.841  14
   2   2   4 2602.27 108.966   9
   2  -2   4 2701.88 164.411   2
   2  -2   4 2574.00 84.1394   8
  -2   2  -4 2713.77 169.804   1
  -2  -2  -4 2615.18 166.643   4
   2   2   4 2758.05 159.667   2
   2   2   4 2830.89 137.099   3
   2   2   5 370.067 65.0597  16
  -2  -2  -5 379.021 65.3046   1
  -2  -2  -5 380.510 69.5326   4
  -2  -2  -5 344.943 47.5856  14
   2  -2   5 268.966 66.8406   2
  -2   2  -5 384.590 74.1228  15
  -2  -2  -5 330.267 58.5685  15
   2  -2   5 398.051 84.9608  16
  -2  -2  -5 350.370 41.4152   7
   2   2   5 308.448 64.6334  13
  -2   2  -5 323.830 68.1692   1
   2   2   5 356.351 63.2155   2
  -2  -2  -5 351.964 58.2033   5
   2   2   6 649.749 84.9934  16
  -2  -2  -6 675.112 86.9885  15
  -2  -2  -6 772.701 76.2568  14
   2   2   6 643.835 87.5438  13
  -2  -2  -6 717.562 62.5944   7
   2   2   6 777.064 112.063   2
  -2  -2  -6 727.036 104.598   1
  -2  -2  -6 745.476 98.6318   4
   2   2   7 442.975 75.3884  16
  -2  -2  -7 1033.99 108.732  15
  -2   3   1 3575.12 169.468   1
   2  -3  -1 3050.41 152.703   7
  -2   3   1 3693.53 197.868  14
   2  -3  -1 3717.21 190.887   6
   2  -3  -1 3671.76 188.825   3
   2  -3  -1 3257.41 155.975   2
   2  -3   0 482.268 61.1214  16
  -2   3   0 486.595 69.1089  14
  -2   3   0 449.514 55.9073   1
   2  -3   0 443.071 60.9869   6
   2  -3   0 440.491 64.5505   3
   2  -3   0 467.323 56.9694   2
   2  -3   0 414.264 47.4097   7
  -2   3   0 434.552 63.6728  11
  -2   3   0 426.193 56.2948  15
  -2   3   0 492.248 40.7032   4
  -2   3  -1 99.2017 16.4983   4
   2   3   1 128.888 44.0675  13
  -2  -3  -1 102.798 30.0036   4
  -2   3  -1 76.3186 21.9953  14
   2  -3   1 93.5971 24.8921  16
   2  -3   1 119.936 25.8633   7
  -2   3  -1 67.0489 22.5573  15
   2  -3   1 102.487 30.9953   6
  -2  -3  -1 66.8466 19.2731   1
  -2   3  -1 88.1654 27.1712  11
   2  -3   1 101.892 26.0027   2
  -2   3  -1 89.0778 22.3043  10
   2  -3   1 80.3842 25.3272   3
   2   3   1 111.431 31.7414   2
  -2  -3  -1 93.6970 30.3253   5
  -2   3  -1 102.230 28.9493   1
   2  -3   1 103.725 21.9942   8
   2  -3   2 590.319 71.3284  16
   2   3   2 588.944 66.4561   2
  -2   3  -2 612.403 74.5091   1
  -2   3  -2 546.203 75.4056  14
   2   3   2 619.663 70.3663  16
  -2  -3  -2 577.249 67.5954  15
  -2  -3  -2 513.002 66.2030   1
   2  -3   2 569.249 73.7910   6
   2  -3   2 555.353 50.2361  13
   2  -3   2 497.252 69.0140   3
   2   3   2 530.049 45.2205   3
   2  -3   2 551.499 52.7881   7
   2   3   2 524.050 30.9112   6
   2   3   2 553.250 73.2903  12
  -2   3  -2 570.679 68.4252  11
  -2  -3  -2 498.745 70.0631   5
  -2   3  -2 596.372 70.7355  15
  -2   3  -2 536.697 49.8826  10
   2   3   2 523.814 72.2696  13
  -2   3  -2 606.958 57.7410   9
   2  -3   2 561.215 52.1226   8
  -2   3  -2 565.269 53.8320   4
  -2  -3  -2 517.534 57.0753   8
   2  -3   2 534.854 64.6394   2
  -2  -3  -2 519.256 73.1661   4
   2  -3   3 30.6868 13.7477   8
  -2  -3  -3-7.84259 16.2127   8
   2  -3   3-2.48726 19.3080  16
  -2   3  -3 37.4634 25.8743  15
  -2   3  -3 34.8447 27.1879   1
  -2  -3  -3 33.7017 28.3416  15
  -2  -3  -3 12.0061 14.8010   4
  -2  -3  -3 5.75389 16.4211   7
  -2   3  -3 27.6836 17.6035  14
   2  -3   3-17.9208 26.1015   2
   2  -3   3 34.7240 16.3084  13
   2   3   3 43.9634 24.7480  13
   2  -3   3 20.4990 16.6541   6
   2   3   3 43.7707 23.2498  12
   2   3   3 17.8796 11.1879   3
   2  -3   3 16.8445 17.9565   3
  -2  -3  -3 44.7118 27.3030   1
   2   3   3 29.8316 20.9893   2
   2   3   3 37.9949 17.2579  16
  -2  -3  -3 37.9566 28.1303   5
   2  -3   4 1856.93 144.688  16
  -2  -3  -4 1789.95 107.801   7
  -2  -3  -4 1910.58 132.721  15
  -2   3  -4 1938.44 144.185  15
  -2  -3  -4 1960.67 94.3340  14
  -2  -3  -4 1820.14 133.302   1
  -2  -3  -4 1861.80 138.797   5
   2   3   4 1919.68 106.102  10
   2  -3   4 1581.89 186.668   6
   2  -3   4 1814.51 143.610   3
   2  -3   4 2223.80 165.472   2
  -2  -3  -4 1811.46 102.574   8
  -2   3  -4 1958.16 154.861   1
   2  -3   4 1924.25 97.4423   8
   2   3   4 1943.97 133.166  16
  -2  -3  -4 1820.96 145.326   4
   2   3   4 1861.59 131.789   2
  -2  -3  -5 153.426 48.4231   1
   2  -3   5 102.848 66.0373  16
  -2   3  -5 140.252 51.0117  15
  -2  -3  -5 147.404 47.5304   4
  -2  -3  -5 162.674 30.0035  14
   2   3   5 190.697 48.2586   2
   2   3   5 72.7032 47.3812  13
  -2  -3  -5 180.626 39.0774   7
  -2  -3  -5 156.299 44.9062  15
   2   3   5 17.4309 49.1764  12
   2   3   5 149.915 42.2328  16
  -2  -3  -5 83.2281 34.6147   5
   2   3   5 15.0123 32.2913   9
  -2  -3  -6 183.622 49.9987   4
   2   3   6 154.579 37.0098  16
   2   3   6 231.408 60.5181   2
  -2  -3  -6 207.340 53.2802  15
  -2  -3  -6 200.240 34.7589  14
   2   3   6 25.5475 56.8244  13
  -2  -3  -6 158.476 56.5579   1
  -2  -3  -6 177.913 36.2141   7
  -2  -3  -6 208.136 57.1331   5
  -2  -3  -7 630.784 114.194  15
  -2  -3  -7 802.785 77.7538  14
   2   3   7 120.149 90.4917  13
   2   3   7 128.847 87.9669  16
  -2  -3  -7 789.255 108.995   4
  -2  -3  -7 749.245 76.1255   7
   2  -4  -2 335.639 77.5545   6
   2  -4  -1 207.744 42.0172   7
  -2   4   1 214.613 48.1641  14
   2  -4  -1 186.275 45.1532   6
  -2   4   1 192.717 47.1781  11
  -2   4   1 205.800 41.6110   1
   2  -4  -1 188.375 37.2632   2
   2  -4  -1 196.616 41.6548   3
  -2   4   1 219.252 22.0309   4
   2  -4   0 1619.28 104.702   2
   2  -4   0 1677.45 114.462  16
   2  -4   0 1583.88 105.749   7
  -2   4   0 1663.16 107.805   1
  -2   4   0 1550.52 121.102  14
   2  -4   0 1567.49 124.436   6
   2  -4   0 1531.00 121.488   3
  -2   4   0 1680.65 113.158  15
  -2   4   0 1589.32 64.5729  12
  -2   4   0 1563.53 125.090  11
  -2   4   0 1690.33 115.677  10
   2  -4   0 1667.21 114.690   8
  -2   4   0 1530.91 55.3317   4
   2  -4   1 28.5971 24.2975  16
  -2   4  -1 21.5451 22.8053  15
   2  -4   1 35.3647 22.2163   6
  -2   4  -1 2.37790 15.2897   1
   2  -4   1 23.9203 13.9206   2
  -2   4  -1 17.6926 18.4931  11
   2  -4   1 10.0923 14.4530   7
  -2   4  -1 8.34561 13.7500  10
   2  -4   1 17.3225 18.7797   3
  -2   4  -1-0.68563 12.5218   9
  -2  -4  -1-45.7839 34.9215   4
  -2   4  -1 19.5276 23.8604  14
  -2  -4  -1 22.3461 22.7227   5
  -2  -4  -1 16.9740 14.9755   1
   2  -4   1 20.8661 17.2059   8
   2  -4   2 64.7881 19.7392   8
  -2  -4  -2 36.8378 15.4357   1
  -2  -4  -2 63.5070 25.7546   8
   2  -4   2 72.2012 30.9952  16
   2  -4   2 67.4241 22.7293   7
  -2  -4  -2 80.3809 28.5869   4
  -2   4  -2 71.3063 14.7327   1
   2  -4   2 42.6336 20.3311   3
   2  -4   2 67.3894 29.3082   2
   2  -4   2 81.1439 17.7631  13
   2  -4   2 105.283 35.2693   6
   2   4   2 29.1719 42.4621  13
  -2   4  -2 119.536 30.2864  15
  -2   4  -2 64.1606 19.9522  11
  -2   4  -2 45.7384 33.3059  14
   2   4   2 3.10582 23.3105  12
  -2   4  -2 68.0002 21.9556  10
   2   4   2 68.2607 24.3958   2
   2   4   2 83.8811 17.1911   3
  -2   4  -2 48.3288 14.1692   9
  -2  -4  -2 98.7444 40.0195   5
   2   4   3 540.511 63.2326   2
   2  -4   3 576.843 74.4949  16
   2   4   3 146.641 67.9486  16
  -2   4  -3 582.911 73.5012  15
  -2  -4  -3 537.774 73.6314  15
  -2   4  -3 648.819 85.7978  14
   2  -4   3 611.948 83.5728   6
   2  -4   3 581.473 52.2838  13
   2   4   3 180.048 83.0951  13
  -2  -4  -3 619.964 75.8868   1
   2   4   3 133.666 81.5942  12
  -2  -4  -3 554.665 83.7249   7
   2  -4   3 551.742 76.8639   3
  -2  -4  -3 555.822 82.6739   5
   2  -4   3 695.428 88.6356   2
  -2  -4  -3 570.243 69.3415   8
   2  -4   3 600.449 63.1405   8
  -2   4  -3 607.494 81.4704   1
  -2  -4  -3 570.807 82.6345   4
   2  -4   4 2884.52 185.286  16
  -2  -4  -4 2756.09 154.027   7
  -2   4  -4 3027.74 182.256  15
  -2   4  -4 2988.87 200.579  14
  -2  -4  -4 2766.05 163.826   1
   2  -4   4 2836.91 196.502   3
  -2  -4  -4 2790.60 186.697   5
   2  -4   4 2615.82 247.716   6
   2   4   4 2734.19 143.649  10
  -2  -4  -4 2644.41 147.144   8
   2  -4   4 2884.81 146.278   8
   2   4   4 2786.57 157.355   2
  -2  -4  -4 2696.28 182.742   4
  -2  -4  -5 30.0224 21.2279  15
  -2  -4  -5 48.7320 25.5006   4
  -2  -4  -5 23.5186 15.2627   7
   2   4   5 71.4131 39.2072   2
   2   4   5 6.22109 19.9765  12
   2   4   5-2.13385 22.9697  13
   2   4   5-12.8614 18.7662  16
   2   4   5 44.4138 16.6518  10
  -2  -4  -5-1.68583 24.6713   5
   2   4   5 10.8513 23.5387   9
  -2  -4  -5-38.6378 31.2812   1
  -2  -4  -5 29.2060 34.3308   8
  -2  -4  -6 228.891 64.5865   4
   2   4   6 157.888 45.8494   2
  -2  -4  -6 71.0983 51.3477  15
   2   4   6 5.73701 43.3460  13
  -2  -4  -6 139.026 35.5317   7
  -2  -4  -6 104.804 42.9229   1
   2   4   6 15.0582 41.6754  16
   2   4   6 3.54889 46.2119  12
  -2  -4  -6 151.826 52.8781   5
   2   4   6 4.55614 38.6589   9
  -2  -4  -7 271.644 67.3744   4
  -2  -4  -7 185.224 80.8330  15
  -2  -4  -7 258.959 47.1131   7
   2   4   7 28.1438 59.7265  16
   2   4   7 39.6322 74.5292  13
  -2  -4  -7 257.075 67.5597   5
   2  -5  -2 4222.79 173.707   2
   2  -5  -2 4329.61 219.519   7
  -2   5   2 4206.19 172.114   1
   2  -5  -2 4374.70 236.725   6
   2  -5  -2 4404.63 226.141   3
   2  -5  -1 66.7391 24.7780   7
  -2   5   1 54.5950 31.8087  14
  -2   5   1 79.9383 29.0529   1
   2  -5  -1 98.6517 34.8531   6
  -2   5   1 71.7713 34.3985  11
   2  -5  -1 86.4587 23.6110   2
  -2   5   1 80.5277 35.7640  10
   2  -5  -1 83.3844 30.1571   3
   2  -5  -1 108.583 33.8458   8
   2  -5   0 4905.59 202.896  16
  -2   5   0 4918.38 186.823   1
  -2   5   0 4888.55 194.819  15
  -2   5   0 4930.21 230.265  14
   2  -5   0 4977.87 240.383   6
   2  -5   0 4882.94 213.578   7
   2  -5   0 4762.83 225.419   3
  -2   5   0 5075.10 142.695  12
  -2   5   0 4742.24 236.832  11
  -2   5   0 4908.54 214.652  10
   2  -5   0 4746.22 209.964   8
   2  -5   0 4903.96 186.304   2
   2  -5   1 1475.71 137.034   6
   2  -5   1 1333.95 103.806  16
   2  -5   1 1401.57 114.822   7
  -2   5  -1 1454.31 129.267  14
  -2   5  -1 1427.77 131.413  11
  -2   5  -1 1391.27 112.498  15
   2  -5   1 1470.17 129.635   3
  -2   5  -1 1325.69 108.687  10
  -2   5  -1 1422.19 112.999   9
   2  -5   1 1369.48 111.080   8
   2  -5   1 1381.59 103.801   2
  -2   5  -1 1381.21 104.672   1
   2  -5   2 144.127 36.2497   8
  -2  -5  -2 133.458 40.2660   8
   2  -5   2 121.283 36.3483   7
  -2   5  -2 156.886 33.8717  15
   2  -5   2 137.816 39.8723   2
  -2  -5  -2 104.031 33.4294   4
  -2   5  -2 119.149 35.3573  14
   2  -5   2 132.139 39.4637  16
   2  -5   2 149.125 48.3351   6
   2   5   2 39.1169 52.2949  13
  -2   5  -2 138.619 43.0474  11
   2  -5   2 81.3480 38.8305   3
  -2  -5  -2 118.070 32.3130   1
  -2   5  -2 112.450 30.6694  10
  -2   5  -2 165.606 41.5189   1
   2   5   2 133.053 36.0997   2
  -2   5  -2 139.077 38.9686   9
  -2  -5  -2 145.736 43.8102   5
   2  -5   3 502.278 71.8181  16
  -2  -5  -3 435.011 85.6422   7
  -2  -5  -3 497.305 67.9613   1
  -2   5  -3 483.631 68.0970  15
  -2  -5  -3 512.427 82.6988   4
  -2   5  -3 480.281 76.6309  14
   2  -5   3 528.002 44.7841  13
   2  -5   3 472.874 83.6306   6
   2   5   3 64.8612 75.8166  12
   2  -5   3 440.260 76.0227   3
   2   5   3 511.543 64.7498   2
   2   5   3 60.6085 81.2561   9
  -2  -5  -3 469.547 83.2242   5
   2   5   3 103.381 88.8316  13
  -2  -5  -3 427.976 70.0901   8
   2  -5   3 592.535 74.5806   8
   2  -5   4 11.2265 16.8125   8
   2  -5   4-18.4841 31.9180  16
   2   5   4-2.39199 26.4392  16
  -2  -5  -4-22.4744 23.4282   7
  -2  -5  -4 24.7773 27.7679  15
  -2   5  -4-16.3278 36.1088  14
   2  -5   4 57.9737 48.5369   6
   2   5   4-14.7471 18.8550  13
   2  -5   4 1.73388 29.6805   3
   2   5   4 31.0644 24.6975   2
  -2  -5  -4 3.57608 21.0296   1
   2   5   4 0.12109 25.4861  12
  -2   5  -4-2.00160 27.0705  15
  -2  -5  -4-5.06715 27.5325   4
   2   5   4-10.0236 22.4119  10
  -2  -5  -4-4.14299 26.3542   5
   2   5   4-4.56955 34.5372   9
  -2  -5  -4 4.21485 17.4782   8
  -2  -5  -5 370.086 107.959   4
  -2  -5  -5 433.977 118.106   5
  -2  -5  -5 368.109 91.1890   1
  -2  -5  -6 1452.30 152.821   5
  -2  -5  -6 1613.79 138.122   7
  -2  -5  -6 1511.21 153.744   4
  -2  -5  -7 20.4238 37.1791   4
   2   5   7 3.71692 23.4881  16
  -2  -5  -7 1.57579 20.8437   7
   2   5   7 25.9305 51.2959  12
  -2  -5  -7 50.5768 47.5611   5
   2   5   7-1.99429 40.8086  13
   2   5   7-1.13355 22.6904   9
  -2  -5  -7-15.7300 33.3071  15
   2   5   8 10.6994 22.5097  13
   2   5   8-2.77091 40.4095  12
   2  -6  -3 22.1254 28.8094   6
   2  -6  -2 954.507 77.5935   2
  -2   6   2 1006.52 79.6782   1
   2  -6  -2 1037.89 116.997   6
   2  -6  -2 989.360 104.239   3
  -2   6   2 967.583 117.247  11
  -2   6   2 669.447 92.9261  10
   2  -6  -2 958.476 105.094   7
   2  -6  -2 783.020 103.983   8
   2  -6  -1 500.724 76.7251   7
  -2   6   1 547.578 61.8755   1
  -2   6   1 494.016 80.3384  14
  -2   6   1 532.763 60.6883  12
   2  -6  -1 487.023 82.2691   6
  -2   6   1 561.962 94.1874  11
  -2   6   1 583.759 89.7714  10
   2  -6  -1 516.454 72.3367   3
   2  -6  -1 491.505 61.1603   2
   2  -6  -1 487.634 73.5549   8
   2  -6   0 166.490 50.5089   7
  -2   6   0 137.244 40.6860  14
   2  -6   0 132.560 34.2685   2
  -2   6   0 156.597 34.9546   1
   2  -6   0 116.319 32.3569   6
  -2   6   0 163.160 32.9606  12
  -2   6   0 139.926 41.9544  11
  -2   6   0 189.122 51.1779  10
   2  -6   0 197.857 58.0322   3
  -2   6   0 140.978 48.2151   9
   2  -6   0 194.677 48.6436   8
   2  -6   1 176.164 38.1451   2
   2  -6   1 149.140 48.9354   7
  -2   6  -1 120.231 27.7235  15
  -2   6  -1 171.817 47.2433  14
   2  -6   1 180.288 52.8043   6
   2  -6   1 168.520 43.8724  16
  -2   6  -1 127.728 42.6168  11
  -2   6  -1 156.885 34.7753   1
   2  -6   1 145.121 47.1350   3
  -2   6  -1 177.848 49.0162  10
  -2   6  -1 178.161 50.5591   9
   2  -6   1 169.187 49.6723   8
   2  -6   2 40.3650 29.9936   8
  -2  -6  -2 52.0504 35.3485   8
   2  -6   2 40.0027 27.9592  16
   2  -6   2-7.60086 31.7571   7
  -2   6  -2 20.4482 18.8153  15
  -2  -6  -2 29.6375 24.4788   4
  -2   6  -2-0.11414 27.3142  14
   2  -6   2 13.3652 27.2991   6
  -2  -6  -2 86.9966 39.2623   1
   2  -6   2 61.8618 37.2517   3
  -2   6  -2-10.9102 36.0545  11
  -2   6  -2 6.23641 25.7875  10
   2   6   2 35.0574 25.5531   2
  -2   6  -2 45.0380 30.0439   9
  -2  -6  -2 24.4279 31.4946   5
  -2  -6  -3 15.3269 24.2779   8
   2  -6   3 27.9986 19.5484   8
   2  -6   3 44.0428 35.6552  16
  -2  -6  -3 6.13241 24.9891   7
  -2  -6  -3 17.3637 23.5221   1
  -2   6  -3 17.9837 22.7427  15
  -2   6  -3-5.62481 30.8593  14
  -2  -6  -3 9.37086 23.0164   4
   2  -6   3 47.1944 35.8557   6
   2   6   3-6.35687 29.9198  13
   2  -6   3 16.7210 24.1720   3
   2   6   3 8.37762 37.9730  12
   2   6   3 22.9482 20.4900   2
  -2  -6  -3-16.4368 25.4050   5
  -2  -6  -4 82.8081 44.0068   8
   2  -6   4 115.089 70.1511   8
  -2  -6  -4 61.8439 26.1501   4
   2  -6   4-24.9424 56.7575  16
  -2  -6  -4 176.162 51.9937   7
  -2   6  -4 89.8378 49.7600  15
  -2   6  -4 154.530 56.7571  14
   2   6   4 13.1498 57.9096  13
   2   6   4 24.4255 52.3640  12
   2   6   4 107.338 36.0232   2
   2   6   4 85.2672 32.1083  10
  -2  -6  -4 87.4807 47.6681   5
   2   6   4 2.18673 46.3129   9
  -2  -6  -4 73.3537 32.7331   1
  -2  -6  -5 714.382 99.5225   7
  -2  -6  -5 619.409 91.8141  15
  -2  -6  -5 648.447 98.9581   4
   2   6   5 77.2994 102.838  13
   2   6   5 94.2076 111.693  12
   2   6   5 806.620 93.1587  10
   2   6   5 62.0287 98.4853   9
  -2  -6  -5 690.079 104.890   5
   2   6   5 849.983 103.274   2
  -2  -6  -5 546.942 100.828   8
  -2  -6  -5 1069.32 123.539   1
  -2  -6  -6 1643.94 150.654   7
  -2  -6  -6 1621.00 166.367   5
   2   6   6 1733.69 149.953  10
  -2  -6  -6 1745.17 175.049   4
  -2  -6  -7 49.3660 48.5717   4
  -2  -6  -7 30.5898 34.3049  15
   2   6   7 3.80257 30.0567  13
   2   6   7 3.41853 31.2774  12
  -2  -6  -7-25.5971 44.0314   5
  -2  -6  -7 21.6725 23.7805   7
   2   6   7-1.20314 26.1508   9
   2   6   8 18.9299 87.8968  13
   2   6   8 28.5552 99.1358  12
   2  -7  -3 9.36355 32.8897   7
   2  -7  -3-7.87640 36.7865   6
   2  -7  -3 31.4443 34.9816   3
   2  -7  -2 157.921 52.1505   7
   2  -7  -2 194.774 53.8331   6
  -2   7   2 194.244 49.3227  12
  -2   7   2 178.993 54.3940  11
  -2   7   2 255.486 70.5373  10
   2  -7  -2 276.920 63.6282   3
   2  -7  -2 200.381 52.2773   8
   2  -7  -1 909.168 113.950   7
  -2   7   1 960.195 115.954  14
   2  -7  -1 1009.88 124.552   6
   2  -7  -1 962.044 109.318   3
  -2   7   1 991.482 126.248  11
  -2   7   1 1072.66 128.333  10
  -2   7   1 890.271 115.035   9
   2  -7  -1 922.403 113.492   8
   2  -7   0 26.4950 38.5964   7
  -2   7   0 60.9786 33.3315  14
   2  -7   0 8.45275 29.2109   6
  -2   7   0 60.2649 30.1563  11
   2  -7   0 29.6762 35.2296   3
  -2   7   0 38.5192 31.4021  10
  -2   7   0 55.4075 42.1131   9
   2  -7   0 59.0255 34.5442   8
   2  -7   1 408.771 65.3278  16
   2  -7   1 328.477 64.1343   7
  -2   7  -1 337.145 69.0617  14
   2  -7   1 326.071 70.3398   6
  -2   7  -1 331.264 71.5940  11
   2  -7   1 394.188 73.8594   3
  -2   7  -1 380.177 71.7194  10
  -2   7  -1 357.645 75.2622   9
   2  -7   1 370.676 69.4158   8
   2  -7   2 4.20589 19.5898   8
  -2  -7  -2 16.9759 42.1790   8
  -2  -7  -2 118.698 68.3772   4
   2  -7   2-46.9808 27.3319  16
  -2   7  -2-24.7598 31.5544  15
   2  -7   2 4.09910 24.8330   7
  -2   7  -2-44.5894 35.8760  14
   2  -7   2-7.24424 38.0702   6
   2  -7   2-33.4643 45.6023   3
  -2   7  -2 59.4731 30.6965  11
  -2   7  -2 29.7809 38.0611  10
  -2  -7  -2-0.70077 36.8319   5
  -2   7  -2 26.7956 22.0561   9
   2  -7   3 1337.98 147.961  16
  -2   7  -3 1167.27 115.599  15
  -2   7  -3 1306.36 143.841  14
   2  -7   3 1348.52 175.268   6
   2  -7   3 921.687 148.797   3
  -2   7  -3 1257.19 148.229  11
  -2  -7  -3 1346.95 161.153   5
  -2  -7  -3 1108.04 139.567   8
   2  -7   3 953.042 127.638   8
  -2  -7  -3 1290.68 152.072   4
  -2  -7  -4-46.5477 34.5998   8
  -2  -7  -4 22.4129 39.8445   7
  -2  -7  -4-14.1800 38.7616   4
   2   7   4-125.787 49.7855  13
   2   7   4 14.8448 28.9180  12
   2   7   4-52.1187 31.6916  10
  -2  -7  -4-55.9821 53.2602   5
   2   7   4 3.17270 42.5087   9
  -2  -7  -5 632.569 102.923   4
  -2  -7  -5 734.455 108.407   7
   2   7   5 48.7990 98.9334  13
   2   7   5 162.892 119.316  12
  -2  -7  -5 787.844 124.964   5
   2   7   5 835.313 108.547  10
   2   7   5 91.7466 122.432   9
  -2  -7  -5 764.146 108.270   8
  -2  -7  -6 280.813 76.6640   4
  -2  -7  -6 247.725 74.3067   7
   2   7   6 27.4462 81.1862  13
   2   7   6 41.7167 90.9033  12
   2   7   6 295.638 71.8180  10
  -2  -7  -6 301.452 77.7417   5
   2   7   6 27.9069 69.6230   9
  -2  -7  -6 266.120 73.1884   8
  -2  -7  -7 313.543 74.7307   4
  -2  -7  -7 257.104 64.8660   7
   2   7   7 64.0532 86.6769  13
   2   7   7 29.9875 74.9780  12
  -2  -7  -7 358.589 92.2637   5
   2   7   7 14.7146 55.1244   9
   2   7   8 7.79088 32.4117  13
   2   7   8 47.8437 62.6977  12
   2  -8  -3-35.4270 37.2629   7
  -2   8   3-27.3951 19.1109  12
   2  -8  -3-24.7722 39.4996   6
   2  -8  -3-58.2744 50.9240   3
   2  -8  -3-7.72023 21.9191   8
   2  -8  -2 19.3487 42.8143   7
   2  -8  -2 68.4119 43.0641   6
  -2   8   2 31.3498 41.9833  11
   2  -8  -2-3.58743 29.6464   3
  -2   8   2-26.4668 36.0084  10
  -2   8   2-50.1122 41.4966   9
   2  -8  -2 9.73774 42.4780   8
   2  -8  -1 93.6209 47.7091   7
  -2   8   1 76.5750 43.0673  14
   2  -8  -1 50.5415 32.5244   6
  -2   8   1 87.2760 38.1965  11
   2  -8  -1 84.0124 41.9739   3
  -2   8   1 87.0852 54.8044  10
  -2   8   1 55.9487 31.8593   9
   2  -8  -1 23.2490 34.9021   8
   2  -8   0 33.3280 26.3020   7
  -2   8   0 68.6483 35.3602  14
   2  -8   0 54.1372 34.6858   6
  -2   8   0 36.7826 28.4948  11
   2  -8   0 65.6639 42.6039   3
  -2   8   0 126.342 55.5302  10
  -2   8   0 15.1142 33.5230   9
   2  -8   0 67.2429 30.8074   8
   2  -8   1-4.13259 47.2494   7
  -2   8  -1-64.6479 57.5049  14
   2  -8   1-42.9535 33.9487   6
   2  -8   1-15.2173 41.6407   3
  -2   8  -1 2.26974 33.8635  11
  -2   8  -1 8.85590 24.4596  10
  -2   8  -1 42.4938 28.5441   9
   2  -8   1 26.8374 24.4766   8
   2  -8   2 140.437 64.9766   8
  -2   8  -2 248.493 80.2906  14
   2  -8   2 188.255 64.1700   6
   2  -8   2 149.691 68.7533   3
  -2   8  -2 131.334 33.5423  11
  -2   8  -2 182.923 56.1080  10
  -2   8  -3 1214.56 150.676  14
   2  -8   3 1438.97 232.675   6
  -2   8  -3 1476.31 187.563  11
  -2  -8  -3 1745.52 209.574   5
  -2  -8  -3 1410.16 186.576   8
  -2  -8  -3 1861.85 203.188   4
  -2  -8  -4 30.5911 56.2256   8
  -2  -8  -4 147.183 78.9701   7
  -2  -8  -4 54.6449 34.5269   4
   2   8   4 12.1701 60.0552  13
   2   8   4 18.9572 64.1600  12
   2   8   4 53.3040 37.3126  10
  -2  -8  -4 89.7164 46.7443   5
   2   8   4-1.70087 33.8798   9
  -2  -8  -5 65.1693 44.1157   4
  -2  -8  -5 74.8195 55.8131   7
   2   8   5 24.5492 48.4763  13
   2   8   5 17.8794 44.8748  12
   2   8   5 44.2826 30.5354  10
  -2  -8  -5 68.8664 47.9842   5
   2   8   5 7.87965 60.6229   9
  -2  -8  -5 29.5022 46.5148   8
  -2  -8  -6 20.7836 33.5335   4
  -2  -8  -6-43.8214 45.2368   7
   2   8   6-0.68987 30.3812  13
   2   8   6 0.75536 37.9194  12
   2   8   6-54.8481 48.0393  10
  -2  -8  -6-64.0188 47.2447   5
   2   8   6-77.6693 44.7551   9
  -2  -8  -6-5.22023 33.4783   8
  -2  -8  -7 890.553 145.190   4
   2   8   7 131.034 129.323  13
   2   8   7 103.871 140.409  12
  -2  -8  -7 769.807 137.913   5
  -2  -8  -7 751.295 122.049   7
   2   8   7 16.7378 84.8866   9
  -2  -8  -7 338.646 102.530   8
   2   8   8 22.0142 31.1767  13
   2   8   8-1.56280 36.7025  12
  -2  -8  -8 101.816 73.6892   5
   2  -9  -3 35.1822 38.5154   7
   2  -9  -3 8.17845 61.5283   6
   2  -9  -3 34.7794 46.4482   3
  -2   9   3 43.2813 64.9829  10
  -2   9   3-86.2119 56.9967   9
   2  -9  -3-9.12922 34.6079   8
   2  -9  -2 1175.36 156.252   7
   2  -9  -2 1066.91 154.029   6
   2  -9  -2 994.769 127.940   3
  -2   9   2 940.355 141.793  11
  -2   9   2 973.460 150.708  10
  -2   9   2 983.490 144.855   9
   2  -9  -2 983.080 141.603   8
   2  -9  -1 13.5467 28.2013   7
  -2   9   1 56.8348 39.2105  14
   2  -9  -1 3.46126 27.8002   6
   2  -9  -1 94.8253 55.8081   3
  -2   9   1 55.1017 34.1098  11
  -2   9   1-8.46398 36.9742  10
  -2   9   1 99.9110 52.6339   9
   2  -9  -1 46.8562 49.6918   8
   2  -9   0 124.283 67.3201   7
  -2   9   0 8.59366 44.8306  14
   2  -9   0 37.1858 34.5171   6
   2  -9   0 80.3372 49.0504   3
  -2   9   0 75.4054 64.3278  11
  -2   9   0 64.5140 33.0157  10
  -2   9   0 20.9382 38.4083   9
   2  -9   0 80.7838 50.7953   8
   2  -9   1 87.5597 49.9343   7
  -2   9  -1 37.1725 42.8551  14
   2  -9   1 31.2991 37.9495   6
   2  -9   1 21.7384 41.4274   3
  -2   9  -1 14.4058 39.3170  11
  -2   9  -1 78.8089 64.2131  10
  -2   9  -1 72.3218 44.8067   9
   2  -9   1 58.6884 34.3245   8
   2  -9   2 48.2960 54.6431   8
  -2   9  -2 46.1718 55.6383  14
  -2   9  -2 129.626 65.7504  11
  -2   9  -2 14.4936 33.9760  10
   2  -9   2 149.180 61.4695   6
  -2  -9  -3 139.813 81.0931   8
  -2  -9  -3 9.27779 64.7710   4
   2   9   3 43.5883 31.7116  10
  -2  -9  -3 37.0513 70.0858   5
  -2  -9  -4-39.2785 64.8974   4
   2   9   4-4.49015 43.2402  10
  -2  -9  -4 11.2031 47.6387   5
  -2  -9  -4 56.5334 41.3692   8
  -2  -9  -5-0.79096 45.7928   4
  -2  -9  -5 35.5449 44.5346   7
   2   9   5-19.5957 53.9737  13
   2   9   5 0.81292 43.0714  12
   2   9   5 3.90781 33.6507  10
  -2  -9  -5 72.2546 60.7069   5
   2   9   5 1.54025 62.9098   9
  -2  -9  -5 33.1804 47.5217   8
  -2  -9  -6 238.300 90.2300   4
  -2  -9  -6 100.190 43.1572   7
   2   9   6 23.9927 75.6845  13
   2   9   6 21.4265 54.8578  12
   2   9   6 58.3490 56.6095  10
  -2  -9  -6 17.2278 48.3386   5
   2   9   6 3.29315 32.5629   9
  -2  -9  -6 60.6294 39.8298   8
  -2  -9  -7 340.309 92.7820   4
  -2  -9  -7 207.433 74.3785   7
   2   9   7 19.8019 68.8717  13
   2   9   7 89.3525 105.617  12
  -2  -9  -7 374.405 109.423   5
   2   9   7 11.8513 63.8774   9
  -2  -9  -7 123.959 76.9597   8
   2   9   8 32.0360 49.6788  12
  -2  -9  -8-92.4744 86.9824   5
   2 -10  -3 121.402 76.7889   7
   2 -10  -3 28.5520 46.1618   6
  -2  10   3 60.5184 56.4555  10
  -2  10   3-18.0157 44.0530   9
   2 -10  -3 98.5925 66.0724   8
   2 -10  -2 482.560 114.907   7
   2 -10  -2 461.232 108.991   6
  -2  10   2 348.849 93.1385  11
  -2  10   2 399.760 102.942  10
  -2  10   2 444.011 106.002   9
   2 -10  -2 540.452 106.928   8
   2 -10  -1 3.36348 38.8025   7
   2 -10  -1 77.6462 54.7194   6
   2 -10  -1 13.7125 34.3605   3
  -2  10   1 96.1289 54.3681  11
  -2  10   1 19.0373 49.2361  10
  -2  10   1 23.9964 47.8278   9
   2 -10  -1 56.3178 38.5875   8
   2 -10   0-148.103 75.8243   7
  -2  10   0-10.8550 50.4115  14
   2 -10   0 57.3937 53.3163   6
  -2  10   0 30.7731 40.0891  11
  -2  10   0 63.4326 60.6935  10
  -2  10   0-3.91307 33.2063   9
   2 -10   0 10.5395 36.5092   8
   2 -10   1 697.523 163.728   7
  -2  10  -1 645.752 116.191  14
   2 -10   1 880.833 158.666   6
  -2  10  -1 756.479 141.256  11
  -2  10  -1 645.963 129.037  10
   2 -10   1 534.531 121.940   8
   2 -10   2-75.7915 116.319   6
  -2  10  -2 49.9372 43.9468  11
   2  10   4-34.5810 46.3888  10
  -2 -10  -4 28.0591 62.3557   5
  -2 -10  -4 12.1203 71.1962   8
  -2 -10  -5 44.5963 55.3971   4
   2  10   5 24.9983 46.6751  10
  -2 -10  -5 9.92745 46.8585   5
  -2 -10  -5 38.5319 46.9911   8
  -2 -10  -6-31.2830 71.7711   4
  -2 -10  -6 19.3760 73.7613   7
   2  10   6-58.9646 51.9948  13
   2  10   6 21.5447 53.1140  12
   2  10   6-4.89552 65.0615  10
  -2 -10  -6 20.1408 51.0156   5
   2  10   6-1.01605 63.1100   9
  -2 -10  -6-56.0057 51.4570   8
   2 -11  -3 112.635 71.4415   7
   2 -11  -3 15.5804 53.0123   6
  -2  11   3 88.1349 55.7529   9
   2 -11  -3 11.5185 41.9023   8
   2 -11  -2-69.8659 71.7309   6
   2 -11  -2-84.3698 76.9429   7
  -2  11   2 139.698 71.8132  11
  -2  11   2-50.1653 43.0959  10
  -2  11   2 22.2316 60.6444   9
   2 -11  -2-57.8645 64.1845   8
   2 -11  -1 199.668 78.6942   7
   2 -11  -1 190.620 81.8558   6
  -2  11   1 198.789 85.4245  11
  -2  11   1 182.477 61.3488  10
  -2  11   1 276.585 100.354   9
   2 -11  -1 173.697 68.8998   8
   2 -11   0 34.3691 43.1466   7
   2 -11   0-12.4116 44.5877   6
  -2  11   0-8.63229 47.4209  11
  -2  11   0-16.2058 39.3786  10
  -2  11   0-0.52431 49.8719   9
   2 -11   0 35.7459 57.3080   8
   2 -11   1 45.6538 69.1829   6
  -2  11  -1-23.3797 81.7135  11
   3   0   1-22.5666 25.0174  16
  -3   0  -1-38.8090 44.0214  15
   3   0   1 3.78338 16.6054   6
   3   0   1-21.8630 24.8071   2
   3   0   1-19.7202 15.4646   3
  -3   0  -1-25.7276 22.3920   4
  -3   0  -1-32.1815 23.8561   1
   3   0   2 1094.63 113.244  16
  -3   0  -2 1253.61 122.501  15
  -3   0  -2 1353.09 125.945  14
  -3   0  -2 1177.41 121.202   1
   3   0   2 1133.26 78.6692   6
   3   0   2 1307.46 126.291  13
   3   0   2 1085.62 103.044   3
   3   0   2 1171.43 114.756   2
  -3   0  -2 1009.98 79.3645   5
  -3   0  -2 1169.10 110.084   4
   3   0   3 17.7259 26.5318  16
  -3   0  -3-23.6070 22.5533  15
  -3   0  -3-0.94300 20.0691   4
  -3   0  -3-17.4364 35.1281  14
   3   0   3-20.5383 26.1609  13
   3   0   3-14.8369 14.1474   6
   3   0   3-43.0296 35.7610   2
  -3   0  -3-18.3408 18.6855   1
   3   0   3-34.5575 31.5024   3
  -3   0  -3 4.05596 15.0048   5
  -3   0  -4 41.4760 29.3919   1
   3   0   4 31.6151 32.9837  16
  -3   0  -4 23.2035 28.9206   4
  -3   0  -4 67.6093 36.7781  15
  -3   0  -4 81.8429 40.3273  14
   3   0   4 50.7427 32.8455   6
   3   0   4 36.7964 21.8242  13
   3   0   4 63.8975 40.5396   2
   3   0   4 38.6578 19.7749   3
  -3   0  -4 25.6761 17.6898   5
   3   0   5-4.82389 28.6627  16
  -3   0  -5 40.9845 31.7704   4
  -3   0  -5-24.5698 30.2253  15
  -3   0  -5 30.4745 25.1366  14
   3   0   5 32.2399 32.2199  13
   3   0   5 18.1860 24.7940   2
  -3   0  -5 16.8072 24.9864   1
   3   0   5-0.66631 14.2374  12
   3   0   5-15.5583 24.8428   3
   3   0   6 2421.78 195.798  16
  -3   0  -6 2332.41 195.277  15
  -3   0  -6 2473.99 179.878  14
   3   0   6 2529.49 193.929  13
   3   0   6 2486.58 161.584  12
   3   0   6 2521.80 196.892   2
  -3   0  -6 2433.03 191.259   4
  -3   0  -6 2214.45 196.580   1
   3   0   7 20.5612 31.9040  16
  -3   0  -7 66.5579 61.8310  15
   3   0   7 132.144 71.8490   2
  -3   0  -7 105.954 57.8469  14
   3   0   7 17.5169 48.3387  13
  -3   0  -7 62.9163 55.0699   1
  -3   1  -1 31.7353 35.6697  15
  -3   1  -1 30.5324 22.7298   4
  -3   1  -1-15.7510 19.6406  14
   3  -1   1 12.6385 13.4567   6
  -3   1  -1-8.38551 16.6732   1
   3  -1   1 13.9536 16.7657   2
   3  -1   1 1.80978 16.2734   3
  -3   1  -1 6.85260 7.89797   5
   3   1   2 519.024 86.1404   2
   3  -1   2 329.292 66.5294  16
   3   1   2 414.680 78.5206  16
  -3   1  -2 393.605 69.8450  15
  -3  -1  -2 470.969 86.4900  15
  -3   1  -2 349.832 57.7961   4
  -3  -1  -2 458.073 78.0926   4
  -3  -1  -2 485.042 85.4456   1
  -3   1  -2 359.612 65.1516  14
   3   1   2 549.757 100.605  13
   3  -1   2 382.995 65.2485  13
   3  -1   2 345.289 50.4151   6
  -3   1  -2 345.753 69.1017   1
  -3   1  -2 360.406 39.7477   5
   3  -1   2 350.255 65.7736   2
   3  -1   2 377.129 64.0485   3
   3   1   3 3426.44 201.963   2
   3  -1   3 3408.85 208.639  16
   3   1   3 3543.50 209.119  16
  -3   1  -3 3629.78 214.973  15
  -3  -1  -3 3425.76 206.883  15
  -3   1  -3 3435.22 210.203   1
  -3  -1  -3 3312.47 206.517   1
  -3   1  -3 3428.56 197.368  14
  -3  -1  -3 3788.93 201.303  14
   3   1   3 3380.58 114.900   6
   3  -1   3 3648.47 163.536   6
   3  -1   3 3474.56 193.413  13
   3   1   3 3498.37 205.041  13
   3  -1   3 3542.91 200.555   3
   3   1   3 3592.62 182.914   3
  -3   1  -3 3540.16 124.942   5
  -3  -1  -3 3334.38 165.828   5
  -3   1  -3 3542.35 188.470   4
  -3  -1  -3 3409.96 200.188   4
   3  -1   3 3468.37 207.982   2
  -3  -1  -4 395.729 70.3066   4
  -3   1  -4 388.664 66.0206   4
  -3   1  -4 403.728 71.7668  15
  -3  -1  -4 302.858 66.5864  15
   3   1   4 416.019 78.8126  16
  -3  -1  -4 399.360 78.5930   1
  -3   1  -4 401.869 71.4561  14
  -3  -1  -4 365.759 60.1504  14
   3  -1   4 428.867 71.8779  13
   3   1   4 340.755 69.1949  13
   3  -1   4 393.420 74.0135   2
  -3  -1  -4 411.215 65.7103   5
   3   1   4 410.582 75.9300   2
   3  -1   4 365.071 72.8074  16
  -3   1  -4 466.496 61.4424  11
   3  -1   4 416.211 71.4210   3
   3   1   4 406.747 68.6211   3
   3  -1   4 412.275 58.7791   6
  -3   1  -4 357.902 76.4331   1
  -3   1  -5 269.853 67.2023   4
   3   1   5 288.499 69.5208  16
  -3  -1  -5 145.518 40.8631   4
  -3   1  -5 194.259 63.7255  15
  -3  -1  -5 400.266 82.1268  15
  -3   1  -5 232.378 62.9829   1
  -3  -1  -5 321.038 60.3319  14
   3  -1   5 247.218 56.9052   2
   3  -1   5 230.381 58.7427  13
   3   1   5 222.379 56.0986  13
   3   1   5 372.268 95.8859   2
   3   1   5 261.304 52.4496  12
   3   1   5 270.399 62.7226   3
   3  -1   5 336.946 102.166  12
  -3   1  -5 253.767 60.7264  14
   3  -1   5 303.925 70.2276   3
  -3  -1  -5 255.255 69.9223   1
  -3   1  -5 271.712 48.5049  11
   3  -1   5 242.714 65.0909  16
  -3  -1  -5 231.562 51.2443   5
   3   1   6 678.417 107.191  16
  -3   1  -6 786.867 113.132  15
  -3  -1  -6 640.553 98.3655   4
   3  -1   6 660.928 110.486  16
  -3  -1  -6 563.758 99.4463  15
   3  -1   6 745.923 111.247   2
  -3  -1  -6 714.448 93.4855  14
  -3   1  -6 615.962 92.5286  14
   3   1   6 586.223 93.2719   2
   3  -1   6 643.497 98.5410  13
   3   1   6 620.120 97.3984  13
   3  -1   6 530.693 103.789   3
   3   1   6 720.366 94.4853  12
  -3   1  -6 580.579 69.2090  11
  -3   1  -6 566.263 100.291   1
  -3  -1  -6 681.306 110.984   1
  -3  -1  -7 60.4511 30.9177   4
   3  -1   7 151.514 90.1889  16
   3   1   7 142.504 53.8287  16
   3  -1   7-6.26158 44.5022   2
  -3   1  -7-7.75066 31.8749  15
  -3  -1  -7 158.140 65.7775  15
   3   1   7 45.1201 50.0216   2
  -3   1  -7 81.9229 40.7436  14
  -3  -1  -7 88.5424 36.6855  14
   3  -1   7 57.8636 55.0597  13
   3   1   7 42.5283 34.6137  13
  -3   1  -7 25.7061 34.6985   1
   3   1   7 112.429 44.8415  12
  -3  -1  -7 87.5882 64.2299   1
  -3   2   0 448.324 78.0427   1
   3  -2   0 392.523 73.9021   2
   3  -2   0 391.890 75.5203   3
   3  -2   1 210.478 53.0135  16
   3  -2   1 226.829 32.0290   7
  -3   2  -1 231.134 58.7897  15
  -3   2  -1 244.158 47.5519   4
  -3   2  -1 175.536 47.2911  14
   3  -2   1 197.964 46.2016   6
  -3   2  -1 236.379 26.0099   5
   3  -2   1 204.255 51.0373   2
   3  -2   1 272.649 59.6425   3
  -3   2  -1 227.973 54.1016   1
  -3   2  -2 12.2803 25.8132   1
  -3  -2  -2 13.5336 8.75674   8
   3  -2   2 44.0696 14.6103   7
  -3   2  -2 29.4016 24.5260  15
  -3   2  -2 0.45012 20.3515   4
  -3  -2  -2 88.5067 37.8211  15
  -3  -2  -2 38.9676 27.7695   4
   3  -2   2 38.6060 25.3636  16
  -3   2  -2 13.3039 27.8459  14
   3   2   2 41.9509 32.2924  16
  -3  -2  -2 22.2240 21.3815   1
   3  -2   2 6.10929 19.2756  13
   3   2   2 29.2453 31.1232  13
   3  -2   2 55.6287 28.9865   6
   3   2   2 59.9261 15.5828   6
   3  -2   2 36.1604 33.4735   2
   3  -2   2 3.70382 26.0634   3
   3   2   2 18.9800 23.6648   2
   3   2   2 17.1558 19.3847   3
  -3  -2  -2-1.33789 15.6532   5
   3   2   3 2039.28 156.474   2
   3  -2   3 1964.95 163.579  16
   3   2   3 1848.50 151.153  16
  -3   2  -3 1917.81 160.684   1
  -3   2  -3 2101.25 165.024  15
  -3  -2  -3 2019.37 162.934  15
  -3  -2  -3 1767.03 154.962   1
  -3   2  -3 1977.79 158.653  14
   3  -2   3 1955.89 134.679   6
   3  -2   3 1917.53 135.742  13
   3  -2   3 2083.16 162.597   3
   3   2   3 1987.41 165.110  13
   3   2   3 2096.37 134.503   3
  -3   2  -3 2086.37 139.254  11
  -3  -2  -3 2154.31 148.696   5
  -3   2  -3 1985.68 136.659   4
  -3  -2  -3 2049.87 166.012   4
   3  -2   3 2029.71 163.838   2
  -3   2  -4 1478.11 145.012   1
   3  -2   4 1376.51 142.176  16
   3   2   4 1396.53 136.385  16
  -3  -2  -4 1499.53 144.620   1
  -3   2  -4 1506.34 143.356  15
  -3  -2  -4 1410.34 141.424  15
  -3   2  -4 1406.79 138.742  14
  -3  -2  -4 1552.94 124.435  14
   3  -2   4 1428.76 138.199   3
   3   2   4 1391.92 111.931   3
   3  -2   4 1407.88 122.022  13
   3   2   4 1461.97 144.935  13
   3  -2   4 1408.33 115.348   6
   3   2   4 1350.87 119.345  12
  -3   2  -4 1428.23 115.150  11
  -3  -2  -4 1342.14 117.709   5
  -3   2  -4 1532.16 129.394   4
   3  -2   4 1382.14 137.617   2
  -3  -2  -4 1529.60 147.294   4
   3   2   4 1416.85 135.851   2
  -3   2  -5-39.3028 39.4445   1
   3  -2   5-15.3600 31.8932  16
  -3  -2  -5 14.3428 22.9974   4
  -3   2  -5 5.00790 33.9392  15
  -3  -2  -5 22.7195 27.1707  15
  -3   2  -5 8.64662 30.0284  14
  -3  -2  -5 3.88138 19.7758  14
   3  -2   5 16.9156 26.9626   2
   3  -2   5-34.2762 28.4364  13
   3   2   5-13.6245 27.4331  13
   3   2   5-8.82964 24.5739   2
   3   2   5-27.8505 18.3371   3
   3   2   5 16.0391 28.5003  12
   3  -2   5 24.2091 25.4623   3
  -3   2  -5 6.69002 25.6495  11
  -3  -2  -5 3.54666 22.4350   1
  -3  -2  -5 30.8194 28.5567   5
   3   2   5 22.9199 37.3965  16
   3  -2   6 105.369 58.7678  16
  -3  -2  -6 68.8570 43.7320   1
  -3   2  -6 72.7528 42.9604  15
  -3  -2  -6 15.6711 32.9505  15
   3  -2   6 74.3127 40.0457   2
   3   2   6 88.2535 44.3472  16
  -3   2  -6 117.428 54.4003  14
  -3  -2  -6 61.0277 28.0991   4
  -3  -2  -6 64.0613 27.9894  14
   3   2   6-8.80803 43.5338   2
   3  -2   6 3.41868 32.2490  13
   3   2   6 113.437 54.1761  13
   3  -2   6 112.059 52.9843   3
   3   2   6 33.7116 34.3888  12
  -3   2  -6 28.0124 21.7544  11
  -3   2  -6 96.7471 50.1313   1
  -3  -2  -6 109.861 43.7383   5
  -3  -2  -7 142.898 60.9117   4
   3   2   7 46.4263 34.0558  16
  -3  -2  -7 106.326 42.0343  15
   3   2   7 115.720 59.8571   2
  -3  -2  -7-81.1704 55.0277  14
   3   2   7 18.5593 43.3049  13
   3   2   7-24.3982 35.1486  12
  -3  -2  -7 156.923 62.3398   1
   3   2   8 76.8682 49.9247  16
  -3  -2  -8 79.0798 47.3698  15
  -3  -2  -8 49.6654 26.0727  14
   3   2   8 42.8144 25.5721  13
   3   2   8 99.4934 50.9797  12
   3  -3   0 882.356 82.1756   7
  -3   3   0 1025.87 124.676  14
  -3   3   0 963.491 111.857   1
   3  -3   0 878.841 104.265   6
   3  -3   0 843.694 106.968   3
   3  -3   0 878.914 101.520   2
  -3   3   0 911.198 82.1967   4
   3  -3   1 107.827 37.0180  16
  -3   3  -1 60.5267 36.7670  15
  -3   3  -1 78.9941 26.8314   4
   3  -3   1 73.0921 23.0337   7
  -3   3  -1 86.4440 43.0398  14
  -3   3  -1 99.2278 40.1836   1
   3  -3   1 137.367 42.2952   6
   3  -3   1 74.4405 30.0413   2
   3  -3   1 79.9313 35.3716   3
   3  -3   2 534.217 85.3285  16
   3  -3   2 462.323 50.4439   7
  -3   3  -2 461.461 80.6358  15
  -3  -3  -2 488.665 84.9124   4
  -3   3  -2 508.942 89.0096  14
  -3  -3  -2 458.119 77.8510   1
   3   3   2 441.777 85.8408  13
   3  -3   2 459.793 79.6411  13
   3  -3   2 441.650 68.4635   6
  -3   3  -2 442.489 76.5460   1
  -3   3  -2 491.857 76.1013  11
   3  -3   2 491.305 76.9404   2
   3  -3   2 470.588 80.7356   3
   3   3   2 573.350 89.6995   2
   3   3   2 470.398 65.4245   3
  -3  -3  -2 395.656 69.9131   5
  -3  -3  -2 419.336 57.7924   8
  -3   3  -2 505.302 62.8564   4
   3   3   3 896.225 107.810   2
   3  -3   3 996.770 117.400  16
   3   3   3 946.812 109.250  16
  -3   3  -3 907.728 107.275   1
  -3   3  -3 1041.90 119.454  15
  -3  -3  -3 963.400 116.083  15
  -3  -3  -3 961.440 113.132   1
  -3   3  -3 1054.98 123.314  14
   3  -3   3 963.277 104.060   6
   3  -3   3 1032.54 119.318   3
   3  -3   3 881.647 85.5312  13
   3   3   3 1013.46 123.614  13
   3   3   3 1129.03 93.1515   3
  -3   3  -3 1070.28 109.870  11
  -3  -3  -3 1057.46 114.028   5
  -3  -3  -3 982.330 77.7723   8
  -3   3  -3 974.477 92.9243   4
   3  -3   3 953.539 113.397   2
  -3  -3  -3 949.466 120.248   4
   3   3   4 645.991 93.6657  16
  -3  -3  -4 621.091 98.2398   4
  -3   3  -4 562.675 90.8406  15
  -3  -3  -4 648.534 95.2674  15
  -3   3  -4 526.025 88.8520   1
   3  -3   4 559.184 80.2538   6
  -3   3  -4 668.678 105.595  14
  -3  -3  -4 488.004 83.3173   1
   3   3   4 615.568 70.2576   3
   3  -3   4 514.371 71.1316  13
   3  -3   4 512.369 84.5299   2
   3   3   4 544.368 91.0981  13
   3   3   4 143.377 84.2410  12
  -3   3  -4 680.083 86.8140  11
  -3  -3  -4 559.167 89.2587   5
   3  -3   4 496.641 86.5801  16
   3  -3   4 649.632 95.0291   3
   3   3   4 587.658 89.9981   2
  -3  -3  -5 1875.45 167.714   1
   3  -3   5 1872.64 173.551  16
   3   3   5 1854.95 162.095  16
  -3   3  -5 1916.87 171.131  15
  -3   3  -5 2055.89 184.052  14
  -3  -3  -5 2283.01 156.237  14
   3  -3   5 1732.51 166.543   3
   3  -3   5 1957.89 146.259  13
   3   3   5 1870.80 173.927  13
   3   3   5 1808.46 157.906  12
  -3   3  -5 2063.89 158.037  11
  -3  -3  -5 1868.05 154.668   5
   3  -3   5 2078.22 181.232   2
  -3   3  -5 1955.58 179.471   1
   3   3   5 1927.77 161.860   2
  -3  -3  -5 1920.87 171.976   4
  -3  -3  -6 8.22541 38.5662   1
   3  -3   6-3.53320 45.0872  16
   3   3   6 61.4658 32.9127  16
  -3  -3  -6 26.0651 30.0876   4
   3  -3   6 34.2754 32.5150   2
  -3   3  -6 164.639 87.6928  15
  -3   3  -6 29.4266 50.1919  14
   3   3   6 29.3190 30.7823   2
  -3  -3  -6-10.8436 29.9853  15
   3  -3   6 23.1117 33.5116  13
   3   3   6 43.4930 36.8570  13
  -3   3  -6 40.1084 39.6843   1
   3   3   6 128.777 54.5759  12
  -3   3  -6 70.4099 36.3535  11
  -3  -3  -6-38.5646 22.9173   5
   3   3   7 3020.05 224.284  16
  -3  -3  -7 3126.19 231.889  15
   3   3   7 3277.82 232.055  12
  -3  -3  -7 3025.06 250.416   5
   3   3   7 3426.73 252.826   2
  -3  -3  -7 3460.81 265.753   1
  -3  -3  -7 3161.97 244.518   4
  -3  -3  -8 438.421 97.9332   4
   3   3   8 226.797 62.7241  16
  -3  -3  -8 430.412 101.491  15
   3   3   8 37.9190 84.6426  13
   3   3   8 168.880 67.1082  12
   3  -4   0 1165.44 115.796   2
   3  -4   0 1232.77 102.169   7
  -3   4   0 1251.38 139.089  14
  -3   4   0 1252.17 127.270   1
   3  -4   0 1301.49 130.805   6
   3  -4   0 1205.93 129.396   3
  -3   4   0 1241.95 82.1553   4
   3  -4   1 116.237 42.2680  16
  -3   4  -1 139.076 27.7723   4
  -3   4  -1 184.943 44.7550  15
   3  -4   1 134.662 32.7853   7
  -3   4  -1 122.941 45.2209  14
   3  -4   1 124.047 47.6034   6
  -3   4  -1 165.157 48.9903   1
  -3   4  -1 122.036 42.9178  11
   3  -4   1 150.408 46.5062   2
  -3   4  -1 99.5732 30.7454   9
   3  -4   1 114.907 40.3026   3
  -3   4  -2 27.0184 12.0862   4
   3  -4   2 24.5320 32.0737  16
  -3  -4  -2 52.9130 32.1131   1
   3  -4   2 57.2816 26.0059   7
  -3   4  -2 61.9358 37.8640  15
  -3  -4  -2 17.5293 25.4947   4
  -3   4  -2 57.1887 41.7769  14
   3  -4   2 2.40235 21.9883   6
   3  -4   2 96.5071 42.4876   2
  -3   4  -2 32.4408 33.9651  11
   3  -4   2 45.9602 31.9425   3
   3   4   2 0.15066 44.5142   2
   3   4   2 51.7965 21.7566   3
  -3   4  -2 23.4723 12.9371   9
  -3  -4  -2 20.2969 20.2588   5
  -3   4  -2 120.906 48.5089   1
  -3  -4  -3 91.7494 28.6470   8
   3  -4   3 107.296 43.1211  16
  -3   4  -3 112.317 48.3522  15
  -3  -4  -3 104.750 50.7224   4
  -3  -4  -3 97.3540 47.5804   1
  -3   4  -3 87.2012 37.0595  14
   3  -4   3 92.2399 35.4804  13
   3  -4   3 112.528 48.3901   6
   3   4   3 21.4947 40.6557  13
   3  -4   3 60.6019 28.0501   2
  -3   4  -3 163.518 57.2646   1
  -3   4  -3 129.296 34.9047  11
   3  -4   3 119.084 49.8105   3
   3   4   3 117.111 39.9001   2
  -3  -4  -3 100.525 37.9034   5
   3  -4   4 356.985 73.7348  16
  -3  -4  -4 1317.78 150.670   1
  -3   4  -4 424.032 84.1126  15
  -3  -4  -4 390.147 103.855  15
   3  -4   4 368.623 76.3439   2
  -3   4  -4 455.168 90.8278  14
   3  -4   4 428.703 77.0322   6
   3  -4   4 410.352 60.2188  13
   3  -4   4 372.396 78.2426   3
  -3   4  -4 517.470 85.5827  11
  -3  -4  -4 1469.69 161.288   5
   3   4   4 581.420 93.9565   2
  -3   4  -4 518.823 86.7861   1
  -3  -4  -4 1464.76 166.163   4
   3  -4   5 165.106 61.3956  16
   3  -4   5 159.304 75.7963   2
  -3   4  -5 128.830 66.6233  15
  -3  -4  -5 48.2841 50.4720   4
  -3  -4  -5 22.4606 67.4759  15
  -3   4  -5 156.400 71.6694  14
   3  -4   5 50.1099 18.2228  13
   3   4   5 18.9206 44.7551  13
   3   4   5 50.2345 26.0303  16
   3   4   5 102.288 39.7399   2
   3  -4   5 97.2818 41.5628   3
   3   4   5 4.48808 27.2450  12
  -3   4  -5 80.7784 47.0482   1
  -3   4  -5 104.646 47.5291  11
  -3  -4  -5 87.4030 47.4572   1
  -3  -4  -5 83.5125 39.9752   5
   3  -4   6 229.313 88.5439  16
   3   4   6 428.761 80.0104  16
  -3  -4  -6 551.175 110.372   4
  -3   4  -6 563.430 119.747  15
  -3  -4  -6 192.625 84.3023  15
  -3   4  -6 249.216 57.7088  14
   3   4   6 418.742 83.6682   2
   3  -4   6 130.036 68.4807  13
   3   4   6 31.6287 86.7415  13
   3   4   6 104.026 94.2035  12
  -3   4  -6 274.687 73.2135  11
  -3  -4  -6 432.833 90.5077   5
  -3  -4  -6 460.359 89.1232   1
  -3  -4  -7 386.239 98.6867   4
   3   4   7 306.827 75.4151  16
   3   4   7 467.422 99.7694   2
  -3  -4  -7 371.254 90.8258  15
   3   4   7 54.0889 93.4504  13
   3   4   7 53.3906 74.4518  12
  -3  -4  -7 459.564 104.205   1
  -3  -4  -7 358.457 83.0749   5
  -3  -4  -8 714.061 129.876   4
   3   4   8 624.221 107.255  16
  -3  -4  -8 939.098 150.312  15
   3   4   8 154.873 136.147  13
   3   4   8 128.620 84.9918  12
   3  -5  -1 500.005 80.8655   7
  -3   5   1 314.701 83.4117  14
   3  -5  -1 458.670 92.7351   6
  -3   5   1 439.838 77.3125   1
   3  -5  -1 394.508 73.9122   2
   3  -5  -1 383.910 81.7223   3
   3  -5   0 395.714 65.3752   7
  -3   5   0 438.813 89.5462  14
   3  -5   0 451.454 84.6689   6
   3  -5   0 321.601 61.3764   2
   3  -5   0 375.169 77.8221   3
  -3   5   0 424.550 78.1007   1
  -3   5  -1 98.0202 41.6842   1
   3  -5   1 56.6855 32.3924  16
   3  -5   1 79.9239 33.2562   7
  -3   5  -1 99.1063 46.8325  15
  -3   5  -1 84.6462 37.7360  14
   3  -5   1 83.6373 35.1604   6
   3  -5   1 94.4391 41.3837   2
  -3   5  -1 72.3676 43.1221  11
   3  -5   1 110.604 42.4358   3
  -3   5  -1 95.1977 36.6887   9
   3  -5   2 3434.59 208.566  16
   3  -5   2 3720.65 187.863   7
  -3   5  -2 3587.73 207.347  15
  -3   5  -2 3691.73 239.955  14
   3  -5   2 3592.94 231.478   6
   3  -5   2 3521.42 235.999   3
  -3   5  -2 3598.20 229.032  11
  -3   5  -2 3810.48 196.048   9
   3  -5   2 3398.08 203.827   2
  -3   5  -2 3434.70 208.547   1
  -3  -5  -3 113.872 44.4142   8
   3  -5   3 205.458 51.6700  16
  -3   5  -3 211.331 58.5777  15
  -3  -5  -3 200.384 62.4628   4
  -3   5  -3 106.875 50.8335  14
   3  -5   3 221.579 55.7671   2
   3  -5   3 195.342 54.8138   6
   3   5   3-1.43505 44.8113  13
  -3   5  -3 188.691 60.1739  11
   3  -5   3 172.900 54.0845   3
   3   5   3 186.638 47.4276   2
  -3  -5  -3 210.725 65.5089   5
  -3   5  -3 182.406 53.4158   1
  -3  -5  -3 256.870 72.4451   1
   3  -5   4 12.8328 33.1715  16
  -3   5  -4 9.06718 34.7793  15
   3  -5   4 19.9227 35.9993   2
  -3  -5  -4 11.8977 30.5587   1
  -3  -5  -4 19.5353 40.9561   4
  -3   5  -4-31.5060 49.0924  14
   3  -5   4 111.521 47.1586   6
   3   5   4 22.7355 40.9389  13
   3  -5   4 9.62014 38.0831   3
  -3   5  -4 95.7409 51.0083  11
   3   5   4 42.0453 28.0248   2
  -3   5  -4-21.2130 41.2547   1
  -3  -5  -4-35.1895 51.3518   5
   3   5   5 154.957 107.593  16
   3  -5   5 620.827 118.941  16
  -3   5  -5 827.799 123.120  15
  -3  -5  -5 419.984 94.8229  15
  -3   5  -5 808.995 128.639  14
   3   5   5 138.884 127.293  13
   3   5   5 159.485 117.451  12
   3  -5   5 765.707 129.021   3
  -3   5  -5 827.650 129.898  11
  -3  -5  -5 700.856 110.463   5
   3   5   5 871.745 111.241   2
  -3  -5  -5 804.571 126.122   4
  -3  -5  -5 786.764 111.358   1
  -3  -5  -6 3515.70 249.850   5
   3   5   6 3434.95 233.287   2
  -3  -5  -6 3583.89 249.730   1
  -3  -5  -6 3253.78 249.621   4
  -3  -5  -7 12.3458 39.2270   4
   3   5   7 112.648 64.9230   2
  -3  -5  -7-6.00963 40.0406  15
   3   5   7-6.73548 30.5725  16
   3   5   7-16.5275 45.4471  13
  -3  -5  -7 64.9287 50.8696   1
   3   5   7-7.43642 39.3952  12
  -3  -5  -7 1.69864 36.3224   5
  -3  -5  -8-7.44450 38.9462   4
   3   5   8-6.69518 22.1702  16
  -3  -5  -8 78.3985 75.3579  15
   3   5   8 10.8406 51.3501  13
   3   5   8-7.99649 33.0043  12
  -3  -5  -8-38.7569 30.2243   5
   3  -6  -1 105.364 48.4089   7
  -3   6   1 66.1431 52.0549  14
   3  -6  -1 146.078 60.4394   6
   3  -6  -1 78.2834 32.1401   2
  -3   6   1 96.9852 36.7431   1
   3  -6  -1 82.1880 50.1003   3
  -3   6   0 326.102 63.7121   1
   3  -6   0 332.654 65.9565   7
  -3   6   0 341.613 86.5948  14
   3  -6   0 395.841 84.2672   6
   3  -6   0 301.222 70.2959   2
  -3   6   0 293.138 85.1776  11
   3  -6   0 396.717 87.5431   3
  -3   6   0 294.630 73.5398   9
   3  -6   1 905.444 113.846  16
   3  -6   1 975.379 107.601   7
  -3   6  -1 1033.71 121.354  15
  -3   6  -1 1016.47 135.268  14
   3  -6   1 1024.40 133.794   6
   3  -6   1 880.747 119.088   3
  -3   6  -1 953.239 128.138  11
  -3   6  -1 845.594 104.188   9
   3  -6   1 889.525 101.300   2
  -3   6  -1 995.616 112.069   1
   3  -6   2 1363.96 132.485  16
   3  -6   2 1614.69 142.144   7
  -3   6  -2 1417.51 133.755  15
  -3   6  -2 1457.85 159.196  14
   3  -6   2 1450.32 158.829   6
   3  -6   2 1224.02 143.625   3
  -3   6  -2 1348.87 149.485  11
  -3   6  -2 1408.14 133.260  10
  -3   6  -2 1364.18 133.047   9
   3  -6   2 1103.46 119.880   8
   3  -6   2 1429.12 137.162   2
  -3   6  -2 1576.59 148.642   1
  -3  -6  -3-13.3661 31.4933   8
   3  -6   3 89.1285 29.3507  16
   3  -6   3 45.3648 30.7465   2
  -3   6  -3 51.0410 31.7017  15
  -3  -6  -3 107.007 56.2133   4
  -3   6  -3 51.4961 33.0511  14
   3  -6   3 84.9412 56.9924   6
   3  -6   3 26.4353 39.7923   3
  -3  -6  -3 30.1861 44.2301   1
  -3   6  -3 1.32498 27.2244   1
  -3   6  -3 67.8992 47.9778  11
  -3  -6  -3 10.6339 30.6699   5
  -3   6  -4 468.555 83.9799  15
   3  -6   4 506.384 96.0379  16
  -3  -6  -4 452.189 94.8406   4
  -3   6  -4 532.457 99.6454  14
   3  -6   4 467.866 105.164   6
   3   6   4 51.8845 110.791  13
   3  -6   4 432.199 97.6881   3
   3   6   4 387.770 68.9961   2
  -3   6  -4 562.859 105.713  11
  -3  -6  -4 510.046 103.439   5
  -3  -6  -4 543.072 100.369   1
   3  -6   5 85.0857 78.8814  16
  -3  -6  -5 94.3818 55.7154   4
  -3   6  -5 123.451 57.1742  15
  -3  -6  -5 208.805 65.2221   1
  -3   6  -5 156.547 60.7227  14
   3   6   5 218.372 63.7394   2
   3   6   5 12.5474 53.7731  13
   3   6   5 18.7270 73.1045  12
  -3   6  -5 189.005 64.1648  11
  -3  -6  -5 209.694 57.3977   5
   3   6   6 21.1085 57.2873  16
  -3  -6  -6 109.240 50.6395   4
  -3  -6  -6 96.9755 70.3699  15
   3   6   6 212.697 66.1958   2
   3   6   6 12.3298 60.3360  13
   3   6   6 31.9656 63.9361  12
  -3  -6  -6 224.159 63.8197   1
  -3  -6  -6 238.213 77.1050   5
  -3  -6  -7-0.40237 37.4258   4
  -3  -6  -7-7.33559 55.4749  15
   3   6   7 7.38694 30.1561  13
   3   6   7 3.12050 48.4209  12
  -3  -6  -7-3.96231 32.7276   5
  -3  -6  -8-44.2258 62.3371   4
  -3  -6  -8 19.4721 61.7826  15
   3   6   8-0.19840 69.4066  13
   3   6   8-23.7260 35.5838  12
  -3  -6  -8 115.405 65.8722   5
   3   6   9-9.54747 54.2083  13
   3  -7  -1 453.095 93.3559   7
  -3   7   1 368.475 93.3376  14
   3  -7  -1 503.445 101.406   6
   3  -7  -1 403.303 95.9985   3
   3  -7   0 91.3410 31.6979   7
  -3   7   0 31.7936 32.9903  14
   3  -7   0 36.9511 49.0855   6
  -3   7   0 43.9961 42.0064  11
   3  -7   0 35.1524 35.2005   3
  -3   7   0 17.7258 26.5786   9
   3  -7   1 256.925 58.1157   7
   3  -7   1 330.597 77.0869   2
  -3   7  -1 313.534 77.8772  14
   3  -7   1 293.136 73.5013   6
  -3   7  -1 191.969 72.4461  11
   3  -7   1 47.6253 55.8773   3
  -3   7  -1 279.737 73.4828  10
  -3   7  -1 254.368 64.5925   9
   3  -7   1 305.229 70.1057   8
   3  -7   2 876.489 117.434  16
   3  -7   2 566.076 111.376   2
  -3   7  -2 883.516 128.654  14
   3  -7   2 949.124 140.961   6
  -3   7  -2 838.739 130.308  11
   3  -7   2 701.900 121.996   3
  -3   7  -2 1042.43 135.779  10
   3  -7   2 823.918 126.082   8
   3  -7   3 1035.56 138.195  16
  -3   7  -3 905.766 114.734  15
  -3   7  -3 1027.29 140.343  14
   3  -7   3 762.321 132.038   6
   3  -7   3 708.932 134.366   3
  -3   7  -3 998.765 140.358  11
   3  -7   4 624.858 126.019  16
  -3   7  -4 886.889 121.473  15
  -3  -7  -4 1019.43 162.149   4
  -3   7  -4 1034.85 160.918  14
   3  -7   4 839.729 187.675   6
   3   7   4 284.321 152.961  13
   3  -7   4 779.474 152.565   3
  -3   7  -4 961.803 153.619  11
  -3  -7  -4 867.655 158.529   5
  -3  -7  -5 185.972 99.0431   4
   3   7   5 167.473 123.480  13
  -3  -7  -5 94.6877 83.7891   5
  -3  -7  -6 38.6192 44.7023   4
   3   7   6 19.8895 52.4211  13
   3   7   6 37.8714 57.0255  12
  -3  -7  -6 164.895 58.3052   5
  -3  -7  -7 155.052 65.4616   4
   3   7   7 4.95159 55.1275  13
   3   7   7-27.2152 47.8992  12
  -3  -7  -7 130.326 69.4141   5
  -3  -7  -8 15.0455 48.6077   4
   3   7   8 12.5476 45.0763  13
   3   7   8 27.7481 41.9579  12
  -3  -7  -8 132.770 56.1629   5
   3  -8  -2 71.6352 74.9254   6
   3  -8  -2-70.9925 81.5939   3
   3  -8  -1 1896.18 196.989   7
  -3   8   1 1210.77 178.300  14
   3  -8  -1 1868.82 208.990   6
   3  -8  -1 1821.47 195.357   3
  -3   8   1 1752.66 192.628   9
   3  -8   0 146.347 57.7565   7
  -3   8   0 135.812 47.7153  14
   3  -8   0 15.9359 37.6155   6
  -3   8   0 204.142 79.4111  11
   3  -8   0 117.324 65.1248   3
  -3   8   0 43.5436 36.2459   9
   3  -8   1 5.05663 33.0652   7
  -3   8  -1-9.72696 43.8488  14
   3  -8   1 71.9989 68.9905   6
   3  -8   1 37.2297 64.4583   3
  -3   8  -1-33.8267 55.5060  11
  -3   8  -1 90.2314 55.7655  10
  -3   8  -1 9.97812 35.8795   9
   3  -8   1 87.0248 72.0138   8
  -3   8  -2 116.445 62.9568  14
   3  -8   2 64.0988 58.5134   6
   3  -8   2 15.3879 45.6809   3
  -3   8  -2 64.4788 53.6530  11
  -3   8  -2 77.5860 44.6114  10
   3  -8   2 91.5743 51.5162   8
  -3   8  -3 437.354 99.4240  14
   3  -8   3 474.896 112.730   6
   3  -8   3 206.890 106.367   3
  -3   8  -3 373.549 97.3326  11
  -3   8  -4 25.0041 57.9388  14
  -3   8  -4 38.6091 54.3827  11
  -3  -8  -4 72.8745 53.4995   5
  -3  -8  -5 230.161 83.6180   4
   3   8   5 9.38379 98.1124  13
  -3  -8  -5 313.868 98.3263   5
  -3  -8  -6 210.894 78.6897   4
   3   8   6 74.7155 123.033  13
   3   8   6 37.6498 84.6019  12
  -3  -8  -6 146.337 61.3199   5
  -3  -8  -7 226.764 78.4125   4
   3   8   7-6.90454 38.5806  13
   3   8   7 40.8998 78.0955  12
  -3  -8  -7 265.126 96.2746   5
   3  -9  -2 151.024 86.5354   6
   3  -9  -1 27.3871 52.9135   7
   3  -9  -1-90.2699 61.5370   6
   3  -9  -1-50.4075 58.3549   3
  -3   9   1 13.1920 31.1437   9
   3  -9   0 50.3566 33.9936   7
  -3   9   0 64.9640 66.4572  14
   3  -9   0 35.7491 46.3948   6
   3  -9   0 0.72046 41.5520   3
  -3   9   0 31.9174 35.2389  11
  -3   9   0 41.9188 52.8477   9
   3  -9   0-35.5883 42.1962   8
   3  -9   1-24.5099 31.1432   7
  -3   9  -1-95.5543 68.6633  14
   3  -9   1-87.9162 61.6991   6
   3  -9   1 3.31300 48.5835   3
  -3   9  -1-16.5183 36.5367  11
  -3   9  -1-9.26322 59.2838   9
   3  -9   1-14.4659 50.0262   8
  -3   9  -2 147.756 81.4517  14
   3  -9   2 52.6659 69.2278   6
   3  -9   2 133.505 67.3220   3
  -3   9  -2 55.9752 44.1384  11
  -3   9  -2-40.8487 70.7152  10
  -3   9  -3 440.783 114.700  14
   3  -9   3 310.952 145.013   6
  -3   9  -3 550.304 145.484  11
  -3  -9  -5 464.469 184.360   4
  -3  -9  -5 87.4806 64.0411   5
  -3  -9  -6 221.020 112.000   4
   3   9   6 23.2864 92.6474  13
  -3  -9  -6-57.3475 71.9257   5
   3 -10  -2-3.05023 58.8003   6
   3 -10  -1 33.1771 49.3965   7
   3 -10  -1 27.3784 47.9214   6
   3 -10  -1-1.83230 35.7516   3
  -3  10   1 44.9031 68.8448   9
   3 -10   0-20.9514 38.8538   7
  -3  10   0 38.8929 43.8219  14
   3 -10   0-47.0308 39.8829   6
   3 -10   0 20.6245 50.2184   3
  -3  10   0-26.3568 62.9646  11
  -3  10   0-1.69120 47.9361   9
   3 -10   0-37.7720 44.2613   8
  -3  10  -1 111.416 67.6264  14
   3 -10   1 77.6912 40.9520   6
   3 -10   1-23.2656 45.8488   3
  -3  10  -1 3.44212 49.6769  11
  -3  10  -1 73.1655 73.1597  10
   3 -10   1 18.0451 74.0694   8
  -3  10  -2 44.1264 38.1805  14
   3 -10   2 16.6232 53.8612   6
  -3  10  -2-44.3393 56.9156  11
   4   0   2 1182.66 156.116   2
  -4   0  -2 1123.81 146.799   1
   4   0   2 1187.70 140.566   3
  -4   0  -2 1070.33 132.032   4
   4   0   3-29.5675 46.2156  16
  -4   0  -3-20.2837 24.4211   4
  -4   0  -3-26.4327 37.9964  15
  -4   0  -3 24.1463 35.7126  14
   4   0   3 2.93098 29.1211  13
   4   0   3-39.5761 30.1186   2
   4   0   3-99.4405 52.5606   3
  -4   0  -3-15.1236 43.1048   1
   4   0   4 1732.55 178.347  16
  -4   0  -4 1620.04 176.780   1
  -4   0  -4 1673.44 172.511  15
  -4   0  -4 1996.47 182.602  14
   4   0   4 2275.14 199.421   3
   4   0   4 1855.67 190.449  13
  -4   0  -4 1732.76 163.623   4
   4   0   4 1739.00 174.933   2
   4   0   5-110.172 80.1315  16
  -4   0  -5-31.5048 35.7313   4
  -4   0  -5-7.85834 39.7522  15
  -4   0  -5-23.3442 42.2910  14
   4   0   5-30.4674 36.0510  13
   4   0   5 26.4773 31.8047   2
   4   0   5-1.53464 28.1828   3
  -4   0  -5-28.3651 44.9184   1
   4   0   6 1708.36 180.717  16
  -4   0  -6 1994.04 204.447  15
  -4   0  -6 2106.87 188.056  14
   4   0   6 2052.67 194.631   3
   4   0   6 1852.71 186.565  13
   4   0   6 2011.67 198.465   2
  -4   0  -6 1758.47 176.971   4
  -4   0  -6 1609.48 185.802   1
  -4   0  -7-45.2547 45.1290   4
   4   0   7-55.6183 34.3845  16
  -4   0  -7-33.9857 46.7472  15
   4   0   7-111.168 57.2930   2
  -4   0  -7-94.0387 61.0696  14
   4   0   7-20.0275 59.1012  13
  -4   0  -7 69.0251 61.1170   1
   4   0   8 147.355 91.4573  16
   4   0   8 182.974 99.5708   2
  -4   0  -8 226.709 93.8595  15
  -4   0  -8 83.0847 47.4898  14
   4   0   8 112.822 71.8582  13
  -4   0  -8 181.563 92.6845   1
   4  -1   2 556.949 99.7077  16
  -4   1  -2 706.186 118.417  15
   4  -1   2 610.762 80.9557   6
  -4   1  -2 669.971 112.960   1
   4  -1   2 679.534 105.313   2
   4  -1   2 614.394 102.911   3
  -4   1  -2 671.951 103.029   4
   4  -1   3-95.8500 66.2297  16
  -4  -1  -3 56.3817 43.7173   1
   4   1   3-7.64172 39.8645  16
  -4   1  -3-22.7135 28.0972   4
  -4   1  -3-76.6074 59.8613  15
  -4  -1  -3-42.2636 50.0188  15
  -4  -1  -3 21.8966 43.5707   4
  -4   1  -3-11.4426 37.6987  14
   4   1   3-58.1411 60.3117  13
   4  -1   3-93.8803 77.1068  13
  -4   1  -3 1.10753 41.2613   1
   4  -1   3-27.0051 41.0427   2
   4   1   3-14.0513 38.0240   2
   4  -1   3-142.728 65.6327   3
   4   1   3 11.7183 28.3680   3
  -4   1  -4 10.0967 30.5977   1
   4  -1   4-21.0154 34.6290  16
   4   1   4-12.9536 29.9930  16
  -4   1  -4-30.9000 27.9446   4
  -4  -1  -4-23.1927 28.5463   4
  -4   1  -4-47.0178 61.8544  15
  -4  -1  -4 58.8364 42.6788  15
  -4  -1  -4 11.6413 32.5401   1
  -4   1  -4 24.3280 44.8873  14
   4  -1   4 9.22226 38.6745  13
   4   1   4 52.3812 33.4436  13
   4  -1   4-21.5262 32.9441   2
   4   1   4 21.9578 37.3844   2
   4  -1   4 3.53836 26.0208   3
   4   1   4 3.73365 30.3439   3
  -4   1  -5 23.4886 33.4439   4
   4   1   5-44.2649 48.8677  16
  -4  -1  -5 43.2492 33.0007   4
  -4   1  -5-46.5492 71.9341  15
  -4  -1  -5-51.0967 56.5171  15
  -4   1  -5-29.8715 28.7404  14
  -4  -1  -5 30.1499 41.6141  14
   4  -1   5 26.6301 23.8171  13
   4   1   5-36.4617 33.3915  13
   4  -1   5 34.2968 47.1467   2
   4  -1   5-9.46446 46.2540  16
  -4   1  -5 25.2402 36.9257   1
   4   1   5 8.71832 41.1348   2
   4   1   5 108.800 52.0273   3
   4  -1   5-52.7794 44.3309   3
  -4  -1  -5-8.32416 31.0550   1
  -4   1  -6 268.724 85.5787   4
  -4   1  -6 99.3052 55.1681   1
   4  -1   6 129.375 47.8623  16
   4   1   6 276.715 87.9026  16
  -4   1  -6 280.837 97.5444  15
  -4  -1  -6 173.480 70.9184  15
  -4  -1  -6 132.434 70.8943   1
  -4   1  -6 121.496 47.7856  14
  -4  -1  -6 167.196 59.5005  14
   4  -1   6 138.217 67.8326   2
   4   1   6 161.248 76.1176   2
   4  -1   6 74.3487 41.6497  13
   4   1   6 186.115 65.3557  13
   4   1   6 296.006 82.4294   3
   4  -1   6 183.006 72.9223   3
  -4  -1  -6 92.7914 41.9535   4
  -4  -1  -7 402.457 91.3831   4
   4  -1   7 495.811 118.314  16
   4   1   7 343.242 85.6356  16
  -4   1  -7 357.605 84.3545  15
  -4  -1  -7 318.782 81.9809  15
   4  -1   7 369.988 110.008   2
   4   1   7 330.604 88.7752   2
  -4   1  -7 327.693 82.3814  14
  -4  -1  -7 381.431 78.5345  14
   4  -1   7 428.127 101.404  13
   4   1   7 508.030 108.518  13
  -4   1  -7 432.999 109.891   1
  -4  -1  -7 322.454 99.3812   1
   4  -1   8 201.592 143.632  16
   4   1   8 343.961 104.384  16
   4  -1   8 236.258 100.773   2
   4   1   8 467.985 128.547   2
  -4   1  -8 406.845 120.457  15
  -4  -1  -8 483.950 114.775  15
   4   1   8 556.211 133.207  13
  -4   1  -8 360.786 105.832   1
  -4  -1  -8 588.488 131.457   1
  -4   2  -2-31.3773 35.2840   1
   4  -2   2-27.2410 27.9862  16
  -4   2  -2 53.8217 39.4664   4
  -4   2  -2 82.8214 52.5387  15
  -4   2  -2 54.2875 50.9395  14
   4  -2   2-13.0441 25.3717   6
   4  -2   2-41.4519 54.1066   2
   4  -2   2-27.4222 36.4593   3
   4  -2   3 135.217 51.3974  16
  -4   2  -3 112.123 47.8359   4
  -4  -2  -3 38.8021 38.7090   1
  -4   2  -3 146.423 60.3422  15
  -4  -2  -3 137.582 54.2867   4
  -4   2  -3 143.089 46.6197  14
  -4   2  -3 70.0615 52.0578   1
   4   2   3-7.99148 52.0176  13
   4  -2   3 118.785 40.4004   6
   4  -2   3 161.371 63.2145   2
   4  -2   3 161.195 62.3985   3
   4   2   3 104.005 56.4087   2
   4   2   3 70.9412 30.6517   3
  -4  -2  -3 46.0300 33.3472   5
  -4   2  -4 568.681 93.0312   4
   4   2   4 542.106 104.930  16
  -4  -2  -4 534.026 109.131   4
  -4   2  -4 555.615 108.611  15
  -4  -2  -4 570.484 113.614  15
  -4   2  -4 434.890 89.6483  14
  -4  -2  -4 483.535 103.566   1
   4  -2   4 466.374 83.8805  13
   4   2   4 465.348 107.245  13
   4  -2   4 493.691 103.013   2
   4  -2   4 411.231 92.3721  16
   4   2   4 569.866 111.541   2
   4  -2   4 468.368 93.5304   3
   4   2   4 563.824 93.9162   3
  -4  -2  -4 445.380 78.1230   5
  -4   2  -4 390.480 96.5708   1
  -4   2  -5 25.4105 43.7536   4
   4  -2   5 5.99422 33.6218  16
   4   2   5-39.8705 45.9192  16
  -4  -2  -5 100.322 57.0020   4
  -4   2  -5-123.277 69.6619  15
  -4  -2  -5-52.6777 55.8229  15
  -4   2  -5 74.6852 53.4112  14
  -4   2  -5-58.1800 55.9204   1
   4  -2   5 5.78225 31.2620   2
   4  -2   5 18.7207 22.5531  13
   4   2   5 19.9152 51.0611  13
   4   2   5-57.8458 56.2416   2
   4  -2   5-9.37076 32.5664   3
  -4  -2  -5-44.9994 59.7728   1
   4  -2   6 280.702 92.3411  16
   4   2   6 155.878 65.7540  16
  -4  -2  -6 171.011 74.1665   4
  -4   2  -6 144.947 69.2838  15
  -4  -2  -6 178.972 59.6770  15
   4  -2   6 184.686 72.8170   2
  -4   2  -6 102.694 58.1672  14
  -4  -2  -6 103.244 56.7509   1
   4  -2   6 261.098 76.3846  13
   4   2   6 165.066 54.9829  13
   4   2   6 145.747 57.8462   2
   4  -2   6 152.741 68.0179   3
  -4   2  -6 169.136 75.7147   1
  -4  -2  -7 454.457 105.177   4
   4  -2   7 505.896 136.854  16
   4   2   7 451.884 100.021  16
   4  -2   7 352.744 90.3789   2
  -4   2  -7 534.769 120.124  15
  -4  -2  -7 336.084 97.0891  15
   4   2   7 443.778 105.314   2
  -4   2  -7 485.558 108.229  14
   4  -2   7 266.052 101.084  13
   4   2   7 562.850 114.598  13
  -4   2  -7 322.770 102.134   1
  -4  -2  -7 441.833 117.164   1
  -4  -2  -8-3.81842 37.8433   4
   4   2   8-2.35852 40.2576  16
   4   2   8-35.5268 62.5320   2
  -4  -2  -8 1.80589 64.8661  15
   4   2   8 20.8895 48.5615  13
  -4  -2  -8-120.116 75.9264   1
   4  -3   1 1593.86 170.674   2
  -4   3  -1 2057.20 205.740   1
  -4   3  -1 2056.09 215.854  14
   4  -3   1 1591.65 158.656   6
   4  -3   1 1460.39 166.053   3
   4  -3   2 12.7899 26.2534  16
  -4   3  -2 2.54508 45.6325  15
  -4   3  -2 40.2369 29.0467  14
   4  -3   2 44.3965 34.2961   6
  -4   3  -2 13.3334 42.7665   1
   4  -3   2 31.5681 29.4519   2
   4  -3   2 84.8572 50.6302   3
   4  -3   3 2847.08 226.160  16
  -4   3  -3 2925.86 231.924   1
  -4   3  -3 3029.53 240.076  15
  -4   3  -3 2960.43 235.803  14
   4  -3   3 3057.03 205.703   6
   4  -3   3 2869.71 227.169   3
   4  -3   3 2833.66 221.645   2
   4  -3   4 124.493 62.5921  16
   4   3   4 67.7033 49.9709  16
  -4   3  -4 59.4992 39.9314  15
  -4  -3  -4 61.1681 46.8898   4
  -4  -3  -4 10.8023 34.8489  15
  -4   3  -4 76.2016 45.9954  14
   4  -3   4 75.5441 39.3339   6
  -4  -3  -4 75.2282 38.7487   1
   4  -3   4 156.221 67.8354  13
   4   3   4 132.274 61.6820  13
   4  -3   4 188.629 69.7520   2
  -4   3  -4 130.642 60.1597   1
   4  -3   4 136.113 59.8045   3
   4   3   4 164.341 80.8146   2
  -4  -3  -4 120.421 49.4451   5
  -4   3  -5 349.950 91.7470   1
   4  -3   5 287.296 87.4083  16
   4   3   5 278.815 86.3051  16
  -4  -3  -5 285.136 85.7291   4
  -4   3  -5 315.347 86.2102  15
  -4  -3  -5 333.790 88.9935  15
  -4   3  -5 348.094 93.3230  14
   4  -3   5 327.701 84.6502   2
   4  -3   5 318.213 69.3788  13
   4   3   5 280.616 78.0828  13
   4   3   5 355.174 87.6175   2
   4  -3   5 254.337 74.3801   3
  -4  -3  -5 327.418 76.9473   5
  -4  -3  -5 359.006 92.2754   1
   4  -3   6-45.9126 51.2312  16
   4   3   6 80.8966 57.8605  16
  -4  -3  -6-72.8888 57.0145   4
  -4   3  -6-76.9820 66.3363  15
  -4  -3  -6-3.38102 46.3540  15
   4  -3   6 19.5912 61.2965   2
  -4   3  -6-23.2727 44.7900  14
  -4  -3  -6 16.4506 39.1720   1
   4   3   6 4.66502 34.7755  13
   4   3   6 19.3878 41.8931   2
   4  -3   6-82.9040 49.5154   3
  -4   3  -6 23.5507 49.0278   1
  -4  -3  -6-11.9015 23.5020   5
  -4  -3  -7 452.664 102.636   4
   4  -3   7 191.225 112.431  16
   4   3   7 480.215 98.7467  16
   4  -3   7 337.199 139.206   2
  -4   3  -7 973.336 196.049  15
  -4  -3  -7 461.146 106.701  15
   4   3   7 466.905 111.642   2
  -4   3  -7 822.391 180.471  14
   4   3   7 421.532 103.275  13
  -4   3  -7 547.173 133.317   1
  -4  -3  -7 555.554 124.433   1
  -4  -3  -8 192.395 79.4429   4
   4   3   8 121.605 49.6333  16
   4   3   8 38.4337 59.6404   2
  -4  -3  -8 161.053 64.4394  15
   4   3   8 31.4417 47.6746  13
  -4  -3  -8 142.188 61.4351   1
   4   3   9-55.3937 42.7132  16
   4   3   9-23.3557 70.7195  13
  -4   4  -1 44.8006 48.5054  14
   4  -4   1 9.29129 31.8952   6
   4  -4   1 9.49968 38.8008   2
  -4   4  -1 109.151 51.8935   1
   4  -4   1 4.60483 47.9242   3
   4  -4   2 1062.41 143.482  16
  -4   4  -2 1164.50 150.619   1
  -4   4  -2 1139.05 144.915  15
  -4   4  -2 1083.60 148.509  14
   4  -4   2 1085.01 129.142   6
   4  -4   2 1022.91 150.846   3
   4  -4   2 990.441 134.893   2
   4  -4   3 441.491 92.1392  16
  -4   4  -3 510.108 96.7120  15
  -4   4  -3 420.542 86.7081  14
   4  -4   3 437.088 84.4260   6
   4  -4   3 528.965 100.653   2
  -4   4  -3 363.052 91.3154   1
   4  -4   3 209.004 91.9081   3
   4  -4   4 698.500 117.854  16
  -4   4  -4 715.710 120.097   1
  -4   4  -4 756.384 118.148  15
  -4  -4  -4 699.747 128.394   4
   4  -4   4 726.024 113.752   6
  -4   4  -4 684.922 109.344  14
   4  -4   4 687.643 114.387   2
  -4  -4  -4 525.883 113.234   1
   4   4   4 108.538 139.485  13
   4  -4   4 526.429 119.629   3
   4   4   4 656.916 120.771   2
  -4  -4  -4 622.722 110.547   5
   4  -4   5 671.224 123.888  16
   4   4   5 542.018 101.994  16
  -4  -4  -5 571.391 117.453   4
  -4   4  -5 757.102 123.639  15
  -4  -4  -5 630.253 120.361  15
   4  -4   5 663.476 117.419   2
  -4   4  -5 689.699 127.040  14
   4   4   5 72.6894 141.698  13
   4   4   5 746.039 124.794   2
   4  -4   5 583.426 117.001   3
  -4   4  -5 624.753 105.810  11
  -4  -4  -5 733.101 119.309   5
  -4  -4  -5 623.326 124.440   1
  -4   4  -5 701.136 120.556   1
   4  -4   6 196.434 71.2218  16
   4   4   6 199.710 56.5659  16
  -4  -4  -6 20.0473 56.6502   4
   4  -4   6 188.589 87.7627   2
  -4   4  -6 206.442 80.9500  15
  -4  -4  -6 251.818 78.5690  15
  -4  -4  -6 169.968 61.4673   1
  -4   4  -6 335.851 119.217  14
   4   4   6 242.197 69.1910   2
   4   4   6 8.00340 83.6019  13
   4  -4   6 220.900 93.9767   3
  -4   4  -6 144.272 71.9569   1
  -4  -4  -6 175.601 54.8481   5
  -4  -4  -7 573.822 126.496   4
   4   4   7 495.895 105.874  16
  -4  -4  -7 548.071 117.325  15
   4   4   7 670.958 127.696   2
  -4  -4  -7 500.630 112.194   5
  -4  -4  -7 600.818 126.292   1
  -4  -4  -8-10.9733 52.3825   4
   4   4   8 19.2799 34.0218  16
   4   4   8-29.5727 83.7630   2
  -4  -4  -8-84.9421 84.2294  15
   4   4   8-20.1774 75.4010  13
  -4  -4  -8 19.9191 36.9701   1
   4   4   8-48.3048 75.7319  12
   4   4   9-23.8114 50.1556  16
   4   4   9 23.0662 60.9521  13
  -4   5  -1 444.968 100.038   1
  -4   5  -1 624.292 132.275  14
   4  -5   1 389.773 87.1043   6
   4  -5   1 435.455 99.2888   2
   4  -5   1 439.976 110.707   3
  -4   5  -2 2583.68 222.516   1
   4  -5   2 2194.10 207.563  16
  -4   5  -2 2440.54 213.617  15
  -4   5  -2 2601.19 241.541  14
   4  -5   2 2646.24 223.473   6
   4  -5   2 2439.03 212.886   2
   4  -5   3 47.2743 40.9978  16
  -4   5  -3 15.6294 39.5260  15
  -4   5  -3 51.0013 38.2336  14
  -4   5  -3 31.3700 35.2312   1
   4  -5   3 25.6183 39.3097   2
   4  -5   3 73.8252 45.6311   6
   4  -5   3 18.4474 39.1683   3
   4  -5   4 104.126 49.8605  16
  -4   5  -4-85.3953 66.6135  15
   4  -5   4 61.4762 47.4777   2
  -4   5  -4 33.8572 45.5970  14
   4  -5   4 48.9524 42.4945   6
   4  -5   4-8.77389 47.5682   3
  -4   5  -4 41.6041 34.9499  11
  -4   5  -4-22.1233 43.1579   1
   4  -5   5 9.50383 47.7143  16
   4  -5   5 45.8035 46.3826   2
  -4  -5  -5 20.3782 58.7309   4
  -4   5  -5-116.509 65.1744  15
  -4   5  -5-85.0124 63.4132  14
   4  -5   5-56.7821 127.201   6
   4   5   5 0.75297 50.3787  13
   4   5   5-23.2173 49.1832   2
   4  -5   5-10.2366 43.5275   3
  -4   5  -5 112.995 82.5471   1
  -4   5  -5 33.7270 61.2438  11
  -4  -5  -5-66.7959 67.9682   1
  -4  -5  -5-33.2353 41.6396   5
   4  -5   6-46.1752 97.1513  16
   4   5   6 22.7945 29.5314  16
  -4  -5  -6-49.5319 54.0109   1
  -4  -5  -6 77.7388 64.2969   4
  -4   5  -6-68.3815 71.5679  15
  -4   5  -6-117.951 78.1590  14
   4   5   6 17.2335 46.6453   2
   4   5   6-9.03872 37.5056  13
   4  -5   6 6.86170 47.6457   3
  -4  -5  -6 81.3040 46.1372   5
  -4  -5  -7-22.4265 71.6349   4
   4   5   7-54.7758 37.8182  16
  -4  -5  -7-26.4289 54.4614  15
   4   5   7-25.3999 42.6993   2
   4   5   7 40.0572 49.9204  13
  -4  -5  -7-60.5017 48.4522   5
  -4  -5  -7 120.791 84.1926   1
  -4  -5  -8-7.80514 75.0379   4
   4   5   8-68.9407 37.2299  16
   4   5   8-61.4363 98.8572   2
  -4  -5  -8 17.1905 69.9547  15
   4   5   8-71.5131 60.9594  13
  -4  -5  -8-123.081 97.6779   1
   4   5   8-44.9292 59.5951  12
  -4  -5  -8-40.7312 45.6103   5
  -4   6  -1-21.7424 54.5699  14
   4  -6   1 65.8093 51.3018   6
   4  -6   1-61.3493 56.6304   2
   4  -6   1-50.9793 37.5105   3
  -4   6  -1-12.2598 34.7031   1
  -4   6  -2 159.432 64.7055  14
  -4   6  -2 291.786 85.0150   1
   4  -6   2 324.979 82.8795   2
   4  -6   2 134.787 62.3407   6
   4  -6   2 87.4976 89.6880   3
   4  -6   3 51.9568 43.9970  16
  -4   6  -3 39.4609 38.4999  15
   4  -6   3 72.0384 49.5597   2
  -4   6  -3 184.142 79.8259  14
   4  -6   3 90.1726 61.0929   6
   4  -6   3-0.77473 49.9554   3
  -4   6  -3 196.086 69.2999  11
  -4   6  -3 108.711 37.8673   1
   4  -6   4-50.9548 52.8454   2
  -4   6  -4 22.6036 39.2744  15
  -4   6  -4-3.66673 65.1295  14
   4  -6   4 17.6481 42.7706   6
   4  -6   4-132.913 63.9971   3
  -4   6  -4 16.3601 44.9251   1
  -4   6  -4 6.37710 49.9870  11
   4  -6   5-115.850 75.6632  16
  -4  -6  -5-53.7836 42.3974   4
  -4   6  -5-31.8823 44.5711  15
  -4   6  -5 7.83547 54.2735  14
   4   6   5-15.7499 81.2112  13
   4  -6   5 29.2506 68.3129   3
  -4   6  -5-84.6618 83.1557  11
  -4  -6  -5 13.1259 45.2304   5
  -4  -6  -6 152.042 111.643   1
  -4  -6  -6 178.931 79.5120   4
  -4   6  -6 71.2944 73.5406  14
   4   6   6 51.9986 83.6983  13
  -4  -6  -6 139.855 51.0406   5
  -4  -6  -7 27.5241 44.2581   4
   4   6   7 10.7841 71.7565  13
  -4  -6  -7-100.834 92.8970   1
  -4  -6  -7 34.8183 44.0014   5
   4  -7   0 313.354 105.187   6
   4  -7   0 339.719 133.138   3
  -4   7  -1 115.076 59.9764  14
   4  -7   1 37.9232 39.1463   6
   4  -7   1 50.7408 49.1658   3
   4  -7   2 46.1379 52.9272   2
  -4   7  -2 35.6778 65.1914  14
   4  -7   2-14.4162 32.3666   6
   4  -7   2 47.5257 37.1096   3
   4  -7   3 94.1600 71.9642  16
   4  -7   3-71.6108 94.7841   2
  -4   7  -3-81.0775 76.8655  14
   4  -7   3 34.3004 45.0260   6
   4  -7   3 26.2644 59.2967   3
  -4   7  -3 72.3147 69.4626  11
   4  -7   4-46.9551 83.6321  16
  -4   7  -4 71.0327 97.5688  15
  -4   7  -4 47.9253 84.2846  14
  -4   7  -4 15.3727 54.5716  11
  -4   7  -5-258.102 142.488  14
   4  -7   5 51.5456 44.0226   3
  -4  -7  -6 172.099 79.4225   4
   4   7   6 40.5397 59.9922  13
  -4  -7  -6 141.593 61.4398   5
   4  -8   0-5.82595 53.2750   6
   4  -8   0 65.6374 81.0547   3
  -4   8  -1 194.615 92.2724  14
   4  -8   1 224.715 105.047   6
   4  -8   1 40.7779 96.0880   3
  -4   8  -2 242.855 95.4615  14
   4  -8   2 102.110 73.4440   6
   4  -8   2 95.8649 63.1665   3
  -4   8  -3 160.625 54.5280  14
   4  -8   3 167.192 83.8664   6
   4  -8   3 66.2730 83.8560   3
  -4   8  -3 323.099 113.129  11
  -4   8  -4 125.466 69.4391  14
   4  -8   4-41.3214 83.3194   6
   4  -8   4 248.779 99.8570   3
  -4   8  -4 48.5281 83.7999  11
   4  -9   0 27.3580 84.1116   6
  -5   0  -4 107.519 62.5585   1
   5   0   4 170.507 92.8004   2
  -5   0  -5 52.5426 39.2053   4
   5   0   5 178.707 94.6318  16
  -5   0  -5 15.6860 48.2559  15
   5   0   5-44.0074 61.4300   2
   5   0   5-70.5500 75.7912   3
  -5   0  -5 104.138 69.9306   1
  -5   0  -6-2.57545 37.2411   4
  -5   0  -6 38.5145 43.5872   1
  -5   0  -6-9.84650 54.7429  15
  -5   0  -6 100.893 83.2569  14
   5   0   6-10.2635 38.9952   2
   5   0   6 27.7208 58.1851  13
   5   0   6 14.1397 43.3265   3
  -5   0  -7-67.3061 84.9803   4
   5   0   7 16.0053 42.4406  16
  -5   0  -7 42.6603 71.7719  15
   5   0   7 14.6964 57.6074   2
   5   0   7-109.856 79.4908  13
  -5   0  -7-83.9246 68.8935   1
   5  -1   4 248.460 95.2655  16
  -5   1  -4 381.570 112.704  15
   5  -1   4 304.500 101.104   2
   5  -1   4 313.669 91.3644   3
  -5   1  -4 321.285 90.0644   1
  -5   1  -5-26.7392 40.7840   4
   5  -1   5 21.7697 53.5312  16
   5   1   5 93.8904 44.6685  16
  -5  -1  -5-36.7431 40.3355   4
  -5   1  -5-316.046 150.139  15
  -5  -1  -5-17.9455 48.8125  15
  -5   1  -5-38.4442 52.6038  14
   5  -1   5 171.758 89.0293   2
   5   1   5 64.3049 80.7609   2
  -5   1  -5-174.877 87.9403   1
   5  -1   5-15.9911 40.0547   3
  -5  -1  -5 46.1900 76.1288   1
  -5   1  -6-61.8073 49.1068   4
  -5  -1  -6 17.1433 38.4351   4
  -5   1  -6 7.28101 53.4245   1
   5  -1   6-72.1518 57.1086  16
   5   1   6 0.23172 70.5746  16
  -5   1  -6-117.578 95.6102  15
  -5  -1  -6-68.3237 69.2773  15
  -5  -1  -6-123.746 86.4047   1
  -5   1  -6-3.53055 61.1253  14
   5  -1   6-88.0161 60.6911   2
   5   1   6 107.110 61.4729   2
   5   1   6 70.4766 84.6249  13
   5  -1   6-59.1084 68.5203  13
   5  -1   6 75.4458 47.0835   3
   5  -2   4 212.398 84.5079  16
  -5   2  -4 151.433 66.1776  15
  -5   2  -4 318.100 102.706  14
   5  -2   4 177.433 80.0805   2
   5  -2   4 18.9740 44.3815   3
  -5   2  -4 215.127 93.0189   1
   5  -2   5-51.2132 57.0296  16
  -5   2  -5 39.8823 45.4637  15
  -5   2  -5-64.5095 56.3217  14
   5  -2   5-21.3861 37.5128   2
  -5   2  -5 53.4176 61.2266   1
   5  -2   5-87.5405 53.1487   3
  -5  -2  -5 14.5915 44.8230   1
  -5  -2  -6 29.7509 36.6965   4
   5  -2   6 95.3545 85.9559  16
   5   2   6 46.1282 57.2926  16
  -5   2  -6 89.6534 57.1768  15
  -5  -2  -6-37.2199 43.2298  15
   5  -2   6 65.0033 46.4822   2
  -5   2  -6 6.99240 43.9360  14
  -5  -2  -6 18.9308 38.2288   1
   5   2   6 28.5163 51.7777   2
   5   2   6 10.3161 45.3776  13
   5  -2   6-13.2942 36.8510   3
  -5   2  -6-39.4556 47.0371   1
   5  -3   3 126.028 64.5030   2
  -5   3  -3 133.210 82.5514   1
   5  -3   4-35.9693 52.8023  16
  -5   3  -4 194.205 77.3112  15
  -5   3  -4 88.9130 38.1713  14
   5  -3   4-26.0907 65.3632   2
  -5   3  -4 50.9327 49.2747   1
   5  -3   4 268.641 130.470   3
   5  -3   5 159.423 64.3341  16
  -5   3  -5 55.7709 43.2949   1
  -5   3  -5 106.314 73.4220  15
  -5   3  -5 60.0053 59.3102  14
   5  -3   5-31.1800 70.9140   2
   5  -3   5 4.35697 43.0403   3
   5  -3   6 66.9547 51.5266  16
  -5  -3  -6 248.542 98.9212   4
  -5   3  -6 115.868 62.8513  15
   5  -3   6 178.183 75.8480   2
  -5   3  -6 137.452 71.5271  14
  -5  -3  -6 136.637 69.3766   1
   5   3   6 132.511 72.5708   2
   5   3   6 13.6920 74.5832  13
   5  -3   6 129.000 60.6757   3
  -5   3  -6 53.2150 61.2055   1
  -5   4  -3 204.291 81.4339  14
   5  -4   3 199.219 85.8858   2
   5  -4   3 46.4159 95.8924   3
  -5   4  -3 201.922 91.5641   1
   5  -4   4-20.3746 54.4934  16
  -5   4  -4 41.4877 37.4658  15
  -5   4  -4-49.6935 59.4790   1
  -5   4  -4 53.9671 48.2024  14
   5  -4   4 50.8694 63.8996   2
   5  -4   4 104.951 77.9436   3
   5  -4   5-18.9668 60.4773  16
  -5   4  -5 101.222 83.8689  15
   5  -4   5 32.0844 44.8797   2
  -5   4  -5 46.2435 55.1767  14
   5  -4   5-4.73720 58.7668   3
  -5   4  -5 76.0454 61.8083   1
  -5   5  -3-5.78009 75.7939  14
   5  -5   3 31.2379 53.3800   2
  -5   5  -3 31.2878 72.4815   1
   5  -5   3 13.0054 51.5851   3
   5  -5   4 4.60397 47.6680  16
  -5   5  -4-60.3921 77.5898  15
   5  -5   4-89.0089 82.5544   2
  -5   5  -4-59.4140 102.828  14
   5  -5   4-19.3208 61.3299   3
  -5   5  -4-52.4539 69.4255   1
   0   0   0    0.00    0.00   0

TITL instrument in P2(1)/c
REM P2(1)/c (#14 in standard setting)
CELL 0.71073   5.085147  10.165368  13.750685  90.0000  98.9340  90.0000
ZERR    4.00   0.001467   0.001298   0.013117   0.0000   0.0582   0.0000
LATT  1
SYMM -x, y+1/2,-z+1/2
SFAC C H N O
UNIT 16.00 28.00 20.00 12.00
TREF
HKLF 4
END
;
_shelx_hkl_checksum              10579
_olex2_submission_special_instructions 'No special instructions were received'
_oxdiff_exptl_absorpt_empirical_details
;
Empirical correction (ABSPACK) includes:
- Absorption correction using spherical harmonics
- Frame scaling
;
_oxdiff_exptl_absorpt_empirical_full_max 6.915
_oxdiff_exptl_absorpt_empirical_full_min 0.736
loop_
_space_group_symop_operation_xyz
'x, y, z'
'-x, y+1/2, -z+1/2'
'-x, -y, -z'
'x, -y-1/2, z-1/2'
loop_
_atom_site_label
_atom_site_type_symbol
_atom_site_fract_x
_atom_site_fract_y
_atom_site_fract_z
_atom_site_U_iso_or_equiv
_atom_site_adp_type
_atom_site_occupancy
_atom_site_site_symmetry_order
_atom_site_calc_flag
_atom_site_refinement_flags_posn
_atom_site_refinement_flags_adp
_atom_site_refinement_flags_occupancy
_atom_site_disorder_assembly
_atom_site_disorder_group
C1 C 0.1059(15) 0.7904(5) 0.5377(9) 0.058(9) Uani 1 1 d . . . . .
H1 H -0.041590 0.829834 0.500607 0.069 Uiso 1 1 calc R . . . .
C2 C 0.3226(16) 0.8606(4) 0.5880(10) 0.057(9) Uani 1 1 d . . . . .
H2 H 0.344256 0.951404 0.590976 0.068 Uiso 1 1 calc R . . . .
C3 C 0.4921(16) 0.7690(4) 0.6309(10) 0.065(8) Uani 1 1 d . . . . .
H3 H 0.655024 0.784108 0.670404 0.078 Uiso 1 1 calc R . . . .
C4 C 0.4765(15) 0.5240(4) 0.6291(9) 0.040(9) Uani 1 1 d . . . . .
N1 N 0.3793(12) 0.6488(3) 0.6055(8) 0.056(9) Uani 1 1 d . . . . .
N2 N 0.1349(12) 0.6626(3) 0.5489(7) 0.072(7) Uani 1 1 d . . . . .
N3 N 0.3369(12) 0.4248(4) 0.5918(8) 0.072(8) Uani 1 1 d . . . . .
H3A H 0.395274 0.346042 0.603375 0.086 Uiso 1 1 calc R . . . .
H3B H 0.185579 0.437516 0.555373 0.086 Uiso 1 1 calc R . . . .
N4 N 0.7062(12) 0.5106(4) 0.6846(7) 0.063(7) Uani 1 1 d . . . . .
H4A H 0.771089 0.433387 0.697819 0.076 Uiso 1 1 calc R . . . .
H4B H 0.793389 0.578994 0.708125 0.076 Uiso 1 1 calc R . . . .
N5 N 0.2441(14) 0.6473(4) 0.8261(9) 0.074(9) Uani 1 1 d . . . . .
O1 O 0.4830(9) 0.6734(3) 0.8567(6) 0.076(6) Uani 1 1 d . . . . .
O2 O 0.1661(10) 0.5335(3) 0.8248(7) 0.095(8) Uani 1 1 d . . . . .
O3 O 0.0853(10) 0.7378(3) 0.7937(7) 0.068(7) Uani 1 1 d . . . . .
loop_
_atom_site_aniso_label
_atom_site_aniso_U_11
_atom_site_aniso_U_22
_atom_site_aniso_U_33
_atom_site_aniso_U_23
_atom_site_aniso_U_13
_atom_site_aniso_U_12
C1 0.046(7) 0.043(3) 0.08(2) 0.002(4) -0.005(11) 0.004(3)
C2 0.060(7) 0.039(3) 0.07(2) -0.008(3) -0.002(11) -0.001(3)
C3 0.059(7) 0.043(3) 0.085(19) -0.010(4) -0.018(10) -0.008(3)
C4 0.035(6) 0.037(3) 0.05(2) 0.004(4) 0.008(11) -0.004(2)
N1 0.040(6) 0.037(3) 0.08(2) 0.002(3) -0.018(10) -0.0022(19)
N2 0.052(5) 0.038(3) 0.112(17) -0.003(3) -0.028(9) 0.002(2)
N3 0.055(6) 0.034(2) 0.114(18) -0.004(3) -0.028(9) 0.004(2)
N4 0.049(5) 0.053(3) 0.078(17) 0.002(3) -0.020(9) 0.002(2)
N5 0.055(6) 0.046(3) 0.11(2) -0.004(3) -0.027(11) 0.001(2)
O1 0.047(4) 0.044(2) 0.123(15) -0.004(3) -0.026(7) -0.0048(17)
O2 0.064(5) 0.044(2) 0.162(19) -0.001(3) -0.031(10) -0.015(2)
O3 0.045(5) 0.056(3) 0.098(17) 0.011(3) -0.008(9) 0.0059(19)
loop_
_atom_type_symbol
_atom_type_description
_atom_type_scat_dispersion_real
_atom_type_scat_dispersion_imag
_atom_type_scat_source
C C 0.0033 0.0016 'International Tables Vol C Tables 4.2.6.8 and 6.1.1.4'
H H 0.0000 0.0000 'International Tables Vol C Tables 4.2.6.8 and 6.1.1.4'
N N 0.0061 0.0033 'International Tables Vol C Tables 4.2.6.8 and 6.1.1.4'
O O 0.0106 0.0060 'International Tables Vol C Tables 4.2.6.8 and 6.1.1.4'
loop_
_geom_angle_atom_site_label_1
_geom_angle_atom_site_label_2
_geom_angle_atom_site_label_3
_geom_angle
_geom_angle_site_symmetry_1
_geom_angle_site_symmetry_3
_geom_angle_publ_flag
N2 C1 C2 112.3(4) . . ?
C3 C2 C1 105.4(4) . . ?
C2 C3 N1 106.9(4) . . ?
N3 C4 N1 118.0(4) . . ?
N3 C4 N4 122.6(4) . . ?
N4 C4 N1 119.4(4) . . ?
C3 N1 C4 129.6(4) . . ?
N2 N1 C3 111.2(3) . . ?
N2 N1 C4 119.2(3) . . ?
C1 N2 N1 104.1(4) . . ?
O1 N5 O3 120.0(4) . . ?
O2 N5 O1 120.1(4) . . ?
O2 N5 O3 119.9(5) . . ?
loop_
_geom_bond_atom_site_label_1
_geom_bond_atom_site_label_2
_geom_bond_distance
_geom_bond_site_symmetry_2
_geom_bond_publ_flag
C1 C2 1.401(7) . ?
C1 N2 1.314(6) . ?
C2 C3 1.342(7) . ?
C3 N1 1.372(6) . ?
C4 N1 1.382(6) . ?
C4 N3 1.293(6) . ?
C4 N4 1.300(6) . ?
N1 N2 1.367(6) . ?
N5 O1 1.251(6) . ?
N5 O2 1.223(5) . ?
N5 O3 1.259(5) . ?

_cod_database_fobs_code 2108916
