#------------------------------------------------------------------------------
#$Date: 2021-02-05 16:52:16 +0200 (Fri, 05 Feb 2021) $
#$Revision: 261797 $
#$URL: file:///home/coder/svn-repositories/cod/cif/2/10/87/2108744.cif $
#------------------------------------------------------------------------------
#
# This file is available in the Crystallography Open Database (COD),
# http://www.crystallography.net/. The original data for this entry
# were provided by IUCr Journals, http://journals.iucr.org/.
#
# The file may be used within the scientific community so long as
# proper attribution is given to the journal article from which the
# data were obtained.
#
data_2108744
loop_
_publ_author_name
'\/Lawniczak, Pawe\/l'
'Pogorzelec-Glaser, Katarzyna'
'Pietraszko, Adam'
'Hilczer, Bo\.zena'
_publ_section_title
;
 Effect of disordered imidazole substructure on proton dynamics in
 imidazolium malonic acid salt
;
_journal_issue                   1
_journal_name_full               'Acta Crystallographica Section B'
_journal_page_first              31
_journal_page_last               40
_journal_paper_doi               10.1107/S2052520620014365
_journal_volume                  77
_journal_year                    2021
_chemical_formula_moiety         'C6 H5 O8, 3(C3 H5 N2)'
_chemical_formula_sum            'C7.5 H10 N3 O4'
_chemical_formula_weight         206.18
_space_group_crystal_system      triclinic
_space_group_IT_number           2
_space_group_name_Hall           '-P 1'
_space_group_name_H-M_alt        'P -1'
_atom_sites_solution_hydrogens   difmap
_audit_creation_method           SHELXL-2013
_cell_angle_alpha                116.40(3)
_cell_angle_beta                 101.57(3)
_cell_angle_gamma                91.09(3)
_cell_formula_units_Z            2
_cell_length_a                   6.9800(10)
_cell_length_b                   8.400(2)
_cell_length_c                   9.230(2)
_cell_measurement_reflns_used    3296
_cell_measurement_temperature    295(2)
_cell_measurement_theta_max      56.1
_cell_measurement_theta_min      4
_cell_volume                     471.3(2)
_computing_cell_refinement       'CrysAlis v171.33.42'
_computing_data_collection       'CrysAlis v171.33.42'
_computing_data_reduction        'CrysAlis v171.33.42'
_computing_molecular_graphics    'Diamond 3.2'
_computing_structure_refinement  'SHELXL-2013 (Sheldrick, 2013)'
_computing_structure_solution    'SHELXS-97 (Sheldrick, 1990)'
_diffrn_ambient_temperature      293(2)
_diffrn_measured_fraction_theta_full 0.971
_diffrn_measured_fraction_theta_max 0.866
_diffrn_measurement_device_type  'Xcalibur-Oxford Diffraction'
_diffrn_measurement_method       CCD
_diffrn_radiation_type           MoK\a
_diffrn_radiation_wavelength     0.71073
_diffrn_reflns_av_R_equivalents  0.0243
_diffrn_reflns_av_unetI/netI     0.0601
_diffrn_reflns_Laue_measured_fraction_full 0.971
_diffrn_reflns_Laue_measured_fraction_max 0.866
_diffrn_reflns_limit_h_max       9
_diffrn_reflns_limit_h_min       -8
_diffrn_reflns_limit_k_max       11
_diffrn_reflns_limit_k_min       -11
_diffrn_reflns_limit_l_max       9
_diffrn_reflns_limit_l_min       -12
_diffrn_reflns_number            3296
_diffrn_reflns_point_group_measured_fraction_full 0.971
_diffrn_reflns_point_group_measured_fraction_max 0.866
_diffrn_reflns_theta_full        25.242
_diffrn_reflns_theta_max         28.516
_diffrn_reflns_theta_min         3.447
_diffrn_source                   'fine-focus sealed tube'
_exptl_absorpt_coefficient_mu    0.119
_exptl_absorpt_correction_T_max  1.342
_exptl_absorpt_correction_T_min  0.9231
_exptl_absorpt_correction_type   numerical
_exptl_absorpt_process_details   'CrysAlis v171.33.42'
_exptl_crystal_colour            colorless
_exptl_crystal_density_diffrn    1.453
_exptl_crystal_density_method    'not measured'
_exptl_crystal_description       unshaped
_exptl_crystal_F_000             216
_exptl_crystal_size_max          0.34
_exptl_crystal_size_mid          0.32
_exptl_crystal_size_min          0.21
_refine_diff_density_max         0.209
_refine_diff_density_min         -0.212
_refine_diff_density_rms         0.042
_refine_ls_extinction_coef       0.040(2)
_refine_ls_extinction_expression Fc^*^=kFc[1+0.001xFc^2^\l^3^/sin(2\q)]^-1/4^
_refine_ls_extinction_method     SHELXL
_refine_ls_goodness_of_fit_ref   0.954
_refine_ls_hydrogen_treatment    refall
_refine_ls_matrix_type           full
_refine_ls_number_parameters     204
_refine_ls_number_reflns         2075
_refine_ls_number_restraints     6
_refine_ls_restrained_S_all      0.953
_refine_ls_R_factor_all          0.0731
_refine_ls_R_factor_gt           0.0376
_refine_ls_shift/su_max          0.020
_refine_ls_shift/su_mean         0.023
_refine_ls_structure_factor_coef Fsqd
_refine_ls_weighting_details
;
 w=1/[\s^2^(Fo^2^)+(0.0322P)^2^]
 where P=(Fo^2^+2Fc^2^)/3
;
_refine_ls_weighting_scheme      calc
_refine_ls_wR_factor_gt          0.0664
_refine_ls_wR_factor_ref         0.0768
_reflns_Friedel_coverage         0.000
_reflns_number_gt                1409
_reflns_number_total             2075
_reflns_threshold_expression     'I > 2\s(I)'
_cod_data_source_file            lo5078sup1.cif
_cod_data_source_block           m295
_cod_depositor_comments
'Adding full bibliography for 2108742--2108745.cif.'
_cod_original_formula_sum        'C7.50 H10 N3 O4'
_cod_database_code               2108744
_cod_database_fobs_code          2108744
_shelx_space_group_comment
;
The symmetry employed for this shelxl refinement is uniquely defined
by the following loop, which should always be used as a source of
symmetry information in preference to the above space-group names.
They are only intended as comments.
;
_shelxl_version_number           2013-2
_shelx_res_file
;
TITL k1000 in P-1
CELL 0.71073   6.980   8.400   9.230 116.40 101.57  91.09
ZERR    2.00   0.001   0.002   0.002   0.03   0.03   0.03
LATT  1
SFAC C H N O
UNIT 15 20 6 8

L.S. 31
DAMP  2500
ACTA
BOND $H
FMAP 2
PLAN 20
HTAB 2.5
EQIV $1 -x, -y, -z+1
HTAB O4 O3_$1
HTAB O4 O4_$1
EQIV $2 -x+1, -y+1, -z+1
HTAB C2 O1_$2
EQIV $3 -x+1, -y, -z+1
HTAB C2 O3_$3
HTAB N1A1 O1
EQIV $4 -x, -y+1, -z+1
HTAB C1A O4_$4
EQIV $5 x, y+1, z+1
HTAB N1A2 O2_$5
EQIV $6 -x+1, -y+1, -z+2
HTAB C2A O3_$6
HTAB C3A O3
EQIV $7 x, y, z+1
HTAB C3B O1_$7
HTAB C2B O2_$4
HTAB C2B O4_$5
HTAB N1B2 O1_$4
HTAB N1B2 O2_$4
HTAB N1B1 O1_$7
HTAB N1B1 O2_$7
HTAB C1B O3
HTAB C1B O4_$1
MPLA C1B C2B C3B N1B1 N1B2
MPLA C1 C2 O1 O2
MPLA C1A C2A C3A N1A1 N1A2
MPLA C1B C2B C3B N1B1 N1B2
MPLA C2 C3 O3 O4
MPLA C1A C2A C3A N1A1 N1A2
MPLA C1 C2 O1 O2
MPLA C2 C3 O3 O4

WGHT    0.032200
EXTI    0.040409
FVAR       0.42337
O1    4    0.222124    0.424102    0.388274    11.00000    0.02646    0.01546 =
         0.01607    0.00515    0.00424    0.00605
O2    4    0.216022    0.171588    0.162604    11.00000    0.02786    0.01859 =
         0.01171    0.00457    0.00310    0.00616
O3    4    0.334759    0.147698    0.651857    11.00000    0.03060    0.02976 =
         0.01408    0.01228   -0.00088    0.00107
O4    4    0.086830    0.058455    0.427204    11.00000    0.02497    0.03690 =
         0.02168    0.02050   -0.00299   -0.00818
C1    1    0.267331    0.267074    0.317247    11.00000    0.01476    0.01719 =
         0.01629    0.00865    0.00522    0.00061
C2    1    0.387972    0.193575    0.424546    11.00000    0.01751    0.01910 =
         0.01689    0.00902    0.00132    0.00251
C3    1    0.264406    0.131130    0.512445    11.00000    0.02300    0.01239 =
         0.01680    0.00685    0.00200    0.00461
FLAT  N1A1 C1A N1A2 C2A C3A
N1A1  3    0.291566    0.626634    0.717324    11.00000    0.02135    0.01577 =
         0.01227    0.00483    0.00279    0.00287
C1A   1    0.231381    0.787565    0.787613    11.00000    0.01743    0.01785 =
         0.01604    0.00824    0.00335    0.00130
N1A2  3    0.299762    0.856711    0.951511    11.00000    0.01901    0.01558 =
         0.01431    0.00450    0.00363    0.00234
C2A   1    0.406501    0.735677    0.985993    11.00000    0.02014    0.02073 =
         0.01609    0.00930    0.00206    0.00198
C3A   1    0.400744    0.592290    0.839787    11.00000    0.02102    0.01769 =
         0.01772    0.00841    0.00315    0.00448

FLAT  N1B1 C1B N1B2 C2B C3B
DFIX  0.98 0.05 N1B1 H1B1 N1B2 H1B2
N1B1  3    0.070174    0.407987    1.049677    10.50000    0.02195    0.01441 =
         0.01968    0.00955    0.00687    0.00633
C1B   1    0.004413    0.378418    0.891251    10.50000    0.02436    0.01427 =
         0.01873    0.01292    0.00399    0.00758
N1B2  3   -0.061981    0.525145    0.892518    10.50000    0.02097    0.01534 =
         0.01803    0.01117    0.00457    0.00807
C2B   1   -0.038061    0.653968    1.054600    10.50000    0.02350    0.01402 =
         0.01894    0.00782    0.00568    0.00654
C3B   1    0.043270    0.579446    1.150585    10.50000    0.02221    0.01677 =
         0.01797    0.01343    0.00437    0.00839

H1A1  2    0.267276    0.551627    0.602494    11.00000    0.04536
H1A   2    0.150666    0.848857    0.729439    11.00000    0.02325
H1A2  2    0.279750    0.970370    1.036482    11.00000    0.04838
H2A   2    0.468131    0.761356    1.096260    11.00000    0.02176
H3A   2    0.455469    0.487033    0.816785    11.00000    0.02000
H3B   2    0.080244    0.625293    1.276088    10.50000    0.01552
H2B   2   -0.072748    0.752708    1.070708    10.50000    0.02759
H1B2  2   -0.116398    0.534558    0.789930    10.50000    0.04179
H1B1  2    0.124505    0.319051    1.091638    10.50000    0.04504
H1B   2    0.008369    0.272979    0.789508    10.50000    0.05785
H4    2    0.000000    0.000000    0.500000    10.50000    0.09374
H21   2    0.491325    0.285013    0.504823    11.00000    0.02203
H22   2    0.448455    0.087220    0.354963    11.00000    0.02320
HKLF 4

REM  k1000 in P-1
REM R1 =  0.0376 for    1409 Fo > 4sig(Fo)  and  0.0731 for all    2075 data
REM    204 parameters refined using      6 restraints

END

WGHT      0.0312      0.0000

REM Instructions for potential hydrogen bonds
HTAB N1A1 O1
HTAB C1A O4_$4
HTAB N1A2 O2_$5
HTAB C2A O3_$6
HTAB C3A O3
HTAB C3B O1_$7
HTAB C2B O2_$4
HTAB C2B O4_$5
HTAB N1B2 O1_$4
HTAB N1B2 O2_$4
HTAB N1B1 O1_$7
HTAB N1B1 O2_$7
HTAB C1B O3
HTAB C1B O4_$1
HTAB O4 O3_$1
HTAB C2 O1_$2
HTAB C2 O3_$3

REM Highest difference peak  0.209,  deepest hole -0.212,  1-sigma level  0.042
Q1    1   0.3241  0.2120  0.3667  11.00000  0.05    0.21
Q2    1   0.3452  0.6327  0.9201  11.00000  0.05    0.18
Q3    1   0.3214  0.7380  0.7438  11.00000  0.05    0.18
Q4    1   0.3989 -0.0475  0.2271  11.00000  0.05    0.17
Q5    1   0.3226  0.7852  0.9806  11.00000  0.05    0.16
Q6    1   0.0250 -0.1046  0.5190  11.00000  0.05    0.15
Q7    1   0.3215  0.1998  0.4763  11.00000  0.05    0.15
Q8    1   0.3241  0.5976  0.7922  11.00000  0.05    0.15
Q9    1   0.2141  0.6858  0.7579  11.00000  0.05    0.15
Q10   1   0.3341  0.3836  0.5251  11.00000  0.05    0.15
Q11   1   0.1790  0.8542  0.6217  11.00000  0.05    0.14
Q12   1  -0.0830  0.8479  1.1763  11.00000  0.05    0.14
Q13   1  -0.1487  0.5390  0.6954  11.00000  0.05    0.14
Q14   1   0.4210  0.4185  0.7617  11.00000  0.05    0.14
Q15   1   0.3876  0.7110  1.0664  11.00000  0.05    0.14
Q16   1   0.4653  0.0973  0.7419  11.00000  0.05    0.13
Q17   1   0.1282 -0.1715  0.5016  11.00000  0.05    0.13
Q18   1   0.0264  0.0670  0.3373  11.00000  0.05    0.13
Q19   1   0.3219  0.5016  0.4850  11.00000  0.05    0.13
Q20   1   0.4884  0.6935  0.9162  11.00000  0.05    0.13
;
_shelx_res_checksum              54663
_shelx_hkl_file
;
  -8   5  -3    0.51    0.94
  -8   0  -2    0.81    0.91
  -8   0  -3    1.09    1.05
  -8  -1   0    3.21    1.00
  -8  -1  -1    0.50    0.96
  -8  -1  -2    4.49    1.23
  -8  -2   3    1.02    0.80
  -8  -2   2    6.28    1.24
  -8  -2   1    2.33    0.87
  -8  -2   0    4.10    0.87
  -8  -2  -1    4.20    1.15
  -8  -3   5    3.73    1.00
  -8  -3   4   11.79    1.39
  -8  -3   3    0.93    1.03
  -8  -3   2    0.52    0.94
  -8  -3   1    2.94    0.88
  -8  -3   0    9.81    1.47
  -8  -4   6    8.82    1.58
  -8  -4   5    3.15    1.16
  -8  -4   4   19.99    1.69
  -8  -4   3    1.05    0.96
  -8  -4   2    2.21    0.93
  -7   6  -2    4.64    1.35
  -7   6  -3    1.39    1.11
  -7   6  -4    1.25    1.20
  -7   6  -5    0.28    0.84
  -7   5  -3    1.17    0.70
  -7   5  -4    0.39    0.73
  -7   4  -3    1.16    0.73
  -7   2  -5    1.03    0.70
  -7   1  -2    0.64    0.70
  -7   1  -3    2.14    0.86
  -7   1  -4    7.98    1.22
  -7   1  -5    1.29    1.03
  -7   0   0    1.96    0.94
  -7   0  -1    5.70    1.05
  -7   0  -2   12.41    1.35
  -7   0  -3   14.30    1.64
  -7   0  -4   18.48    1.56
  -7  -1   2    0.77    0.59
  -7  -1   1    9.24    1.18
  -7  -1   0    0.65    0.88
  -7  -1  -1    0.43    0.81
  -7  -1  -2   15.02    1.29
  -7  -1  -3    4.61    1.34
  -7  -1  -4   15.74    1.87
  -7  -2   4   22.96    1.45
  -7  -2   3    0.85    0.79
  -7  -2   2    0.68    0.70
  -7  -2   1    1.28    0.83
  -7  -2   0    0.76    0.91
  -7  -2  -1    0.26    0.95
  -7  -2  -2    1.55    0.86
  -7  -2  -3   27.47    1.87
  -7  -3   4    1.44    1.07
  -7  -3   3    5.90    1.17
  -7  -3   2    0.90    0.81
  -7  -3   1    1.16    0.87
  -7  -3   0    6.69    1.24
  -7  -3  -1    0.76    0.75
  -7  -3  -2    2.32    1.24
  -7  -4   4    0.75    0.98
  -7  -4   3    2.27    1.17
  -7  -4   2    0.40    0.98
  -7  -4   1    1.12    1.02
  -7  -4   0    1.36    0.95
  -7  -4  -1    3.08    1.16
  -7  -5   5   27.53    1.87
  -7  -5   4    7.46    1.40
  -7  -5   3    1.88    1.02
  -7  -5   2    0.51    0.89
  -7  -5   1    1.43    1.09
  -7  -6   5    2.24    1.16
  -7  -6   4    1.07    1.25
  -7  -6   3    0.22    0.84
  -6   8  -1    0.84    0.66
  -6   8  -2   -0.12    0.88
  -6   8  -3    0.57    1.03
  -6   7  -2    1.51    1.17
  -6   7  -3   12.23    1.71
  -6   7  -4    0.55    0.77
  -6   7  -5    0.37    1.01
  -6   7  -6    4.60    1.25
  -6   6  -3    4.78    1.15
  -6   6  -4   12.12    1.49
  -6   6  -5    2.13    1.02
  -6   6  -6   10.46    1.69
  -6   5  -3    3.61    1.16
  -6   5  -4    0.50    1.04
  -6   5  -5   17.74    1.46
  -6   4  -3   21.55    1.45
  -6   4  -4    9.24    1.17
  -6   3  -3    1.44    0.62
  -6   3  -5    0.58    0.55
  -6   3  -6    0.60    0.71
  -6   3  -7    2.92    1.03
  -6   2  -3    0.87    0.76
  -6   2  -4    0.56    0.60
  -6   2  -5    5.53    1.09
  -6   2  -6    4.97    1.32
  -6   2  -7    4.45    1.22
  -6   1  -1    0.39    0.48
  -6   1  -2    1.23    0.60
  -6   1  -3    1.38    0.76
  -6   1  -4    3.84    1.06
  -6   1  -5    1.36    0.78
  -6   1  -6    1.99    0.77
  -6   0   2    3.32    0.64
  -6   0   1   13.43    0.94
  -6   0   0   44.28    1.57
  -6   0  -1    4.32    0.80
  -6   0  -2    1.77    0.81
  -6   0  -3    0.25    0.68
  -6   0  -4    0.81    0.84
  -6   0  -5    6.31    1.37
  -6   0  -6    0.06    0.83
  -6  -1   3    0.55    0.57
  -6  -1   2    0.29    0.52
  -6  -1   1   17.29    1.04
  -6  -1   0    2.67    0.93
  -6  -1  -1   39.11    1.65
  -6  -1  -2   21.77    1.59
  -6  -1  -3    3.21    1.03
  -6  -1  -4    0.60    0.93
  -6  -1  -5    2.55    1.23
  -6  -2   3   10.91    1.10
  -6  -2   2    1.00    0.63
  -6  -2   1    0.46    0.45
  -6  -2   0    1.06    0.73
  -6  -2  -1    2.64    0.85
  -6  -2  -2   11.76    1.14
  -6  -2  -3    5.00    1.28
  -6  -2  -4    2.06    1.01
  -6  -3   3  202.10    3.05
  -6  -3   2    0.96    0.79
  -6  -3   1    2.96    1.10
  -6  -3   0    4.52    1.01
  -6  -3  -1    2.38    1.20
  -6  -3  -2    1.46    0.74
  -6  -3  -3    1.23    0.87
  -6  -4   3    2.28    0.77
  -6  -4   2   13.94    1.50
  -6  -4   1    6.27    0.89
  -6  -4   0    1.25    1.02
  -6  -4  -1    1.49    0.84
  -6  -4  -2    0.66    0.85
  -6  -5   4    6.06    1.30
  -6  -5   3    2.03    0.93
  -6  -5   2    0.60    0.82
  -6  -5   1    4.61    1.00
  -6  -5   0    5.08    1.31
  -6  -5  -1    1.15    1.08
  -6  -6   4    1.08    1.02
  -6  -6   3    0.78    1.02
  -6  -6   2    1.59    0.97
  -6  -6   1    2.00    0.84
  -6  -6   0    4.19    1.39
  -6  -7   5    1.49    0.80
  -6  -7   4    2.43    1.21
  -6  -7   3    3.95    1.24
  -6  -7   2    0.55    0.86
  -5   9  -1    6.82    1.24
  -5   9  -2    0.12    0.83
  -5   9  -3    2.35    1.08
  -5   8  -1    2.11    1.14
  -5   8  -2    2.89    1.25
  -5   8  -3    1.04    0.87
  -5   8  -4    0.99    1.08
  -5   8  -5    1.01    1.04
  -5   8  -6    1.15    0.93
  -5   7  -2    1.15    0.92
  -5   7  -3    3.65    1.36
  -5   7  -4    4.45    1.27
  -5   7  -5    6.27    1.00
  -5   7  -6   10.93    1.68
  -5   7  -7   13.49    1.54
  -5   7  -8    2.60    1.24
  -5   6  -3    4.45    1.05
  -5   6  -4    4.79    1.20
  -5   6  -5    0.92    0.80
  -5   6  -6    1.05    0.95
  -5   6  -7    8.82    1.44
  -5   5  -3    3.25    1.18
  -5   5  -4    6.12    1.14
  -5   5  -5   16.00    1.44
  -5   5  -6    0.43    0.61
  -5   5  -8    1.19    0.81
  -5   4  -3    2.13    0.68
  -5   4  -4   64.38    1.97
  -5   4  -5    0.56    0.53
  -5   4  -6   10.15    1.06
  -5   4  -7    1.04    0.81
  -5   4  -8    7.22    1.33
  -5   3  -3    0.67    0.49
  -5   3  -3    0.43    0.41
  -5   3  -4    6.15    0.90
  -5   3  -4    6.86    0.95
  -5   3  -5   37.45    1.68
  -5   3  -6    0.86    0.81
  -5   3  -7   22.62    1.67
  -5   3  -8    2.39    1.19
  -5   2  -1    0.65    0.48
  -5   2  -2    6.07    0.78
  -5   2  -3   52.30    1.44
  -5   2  -3   53.10    1.67
  -5   2  -4   11.72    1.15
  -5   2  -5   39.67    1.73
  -5   2  -6    1.50    0.86
  -5   2  -7    2.37    1.04
  -5   2  -8    0.37    0.86
  -5   1   1    0.68    0.44
  -5   1   0    5.88    0.63
  -5   1  -1    6.13    0.84
  -5   1  -2    0.63    0.67
  -5   1  -3    1.02    0.43
  -5   1  -4    6.57    0.72
  -5   1  -5   30.98    1.60
  -5   1  -6    2.96    1.09
  -5   1  -7    0.85    1.04
  -5   0   2   10.47    0.80
  -5   0   1   44.09    1.15
  -5   0   0    0.68    0.74
  -5   0  -1    0.48    0.52
  -5   0  -2    2.23    0.77
  -5   0  -3   40.58    1.68
  -5   0  -4   15.83    1.37
  -5   0  -5   62.04    2.19
  -5   0  -6    2.35    1.02
  -5   0  -7    3.09    1.28
  -5  -1   2   44.50    1.40
  -5  -1   1    8.59    0.89
  -5  -1   0   23.00    1.31
  -5  -1  -1    0.30    0.52
  -5  -1  -2   11.40    1.21
  -5  -1  -3    0.44    0.74
  -5  -1  -4   25.81    1.61
  -5  -1  -5    5.36    1.31
  -5  -1  -6    2.45    1.38
  -5  -2   2    2.57    0.70
  -5  -2   1    6.76    0.88
  -5  -2   0    1.38    0.63
  -5  -2  -1    8.41    1.12
  -5  -2  -2    9.63    1.35
  -5  -2  -3   18.01    1.41
  -5  -2  -4    3.53    1.06
  -5  -2  -5    3.23    1.30
  -5  -3   2    2.53    0.89
  -5  -3   1    1.10    0.84
  -5  -3   0   10.65    1.28
  -5  -3  -1   17.64    1.43
  -5  -3  -2    1.84    0.89
  -5  -3  -3   13.48    1.57
  -5  -3  -4    2.04    1.00
  -5  -3  -5    0.83    1.10
  -5  -4   2   24.71    1.47
  -5  -4   1    8.19    1.00
  -5  -4   0    0.57    0.83
  -5  -4  -1   25.05    1.64
  -5  -4  -2    0.56    0.97
  -5  -4  -3   11.27    1.48
  -5  -4  -4    1.30    0.70
  -5  -5   3   33.40    1.92
  -5  -5   2   12.94    1.40
  -5  -5   1    0.53    0.86
  -5  -5   0    5.54    0.99
  -5  -5  -1    1.66    0.94
  -5  -5  -2    0.59    0.84
  -5  -5  -3   24.99    2.18
  -5  -6   3   15.91    1.51
  -5  -6   2    1.37    0.85
  -5  -6   1    8.43    1.41
  -5  -6   0    0.51    0.97
  -5  -6  -1    0.62    0.84
  -5  -6  -2    8.18    1.42
  -5  -7   4    0.65    0.93
  -5  -7   3    0.50    0.70
  -5  -7   2    1.55    0.79
  -5  -7   1    2.14    1.03
  -5  -7   0    0.82    1.00
  -5  -8   4    0.60    0.87
  -5  -8   3    1.16    1.08
  -5  -8   2    2.82    1.30
  -5  -9   5    1.44    1.12
  -4   9   0    2.27    1.09
  -4   9  -1    2.61    1.04
  -4   9  -2    0.67    0.99
  -4   9  -3    1.19    0.99
  -4   9  -4    0.97    0.96
  -4   9  -5    7.63    1.36
  -4   9  -6    0.04    1.31
  -4   8   0    1.88    1.06
  -4   8  -1    4.27    1.14
  -4   8  -2    0.39    0.77
  -4   8  -3    4.25    1.28
  -4   8  -4   19.14    1.70
  -4   8  -5    2.78    0.70
  -4   8  -6    0.99    0.99
  -4   8  -7    2.71    1.02
  -4   8  -8    1.09    0.98
  -4   7  -1   11.02    1.04
  -4   7  -2   13.06    1.33
  -4   7  -3    7.93    1.48
  -4   7  -4   10.12    1.33
  -4   7  -5   13.28    1.47
  -4   7  -6    0.12    0.82
  -4   7  -7    1.22    0.83
  -4   7  -8    2.67    1.18
  -4   7  -9    2.55    0.92
  -4   6  -2   46.10    1.91
  -4   6  -3   33.56    1.62
  -4   6  -4    3.10    1.23
  -4   6  -5   12.75    1.31
  -4   6  -6    0.46    0.75
  -4   6  -7   27.81    1.77
  -4   6  -8    0.42    0.83
  -4   6  -9    0.46    0.84
  -4   5  -3    0.99    0.94
  -4   5  -4    1.66    0.74
  -4   5  -5    4.67    0.98
  -4   5  -6   12.26    1.27
  -4   5  -6   14.33    1.13
  -4   5  -7    1.18    0.88
  -4   5  -7    0.38    0.63
  -4   5  -8    5.16    1.19
  -4   5  -9    2.54    0.96
  -4   4  -3    4.89    0.87
  -4   4  -4   28.54    1.37
  -4   4  -4   27.30    1.07
  -4   4  -5    6.89    0.97
  -4   4  -5    6.85    0.79
  -4   4  -6   14.18    1.10
  -4   4  -6   14.15    1.12
  -4   4  -7    1.24    0.50
  -4   4  -8    8.46    1.24
  -4   4  -9    0.44    0.68
  -4   3  -2    1.10    0.54
  -4   3  -3    1.13    0.41
  -4   3  -3    2.22    0.62
  -4   3  -4    0.39    0.35
  -4   3  -4    0.45    0.44
  -4   3  -5    1.12    0.56
  -4   3  -5    0.53    0.73
  -4   3  -6    5.57    0.96
  -4   3  -7   17.02    1.49
  -4   3  -8    2.91    1.01
  -4   3  -9    3.39    1.10
  -4   2   0    0.72    0.29
  -4   2  -1  108.51    1.45
  -4   2  -2   25.82    0.98
  -4   2  -3    0.77    0.52
  -4   2  -3    0.59    0.54
  -4   2  -4    1.49    0.70
  -4   2  -4    1.00    0.40
  -4   2  -5    6.59    1.12
  -4   2  -6    2.94    1.00
  -4   2  -7    5.88    1.19
  -4   2  -8    7.70    1.28
  -4   1   1    4.95    0.51
  -4   1   0    2.05    0.54
  -4   1  -1   80.56    1.42
  -4   1  -2   37.78    1.28
  -4   1  -3   19.09    0.86
  -4   1  -3   18.35    1.09
  -4   1  -4   45.90    1.76
  -4   1  -5   34.37    1.52
  -4   1  -6   42.40    1.83
  -4   1  -7    1.29    1.06
  -4   1  -8    0.91    0.95
  -4   0   1    5.12    0.72
  -4   0   0   33.51    1.14
  -4   0  -1    9.84    0.85
  -4   0  -2   34.09    1.26
  -4   0  -3    1.49    0.60
  -4   0  -4   13.44    1.29
  -4   0  -5   13.27    1.26
  -4   0  -6    6.89    1.40
  -4   0  -7    5.45    1.11
  -4   0  -8    1.71    1.05
  -4  -1   1   61.64    1.43
  -4  -1   0   18.73    0.96
  -4  -1  -1    4.12    0.80
  -4  -1  -2   25.33    1.25
  -4  -1  -3    0.64    0.44
  -4  -1  -4    1.57    0.93
  -4  -1  -5    0.44    0.98
  -4  -1  -6   -0.07    0.82
  -4  -1  -7    4.45    1.19
  -4  -2   1  151.43    2.19
  -4  -2   0    7.85    0.85
  -4  -2  -1   18.19    1.20
  -4  -2  -2    4.00    0.80
  -4  -2  -3    2.02    0.80
  -4  -2  -4    1.09    1.07
  -4  -2  -5   15.02    1.33
  -4  -2  -6    1.10    1.12
  -4  -3   1    0.53    0.58
  -4  -3   0    1.05    0.79
  -4  -3  -1    0.54    0.60
  -4  -3  -2    1.98    0.79
  -4  -3  -3    3.80    1.01
  -4  -3  -4    0.64    0.89
  -4  -3  -5    0.69    0.99
  -4  -3  -6    9.32    1.68
  -4  -4   2   43.68    1.70
  -4  -4   1    9.40    1.20
  -4  -4   0   22.70    1.50
  -4  -4  -1    3.36    1.01
  -4  -4  -2   13.54    1.36
  -4  -4  -2   15.01    1.22
  -4  -4  -3    0.54    0.53
  -4  -4  -3    1.21    0.81
  -4  -4  -4    9.76    1.20
  -4  -4  -4    9.92    1.39
  -4  -4  -5    2.63    1.37
  -4  -5   2    2.38    0.92
  -4  -5   1    6.06    0.99
  -4  -5   0    5.38    0.99
  -4  -5  -1    0.72    0.60
  -4  -5  -2    5.50    1.04
  -4  -5  -3    1.05    1.03
  -4  -5  -3    0.35    0.70
  -4  -5  -4    2.41    1.06
  -4  -5  -4    1.67    1.15
  -4  -6   2    0.81    0.59
  -4  -6   1    1.26    0.75
  -4  -6   0    0.70    0.73
  -4  -6  -1   18.53    1.65
  -4  -6  -2    0.46    1.03
  -4  -6  -3    5.25    1.19
  -4  -7   3    7.66    1.28
  -4  -7   2   50.98    2.16
  -4  -7   1    4.82    1.17
  -4  -7   0    1.94    0.98
  -4  -7  -1    0.48    0.69
  -4  -7  -2   -0.03    0.89
  -4  -8   4    2.40    1.16
  -4  -8   3    1.30    0.89
  -4  -8   2   -0.04    0.71
  -4  -8   1    0.60    0.70
  -4  -8   0    3.13    1.12
  -4  -9   4    7.56    1.41
  -4  -9   3    3.99    1.25
  -4  -9   2    0.46    0.83
  -3  10  -3    0.47    0.92
  -3  10  -4    1.10    1.15
  -3  10  -5    0.72    0.93
  -3  10  -6    0.86    1.13
  -3   9  -1    1.00    0.54
  -3   9  -2    3.47    0.88
  -3   9  -3    0.73    0.78
  -3   9  -4    1.74    0.73
  -3   9  -5   11.03    1.52
  -3   9  -6    1.16    0.92
  -3   9  -7    2.22    1.29
  -3   9  -8    7.49    1.44
  -3   8   0    2.10    0.71
  -3   8  -1    0.92    0.82
  -3   8  -2    1.06    0.66
  -3   8  -3   12.07    1.70
  -3   8  -4    1.97    1.05
  -3   8  -5    1.81    0.80
  -3   8  -6    1.58    0.76
  -3   8  -7    1.62    1.05
  -3   8  -8    1.01    0.99
  -3   8  -9   12.56    1.41
  -3   7  -1    5.35    1.18
  -3   7  -2    0.73    0.74
  -3   7  -3    5.66    1.06
  -3   7  -4   12.20    1.31
  -3   7  -5    0.66    0.91
  -3   7  -6    4.64    1.26
  -3   7  -7   17.95    1.52
  -3   7  -8    0.84    0.95
  -3   7  -9    0.28    0.88
  -3   7  -9    0.63    0.88
  -3   7 -10    4.68    1.26
  -3   7 -10    4.98    1.40
  -3   6  -2    2.57    0.91
  -3   6  -3    3.57    0.92
  -3   6  -4    0.30    0.80
  -3   6  -5    1.26    0.69
  -3   6  -6   11.67    1.32
  -3   6  -7    0.91    0.84
  -3   6  -7    1.04    0.62
  -3   6  -8    0.46    0.66
  -3   6  -8    1.08    0.75
  -3   6  -9    1.56    0.88
  -3   6  -9    2.19    0.84
  -3   6 -10    0.23    1.01
  -3   5  -2    3.92    0.94
  -3   5  -3   16.75    1.08
  -3   5  -4    3.99    0.89
  -3   5  -5   69.68    1.78
  -3   5  -5   69.44    1.62
  -3   5  -6    5.86    1.05
  -3   5  -6    6.47    0.83
  -3   5  -7    1.10    1.08
  -3   5  -7    1.43    0.79
  -3   5  -8    6.64    1.11
  -3   5  -8    5.81    1.07
  -3   5  -9   12.27    1.10
  -3   5 -10    4.51    0.97
  -3   4  -3   61.57    1.18
  -3   4  -3   63.03    1.71
  -3   4  -4    0.60    0.50
  -3   4  -4    0.46    0.31
  -3   4  -5   11.64    1.14
  -3   4  -5    9.50    0.86
  -3   4  -6    0.66    0.51
  -3   4  -6    0.77    0.72
  -3   4  -7   52.03    1.70
  -3   4  -7   52.32    1.82
  -3   4  -8    1.53    0.82
  -3   4  -9    1.04    0.96
  -3   4 -10    0.58    0.98
  -3   3  -1   21.39    0.56
  -3   3  -2   12.15    0.69
  -3   3  -3    8.18    0.68
  -3   3  -3    8.58    0.75
  -3   3  -4   43.28    1.34
  -3   3  -4   45.94    1.39
  -3   3  -5    6.21    1.01
  -3   3  -5    4.90    0.71
  -3   3  -6    0.33    0.45
  -3   3  -6    0.30    0.41
  -3   3  -7   37.63    1.70
  -3   3  -8   13.56    1.39
  -3   3  -9    0.72    0.80
  -3   2   0    3.44    0.33
  -3   2  -1   30.53    0.78
  -3   2  -2    5.12    0.66
  -3   2  -3    0.70    0.52
  -3   2  -3    0.57    0.46
  -3   2  -4   45.50    1.21
  -3   2  -4   44.90    1.35
  -3   2  -5   80.44    1.57
  -3   2  -5   77.75    1.89
  -3   2  -6    4.70    0.94
  -3   2  -7    3.31    1.17
  -3   2  -8    0.67    0.76
  -3   2  -9    0.70    0.92
  -3   1   1    0.76    0.45
  -3   1   0    2.79    0.42
  -3   1  -1  108.06    1.37
  -3   1  -2   90.95    1.48
  -3   1  -3    0.95    0.56
  -3   1  -3    1.27    0.37
  -3   1  -4   56.41    1.15
  -3   1  -4   57.55    1.64
  -3   1  -5   30.51    1.46
  -3   1  -6   83.18    2.23
  -3   1  -7   12.73    1.36
  -3   1  -8    1.20    1.02
  -3   1  -9    1.20    1.11
  -3   0   1    9.33    0.57
  -3   0   0  109.36    1.44
  -3   0  -1    1.10    0.38
  -3   0  -2   16.77    0.97
  -3   0  -2   16.64    0.66
  -3   0  -3    8.78    0.94
  -3   0  -3    9.55    0.54
  -3   0  -4    2.83    0.67
  -3   0  -5  122.50    2.49
  -3   0  -6    5.02    1.05
  -3   0  -7    1.23    0.90
  -3   0  -8    1.55    1.12
  -3  -1   1   22.76    0.94
  -3  -1   0    1.68    0.60
  -3  -1  -1    6.37    0.85
  -3  -1  -2   62.66    1.53
  -3  -1  -3    2.59    0.87
  -3  -1  -4    0.80    0.67
  -3  -1  -5   17.10    1.46
  -3  -1  -6   30.85    1.68
  -3  -1  -7    1.69    0.95
  -3  -1  -8    0.64    0.86
  -3  -2   1    8.96    0.80
  -3  -2   0   20.37    0.73
  -3  -2   0   21.13    1.08
  -3  -2  -1   49.33    1.34
  -3  -2  -1   51.05    1.27
  -3  -2  -2   24.48    1.11
  -3  -2  -2   24.86    1.21
  -3  -2  -3   90.53    2.10
  -3  -2  -3   91.41    1.96
  -3  -2  -4    0.99    0.92
  -3  -2  -4    1.52    0.93
  -3  -2  -5   47.85    1.85
  -3  -2  -6    5.75    1.32
  -3  -2  -7    2.83    1.12
  -3  -3   1    0.63    0.31
  -3  -3   1    0.72    0.73
  -3  -3   0    7.58    0.71
  -3  -3   0    7.42    0.80
  -3  -3  -1    0.57    0.47
  -3  -3  -1    1.77    0.90
  -3  -3  -2   42.41    1.52
  -3  -3  -2   42.35    1.45
  -3  -3  -3   11.21    1.18
  -3  -3  -3   11.00    1.16
  -3  -3  -4    0.79    0.70
  -3  -3  -4    0.90    0.76
  -3  -3  -5    2.97    0.81
  -3  -3  -5    3.75    1.01
  -3  -3  -6    2.15    1.05
  -3  -3  -6    1.26    0.94
  -3  -3  -7    0.64    0.81
  -3  -4   1   18.01    0.83
  -3  -4   1   18.14    1.17
  -3  -4   0   56.92    1.74
  -3  -4   0   54.62    1.32
  -3  -4  -1    0.55    0.49
  -3  -4  -1    0.55    0.50
  -3  -4  -2    0.97    0.46
  -3  -4  -2    0.80    0.57
  -3  -4  -3    1.58    0.63
  -3  -4  -3    1.62    0.77
  -3  -4  -4   39.00    1.81
  -3  -4  -4   41.93    1.94
  -3  -4  -5   18.97    1.64
  -3  -4  -5   18.52    1.38
  -3  -4  -6    3.51    1.11
  -3  -4  -6    2.61    1.19
  -3  -5   1   16.53    1.19
  -3  -5   0    1.48    0.71
  -3  -5   0    1.23    0.81
  -3  -5  -1    1.56    0.66
  -3  -5  -1    0.54    0.78
  -3  -5  -2    0.47    0.48
  -3  -5  -2    0.73    0.67
  -3  -5  -3   30.07    1.68
  -3  -5  -3   28.41    1.81
  -3  -5  -4    0.84    0.67
  -3  -5  -4    1.41    0.98
  -3  -5  -5    1.01    0.99
  -3  -5  -5    0.51    1.00
  -3  -6   2   20.68    1.24
  -3  -6   1   14.60    1.20
  -3  -6   0   13.85    1.16
  -3  -6  -1    0.49    0.69
  -3  -6  -1    0.39    0.67
  -3  -6  -2   21.28    1.50
  -3  -6  -2   20.61    1.48
  -3  -6  -3    2.72    1.10
  -3  -6  -3    4.15    1.20
  -3  -6  -4    3.56    1.09
  -3  -7   2    0.85    0.62
  -3  -7   1   10.35    1.17
  -3  -7   0    4.24    1.22
  -3  -7  -1   28.71    1.49
  -3  -7  -3    0.87    0.70
  -3  -8   3    3.79    1.12
  -3  -8   2   -0.37    0.72
  -3  -8   1    0.52    0.91
  -3  -9   4    6.34    1.00
  -3  -9   3    7.56    1.35
  -2  10  -4    1.34    0.98
  -2  10  -5    1.89    1.17
  -2  10  -6    4.66    1.38
  -2  10  -7    1.33    0.94
  -2   9  -2    1.21    0.66
  -2   9  -3    8.44    1.21
  -2   9  -4    6.40    1.28
  -2   9  -5   10.82    1.34
  -2   9  -6    0.56    0.92
  -2   9  -7   10.09    1.55
  -2   9  -8    6.11    1.24
  -2   9  -9    2.72    1.22
  -2   8  -1    3.72    0.81
  -2   8  -2    1.52    0.76
  -2   8  -3    9.55    1.21
  -2   8  -4   15.74    1.52
  -2   8  -5   43.29    1.88
  -2   8  -6    0.36    0.92
  -2   8  -7    2.25    1.10
  -2   8  -8    0.47    0.76
  -2   8  -9    1.18    1.06
  -2   8 -10    0.63    0.76
  -2   7   0   29.65    1.41
  -2   7  -1    0.51    0.40
  -2   7  -2   54.03    1.67
  -2   7  -3   32.78    1.54
  -2   7  -4   13.10    1.29
  -2   7  -5    1.61    0.90
  -2   7  -6   33.39    1.64
  -2   7  -7   13.00    1.23
  -2   7  -8    3.16    0.94
  -2   7  -9    8.14    1.15
  -2   7  -9    8.62    1.33
  -2   7 -10    4.34    1.02
  -2   7 -10    4.65    1.36
  -2   6  -1   59.65    1.65
  -2   6  -2   23.24    1.30
  -2   6  -3   60.93    1.78
  -2   6  -4   19.25    1.30
  -2   6  -5    0.68    0.64
  -2   6  -6    0.32    0.36
  -2   6  -6    0.37    0.47
  -2   6  -7    0.54    0.49
  -2   6  -7    0.59    0.67
  -2   6  -8   34.73    1.71
  -2   6  -8   35.97    1.67
  -2   6  -9    0.29    0.82
  -2   6  -9    1.20    0.75
  -2   6 -10   14.89    1.56
  -2   6 -10   16.17    1.51
  -2   5  -2  103.15    1.93
  -2   5  -3   32.72    1.25
  -2   5  -4    1.99    1.03
  -2   5  -4    0.86    0.46
  -2   5  -5   30.63    1.42
  -2   5  -5   34.12    1.32
  -2   5  -6    0.42    0.38
  -2   5  -6    0.58    0.75
  -2   5  -7    0.87    0.65
  -2   5  -7    0.71    0.74
  -2   5  -8    6.23    1.08
  -2   5  -8    5.82    0.88
  -2   5  -9    3.80    1.00
  -2   5  -9    3.53    0.84
  -2   5 -10    2.20    0.91
  -2   4  -2   21.02    1.11
  -2   4  -2   20.29    0.64
  -2   4  -3   24.17    0.80
  -2   4  -3   24.21    1.00
  -2   4  -4    3.24    0.67
  -2   4  -4    3.75    0.65
  -2   4  -5    4.50    0.72
  -2   4  -5    4.48    0.94
  -2   4  -6    1.65    0.67
  -2   4  -6    2.27    0.82
  -2   4  -7    8.73    1.01
  -2   4  -7    7.83    1.09
  -2   4  -8   12.84    1.14
  -2   4  -8   14.21    1.35
  -2   4  -9    1.40    0.99
  -2   4 -10    3.53    1.12
  -2   3  -1    2.01    0.31
  -2   3  -2   79.99    1.55
  -2   3  -2   77.81    1.01
  -2   3  -3   57.29    1.30
  -2   3  -3   56.61    1.18
  -2   3  -4    0.53    0.55
  -2   3  -4    0.59    0.58
  -2   3  -5    0.62    0.56
  -2   3  -5    0.38    0.47
  -2   3  -6    1.20    0.80
  -2   3  -6    0.85    0.57
  -2   3  -7   16.21    0.91
  -2   3  -7   17.05    1.23
  -2   3  -8   76.54    2.28
  -2   3  -9    3.05    1.23
  -2   3 -10    1.79    1.28
  -2   2  -1   21.06    0.62
  -2   2  -2  192.36    1.86
  -2   2  -2  186.33    1.57
  -2   2  -3  105.95    1.47
  -2   2  -3  102.91    1.47
  -2   2  -4   50.45    1.29
  -2   2  -4   50.63    1.20
  -2   2  -5    7.02    0.87
  -2   2  -5    8.01    0.73
  -2   2  -6    0.66    0.52
  -2   2  -6    0.80    0.65
  -2   2  -7    0.54    0.77
  -2   2  -8   24.69    1.65
  -2   2  -9   13.81    1.60
  -2   2 -10    3.67    1.32
  -2   1   0    1.16    0.33
  -2   1  -1  114.20    1.28
  -2   1  -2    3.00    0.57
  -2   1  -2    3.39    0.50
  -2   1  -3   24.06    0.85
  -2   1  -3   23.61    1.11
  -2   1  -4    1.04    0.63
  -2   1  -4    1.25    0.58
  -2   1  -5    9.05    0.56
  -2   1  -5   10.83    0.97
  -2   1  -6   22.93    1.33
  -2   1  -7    5.32    0.85
  -2   1  -8    0.89    0.85
  -2   1  -9    0.09    1.00
  -2   1 -10    0.64    0.87
  -2   0   0  209.73    1.55
  -2   0  -1   17.37    0.74
  -2   0  -2   37.92    1.12
  -2   0  -2   38.36    0.68
  -2   0  -3   86.39    1.63
  -2   0  -3   88.33    1.01
  -2   0  -4    3.81    0.42
  -2   0  -4    4.62    0.77
  -2   0  -5    1.64    0.59
  -2   0  -6   19.70    1.34
  -2   0  -7    0.54    0.48
  -2   0  -8    5.90    1.34
  -2   0  -9    0.44    1.04
  -2  -1   0  116.88    1.48
  -2  -1  -1   53.31    1.12
  -2  -1  -1   55.47    1.23
  -2  -1  -2    9.84    0.87
  -2  -1  -2    9.39    0.78
  -2  -1  -3    4.12    0.60
  -2  -1  -3    3.91    0.69
  -2  -1  -4    2.13    0.76
  -2  -1  -4    2.41    0.59
  -2  -1  -5    1.52    0.98
  -2  -1  -5    0.39    0.63
  -2  -1  -6   12.88    1.21
  -2  -1  -7    0.22    0.67
  -2  -1  -8    7.24    1.24
  -2  -1  -9    0.23    0.98
  -2  -2   1   76.07    0.80
  -2  -2   0  226.31    2.09
  -2  -2   0  229.41    1.64
  -2  -2  -1   70.16    1.36
  -2  -2  -1   67.68    1.46
  -2  -2  -2   20.07    1.06
  -2  -2  -2   20.33    0.96
  -2  -2  -3   21.67    1.14
  -2  -2  -3   22.46    1.19
  -2  -2  -4    0.49    0.50
  -2  -2  -4    0.94    0.82
  -2  -2  -5    5.00    0.90
  -2  -2  -5    4.79    0.97
  -2  -2  -6   29.93    1.60
  -2  -2  -6   31.78    1.54
  -2  -2  -7    3.72    0.91
  -2  -2  -7    5.54    1.11
  -2  -2  -8    0.91    0.90
  -2  -3   3   20.59    0.41
  -2  -3   2    2.06    0.24
  -2  -3   1   17.76    0.62
  -2  -3   0    7.35    0.77
  -2  -3   0    7.08    0.80
  -2  -3  -1   22.03    0.92
  -2  -3  -1   21.11    1.04
  -2  -3  -2   15.75    1.03
  -2  -3  -2   18.06    1.10
  -2  -3  -3    1.66    0.70
  -2  -3  -3    1.29    0.66
  -2  -3  -4   21.44    1.38
  -2  -3  -4   20.68    1.42
  -2  -3  -5    2.26    1.00
  -2  -3  -5    1.48    0.84
  -2  -3  -6   33.21    1.70
  -2  -3  -6   34.38    1.76
  -2  -3  -7   18.13    1.72
  -2  -3  -7   16.26    1.56
  -2  -3  -8    8.45    1.37
  -2  -4   4   48.31    0.77
  -2  -4   3    0.46    0.27
  -2  -4   2    4.50    0.46
  -2  -4   1    9.31    0.67
  -2  -4   1    9.48    0.84
  -2  -4   0    7.69    0.86
  -2  -4   0    6.67    0.65
  -2  -4  -1   11.02    1.00
  -2  -4  -1   10.20    0.97
  -2  -4  -2    0.97    0.62
  -2  -4  -2    0.70    0.40
  -2  -4  -3    4.23    0.86
  -2  -4  -3    4.15    0.99
  -2  -4  -4   21.85    1.48
  -2  -4  -4   23.21    1.57
  -2  -4  -5    3.53    0.95
  -2  -4  -5    2.86    1.09
  -2  -4  -6    0.96    0.87
  -2  -4  -6    1.62    1.16
  -2  -5   3    4.33    0.47
  -2  -5   2   75.66    1.31
  -2  -5   1   31.38    1.07
  -2  -5   1   33.26    1.33
  -2  -5   0   31.62    1.20
  -2  -5   0   35.02    1.24
  -2  -5  -1    1.80    0.62
  -2  -5  -1    1.31    0.65
  -2  -5  -2   26.25    1.32
  -2  -5  -2   31.20    1.53
  -2  -5  -3    0.66    0.69
  -2  -5  -3    0.65    0.73
  -2  -5  -4    1.83    1.04
  -2  -5  -4    0.38    0.73
  -2  -5  -5   11.87    1.39
  -2  -6   2    0.83    0.42
  -2  -6   1   11.21    0.89
  -2  -6   1   12.75    1.04
  -2  -6   0    6.45    0.94
  -2  -6   0    8.77    0.99
  -2  -6  -1    2.46    0.84
  -2  -6  -1    1.55    0.53
  -2  -6  -2    4.46    1.00
  -2  -6  -2    3.52    0.90
  -2  -6  -3    1.12    0.90
  -2  -6  -4    3.47    0.96
  -2  -7   2   21.57    1.26
  -2  -7   1   29.18    1.36
  -2  -7   1   29.85    1.34
  -2  -7   0    4.05    0.97
  -2  -7   0    3.95    0.97
  -2  -7  -1    0.36    0.59
  -2  -7  -2    0.80    0.87
  -2  -7  -3    1.85    1.13
  -2  -8   2    3.03    0.97
  -2  -8  -1    1.47    1.05
  -2  -8  -2    0.95    0.91
  -1  11  -6    2.17    1.16
  -1  10  -5    2.88    0.96
  -1  10  -6    1.01    0.59
  -1  10  -7   11.01    1.52
  -1  10  -8   14.54    1.58
  -1   9  -3    1.51    0.85
  -1   9  -4    8.10    0.98
  -1   9  -5   22.84    1.71
  -1   9  -6    9.37    1.41
  -1   9  -7    3.01    1.18
  -1   9  -8    0.39    0.83
  -1   9  -9    1.96    1.13
  -1   8  -2   40.94    1.51
  -1   8  -3    7.52    1.03
  -1   8  -4    3.83    0.88
  -1   8  -5    3.29    0.74
  -1   8  -6    4.21    1.15
  -1   8  -7    4.14    1.01
  -1   8  -8    8.62    1.45
  -1   8  -9    4.14    1.26
  -1   8 -10    0.45    0.79
  -1   7  -1    1.38    0.76
  -1   7  -2    0.71    0.70
  -1   7  -3    1.25    0.85
  -1   7  -4    1.67    0.81
  -1   7  -5    1.22    0.65
  -1   7  -6    2.97    0.87
  -1   7  -7   38.51    1.82
  -1   7  -8    1.07    0.93
  -1   7  -9    0.47    0.70
  -1   7 -10    1.27    1.10
  -1   7 -11    0.88    0.90
  -1   6   0   16.00    0.99
  -1   6  -1   33.52    1.19
  -1   6  -2    8.49    0.97
  -1   6  -3    2.64    0.72
  -1   6  -4   11.88    1.13
  -1   6  -5   32.15    1.47
  -1   6  -6   10.92    1.13
  -1   6  -7   15.18    1.41
  -1   6  -8    1.02    0.77
  -1   6  -8    0.25    0.48
  -1   6  -9    0.55    0.84
  -1   6  -9    0.15    0.73
  -1   6 -10    2.28    1.19
  -1   6 -10    0.80    0.68
  -1   6 -11    2.96    1.08
  -1   6 -11    2.58    1.03
  -1   5   0    1.41    0.50
  -1   5  -1   11.87    0.96
  -1   5  -2    5.95    0.75
  -1   5  -3   28.89    1.20
  -1   5  -4    8.02    0.75
  -1   5  -5   13.03    0.95
  -1   5  -5   11.73    1.20
  -1   5  -6   62.71    1.54
  -1   5  -6   65.00    1.85
  -1   5  -7    1.32    0.46
  -1   5  -7    2.12    0.95
  -1   5  -8    7.12    1.06
  -1   5  -8    6.55    0.80
  -1   5  -9   34.12    1.64
  -1   5  -9   35.72    1.82
  -1   5 -10    9.82    1.24
  -1   5 -10   10.37    1.40
  -1   5 -11    0.04    1.23
  -1   4  -1   36.37    1.05
  -1   4  -2   10.95    0.87
  -1   4  -3    0.83    0.47
  -1   4  -4  133.46    1.74
  -1   4  -4  141.37    1.95
  -1   4  -5    7.10    0.75
  -1   4  -5    6.49    0.62
  -1   4  -6    2.02    0.82
  -1   4  -6    2.91    0.85
  -1   4  -7   18.01    1.09
  -1   4  -7   19.48    1.17
  -1   4  -8    0.80    0.66
  -1   4  -8    0.26    0.68
  -1   4  -9    0.17    0.64
  -1   4  -9    1.30    0.81
  -1   4 -10    1.44    0.83
  -1   4 -11    8.23    1.58
  -1   3  -1   72.35    1.29
  -1   3  -2   61.13    1.20
  -1   3  -2   59.35    0.87
  -1   3  -3   27.52    0.79
  -1   3  -3   26.89    0.98
  -1   3  -4   67.03    1.36
  -1   3  -4   67.12    1.48
  -1   3  -5  115.02    1.85
  -1   3  -5  110.48    1.71
  -1   3  -6   38.47    1.46
  -1   3  -6   38.32    1.25
  -1   3  -7   36.48    1.53
  -1   3  -7   38.23    1.41
  -1   3  -8   35.88    1.31
  -1   3  -8   34.36    1.56
  -1   3  -9    0.62    1.00
  -1   3 -10    0.54    0.91
  -1   3 -11    2.26    0.99
  -1   2  -1   16.48    0.46
  -1   2  -2   36.84    1.05
  -1   2  -2   36.26    0.80
  -1   2  -3   48.33    1.00
  -1   2  -3   49.25    1.26
  -1   2  -4   10.11    0.80
  -1   2  -4   10.92    0.69
  -1   2  -5   95.26    1.84
  -1   2  -5   95.72    1.57
  -1   2  -6    9.34    0.79
  -1   2  -6    9.18    1.03
  -1   2  -7   86.66    2.09
  -1   2  -7   86.11    1.70
  -1   2  -8    4.11    1.23
  -1   2  -9    1.50    0.94
  -1   2 -10    3.49    1.38
  -1   1  -2   73.68    1.03
  -1   1  -2   72.24    1.12
  -1   1  -3    6.15    0.67
  -1   1  -3    6.35    0.58
  -1   1  -4    7.70    0.79
  -1   1  -4    7.50    0.56
  -1   1  -5    0.68    0.40
  -1   1  -5    1.30    0.74
  -1   1  -6   83.96    1.94
  -1   1  -6   84.94    1.48
  -1   1  -7    0.87    0.64
  -1   1  -8   41.07    1.88
  -1   1  -9    1.83    0.82
  -1   1 -10    1.12    0.91
  -1   0  -1   14.57    0.58
  -1   0  -2   36.83    1.03
  -1   0  -2   37.46    1.00
  -1   0  -3  179.34    1.89
  -1   0  -3  184.00    1.92
  -1   0  -3  184.32    1.32
  -1   0  -4   21.50    0.99
  -1   0  -4   23.23    0.73
  -1   0  -4   22.73    1.16
  -1   0  -5    8.08    0.92
  -1   0  -5    8.51    0.63
  -1   0  -5    8.31    1.00
  -1   0  -6    6.18    1.01
  -1   0  -6    3.90    0.67
  -1   0  -7    3.53    0.92
  -1   0  -8    9.46    1.08
  -1   0  -9    5.66    1.04
  -1   0 -10    0.61    1.03
  -1  -1   0  136.48    1.22
  -1  -1  -1   72.84    1.09
  -1  -1  -1   68.89    1.13
  -1  -1  -2   14.70    0.83
  -1  -1  -2   15.47    0.91
  -1  -1  -3    9.25    0.36
  -1  -1  -3   10.70    0.81
  -1  -1  -3    9.14    0.70
  -1  -1  -4  176.44    2.16
  -1  -1  -4  178.85    2.38
  -1  -1  -5   17.25    0.91
  -1  -1  -5   19.29    1.23
  -1  -1  -6    1.65    0.75
  -1  -1  -6    0.61    0.68
  -1  -1  -7    6.88    1.03
  -1  -1  -7    6.88    1.17
  -1  -1  -8   -0.09    0.74
  -1  -1  -9    1.77    0.99
  -1  -2   1  242.49    1.28
  -1  -2   0    1.30    0.25
  -1  -2   0    2.60    0.66
  -1  -2  -1    6.50    0.56
  -1  -2  -1    7.09    0.74
  -1  -2  -2   96.65    1.60
  -1  -2  -2  100.54    1.51
  -1  -2  -3   18.14    1.02
  -1  -2  -3   19.30    0.97
  -1  -2  -4    2.30    0.71
  -1  -2  -4    1.31    0.46
  -1  -2  -5   10.45    1.00
  -1  -2  -5   10.07    1.03
  -1  -2  -6   43.15    1.81
  -1  -2  -6   44.17    1.76
  -1  -2  -7    0.92    1.00
  -1  -2  -7    0.41    0.61
  -1  -2  -8    0.45    0.82
  -1  -2  -8    0.76    1.04
  -1  -2  -9    0.28    0.80
  -1  -3   3  123.18    1.16
  -1  -3   2  207.05    1.41
  -1  -3   1    0.58    0.37
  -1  -3   0    1.87    0.64
  -1  -3   0    1.49    0.67
  -1  -3  -1    4.74    0.60
  -1  -3  -1    3.95    0.55
  -1  -3  -2   42.69    1.28
  -1  -3  -2   41.31    1.22
  -1  -3  -3    3.57    0.79
  -1  -3  -3    3.01    0.62
  -1  -3  -4    9.01    0.91
  -1  -3  -4    9.74    1.06
  -1  -3  -5   46.18    1.51
  -1  -3  -5   45.53    1.64
  -1  -3  -6   15.76    1.31
  -1  -3  -6   15.71    1.29
  -1  -3  -7    0.85    0.87
  -1  -3  -7    0.52    0.80
  -1  -3  -8    0.56    0.93
  -1  -4   4   45.39    1.00
  -1  -4   3   12.75    0.71
  -1  -4   2   75.75    1.19
  -1  -4   1    0.54    0.45
  -1  -4   0    8.56    0.62
  -1  -4   0    8.56    0.72
  -1  -4  -1   84.54    1.73
  -1  -4  -1   83.66    1.51
  -1  -4  -2    5.23    0.64
  -1  -4  -2    5.34    0.74
  -1  -4  -3    2.46    0.49
  -1  -4  -3    3.10    0.85
  -1  -4  -4   20.32    1.46
  -1  -4  -4   19.82    1.12
  -1  -4  -5    0.46    0.69
  -1  -4  -5    0.72    0.52
  -1  -4  -6   15.18    1.62
  -1  -4  -7    2.08    0.71
  -1  -5   5   33.13    1.05
  -1  -5   4    1.71    0.43
  -1  -5   3   45.27    1.14
  -1  -5   2    0.63    0.48
  -1  -5   1    7.14    0.68
  -1  -5   1    7.64    0.83
  -1  -5   0    0.57    0.44
  -1  -5   0    0.54    0.53
  -1  -5  -1   11.97    1.03
  -1  -5  -1    7.49    0.70
  -1  -5  -2    2.21    0.74
  -1  -5  -2    1.46    0.51
  -1  -5  -3   69.44    2.09
  -1  -5  -3   68.27    1.70
  -1  -5  -4    2.80    0.89
  -1  -5  -5    1.63    1.09
  -1  -5  -6    8.15    1.45
  -1  -6   5   12.39    0.79
  -1  -6   4    9.98    0.74
  -1  -6   3   15.58    0.94
  -1  -6   2    0.54    0.48
  -1  -6   1    8.89    0.84
  -1  -6   1    9.18    1.02
  -1  -6   0    8.41    0.99
  -1  -6   0    9.17    0.91
  -1  -6  -1    6.27    0.89
  -1  -6  -1    5.76    0.96
  -1  -6  -2   56.45    1.94
  -1  -6  -3    2.11    1.23
  -1  -6  -4   20.51    1.76
  -1  -6  -5    2.83    1.16
  -1  -7   4    0.59    0.50
  -1  -7   3    3.29    0.79
  -1  -7   2    0.83    0.66
  -1  -7   1    1.69    0.69
  -1  -7   0   21.91    1.36
  -1  -7  -1   30.79    1.67
  -1  -7  -2    0.93    0.89
  -1  -7  -3    5.83    1.37
  -1  -7  -4    2.25    1.14
  -1  -8   3   10.62    0.96
  -1  -8   2    1.27    0.64
  -1  -8   1   -0.08    0.65
  -1  -8   0   13.77    1.38
  -1  -8  -1   22.68    1.76
  -1  -8  -2    5.12    1.19
  -1  -9   1    1.98    0.83
  -1  -9   0    1.84    1.07
  -1  -9  -1    1.08    0.94
   0  11  -7    7.28    1.33
   0  10  -6    8.59    1.20
   0  10  -7    2.98    1.25
   0  10  -8    2.39    1.08
   0   9  -4   22.27    1.25
   0   9  -5    4.09    1.00
   0   9  -6   14.15    1.63
   0   9  -7   13.87    1.40
   0   9  -8    7.88    1.38
   0   9  -9   -0.04    0.72
   0   9 -10    2.93    1.05
   0   8  -3   27.89    1.41
   0   8  -4   30.80    1.41
   0   8  -5   27.29    1.46
   0   8  -6   19.31    1.28
   0   8  -7    0.55    0.73
   0   8  -8   59.68    2.22
   0   8  -9    0.83    1.08
   0   8 -10    1.62    1.07
   0   7  -2   16.91    1.00
   0   7  -3   31.23    1.22
   0   7  -4   51.28    1.74
   0   7  -5    1.19    0.72
   0   7  -6   21.69    1.30
   0   7  -7   25.85    1.51
   0   7  -8    2.47    1.10
   0   7  -9   26.63    1.66
   0   7 -10    4.30    1.26
   0   7 -11    6.24    1.42
   0   6  -1   22.70    0.97
   0   6  -2   23.72    1.24
   0   6  -3   15.84    0.98
   0   6  -4   35.12    1.24
   0   6  -5    5.44    0.92
   0   6  -6    1.07    0.62
   0   6  -7    2.85    0.87
   0   6  -8    0.44    0.47
   0   6  -9    1.96    1.01
   0   6 -10    7.53    1.39
   0   6 -11    2.83    1.19
   0   6 -12    1.46    0.61
   0   5   0   54.54    1.10
   0   5  -1   20.76    0.86
   0   5  -2  170.76    1.97
   0   5  -3    6.86    0.76
   0   5  -4   19.58    1.13
   0   5  -5   11.77    1.05
   0   5  -6    0.44    0.50
   0   5  -7    4.06    0.92
   0   5  -7    4.10    1.09
   0   5  -8   28.64    1.52
   0   5  -8   28.93    1.46
   0   5  -9   12.59    1.31
   0   5  -9   12.58    1.23
   0   5 -10    6.07    1.51
   0   5 -10    5.72    1.32
   0   5 -11    1.10    0.83
   0   5 -11    2.01    0.78
   0   4   0   93.45    1.25
   0   4  -1   27.53    0.80
   0   4  -2   54.28    1.25
   0   4  -3   12.11    0.77
   0   4  -4   36.51    0.66
   0   4  -4   36.86    1.21
   0   4  -5   13.74    1.03
   0   4  -5   13.41    1.02
   0   4  -6   42.75    1.42
   0   4  -6   43.86    1.64
   0   4  -7    4.53    0.86
   0   4  -7    4.32    0.70
   0   4  -8   15.83    1.18
   0   4  -8   18.16    1.37
   0   4  -9   46.73    1.90
   0   4  -9   46.41    1.83
   0   4 -10   35.04    1.62
   0   4 -10   35.94    1.89
   0   4 -11    0.65    0.78
   0   3   0  131.65    1.19
   0   3  -1   14.98    0.59
   0   3  -2   12.22    0.79
   0   3  -3  179.89    1.86
   0   3  -4   11.00    0.74
   0   3  -4   10.44    0.92
   0   3  -5    0.53    0.54
   0   3  -5    0.49    0.53
   0   3  -6   12.04    0.97
   0   3  -6   11.65    0.97
   0   3  -7    1.70    0.90
   0   3  -7    0.47    0.50
   0   3  -8   20.13    1.37
   0   3  -8   19.06    1.15
   0   3  -9    0.86    0.73
   0   3  -9    0.48    0.52
   0   3 -10    1.15    1.08
   0   3 -11    1.30    0.86
   0   2  -1   68.52    1.00
   0   2  -2  266.66    1.68
   0   2  -2  268.37    1.80
   0   2  -3    1.18    0.56
   0   2  -3    0.81    0.33
   0   2  -4  204.34    1.90
   0   2  -4  207.05    2.07
   0   2  -5   34.35    1.03
   0   2  -5   33.27    1.07
   0   2  -5   35.44    0.69
   0   2  -6   29.25    1.25
   0   2  -6   25.84    1.01
   0   2  -7    5.92    0.76
   0   2  -7    6.88    1.06
   0   2  -8   12.69    1.12
   0   2  -8   10.80    0.96
   0   2  -9   17.09    1.48
   0   2 -10    7.33    1.04
   0   2 -11    1.39    0.98
   0   1  -2   73.40    1.05
   0   1  -2   72.01    0.88
   0   1  -3    0.90    0.29
   0   1  -3    1.23    0.38
   0   1  -3    1.07    0.61
   0   1  -4    0.38    0.35
   0   1  -4    0.42    0.31
   0   1  -4    0.47    0.67
   0   1  -5   39.88    0.93
   0   1  -5   39.20    1.10
   0   1  -5   39.40    1.13
   0   1  -6    7.14    0.90
   0   1  -6    7.37    0.74
   0   1  -7    2.03    0.78
   0   1  -7    2.33    0.58
   0   1  -8   13.77    1.26
   0   1  -9    0.40    0.52
   0   1 -10    1.48    1.22
   0   1 -11    0.42    0.74
   0   0  -2   28.39    0.67
   0   0  -2   28.70    0.72
   0   0  -2   27.94    0.59
   0   0  -2   29.10    0.68
   0   0  -3    4.09    0.58
   0   0  -3    3.82    0.61
   0   0  -3    4.21    0.58
   0   0  -3    3.82    0.59
   0   0  -4   32.64    0.89
   0   0  -4   33.67    1.11
   0   0  -4   33.79    1.10
   0   0  -5   10.89    0.63
   0   0  -5   11.08    0.97
   0   0  -5    9.35    0.63
   0   0  -6    7.19    0.61
   0   0  -6    6.24    0.64
   0   0  -7    3.71    0.86
   0   0  -7    4.44    1.02
   0   0  -8    3.86    1.31
   0   0  -8    2.70    0.82
   0   0  -9    6.32    1.19
   0   0 -10    0.77    0.96
   0  -1  -1  683.58    2.36
   0  -1  -2   26.24    0.89
   0  -1  -2   26.49    0.54
   0  -1  -2   26.15    0.82
   0  -1  -3    5.96    0.58
   0  -1  -3    6.28    0.49
   0  -1  -3    6.03    0.82
   0  -1  -4   44.46    1.19
   0  -1  -4   45.28    1.39
   0  -1  -4   45.59    0.90
   0  -1  -5    1.84    0.42
   0  -1  -5    1.20    0.42
   0  -1  -5    2.05    0.80
   0  -1  -6    0.73    0.54
   0  -1  -6    0.66    0.61
   0  -1  -7   14.21    1.32
   0  -1  -7   13.56    1.06
   0  -1  -8   50.05    2.06
   0  -1  -8   52.11    1.98
   0  -1  -9   18.70    1.82
   0  -1  -9   14.77    1.36
   0  -2   1   67.66    0.90
   0  -2   0   46.56    0.75
   0  -2   0   45.73    0.93
   0  -2  -1    2.59    0.38
   0  -2  -1    2.46    0.48
   0  -2  -2   64.87    1.30
   0  -2  -2   63.30    1.08
   0  -2  -3   37.56    1.13
   0  -2  -3   37.60    1.19
   0  -2  -4    0.73    0.76
   0  -2  -4    0.48    0.49
   0  -2  -5   13.91    1.05
   0  -2  -5   13.75    1.11
   0  -2  -6   12.89    1.02
   0  -2  -6   13.45    1.04
   0  -2  -7    0.28    0.71
   0  -2  -7    0.37    0.65
   0  -2  -8    1.17    1.11
   0  -2  -8    0.93    0.88
   0  -2  -9    0.34    0.65
   0  -3   2   11.39    0.67
   0  -3   1   14.97    0.79
   0  -3   0  136.25    1.63
   0  -3   0  138.92    1.26
   0  -3  -1    4.80    0.80
   0  -3  -1    4.15    0.57
   0  -3  -2    3.79    0.86
   0  -3  -2    3.49    0.60
   0  -3  -3    0.82    0.39
   0  -3  -3    1.21    0.62
   0  -3  -4   15.59    1.02
   0  -3  -4   15.19    1.26
   0  -3  -5    9.13    0.92
   0  -3  -5    9.42    0.99
   0  -3  -6   10.52    1.46
   0  -3  -6   10.08    0.99
   0  -3  -7   15.66    1.31
   0  -3  -8   11.54    1.53
   0  -4   3   11.46    0.84
   0  -4   2   53.91    1.24
   0  -4   1   29.27    1.05
   0  -4   0   94.38    1.66
   0  -4   0   93.59    1.26
   0  -4  -1   35.01    1.14
   0  -4  -1   33.80    0.93
   0  -4  -2   16.02    0.92
   0  -4  -2   16.94    0.96
   0  -4  -3    7.22    1.06
   0  -4  -3    7.26    0.81
   0  -4  -4    1.81    0.69
   0  -4  -5    5.31    1.02
   0  -4  -6    2.70    0.86
   0  -4  -7    0.49    0.76
   0  -5   4   20.36    1.10
   0  -5   3    6.66    0.71
   0  -5   2  173.42    2.04
   0  -5   1   21.00    1.02
   0  -5   0   55.58    1.18
   0  -5   0   54.72    1.41
   0  -5  -1    3.45    0.58
   0  -5  -1    2.79    0.57
   0  -5  -2    5.90    0.90
   0  -5  -3   30.19    1.60
   0  -5  -4    6.83    1.24
   0  -5  -5   12.15    1.43
   0  -5  -6    2.30    0.70
   0  -6   5    5.82    0.92
   0  -6   4   33.63    1.12
   0  -6   3   17.31    1.08
   0  -6   2   23.49    1.19
   0  -6   1   24.11    1.02
   0  -6   1   21.62    1.30
   0  -6   0    2.23    0.82
   0  -6  -1    5.37    1.13
   0  -6  -2    6.28    1.38
   0  -6  -3    0.66    0.91
   0  -6  -4   12.69    1.50
   0  -6  -5    3.53    1.23
   0  -7   7   28.73    1.32
   0  -7   6   22.96    1.27
   0  -7   5    0.91    0.63
   0  -7   4   51.49    1.62
   0  -7   3   33.28    1.27
   0  -7   2   16.87    1.39
   0  -7   1    0.11    0.62
   0  -7   0   14.39    1.27
   0  -7  -1    0.72    0.73
   0  -7  -2    1.13    0.83
   0  -7  -3    0.34    0.83
   0  -7  -4    2.64    1.23
   0  -8   6   21.40    1.36
   0  -8   5   26.88    1.25
   0  -8   4   29.85    1.24
   0  -8   3   26.87    1.41
   0  -8   2    2.71    0.92
   0  -8   1    8.94    1.22
   0  -8   0    1.06    0.82
   0  -8  -1    1.44    0.89
   0  -8  -2    0.05    0.84
   0  -8  -3    0.39    0.88
   0  -9   5    1.94    0.86
   0  -9   4   24.30    1.44
   0  -9   3    9.77    1.08
   0  -9   2    4.96    0.98
   0  -9   1    4.75    1.22
   0  -9   0   10.32    1.66
   0  -9  -1    0.59    0.88
   0 -10   3    4.43    1.17
   0 -10   2    1.96    0.96
   0 -10   1    1.32    0.79
   1  10  -7    0.61    0.82
   1  10  -8    4.20    1.11
   1  10  -9   13.88    1.52
   1   9  -5    0.54    0.65
   1   9  -6    8.68    1.25
   1   9  -7    0.70    0.79
   1   9  -8    0.60    0.81
   1   9  -9    4.27    1.48
   1   9 -10    2.24    1.23
   1   8  -4    6.80    0.84
   1   8  -5    3.00    0.77
   1   8  -6    1.13    0.76
   1   8  -7    1.01    0.63
   1   8  -8    9.92    1.40
   1   8  -9    2.30    1.02
   1   8 -10    1.32    0.98
   1   7  -3    3.58    0.73
   1   7  -4    0.75    0.44
   1   7  -5   28.56    1.42
   1   7  -6    3.60    0.88
   1   7  -7   32.32    1.46
   1   7  -8    6.79    1.45
   1   7  -9    6.91    1.28
   1   7 -10    1.25    0.84
   1   7 -11    1.52    1.12
   1   6  -2    1.25    0.62
   1   6  -3   14.87    1.01
   1   6  -4    9.27    0.90
   1   6  -5   14.87    1.11
   1   6  -6   21.46    1.27
   1   6  -7    1.04    0.81
   1   6  -8   39.99    1.77
   1   6  -9    0.67    0.76
   1   6 -10   13.86    1.35
   1   6 -11    1.29    1.03
   1   6 -12    0.64    0.91
   1   5  -1    6.87    0.51
   1   5  -2    0.18    0.31
   1   5  -3   43.48    1.20
   1   5  -4    2.64    0.57
   1   5  -4    2.20    0.73
   1   5  -5   37.01    0.97
   1   5  -5   35.04    1.37
   1   5  -6   94.75    1.98
   1   5  -7   47.94    1.73
   1   5  -8   42.53    1.68
   1   5  -9    0.91    0.78
   1   5 -10    2.55    0.90
   1   5 -11    1.01    0.81
   1   5 -12    2.27    1.14
   1   4   0    8.61    0.46
   1   4  -1    0.45    0.39
   1   4  -2   75.13    1.22
   1   4  -3   11.17    0.82
   1   4  -4   46.38    0.96
   1   4  -4   47.20    1.21
   1   4  -5   12.00    0.62
   1   4  -5   11.80    0.78
   1   4  -6   20.13    1.26
   1   4  -7    5.06    0.85
   1   4  -8   17.11    1.29
   1   4  -8   19.33    1.31
   1   4  -9   15.85    1.56
   1   4  -9   14.39    1.25
   1   4 -10    1.12    1.01
   1   4 -10    0.24    0.89
   1   4 -11    1.88    0.96
   1   4 -11    1.29    0.81
   1   3   0    1.06    0.28
   1   3  -1    0.81    0.41
   1   3  -2  202.92    1.67
   1   3  -3  124.22    1.60
   1   3  -3  122.86    1.29
   1   3  -4   19.55    0.71
   1   3  -4   20.30    1.05
   1   3  -5    7.40    0.70
   1   3  -5    8.14    0.58
   1   3  -6   45.89    1.38
   1   3  -6   45.70    1.52
   1   3  -6   47.32    0.95
   1   3  -7   24.16    1.19
   1   3  -7   26.09    1.31
   1   3  -8  111.08    2.43
   1   3  -8  115.65    2.26
   1   3  -9    1.14    0.94
   1   3  -9    0.50    0.62
   1   3 -10    0.46    0.74
   1   3 -10    0.89    0.86
   1   3 -11    0.31    0.80
   1   2  -1  250.04    1.37
   1   2  -2  198.87    1.52
   1   2  -2  209.63    1.61
   1   2  -3  193.55    1.43
   1   2  -3  189.73    1.79
   1   2  -4    7.37    0.79
   1   2  -4    7.51    0.88
   1   2  -4    7.55    0.58
   1   2  -5   33.41    1.19
   1   2  -5   34.16    1.06
   1   2  -5   35.14    0.90
   1   2  -6   37.08    1.24
   1   2  -6   34.11    1.22
   1   2  -6   36.85    0.93
   1   2  -7    8.91    1.07
   1   2  -7    9.27    0.92
   1   2  -8    0.75    0.64
   1   2  -8    1.00    0.67
   1   2  -9   19.39    1.21
   1   2  -9   18.35    1.51
   1   2 -10    3.18    0.94
   1   2 -11    2.23    1.04
   1   1  -1   31.72    0.65
   1   1  -2   22.08    0.67
   1   1  -2   21.52    0.81
   1   1  -3  103.24    1.34
   1   1  -3  102.73    1.39
   1   1  -3  107.61    1.13
   1   1  -3  105.43    1.15
   1   1  -4   51.84    1.18
   1   1  -4   54.61    1.06
   1   1  -4   53.70    1.05
   1   1  -4   52.69    1.22
   1   1  -5    8.90    0.88
   1   1  -5    7.00    0.73
   1   1  -5    7.06    0.50
   1   1  -5    7.17    0.73
   1   1  -6   75.74    1.63
   1   1  -6   79.70    1.46
   1   1  -6   79.62    1.69
   1   1  -6   82.48    1.66
   1   1  -7   16.10    1.08
   1   1  -7   15.45    1.05
   1   1  -7   16.45    0.88
   1   1  -7   14.70    1.05
   1   1  -8    0.21    0.45
   1   1  -8    0.20    0.59
   1   1  -9    3.06    0.71
   1   1 -10    0.24    0.94
   1   1 -11    1.21    1.02
   1   0  -1    5.25    0.48
   1   0  -1    5.54    0.38
   1   0  -2    8.63    0.43
   1   0  -2    8.14    0.56
   1   0  -2    8.48    0.63
   1   0  -2    8.59    0.58
   1   0  -3   13.07    0.73
   1   0  -3   12.40    0.74
   1   0  -3   12.09    0.69
   1   0  -3   12.78    0.78
   1   0  -4  139.22    1.62
   1   0  -4  138.14    1.56
   1   0  -4  140.56    1.69
   1   0  -4  138.59    1.57
   1   0  -5   40.18    1.20
   1   0  -5   39.41    1.21
   1   0  -5   40.45    1.11
   1   0  -5   41.36    1.13
   1   0  -6   48.08    1.50
   1   0  -6   47.78    1.33
   1   0  -6   47.82    1.48
   1   0  -6   48.66    1.32
   1   0  -7    7.76    1.11
   1   0  -7    7.14    0.98
   1   0  -7    6.39    0.84
   1   0  -7    7.10    0.84
   1   0  -8    3.93    0.76
   1   0  -8    3.39    0.91
   1   0  -9    7.75    1.06
   1   0  -9    8.68    1.29
   1   0 -10    1.02    0.94
   1  -1   0   18.89    0.54
   1  -1  -1  369.11    1.83
   1  -1  -1  377.34    1.88
   1  -1  -2   49.82    1.09
   1  -1  -2   49.85    0.71
   1  -1  -2   49.74    1.16
   1  -1  -3   68.23    1.12
   1  -1  -3   66.96    1.32
   1  -1  -3   67.31    1.05
   1  -1  -3   67.00    1.34
   1  -1  -4   86.11    1.33
   1  -1  -4   87.19    1.62
   1  -1  -4   86.03    1.37
   1  -1  -4   86.43    1.56
   1  -1  -5   13.94    1.09
   1  -1  -5   13.25    0.78
   1  -1  -5   13.16    0.96
   1  -1  -5   13.52    0.87
   1  -1  -6    0.80    0.35
   1  -1  -6    1.72    0.71
   1  -1  -6    1.63    0.68
   1  -1  -7   11.92    1.03
   1  -1  -7   13.69    1.21
   1  -1  -8    8.66    0.91
   1  -1  -8    9.04    1.03
   1  -1  -9    3.52    1.04
   1  -1 -10    1.12    1.00
   1  -2   1   17.04    0.50
   1  -2   1   16.92    0.90
   1  -2   0  415.19    2.26
   1  -2   0  424.28    2.07
   1  -2  -1  233.23    1.94
   1  -2  -1  236.53    1.90
   1  -2  -2    1.24    0.36
   1  -2  -2    1.79    0.80
   1  -2  -2    1.41    0.53
   1  -2  -3    1.06    0.41
   1  -2  -3    1.62    0.63
   1  -2  -3    1.11    0.35
   1  -2  -4    0.49    0.59
   1  -2  -4    0.81    0.77
   1  -2  -4    0.53    0.32
   1  -2  -5   11.80    1.18
   1  -2  -5   11.29    0.88
   1  -2  -6   69.46    2.05
   1  -2  -6   68.59    1.67
   1  -2  -7    5.64    1.20
   1  -2  -8    0.77    0.90
   1  -2  -9    1.91    1.18
   1  -3   1   67.90    1.25
   1  -3   0   76.07    1.37
   1  -3  -1   50.70    1.29
   1  -3  -1   53.48    0.72
   1  -3  -2  102.18    1.13
   1  -3  -2   98.15    1.66
   1  -3  -3    0.58    0.39
   1  -3  -3    0.20    0.34
   1  -3  -4    2.81    0.79
   1  -3  -4    2.35    0.47
   1  -3  -5   12.02    1.16
   1  -3  -6    0.57    0.61
   1  -3  -7    3.31    1.00
   1  -3  -8    2.20    1.01
   1  -4   2   10.95    0.96
   1  -4   1   37.43    1.15
   1  -4   0   21.19    1.08
   1  -4   0   20.59    0.58
   1  -4  -1   14.72    0.94
   1  -4  -1   12.12    0.50
   1  -4  -2   24.24    1.28
   1  -4  -3    5.76    1.03
   1  -4  -4   99.55    2.31
   1  -4  -5    2.53    1.06
   1  -4  -6    0.96    0.57
   1  -4  -7    0.25    0.85
   1  -5   4   10.15    1.00
   1  -5   3   30.21    1.15
   1  -5   2    6.94    0.95
   1  -5   1   12.18    0.82
   1  -5   0    1.90    0.82
   1  -5  -1    0.58    0.49
   1  -5  -2    2.52    0.93
   1  -5  -3   43.33    1.73
   1  -5  -4    1.00    0.64
   1  -5  -5   10.82    1.38
   1  -5  -6    1.53    1.08
   1  -6   5   33.95    1.42
   1  -6   4   13.19    1.06
   1  -6   3    3.24    0.87
   1  -6   2   10.06    0.92
   1  -6   1   35.79    1.48
   1  -6   0   16.55    1.17
   1  -6  -1   29.35    1.59
   1  -6  -2   61.67    1.95
   1  -6  -3    1.49    0.77
   1  -6  -4    9.28    1.36
   1  -6  -5    0.50    0.86
   1  -7   6    3.17    1.04
   1  -7   5    2.09    0.96
   1  -7   4    2.37    1.05
   1  -7   3    1.67    1.00
   1  -7   2    0.45    0.44
   1  -7   1    1.39    0.84
   1  -7   0    0.50    0.46
   1  -7  -1    1.05    0.93
   1  -7  -2   12.85    1.60
   1  -7  -3   13.45    1.54
   1  -7  -4    0.56    0.92
   1  -8   8    6.71    1.14
   1  -8   7    5.14    1.12
   1  -8   6    3.71    0.99
   1  -8   5    4.35    0.97
   1  -8   4    5.38    1.03
   1  -8   3    6.64    1.19
   1  -8   2   41.20    1.90
   1  -8   1    0.45    0.48
   1  -8   0    1.56    0.86
   1  -8  -1   18.57    1.62
   1  -8  -2    0.75    0.85
   1  -8  -3    8.86    1.23
   1  -9   8    0.11    0.65
   1  -9   7    2.97    1.10
   1  -9   6    8.99    1.17
   1  -9   5   20.88    1.58
   1  -9   4    9.45    1.05
   1  -9   3    2.05    0.93
   1  -9   2    0.05    0.73
   1  -9   1    1.45    1.05
   1  -9   0    0.63    0.84
   1  -9  -1    3.53    1.10
   1 -10   6    0.44    0.64
   1 -10   5    2.42    1.04
   1 -10   4    1.84    0.83
   1 -10   3    1.77    0.87
   1 -10   2    1.32    0.82
   1 -10   1    1.31    1.02
   1 -11   4    1.97    1.02
   2  10  -8    0.97    0.78
   2  10  -9    1.36    1.01
   2   9  -7    8.12    1.01
   2   9  -8   16.81    1.48
   2   9  -9    1.71    1.06
   2   9 -10   16.14    1.47
   2   8  -5   12.38    1.01
   2   8  -6    2.14    0.89
   2   8  -7    2.08    0.89
   2   8  -8    0.46    0.88
   2   8  -9   12.69    1.42
   2   8 -10    0.85    0.81
   2   7  -4   49.72    1.49
   2   7  -5    0.47    0.44
   2   7  -5    1.13    0.76
   2   7  -6    4.13    0.67
   2   7  -7    6.09    1.07
   2   7  -8    0.24    0.71
   2   7  -9    2.10    1.13
   2   7 -10    1.78    1.02
   2   7 -11    3.05    0.74
   2   6  -3    9.09    0.83
   2   6  -4    9.94    1.10
   2   6  -4    9.49    0.75
   2   6  -5    1.71    0.60
   2   6  -5    2.34    0.99
   2   6  -6    5.08    0.67
   2   6  -7    0.75    0.69
   2   6  -8    0.41    0.48
   2   6  -9    2.14    0.70
   2   6 -10   22.84    1.62
   2   6 -11   10.02    1.66
   2   5  -2   76.50    1.23
   2   5  -3    4.03    0.72
   2   5  -4   20.53    0.92
   2   5  -4   25.31    1.12
   2   5  -5   37.24    1.07
   2   5  -5   36.80    1.34
   2   5  -6    0.91    0.33
   2   5  -6    0.96    0.67
   2   5  -7    1.13    0.74
   2   5  -8   17.78    1.35
   2   5  -9    1.57    0.88
   2   5 -10   24.27    1.69
   2   5 -11   19.11    1.58
   2   5 -12    0.15    0.89
   2   4  -1    8.79    0.46
   2   4  -2    4.64    0.43
   2   4  -3    0.15    0.48
   2   4  -3    0.47    0.50
   2   4  -4   48.67    1.25
   2   4  -4   51.49    1.32
   2   4  -5    5.46    0.81
   2   4  -5    5.11    0.85
   2   4  -6   36.14    1.04
   2   4  -6   36.72    1.53
   2   4  -7   25.02    1.34
   2   4  -8   35.91    1.59
   2   4  -9   54.80    1.93
   2   4 -10    1.25    0.87
   2   4 -11   15.65    1.50
   2   4 -12    1.27    1.07
   2   3   0    5.89    0.28
   2   3  -1   17.45    0.59
   2   3  -2    2.85    0.78
   2   3  -2    2.14    0.37
   2   3  -3   20.96    0.90
   2   3  -3   20.42    0.89
   2   3  -4   15.10    0.79
   2   3  -4   15.19    0.84
   2   3  -5   47.10    1.11
   2   3  -5   48.72    1.39
   2   3  -6   13.42    1.15
   2   3  -6   14.13    0.89
   2   3  -7   13.01    1.08
   2   3  -7   12.63    0.81
   2   3  -8    1.69    0.91
   2   3  -9   14.24    1.25
   2   3 -10    3.49    0.90
   2   3 -11    1.04    0.76
   2   2  -1   72.77    1.37
   2   2  -1   76.00    0.97
   2   2  -2  596.27    2.99
   2   2  -2  601.62    2.64
   2   2  -3   74.17    1.22
   2   2  -3   70.19    1.30
   2   2  -4   43.48    1.12
   2   2  -4   44.60    1.26
   2   2  -5    0.58    0.54
   2   2  -5    0.78    0.53
   2   2  -6    1.02    0.52
   2   2  -6    1.20    0.57
   2   2  -7   45.80    1.56
   2   2  -7   43.83    1.41
   2   2  -7   44.98    1.28
   2   2  -8    5.18    1.10
   2   2  -8    3.94    0.90
   2   2  -9    3.37    0.97
   2   2  -9    3.41    1.02
   2   2 -10    1.24    0.90
   2   2 -10    0.96    0.75
   2   2 -11    1.34    0.99
   2   1   0  111.89    1.49
   2   1  -1 1435.97    7.78
   2   1  -1 1536.90    3.57
   2   1  -2  379.19    2.27
   2   1  -2  386.45    2.26
   2   1  -3  136.38    1.60
   2   1  -3  133.28    1.67
   2   1  -4   32.72    0.73
   2   1  -4   32.16    1.13
   2   1  -4   33.76    1.17
   2   1  -5   14.59    0.88
   2   1  -5   14.80    0.79
   2   1  -5   14.60    0.96
   2   1  -5   15.87    0.91
   2   1  -6   25.55    1.12
   2   1  -6   25.16    1.01
   2   1  -6   25.57    1.34
   2   1  -6   23.79    1.09
   2   1  -7    0.95    0.75
   2   1  -7    0.80    0.58
   2   1  -7    0.19    0.48
   2   1  -7    0.59    0.44
   2   1  -8   12.00    1.11
   2   1  -8   12.30    1.18
   2   1  -8   13.34    1.10
   2   1  -8   13.18    1.07
   2   1  -9   17.80    1.29
   2   1  -9   19.01    1.30
   2   1 -10    9.78    1.35
   2   1 -11    2.07    0.91
   2   0   1   18.40    0.80
   2   0   0  206.28    1.59
   2   0  -1  483.34    2.38
   2   0  -2  119.67    1.53
   2   0  -2  122.19    1.02
   2   0  -2  120.98    1.50
   2   0  -3    6.61    0.79
   2   0  -3    6.82    0.53
   2   0  -3    6.40    0.65
   2   0  -4    0.58    0.46
   2   0  -4    0.55    0.53
   2   0  -4    0.54    0.42
   2   0  -4    0.23    0.27
   2   0  -5   10.41    0.91
   2   0  -5    9.36    0.78
   2   0  -5   10.00    0.79
   2   0  -5    9.23    0.81
   2   0  -6    7.51    0.84
   2   0  -6    7.36    0.96
   2   0  -6    7.30    0.91
   2   0  -6    7.91    0.80
   2   0  -7   24.35    1.17
   2   0  -7   26.58    1.21
   2   0  -7   26.04    1.27
   2   0  -7   25.98    1.26
   2   0  -8    7.78    1.06
   2   0  -8    7.23    1.04
   2   0  -8    8.18    1.00
   2   0  -8    7.85    1.01
   2   0  -9   31.28    1.71
   2   0  -9   31.74    1.43
   2  -1   2    2.90    0.40
   2  -1   1  109.13    1.03
   2  -1   0    1.07    0.47
   2  -1  -1   87.88    1.15
   2  -1  -1   85.70    1.27
   2  -1  -2    2.27    0.42
   2  -1  -2    2.40    0.62
   2  -1  -3   37.72    0.84
   2  -1  -3   38.84    1.06
   2  -1  -3   38.81    1.19
   2  -1  -4    8.07    0.77
   2  -1  -4    8.05    0.79
   2  -1  -4    8.04    0.58
   2  -1  -5   19.39    1.08
   2  -1  -5   19.55    1.11
   2  -1  -5   19.13    0.80
   2  -1  -5   18.75    1.07
   2  -1  -6    2.83    0.76
   2  -1  -6    2.20    0.80
   2  -1  -6    2.30    0.89
   2  -1  -6    2.63    0.69
   2  -1  -7   37.61    1.39
   2  -1  -7   38.47    1.65
   2  -1  -7   37.63    1.29
   2  -1  -7   35.34    1.56
   2  -1  -8    1.07    0.70
   2  -1  -8    1.66    0.88
   2  -1  -9   14.53    1.58
   2  -1 -10    5.20    1.17
   2  -2   3  116.42    0.83
   2  -2   2  186.40    1.12
   2  -2   1   21.57    0.62
   2  -2   0    0.57    0.34
   2  -2   0    0.58    0.39
   2  -2  -1   19.49    0.88
   2  -2  -1   20.17    0.94
   2  -2  -2   41.41    0.96
   2  -2  -2   41.48    1.16
   2  -2  -3   23.68    0.99
   2  -2  -3   22.01    0.66
   2  -2  -3   22.44    1.18
   2  -2  -4   14.89    1.05
   2  -2  -4   14.83    0.74
   2  -2  -4   15.27    1.10
   2  -2  -5    0.93    0.71
   2  -2  -5    0.46    0.40
   2  -2  -6    4.38    0.92
   2  -2  -6    3.80    0.82
   2  -2  -7    2.51    0.82
   2  -2  -8    3.65    0.98
   2  -2  -9    0.61    1.07
   2  -3   2   76.97    0.87
   2  -3   1    2.02    0.81
   2  -3   1    2.39    0.50
   2  -3   0  332.57    2.52
   2  -3   0  329.38    2.29
   2  -3  -1    8.62    1.00
   2  -3  -1    7.90    0.64
   2  -3  -2    0.95    0.70
   2  -3  -2    0.32    0.34
   2  -3  -3   15.98    1.17
   2  -3  -3   16.24    1.26
   2  -3  -4   19.98    1.18
   2  -3  -4   22.26    1.24
   2  -3  -5   27.81    1.31
   2  -3  -5   26.92    1.36
   2  -3  -6    1.98    0.78
   2  -3  -7   27.70    1.76
   2  -3  -8    2.33    1.22
   2  -3  -9   10.42    1.32
   2  -4   2   21.18    1.26
   2  -4   2   21.41    0.66
   2  -4   1    6.94    0.93
   2  -4   1    6.45    0.61
   2  -4   0   52.83    1.41
   2  -4   0   54.21    1.29
   2  -4  -1  265.40    2.79
   2  -4  -1  260.07    2.61
   2  -4  -2   20.88    1.17
   2  -4  -2   20.86    1.20
   2  -4  -3    1.62    0.74
   2  -4  -3    1.15    0.79
   2  -4  -4   27.78    1.34
   2  -4  -5    5.34    1.01
   2  -4  -6    8.50    1.20
   2  -4  -7    0.38    0.79
   2  -4  -8    0.84    0.80
   2  -5   3   32.32    1.37
   2  -5   2   98.40    2.07
   2  -5   1   18.89    1.25
   2  -5   0    0.82    0.42
   2  -5  -1    1.79    0.94
   2  -5  -2    1.58    0.85
   2  -5  -3    0.44    0.45
   2  -5  -4    1.65    0.78
   2  -5  -5   22.44    1.73
   2  -5  -6    2.74    1.40
   2  -5  -7    1.02    1.22
   2  -6   4   18.95    1.31
   2  -6   3   61.92    1.70
   2  -6   2   23.25    1.33
   2  -6   1   56.15    1.71
   2  -6   0    1.54    0.86
   2  -6  -1    8.34    1.10
   2  -6  -2    0.87    0.71
   2  -6  -3    0.51    0.86
   2  -6  -4    1.17    0.84
   2  -6  -5    3.92    1.31
   2  -7   6   33.69    1.75
   2  -7   5    1.72    0.93
   2  -7   4   11.41    1.21
   2  -7   3   33.56    1.63
   2  -7   2   50.32    1.78
   2  -7   1    0.59    0.67
   2  -7   0   30.04    1.55
   2  -7  -1    5.78    1.06
   2  -7  -2    1.10    0.77
   2  -7  -3    0.89    0.98
   2  -7  -4    0.84    1.16
   2  -8   8    1.00    0.88
   2  -8   7    2.19    1.04
   2  -8   6    0.67    0.52
   2  -8   5   41.62    1.85
   2  -8   4   16.89    1.43
   2  -8   3    8.58    0.91
   2  -8   2    3.11    1.10
   2  -8   1    6.30    1.32
   2  -8   0    1.29    0.96
   2  -8  -1   18.56    1.59
   2  -8  -2    0.66    0.84
   2  -8  -3    0.54    0.93
   2  -9   9    0.66    0.88
   2  -9   8    4.86    1.25
   2  -9   7    8.57    1.22
   2  -9   6    0.55    0.88
   2  -9   5   11.82    1.44
   2  -9   4    5.70    1.19
   2  -9   3    9.70    1.35
   2  -9   2    0.94    0.86
   2  -9   1   11.93    1.45
   2  -9   0    0.62    0.94
   2  -9  -1    0.21    0.85
   2 -10   8    1.35    0.83
   2 -10   7    1.11    0.93
   2 -10   6    5.33    1.34
   2 -10   5    0.89    1.10
   2 -10   4    0.44    0.82
   2 -10   3    0.20    0.94
   2 -10   2    0.45    0.76
   2 -10   1    0.62    0.88
   3   9  -4    6.85    1.20
   3   9  -8    0.86    0.88
   3   9  -9    4.24    1.22
   3   8  -4    1.04    0.75
   3   8  -5    0.81    0.82
   3   8  -6   17.57    1.30
   3   8  -7    1.00    0.66
   3   8  -8    3.81    1.15
   3   8  -9    1.28    0.78
   3   8 -10    2.74    1.07
   3   7  -4    6.15    0.98
   3   7  -5    1.16    0.68
   3   7  -5    0.79    0.80
   3   7  -6    7.42    0.98
   3   7  -7   18.33    1.53
   3   7  -8   10.88    1.25
   3   7  -9    2.05    1.05
   3   7 -10   23.08    1.66
   3   7 -11    1.12    1.02
   3   6  -3    5.90    1.10
   3   6  -4    4.31    0.89
   3   6  -4    4.02    0.78
   3   6  -5    6.39    0.91
   3   6  -5    7.34    0.84
   3   6  -6    3.71    0.77
   3   6  -6    2.63    0.96
   3   6  -7   26.99    1.52
   3   6  -8    4.11    1.21
   3   6  -9    0.94    0.75
   3   6 -10   11.23    1.17
   3   6 -11    6.02    1.42
   3   5  -3   18.13    1.07
   3   5  -3   20.34    0.95
   3   5  -4   14.63    1.14
   3   5  -4   14.53    0.86
   3   5  -5    4.21    0.94
   3   5  -5    4.11    0.76
   3   5  -6    1.00    0.64
   3   5  -6    1.17    0.76
   3   5  -7   20.36    1.38
   3   5  -8   11.70    1.00
   3   5  -9    1.74    0.78
   3   5 -10    8.15    1.35
   3   5 -11    0.87    0.85
   3   4  -2    1.27    0.68
   3   4  -2    0.95    0.38
   3   4  -3    1.77    0.70
   3   4  -3    1.24    0.56
   3   4  -4    8.90    1.06
   3   4  -4    7.42    0.77
   3   4  -5   70.80    1.54
   3   4  -5   68.52    1.67
   3   4  -6    0.26    0.52
   3   4  -6    0.98    0.67
   3   4  -7   22.16    1.34
   3   4  -7   21.94    1.11
   3   4  -8    3.97    1.10
   3   4  -9   19.95    1.39
   3   4 -10    2.75    0.95
   3   4 -11    5.07    1.37
   3   4 -12    0.34    0.81
   3   3  -1    1.02    0.59
   3   3  -1    0.36    0.21
   3   3  -2   20.21    0.98
   3   3  -2   21.87    0.84
   3   3  -3  313.70    2.69
   3   3  -3  321.79    2.48
   3   3  -4   12.20    0.99
   3   3  -4   11.72    0.84
   3   3  -5    3.58    0.73
   3   3  -5    3.94    0.77
   3   3  -6    2.34    0.76
   3   3  -6    2.25    0.77
   3   3  -7    0.30    0.41
   3   3  -7    0.17    0.33
   3   3  -8   42.62    1.62
   3   3  -8   42.12    1.37
   3   3  -9   23.11    1.54
   3   3 -10    1.13    0.78
   3   3 -11    1.39    0.82
   3   3 -12    1.26    1.13
   3   2   0   21.08    1.03
   3   2  -1    8.59    0.82
   3   2  -1    8.89    0.61
   3   2  -2    1.58    0.48
   3   2  -2    2.13    0.72
   3   2  -3    1.61    0.49
   3   2  -3    2.50    0.80
   3   2  -4   77.88    1.61
   3   2  -4   78.51    1.59
   3   2  -5   19.12    1.05
   3   2  -5   19.52    0.90
   3   2  -6    3.08    0.61
   3   2  -6    4.06    0.81
   3   2  -7    0.57    0.51
   3   2  -7    0.20    0.39
   3   2  -8   14.69    1.32
   3   2  -8   14.58    1.07
   3   2  -9    7.21    1.01
   3   2 -10    8.22    1.33
   3   2 -11    1.37    0.88
   3   1   1    5.71    0.88
   3   1   0    0.98    0.54
   3   1  -1   22.11    0.98
   3   1  -2   21.10    0.94
   3   1  -2   20.70    0.94
   3   1  -3   77.27    1.54
   3   1  -3   78.75    1.53
   3   1  -4   35.39    1.26
   3   1  -4   35.61    0.67
   3   1  -4   36.32    1.24
   3   1  -5   75.23    1.15
   3   1  -5   69.22    1.56
   3   1  -5   70.57    1.64
   3   1  -6   91.35    1.45
   3   1  -6   87.53    1.95
   3   1  -6   86.70    1.79
   3   1  -7    0.69    0.71
   3   1  -7    0.86    0.65
   3   1  -8   36.99    1.60
   3   1  -8   36.88    1.49
   3   1  -9    7.85    1.25
   3   1  -9    6.98    0.87
   3   1 -10    3.63    0.99
   3   0   2   15.98    0.91
   3   0   1    1.25    0.51
   3   0   0  109.36    1.51
   3   0  -1   10.69    0.79
   3   0  -2    0.42    0.50
   3   0  -2    0.39    0.25
   3   0  -3   93.59    1.12
   3   0  -3   93.77    1.60
   3   0  -4    0.54    0.34
   3   0  -4    1.31    0.52
   3   0  -4    1.10    0.64
   3   0  -5   28.40    1.32
   3   0  -5   28.52    1.00
   3   0  -5   29.51    1.30
   3   0  -6    1.64    0.69
   3   0  -6    3.28    0.84
   3   0  -6    2.38    0.87
   3   0  -7    4.73    1.00
   3   0  -7    4.81    0.86
   3   0  -7    4.35    0.94
   3   0  -8    9.79    1.10
   3   0  -8    7.39    0.67
   3   0  -9    0.82    0.67
   3   0  -9    1.36    0.83
   3  -1   3    1.18    0.44
   3  -1   2   86.26    1.23
   3  -1   1  102.58    1.32
   3  -1   0    2.87    0.54
   3  -1  -1    0.11    0.20
   3  -1  -1    0.54    0.41
   3  -1  -2    7.80    0.67
   3  -1  -2    7.61    0.75
   3  -1  -3  127.60    1.54
   3  -1  -3  123.82    1.84
   3  -1  -4   32.57    1.10
   3  -1  -4   31.69    1.30
   3  -1  -5    0.28    0.30
   3  -1  -5    1.03    0.87
   3  -1  -6   13.50    1.06
   3  -1  -6   11.45    1.13
   3  -1  -7   20.22    1.34
   3  -1  -7   18.88    1.21
   3  -1  -8   12.31    1.21
   3  -1  -8   12.44    1.17
   3  -1  -9    3.41    0.98
   3  -2   3    0.13    0.20
   3  -2   2    4.81    0.49
   3  -2   1   30.33    0.84
   3  -2   0    3.88    0.68
   3  -2   0    3.24    0.64
   3  -2  -1   40.20    1.24
   3  -2  -1   39.33    1.05
   3  -2  -2    5.05    0.87
   3  -2  -2    4.96    0.71
   3  -2  -3   32.31    1.15
   3  -2  -3   31.53    1.35
   3  -2  -4    1.01    0.44
   3  -2  -4    1.39    0.67
   3  -2  -5    0.55    0.46
   3  -2  -5    1.10    0.63
   3  -2  -6   24.47    1.32
   3  -2  -6   27.27    1.47
   3  -2  -7   20.43    1.46
   3  -2  -7   20.00    1.36
   3  -2  -8    0.21    0.69
   3  -2  -8    1.15    0.60
   3  -2  -9    2.22    0.80
   3  -3   2   11.72    0.50
   3  -3   1   24.69    1.25
   3  -3   1   22.94    0.84
   3  -3   0    2.32    0.45
   3  -3   0    2.72    0.62
   3  -3  -1   58.65    1.50
   3  -3  -1   59.06    1.34
   3  -3  -2   25.10    1.27
   3  -3  -2   23.03    1.24
   3  -3  -3   14.87    1.05
   3  -3  -3   13.37    1.02
   3  -3  -4    3.57    0.94
   3  -3  -4    3.62    0.83
   3  -3  -5   39.54    1.41
   3  -3  -5   41.67    1.69
   3  -3  -6    2.27    0.86
   3  -3  -6    2.98    1.35
   3  -3  -7    4.99    1.07
   3  -3  -7    6.09    1.40
   3  -3  -8    0.29    0.82
   3  -3  -9    1.13    1.00
   3  -4   2   18.42    1.15
   3  -4   2   16.91    0.67
   3  -4   1    0.83    0.39
   3  -4   1    0.91    0.47
   3  -4   0    8.16    0.97
   3  -4   0    7.28    0.70
   3  -4  -1   39.23    1.37
   3  -4  -1   38.33    1.31
   3  -4  -2    7.34    0.96
   3  -4  -2    6.71    0.96
   3  -4  -3    3.72    1.01
   3  -4  -3    4.31    1.03
   3  -4  -4   49.47    1.84
   3  -4  -4   47.14    1.84
   3  -4  -5    9.38    1.27
   3  -4  -5   10.15    1.41
   3  -4  -6    4.37    1.23
   3  -4  -7    0.05    0.74
   3  -4  -8    0.26    1.10
   3  -5   3   16.95    1.34
   3  -5   2    2.70    0.67
   3  -5   1    2.43    1.00
   3  -5   1    1.11    0.35
   3  -5   0    1.45    0.83
   3  -5   0    1.39    0.58
   3  -5  -1    9.83    1.06
   3  -5  -1    7.94    0.77
   3  -5  -2    1.08    0.85
   3  -5  -2    1.30    0.84
   3  -5  -3   63.13    2.12
   3  -5  -3   57.50    1.92
   3  -5  -4    1.40    0.88
   3  -5  -5   11.70    1.46
   3  -5  -6    0.58    0.71
   3  -5  -7    0.65    0.99
   3  -6   4    0.71    0.69
   3  -6   3    3.88    0.96
   3  -6   2    3.75    1.01
   3  -6   1   36.83    1.58
   3  -6   0   43.39    1.80
   3  -6  -1   21.87    1.69
   3  -6  -2    6.96    1.02
   3  -6  -3   21.87    1.61
   3  -6  -4    9.19    1.53
   3  -6  -5   -0.08    0.95
   3  -7   6    3.96    0.86
   3  -7   5    1.68    0.96
   3  -7   4   13.07    1.48
   3  -7   3    6.66    1.23
   3  -7   2    0.79    0.81
   3  -7   1    4.74    1.06
   3  -7   0   17.69    1.41
   3  -7  -1    6.04    1.29
   3  -7  -2   20.25    1.67
   3  -7  -3    0.13    0.76
   3  -7  -4    5.29    1.26
   3  -8   7    0.47    0.86
   3  -8   6    0.72    0.72
   3  -8   5    1.83    0.84
   3  -8   4    2.72    1.08
   3  -8   3    9.19    0.98
   3  -8   2    2.63    0.83
   3  -8   1    1.09    0.70
   3  -8   0    1.54    0.86
   3  -8  -1    0.77    0.75
   3  -8  -2    0.98    0.99
   3  -9   8    9.14    1.59
   3  -9   7    2.54    0.99
   3  -9   6    0.55    0.81
   3  -9   5   10.17    1.34
   3  -9   4    2.77    1.36
   3  -9   3    0.00    0.51
   3  -9   2    4.63    1.25
   3  -9   1    1.54    1.04
   3  -9   0    0.60    0.77
   3 -10   6    0.82    0.64
   3 -10   5    0.87    1.09
   3 -10   4    1.47    1.16
   3 -10   3    0.31    0.86
   4   9  -3    3.71    1.39
   4   9  -4    6.22    1.23
   4   9  -5    0.19    0.77
   4   9  -9    2.50    0.97
   4   8  -3    1.11    0.95
   4   8  -4    2.81    1.27
   4   8  -5   21.38    1.67
   4   8  -6    3.10    0.87
   4   8  -8    2.51    1.07
   4   8  -9    1.58    0.88
   4   8 -10    0.64    0.72
   4   7  -2   52.41    2.20
   4   7  -3    7.21    1.27
   4   7  -4    0.78    0.72
   4   7  -5    1.15    0.89
   4   7  -6    0.71    0.56
   4   7  -6    0.56    0.61
   4   7  -7    6.51    1.03
   4   7  -8    0.03    0.95
   4   7  -9    0.79    0.80
   4   7 -10    5.65    1.22
   4   6  -2    1.63    0.95
   4   6  -3   43.18    1.99
   4   6  -4    1.51    0.78
   4   6  -5    2.42    0.98
   4   6  -5    2.11    0.68
   4   6  -6    5.73    0.84
   4   6  -6    8.98    0.95
   4   6  -7    2.18    0.73
   4   6  -7    3.39    1.13
   4   6  -8    3.53    1.03
   4   6  -9   -0.17    0.89
   4   6 -10    6.89    1.24
   4   6 -11   61.76    2.54
   4   5  -1    5.03    0.89
   4   5  -2    1.58    0.92
   4   5  -3    0.56    0.56
   4   5  -4    1.69    0.67
   4   5  -4    2.32    0.60
   4   5  -5    3.83    0.94
   4   5  -5    3.68    0.83
   4   5  -6    5.49    0.99
   4   5  -6    5.28    0.98
   4   5  -7   16.01    1.28
   4   5  -7   15.83    1.12
   4   5  -8    0.81    0.71
   4   5  -9    1.04    0.83
   4   5 -10    0.82    0.92
   4   5 -11    8.20    1.27
   4   4  -1    9.78    1.32
   4   4  -2   44.40    1.71
   4   4  -3    1.47    0.47
   4   4  -3    1.27    0.55
   4   4  -4   18.25    1.16
   4   4  -4   20.04    1.05
   4   4  -5    2.64    0.49
   4   4  -5    4.14    0.88
   4   4  -6    1.17    0.69
   4   4  -6    0.37    0.42
   4   4  -7    6.38    0.68
   4   4  -7    6.27    0.97
   4   4  -8    1.02    0.71
   4   4  -8    0.68    0.62
   4   4  -9   12.71    1.18
   4   4 -10   -0.06    0.90
   4   4 -11    1.28    1.07
   4   3   0    0.56    0.80
   4   3  -1    1.00    0.69
   4   3  -2   58.05    1.70
   4   3  -2   59.00    1.20
   4   3  -3  167.17    2.41
   4   3  -3  172.16    2.11
   4   3  -4    0.64    0.53
   4   3  -4    0.84    0.59
   4   3  -5    4.14    0.79
   4   3  -5    5.12    0.97
   4   3  -6   14.32    1.11
   4   3  -6   15.01    1.16
   4   3  -7    1.65    0.72
   4   3  -7    2.33    0.92
   4   3  -8   13.61    1.23
   4   3  -8   14.24    1.19
   4   3  -9    8.04    1.16
   4   3 -10    1.45    0.74
   4   3 -11    0.84    0.73
   4   2   1   16.79    1.08
   4   2   0    8.20    0.96
   4   2  -1  143.68    2.33
   4   2  -2  326.36    3.00
   4   2  -3   15.58    1.00
   4   2  -3   16.17    0.99
   4   2  -4    0.97    0.68
   4   2  -4    0.28    0.33
   4   2  -5    2.09    0.65
   4   2  -5    1.20    0.41
   4   2  -6    0.85    0.73
   4   2  -6    1.14    0.90
   4   2  -7   10.15    0.95
   4   2  -7   11.96    1.06
   4   2  -8    0.82    0.80
   4   2  -8    0.99    0.66
   4   2  -9    0.74    0.93
   4   2  -9    0.52    0.73
   4   2 -10    4.58    1.28
   4   2 -11   18.09    1.56
   4   1   3    0.80    0.79
   4   1   2   24.69    1.16
   4   1   1    2.96    0.61
   4   1   0   18.36    1.09
   4   1  -1   60.55    1.50
   4   1  -2  102.46    1.82
   4   1  -3  155.60    2.13
   4   1  -4    7.02    0.72
   4   1  -4    8.05    1.03
   4   1  -5    2.75    0.88
   4   1  -5    2.90    0.94
   4   1  -6    9.35    1.01
   4   1  -6    9.52    0.85
   4   1  -7    0.76    0.84
   4   1  -7    0.65    0.44
   4   1  -8    0.65    0.50
   4   1  -8    1.51    0.91
   4   1  -9   53.09    2.19
   4   1  -9   49.89    1.80
   4   1 -10    3.32    1.26
   4   1 -11    2.86    1.09
   4   0   3    2.23    0.63
   4   0   2   33.79    1.28
   4   0   1    9.64    0.75
   4   0   0   30.85    1.16
   4   0  -1    5.43    0.79
   4   0  -2    0.51    0.63
   4   0  -2    0.29    0.27
   4   0  -3    7.11    0.47
   4   0  -3    7.67    0.90
   4   0  -4    8.84    0.90
   4   0  -5    5.67    1.05
   4   0  -6    0.84    0.84
   4   0  -7    9.97    1.17
   4   0  -8    0.55    0.66
   4   0  -9   11.28    1.04
   4   0 -10   24.50    1.81
   4  -1   3   17.54    0.84
   4  -1   2   37.29    1.09
   4  -1   1   80.43    1.49
   4  -1   0    2.53    0.73
   4  -1  -1    4.42    0.61
   4  -1  -1    4.72    0.56
   4  -1  -2   12.11    0.71
   4  -1  -2   11.85    0.93
   4  -1  -3    0.79    0.44
   4  -1  -3    0.90    0.50
   4  -1  -4    0.62    0.56
   4  -1  -4    0.48    0.44
   4  -1  -5   21.77    1.00
   4  -1  -5   21.82    1.33
   4  -1  -6    5.24    0.95
   4  -1  -7   41.79    1.70
   4  -1  -8    2.11    0.80
   4  -1  -9    1.75    0.98
   4  -1 -10   -0.04    1.05
   4  -2   2   26.17    0.89
   4  -2   1  108.59    1.61
   4  -2   0    1.61    0.76
   4  -2   0    0.56    0.38
   4  -2  -1   93.31    1.58
   4  -2  -1   90.27    1.66
   4  -2  -2   20.47    1.04
   4  -2  -2   20.67    1.12
   4  -2  -3   66.21    1.41
   4  -2  -3   68.40    1.89
   4  -2  -4    8.23    0.89
   4  -2  -4    8.37    1.20
   4  -2  -5   14.39    1.08
   4  -2  -5   14.12    1.17
   4  -2  -6   22.63    1.28
   4  -2  -6   21.63    1.43
   4  -2  -7   -0.32    0.77
   4  -2  -8   28.21    1.90
   4  -2  -9    0.80    0.79
   4  -3   2    0.78    0.33
   4  -3   1   46.42    1.52
   4  -3   1   46.85    1.20
   4  -3   0    5.86    0.79
   4  -3   0    6.21    0.68
   4  -3  -1    1.37    0.42
   4  -3  -1    1.47    0.67
   4  -3  -2   12.73    1.02
   4  -3  -2   13.07    1.00
   4  -3  -3    5.62    0.79
   4  -3  -3    5.95    0.76
   4  -3  -4   15.74    1.19
   4  -3  -4   16.04    1.16
   4  -3  -5   17.53    1.18
   4  -3  -5   16.60    1.29
   4  -3  -6    2.63    0.60
   4  -3  -6    4.11    1.03
   4  -3  -7   21.93    1.45
   4  -3  -7   21.20    1.78
   4  -3  -8    3.10    0.99
   4  -4   2    0.69    0.61
   4  -4   1   74.72    1.88
   4  -4   1   75.51    1.46
   4  -4   0    2.18    0.71
   4  -4   0    1.97    0.73
   4  -4  -1   23.15    1.15
   4  -4  -1   24.63    1.40
   4  -4  -2   13.65    1.33
   4  -4  -2   13.03    1.09
   4  -4  -3    2.42    0.76
   4  -4  -3    3.66    1.02
   4  -4  -4    1.35    0.72
   4  -4  -4    0.69    0.67
   4  -4  -5    7.24    1.03
   4  -4  -5    8.66    1.42
   4  -4  -6    8.80    1.18
   4  -4  -6   11.72    1.45
   4  -4  -7    1.30    0.79
   4  -4  -7    1.15    0.80
   4  -4  -8    2.58    1.14
   4  -5   3    0.51    0.62
   4  -5   2   22.34    1.37
   4  -5   1   34.10    1.64
   4  -5   1   34.25    1.19
   4  -5   0   19.18    1.34
   4  -5   0   18.86    1.17
   4  -5  -1   15.12    1.19
   4  -5  -1   12.94    1.03
   4  -5  -2    5.40    0.92
   4  -5  -2    3.60    0.91
   4  -5  -3    0.14    0.83
   4  -5  -3    0.74    0.60
   4  -5  -4    0.69    0.63
   4  -5  -4    0.68    0.92
   4  -5  -5    1.28    0.98
   4  -5  -5    1.55    0.89
   4  -5  -6    1.24    0.79
   4  -5  -7   12.00    1.69
   4  -6   4    1.81    0.97
   4  -6   3   34.74    1.57
   4  -6   2   43.41    1.83
   4  -6   1   53.21    2.02
   4  -6   0    0.73    0.71
   4  -6   0    0.57    0.54
   4  -6  -1    4.73    0.91
   4  -6  -1    3.69    0.87
   4  -6  -2    0.58    0.65
   4  -6  -2    1.93    0.77
   4  -6  -3    0.74    0.78
   4  -6  -3    0.82    0.83
   4  -6  -4    1.76    1.01
   4  -6  -5    2.82    1.35
   4  -7   6    0.97    1.02
   4  -7   5   13.21    1.50
   4  -7   4   10.51    1.53
   4  -7   3    5.71    1.18
   4  -7   2   11.28    1.29
   4  -7   1   13.30    1.39
   4  -7   0    0.67    0.57
   4  -7  -1   24.53    1.58
   4  -7  -2    0.08    0.78
   4  -7  -3    1.82    1.02
   4  -7  -4    0.99    1.13
   4  -8   7    2.95    1.19
   4  -8   6    1.08    0.87
   4  -8   5    5.12    1.36
   4  -8   4   20.77    1.62
   4  -8   3    3.50    0.99
   4  -8   2    0.90    0.75
   4  -8   1    3.20    0.81
   4  -8   0    1.36    1.25
   4  -8  -1   13.60    1.98
   4  -8  -2    4.54    1.25
   4  -9   6    0.42    0.98
   4  -9   5   10.76    1.52
   4  -9   4    0.36    1.05
   4  -9   3    1.72    1.08
   4  -9   2    0.39    1.17
   4  -9   1    3.91    1.34
   4  -9   0    2.11    1.28
   5   9  -5    0.78    0.90
   5   8  -2    3.25    1.19
   5   8  -3    1.95    1.38
   5   8  -4    1.39    0.80
   5   8  -5    7.02    1.20
   5   8  -6    0.74    0.92
   5   8  -9   12.64    1.40
   5   7   0    0.84    1.23
   5   7  -1    1.67    1.09
   5   7  -2    1.52    1.17
   5   7  -3    1.45    0.97
   5   7  -4    1.35    1.03
   5   7  -5    1.19    0.80
   5   7  -6    1.10    0.75
   5   7  -7   10.33    1.24
   5   7  -7    9.15    1.13
   5   7  -8    2.06    0.98
   5   7  -9    3.12    0.92
   5   7 -10    1.59    0.97
   5   6   0    1.05    0.95
   5   6  -1    7.40    1.11
   5   6  -2    1.80    0.87
   5   6  -3   14.74    1.37
   5   6  -4    0.16    0.64
   5   6  -5   11.26    1.31
   5   6  -6    0.70    0.59
   5   6  -6    0.26    0.71
   5   6  -7    1.81    0.81
   5   6  -7    2.61    1.11
   5   6  -8   15.74    1.64
   5   6  -9    2.49    1.21
   5   6 -10    5.67    1.33
   5   5   1    1.91    0.86
   5   5   0    6.20    1.27
   5   5  -1    0.63    0.80
   5   5  -2   11.55    1.32
   5   5  -3   31.16    1.61
   5   5  -4    5.15    0.83
   5   5  -5   16.07    1.42
   5   5  -5   14.54    1.07
   5   5  -6   13.39    1.12
   5   5  -6   13.59    1.16
   5   5  -7    0.88    0.68
   5   5  -7    0.50    0.47
   5   5  -8    8.60    1.06
   5   5  -8    9.94    1.31
   5   5  -9    1.78    0.98
   5   5 -10   10.40    1.41
   5   4   2    0.92    0.90
   5   4   1   26.15    1.79
   5   4   0    0.75    0.75
   5   4  -1    8.24    1.15
   5   4  -2   24.41    1.53
   5   4  -3    0.56    0.48
   5   4  -4  118.07    2.54
   5   4  -4  118.62    2.09
   5   4  -5    6.05    1.02
   5   4  -5    6.25    0.88
   5   4  -6    8.22    1.15
   5   4  -6    7.26    1.02
   5   4  -7    0.47    0.60
   5   4  -7    0.53    0.49
   5   4  -8    0.80    0.65
   5   4  -8    0.51    0.73
   5   4  -9    2.18    0.95
   5   4 -10    0.11    0.88
   5   3   3   15.60    1.54
   5   3   2    0.95    0.53
   5   3   1   18.07    1.51
   5   3   0   12.01    1.39
   5   3  -1    0.74    0.85
   5   3  -2    3.77    1.19
   5   3  -3    1.36    0.97
   5   3  -3    0.77    0.69
   5   3  -4    9.19    1.01
   5   3  -4    8.99    0.92
   5   3  -5   48.94    1.70
   5   3  -5   49.74    1.77
   5   3  -6   12.21    1.15
   5   3  -6   12.09    1.07
   5   3  -7    3.87    0.96
   5   3  -7    4.90    1.00
   5   3  -8    0.75    0.91
   5   3  -8    0.76    0.59
   5   3  -9    1.30    0.91
   5   3  -9    0.38    0.44
   5   3 -10   11.58    1.61
   5   2   4    1.97    0.75
   5   2   3   16.53    1.31
   5   2   2    8.40    1.02
   5   2   1    9.87    1.14
   5   2   0    1.94    0.67
   5   2  -1    7.53    0.98
   5   2  -2    0.21    0.42
   5   2  -3   27.65    1.52
   5   2  -4   22.60    1.39
   5   2  -4   22.31    1.25
   5   2  -5    0.74    0.65
   5   2  -5    0.60    0.43
   5   2  -6    2.14    0.78
   5   2  -6    3.06    0.92
   5   2  -7   44.96    1.85
   5   2  -7   44.69    1.80
   5   2  -8    0.92    0.87
   5   2  -8    1.54    0.90
   5   2  -9    1.26    0.81
   5   2  -9    0.49    0.71
   5   2 -10    1.82    1.00
   5   1   3    0.33    0.69
   5   1   2    9.94    1.03
   5   1   1    0.99    0.66
   5   1   0   19.12    1.25
   5   1  -1    8.59    1.01
   5   1  -2   43.68    1.66
   5   1  -3    0.61    0.42
   5   1  -4    6.99    0.83
   5   1  -5   10.62    1.13
   5   1  -6    1.04    0.65
   5   1  -6    1.79    1.09
   5   1  -7    3.00    1.08
   5   1  -7    0.99    0.63
   5   1  -8    1.27    0.87
   5   1  -8    0.43    0.62
   5   1  -9    9.49    1.37
   5   1  -9    8.21    1.25
   5   1 -10    0.98    0.92
   5   0   3   38.41    1.57
   5   0   2    1.47    0.68
   5   0   1    0.70    0.63
   5   0   0    0.20    0.41
   5   0  -1   43.76    1.52
   5   0  -2   12.95    1.44
   5   0  -3    2.13    0.63
   5   0  -4    2.80    0.82
   5   0  -5    1.55    0.58
   5   0  -6    2.11    0.93
   5   0  -7    3.68    0.85
   5   0  -8    6.51    0.92
   5   0  -9    0.95    0.76
   5   0 -10    1.52    1.05
   5  -1   2    0.61    0.55
   5  -1   1    6.29    0.90
   5  -1   0    6.89    0.87
   5  -1  -1    0.56    0.59
   5  -1  -1    0.52    0.45
   5  -1  -2    7.93    0.78
   5  -1  -2    8.79    1.19
   5  -1  -3    6.71    0.98
   5  -1  -4   69.31    1.90
   5  -1  -5    2.27    0.92
   5  -1  -6    0.23    0.58
   5  -1  -7    2.43    1.15
   5  -1  -8    1.75    1.21
   5  -1  -9    3.68    0.96
   5  -2   1    0.62    0.48
   5  -2   0   18.24    0.98
   5  -2   0   17.73    1.08
   5  -2  -1   10.52    0.63
   5  -2  -1   10.84    1.06
   5  -2  -2    1.57    0.59
   5  -2  -2    1.59    0.78
   5  -2  -3    2.12    0.43
   5  -2  -3    1.40    0.45
   5  -2  -4    4.36    0.85
   5  -2  -5    2.63    1.06
   5  -2  -6   34.54    1.72
   5  -2  -7    2.34    1.04
   5  -2  -8    4.12    1.36
   5  -3   1    9.90    1.18
   5  -3   1    9.35    0.78
   5  -3   0    1.46    0.63
   5  -3   0    2.25    0.95
   5  -3  -1    1.69    0.85
   5  -3  -1    2.55    0.97
   5  -3  -2   36.91    1.39
   5  -3  -2   39.16    1.60
   5  -3  -3    0.59    0.65
   5  -3  -3    0.69    0.62
   5  -3  -4    0.57    0.52
   5  -3  -4    0.94    0.84
   5  -3  -5   37.22    1.77
   5  -3  -6    3.20    1.05
   5  -3  -7   11.52    1.37
   5  -3  -8    3.12    1.25
   5  -4   2    5.80    1.07
   5  -4   1   19.28    1.28
   5  -4   0    8.69    1.17
   5  -4   0    7.83    0.91
   5  -4  -1   10.71    1.15
   5  -4  -1    9.97    0.95
   5  -4  -2    1.25    0.68
   5  -4  -2    1.54    0.69
   5  -4  -3   24.19    1.37
   5  -4  -3   24.14    1.51
   5  -4  -4    2.32    0.71
   5  -4  -4    2.65    0.97
   5  -4  -5    0.63    0.61
   5  -4  -5    0.31    0.68
   5  -4  -6    5.70    1.23
   5  -4  -7    0.95    0.69
   5  -5   3    0.86    0.75
   5  -5   2    0.64    0.68
   5  -5   1    6.16    1.16
   5  -5   0   31.60    1.39
   5  -5   0   30.40    1.33
   5  -5  -1   11.03    1.31
   5  -5  -1   10.63    1.05
   5  -5  -2    2.50    0.78
   5  -5  -2    3.46    0.95
   5  -5  -3    1.21    0.78
   5  -5  -3    0.87    0.66
   5  -5  -4   51.89    2.02
   5  -5  -4   47.80    2.13
   5  -5  -5    1.19    0.92
   5  -5  -5    1.40    0.86
   5  -5  -6    2.20    1.17
   5  -5  -6    1.48    1.13
   5  -6   4    5.77    1.27
   5  -6   3    3.67    1.15
   5  -6   2    0.45    0.94
   5  -6   1    0.73    0.67
   5  -6   0   10.76    1.12
   5  -6  -1    0.66    0.82
   5  -6  -1    0.40    0.45
   5  -6  -2    1.72    1.18
   5  -6  -2    1.40    0.95
   5  -6  -3    2.04    1.18
   5  -6  -3    2.81    0.99
   5  -6  -4    0.47    0.69
   5  -6  -4    1.16    0.75
   5  -6  -5    1.22    0.96
   5  -7   6    9.25    1.44
   5  -7   5    6.60    1.29
   5  -7   4    2.26    1.03
   5  -7   3    4.30    1.05
   5  -7   2    0.92    0.82
   5  -7   1    0.44    0.71
   5  -7   0    0.68    0.72
   5  -7  -1    3.06    0.79
   5  -7  -1    6.00    1.17
   5  -7  -2    2.35    1.06
   5  -7  -2    2.60    0.85
   5  -7  -3    1.65    0.80
   5  -8   6    1.46    0.94
   5  -8   5    1.30    1.11
   5  -8   4    1.02    1.04
   5  -8   3    1.20    1.04
   5  -8   2    2.10    0.94
   5  -8   1    0.99    0.91
   5  -8   0    5.38    1.48
   5  -8  -1   -0.26    0.88
   5  -9   3    2.89    1.04
   6   8  -5    8.20    1.25
   6   8  -6    3.63    0.98
   6   8  -7    2.48    1.22
   6   7  -2    1.22    0.86
   6   7  -3    3.15    1.30
   6   7  -4    2.22    1.22
   6   7  -5    1.12    0.99
   6   7  -6    0.72    0.71
   6   7  -7    0.03    1.14
   6   7  -9   11.62    1.40
   6   6   0    3.38    1.23
   6   6  -1    3.76    1.38
   6   6  -2   -0.06    0.88
   6   6  -3    0.83    1.07
   6   6  -4    2.24    1.35
   6   6  -5    0.73    0.95
   6   6  -6    0.48    0.92
   6   6  -7    0.74    0.86
   6   6  -7    0.88    0.91
   6   6  -8    0.70    0.92
   6   6  -8    1.10    0.76
   6   6  -9    1.37    1.25
   6   5   1    1.34    0.91
   6   5   0    3.72    1.04
   6   5  -1    3.07    0.95
   6   5  -2    0.78    0.86
   6   5  -3    0.96    0.79
   6   5  -4    5.85    1.21
   6   5  -5   21.21    1.46
   6   5  -6    1.11    0.95
   6   5  -6    1.10    0.81
   6   5  -7    0.81    0.88
   6   5  -7    1.14    0.91
   6   5  -8   -0.11    0.72
   6   5  -8    0.19    0.86
   6   5  -9    1.44    0.92
   6   5  -9    1.10    0.85
   6   5 -10    2.21    1.14
   6   4   3    2.63    0.73
   6   4   2    0.93    1.07
   6   4   1    1.59    0.85
   6   4   0    0.26    0.78
   6   4  -1    6.69    1.39
   6   4  -2   12.29    1.25
   6   4  -3    2.58    1.05
   6   4  -4    6.41    1.02
   6   4  -5    4.93    1.22
   6   4  -5    4.74    0.91
   6   4  -6    0.33    0.85
   6   4  -6    0.87    0.73
   6   4  -7    1.22    0.93
   6   4  -7    0.79    0.62
   6   4  -8    4.81    1.13
   6   4  -8    4.36    0.97
   6   4  -9   12.85    1.58
   6   4  -9   11.02    1.25
   6   4 -10    1.83    1.12
   6   3   3    0.93    0.78
   6   3   2    2.52    0.88
   6   3   1    1.99    1.08
   6   3   0    4.44    0.77
   6   3  -1    5.40    1.40
   6   3  -2    0.16    0.70
   6   3  -3  195.84    3.19
   6   3  -4    3.92    1.24
   6   3  -5    1.85    0.95
   6   3  -6    0.58    0.73
   6   3  -6    1.25    0.66
   6   3  -7    1.21    0.93
   6   3  -7    1.06    0.84
   6   3  -8    3.90    1.04
   6   3  -8    4.13    1.15
   6   3  -9    0.17    0.98
   6   3  -9    0.45    0.86
   6   3 -10    0.36    0.91
   6   3 -10    0.94    0.74
   6   2   3    4.61    0.95
   6   2   2   10.08    1.38
   6   2   1    3.60    1.19
   6   2   0    0.55    0.60
   6   2  -1    0.62    0.48
   6   2  -2    2.22    1.11
   6   2  -3   11.33    1.19
   6   2  -4   50.88    1.83
   6   2  -5    0.41    0.82
   6   2  -6    0.76    0.81
   6   2  -7    2.59    1.14
   6   2  -8    1.10    0.72
   6   2  -8    1.56    0.88
   6   2  -9    3.59    1.16
   6   2  -9    3.92    1.14
   6   2 -10    9.08    1.66
   6   1   2   21.83    1.54
   6   1   1   39.58    1.67
   6   1   0    3.71    1.02
   6   1  -1   17.98    1.29
   6   1  -2    0.62    0.64
   6   1  -3    0.98    0.78
   6   1  -4    0.74    0.89
   6   1  -5    1.76    0.73
   6   1  -6    8.64    0.99
   6   1  -7    1.28    0.88
   6   1  -8    2.45    1.10
   6   1  -9    9.26    1.32
   6   1 -10    1.35    1.02
   6   0   2    1.39    0.72
   6   0   1    3.13    1.07
   6   0   0   43.29    1.61
   6   0  -1   13.29    1.24
   6   0  -2    3.62    0.70
   6   0  -3   22.21    1.35
   6   0  -4    2.92    0.95
   6   0  -5    3.92    1.01
   6   0  -6    2.34    1.09
   6   0  -7    7.56    1.19
   6   0  -8   17.55    1.68
   6   0  -9    1.50    0.94
   6  -1   1    0.28    0.45
   6  -1   0   12.84    1.09
   6  -1  -1   36.81    1.65
   6  -1  -2    1.02    0.74
   6  -1  -3   20.69    1.23
   6  -1  -4   10.84    1.12
   6  -1  -5    0.64    0.74
   6  -1  -6    0.13    0.65
   6  -1  -7   15.23    1.49
   6  -1  -8   -0.33    0.90
   6  -2   1    5.59    0.79
   6  -2   0    0.95    0.61
   6  -2   0    0.59    0.59
   6  -2  -1   24.14    1.34
   6  -2  -2   11.08    1.01
   6  -2  -3    6.51    1.22
   6  -2  -4    1.66    1.10
   6  -2  -5    1.38    0.76
   6  -2  -6   18.82    1.55
   6  -2  -7    0.39    0.98
   6  -2  -8   14.32    1.63
   6  -3   1    1.50    0.71
   6  -3   0    8.08    0.88
   6  -3   0    7.10    0.80
   6  -3  -1    0.69    0.62
   6  -3  -1    0.44    0.58
   6  -3  -2    3.82    0.85
   6  -3  -3    1.30    0.76
   6  -3  -4    0.60    0.64
   6  -3  -5    2.73    1.11
   6  -3  -6    4.53    1.16
   6  -3  -7   14.02    1.57
   6  -4   2    0.68    0.80
   6  -4   1   21.13    1.48
   6  -4   0   27.81    1.63
   6  -4   0   27.05    1.34
   6  -4  -1   22.26    1.45
   6  -4  -1   19.32    1.33
   6  -4  -2    0.38    0.78
   6  -4  -2    1.26    0.70
   6  -4  -3   13.32    1.31
   6  -4  -4    2.79    0.93
   6  -4  -5    0.76    0.65
   6  -4  -6    0.94    0.96
   6  -5   3    4.64    1.21
   6  -5   2   18.15    1.32
   6  -5   1   29.80    1.56
   6  -5   0   20.59    1.47
   6  -5  -1    0.91    0.82
   6  -5  -1    1.23    0.88
   6  -5  -2   -0.06    0.57
   6  -5  -2    0.48    0.48
   6  -5  -3    3.29    1.09
   6  -5  -3    3.53    1.05
   6  -5  -4    0.41    0.83
   6  -5  -5    1.21    1.00
   6  -6   5    3.95    1.35
   6  -6   4   11.25    1.27
   6  -6   3    3.47    0.92
   6  -6   2    4.45    0.93
   6  -6   1    7.89    1.27
   6  -6   0   18.31    1.66
   6  -6  -1    0.16    0.76
   6  -6  -2    5.00    0.88
   6  -6  -2    5.89    1.17
   6  -6  -3    4.35    1.13
   6  -6  -3    7.45    1.35
   6  -6  -4    2.12    0.96
   6  -6  -4    2.88    1.24
   6  -7   5    1.32    1.20
   6  -7   4    0.67    1.33
   6  -7   3   12.47    1.78
   6  -7   2    1.01    1.16
   6  -7   1    2.33    0.94
   6  -7   0    0.97    1.10
   6  -7  -1    0.78    0.84
   6  -7  -2    0.34    0.91
   6  -7  -2    0.78    0.91
   6  -7  -3    1.31    0.89
   6  -8   3    1.77    1.32
   6  -8   2    1.05    1.12
   6  -8   1    2.36    1.36
   6  -8   0    1.30    1.09
   7   6  -3    0.98    0.93
   7   6  -4    0.24    0.98
   7   6  -5    2.05    0.73
   7   6  -6   38.16    2.18
   7   6  -7    0.67    0.94
   7   6  -8    1.00    0.84
   7   6  -9    0.52    0.85
   7   5  -1    2.46    1.09
   7   5  -2    1.32    1.05
   7   5  -3    2.87    1.45
   7   5  -4    6.67    1.18
   7   5  -5   23.33    1.62
   7   5  -6    4.62    1.49
   7   5  -7   12.29    1.52
   7   5  -7   11.08    1.29
   7   5  -8    2.63    1.07
   7   5  -8    1.67    0.72
   7   5  -9    3.93    1.04
   7   4   1    3.75    1.38
   7   4   0    0.95    0.64
   7   4  -1    0.93    0.64
   7   4  -2    1.29    0.89
   7   4  -3    2.70    1.17
   7   4  -4    0.40    0.95
   7   4  -5    1.41    1.06
   7   4  -6   28.89    1.74
   7   4  -7    1.16    0.97
   7   4  -8    1.40    0.90
   7   4  -8    0.75    0.90
   7   4  -9    6.53    1.32
   7   4  -9    6.16    1.21
   7   3   2    1.34    0.70
   7   3   1    0.66    0.84
   7   3   0    6.02    1.12
   7   3  -1    1.38    0.98
   7   3  -2    0.86    0.69
   7   3  -3    5.57    1.30
   7   3  -4    1.56    0.89
   7   3  -5    0.26    0.72
   7   3  -6    1.20    0.95
   7   3  -7    2.00    0.68
   7   3  -8    4.96    1.04
   7   3  -9    1.45    1.08
   7   2   2    2.07    0.99
   7   2   1    1.20    0.78
   7   2   0    0.40    0.76
   7   2  -1    1.45    0.85
   7   2  -2    1.07    0.79
   7   2  -3    1.97    1.23
   7   2  -4   24.93    1.77
   7   2  -5    0.41    0.80
   7   2  -6    1.84    0.94
   7   2  -7    1.06    0.74
   7   2  -8    4.27    1.20
   7   2  -9    0.38    1.02
   7   1   1    1.26    0.72
   7   1   0    0.70    0.61
   7   1  -1    8.64    1.25
   7   1  -2    1.63    0.90
   7   1  -3    4.43    1.12
   7   1  -4   19.66    1.54
   7   1  -5    0.98    0.77
   7   1  -6    4.12    1.00
   7   1  -7    1.05    1.00
   7   1  -8    0.35    0.63
   7   1  -9    4.17    1.25
   7   0   1    4.85    0.90
   7   0   0    1.07    0.73
   7   0  -1    0.02    1.08
   7   0  -2   18.15    1.44
   7   0  -3    0.40    0.92
   7   0  -4    1.56    0.87
   7   0  -5   24.72    1.73
   7   0  -6    0.98    0.99
   7   0  -7    0.65    0.94
   7   0  -8    1.80    1.23
   7  -1   0    0.85    0.68
   7  -1  -1    4.73    0.98
   7  -1  -2    6.64    1.03
   7  -1  -3    0.65    0.75
   7  -1  -4    7.95    1.12
   7  -1  -5    3.44    0.96
   7  -1  -6    1.85    1.17
   7  -1  -7   22.80    2.04
   7  -2   0   12.56    1.19
   7  -2  -1    3.83    1.09
   7  -2  -2   20.56    1.43
   7  -2  -3    6.27    1.18
   7  -2  -4    3.51    1.06
   7  -2  -5    1.08    1.04
   7  -2  -6   10.15    1.60
   7  -2  -7    1.33    1.27
   7  -3  -1    0.79    0.55
   7  -3  -2   42.41    1.85
   7  -3  -3    9.36    1.25
   7  -3  -4    8.45    1.37
   7  -3  -5    2.40    0.90
   7  -3  -6    2.75    1.30
   7  -4   2    3.42    0.90
   7  -4   1    0.87    0.83
   7  -4  -1    3.53    0.96
   7  -4  -2    2.86    0.89
   7  -4  -3    5.43    1.23
   7  -4  -4    1.55    1.11
   7  -4  -5   14.33    1.81
   7  -5   4    2.32    1.11
   7  -5   3    0.67    0.84
   7  -5   2    0.97    0.80
   7  -5   1    0.18    0.73
   7  -5   0    1.97    1.13
   7  -5  -2    0.64    0.80
   7  -5  -3    1.83    1.04
   7  -5  -4    6.07    1.28
   7  -6   4    1.43    1.09
   7  -6   3    1.08    0.91
   7  -6   2    3.52    1.27
   7  -6   1    0.18    0.88
   7  -6   0    0.25    0.78
   7  -6  -1    1.36    0.96
   7  -6  -3    1.14    0.83
   7  -7   3    1.23    1.05
   7  -7   2    1.42    1.06
   7  -7   1    2.45    1.26
   7  -7   0    0.98    1.02
   7  -7  -1    2.67    0.93
   8   4  -2    2.22    1.01
   8   4  -3    1.03    0.84
   8   4  -4   22.76    2.03
   8   4  -5    2.89    1.25
   8   4  -6    5.74    1.37
   8   3   0   10.31    1.52
   8   3  -1    4.32    1.30
   8   3  -2    1.26    1.11
   8   3  -3    1.31    1.03
   8   3  -4   15.35    1.67
   8   3  -5    4.04    1.11
   8   3  -6    0.91    0.89
   8   3  -7    0.75    0.80
   8   2   1    4.77    1.08
   8   2   0    5.60    1.25
   8   2  -1    1.23    1.10
   8   2  -2    7.27    1.45
   8   2  -3    0.63    0.82
   8   2  -4    0.38    1.09
   8   2  -5    0.29    0.72
   8   2  -6    1.52    1.14
   8   2  -7    2.11    0.97
   8   1   0    3.67    0.98
   8   1  -1   11.88    1.28
   8   1  -2    1.22    0.74
   8   1  -3    1.00    0.82
   8   1  -4    0.93    1.21
   8   1  -5    1.50    0.97
   8   1  -6    3.92    1.40
   8   1  -7    1.10    0.67
   8   0   0    0.85    0.93
   8   0  -1    9.70    1.36
   8   0  -2    2.35    0.93
   8   0  -3   14.39    1.76
   8   0  -4    0.97    1.08
   8   0  -5    0.52    0.97
   8   0  -6    1.14    1.20
   8  -1   0    1.27    0.92
   8  -1  -1    1.22    0.88
   8  -1  -2    0.31    0.75
   8  -1  -3    1.17    0.92
   8  -1  -4    8.09    1.31
   8  -1  -5    1.73    0.78
   8  -1  -6    0.92    1.18
   8  -2  -1    8.08    1.34
   8  -2  -2    4.82    1.22
   8  -2  -3    0.29    0.87
   8  -2  -4    2.00    0.87
   8  -2  -5    0.14    0.91
   8  -3  -2    9.91    1.30
   8  -3  -3    2.47    1.15
   8  -3  -4    0.85    0.58
   8  -4  -2    3.66    0.98
   8  -4  -3    3.10    1.01
   9   1  -1    0.60    0.60
   9   1  -2    0.86    0.99
   9   0  -1    1.02    0.81
   9   0  -2    1.48    1.09
   9   0  -3    1.48    1.00
   9  -1  -1    2.73    0.86
   9  -1  -2    0.38    0.90
   9  -1  -3    6.57    1.48
   9  -2  -2    1.32    0.88
   0   0   0    0.00    0.00
;
_shelx_hkl_checksum              56515
loop_
_space_group_symop_operation_xyz
'x, y, z'
'-x, -y, -z'
loop_
_atom_site_label
_atom_site_type_symbol
_atom_site_fract_x
_atom_site_fract_y
_atom_site_fract_z
_atom_site_U_iso_or_equiv
_atom_site_adp_type
_atom_site_occupancy
_atom_site_site_symmetry_order
_atom_site_calc_flag
_atom_site_refinement_flags_posn
_atom_site_refinement_flags_adp
_atom_site_refinement_flags_occupancy
_atom_site_disorder_assembly
_atom_site_disorder_group
O1 O 0.22212(8) 0.42410(6) 0.38827(6) 0.02018(16) Uani 1 1 d . . . . .
O2 O 0.21602(8) 0.17159(6) 0.16260(6) 0.02048(16) Uani 1 1 d . . . . .
O3 O 0.33476(9) 0.14770(7) 0.65186(6) 0.02495(16) Uani 1 1 d . . . . .
O4 O 0.08683(9) 0.05846(7) 0.42720(6) 0.02665(16) Uani 1 1 d . . . . .
C1 C 0.26733(11) 0.26707(9) 0.31725(8) 0.0155(2) Uani 1 1 d . . . . .
C2 C 0.38797(12) 0.19357(10) 0.42455(8) 0.0180(2) Uani 1 1 d . . . . .
C3 C 0.26441(12) 0.13113(9) 0.51245(9) 0.0177(2) Uani 1 1 d . . . . .
N1A1 N 0.29157(10) 0.62663(8) 0.71732(7) 0.01724(18) Uani 1 1 d . . . . .
C1A C 0.23138(12) 0.78757(10) 0.78761(8) 0.0170(2) Uani 1 1 d . . . . .
N1A2 N 0.29976(9) 0.85671(8) 0.95151(7) 0.01723(18) Uani 1 1 d . . . . .
C2A C 0.40650(12) 0.73568(10) 0.98599(9) 0.0190(2) Uani 1 1 d . . . . .
C3A C 0.40074(12) 0.59229(10) 0.83979(8) 0.0189(2) Uani 1 1 d . . . . .
N1B1 N 0.07017(19) 0.40799(15) 1.04968(14) 0.0176(4) Uani 0.5 1 d D . P . .
C1B C 0.0044(2) 0.37842(18) 0.89125(17) 0.0172(4) Uani 0.5 1 d . . P . .
N1B2 N -0.06198(19) 0.52515(15) 0.89252(14) 0.0167(4) Uani 0.5 1 d D . P . .
C2B C -0.0381(2) 0.65397(19) 1.05460(17) 0.0185(4) Uani 0.5 1 d . . P . .
C3B C 0.0433(2) 0.57945(18) 1.15059(17) 0.0169(4) Uani 0.5 1 d . . P . .
H1A1 H 0.2673(13) 0.5516(11) 0.6025(10) 0.045(3) Uiso 1 1 d . . . . .
H1A H 0.1507(11) 0.8489(9) 0.7294(8) 0.023(2) Uiso 1 1 d . . . . .
H1A2 H 0.2797(13) 0.9704(11) 1.0365(10) 0.048(3) Uiso 1 1 d . . . . .
H2A H 0.4681(11) 0.7614(9) 1.0963(8) 0.022(2) Uiso 1 1 d . . . . .
H3A H 0.4555(11) 0.4870(9) 0.8168(8) 0.020(2) Uiso 1 1 d . . . . .
H3B H 0.080(2) 0.6253(18) 1.2761(15) 0.016(4) Uiso 0.5 1 d . . P . .
H2B H -0.073(2) 0.753(2) 1.0707(17) 0.028(5) Uiso 0.5 1 d . . P . .
H1B2 H -0.116(3) 0.535(2) 0.7899(17) 0.042(5) Uiso 0.5 1 d D . P . .
H1B1 H 0.125(3) 0.3191(19) 1.0916(18) 0.045(6) Uiso 0.5 1 d D . P . .
H1B H 0.008(3) 0.273(2) 0.790(2) 0.058(6) Uiso 0.5 1 d . . P . .
H4 H 0.0000 0.0000 0.5000 0.094(6) Uiso 1 2 d S . P . .
H21 H 0.4913(11) 0.2850(9) 0.5048(8) 0.022(2) Uiso 1 1 d . . . . .
H22 H 0.4485(11) 0.0872(9) 0.3550(8) 0.023(2) Uiso 1 1 d . . . . .
loop_
_atom_site_aniso_label
_atom_site_aniso_U_11
_atom_site_aniso_U_22
_atom_site_aniso_U_33
_atom_site_aniso_U_23
_atom_site_aniso_U_13
_atom_site_aniso_U_12
O1 0.0265(3) 0.0155(2) 0.0161(2) 0.00515(16) 0.0042(2) 0.0061(2)
O2 0.0279(3) 0.0186(2) 0.0117(2) 0.00457(16) 0.0031(2) 0.0062(2)
O3 0.0306(3) 0.0298(2) 0.0141(2) 0.01228(17) -0.0009(2) 0.0011(2)
O4 0.0250(3) 0.0369(3) 0.0217(2) 0.02050(17) -0.0030(2) -0.0082(2)
C1 0.0148(4) 0.0172(3) 0.0163(3) 0.0087(2) 0.0052(3) 0.0006(3)
C2 0.0175(4) 0.0191(3) 0.0169(3) 0.0090(2) 0.0013(3) 0.0025(3)
C3 0.0230(4) 0.0124(3) 0.0168(3) 0.0069(2) 0.0020(3) 0.0046(3)
N1A1 0.0213(3) 0.0158(3) 0.0123(2) 0.00483(19) 0.0028(2) 0.0029(3)
C1A 0.0174(4) 0.0179(3) 0.0160(3) 0.0082(2) 0.0034(3) 0.0013(3)
N1A2 0.0190(3) 0.0156(3) 0.0143(2) 0.0045(2) 0.0036(2) 0.0023(3)
C2A 0.0201(4) 0.0207(3) 0.0161(3) 0.0093(2) 0.0021(3) 0.0020(3)
C3A 0.0210(4) 0.0177(3) 0.0177(3) 0.0084(2) 0.0031(3) 0.0045(3)
N1B1 0.0220(7) 0.0144(5) 0.0197(5) 0.0096(4) 0.0069(5) 0.0063(5)
C1B 0.0244(9) 0.0143(6) 0.0187(6) 0.0129(4) 0.0040(6) 0.0076(6)
N1B2 0.0210(7) 0.0153(5) 0.0180(5) 0.0112(4) 0.0046(5) 0.0081(5)
C2B 0.0235(8) 0.0140(6) 0.0189(6) 0.0078(5) 0.0057(6) 0.0065(6)
C3B 0.0222(8) 0.0168(6) 0.0180(6) 0.0134(4) 0.0044(6) 0.0084(6)
loop_
_atom_type_symbol
_atom_type_description
_atom_type_scat_dispersion_real
_atom_type_scat_dispersion_imag
_atom_type_scat_source
C C 0.0033 0.0016 'International Tables Vol C Tables 4.2.6.8 and 6.1.1.4'
H H 0.0000 0.0000 'International Tables Vol C Tables 4.2.6.8 and 6.1.1.4'
N N 0.0061 0.0033 'International Tables Vol C Tables 4.2.6.8 and 6.1.1.4'
O O 0.0106 0.0060 'International Tables Vol C Tables 4.2.6.8 and 6.1.1.4'
loop_
_geom_angle_atom_site_label_1
_geom_angle_atom_site_label_2
_geom_angle_atom_site_label_3
_geom_angle
_geom_angle_site_symmetry_1
_geom_angle_site_symmetry_3
_geom_angle_publ_flag
C3 O4 H4 111.61(6) . . ?
O2 C1 O1 122.34(8) . . ?
O2 C1 C2 119.52(7) . . ?
O1 C1 C2 118.14(6) . . ?
C1 C2 C3 112.59(7) . . ?
C1 C2 H21 108.5(5) . . ?
C3 C2 H21 109.9(5) . . ?
C1 C2 H22 110.5(4) . . ?
C3 C2 H22 106.6(5) . . ?
H21 C2 H22 108.7(6) . . ?
O3 C3 O4 124.59(9) . . ?
O3 C3 C2 120.51(7) . . ?
O4 C3 C2 114.89(7) . . ?
C1A N1A1 C3A 109.05(6) . . ?
C1A N1A1 H1A1 125.0(6) . . ?
C3A N1A1 H1A1 125.9(6) . . ?
N1A2 C1A N1A1 107.96(8) . . ?
N1A2 C1A H1A 125.0(4) . . ?
N1A1 C1A H1A 127.0(4) . . ?
C1A N1A2 C2A 108.79(7) . . ?
C1A N1A2 H1A2 128.0(6) . . ?
C2A N1A2 H1A2 123.2(6) . . ?
C3A C2A N1A2 107.10(7) . . ?
C3A C2A H2A 131.5(5) . . ?
N1A2 C2A H2A 121.4(5) . . ?
C2A C3A N1A1 107.10(7) . . ?
C2A C3A H3A 130.3(4) . . ?
N1A1 C3A H3A 122.6(4) . . ?
N1B2 N1B1 C2B 146.1(3) 2_567 2_567 ?
N1B2 N1B1 C1B 122.8(2) 2_567 . ?
C2B N1B1 C1B 24.32(14) 2_567 . ?
N1B2 N1B1 C3B 16.07(19) 2_567 . ?
C2B N1B1 C3B 131.4(2) 2_567 . ?
C1B N1B1 C3B 107.46(13) . . ?
N1B2 N1B1 C1B 36.24(19) 2_567 2_567 ?
C2B N1B1 C1B 110.67(18) 2_567 2_567 ?
C1B N1B1 C1B 86.75(11) . 2_567 ?
C3B N1B1 C1B 20.77(8) . 2_567 ?
N1B2 N1B1 C3B 109.3(2) 2_567 2_567 ?
C2B N1B1 C3B 37.58(14) 2_567 2_567 ?
C1B N1B1 C3B 13.57(8) . 2_567 ?
C3B N1B1 C3B 93.97(11) . 2_567 ?
C1B N1B1 C3B 73.23(9) 2_567 2_567 ?
N1B2 N1B1 H1B1 108.7(8) 2_567 . ?
C2B N1B1 H1B1 103.8(8) 2_567 . ?
C1B N1B1 H1B1 128.1(8) . . ?
C3B N1B1 H1B1 124.4(8) . . ?
C1B N1B1 H1B1 144.9(8) 2_567 . ?
C3B N1B1 H1B1 141.4(7) 2_567 . ?
C2B C1B C3B 166.4(3) 2_567 2_567 ?
C2B C1B N1B2 139.0(2) 2_567 . ?
C3B C1B N1B2 30.51(13) 2_567 . ?
C2B C1B N1B1 30.98(14) 2_567 . ?
C3B C1B N1B1 138.6(2) 2_567 . ?
N1B2 C1B N1B1 108.54(12) . . ?
C2B C1B N1B2 47.25(15) 2_567 2_567 ?
C3B C1B N1B2 122.04(18) 2_567 2_567 ?
N1B2 C1B N1B2 92.00(11) . 2_567 ?
N1B1 C1B N1B2 16.60(7) . 2_567 ?
C2B C1B N1B1 123.66(19) 2_567 2_567 ?
C3B C1B N1B1 45.58(14) 2_567 2_567 ?
N1B2 C1B N1B1 15.36(7) . 2_567 ?
N1B1 C1B N1B1 93.25(11) . 2_567 ?
N1B2 C1B N1B1 76.67(8) 2_567 2_567 ?
C2B C1B H1B 98.2(13) 2_567 . ?
C3B C1B H1B 92.7(13) 2_567 . ?
N1B2 C1B H1B 122.7(13) . . ?
N1B1 C1B H1B 128.6(13) . . ?
N1B2 C1B H1B 145.2(13) 2_567 . ?
N1B1 C1B H1B 138.1(13) 2_567 . ?
N1B1 N1B2 C3B 152.3(3) 2_567 2_567 ?
N1B1 N1B2 C1B 128.4(2) 2_567 . ?
C3B N1B2 C1B 25.04(13) 2_567 . ?
N1B1 N1B2 C2B 19.99(18) 2_567 . ?
C3B N1B2 C2B 133.80(19) 2_567 . ?
C1B N1B2 C2B 109.04(13) . . ?
N1B1 N1B2 C1B 40.56(18) 2_567 2_567 ?
C3B N1B2 C1B 112.68(17) 2_567 2_567 ?
C1B N1B2 C1B 88.00(11) . 2_567 ?
C2B N1B2 C1B 21.12(9) . 2_567 ?
N1B1 N1B2 C2B 114.8(2) 2_567 2_567 ?
C3B N1B2 C2B 38.32(13) 2_567 2_567 ?
C1B N1B2 C2B 13.59(8) . 2_567 ?
C2B N1B2 C2B 95.56(11) . 2_567 ?
C1B N1B2 C2B 74.47(9) 2_567 2_567 ?
N1B1 N1B2 H1B2 108.7(9) 2_567 . ?
C3B N1B2 H1B2 97.9(9) 2_567 . ?
C1B N1B2 H1B2 122.7(9) . . ?
C2B N1B2 H1B2 128.2(9) . . ?
C1B N1B2 H1B2 149.3(9) 2_567 . ?
C2B N1B2 H1B2 136.2(9) 2_567 . ?
C1B C2B N1B1 124.7(2) 2_567 2_567 ?
C1B C2B C3B 6.82(17) 2_567 . ?
N1B1 C2B C3B 119.91(19) 2_567 . ?
C1B C2B N1B2 111.6(2) 2_567 . ?
N1B1 C2B N1B2 13.89(12) 2_567 . ?
C3B C2B N1B2 106.46(13) . . ?
C1B C2B N1B2 27.39(15) 2_567 2_567 ?
N1B1 C2B N1B2 97.86(16) 2_567 2_567 ?
C3B C2B N1B2 22.05(7) . 2_567 ?
N1B2 C2B N1B2 84.44(11) . 2_567 ?
C1B C2B C3B 94.77(18) 2_567 2_567 ?
N1B1 C2B C3B 30.37(13) 2_567 2_567 ?
C3B C2B C3B 89.64(11) . 2_567 ?
N1B2 C2B C3B 16.85(8) . 2_567 ?
N1B2 C2B C3B 67.61(8) 2_567 2_567 ?
C1B C2B H2B 130.6(10) 2_567 . ?
N1B1 C2B H2B 104.1(10) 2_567 . ?
C3B C2B H2B 135.9(10) . . ?
N1B2 C2B H2B 117.6(10) . . ?
N1B2 C2B H2B 157.9(10) 2_567 . ?
C3B C2B H2B 134.5(10) 2_567 . ?
C1B C3B N1B2 124.4(2) 2_567 2_567 ?
C1B C3B C2B 6.79(17) 2_567 . ?
N1B2 C3B C2B 119.63(17) 2_567 . ?
C1B C3B N1B1 113.65(19) 2_567 . ?
N1B2 C3B N1B1 11.62(13) 2_567 . ?
C2B C3B N1B1 108.49(12) . . ?
C1B C3B N1B1 27.79(14) 2_567 2_567 ?
N1B2 C3B N1B1 97.12(15) 2_567 2_567 ?
C2B C3B N1B1 22.51(7) . 2_567 ?
N1B1 C3B N1B1 86.03(11) . 2_567 ?
C1B C3B C2B 95.46(17) 2_567 2_567 ?
N1B2 C3B C2B 29.35(12) 2_567 2_567 ?
C2B C3B C2B 90.36(11) . 2_567 ?
N1B1 C3B C2B 18.19(8) . 2_567 ?
N1B1 C3B C2B 67.87(8) 2_567 2_567 ?
C1B C3B H3B 127.0(9) 2_567 . ?
N1B2 C3B H3B 107.7(9) 2_567 . ?
C2B C3B H3B 132.5(9) . . ?
N1B1 C3B H3B 119.0(9) . . ?
N1B1 C3B H3B 154.8(9) 2_567 . ?
C2B C3B H3B 137.0(9) 2_567 . ?
loop_
_geom_bond_atom_site_label_1
_geom_bond_atom_site_label_2
_geom_bond_distance
_geom_bond_site_symmetry_2
_geom_bond_publ_flag
O1 C1 1.2645(10) . ?
O2 C1 1.2549(9) . ?
O3 C3 1.2251(10) . ?
O4 C3 1.2965(11) . ?
O4 H4 1.2269(7) . ?
C1 C2 1.5166(12) . ?
C2 C3 1.5229(13) . ?
C2 H21 0.958(6) . ?
C2 H22 1.001(7) . ?
N1A1 C1A 1.3326(11) . ?
N1A1 C3A 1.3764(11) . ?
N1A1 H1A1 0.938(8) . ?
C1A N1A2 1.3312(10) . ?
C1A H1A 1.003(8) . ?
N1A2 C2A 1.3826(11) . ?
N1A2 H1A2 0.964(8) . ?
C2A C3A 1.3433(11) . ?
C2A H2A 0.945(7) . ?
C3A H3A 0.923(7) . ?
N1B1 N1B2 0.5920(15) 2_567 ?
N1B1 C2B 0.8432(17) 2_567 ?
N1B1 C1B 1.347(2) . ?
N1B1 C3B 1.3655(18) . ?
N1B1 C1B 1.751(2) 2_567 ?
N1B1 C3B 1.909(2) 2_567 ?
N1B1 H1B1 1.030(17) . ?
C1B C2B 0.675(2) 2_567 ?
C1B C3B 0.678(2) 2_567 ?
C1B N1B2 1.321(2) . ?
C1B N1B2 1.7405(19) 2_567 ?
C1B N1B1 1.751(2) 2_567 ?
C1B H1B 0.969(16) . ?
N1B2 N1B1 0.5919(15) 2_567 ?
N1B2 C3B 0.8134(18) 2_567 ?
N1B2 C2B 1.3749(18) . ?
N1B2 C1B 1.7404(19) 2_567 ?
N1B2 C2B 1.883(2) 2_567 ?
N1B2 H1B2 0.985(16) . ?
C2B C1B 0.675(2) 2_567 ?
C2B N1B1 0.8432(17) 2_567 ?
C2B C3B 1.343(2) . ?
C2B N1B2 1.883(2) 2_567 ?
C2B C3B 2.025(2) 2_567 ?
C2B H2B 0.825(16) . ?
C3B C1B 0.678(2) 2_567 ?
C3B N1B2 0.8134(18) 2_567 ?
C3B N1B1 1.909(2) 2_567 ?
C3B C2B 2.025(2) 2_567 ?
C3B H3B 1.018(13) . ?
loop_
_geom_hbond_atom_site_label_D
_geom_hbond_atom_site_label_H
_geom_hbond_atom_site_label_A
_geom_hbond_distance_DH
_geom_hbond_distance_HA
_geom_hbond_distance_DA
_geom_hbond_angle_DHA
_geom_hbond_site_symmetry_A
O4 H4 O3 1.2269(7) 2.4481(12) 3.1641(13) 114.73(3) 2_556
O4 H4 O4 1.2269(7) 1.2269(7) 2.4538(14) 180.000(0) 2_556
C2 H21 O1 0.958(6) 2.797(7) 3.6814(19) 153.9(7) 2_666
C2 H22 O3 1.001(7) 2.496(8) 3.3796(15) 147.0(6) 2_656
N1A1 H1A1 O1 0.938(8) 1.735(8) 2.6715(13) 176.6(10) .
C1A H1A O4 1.003(8) 2.352(8) 3.3408(14) 168.3(6) 2_566
N1A2 H1A2 O2 0.964(8) 1.702(8) 2.6583(13) 171.0(8) 1_566
C2A H2A O3 0.945(7) 2.231(7) 3.1613(15) 167.8(7) 2_667
C3A H3A O3 0.923(7) 2.586(7) 3.3199(15) 136.9(6) .
C3B H3B O1 1.018(13) 2.473(16) 3.0957(19) 118.8(10) 1_556
C2B H2B O2 0.825(16) 2.534(17) 3.065(2) 123.2(11) 2_566
C2B H2B O4 0.825(16) 3.094(12) 3.525(2) 115.2(11) 1_566
N1B2 H1B2 O1 0.985(16) 1.844(16) 2.8261(16) 174.1(13) 2_566
N1B2 H1B2 O2 0.985(16) 2.448(17) 2.9903(17) 114.2(10) 2_566
N1B1 H1B1 O1 1.030(17) 2.412(15) 3.0330(16) 117.8(9) 1_556
N1B1 H1B1 O2 1.030(17) 1.719(17) 2.7492(17) 179.7(14) 1_556
C1B H1B O3 0.969(16) 2.824(19) 3.516(2) 129.0(13) .
C1B H1B O4 0.969(16) 2.576(16) 3.476(2) 154.4(17) 2_556
