#------------------------------------------------------------------------------
#$Date: 2019-05-18 08:14:21 +0300 (Sat, 18 May 2019) $
#$Revision: 215299 $
#$URL: file:///home/coder/svn-repositories/cod/cif/2/10/83/2108395.cif $
#------------------------------------------------------------------------------
#
# This file is available in the Crystallography Open Database (COD),
# http://www.crystallography.net/. The original data for this entry
# were provided by IUCr Journals, http://journals.iucr.org/.
#
# The file may be used within the scientific community so long as
# proper attribution is given to the journal article from which the
# data were obtained.
#
data_2108395
loop_
_publ_author_name
'Tcho\'n, Daniel'
'Makal, Anna'
_publ_section_title
;
 Structure and piezochromism of pyrene-1-carbaldehyde at high pressure
;
_journal_issue                   3
_journal_name_full               'Acta Crystallographica Section B'
_journal_page_first
;
;
_journal_paper_doi               10.1107/S2052520619003354
_journal_volume                  75
_journal_year                    2019
_chemical_formula_moiety         'C17 H10 O'
_chemical_formula_sum            'C17 H10 O'
_chemical_formula_weight         230.25
_space_group_crystal_system      triclinic
_space_group_IT_number           2
_space_group_name_Hall           '-P 1'
_space_group_name_H-M_alt        'P -1'
_symmetry_space_group_name_Hall  '-P 1'
_symmetry_space_group_name_H-M   'P -1'
_atom_sites_solution_hydrogens   geom
_audit_creation_date             2018-06-25
_audit_creation_method
;
Olex2 1.2
(compiled May 29 2018 13:30:08 for OlexSys, GUI svn.r5506)
;
_cell_angle_alpha                109.691(17)
_cell_angle_beta                 99.378(15)
_cell_angle_gamma                100.628(12)
_cell_formula_units_Z            2
_cell_length_a                   6.7049(9)
_cell_length_b                   8.1989(12)
_cell_length_c                   10.329(2)
_cell_measurement_reflns_used    850
_cell_measurement_temperature    293(2)
_cell_measurement_theta_max      22.2310
_cell_measurement_theta_min      1.8410
_cell_volume                     509.66(16)
_computing_cell_refinement
;
CrysAlisPro, Agilent Technologies,
Version 1.171.37.34 (release 22-05-2014 CrysAlis171 .NET)
(compiled May 22 2014,16:03:01)
;
_computing_data_collection
;
CrysAlisPro, Agilent Technologies,
Version 1.171.37.34 (release 22-05-2014 CrysAlis171 .NET)
(compiled May 22 2014,16:03:01)
;
_computing_data_reduction
;
CrysAlisPro, Agilent Technologies,
Version 1.171.37.34 (release 22-05-2014 CrysAlis171 .NET)
(compiled May 22 2014,16:03:01)
;
_computing_molecular_graphics    'Olex2 (Dolomanov et al., 2009)'
_computing_publication_material  'Olex2 (Dolomanov et al., 2009)'
_computing_structure_refinement  'ShelXL (Sheldrick, 2015)'
_diffrn_ambient_temperature      293(2)
_diffrn_detector                 'CCD plate'
_diffrn_measured_fraction_theta_full 0.689
_diffrn_measured_fraction_theta_max 0.477
_diffrn_measurement_details
;
#__ type_ start__ end____ width___ exp.time_
  1 omega -150.00  -94.00   0.2000    0.1970
omega____ theta____ kappa____ phi______ frames
    -      -20.0000   70.0000  -24.2319 280

#__ type_ start__ end____ width___ exp.time_
  2 omega -150.00  -94.00   0.2000    0.1970
omega____ theta____ kappa____ phi______ frames
    -      -20.0000   70.0000  155.7681 280

#__ type_ start__ end____ width___ exp.time_
  3 omega -105.00  -77.20   0.2000    0.1970
omega____ theta____ kappa____ phi______ frames
    -       20.0000   70.0000  155.7700 139

#__ type_ start__ end____ width___ exp.time_
  4 omega -105.00  -74.80   0.2000    0.1970
omega____ theta____ kappa____ phi______ frames
    -       20.0000   70.0000  -24.2300 151

#__ type_ start__ end____ width___ exp.time_
  5 omega  -96.00  -30.00   0.2000    0.1970
omega____ theta____ kappa____ phi______ frames
    -       20.0000  -70.0000   24.2300 330

#__ type_ start__ end____ width___ exp.time_
  6 omega -101.40  -66.00   0.2000    0.1970
omega____ theta____ kappa____ phi______ frames
    -      -20.0000  -70.0000 -155.7700 177

#__ type_ start__ end____ width___ exp.time_
  7 omega -102.80  -66.00   0.2000    0.1970
omega____ theta____ kappa____ phi______ frames
    -      -20.0000  -70.0000   24.2300 184

#__ type_ start__ end____ width___ exp.time_
  8 omega  -96.00  -30.00   0.2000    0.1970
omega____ theta____ kappa____ phi______ frames
    -       20.0000  -70.0000 -155.7700 330
;
_diffrn_measurement_device       'abstract diffractometer'
_diffrn_measurement_device_type
'dectris-CrysAlisPro-abstract goniometer imported dectris images'
_diffrn_measurement_method       '\w scans'
_diffrn_orient_matrix_UB_11      -0.0161120000
_diffrn_orient_matrix_UB_12      -0.0283252000
_diffrn_orient_matrix_UB_13      -0.0513633000
_diffrn_orient_matrix_UB_21      0.0718074000
_diffrn_orient_matrix_UB_22      0.0254330000
_diffrn_orient_matrix_UB_23      0.0007208000
_diffrn_orient_matrix_UB_31      0.0190445000
_diffrn_orient_matrix_UB_32      -0.0528641000
_diffrn_orient_matrix_UB_33      0.0038434000
_diffrn_radiation_monochromator  synchrotron
_diffrn_radiation_probe          x-ray
_diffrn_radiation_type           synchrotron
_diffrn_radiation_wavelength     0.4859
_diffrn_reflns_av_R_equivalents  0.163
_diffrn_reflns_av_unetI/netI     0.0390
_diffrn_reflns_Laue_measured_fraction_full 0.689
_diffrn_reflns_Laue_measured_fraction_max 0.477
_diffrn_reflns_limit_h_max       10
_diffrn_reflns_limit_h_min       -10
_diffrn_reflns_limit_k_max       12
_diffrn_reflns_limit_k_min       -12
_diffrn_reflns_limit_l_max       16
_diffrn_reflns_limit_l_min       -15
_diffrn_reflns_number            2730
_diffrn_reflns_point_group_measured_fraction_full 0.689
_diffrn_reflns_point_group_measured_fraction_max 0.477
_diffrn_reflns_theta_full        16.950
_diffrn_reflns_theta_max         22.683
_diffrn_reflns_theta_min         1.476
_diffrn_source                   synchrotron
_exptl_absorpt_coefficient_mu    0.048
_exptl_absorpt_correction_T_max  1.00000
_exptl_absorpt_correction_T_min  0.27480
_exptl_absorpt_correction_type   multi-scan
_exptl_absorpt_process_details
;
CrysAlisPro, Agilent Technologies,
Version 1.171.37.34 (release 22-05-2014 CrysAlis171 .NET)
(compiled May 22 2014,16:03:01)
Empirical absorption correction using spherical harmonics,
 implemented in SCALE3 ABSPACK scaling algorithm.
;
_exptl_crystal_density_diffrn    1.500
_exptl_crystal_description
;
;
_exptl_crystal_F_000             240
_refine_diff_density_max         0.918
_refine_diff_density_min         -0.829
_refine_diff_density_rms         0.219
_refine_ls_extinction_method     none
_refine_ls_goodness_of_fit_ref   1.579
_refine_ls_hydrogen_treatment    constr
_refine_ls_matrix_type           full
_refine_ls_number_parameters     165
_refine_ls_number_reflns         2730
_refine_ls_number_restraints     0
_refine_ls_restrained_S_all      1.579
_refine_ls_R_factor_all          0.2224
_refine_ls_R_factor_gt           0.1596
_refine_ls_shift/su_max          0.000
_refine_ls_shift/su_mean         0.000
_refine_ls_structure_factor_coef Fsqd
_refine_ls_weighting_details
'w=1/[\s^2^(Fo^2^)+(0.2000P)^2^] where P=(Fo^2^+2Fc^2^)/3'
_refine_ls_weighting_scheme      calc
_refine_ls_wR_factor_gt          0.4088
_refine_ls_wR_factor_ref         0.4539
_reflns_Friedel_coverage         0.000
_reflns_number_gt                1587
_reflns_number_total             2730
_reflns_threshold_expression     'I > 2\s(I)'
_cod_data_source_file            xk5054sup1.cif
_cod_data_source_block           8kbar
_cod_original_cell_volume        509.65(16)
_cod_database_code               2108395
_shelx_shelxl_version_number     2016/6
_chemical_oxdiff_formula         'C17 H10 O1'
_shelx_space_group_comment
;
The symmetry employed for this shelxl refinement is uniquely defined
by the following loop, which should always be used as a source of
symmetry information in preference to the above space-group names.
They are only intended as comments.
;
_diffrn_oxdiff_twin_integration_method simultaneous
_olex2_refinement_description
;
1. Twinned data refinement
 Scales: 0.690(6)
 0.111(3) 0.199(5)
2. Fixed Uiso
 At 1.2 times of:
  All C(H) groups
3.a Aromatic/amide H refined with riding coordinates:
 C10(H10), C3(H3), C13(H13), C4(H4), C11(H11), C14(H14), C6(H6), C8(H8),
 C17(H17), C7(H7)
;
_shelx_res_file
;
TITL 3d_twin1_hklf4_a.res in P-1
    3d_twin1_hklf4.res
    created by SHELXL-2016/6 at 18:46:45 on 25-Jun-2018
REM Old TITL 3d_twin1_hklf4 in P-1
REM SHELXT solution in P-1
REM R1 0.413, Rweak 0.015, Alpha 0.120, Orientation as input
REM Formula found by SHELXT: C17 O
CELL 0.4859 6.7049 8.1989 10.3289 109.691 99.378 100.628
ZERR 2 0.0009 0.0012 0.0023 0.017 0.015 0.012
LATT 1
SFAC C H O
DISP C 0.001 0.001 6.068
DISP H -0 0 0.607
DISP O 0.004 0.003 13.336
UNIT 34 20 2

L.S. 10
PLAN  20
BOND $H
list 4
fmap 2
acta
OMIT 3 0 -7
OMIT 1 2 3
OMIT -4 -8 9
REM <olex2.extras>
REM <HklSrc "%./3d_twin1_hklf5.hkl">
REM </olex2.extras>

WGHT    0.200000
BASF   0.11145   0.19898
FVAR       9.17014
C15   1    0.242225    0.476157    0.456410    11.00000    0.02067    0.01673 =
         0.01895    0.00665    0.01012    0.00695
C16   1    0.236906    0.435157    0.310128    11.00000    0.02003    0.01718 =
         0.02302    0.00638    0.00798    0.00627
O1    3    0.406305    1.015184    0.805673    11.00000    0.07181    0.01976 =
         0.02845   -0.00786    0.01747   -0.00003
C2    1    0.289288    0.656748    0.552200    11.00000    0.01922    0.01453 =
         0.01943    0.00214    0.00501    0.00377
C12   1    0.200093    0.331301    0.504700    11.00000    0.02447    0.01970 =
         0.01693    0.00857    0.00824    0.00860
C10   1    0.152298    0.113654    0.265721    11.00000    0.02828    0.01887 =
         0.02694    0.00641   -0.00054    0.00591
AFIX  43
H10   2    0.122280   -0.004977    0.203340    11.00000   -1.20000
AFIX   0
C3    1    0.326393    0.796005    0.496366    11.00000    0.02196    0.01671 =
         0.02882    0.00609    0.00156    0.00278
AFIX  43
H3    2    0.355438    0.915232    0.557311    11.00000   -1.20000
AFIX   0
C13   1    0.206749    0.370165    0.647557    11.00000    0.02869    0.02907 =
         0.01698    0.01302    0.00416    0.00681
AFIX  43
H13   2    0.180832    0.277422    0.680176    11.00000   -1.20000
AFIX   0
C5    1    0.278490    0.577508    0.259934    11.00000    0.02647    0.01966 =
         0.01946    0.00571    0.00668    0.00615
C4    1    0.319924    0.757326    0.358674    11.00000    0.03353    0.01785 =
         0.02582    0.01122    0.00722    0.00749
AFIX  43
H4    2    0.343184    0.850676    0.326493    11.00000   -1.20000
AFIX   0
C11   1    0.154837    0.151327    0.403998    11.00000    0.02734    0.01624 =
         0.02460    0.00869    0.00448    0.00693
AFIX  43
H11   2    0.126203    0.057093    0.434724    11.00000   -1.20000
AFIX   0
C14   1    0.251393    0.544752    0.740419    11.00000    0.03149    0.02798 =
         0.00814    0.00310    0.00969    0.00844
AFIX  43
H14   2    0.253049    0.568083    0.835216    11.00000   -1.20000
AFIX   0
C9    1    0.195640    0.255654    0.214853    11.00000    0.02191    0.01964 =
         0.02386    0.00310    0.00088    0.00528
C6    1    0.276882    0.535545    0.116760    11.00000    0.05092    0.03043 =
         0.01737    0.01416    0.01138    0.01189
AFIX  43
H6    2    0.300993    0.627298    0.082925    11.00000   -1.20000
AFIX   0
C8    1    0.196700    0.219271    0.071799    11.00000    0.03877    0.02278 =
         0.01850   -0.00078    0.00309    0.00915
AFIX  43
H8    2    0.168542    0.101425    0.008264    11.00000   -1.20000
AFIX   0
C1    1    0.294644    0.689194    0.696546    11.00000    0.02340    0.02211 =
         0.01430    0.00099    0.00685    0.00686
C17   1    0.351572    0.868442    0.811410    11.00000    0.03789    0.02722 =
         0.02103   -0.00132    0.00912    0.00610
AFIX  43
H17   2    0.344531    0.869089    0.900757    11.00000   -1.20000
AFIX   0
C7    1    0.240209    0.360773    0.025346    11.00000    0.05444    0.04036 =
         0.01450    0.01130    0.01141    0.01254
AFIX  43
H7    2    0.244369    0.336192   -0.068749    11.00000   -1.20000
AFIX   0
HKLF 5




REM  3d_twin1_hklf4_a.res in P-1
REM R1 =  0.1596 for    1587 Fo > 4sig(Fo)  and  0.2224 for all    2730 data
REM    165 parameters refined using      0 restraints

END

WGHT      0.2000      0.0000

REM Highest difference peak  0.918,  deepest hole -0.829,  1-sigma level  0.219
Q1    1   0.1302  0.2501  0.5416  11.00000  0.05    0.92
Q2    1   0.2219  0.6227  0.5979  11.00000  0.05    0.86
Q3    1   0.3588  0.7318  0.5189  11.00000  0.05    0.86
Q4    1   0.1958  0.4343  0.6473  11.00000  0.05    0.82
Q5    1   0.1781  0.6407  0.3721  11.00000  0.05    0.81
Q6    1   0.1996  0.5170  0.2970  11.00000  0.05    0.76
Q7    1   0.2075  0.6657  0.3497  11.00000  0.05    0.76
Q8    1   0.1843  0.3525  0.5644  11.00000  0.05    0.75
Q9    1   0.3502  0.7527  0.6805  11.00000  0.05    0.74
Q10   1   0.0333  0.0040  0.2980  11.00000  0.05    0.74
Q11   1   0.2103  0.3074  0.5620  11.00000  0.05    0.73
Q12   1   0.4146  0.9506  0.7465  11.00000  0.05    0.70
Q13   1   0.1432  0.3645  0.3353  11.00000  0.05    0.69
Q14   1  -0.0016 -0.0369  0.2815  11.00000  0.05    0.69
Q15   1   0.4441  0.7523  0.2410  11.00000  0.05    0.69
Q16   1   0.1751  0.4122  0.4941  11.00000  0.05    0.69
Q17   1   0.0415  0.1960  0.5367  11.00000  0.05    0.69
Q18   1   0.3739  0.5869  0.4284  11.00000  0.05    0.69
Q19   1   0.2996  0.8609  0.5772  11.00000  0.05    0.68
Q20   1   0.4509  0.8231  0.5254  11.00000  0.05    0.68
;
_shelx_res_checksum              80097
_shelx_hkl_file
;
   0  -1   1 133181. 122.257   1
   0  -1   0 68673.7 241.163   1
   0  -2   2 26241.5 79.8659   1
   0   2  -1 62800.2 78.5002   1
   0  -2   0 647.783 21.6808   1
   0  -3   3 3148.26 50.7233   1
   0  -3   2 22825.8 68.3646   1
   0  -3   1 1340.24 17.6290   1
   0  -4   4 183.433 26.1627   1
   0  -4   3 17744.0 64.2046   1
   0   4  -2 3650.25 25.9620   1
   0   4  -1 668.371 20.9573   1
   0   4   0 17.0358 27.6179   1
   0  -5   5 4215.18 65.1540   1
   0  -5   4 1194.53 38.7594   1
   0   5  -3 3097.06 31.2628   1
   0  -5   2 8.11721 12.9880   1
   0  -5   1-5.86377 21.9576   1
   0   6  -6 1476.73 57.3105   1
   0   6  -5 509.587 46.7343   1
   0  -6   4 1385.69 45.9319   1
   0   6  -3 12.5925 29.7666   1
   0  -6   2 37209.1 170.262   1
   0  -6   1 28956.9 173.577   1
   0  -7   7 7516.56 137.602   1
   0  -7   6 4580.43 84.8154   1
   0  -7   5 1330.29 59.1211   1
   0  -7   4 719.019 39.9495   1
   0   7  -3 1744.13 49.6988   1
   0   7  -2 62279.2 243.827   1
   0   7  -1 504.798 66.9394   1
   0  -8   7 5916.48 162.590   1
   0  -8   5 489.805 79.2923   1
   0  -8   4 1732.97 76.1351   1
   0   8  -3 422.560 84.9027   1
   0  -9   8 1160.11 97.4458   1
   0   9  -7 322.785 78.3381   1
   0   9  -6-12.9296 53.6803   1
   0   9  -5 1022.27 59.3847   1
   0  -9   4 327.430 51.7149   1
   0   9  -3 486.522 55.0974   1
   0  -9   2 21.6045 66.1834   1
   0 -10   9 5345.50 212.447   1
   0 -10   8-4.35646 94.1962   1
   0 -10   7 214.597 72.5087   1
   0 -10   6 18.2706 63.2288   1
   0  10  -5 4717.68 89.9144   1
   0  10  -4 4565.34 90.1945   1
   0  10  -3-6.57393 62.8052   1
   2   0  11-90.8123 323.999  -3
  -8   5   4-90.8123 323.999  -2
   0 -10   2-90.8123 323.999   1
   0 -11   9 6126.17 172.706   1
   0 -11   8 258.306 83.4856   1
   0 -11   7 190.556 80.9766   1
   0 -11   6 136.837 72.6307   1
   0 -11   5 437.658 65.0375   1
   0 -11   4 617.886 75.2174   1
   0 -11   3 113.628 76.9637   1
   0  12  -9 488.749 177.453   1
   0 -12   8 244.282 95.9816   1
   0 -12   7-34.8124 84.3860   1
   0  12  -6 49.0623 79.0174   1
   0  12  -5 322.655 82.0828   1
   0 -12   4 606.813 90.8987   1
   1 -12   3 554.712 122.481   1
   1 -12   4 105.835 77.6425   1
   1 -12   5 145.398 73.8657   1
  -1  12  -6-29.3852 74.7325   1
   1 -12   7 259.356 88.1284   1
  -1  12  -8 28.7484 88.7540   1
  -1  12  -9-37.1080 91.1307   1
  -1  11  -3 176.186 72.6864   1
  -1  11  -4 2.28526 64.7487   1
   1 -11   5 983.421 70.1456   1
   1 -11   6 456.657 71.4934   1
  -1  11  -7 152.389 76.4461   1
   1 -11   8 179.711 77.5271   1
   1 -11   9 1510.87 217.946   1
  -1  10  -2 159.850 88.0697   1
  -1  10  -3 80.1762 58.1070   1
   1 -10   4 143.861 51.2216   1
  -1  10  -6 351.738 63.6273   1
   1 -10   7 120.988 63.9507   1
   1 -10   8 121.130 88.0867   1
  -1   9  -2-37.8537 50.8786   1
  -1   9  -3 220.631 47.3427   1
  -1   9  -4 165.206 65.5246   1
   1  -9   5 106.909 64.5943   1
   1  -9   6 259.251 69.7726   1
  -1   9  -7 53.7046 68.3440   1
   1  -9   8 123.045 126.908   1
   1  -8   1 459.589 121.852   1
  -1   8  -2-5.39811 49.7518   1
  -1   8  -3 35.2676 37.7271   1
   1  -8   4 2438.19 55.0132   1
  -1   8  -5 985.177 63.0464   1
  -1   8  -6 1061.68 67.0963   1
  -1   8  -7 1392.14 98.0001   1
  -1   7  -1 8745.31 132.090   1
   1  -7   2 27429.7 129.367   1
   1  -7   3 425.845 37.0789   1
  -1   7  -4 1629.15 43.9647   1
  -1   7  -5 264.320 46.6023   1
   1  -7   6 6299.96 144.512   1
   1  -6   1 35791.0 136.019   1
   1  -6   2 34.7462 17.3347   1
  -1   6  -3 26.3910 18.3823   1
   1  -6   4 2740.95 40.2020   1
   1  -6   5 191.886 39.7839   1
   1  -6   6 171.597 64.6144   1
   1  -5   0 6694.61 145.309   1
   1  -5   1 2455.53 46.8140   1
  -1   5  -2 1378.20 58.4894   1
   1  -5   3 1182.84 32.3419   1
  -1   5  -4 15954.6 91.4745   1
   1  -5   5 1620.79 71.0749   1
  -1   4   0 15.5876 25.3305   1
   1  -4   1 159.445 16.7259   1
  -1   4  -2 2053.56 27.5230   1
   1  -4   3 95283.9 247.015   1
   1  -4   4 30092.6 204.067   1
   1  -3   0 645.892 14.5714   1
  -1   3  -1 12.3979 9.14117   1
  -1   3  -2 378.012 13.8014   1
   1  -3   3 80295.4 272.543   1
   1  -2   0 2300.50 17.9726   1
   1  -2   1 299.557 7.67788   1
  -1   2  -2 11236.6 121.768   1
  -1   1   0 314.316 8.64262   1
   1  -1   1 53096.4 183.824   1
   1   0   0 5008.09 33.1620   1
  -1  -1   1 25081.0 59.2000   1
  -1  -1   0 12205.5 65.1612   1
  -1  -2   3 24938.7 96.8616   1
   1   2  -2 1222.38 19.7279   1
  -1  -2   1 7675.49 48.9044   1
   1   2   0 4905.12 56.5092   1
   1   3  -4 8644.00 71.5117   1
  -1  -3   3 142171. 394.032   1
   1   3   0 3943.25 64.2681   1
  -1  -4   5 5468.42 70.9359   1
   1   4  -4 36100.0 145.404   1
  -1  -4   3 31175.9 119.906   1
   1   4  -2 4730.69 46.4646   1
   1   4  -1 707.264 31.7046   1
  -1  -4   0 11923.9 192.669   1
  -1  -5   6 114.375 41.9472   1
   1   5  -5 56.4707 36.4162   1
  -1  -5   4 184.310 47.7518   1
   1  -1  -6 2612.65 248.077  -3
   1   5  -4 2612.65 248.077   1
   1   5  -3 9014.39 69.8586   1
  -1  -5   2 2268.12 51.3885   1
  -1  -5   1 4064.73 68.3206   1
  -1  -6   6 266.921 48.9136   1
  -1  -6   5 1655.59 56.9043   1
  -1  -6   4 308.716 41.9333   1
  -1  -6   3 2784.77 53.3189   1
  -1  -6   2 16411.6 122.026   1
  -1  -6   1 43029.3 213.896   1
  -1  -7   7 336.736 56.6859   1
  -1  -7   6 7049.47 106.979   1
  -1  -7   5 3863.36 81.0820   1
   1   7  -4 83.6906 39.1620   1
  -1  -7   3 695.929 45.0177   1
   1   7  -1 161.643 56.2525   1
   1   8  -8 279.780 72.2402   1
   1   8  -7 240.201 73.5402   1
   1  -2  -9 77.6153 217.664  -3
   5  -7   0 77.6153 217.664  -2
   1   8  -6 77.6153 217.664   1
   1   8  -5 17.7992 65.2838   1
   1   8  -4 738.425 74.1055   1
  -1  -8   3 882.141 69.2632   1
   1   8  -2 59.1270 58.7231   1
  -1  -9   8 17.1844 85.2771   1
   1   9  -7 232.514 99.0756   1
   1   9  -6 35.1553 59.9244   1
   1   9  -5 4055.47 80.7405   1
   1   9  -4 499.597 58.0308   1
   1   9  -3 80.2843 57.4892   1
   1   9  -2 94.0031 73.9916   1
  -1 -10   9 5845.14 161.121   1
   1  10  -8 174.004 108.572   1
  -1 -10   7 79.8023 75.1006   1
  -1 -10   6 476.014 71.7146   1
  -1 -10   5 3770.56 87.6288   1
  -1 -10   4 39.1254 61.9400   1
   1  10  -3 35.7103 68.4961   1
  -1 -11   9 1106.96 142.360   1
  -1 -11   8 146.582 90.9919   1
   1  11  -7 162.801 89.6312   1
  -1 -11   6 188.682 78.1505   1
   1  11  -5 81.8784 73.8076   1
  -1 -11   4 43.5378 81.4422   1
  -1 -11   3 154.732 137.214   1
  -2  12  -3 166.744 125.602   1
  -2  12  -4 351.666 79.6280   1
  -2  12  -5 217.292 103.396   1
   2 -11   2 28.2357 92.0919   1
   2 -11   3 178.438 64.2763   1
  -2  11  -4 295.572 63.1072   1
   2 -11   5 2701.51 82.0543   1
   2 -11   6 133.308 64.8938   1
  -2  11  -7 25.0220 70.8046   1
  -2  11  -8-167.358 98.1520   1
  -2  10  -2 119.316 78.4101   1
  -2  10  -3 138.474 54.3888   1
   2 -10   4 1826.18 61.0853   1
  -2  10  -5 2139.42 70.6671   1
  -2  10  -6 141.509 62.1668   1
   2 -10   7 53.2791 83.4021   1
   2 -10   8 933.501 144.747   1
  -2   9  -3 1666.87 74.2631   1
  -2   9  -4 373.641 58.0138   1
   2  -9   5-103.678 63.9544   1
   2  -9   7 752.311 125.111   1
   2  -8   1 620.429 110.505   1
   2  -8   2 7915.89 81.3559   1
  -2   8  -3 1806.90 48.1282   1
   2  -8   4 2447.58 56.2254   1
   2  -8   5 344.470 59.2753   1
  -2   8  -6 3052.15 80.3651   1
   2  -8   7 6681.61 157.719   1
  -2   7  -1 13290.1 99.9998   1
   2  -7   2 58123.9 122.532   1
  -2   7  -3 1155.97 27.4477   1
   2  -7   4 482.520 28.6675   1
   2  -7   5 130.203 36.2577   1
   2  -7   6 845.201 67.0362   1
   2  -6   0 1441.13 58.6616   1
   2  -6   1 2230.81 37.8553   1
   2  -6   2 7412.59 43.3343   1
   2  -6   3 524.425 21.1583   1
   2  -6   4 205.429 32.3995   1
   2  -6   5 60.8883 51.0351   1
   2  -5   0 981.352 30.7967   1
   2  -5   1 274.069 18.9157   1
  -2   5  -2 4105.01 31.4727   1
  -2   5  -3-9.30825 18.9083   1
   2  -5   4 202.900 27.8204   1
   2  -4   0 511.243 22.5510   1
  -2   4  -1 198.920 12.9677   1
   2  -4   2 5726.05 36.5354   1
  -2   4  -3 15088.1 82.0772   1
   2  -4   4 3942.97 152.787   1
   2  -3  -1 1497.13 47.2319   1
   2  -3   0 2914.34 60.6180   1
   2  -3   1 908.943 26.2668   1
   2  -3   2 2583.78 30.2420   1
   2  -3   3 465.555 57.2127   1
   2  -2  -1 2942.11 38.9654   1
   2  -2   0 18219.5 54.1246   1
  -2   2  -1 2216.47 23.9226   1
   2  -2   2 427.378 68.6093   1
   2  -1  -1 14397.9 70.8641   1
   2  -1   0 943479. 461.151   1
  -2   1  -1 255274. 396.989   1
   2   0  -2 5782.62 60.8310   1
  -2   0   1 184125. 134.724   1
  -2   0   0 720380. 705.012   1
   2   1  -2 1689.83 18.8829   1
  -2  -1   1 28886.0 46.0465   1
   2   1   0 2007.74 39.1798   1
   2   2  -3 372.512 40.1887   1
  -2  -2   2 164.350 7.31253   1
   2   2  -1 89.5321 15.2601   1
  -2  -3   4 2677.28 46.7863   1
  -2  -3   3 20616.3 93.4649   1
  -2  -3   2 6844.80 49.9201   1
  -2  -3   1 662.042 28.4806   1
  -2  -3   0 603.247 82.3686   1
  -2  -4   5 4630.13 67.3677   1
  -2  -4   4 18.1115 28.1997   1
   2   4  -3-210.613 43.8554   1
  -2  -4   2 2906.90 66.8013   1
  -2  -4   1 33.8772 28.7283   1
   2   5  -6 1675.19 59.3293   1
   2   5  -5 121.683 44.2627   1
  -2  -5   4 225.146 57.1063   1
   2   5  -3-11.0391 45.5904   1
  -2  -5   2 2973.31 58.3689   1
  -2  -5   1 7865.12 99.2186   1
  -2  -6   7 2392.29 75.8012   1
  -2  -6   6 1663.23 65.2425   1
  -2  -6   5 1076.23 56.3417   1
  -2  -6   4 819.791 41.3048   1
  -2  -6   3 6.42131 69.0462   1
  -2  -6   2 67480.8 250.866   1
  -2  -6   1 15551.5 145.874   1
   2   7  -5 98.6296 65.4065   1
  -2  -7   4 1703.97 53.3475   1
   2   7  -3 641.544 73.1008   1
  -2  -8   8 699.285 85.6057   1
   2   8  -7 356.645 117.509   1
  -2   2  10 2385.94 256.016  -3
  -5   8  -1 2385.94 256.016  -2
  -2  -8   7 2385.94 256.016   1
   2   8  -6-31.4115 52.8308   1
  -2  -8   5 93.2617 49.7975   1
  -2  -8   4 106.232 48.6767   1
   2   8  -3 2911.73 73.2628   1
   2   8  -2 416.661 67.0016   1
  -2  -9   9 1703.80 147.248   1
   2   9  -8 531.209 103.110   1
  -2  -9   7 163.343 66.8555   1
   2   9  -6 9.16584 61.7163   1
  -2  -9   5 2246.36 75.0937   1
  -2  -9   4 4375.92 89.6534   1
   2   9  -3 434.971 67.0431   1
  -2 -10   9 14134.8 224.003   1
  -2 -10   8 124.132 81.0191   1
   2  10  -7 37.7602 84.2785   1
  -2 -10   6-59.7730 77.4498   1
  -2 -10   5 3330.58 95.1567   1
  -2 -10   4 387.244 80.7029   1
   2  10  -3 264.570 78.4930   1
   2  11  -9 575.338 100.972   1
  -2 -11   8 771.662 100.344   1
   2  11  -7 140.642 88.7976   1
   2  11  -6 99.7756 77.0266   1
  -2 -11   5 495.084 84.4120   1
  -2 -11   4 258.936 87.9291   1
   3  -8   1 92.2475 56.5650   1
   3  -8   2 7600.91 62.3605   1
  -3   8  -3 178.777 27.5972   1
   3  -8   4 146.326 48.4181   1
  -3   8  -5 900.847 56.4519   1
   3  -8   6 2414.75 127.334   1
   3  -7   0 1043.25 66.1340   1
   3  -7   1 21757.2 95.6012   1
  -3   7  -2 8714.95 52.6042   1
   3  -7   3 2281.15 34.7772   1
   3  -7   4 115.070 30.6743   1
  -3   7  -5 73.2360 53.1141   1
   3  -7   6 476.597 65.9988   1
   3  -6   0 477.864 54.4304   1
  -3   6  -1 580.474 24.0148   1
   3  -6   2 120.913 19.0184   1
  -3   6  -3 3108.19 34.3387   1
   3  -6   4-31.7241 29.5198   1
   3  -6   5 62.8956 50.6819   1
   3  -5  -1 732.647 69.5161   1
   3  -5   0 3037.23 51.5701   1
  -3   5  -1 305.679 31.8557   1
   3  -5   2 175.878 30.6450   1
   3  -5   3 9373.46 79.5441   1
   3  -5   4 17665.2 130.960   1
  -3   4   1 61525.9 189.442   1
  -3   4   0 1886.48 32.8813   1
  -3   4  -1 344.123 13.0319   1
  -3   4  -2 1479.90 24.2281   1
   3  -4   3 43853.9 154.730   1
   3  -4   4 8355.51 216.787   1
   3  -3  -1 4524.31 50.8240   1
   3  -3   0 909.434 20.7676   1
   3  -3   1 2638.76 22.3669   1
   3  -3   2 235.758 45.4273   1
   3  -3   3 1091.08 75.3439   1
  -3   2   2 3665.65 45.8704   1
   3  -2  -1 3975.37 44.4866   1
   3  -2   0 844.430 25.5216   1
   3  -2   1 9441.93 88.2332   1
   3  -2   2 23235.0 224.999   1
   3  -1  -2 2957.70 64.6984   1
   3  -1   1 16532.9 156.445   1
   3   0  -2 25537.3 68.7557   1
  -3   0   1 12044.4 32.0119   1
   3   0   0 52.4740 22.3079   1
  -3  -1   3 155.971 29.5124   1
   3   1  -2 2526.50 20.8387   1
   3   1  -1 1351.50 20.9476   1
   3   1   0-27.3098 70.1162   1
  -3  -2   4 448.266 43.1152   1
  -3  -2   3 22049.1 150.915   1
  -3  -2   2 2993.98 33.1621   1
   3   2  -1 42.1191 49.8167   1
  -3  -2   0 148.988 68.3043   1
  -3  -3   4 5837.63 42.3159   1
  -3  -3   3 61795.2 143.505   1
  -3  -3   2 324.099 14.7902   1
   3   3  -1 315.442 28.4247   1
  -3  -3   0 511.141 93.4872   1
  -3  -4   6 1898.76 79.2171   1
  -3  -4   5 108.069 49.9097   1
  -3  -4   4 6647.58 92.1625   1
  -3  -4   3 1496.52 37.7822   1
   3   4  -2 243.037 32.3799   1
  -3  -4   1 1546.87 51.5620   1
  -3  -5   6 704.594 52.6215   1
  -3  -5   5 1202.41 53.9821   1
   3   5  -4 1039.64 38.7478   1
  -3  -5   3 84.0387 33.7200   1
  -3  -5   2 274.291 39.2888   1
  -3  -5   1 26813.4 431.267   1
   3  -1  -9 2566.61 747.915  -3
   4  -7   3 2566.61 747.915  -2
   3   6  -7 2566.61 747.915   1
   3   6  -6 7423.12 111.239   1
  -3  -6   5 189.880 53.5768   1
  -3  -6   4 2090.46 53.6969   1
   3   6  -3 236.821 39.5891   1
   3   6  -2 10028.0 115.061   1
  -3  -6   1 5818.39 217.586   1
   3   7  -8-33.8278 69.8846   1
  -3  -7   7 986.264 81.2810   1
   3   7  -6 785.975 74.7627   1
   3   7  -5 208.586 63.5978   1
  -3  -7   4 1314.29 74.9176   1
  -3  -7   3 178.214 46.8086   1
  -3  -7   2-20.5721 54.1110   1
  -3  -8   8 186.493 86.8627   1
   3   8  -7 221.612 92.5971   1
  -3  -8   6 186.503 60.6273   1
   3   8  -5 364.647 54.9367   1
   3   8  -4 246.533 54.9418   1
   3   8  -3 9.13173 59.2897   1
   3   8  -2 569.767 81.6765   1
  -3  -9   9 4147.26 213.630   1
  -3  -9   8 156.425 106.985   1
   3   9  -7-22.5188 72.5426   1
  -3  -9   6 173.617 69.0709   1
  -3  -9   5 3830.99 89.4620   1
  -3  -9   4 312.047 67.8837   1
   3   9  -3 31.7768 85.4029   1
   3  10  -9 3448.38 118.075   1
   3  10  -8 243.481 88.4505   1
   3  10  -7-57.6202 84.4013   1
   3  10  -6 126.373 75.3157   1
  -3 -10   5 1501.07 82.1484   1
   3  10  -4 83.4636 79.6976   1
   4  -9   1 10.6863 100.744   1
  -4   9  -4 1396.86 426.585   1
   4  -9   5-14.1521 166.801   1
  -4   9  -6 467.151 76.1428   1
  -4   9  -7 1344.76 138.022   1
  -4   8  -1 1053.60 56.6982   1
  -4   8  -2 28701.2 152.855   1
   4  -8   3 4095.26 77.4253   1
   4  -8   4 181.327 57.2679   1
  -4   8  -5 464.762 73.7156   1
   4  -7   1 7404.03 85.8751   1
  -4   7  -2 23989.0 139.220   1
   4  -7   3 317.566 60.1138   1
  -4   7  -4 69.1379 55.9019   1
  -4   7  -5 37.7384 93.4643   1
   4  -7   6 1267.94 162.288   1
  -4   6   0 154.290 43.4838   1
  -4   6  -1 21.1582 38.9371   1
   4  -6   2 111.113 43.0676   1
  -4   6  -3 1672.76 60.0716   1
  -4   6  -5 65.1073 104.688   1
  -4   5   1 865.023 46.4983   1
   4  -5   0-35.1566 35.7348   1
  -4   5  -1 829.012 42.1245   1
   4  -5   2 67.9608 39.3891   1
  -4   5  -3 4404.04 99.9487   1
   4  -5   4 68.0212 90.4582   1
   4  -4  -2 2922.43 95.4020   1
   4  -4  -1 1707.20 48.3564   1
   4  -4   0 1559.15 44.8381   1
  -4   4  -1 320.661 33.9177   1
  -4   4  -2 706.827 46.3863   1
   4  -4   3 869.574 81.9815   1
   4  -4   4 1317.15 146.739   1
   4  -3  -2 10064.4 86.6946   1
   4  -3  -1 1327.83 41.2761   1
   4  -3   0 1170.92 38.2503   1
   4  -3   1 8217.22 79.6932   1
   4  -3   2 1603.24 71.3126   1
  -4   3  -3 388.276 84.4866   1
  -4   2   2 3394.54 54.4302   1
  -4   2   1 3480.69 49.6937   1
  -4   2   0 14199.2 82.8647   1
   4  -2   1 61965.4 249.537   1
  -4   2  -2 1611.33 82.2366   1
  -4   1   2 3426.45 30.2326   1
  -4   1   1 14383.9 81.4630   1
  -4   1   0 224486. 154.469   1
   4  -1   1 22408.1 172.407   1
  -4   0   3 3872.23 44.5165   1
  -4   0   2 294.132 18.8757   1
  -4   0   1 2273.43 18.5351   1
  -4   0   0 12283.7 79.8166   1
   4   0   1 442.190 110.535   1
  -4  -1   4 404.408 28.8148   1
   4   1  -3 42.2504 34.6984   1
  -4  -1   2 2508.11 29.6954   1
   4   1  -1 5066.08 40.2034   1
  -4  -1   0 590.268 54.6473   1
  -4  -2   5 91.3142 45.1141   1
  -4  -2   4 41.8681 29.8813   1
  -4  -2   3 1106.47 23.1615   1
  -4  -2   2 7622.50 43.9593   1
   4   2  -1-9.84613 23.2213   1
   4   3  -5 287.555 39.8760   1
   4   3  -4 51.6287 40.0828   1
   4   3  -3 1639.90 37.9016   1
  -4  -3   2 22.8681 30.5652   1
   4   3  -1 56.6976 32.7648   1
  -4  -3   0 201.577 101.098   1
  -4  -4   6 25.9176 47.1416   1
  -4  -4   5 981.090 51.8160   1
   4   4  -4 1315.02 40.2260   1
  -4  -4   3 39.8921 29.4940   1
   4   4  -2 186.471 30.7327   1
  -4  -4   1 69.1852 45.1313   1
  -4  -5   7-10.5983 77.4762   1
  -4  -5   6 574.014 58.0317   1
  -4  -5   5 0.83901 54.5360   1
  -4  -5   4 1080.49 43.5543   1
   4   5  -3 125.088 34.1984   1
  -4  -5   2 14079.8 141.559   1
  -4  -5   1 14942.3 273.517   1
  -4  -6   8 151.110 89.8577   1
  -4  -6   7 2408.93 126.312   1
   4   6  -5 481.396 76.4862   1
   4   6  -4 545.160 69.6158   1
  -4  -6   3 781.553 82.1699   1
  -4  -7   8 81.2685 82.4735   1
  -4  -7   7 3123.41 110.573   1
   4   7  -6 447.146 55.8944   1
   4   7  -5 206.074 50.7580   1
   4   7  -4 194.724 46.7095   1
   4   7  -3 887.185 78.0128   1
  -1  -3  12 1538.16 177.484  -3
  -4  -7   3 1538.16 177.484   1
  -4  -7   2 246.937 67.6707   1
  -4   1  12 3937.69 338.285  -3
  -4  -8   9 3937.69 338.285   1
   4   8  -8 926.847 107.593   1
   4   8  -7 480.709 69.7344   1
   4   8  -6 113.872 67.4797   1
   4   8  -5 482.363 58.8971   1
  -4  -8   4 660.756 66.9718   1
   4   8  -3-54.2981 59.0204   1
  -4  -9   9 7800.76 261.319   1
   4   9  -8 417.290 81.0427   1
   4   9  -7-1.62432 73.2406   1
  -4  -9   6 59.4406 64.9930   1
   4   9  -5 2378.34 81.2201   1
   4   9  -4 3155.37 95.7192   1
  -4  -9   3-20.8660 74.4287   1
   4  10  -9 8946.57 284.838   1
  -4 -10   8 295.464 92.3237   1
  -4 -10   7 68.2471 93.3632   1
   2   1 -15 1213.33 908.407  -3
   8  -9   3 1213.33 908.407  -2
   4  10  -7 1213.33 908.407   1
   4  10  -6 115.472 75.0464   1
  -1  -2  15 1140.50 370.527  -3
  -4 -10   5 1140.50 370.527   1
  -4 -10   4 250.834 83.2221   1
  -5  10  -2-172.262 157.668   1
  -5  10  -3 691.641 389.725   1
  -5  10  -4 1442.88 503.006   1
   5  -9   0 209.477 114.460   1
   5  -9   1 827.456 65.4499   1
  -5   9  -2 452.593 65.5384   1
  -5   9  -3 385.571 70.2349   1
  -5   9  -4 407.859 75.0751   1
   5  -9   5 172.927 79.9823   1
  -5   9  -6 356.332 87.6011   1
  -5   8   0 419.404 64.9620   1
   5  -8   1 2976.62 78.8176   1
  -5   8  -2 12353.5 122.045   1
  -5   8  -3 557.830 68.8317   1
   5  -8   4 401.787 70.8217   1
  -5   8  -5 226.835 89.1422   1
   5  -8   6 647.601 157.699   1
   5  -7  -1 234.101 109.363   1
  -5   7  -4 628.723 150.959   1
  -5   7  -5-200.872 108.303   1
   5  -6  -1 31.0225 52.5377   1
  -5   6  -1 434.935 51.6967   1
  -5   6  -2 93.6351 54.1440   1
  -5   6  -3 108.204 57.7505   1
   5  -6   4 3354.73 171.447   1
  -5   6  -5-321.262 176.644   1
  -5   5   2 314.958 49.7106   1
   5  -5  -1 10056.0 104.997   1
  -5   5   0 860.239 52.8206   1
  -5   5  -1 283.496 49.8334   1
  -5   5  -2 278.868 52.6852   1
  -5   5  -3 14623.0 171.911   1
   5  -5   4 10633.3 184.486   1
   5  -4  -2 11839.9 110.138   1
  -5   4   1 21039.6 132.948   1
   5  -4   0 12.4615 38.9351   1
   5  -4   1 78.1491 43.7704   1
   5  -4   2 261.579 55.9815   1
  -5   4  -3 5366.08 354.474   1
   5  -3  -3 958.139 73.4802   1
   5  -3  -2 177.085 40.4882   1
  -5   3   1 543.887 42.4046   1
   5  -3   0 91.2898 39.1385   1
  -5   3  -1 3.80681 45.5386   1
  -5   3  -2 2271.51 92.8742   1
   5  -3   3 2153.51 118.908   1
   5  -2  -3 1454.85 49.0749   1
   5  -2  -2 416.767 38.5063   1
   5  -2  -1 1063.77 41.1915   1
  -5   2   0 84.4378 37.1583   1
  -5   2  -1 3578.14 92.5015   1
   5  -2   2 894.355 88.9113   1
  -5   1   3 3318.81 59.3514   1
  -5   1   2 784.413 37.1750   1
   5  -1  -1 309.893 33.5662   1
   5  -1   0 1584.00 52.1876   1
   5  -1   1 8451.00 134.367   1
   5  -1   2 403.828 144.058   1
   5   0  -4 221.375 46.1390   1
   5   0  -3 8.36547 38.1350   1
   5   0  -2 2321.76 45.8213   1
  -5   0   1 284.532 36.5555   1
  -5   0   0 395.314 62.3948   1
   5   0   1 2017.24 151.761   1
   5   1  -5 75.0855 44.5344   1
   5   1  -4 3.58471 42.1785   1
   5   1  -3 2629.80 58.2263   1
   5   1  -2 103.979 31.4339   1
   5   1  -1 120.746 39.2474   1
   5   1   0 333.248 107.340   1
  -5  -2   5 2.40872 47.9179   1
  -5  -2   4 327.450 39.1616   1
  -5  -2   3 18975.7 151.245   1
  -5  -2   2 2509.40 74.0984   1
  -5  -2   1 226.743 67.2493   1
  -5  -3   6 391.223 61.4558   1
  -5  -3   5 368.116 48.0067   1
  -5  -3   4 4843.03 57.1208   1
   5   3  -3 4132.42 49.4626   1
  -5  -3   2 431.543 135.861   1
  -2  -4   9 1563.61 304.611  -3
  -5  -3   2 1563.61 304.611   1
  -5  -3   1 689.990 101.074   1
  -5  -3   0 666.650 115.210   1
  -5  -4   7 826.408 80.5404   1
  -5  -4   6-42.7911 50.8770   1
  -5  -4   5 124.747 54.6475   1
  -5  -4   4 223.772 35.0071   1
  -5  -4   3 727.401 37.4052   1
   5   4  -2 43.7556 44.5851   1
  -5  -4   1 2354.70 146.709   1
  -5  -5   7-8.07883 93.9694   1
  -5  -5   6 774.113 68.7862   1
   5   5  -5 941.846 48.8102   1
   5   5  -4 790.508 42.1453   1
  -5  -5   3 35.3249 35.6562   1
  -5  -5   2 4293.83 72.3355   1
  -5  -5   1 8337.98 230.717   1
  -5  -6   8 242.876 98.5427   1
  -5  -6   7 349.608 85.5657   1
   5   6  -6 2447.74 68.6344   1
   5   6  -5 424.801 50.0077   1
   2   3 -12 286.461 164.342  -3
   6  -6   5 286.461 164.342  -2
   5   6  -4 286.461 164.342   1
  -5  -6   3 118.989 47.4549   1
   5   6  -2 743.346 97.3531   1
  -5  -7   8 53.0799 92.8417   1
   5   7  -7 136.213 58.1082   1
   5   7  -6 180.020 59.3144   1
  -5  -7   5 6.31581 50.3484   1
   2   3 -13 610.124 195.908  -3
   7  -6   5 610.124 195.908  -2
   5   7  -4 610.124 195.908   1
  -5  -7   3 101.970 55.8101   1
  -5  -7   2 118.423 108.173   1
  -5  -8   9 114.979 117.399   1
   5   8  -8 40.4508 69.5896   1
  -5  -8   7 128.904 70.4111   1
   5   8  -6-66.0363 59.5252   1
   5   8  -5 1195.90 67.3305   1
  -5  -8   4 321.346 64.2645   1
   5   8  -3-1.68683 120.570   1
   5   9  -9 3615.44 115.825   1
  -5  -9   8 120.588 85.1691   1
   5   9  -7 81.8339 73.7577   1
  -5  -9   6 29.7665 68.1416   1
  -5  -9   5 1674.75 84.2303   1
   5   9  -4 97.8628 73.5232   1
   6 -10   1-198.026 89.6256   1
  -6  10  -2 510.657 86.9935   1
  -6  10  -3 231.771 85.7961   1
   6 -10   4 295.718 100.030   1
  -6  10  -5 25.2698 101.637   1
   6 -10   6 176.441 103.637   1
   6  -9   0-1.24481 73.5508   1
   6  -9   1 88.6863 76.3122   1
  -6   9  -2 3010.61 96.8777   1
  -6   9  -3 2203.27 97.6095   1
  -6   9  -4 524.343 91.0277   1
  -6   9  -5 103.889 102.143   1
   6  -9   6 370.422 106.480   1
  -6   8   0 181.791 69.3696   1
   6  -8   1 4054.25 92.4475   1
   6  -8   2 22784.7 178.919   1
  -6   8  -3 3151.74 101.209   1
  -6   8  -4 23.8036 81.3590   1
   6  -8   5 9.52619 90.6862   1
  -6   8  -6 443.120 121.699   1
   6  -7  -1-36.4979 64.2850   1
  -6   7   0 481.292 62.6205   1
   6  -7   1 761.765 68.4484   1
  -6   7  -2 2595.76 88.5235   1
  -6   7  -3 207.724 137.357   1
   3   7   0 1457.96 188.418  -3
  -2   3  10 1457.96 188.418  -2
   6  -7   3 1457.96 188.418   1
  -6   7  -4 128.009 87.2509   1
  -6   7  -5-79.3168 96.3548   1
   6  -6  -2 165.630 113.476   1
   6  -6  -1 82.5472 59.3757   1
   6  -6   0 33.3331 55.5944   1
  -6   6  -1 640.037 65.1147   1
  -6   6  -2 669.951 70.6231   1
   6  -6   3 21.8078 71.6044   1
  -6   6  -4 34.8656 86.2746   1
   6  -5  -2 148.041 95.9667   1
  -6   5  -2 617.413 122.642   1
  -6   5  -3 1218.03 85.9861   1
   6  -5   4-95.9223 181.161   1
  -6   4   3 1599.20 228.807   1
   6  -4  -2 3571.36 78.1259   1
   6  -4  -1-21.7535 45.9186   1
  -6   4   0 474.206 52.5159   1
  -6   4  -1 1269.14 64.6535   1
  -6   4  -2 142.090 84.5204   1
  -6   3   3 279.540 51.1102   1
  -6   3   2 150.901 45.0675   1
  -6   3   1 28.4698 45.1460   1
  -6   3   0 1154.82 57.7437   1
  -6   3  -1 1935.03 70.1578   1
   6  -3   2 22.7298 87.6981   1
   6  -3   3 273.071 203.103   1
   6  -2  -4 1924.88 89.4325   1
  -6   2   3 894.638 52.9814   1
   6  -2  -2 82.9269 39.9266   1
   6  -2  -1 28.4526 43.0935   1
   6  -2   0 56606.9 227.193   1
   6  -2   1 31514.2 181.418   1
  -6   2  -2 1347.42 111.909   1
   6  -1  -4 16101.7 187.228   1
   6  -1  -3 1231.73 49.7331   1
  -6   1   2 11.6104 41.8435   1
   6  -1  -1 8587.76 90.8328   1
  -6   1   0 39415.6 182.922   1
   6  -1   1 847.362 92.3807   1
   6   0  -5 3261.73 89.4724   1
  -6   0   4 248.930 40.4160   1
  -6   0   3 61.4068 33.2803   1
  -6   0   2 168.352 40.0657   1
  -6   0   1 1306.55 56.0212   1
  -3  -5   7 4311.89 385.848  -3
  -6   0   1 4311.89 385.848   1
   6   0   0 137.542 79.7138   1
   6   0   1 84.2745 136.208   1
  -6  -7   9 199.794 147.468   1
  -6  -7   8-6.50993 138.418   1
  -6  -7   7 102.002 153.239   1
  -6  -7   6 110.964 169.690   1
  -6  -8   9 603.632 90.4145   1
  -6  -8   8 44.7760 75.6749   1
  -6  -8   7 47.5251 66.2004   1
  -3  -3  15 42.9243 361.759  -3
  -7   8  -6 42.9243 361.759  -2
  -6  -8   6 42.9243 361.759   1
  -6  -8   5 439.308 190.421   1
  -6  -8   4 1015.81 320.371   1
  -6  -9   8 188.676 126.961   1
  -6  -9   7 241.646 78.3197   1
  -8   9  -6 367.998 375.025  -2
  -6  -9   7 367.998 375.025   1
   6   9  -6 12.2609 73.0603   1
  -6  -9   5 730.614 85.0404   1
   6   9  -4 319.065 147.087   1
  -7  11  -2 100.603 135.126   1
   7 -11   3 252.701 110.744   1
   7 -11   4 55.1388 127.846   1
   7 -10   0 278.439 151.665   1
  -7  10  -1 207.696 99.8957   1
  -7  10  -2 213.808 103.842   1
   7 -10   3-123.573 102.718   1
   7 -10   4 233.585 110.382   1
   7 -10   5 65.2118 120.866   1
  -7  10  -6 244.963 126.788   1
   7  -9   0 134.439 94.9777   1
  -7   9  -1 32.1633 88.5910   1
   7  -9   2 3296.93 117.702   1
  -7   9  -3 224.239 101.410   1
  -7   9  -4 121.381 109.725   1
   7  -9   5 176.033 114.798   1
  -7   9  -6 559.643 136.761   1
   7  -8  -1 389.822 132.065   1
  -7   8   0 41.4082 80.7895   1
   7  -8   1 4240.72 111.369   1
  -7   8  -2 3548.88 115.574   1
  -7   8  -3 797.864 101.572   1
  -7   8  -4-46.9584 106.355   1
  -7   8  -5-96.1128 118.825   1
   3   9   0-178.193 394.146  -3
  -2   4  11-178.193 394.146  -2
   7  -8   5-178.193 394.146   1
   7  -7  -1 318.377 78.3526   1
   7  -7   0 442.875 74.3654   1
  -7   7  -1 88.3155 78.4638   1
   7  -7   2 14.1055 83.6679   1
   7  -7   3 370.244 97.0156   1
   7  -7   4 56.1415 100.137   1
   7  -7   5-179.205 120.273   1
   7  -6  -2 95.0871 73.0543   1
   7  -6  -1 508.714 68.8552   1
  -7   6   0-105.350 71.7376   1
  -7   6  -1 145.410 79.4860   1
  -7   6  -2 89.3778 85.2765   1
  -3  -8   2 1382.22 175.497  -3
   1  -2 -10 1382.22 175.497  -2
  -7   6  -3 1382.22 175.497   1
  -7   6  -4 3839.21 135.737   1
  -7   5   2 1934.98 82.0282   1
  -7   5   1 9214.21 119.206   1
   7  -5   0 821.662 73.0471   1
  -7   5  -1 72.9959 74.5563   1
   7  -5   2 364.568 79.3256   1
  -7   5  -3 5970.66 261.461   1
   7  -5   4 2858.37 165.463   1
   7  -4  -3 470.964 68.1639   1
   7  -4  -2 1941.66 73.1177   1
   7  -4  -1 1350.36 72.8902   1
  -7   4   0-0.45816 62.3341   1
  -7   4  -1 173.450 69.4343   1
   7  -4   2 76.0245 81.4640   1
  -7   4  -3 52.3522 123.796   1
   7  -3  -4 73.8015 85.8623   1
   7  -3  -3 129.743 78.6292   1
   7  -3   0 89.0050 102.298   1
  -7   3  -1 64.4998 82.3722   1
  -7   3  -2 405.081 86.8674   1
   7  -2  -3 180.396 73.2545   1
   7  -2  -2 139.770 50.7435   1
  -7   2   1 181.222 56.6634   1
   7  -2   0 461.369 79.4476   1
   7  -1  -5 582.930 86.4103   1
  -7   1   4 8.40408 45.5915   1
  -7   1   3 111.115 45.2442   1
  -7   1   2 510.362 52.2940   1
  -7   1   1 345.502 57.9184   1
   7  -1   0 7.49245 63.3840   1
  -7   1  -1 340.910 127.404   1
   7   0   0-334.574 141.918   1
   7   0   1 636.379 148.285   1
   8  -9   0 67.3976 124.370   1
   4  -1 -14 368.801 253.159  -2
  -8   9   0 368.801 253.159   1
  -8   9  -1 784.764 114.919   1
  -8   9  -2 6212.47 158.860   1
   8  -9   3 3128.11 147.165   1
  -8   9  -4 173.061 128.418   1
   8  -8  -1 73.7005 100.726   1
  -8   8   0 146.170 95.0567   1
   8  -8   1 1900.29 118.124   1
  -8   8  -2 6204.53 151.581   1
   8  -8   3 388.840 119.874   1
   8  -8   4 63.2160 127.179   1
   8  -8   5 242.489 133.896   1
  -8   7   2 233.895 87.8195   1
  -8   7   1 147.172 91.3102   1
   8  -7   0 239.998 90.3122   1
  -8   7  -1 40.9399 97.7281   1
  -8   7  -2 185.399 106.496   1
   8  -7   3 157.368 116.587   1
   8  -7   4 97.7482 126.445   1
  -8   6   2 45.9407 77.9061   1
  -8   6   1 437.347 81.4263   1
   8  -6   0-106.818 81.7432   1
  -8   6  -1 42.9203 93.1153   1
   8  -6   2-59.5901 101.980   1
  -8   6  -3 388.845 118.389   1
  -8   6  -4-105.768 123.311   1
  -8   5   3 190.744 79.2438   1
   8  -5  -2 434.622 77.4130   1
  -8   5   1 364.054 85.8412   1
  -8   5   0 823.834 101.257   1
  -5  -7   4 5517.06 753.712  -3
   1   0 -12 5517.06 753.712  -2
  -8   5   0 5517.06 753.712   1
  -8   5  -1 75.8150 96.8439   1
   8  -5   2 45.7465 93.8323   1
  -8   5  -3 124.207 108.273   1
   8  -4  -3 135.358 69.8895   1
  -8   4   2 723.374 74.5554   1
  -8   4   1 76.4787 70.6331   1
   8  -4   0 513.599 85.0714   1
  -8   4  -1 346.613 89.4453   1
   8  -4   2 60.6753 100.200   1
  -8   4  -3 20.4824 127.423   1
   8  -3  -4 139.423 90.6871   1
   8  -3  -3 191.192 62.7211   1
  -8   3   2-66.8427 61.0504   1
  -8   3   1 136.578 73.2526   1
  -8   3   0 3101.72 103.083   1
   8  -3   1 8808.08 139.058   1
   8  -3   2-151.327 100.756   1
   8  -2  -4 4457.07 92.9808   1
   8  -2  -3 156.130 57.6111   1
  -8   2   2 233.513 65.5132   1
   8  -2  -1 2213.61 86.5592   1
  -8   2   0 21705.3 179.252   1
   8  -2   1 5019.32 121.626   1
  -8   2  -2 94.3511 122.600   1
   8  -1  -3 147.852 85.7528   1
   8  -1  -2 139.197 102.825   1
   8  -1  -1-72.5977 119.308   1
   8  -1   0 1311.25 109.101   1
   3   8  -8 27.4789 275.860  -3
   3  -1  10 27.4789 275.860  -2
   8  -1   1 27.4789 275.860   1
  -9   7   2-77.6527 157.794   1
  -9   7   1 158.215 109.867   1
  -9   7   0 227.186 116.986   1
  -9   7  -1 113.190 120.869   1
  -9   7  -2 216.022 131.018   1
   9  -7   3 26.8355 221.189   1
  -9   6   2 188.538 97.7961   1
  -9   6   1 2043.06 113.552   1
   9  -6   0 385.023 112.310   1
   9  -6   1 185.290 117.180   1
   9  -6   2 90.0484 126.877   1
   9  -6   3 1279.24 321.362   1
  -4 -10   4 1536.24 482.593  -3
   0  -2 -13 1536.24 482.593  -2
  -9   6  -3 1536.24 482.593   1
   9  -5  -3-85.6456 89.1559   1
   9  -5  -2 1494.24 101.206   1
  -9   5   1 2485.97 112.423   1
   9  -5   0 92.3596 102.721   1
   9  -5   1 76.7358 112.186   1
  -9   5  -2 123.334 119.789   1
  -9   5  -3 336.129 127.744   1
   9  -4  -4 653.574 106.793   1
  -9   4   3 34.5152 84.3666   1
  -9   4   2 344.599 88.8752   1
  -9   4   1 59.1730 90.6870   1
  -9   4   0 342.837 101.864   1
   9  -4   1-122.038 109.693   1
   9  -4   2 108.315 118.657   1
  -9   3   4-49.5932 72.0805   1
  -9   3   3 173.296 74.8164   1
  -9   3   2-17.8788 81.1973   1
  -9   3   1 350.004 91.6132   1
  -9   3   0 10.2642 95.2105   1
  -9   3  -1 195.474 105.435   1
   9  -3   2 294.693 141.174   1
   9  -2  -4-31.1330 93.9549   1
   9  -2  -3-55.7333 84.6671   1
   9  -2  -2 68.3339 95.0558   1
   9  -2  -1 95.0223 101.599   1
   9  -2   0 141.495 122.991   1
   9  -2   1 970.545 170.256   1
 -10   5   3-266.246 136.318   1
 -10   5   2 306.506 109.263   1
  10  -5  -1 271.025 149.347   1
 -10   5   0 32.3341 164.630   1
 -10   4   4 77.0407 117.044   1
 -10   4   3 80.6692 99.7566   1
 -10   4   2 379.013 105.937   1
 -10   4   1-2.55922 112.879   1
 -10   4   0-26.9142 118.952   1
 -10   4  -1 624.372 136.653   1
 -10   4  -2 1035.12 172.284   1
  10  -3  -4 302.449 126.703   1
  10  -3  -3 231.140 146.411   1
  10  -3  -2 92.5718 114.132   1
  10  -3  -1 114.127 120.356   1
  10  -3   0 5697.87 196.312   1
  10  -3   1 5407.71 221.421   1
   0   0   1 22299.9 107.064   2
   0   0   2 5373.78 43.6603   2
   0   0  -3 965.325 26.8250   2
   0   0   5 957.649 25.3580   2
   0   0  -6 237.092 35.3192   2
   0   0   7 623.742 38.9885   2
   0   0  -8 22.0318 41.3598   2
   0   0   9 87.2215 48.2182   2
   0   0 -10 85.8336 55.8506   2
   0   0 -11 191.151 67.1973   2
   0   0 -12 52.5231 134.429   2
   0   0 -13 396.745 91.1719   2
   0   0 -14 97.4397 99.5592   2
   0   1 -14 389.859 100.743   2
   0   1 -13 201.223 94.0822   2
   0   1 -12-11.9248 70.6516   2
   0   1 -11 118.592 60.0522   2
   0   1 -10 668.027 160.484   2
   0   1  -9 981.460 106.763   2
   0   1  -8 62.1227 87.5455   2
   0   1  -7 133.917 75.4759   2
   0   1  -6 99.9433 60.9575   2
   0  -1   5 13497.7 115.426   2
   0   1  -4 1043.56 49.5906   2
   0  -1   3 351.891 38.3274   2
   0   1  -2-46.6799 16.2056   2
   0  -1  -2 5695.07 33.2071   2
   0   1   3 4615.84 61.4619   2
   0   1   4 25.2672 17.0557   2
   0  -1  -5 79.3260 24.5749   2
   0  -1  -6 238.705 34.1755   2
   0  -1  -7 2894.27 57.6055   2
   0   1   8 1934.68 56.2243   2
   0  -1 -10 355.200 63.8180   2
   0  -1 -11 203.163 73.3288   2
   0   1  12 284.452 90.6301   2
   0   1  13 14.0641 98.1544   2
   0  -2  15 633.129 101.317   2
   0   2 -14 1562.91 180.941   2
   0   2 -13 118.598 73.0188   2
   0   2 -12 52.0966 54.8594   2
   0   2 -11-82.1139 130.457   2
   0   2 -10 235.924 125.816   2
   0   2  -9-66.2084 101.518   2
   0   2  -8-34.4049 83.1931   2
   0   2  -7 299.653 70.1053   2
   0  -2   6 235.927 56.2663   2
   0  -2   5-36.2351 87.1198   2
   0  -2  -3 1595.10 36.0341   2
   0  -2  -4 350.804 23.2944   2
   0  -2  -5 722.498 31.2140   2
   0  -2  -6 1713.81 49.0055   2
   0  -2  -7 6927.00 150.043   2
   0   2   8 113.890 129.854   2
   0  -2  -9 35.2436 55.2000   2
   0  -2 -10 267.037 80.1061   2
   0  -2 -11 773.067 81.3629   2
   0   2  12 39.3903 88.1823   2
   0  -3  15 646.591 97.4351   2
   0   3 -14 380.305 71.3808   2
   0   3 -13 408.006 153.711   2
   0   3 -12 479.175 154.968   2
   0  -3  10 78.2360 103.936   2
   0   3  -9 99.6815 94.2757   2
   0   3  -8-185.541 76.4207   2
   0  -3   7 48.6718 128.828   2
   0  -3  -7 383.262 45.7663   2
   0  -3  -8 727.303 67.2735   2
   0  -3  -9-92.7202 67.9117   2
   0  -3 -10-144.745 64.3391   2
   0   3  11-28.3125 112.007   2
   0  -4  15 52.5021 294.142   2
   0  -4  14 327.267 318.285   2
   0  -4  13 594.097 285.859   2
   0  -4  12 188.470 291.230   2
   1  -5  10 1170.13 207.085   2
   1  -5  11 33.0760 221.263   2
   1  -4 -11-34.3001 127.747   2
   1  -4 -10-35.4210 69.4037   2
   1  -4  -9 18.9261 62.9812   2
  -1   4   8-116.639 58.4231   2
  -1   4   6 16.3028 70.7402   2
  -1   4   5 209.599 56.0439   2
   1  -4   7 9.97374 135.698   2
   1  -4   8 307.014 157.813   2
   1  -4   9 78.6151 170.165   2
  -1   4 -10-233.938 94.5999   2
  -1   4 -11-87.9936 127.585   2
   1  -4  12-93.6165 120.212   2
  -1   4 -13-132.347 133.344   2
   1  -3 -12-104.241 90.4713   2
   1  -3 -11 248.607 94.8654   2
  -1   3  10 16.1911 69.9569   2
   1  -3  -9 2.01454 57.6604   2
   1  -3  -8 431.281 67.5800   2
   1  -3  -7 48.3046 48.3013   2
   1  -3  -6 14595.3 107.999   2
   1  -3  -5 2344.72 58.3302   2
   1  -3  -4 20.5200 22.8444   2
   1  -3  -3 578.043 22.9881   2
  -1   3  -3 12114.5 101.989   2
  -1   3  -4 235.150 26.3814   2
  -1   3  -5 177.575 30.6108   2
  -1   3  -6 160.446 27.2833   2
  -1   3  -7 208.267 65.2743   2
  -1   3  -8 397.323 80.0977   2
  -1   3  -9 103.857 94.0087   2
  -1   3 -10 563.860 103.885   2
   1  -3  12 247.730 60.9443   2
  -1   3 -13 291.948 71.9522   2
  -1   3 -14 289.267 80.1478   2
  -1   3 -15 708.419 94.2387   2
  -1   2  13 95.7052 106.780   2
  -1   2  12 8.62852 91.5470   2
  -1   2  11 807.615 92.7753   2
   1  -2  -9 128.047 54.8228   2
   1  -2  -8 383.106 48.0872   2
   1  -2  -7 5679.81 71.9115   2
   1  -2  -6 23664.7 124.301   2
   1  -2  -5 1225.02 27.5230   2
   1  -2  -4 97.0912 18.5209   2
  -1   2   3 1295.65 27.5507   2
   1  -2  -2 1391.24 16.2764   2
  -1   2   1 5847.22 28.3432   2
  -1   2   0 591.888 17.4934   2
  -1   2  -1 66.5435 12.2173   2
  -1   2  -2 3458.68 31.6881   2
  -1   2  -3 508.166 14.9961   2
  -1   2  -4-5.98822 26.7354   2
  -1   2  -5 600.477 26.4279   2
  -1   2  -6-19.0404 30.0889   2
  -1   2  -7 419.977 70.3853   2
  -1   2  -8 65.3125 79.6418   2
   1  -2   9 77.2179 37.4406   2
  -1   2 -10 908.178 58.0862   2
   1  -2  11 32.6519 59.3286   2
  -1   2 -12 8.40065 66.7767   2
  -1   2 -13-10.4762 85.0928   2
  -1   2 -14 509.960 92.0349   2
   1  -2  15 818.040 107.001   2
   1  -1 -14 302.542 317.249   2
  -1   1  13 256.348 100.946   2
   1  -1 -12 32.1490 81.3916   2
   1  -1 -11 1384.05 81.9662   2
  -1   1  10 135.213 61.6007   2
   1  -1  -9 25.1593 131.081   2
   1  -1  -8 538.945 49.5795   2
  -1   1   7 100.865 43.3161   2
   1  -1  -6 2078.83 41.2576   2
   1  -1  -5 53.6935 14.4619   2
  -1   1   4 411.843 16.6074   2
   1  -1  -3 2222.43 24.3633   2
  -1   1   2 288.463 8.98009   2
   1  -1  -1 8.05700 7.20630   2
  -1   1   0 103.518 9.37996   2
  -1   1  -1 13328.6 57.6470   2
   1  -1   2 20589.5 42.6168   2
   1  -1   3 7479.96 25.0268   2
   1  -1   4-0.01946 11.5685   2
  -1   1  -5 173.709 11.2593   2
  -1   1  -6 1603.05 36.7304   2
  -1   1  -7 104.162 32.3760   2
  -1   1  -8 44.2520 65.9606   2
  -1   1  -9 35.3284 46.2194   2
  -1   1 -11 189.456 64.3815   2
  -1   1 -12 230.475 73.5585   2
  -1   1 -13 244.208 84.0188   2
  -1   1 -14 130.425 96.6436   2
   1   0 -14-69.0599 99.3054   2
   1   0 -13 68.9350 91.9825   2
   1   0 -12-81.3215 152.676   2
  -1   0  11 11.2889 63.4146   2
   1   0 -10 84.9863 51.1892   2
   1   0  -9 140.963 107.926   2
   1   0  -8 230.703 96.3811   2
   1   0  -7 210.330 82.7040   2
   1   0  -6 379.125 12.9432   2
   1   0  -5 237.907 20.4610   2
   1   0  -3 1518.11 45.0025   2
   1   0  -2 42.3495 18.3424   2
  -1   0  -2 287.304 13.0601   2
  -1   0  -3 38.2602 12.1925   2
   1   0   4 2182.90 37.4396   2
  -1   0  -5 3214.71 41.7754   2
  -1   0  -6 1161.44 39.2877   2
  -1   0  -7 1178.27 44.3886   2
  -1   0  -8 111.914 40.7978   2
   1   0   9 339.959 62.4875   2
  -1   0 -10 299.919 59.4012   2
  -1   0 -11 258.522 69.6624   2
  -1   0 -12 117.799 80.4546   2
  -1   0 -13 18.3563 91.3603   2
   1   0  14 140.032 301.467   2
   1   1 -15 260.224 95.5988   2
   1   1 -14 596.206 102.718   2
   1   1 -13 125.826 78.7079   2
   1   1 -12-84.2918 151.135   2
  -1  -1  11-158.936 136.701   2
   1   1 -10 99.3647 174.117   2
   1   1  -9-168.823 111.499   2
   1   1  -8-23.2340 92.0787   2
   1   1  -7 106.643 75.9733   2
   1   1  -6 245.573 59.1646   2
  -1  -1   5 148.706 46.2972   2
   1   1  -4-140.129 42.8303   2
  -1  -1  -4 977.594 26.4954   2
  -1  -1  -5 2945.97 43.4810   2
  -1  -1  -6 1257.85 39.9350   2
  -1  -1  -7 7344.48 82.9654   2
  -1  -1  -8-1.97659 43.3761   2
   1   1   9 62.3927 51.7601   2
  -1  -1 -10-12.5507 59.3819   2
  -1  -1 -11 754.873 76.7545   2
  -1  -1 -12-157.540 75.2740   2
   1   1  13-58.3623 92.2731   2
   1   2 -15 1482.05 115.558   2
   1   2 -14 655.211 184.364   2
   1   2 -13 444.231 165.993   2
  -1  -2  12 413.158 153.100   2
   1   2 -11 419.745 130.199   2
   1   2 -10 292.573 111.996   2
   1   2  -9 125.308 96.5362   2
   1   2  -8 438.910 104.759   2
  -1  -2   7-24.8012 145.263   2
   1   2   9 493.019 156.863   2
   1   2  10 570.976 137.820   2
  -1  -3  15 45.5587 353.249   2
  -1  -3  14 1596.05 336.125   2
  -1  -3  13 670.456 316.274   2
  -1  -3  12 103.553 275.272   2
  -1  -3  11 118.929 261.105   2
   2  -5 -11 489.129 213.277   2
   2  -5 -10 72.3533 163.994   2
   2  -5  -9-105.723 94.6420   2
   2  -5  -8 360.923 93.1856   2
  -2   5   7 506.371 145.401   2
  -2   5   6 248.487 92.9214   2
  -2   5   5 117.874 65.0315   2
  -2   5   4 76.9385 37.5633   2
  -2   5   3 321.716 35.2945   2
  -2   5   2 287.772 57.1946   2
  -2   5  -2 1055.60 60.6090   2
  -2   5  -5 76.8228 48.4677   2
  -2   5  -6 292.468 51.5942   2
  -2   5  -7 163.058 49.6968   2
  -2   4  12-82.5083 98.4236   2
   2  -4 -11 35.1988 128.501   2
  -2   4  10 59.5378 72.8592   2
  -2   4   9-11.9106 64.0434   2
  -2   4   8 122.658 55.4897   2
   2  -4  -7 765.755 51.6680   2
   2  -4  -6 785.546 50.9486   2
  -2   4   5 34.4090 26.9510   2
  -2   4   4 36.8190 25.2023   2
   2  -4  -3 36.5644 18.4620   2
   2  -4  -2 1698.74 35.4893   2
  -2   4   1 136.424 31.1974   2
  -2   4   0 120.872 30.5510   2
  -2   4  -1 83.6853 27.7777   2
  -2   4  -2 1530.50 40.1796   2
  -2   4  -3 3448.00 53.1739   2
   2  -4   4 961.561 37.5452   2
  -2   4  -5 151.063 30.3501   2
  -2   4  -6 56.2005 31.3082   2
   2  -4   7-80.3960 59.7074   2
  -2   4  -8 199.721 79.7660   2
   2  -4   9 128.651 110.888   2
  -2   3  13 236.625 543.786   2
   2  -3 -12 116.949 98.4684   2
  -2   3  11 654.441 88.2293   2
   2  -3 -10 85.0117 256.542   2
  -2   3   9 63.3038 59.1000   2
   2  -3  -7 3884.96 66.5702   2
   2  -3  -6 2621.32 52.0319   2
  -2   3   5 23.7277 21.6353   2
  -2   3   4 481.632 21.7385   2
  -2   3   3 2216.38 27.6277   2
  -2   3   2 5387.01 41.9344   2
  -2   3   1 361.686 13.1162   2
  -2   3   0 728.392 17.7269   2
   2  -3   3 43.9307 48.2068   2
  -2   3  -4 151.210 34.0911   2
  -2   3  -5-24.2905 30.5478   2
   2  -3   6 529.993 36.4971   2
  -2   3  -7 30.2513 25.8190   2
  -2   3  -8-15.5895 41.6449   2
   2  -3   9 128.279 41.4680   2
  -2   3 -10 150.298 47.8245   2
   2  -3  11 248.873 151.577   2
   2  -3  12 37.9777 134.161   2
   2  -2 -13 386.084 102.028   2
   2  -2 -12 641.710 97.0617   2
   2  -2 -11 373.965 79.7970   2
   2  -2 -10 3.58984 62.2692   2
   2  -2  -9 310.904 63.8531   2
  -2   2   8 903.444 55.3215   2
   2  -2  -7 3227.17 63.1924   2
   2  -2  -6 1606.88 35.7831   2
   2  -2  -5 28.0373 18.7239   2
   2  -2  -4 665.759 23.9783   2
  -2   2   3 542.149 19.5712   2
  -2   2   2 488.648 17.5626   2
   2  -2  -1 672.441 16.3741   2
  -2   2   0 3822.09 36.4587   2
   2  -2   1 573.950 19.4768   2
  -2   2  -2 65.3413 5.83411   2
   2  -2   3 81.4772 9.40545   2
   2  -2   4 247.042 13.2861   2
   2  -2   5 5029.33 36.7738   2
   2  -2   6 523.930 24.9160   2
   2  -2   7 240.393 32.9995   2
   2  -2   8-20.0137 41.0772   2
  -2   2  -9 1444.78 67.8556   2
  -2   2 -10 2271.79 81.8018   2
  -2   2 -11 225.740 59.9417   2
  -2   2 -12 97.4301 69.1787   2
  -2   2 -13 50.6955 78.8507   2
   2  -2  14-13.6278 126.563   2
   2  -1 -14-146.344 124.920   2
   2  -1 -13 179.208 98.2082   2
   2  -1 -12 9.28052 82.2528   2
   2  -1 -11 446.007 81.5810   2
   2  -1 -10 79.6504 59.6253   2
   2  -1  -9 512.104 148.856   2
  -2   1   8 119.814 100.930   2
   2  -1  -7 76.6911 90.6366   2
  -2   1   6 429.907 24.1029   2
   2  -1  -5 16.7314 17.2069   2
   2  -1  -4 27.9057 16.4120   2
  -2   1   3 243.302 16.2597   2
   2  -1  -2 432.867 16.5267   2
  -2   1   1 2700.29 30.6388   2
  -2   1   0 125156. 176.801   2
   2  -1   1 31234.8 105.210   2
  -2   1  -2 1787.91 28.5366   2
   2  -1   3 258.313 21.9219   2
  -2   1  -4 9162.94 87.5451   2
  -2   1  -5 10989.7 56.1801   2
  -2   1  -6 20.2517 27.7177   2
  -2   1  -7 413.887 36.8365   2
  -2   1  -8 65.7517 39.2594   2
  -2   1  -9 777.706 49.6104   2
  -2   1 -10-37.4138 61.0796   2
  -2   1 -11-60.2972 62.4794   2
   2  -1  12 11.1342 84.8052   2
  -2   1 -13 66.2187 81.3714   2
  -2   1 -14-79.0399 93.5398   2
   2   0 -14 255.981 98.9166   2
   2   0 -13 30.9310 100.076   2
   2   0 -12 180.525 163.584   2
   2   0 -11 52.1438 144.362   2
  -2   0  10-6.22551 221.859   2
  -2   0   9 513.722 116.713   2
   2   0  -8-23.5353 98.5144   2
   2   0  -7 290.057 83.5598   2
   2   0  -6 351.581 67.6516   2
  -2   0   5 1047.44 59.9371   2
  -2   0   4 416.908 84.5064   2
   2   0   5 115.488 38.4069   2
  -2   0  -6 205.931 36.5724   2
  -2   0  -7 76.8239 34.0761   2
  -2   0  -8 371.838 45.1896   2
  -2   0 -10-11.5452 57.1552   2
   2   0  11-19.3231 63.1821   2
   2   0  12-77.2805 70.3963   2
  -2   0 -13-81.1385 82.6462   2
   2   1 -15 217.576 110.584   2
   2   1 -14 1256.76 205.322   2
   2   1 -13 678.386 178.311   2
  -2  -1  12 69.1817 329.717   2
   2   1 -11 318.423 138.009   2
  -2  -1   9 552.103 108.369   2
  -2  -1   8 161.220 88.3042   2
  -2  -1   7-256.958 68.6748   2
  -2  -2  15 79.6351 377.612   2
   2   2 -14 274.102 191.962   2
   2   2 -13-497.906 164.640   2
  -2  -2  12 424.367 320.977   2
  -3   7  -7 64.9014 70.2140   2
   3  -6 -10 339.321 190.126   2
   3  -6  -9 155.031 150.776   2
   3  -6  -8 614.210 125.777   2
   3  -6  -7 150.283 103.939   2
  -3   6   5 256.416 116.719   2
  -3   6   4 793.068 58.2229   2
  -3   6   3 970.707 82.5793   2
  -3   6   2 175.540 55.5444   2
  -3   6   1 152.284 52.2242   2
  -3   6   0 199.844 51.9791   2
  -3   6  -1 268.061 51.5572   2
  -3   6  -2 39.5470 48.9600   2
  -3   6  -3 740.880 55.2493   2
  -3   6  -4 77.9329 48.9952   2
   3  -6   5-10.3407 48.5175   2
   3  -6   6 454.529 102.601   2
  -3   6  -7 54.2050 62.6244   2
   3  -5 -11-94.5570 88.6341   2
   3  -5 -10-10.0877 78.3454   2
   3  -5  -9 49.9848 66.8901   2
   3  -5  -8 490.795 61.1342   2
   3  -5  -6 67.8841 41.9573   2
  -3   5   5 83.1738 29.0391   2
  -3   5   4 179.818 29.4374   2
  -3   5   3 70.9942 39.2034   2
  -3   5   2 28.7513 34.0323   2
  -3   5   1 199.950 27.1244   2
  -3   5   0 761.558 46.4168   2
  -3   5  -1 79.5264 40.0548   2
  -3   5  -2 23.8124 38.0036   2
   3  -5   3 2467.34 57.2026   2
  -3   5  -4 4513.14 84.5749   2
  -3   5  -5 181.906 42.8736   2
  -3   5  -6 41.2292 42.8724   2
   3  -4 -12-66.5135 101.173   2
   3  -4 -11 101.629 88.8266   2
  -3   4  10 183.928 78.5701   2
  -3   4   9 191.685 64.0478   2
  -3   4   8 287.609 60.8383   2
  -3   4   7 63.6969 46.8942   2
   3  -4  -6 1414.94 51.0729   2
  -3   4   5 483.019 30.5305   2
  -3   4   4 51.0072 24.4544   2
   3  -4  -3 41.2322 22.4786   2
  -3   4   2 1289.10 43.8466   2
  -3   4   1 12429.0 43.7188   2
  -3   4   0 354.254 20.2990   2
  -3   4  -1 129.480 29.6506   2
  -3   4  -2 395.731 32.5998   2
  -3   4  -3 10053.8 81.4664   2
   3  -4   4 2289.89 50.7587   2
  -3   4  -5 114.716 39.2791   2
   3  -4   6 1.77360 39.7064   2
   3  -3 -13 383.960 309.131   2
   3  -3 -12 426.764 105.369   2
   3  -3 -11 16.4809 80.4118   2
   3  -3 -10 67.5504 67.9169   2
   3  -3  -9-19.5255 58.5524   2
  -3   3   8 202.867 139.320   2
   3  -3  -7 696.617 53.9409   2
   3  -3  -6 21364.9 89.8788   2
   3  -3  -5 820.521 29.1009   2
   3  -3  -4 796.328 24.5335   2
   3  -3  -3 228.198 22.5462   2
   3  -3  -2 4935.18 30.4365   2
   3  -3  -1 809.889 16.2575   2
   3  -3   0 128.035 8.49881   2
   3  -3   1 749.747 30.3302   2
   3  -3   2 51.4755 24.5535   2
  -3   3  -3 209.398 20.1182   2
   3  -3   4 49.5960 13.3173   2
  -3   3  -5 37.6369 32.7889   2
  -3   3  -6 54.7332 20.7956   2
  -3   2  13-6.23242 96.3541   2
   3  -2 -12 31.3244 86.7984   2
   3  -2 -11 1676.93 92.5850   2
   3  -2 -10 80.2041 64.3354   2
   3  -2  -9 252.854 52.8203   2
   3  -2  -8 134.616 104.598   2
   3  -2  -7 1109.24 99.8532   2
   3  -2  -6 399.766 24.7648   2
   3  -2  -5 1052.26 28.9186   2
  -3   2   4 652.640 36.4797   2
   3  -2  -3 200.673 29.4819   2
   3  -2  -2 670.730 32.3796   2
   3  -2  -1 825.417 34.8661   2
  -3   2   0 208.642 29.7358   2
   3  -2   1 1750.95 42.3887   2
  -3   2  -2 3573.64 48.4179   2
  -3   2  -3 33.0408 14.9827   2
   3  -2   4 275.916 20.6773   2
  -3   2  -5-26.8314 31.9195   2
  -3   2  -6 254.280 28.6191   2
  -3   2  -7-81.4145 35.3423   2
  -3   2  -8 2.21338 34.6862   2
   3  -2   9 2.73654 41.2017   2
   3  -1 -14 281.172 106.347   2
   3  -1 -13 229.639 90.2717   2
   3  -1 -12 399.955 70.5495   2
   3  -1 -11 504.263 152.415   2
   3  -1 -10 370.651 133.900   2
   3  -1  -8 317.467 102.273   2
   3  -1  -7 530.865 90.1927   2
  -3   1   6 122.466 41.9958   2
  -3   1   5 157.622 38.7131   2
  -3   1   4 190.344 41.5755   2
   3  -1   5 949.285 47.6744   2
   3  -1   6 486.563 54.1294   2
   3  -1   7 760.229 81.7947   2
   3  -1   8 229.250 115.001   2
   3  -1   9 48.1486 95.0555   2
  -3  -8   8 217.395 223.833  -3
  -3   1 -10 217.395 223.833   2
  -3   1 -11 69.4573 127.883   2
   3   0 -14 21.9617 203.781   2
  -3   0  13 225.908 197.921   2
  -3   0  12 329.634 162.783   2
   3   0 -11 528.426 147.296   2
  -3   0  10-40.7365 176.834   2
   3   0  -9 166.978 110.945   2
  -3   0   8 78.7059 92.9041   2
   3   0  -7 3829.69 186.779   2
  -4   8  -2 7764.97 177.153   2
  -4   8  -3 874.136 106.030   2
  -4   8  -4 66.4700 92.4100   2
  -4   8  -5 10.3546 94.4771   2
  -4   8  -6 410.338 95.0453   2
  -4   8  -7 933.933 103.727   2
  -4   7   1 182.791 110.796   2
  -4   7   0 307.944 107.215   2
  -4   7  -1 1781.51 81.1537   2
  -4   7  -2 5940.71 107.844   2
  -4   7  -4 76.0906 63.6368   2
  -4   7  -5 54.8524 62.5813   2
  -4   7  -6 87.8694 62.5420   2
   4  -7   7-31.8542 66.4302   2
  -4   6   5-71.0188 73.3899   2
  -4   6   4 130.651 65.1147   2
  -4   6   3 377.577 66.2845   2
  -4   6   2 199.744 58.1491   2
  -4   6   1 106.045 54.2233   2
  -4   6   0-2.11660 53.8599   2
  -4   6  -1-94.4352 52.3545   2
  -4   6  -2-53.6748 53.0365   2
  -4   6  -3 411.864 57.0738   2
  -4   6  -4-57.7456 54.8315   2
  -4   6  -5 80.2608 59.5911   2
  -4   6  -6 156.045 72.0897   2
   4  -5 -11 45.7115 93.5024   2
   4  -5 -10 59.0937 79.6868   2
   4  -5  -9 75.8456 69.6838   2
   4  -5  -8 145.391 61.8170   2
   4  -5  -7 208.376 190.221   2
  -4   5   6 39.1091 56.8325   2
  -4   5   5-61.0138 57.6781   2
  -4   5   4 21.8994 58.9244   2
  -4   5   3-57.8305 57.2777   2
  -4   5   2 22.5905 52.3193   2
  -4   5   1 180.063 50.2020   2
  -4   5   0 68.4827 48.1275   2
   4  -5   1 272.683 51.7058   2
  -4   5  -2-11.9803 72.0325   2
  -4   5  -3 1002.08 54.3758   2
  -4   5  -4 53.4146 47.8135   2
   4  -5   5-5.58635 54.4393   2
  -4   5  -6 25.3461 49.3983   2
   4  -4 -12 505.843 102.775   2
   4  -4 -11 447.869 107.972   2
   4  -4 -10 88.2797 72.4927   2
   4  -4  -9 40.3504 62.0759   2
   4  -4  -8 84.7132 60.3991   2
   4  -4  -7 88.6633 49.6643   2
   4  -4  -6 1723.63 44.4492   2
  -4   4   5 110.720 29.0927   2
  -4   4   4 268.044 26.4672   2
   4  -4  -3 166.980 23.2938   2
  -4   4   2 605.987 39.5845   2
  -4   4   1 383.644 36.6813   2
   4  -4   0 324.379 36.3485   2
  -4   4  -1 105.262 35.4178   2
  -4   4  -2 156.274 35.5879   2
   4  -4   3 174.243 33.6048   2
  -4   4  -4 25.8516 32.2222   2
   4  -4   5 34.8383 36.5672   2
   4  -4   6 234.118 39.8308   2
   4  -3 -13 199.226 105.083   2
   4  -3 -12 190.383 91.9642   2
   4  -3 -11 545.477 93.8272   2
   4  -3 -10 16.8549 68.4762   2
   4  -3  -9 199.810 61.5672   2
   4  -3  -8 2.07311 115.577   2
   4  -3  -7 574.993 113.848   2
  -4   3   6 1475.54 37.5039   2
   4  -3  -5 67.8631 31.6432   2
   4  -3  -4 221.001 35.2678   2
   4  -3  -3 231.193 46.5186   2
   4  -3  -2 1955.80 53.2451   2
  -4   3   1 276.238 40.9100   2
   4  -3   0 364.717 47.7215   2
  -4   3  -1 1747.82 56.9045   2
  -4   3  -2 341.462 44.9881   2
  -4   3  -3 93.0815 38.2271   2
   4  -3   4-4.93156 41.4619   2
   4  -3   5 104.295 33.1436   2
   4  -2 -13 210.442 95.9411   2
   4  -2 -12 165.185 82.6023   2
  -4   2  11 450.598 64.3745   2
   4  -2 -10 14.9101 153.787   2
  -4   2   9-77.3755 229.903   2
  -4   2   8 641.070 112.720   2
   4  -2  -7 592.266 98.1921   2
  -4   2   6 22.0255 53.1989   2
  -4   2   5 39.4969 36.3264   2
   4  -2  -4 66.6072 30.0788   2
   4  -2  -3 34.1504 28.3293   2
   4  -2  -2 384.077 35.5084   2
  -4   2   1 544.455 32.2934   2
   4  -2   0 2138.47 43.2669   2
  -4   2  -1 7058.84 70.8225   2
  -4   2  -2 268.459 60.9874   2
  -4   2  -3 297.909 63.9932   2
  -4   2  -5 5227.02 114.050   2
  -4   1  14 14.2795 479.586   2
   4  -1 -13-34.0330 192.304   2
   4  -1 -12 89.2340 169.711   2
   4  -1 -11 139.606 153.022   2
   4  -1 -10 88.8642 130.702   2
  -4   1   7 133.243 64.9806   2
  -5   9   1 388.070 124.109   2
  -5   9   0 161.515 120.572   2
  -5   9  -1 143.128 95.4380   2
  -5   9  -2-16.3056 96.5758   2
  -5   9  -3 1.09388 94.0363   2
  -5   9  -4-13.9946 91.0092   2
  -5   9  -5 89.4869 103.443   2
  -5   9  -6 382.017 132.069   2
  -5   9  -7 441.334 126.729   2
  -5   8   4-255.798 100.254   2
  -5   8   3 60.4894 92.4858   2
  -5   8   2 47.9278 92.9797   2
  -5   8   1 155.894 98.1775   2
  -5   8   0 302.993 84.5481   2
   5  -8   1 247.594 164.553   2
  -5   8  -2 2705.28 106.753   2
  -5   8  -3 271.600 89.5080   2
  -5   8  -4 203.439 88.3380   2
  -5   8  -5 93.1957 90.7144   2
  -5   8  -6 113.108 97.1289   2
  -5   8  -7 48.0787 93.5877   2
  -5   7   5 27.0778 87.7268   2
   5  -7  -4 256.351 96.8396   2
   5  -7  -3 910.536 96.8617   2
  -5   7   2 342.927 87.5713   2
  -5   7   1 376.092 84.9178   2
  -5   7  -1 1413.95 93.1928   2
  -5   7  -2 89.8401 128.870   2
  -5   7  -3 102.248 125.649   2
  -5   7  -4 172.065 124.697   2
  -5   7  -5-7.03103 128.112   2
  -5   7  -6 208.816 155.164   2
  -5   6   2-19.1825 84.2047   2
  -5   6   1 30.0978 80.8179   2
  -5   6   0 272.531 65.5012   2
   5  -6   1 76.3533 60.6096   2
  -5   6  -2 69.9166 59.6514   2
   5  -6   3 79.0072 61.6599   2
  -5   6  -4 787.213 71.4474   2
  -5   6  -5 57.5189 62.7943   2
  -5   6  -6 9.62706 61.5546   2
   5  -5  -6 540.523 102.811   2
   5  -5  -5 99.1625 57.2930   2
  -5   5   4 264.880 54.6631   2
  -5   5   3 27.8789 53.7445   2
  -5   5   2 100.512 50.9140   2
   5  -5  -1 2080.81 65.1640   2
   5  -5   0 222.777 51.1739   2
  -5   5  -1 136.519 47.2641   2
  -5   5  -2 77.6750 44.9885   2
   5  -5   3 2679.34 63.3564   2
   5  -5   4 1894.04 62.3605   2
   5  -5   5 119.461 54.0900   2
   5  -5   6 91.8807 49.3238   2
   5  -4 -12 229.294 93.3232   2
   5  -4 -11 106.752 78.4992   2
   5  -4 -10 240.300 72.3532   2
   5  -4  -9 187.419 66.2346   2
   5  -4  -8 126.317 64.9129   2
   5  -4  -6 4600.47 69.9258   2
   5  -4  -5 1844.97 56.3604   2
   5  -4  -4 340.346 46.8177   2
   5  -4  -3 87.6635 51.0556   2
   5  -4  -2 2590.37 64.0505   2
   5  -4  -1 4783.88 73.9123   2
   5  -4   0-9.62604 44.1129   2
   5  -4   1-18.6533 59.3394   2
   5  -4   2 84.8441 42.9172   2
   5  -4   3 1115.56 46.5813   2
   5  -4   4 28.6685 36.9325   2
   5  -4   5-10.8405 34.4006   2
   5  -3 -13 994.565 274.905   2
   5  -3 -12 97.7882 88.6372   2
   5  -3 -11 374.925 77.1479   2
   5  -3 -10 440.493 61.0246   2
   5  -3  -9 249.418 125.659   2
  -5   3   8 296.996 243.465   2
   5  -3  -7 61.2701 97.7705   2
  -5   3   6 2057.25 53.4290   2
   5  -3  -5 168.005 44.0341   2
  -5   3   4 39.3470 41.7097   2
  -5   3   3 122.011 44.0455   2
   5  -3  -2-24.1579 40.8771   2
   5  -3  -1 61.4435 40.6591   2
   5  -3   0-2.17368 39.5977   2
  -5   3  -1-22.6527 39.2260   2
  -5   3  -2 209.756 125.745   2
  -5   3  -3 146.845 39.3901   2
  -5   3  -4 93.7390 88.9949   2
  -5   3  -5-16.7527 85.6532   2
   5  -2 -13 52.6827 82.0268   2
   5  -2 -12-395.130 177.872   2
   5  -2 -11-167.533 152.337   2
   5  -2 -10-388.413 135.496   2
  -5   2   9-43.0732 239.268   2
  -5   2   8-97.9901 219.416   2
  -5   2   7 49.6753 88.7852   2
  -5   2   6 24.5234 73.7050   2
  -5   2   5-21.8855 80.7986   2
  -6  10   0 26.8901 157.525   2
  -6  10  -1-45.5092 130.478   2
  -6  10  -2-84.8749 129.855   2
   6 -10   3-489.489 187.112   2
   6 -10   4-518.330 183.692   2
  -6  10  -5-282.449 136.264   2
  -6  10  -6-109.976 194.825   2
  -6  10  -7 15.8389 199.022   2
  -6   9   4-60.8339 126.030   2
  -6   9   3-220.098 126.943   2
  -6   9   2 20.8570 133.697   2
  -6   9   1 382.114 145.086   2
  -6   9   0 3.86484 127.402   2
  -6   9  -1 149.672 124.900   2
  -6   9  -2 759.446 131.816   2
  -6   9  -3 264.284 124.115   2
  -6   9  -4-18.5681 122.605   2
  -6   9  -5 186.458 129.745   2
  -6   9  -6-0.08120 121.473   2
  -6   9  -7 220.717 131.843   2
   6  -8  -5 139.210 160.947   2
  -6   8   4 170.967 118.235   2
   6  -8  -3 312.736 112.257   2
  -6   8   2 732.793 113.953   2
  -6   8   1 316.569 101.993   2
  -6   8   0 198.701 98.0376   2
  -6   8  -1 705.347 104.872   2
   6  -8   2 3777.58 125.456   2
  -6   8  -3 556.734 104.985   2
  -6   8  -4 349.359 100.302   2
  -6   8  -5 284.805 104.701   2
  -6   8  -6 240.867 98.0927   2
  -6   7   5 227.560 89.6785   2
  -6   7   4 68.2373 95.1066   2
  -6   7   3 706.558 95.3890   2
   6  -7  -2-117.626 93.3889   2
   6  -7  -1 74.8621 89.7815   2
  -6   7   0 109.298 88.9825   2
  -6   7  -1 185.746 89.6274   2
   6  -7   2 538.120 86.4164   2
  -6   7  -3 156.084 82.9857   2
  -6   7  -4 31.4177 84.0502   2
  -6   7  -5 0.44348 77.5629   2
  -6   7  -6-30.7791 79.7977   2
   6  -6  -5 29.9838 81.2308   2
   6  -6  -3 99.0048 70.8310   2
   6  -6  -2 101.586 66.0548   2
  -6   6   1 70.0024 65.8023   2
   6  -6   0 0.24599 64.7558   2
  -6   6  -1 178.161 63.1584   2
   6  -6   2 132.113 61.9547   2
   6  -6   3 77.6061 66.8313   2
  -6   6  -4 76.3249 65.0692   2
  -6   6  -6 114.690 129.127   2
   6  -5  -6 183.376 57.0125   2
   6  -5  -5-33.9287 52.3717   2
   6  -5  -4 185.622 113.590   2
   6  -5  -3 13.7641 106.944   2
  -6   5  -3 201.248 141.256   2
  -6   5  -4 6.98355 131.209   2
   6  -5   5 30.0860 58.0546   2
  -6   4   5-60.8642 66.3099   2
   6  -4  -4-68.5084 64.4520   2
  -6   4   3-5.93212 119.204   2
   6  -4  -2 671.728 60.9719   2
   6  -4   0 98.0560 54.4559   2
   6  -4   1 156.593 51.3568   2
   6  -4   2 5.35727 50.2781   2
   6  -4   3 13.3255 47.7639   2
  -6   4  -4-20.6409 46.6974   2
  -6   4  -5 56.4451 114.918   2
   6  -3 -12 180.249 82.1479   2
  -6   3   7 209.500 111.064   2
  -6   3   6-8.61425 104.521   2
  -6   3   5 64.1461 107.645   2
  -6   3   3-5.61866 100.745   2
  -7  10   1-205.207 223.922   2
  -7  10   0-78.0368 168.141   2
  -7  10  -1 141.293 169.373   2
   7 -10   2 87.5164 163.446   2
  -7  10  -3 16.7141 159.649   2
  -7  10  -4 163.982 160.660   2
   7 -10   5-19.7563 154.671   2
  -4  -1  15 722.915 292.512  -3
  -7  10  -6 722.915 292.512   2
  -7  10  -7 197.611 269.575   2
  -7   9   4 4.06797 142.034   2
  -7   9   3 102.013 139.843   2
  -7   9   2 236.178 136.458   2
  -7   9   1 286.676 136.549   2
  -7   9   0 298.196 137.398   2
   7  -9   1 367.323 132.272   2
  -7   9  -2 844.181 135.441   2
  -7   9  -3 465.924 128.546   2
  -7   9  -4 357.048 135.280   2
  -7   9  -5 350.819 127.031   2
  -7   9  -6 194.433 119.128   2
  -7   8   5 245.303 127.213   2
   7  -8  -4 6.95046 116.696   2
  -7   8   3 184.009 115.354   2
  -7   8   2 138.379 111.504   2
  -7   8   1-75.6215 119.028   2
  -7   8   0 85.6216 109.209   2
  -7   8  -1 781.089 114.153   2
   7  -8   2 577.720 110.160   2
   7  -8   3 210.860 105.581   2
  -7   8  -4-84.8856 112.487   2
   7  -8   5-167.409 109.714   2
   7  -7  -5 37.3649 100.795   2
   7  -7  -4 216.790 107.941   2
  -7   7   3 356.340 95.4850   2
   7  -7  -2 62.3743 95.0690   2
   7  -7  -1 175.150 95.3735   2
   7  -7   0 222.042 94.0986   2
  -7   7  -1 129.762 88.4282   2
   7  -7   2-69.4132 84.9667   2
  -7   7  -3 347.495 97.7192   2
   7  -7   4 148.939 85.7270   2
   7  -7   5 67.7614 74.7166   2
  -7   7  -6-121.651 234.202   2
  -7   6   6 5.32907 68.3591   2
  -7   6   5 105.671 72.4608   2
   7  -6  -4 102.037 69.7781   2
  -7   6   3 99.2603 68.1405   2
   7  -6  -2 34.4607 66.4275   2
   7  -6  -1 46.0753 62.4875   2
   7  -6   0-19.0317 63.8594   2
   7  -6   1-78.2900 64.4639   2
   7  -6   2-63.6881 58.8809   2
   7  -6   3 164.182 61.1438   2
   7  -6   4 580.895 62.4987   2
   7  -5  -6 309.336 55.8228   2
   7  -5  -5 645.476 61.5529   2
   7  -5  -4 93.4942 55.8567   2
   7  -5  -3-4.84197 58.9806   2
  -7   5   2 350.930 60.7230   2
  -7   5   1 1844.05 72.0353   2
   7  -5   0 123.199 55.8648   2
   7  -5   1 92.2566 55.4005   2
   7  -5   2 25.5732 53.6326   2
   7  -5   3 670.351 62.0543   2
   7  -5   4 205.606 53.6632   2
  -7   5  -5 33.6275 73.1396   2
  -7   4   7 266.035 83.7025   2
  -7   4   6 2631.94 106.915   2
  -7   4   5 1276.01 176.885   2
  -7   4   4 217.414 133.481   2
   7  -4  -3 65.9282 62.1554   2
  -7   4   2 280.362 66.4513   2
  -7   4   1 167.126 134.472   2
   8  -9  -1 10.5952 207.021   2
  -8   9   0 142.827 177.219   2
  -8   9  -1 249.499 152.562   2
  -8   9  -2 820.264 155.261   2
   8  -9   3 895.505 207.322   2
  -8   9  -4-112.010 141.465   2
   8  -9   5-91.8660 137.511   2
   8  -9   6 197.980 145.116   2
  -8   8   5 69.6203 113.773   2
   8  -8  -4-22.0029 110.516   2
   8  -8  -3 369.562 127.807   2
   8  -8  -2 142.670 124.512   2
   0  -1 -13 365.019 258.962  -3
   8  -8  -1 365.019 258.962   2
   8  -8   0-36.2630 124.156   2
   8  -8   1 465.956 120.356   2
   8  -8   2 955.572 122.510   2
   8  -8   3 79.8617 104.181   2
   8  -8   4-18.8895 99.8220   2
   8  -8   5 0.43986 98.8512   2
   8  -7  -6-64.6123 92.5647   2
   8  -7  -5 134.428 88.4665   2
   8  -7  -4 92.4314 87.1320   2
  -8   7   3 171.532 92.2723   2
  -8   7   2 40.5965 89.0504   2
   8  -7  -1 3.27579 87.4400   2
  -8   7   0 31.2779 85.8995   2
   8  -7   1 15.0253 84.6037   2
   8  -7   2-52.6933 77.3294   2
   8  -7   3 48.6911 79.2261   2
   8  -7   4-42.5776 79.4685   2
  -8   7  -5 98.5785 74.7215   2
   8  -6  -6-33.4857 68.8696   2
   8  -6  -5-21.3789 72.7036   2
   8  -6  -4 13.4611 67.8362   2
   8  -6  -3 197.375 78.5898   2
   8  -6  -2 8.11178 66.4150   2
   8  -6  -1 61.4918 69.6276   2
   8  -6   0-32.3242 68.1733   2
   8  -6   1 38.5789 100.948   2
   8  -6   2-32.5873 65.8515   2
   8  -6   3 140.803 76.3541   2
   8  -6   4-58.9484 61.4097   2
   8  -6   5-82.2251 86.4780   2
   8  -5  -6 386.647 100.647   2
  -8   5   5 187.583 107.625   2
  -8   5   3-95.2509 98.5504   2
  -8   5   2-38.9054 181.051   2
   9  -7  -4 328.797 146.219   2
   9  -7  -3-36.1976 80.8508   2
   9  -7  -2 112.671 94.0782   2
   9  -7  -1 27.2513 91.4947   2
   9  -7   0-61.6747 90.3357   2
   9  -7   1 4.66799 85.2835   2
   9  -7   2 92.3469 84.6216   2
   9  -7   3 14.9077 83.7654   2
   9  -7   4 449.227 125.144   2
   0   0   2 4725.24 79.0874   3
   0   0   3 1174.17 31.0492   3
   0   0   4 9329.76 43.9328   3
   0   0  -5 1197.07 22.3522   3
   0   0  -6 80.0625 25.9789   3
   0   0  -7 820.414 60.9809   3
   0   0   8 113.403 70.0091   3
   0   0   9 151.407 84.0528   3
   0   0  10 199.719 103.187   3
   0   0  11 493.576 121.681   3
   0   0 -12 48.7333 140.825   3
   0   0 -13 855.543 168.861   3
   0   0  14 36.2722 196.068   3
   0   1 -14 963.287 180.386   3
   0   1 -13 238.046 159.086   3
   0   1 -12 154.682 125.914   3
   0   1 -11 178.203 105.651   3
   0  -1   9 5904.37 113.053   3
   0   1  -8 78.6297 68.1440   3
   0  -1   7 134.442 54.6801   3
   0  -1   6 47.4419 43.0039   3
   0   1  -5 47378.1 127.291   3
   0   1  -4 4705.19 41.3684   3
   0   1  -3 7345.13 38.1736   3
   0   1  -2 79.0960 9.86543   3
   0   1   0 17574.5 79.3863   3
   0  -1  -1 3754.53 28.9698   3
   0   1   2 6175.74 35.0526   3
   0   1   3 3744.77 26.4633   3
   0   1   4 21.5390 18.2414   3
   0   1   5 104.397 23.1252   3
   0  -1  -6 232.643 70.8511   3
   0  -1  -7 3093.77 89.8111   3
   0  -1  -8 2708.37 102.992   3
   0  -1 -10 554.142 120.758   3
   0  -1 -11 530.590 142.834   3
   0  -1 -12 592.599 169.065   3
   0   2 -15 1407.30 527.924   3
   0   2 -14 6293.72 201.666   3
   0   2 -13-483.843 452.204   3
   0   2 -11 125.204 103.071   3
   0  -2  10 2435.22 424.065   3
   0  -2   9 317.703 77.8656   3
   0   2  -8 23.8068 57.5598   3
   0  -2   7-33.2405 46.9306   3
   0   2  -6 26.9402 39.9412   3
   0   2  -5 29.4970 30.5055   3
   0  -2   0 112.403 29.1225   3
   0   2   1 124.143 35.5957   3
   0   2   2 10165.3 59.1337   3
   0  -2  -3 1752.41 54.0345   3
   0   2   4 372.959 39.1985   3
   0   2   5 512.361 33.6996   3
   0   2   6 1896.33 111.662   3
   0   2   7 9536.88 150.855   3
   0   2   8 3.79330 108.439   3
   0   2   9 290.380 121.981   3
   0   2  10 57.9825 141.135   3
   0  -2 -11 1237.85 167.193   3
   0   2  12 414.151 193.801   3
   0  -2 -13 436.835 227.886   3
   0   3 -14 77.1875 390.657   3
   0   3 -13-33.8711 260.066   3
   0   3 -12 157.106 128.581   3
   0   3 -11-140.685 90.0594   3
   0   3 -10-93.4955 75.8465   3
   0  -3   9 586.326 75.7659   3
   0   3  -8-158.197 131.402   3
   0  -3   7 27.0296 155.357   3
   0   3   3 87.0315 53.8900   3
   0   3   4 259.588 52.8302   3
   0   3   5 103.165 47.8499   3
   0   3   6 3541.88 146.743   3
   0   3   7 723.561 156.478   3
   0   3   9 83.6219 155.324   3
   0   3  10 115.305 176.850   3
   0   3  11 186.994 187.007   3
   0   3  12 704.951 224.889   3
   0   4   1 267.396 140.940   3
   0   4   2 207.647 107.595   3
   0   4   3 1153.75 108.751   3
   0   4   4 97.5435 102.102   3
   0   4   5 141.417 148.648   3
   0   4   6 730.313 171.415   3
   0  -4  -8 751.717 185.262   3
   0   4   9 359.727 179.805   3
   0   4  10 553.450 200.168   3
   0   4  11 594.197 213.492   3
   0   5   2 630.668 244.721   3
   0   5   3 406.057 128.192   3
   0   5   4 566.695 142.110   3
   0   5   5 40.7006 195.205   3
   0   5   6-82.9567 174.777   3
   0   5   7 977.469 667.611   3
   0   5   8 385.236 228.025   3
   0   5   9-7.63940 228.403   3
   0   5  10 2832.48 1088.45   3
   0   5  11 114.538 255.687   3
   0   6   4 780.439 262.354   3
  -1   5  11 182.374 330.924   3
  -1   5  10-364.077 346.366   3
  -1   5   8 4054.42 319.189   3
  -1   5   7 308.987 274.831   3
  -1   4  12 323.345 311.693   3
  -1   4  11-449.807 279.257   3
  -1   4  10-156.214 278.365   3
  -1   4   9 736.405 272.911   3
  -1   4   8-23.1970 232.033   3
   1  -4  -7-395.230 928.645   3
  -1   4   6-502.278 217.052   3
  -1   4   5 1466.29 237.494   3
  -1   3  12 723.106 245.405   3
  -1   3  11 1323.60 238.124   3
  -1   3  10 614.212 221.796   3
  -1   3   9 808.238 213.936   3
  -1   3   7 740.182 194.411   3
  -1   3   6 20156.6 257.498   3
  -1   3   5 3431.67 191.167   3
  -1   3   4-180.450 186.807   3
  -1   2  13 954.541 228.978   3
  -1   2  12 13.1710 204.793   3
  -1   2  11 1181.90 201.534   3
  -1   2  10 30.8683 177.214   3
   1  -2  -8 635.006 168.013   3
  -1   2   7 8621.92 189.590   3
  -1   2   6 28652.1 235.175   3
  -1   2   5 1639.03 91.7028   3
  -1   2   4 160.745 126.311   3
  -1   2   3 4295.41 169.641   3
   1  -2   9-268.600 177.660   3
  -1   2 -10 767.350 280.669   3
  -1   2 -11 49.4802 259.684   3
   1  -1 -14 778.172 983.602   3
  -1   1  13 123.175 206.101   3
  -1   1  12 62.1051 168.224   3
   1  -1 -11 2920.05 165.198   3
  -1   1  10 324.916 132.149   3
  -1   1   9 78.3010 330.939   3
  -1   1   8 793.774 129.373   3
  -1   1   7-383.665 120.903   3
  -1   1   6 4252.92 127.308   3
  -1   1   5 7.76374 53.1488   3
  -1   1   4 579.668 83.8850   3
  -1   1   3 3162.57 95.5415   3
  -1   1  -5 176.825 33.1728   3
  -1   1  -6 1820.16 51.0728   3
  -1   1  -7 94.1481 52.2213   3
  -1   1  -8 38.5001 64.1801   3
  -1   1 -10 144.238 94.0157   3
  -1   1 -11-128.569 111.946   3
  -1   1 -12-139.389 124.862   3
  -1   1 -13-149.636 147.236   3
  -1   1 -14-142.660 177.332   3
   1   0 -14 413.209 207.103   3
  -1   0  13 342.410 179.636   3
   1   0 -12 34.0741 148.038   3
  -1   0  11 56.2516 121.550   3
  -1   0  10 118.049 117.181   3
  -1   0   9 265.612 98.8652   3
  -1   0   7 589.380 99.7175   3
  -1   0   6 1491.81 77.1453   3
  -1   0   5 1784.98 69.1130   3
  -1   0   4 5369.11 131.331   3
  -1   0   3 16833.6 97.2092   3
  -1   0   2 1482.07 61.7020   3
   1   0   2 332.908 17.5233   3
  -1   0  -3 50.9435 21.7031   3
  -1   0  -4 2692.58 42.2406   3
  -1   0  -5 3252.25 37.8331   3
  -1   0  -6 1091.46 35.7886   3
   1   0   7 1739.52 71.5080   3
  -1   0  -8 51.9027 75.2026   3
  -1   0 -10 522.039 101.295   3
  -1   0 -11 491.032 120.752   3
  -1   0 -12 217.060 138.106   3
  -1   0 -13-234.751 167.429   3
  -1  -1  15 192.584 614.542   3
   1   1 -14 694.401 189.510   3
   1   1 -13 340.920 151.283   3
   1   1 -12 329.044 129.301   3
   1   1 -11 362.876 112.367   3
   1   1 -10 801.728 284.016   3
  -1  -1   9 420.023 87.0881   3
  -1  -1   8 1155.75 90.6234   3
  -1  -1   7 16.2927 58.8190   3
  -1  -1   6 19.8159 46.8294   3
  -1  -1   5 2586.44 63.1814   3
  -1  -1   4 92.8780 13.9951   3
  -1  -1   3 90.2957 9.58424   3
  -1  -1   2 18950.9 41.6126   3
  -1  -1   1 8040.02 32.9048   3
  -1  -1   0 4708.24 28.2983   3
  -1  -1  -1 6586.86 24.0578   3
  -1  -1  -2 4735.09 25.6499   3
   1   1   3 139.064 22.4856   3
  -1  -1  -4 1236.00 25.0234   3
  -1  -1  -5 2897.98 41.3458   3
  -1  -1  -6 1492.38 67.9812   3
  -1  -1  -7 8931.61 104.001   3
  -1  -1  -8 97.8309 86.4694   3
  -1  -1  -9 243.365 106.148   3
  -1  -1 -10-53.0951 118.091   3
  -1  -1 -11 1835.83 148.340   3
  -1  -1 -12 95.8333 156.080   3
  -1  -1 -13 313.184 189.607   3
   1   2 -14 454.393 159.007   3
   1   2 -13 19.9365 136.135   3
   1   2 -12 8.48840 120.636   3
   1   2 -11 100.596 108.215   3
   1   2 -10 468.698 84.7415   3
   1   2  -9 75.6193 68.5573   3
   1   2  -8 506.768 70.8470   3
   1   2  -7 1783.10 57.2547   3
  -1  -2   6 64.6608 28.6962   3
  -1  -2   5 55.3129 47.0222   3
   1   2  -4 541.804 29.5615   3
   1   2  -3 5764.83 35.7224   3
  -1  -2   2 391.968 26.1625   3
  -1  -2   1 2345.55 35.9247   3
  -1  -2   0 1756.98 26.9096   3
  -1  -2  -1 3313.00 27.9567   3
  -1  -2  -2 27481.1 75.0490   3
   1   2   3 531.426 39.2331   3
  -1  -2  -4 336.626 50.9078   3
  -1  -2  -5 665.323 39.0037   3
  -1  -2  -6 27189.2 140.017   3
  -1  -2  -7 1970.49 87.7805   3
   1   2   9 241.486 115.606   3
  -1  -2 -10 305.400 134.467   3
   1   2  11 671.821 173.251   3
  -1  -2 -12 70.9181 182.279   3
   1   3 -15-11.2175 164.769   3
   1   3 -14-106.852 141.097   3
   1   3 -13 90.5862 137.816   3
   1   3 -12 122.478 330.970   3
   1   3 -10-75.9742 74.3091   3
   1   3  -9 177.945 62.4566   3
   1   3  -8 5211.33 70.2087   3
   1   3  -7 1502.37 40.4238   3
   1   3  -6 186.438 31.6897   3
   1   3  -5 59.1024 50.6954   3
   1   3  -4 1515.58 44.5693   3
   1   3  -3 27670.6 213.882   3
   1   3   0 1265.70 34.1307   3
   1   3   1 20588.3 82.8239   3
  -1  -3  -2 3282.71 55.7486   3
   1   3   3 12.1105 30.8927   3
  -1  -3  -4 12.7167 34.9649   3
   1   3   5 66.3363 38.6174   3
   1   3   6 2097.17 88.7245   3
   1   3   7 79.6239 94.9835   3
   1   3   8 420.270 114.694   3
  -1  -3 -10 226.886 160.435   3
  -1  -3 -11 180.599 180.898   3
  -1  -3 -12-88.0940 204.655   3
  -1  -4  16 2059.53 506.679   3
   1   4 -15 356.533 451.289   3
   1   4 -14 39.6078 273.443   3
  -1  -4  13 85.3442 216.557   3
   1   4 -12 119.060 95.1920   3
  -1  -4  11 131.774 218.645   3
  -1  -4   9 641.249 246.520   3
  -1  -4   8 26625.6 288.926   3
   1   4  -5 860.416 107.723   3
  -1  -4   4 6735.69 133.467   3
  -1  -4   3 7454.67 137.944   3
  -1  -4   2 1065.68 101.702   3
  -1  -4   1 268.801 57.4800   3
   1   4   0 3666.79 61.9321   3
  -1  -4  -1 320.161 63.5765   3
   1   4   2 211.221 52.3021   3
   1   4   3 16.0020 45.1432   3
   1   4   4 147.328 46.9072   3
   1   4   5 180.246 53.7356   3
   1   4   6 270.908 96.2952   3
  -1  -4  -8 483.340 132.239   3
   1   4   9 545.692 150.582   3
   1   4  10-280.474 190.700   3
  -1  -4 -11 312.725 191.821   3
  -1  -5  13 1224.34 550.558   3
  -1  -5  11 323.238 313.327   3
  -1  -5  10 355.596 242.709   3
  -1  -5   9 890.369 206.331   3
  -1  -5   8 4499.36 178.234   3
   1   5  -7 365.648 118.406   3
   1   5  -6-1.94712 117.167   3
   1   5  -5 37.8975 127.060   3
  -1  -5   4-62.6777 122.956   3
   1   5  -3 1953.29 93.9629   3
   1   5  -2 509.529 82.8875   3
  -1  -5   1 1484.87 85.8560   3
   1   5   0-75.6586 66.1182   3
  -1  -5  -1 812.475 195.109   3
  -1  -5  -2-69.4720 94.4012   3
  -1  -5  -3 900.777 76.7309   3
   1   5   4 426.148 76.9548   3
  -1  -5  -5 214.525 620.745   3
  -1  -6   3 810.368 156.400   3
  -1  -6   2 4097.14 192.103   3
   1   6  -1 13156.5 176.045   3
   1   6   0 550.990 108.290   3
   1   6   1 177.248 116.213   3
   1   6   2 450.172 244.220   3
   1   6   3 56.3993 125.375   3
  -1  -6  -4-82.6697 89.4921   3
   1   7   0 323.664 270.657   3
  -1  -7  -2-1612.38 470.441   3
   1   7   3 195.121 332.487   3
  -1  -7  -4 40.9365 150.829   3
  -1  -8  -3 26.8358 175.174   3
  -2   4  12 107.095 439.469   3
  -2   4  10 2210.75 369.735   3
  -2   3  12 157.336 330.096   3
  -2   3  11 1444.66 312.082   3
  -2   3  10 695.227 283.904   3
  -2   3   9-10.7201 259.112   3
  -2   3   7 9242.66 288.683   3
  -2   2  13 765.356 267.652   3
  -2   2  12 2070.04 273.987   3
  -2   2  11 1445.40 262.171   3
   2  -2 -10 828.801 987.062   3
  -2   2   9 1305.35 211.069   3
  -2   2   8 2052.96 201.791   3
  -2   2   7 5493.84 216.092   3
  -2   2   6 3245.56 204.108   3
  -2   1  14 1019.91 243.575   3
  -2   1  13 1303.51 221.764   3
  -2   1  12 562.948 199.837   3
   2  -1 -11 1273.66 218.379   3
  -2   1  10 255.193 184.008   3
   2  -1  -9 5233.71 444.656   3
  -2   1   8 1218.03 164.143   3
  -2   1   7 416.778 162.428   3
  -2   1   6 1513.71 156.438   3
  -2   1   5 115.702 153.988   3
  -2   0  14-32.8941 218.855   3
  -2   0  13 469.383 213.165   3
  -2   0  12 30.8361 164.824   3
  -2   0  11 156.324 156.193   3
   2   0  -9 4507.13 169.440   3
  -2   0   8 107.292 135.882   3
  -2   0   7 599.284 130.956   3
  -2   0   6 432.790 111.964   3
  -2   0   5 22012.4 181.941   3
   2   0   5 175.106 162.537   3
   2   0   7 491.797 260.587   3
  -2   0  -9 733.974 97.7362   3
  -2   0 -10 359.279 134.037   3
  -2   0 -11-131.611 410.332   3
  -2   0 -12 49.1752 418.845   3
   2   1 -15 210.643 234.201   3
   2   1 -14 7112.46 226.059   3
  -2  -1  13 509.808 164.619   3
  -2  -1  12 269.988 139.913   3
  -2  -1  11 108.494 122.697   3
   2   1 -10 3097.48 143.199   3
  -2  -1   9 2733.36 125.333   3
  -2  -1   8 243.246 99.6766   3
  -2  -1   7 676.677 202.470   3
  -2  -1   6 1143.05 79.2387   3
  -2  -1   4 240.374 28.3088   3
  -2  -1   3 47.7002 20.6165   3
   2   1  -2 478.551 20.3936   3
   2   1  -1 8539.69 47.6196   3
   2   1   0 841.206 29.8747   3
  -2  -1  -1 124.895 31.6766   3
  -2  -1  -3 276.271 25.5566   3
  -2  -1  -4 1295.41 34.7435   3
  -2  -1  -5 502.029 39.3825   3
  -2  -1  -6 833.216 63.9482   3
  -2  -1  -7 4268.91 93.6558   3
   2   1   8-4.77603 447.420   3
  -2  -1  -9 145.721 97.3817   3
  -2  -1 -10-95.5660 117.599   3
  -2  -1 -11 889.495 162.760   3
  -2  -1 -12 588.428 166.608   3
   2   2 -15 1603.87 198.559   3
   2   2 -14 5894.31 189.052   3
  -2  -2  13 365.199 136.934   3
  -2  -2  12-2.78722 126.493   3
   2   2 -10 554.673 85.7539   3
  -2  -2   9 151.900 77.4367   3
   2   2  -8 211.811 126.744   3
  -2  -2   7 78.3310 49.3729   3
   2   2  -6 1697.00 58.8773   3
  -2  -2   5 72.0932 26.0486   3
  -2  -2   4 715.717 21.8703   3
  -2  -2   3 108.330 22.9385   3
  -2  -2   2 69.2281 28.8834   3
  -2  -2   0 8.10640 22.2426   3
   2   2   1 112.566 25.3620   3
   2   2   2 4104.06 48.7680   3
  -2  -2  -3 211.543 25.0849   3
  -2  -2  -4 131.047 33.6190   3
  -2  -2  -5 92.8418 35.1009   3
  -2  -2  -6 1767.34 70.0544   3
  -2  -2  -7 6382.82 99.8045   3
  -2  -2  -8 715.815 313.100   3
  -2  -2  -9-105.874 110.072   3
  -2  -2 -10-26.4468 131.993   3
  -2  -2 -11 230.124 181.491   3
  -2  -2 -12 60.4531 180.840   3
  -2  -3  16 992.418 686.775   3
   2   3 -15 204.726 160.982   3
   2   3 -14 126.165 136.929   3
   2   3 -11 131.938 169.321   3
   2   3 -10 363.594 70.3301   3
   2   3  -9 90.0488 62.5994   3
   2   3  -8 643.687 49.2852   3
   2   3  -7 1764.33 44.8185   3
   2   3  -5 46.9894 24.6139   3
   2   3  -4 615.574 40.6693   3
  -2  -3   3 6606.13 71.0072   3
  -2  -3   2 2446.06 43.8877   3
   2   3  -1 228.045 33.0891   3
  -2  -3   0 231.539 17.6475   3
  -2  -3  -1 103.441 21.5061   3
  -2  -3  -2 3439.92 60.6591   3
  -2  -3  -3 269.222 33.9707   3
   2   3   4 71.5749 35.4262   3
  -2  -3  -5 34.3674 40.3791   3
  -2  -3  -6 157.251 69.1652   3
  -2  -3  -7 386.521 239.612   3
  -2  -3  -8 263.984 101.052   3
   2   3   9 82.8506 118.373   3
  -2  -3 -10 63.5181 141.097   3
  -2  -3 -11 243.316 174.153   3
  -2  -4  16-122.015 193.011   3
  -2  -4  15 5.50606 166.704   3
   2   4 -14-4.40655 124.530   3
   2   4 -13 335.054 105.412   3
  -2  -4  12 167.385 126.008   3
   2   4 -11 104.387 69.0594   3
   2   4 -10 23.5125 70.0060   3
  -2  -4   9 1059.37 60.3722   3
   2   4  -8 627.577 42.1654   3
   2   4  -7 320.708 27.2335   3
  -2  -4   6 1174.36 44.4244   3
  -2  -4   5 965.920 43.4148   3
  -2  -4   4 15.1638 36.5091   3
  -2  -4   3-172.906 53.6321   3
  -2  -4   2 25.8286 67.8946   3
   2   4  -1 58.3493 42.6326   3
  -2  -4   0 850.369 50.0309   3
  -2  -4  -1 198.934 50.9537   3
   2   4   2 198.850 48.7673   3
  -2  -4  -3 221.285 53.9016   3
  -2  -4  -4 41.0859 56.3313   3
  -2  -4  -5 239.608 63.0416   3
  -2  -5   7 133.849 83.9998   3
  -2  -5   6 183.023 85.1675   3
  -2  -5   5 15.3428 93.0687   3
  -2  -5   4 141.219 81.3116   3
  -2  -5   3 141.986 78.3472   3
  -2  -5   2 1073.59 81.5253   3
  -2  -5   1 2434.57 74.4491   3
  -2  -5   0 747.716 64.8277   3
  -2  -5  -1 101.730 64.0368   3
   2   5   2 369.304 72.9853   3
  -2  -5  -3 2263.24 111.852   3
   2   5   4 340.463 78.7913   3
   2   6  -7 492.148 174.257   3
   2   6  -6 305.675 118.893   3
  -2  -6   5 280.133 112.472   3
  -2  -6   4 163.856 105.209   3
  -2  -6   3 7.21177 99.7895   3
  -2  -6   2 23209.7 197.673   3
  -2  -6   1 5351.91 98.3773   3
  -2  -6   0 335.007 75.9626   3
   2   6   1 102.570 79.7104   3
   2   6   2 517.749 119.739   3
  -2  -6  -4-88.7845 158.167   3
   2   7  -8 150.277 184.288   3
   2   7  -7 1743.68 205.296   3
  -2  -7   6 742.364 214.699   3
  -2  -7   5-153.576 126.856   3
   2   7  -4 407.897 130.543   3
   2   7  -3 453.299 211.343   3
  -2  -7   1 150.332 155.778   3
  -2  -7   0 408.173 96.5346   3
  -2  -7  -1-31.3874 102.503   3
   2   7   2-5.57112 109.568   3
   2   7   3-33.4557 114.522   3
   2   7   4 68.7871 122.399   3
   2   8  -5 826.038 250.451   3
  -2  -8   4 74.3886 149.831   3
  -2  -8   3 961.848 151.234   3
  -2  -8   2-272.633 178.080   3
   2   8  -1 39.0959 164.135   3
  -2  -8   0 311.582 118.785   3
  -2  -8  -1 238.252 127.029   3
   2   8   2-53.2006 129.280   3
   2   8   3-10.5151 133.842   3
  -2  -9   1 156.040 188.296   3
  -2  -9   0 742.201 180.625   3
   2   9   1 156.527 187.571   3
   2   9   2 84.4425 210.430   3
   2   9   3 560.807 219.553   3
   3  -2 -13-1120.99 364.336   3
   3  -2 -12-4764.30 811.258   3
  -3   2  11 4503.95 328.263   3
  -3   2  10-558.980 292.542   3
  -3   2   9-256.453 279.912   3
  -3   1  14 351.515 284.780   3
  -3   1  13 170.313 284.994   3
  -3   1  12 666.109 285.957   3
  -3   1  11 1507.29 268.370   3
  -3   1  10 276.978 237.168   3
  -3   1   8 447.102 212.370   3
  -3   1   7 3027.41 266.205   3
  -3   0  14 767.713 235.869   3
  -3   0  13 1034.82 232.455   3
  -3   0  12 1224.09 223.997   3
  -3   0  11 844.409 228.345   3
  -3   0   9 710.651 183.149   3
  -3   0   8 139.658 164.248   3
  -3   0   7 72.6928 251.557   3
  -3  -1  15 2274.80 231.690   3
   3   1 -14 2379.36 213.899   3
  -3  -1  13 613.222 179.323   3
  -3  -1  12 596.022 162.846   3
  -3  -1  11 569.197 164.781   3
  -3  -1  10 2243.39 161.422   3
  -3  -1   9 235.273 143.688   3
  -3  -1   8 283.915 122.868   3
  -3  -1   7 1403.74 117.236   3
  -3  -1   6-25.9751 43.4125   3
  -3  -1   5 240.476 124.615   3
   3   1   5 320.026 206.922   3
   3   1   6 9016.28 117.512   3
   3   1   7 4398.60 330.798   3
   3   1   9 3428.59 510.814   3
  -3  -2  15 1311.18 201.847   3
  -3  -2  14 352.784 175.333   3
  -3  -2  13 245.583 145.679   3
   3   2 -12 35.1229 134.580   3
  -3  -2  10-74.6412 117.302   3
  -3  -2   9 205.181 96.2927   3
  -3  -2   8 139.917 89.7981   3
  -3  -2   7 182.844 81.3288   3
  -3  -2   6 431.045 80.1384   3
  -3  -2   5 44.7467 41.1842   3
  -3  -2   4 219.910 35.0850   3
   3   2  -3 9111.66 64.8846   3
   3   2  -2 1125.06 37.6147   3
  -3  -2   1 106.634 32.8531   3
   3   2   0 106.159 35.3532   3
   3   2   1 11891.9 85.8154   3
   3   2   2 8298.42 78.8791   3
  -3  -2  -3-56.8207 68.3047   3
   3   2   4-36.5741 49.6114   3
   3   2   5 197.233 72.5196   3
   3   2   6 5231.65 395.273   3
   3   2   7 257.480 411.585   3
   3   2   8-190.090 260.165   3
  -3  -2  -9-87.2737 292.496   3
  -3  -2 -10 436.322 366.202   3
  -3  -3  14 236.800 155.639   3
  -3  -3  13-0.14511 120.387   3
   3   3 -12 748.793 114.425   3
   3   3 -11 174.780 81.2259   3
  -3  -3  10 112.361 68.9636   3
   3   3  -9 147.198 62.0877   3
  -3  -3   8 13711.1 121.024   3
   3   3  -7 4928.01 55.8426   3
   3   3  -6 25.1440 43.9947   3
  -3  -3   5 155.288 28.6282   3
  -3  -3   4 2052.28 47.5145   3
  -3  -3   3 20755.6 101.013   3
  -3  -3   2 110.491 39.7546   3
  -3  -3   1 118.624 41.7831   3
  -3  -3   0 248.457 44.0803   3
   3   3   1 1465.06 57.1510   3
   3   3   2 718.153 57.9019   3
   3   3   3 16.4299 74.5905   3
   3   3   4 324.780 59.0899   3
   3   3   5 188.753 69.2269   3
  -3  -4   7 283.164 43.6756   3
  -3  -4   6 402.557 45.6200   3
   3   4  -5 49.0597 47.5923   3
  -3  -4   4 1847.86 56.9048   3
  -3  -4   3 508.838 50.8470   3
  -3  -4   2 255.021 64.9475   3
  -3  -4   1 559.436 57.0517   3
  -3  -4   0 338.973 56.8350   3
  -3  -4  -1 246.322 61.9271   3
  -3  -4  -2 181.718 69.1437   3
  -3  -4  -3 249.199 70.1721   3
   3   4   4 535.861 80.5589   3
   3   4   5 233.231 96.3344   3
  -3  -5   7 239.356 57.2411   3
  -3  -5   6 177.467 56.2505   3
   3   5  -5 311.345 56.6938   3
   3   5  -4 304.494 58.1808   3
   3   5  -3 69.3150 57.7700   3
  -3  -5   2 91.3643 96.4544   3
  -3  -5   1 11224.8 108.024   3
   3   5   0 76.4001 67.0156   3
  -3  -5  -1 241.937 73.4712   3
  -3  -5  -2 417.529 81.6220   3
  -3  -5  -4 368.766 121.670   3
   3   6  -7 70.9912 77.3010   3
  -3  -6   6 1464.51 74.8727   3
  -3  -6   5 107.293 72.8472   3
  -3  -6   4 603.136 73.8173   3
  -3  -6   3 155.394 72.5891   3
  -3  -6   2 3323.53 87.4317   3
   3   6   1 200.418 84.5630   3
  -3  -6  -2 226.638 90.4407   3
  -3  -6  -3 232.663 104.145   3
  -3  -6  -4 54.7397 105.840   3
  -3  -7   8 10.0654 77.1843   3
   3   7  -7 147.387 90.5831   3
  -3  -7   4 579.720 169.483   3
   3   7  -3 110.322 87.0217   3
   3   7  -2-12.6864 90.8323   3
   3   7  -1 203.522 95.2514   3
  -3  -7   0 88.0892 150.151   3
  -3  -7  -1 145.360 108.209   3
  -3  -7  -2 285.555 113.906   3
  -3  -7  -3 162.691 124.200   3
  -3  -7  -4 397.702 178.422   3
  -3  -8   8-3616.03 707.250   3
  -3  -8   7-177.358 97.8948   3
  -3  -8   6-15.5140 101.317   3
   3   8  -5-22.3904 100.266   3
  -3  -8   4 47.7358 107.246   3
  -3  -8   3 55.2240 115.282   3
   3   8  -1 79.8778 119.494   3
   3   8   0 362.790 127.587   3
   3   8   1-23.7787 137.336   3
   3   8   2 111.634 142.516   3
  -3  -8  -3 116.806 150.821   3
  -3  -9   8 5.42170 118.716   3
  -3  -9   7 13.5978 127.171   3
  -3  -9   6-234.340 113.601   3
  -3  -9   5 406.536 124.840   3
   3   9  -4-85.7093 126.414   3
   3   9  -3 2.41468 130.601   3
   3   9  -2 143.086 147.026   3
   3   9  -1 505.940 147.880   3
   3   9   0 224.361 195.571   3
   3   9   1 48.1221 160.750   3
   3   9   2 223.122 168.618   3
  -3  -9  -3-141.980 175.510   3
   3  10  -4 146.139 179.268   3
   3  10  -3-79.3422 154.552   3
   3  10  -2-11.9403 164.912   3
  -3 -10   1 160.537 172.158   3
  -4   1  14 539.550 384.271   3
   4   0 -14 705.211 291.623   3
  -4   0  13 101.513 300.924   3
  -4   0  12 371.395 263.978   3
  -4   0  11-292.612 280.715   3
  -4   0   9 4650.16 264.389   3
   4   1 -14 8167.21 259.031   3
  -4  -1  13 634.233 274.348   3
  -4  -1  12 98.4139 224.901   3
  -4  -1  11 135.857 203.590   3
  -4  -1  10 711.907 175.205   3
  -4  -1   9 437.496 169.838   3
  -4  -1   8 85.8678 160.608   3
  -4  -1   7 87.1949 177.417   3
  -4  -2  14 1093.08 212.504   3
  -4  -2  13 301.332 179.484   3
  -4  -2  12 143.555 148.168   3
  -4  -2  10-67.9365 128.104   3
  -4  -2   9 693.810 123.253   3
  -4  -2   8 90.3526 119.907   3
  -4  -2   7 2.41822 114.214   3
  -4  -2   6 156.981 55.0101   3
   4   2  -5 22.9877 63.4709   3
   4   2  -4 8.34906 66.7818   3
   4   2  -2 2657.02 89.9781   3
  -4  -2   1-38.2822 43.2036   3
   4   3  -7 2001.20 84.9006   3
  -4  -3   6 574.465 49.3932   3
  -4  -3   5 165.758 48.5390   3
   4   3  -4 120.151 56.3705   3
  -4  -3   3 620.619 63.8834   3
  -4  -3   2 168.841 59.2108   3
   4   3  -1 126.756 52.1743   3
  -4  -3   0 173.765 55.8079   3
   4   3   1 118.511 60.0753   3
  -4  -3  -2 22.4219 66.7326   3
  -4  -3  -4-159.042 71.9790   3
  -4  -4   7 278.065 53.4933   3
  -4  -4   6-50.7019 55.9396   3
  -4  -4   5 185.215 57.4770   3
  -4  -4   4 357.141 60.9173   3
  -4  -4   3-23.7936 59.4930   3
  -4  -4   2 48.1864 61.5946   3
  -4  -4   1 2.91490 66.4761   3
   4   4   0 33.1942 68.6461   3
  -4  -4  -2 716.089 110.207   3
   4   4   4 510.384 93.8242   3
  -4  -4  -5-123.304 95.9445   3
  -4  -5   7 79.4533 63.6624   3
  -4  -5   6 133.326 63.9203   3
  -4  -5   5 40.5956 64.3832   3
  -4  -5   4 372.788 69.5993   3
  -4  -5   3 94.9309 69.1850   3
  -4  -5   2 5999.75 100.138   3
   4   5   0 44.7744 119.137   3
  -4  -5  -1 290.654 90.3299   3
  -4  -5  -2-6.70228 94.6912   3
   4   5   3 1886.70 104.677   3
  -4  -5  -4 465.926 106.608   3
  -4  -6   7 689.494 75.5028   3
  -4  -6   6 1827.94 99.8744   3
   4   6  -4 225.198 138.362   3
  -4  -6   3 224.906 79.0892   3
  -4  -6   2 8566.32 118.303   3
  -4  -6   1 251.698 88.2653   3
  -4  -6   0 116.418 94.0610   3
  -4  -6  -1 121.672 103.834   3
   4   6   2 81.3722 107.094   3
   4   6   3-131.964 111.531   3
  -4  -6  -4 647.797 117.534   3
  -4  -7   8-2.12430 194.329   3
  -4  -7   7 803.088 94.2476   3
  -4  -7   6 187.614 89.0506   3
   4   7  -5 124.157 90.4972   3
   4   7  -4 87.1314 91.6582   3
   4   7  -3 442.340 97.8788   3
  -4  -7   2 284.006 100.083   3
  -4  -7   1 116.451 100.967   3
  -4  -7   0 283.441 111.637   3
  -4  -7  -1 433.229 121.801   3
  -4  -7  -2 117.871 130.423   3
  -4  -7  -3 453.147 150.576   3
  -4  -7  -4-330.750 229.438   3
   4   8  -8 44.7257 100.459   3
   4   8  -7 94.0158 105.791   3
  -4  -8   6 143.737 111.599   3
   4   8  -5 254.475 118.026   3
   4   8  -4 397.659 125.274   3
   4   8  -3 85.7098 116.657   3
  -4  -8   2 277.985 121.633   3
  -4  -8   1-19.8041 142.035   3
   4   8   0 1187.93 142.099   3
  -4  -8  -1 414.413 150.215   3
  -4  -8  -2 276.449 160.483   3
  -4  -8  -3 28.6006 169.754   3
   4   9  -8-98.7636 119.578   3
   4   9  -7 114.732 123.193   3
   4   9  -6-39.6663 128.648   3
   4   9  -5 659.499 137.057   3
   4   9  -4 715.783 143.076   3
   4   9  -3 30.7747 145.848   3
   4   9  -2 147.836 151.772   3
  -4  -9   1 134.235 162.734   3
  -4  -9   0 202.680 174.436   3
   4  10  -8 379.713 156.559   3
  -4 -10   7 131.053 146.026   3
   4  10  -6 49.3312 152.975   3
   4  10  -5 369.747 160.205   3
  -5  -1  13-348.241 262.314   3
  -5  -1  12 1147.64 250.539   3
  -5  -1  11 228.179 249.704   3
   5   3  -7 2152.20 115.466   3
   5   3  -6 64.1094 95.6174   3
   5   3  -5 292.655 100.539   3
   5   3  -4 1836.39 105.569   3
  -5  -3   3 1346.11 65.9255   3
  -5  -3   2 219.253 59.9491   3
  -5  -3   1 441.860 69.7505   3
  -5  -4   7 228.200 66.7700   3
  -5  -4   6 20.8971 68.2140   3
  -5  -4   5 213.612 77.6923   3
  -5  -4   4 248.497 68.8282   3
  -5  -4   3 371.799 71.4313   3
   5   4  -1 1245.83 124.468   3
  -5  -4   0 148.304 81.2461   3
  -5  -4  -1 523.969 89.5116   3
  -5  -4  -2-110.121 90.4371   3
  -5  -4  -3 256.716 101.565   3
   5   4   4 647.771 149.201   3
   5   4   5 781.584 159.372   3
  -5  -5   7 279.468 74.0872   3
  -5  -5   6 997.507 94.9003   3
   5   5  -4 441.651 139.175   3
   5   5  -3 563.209 84.4297   3
   5   5  -2 2524.50 97.5262   3
   5   5  -1 7254.22 122.673   3
  -5  -5   0 442.787 96.5514   3
  -5  -5  -1 559.740 104.652   3
  -5  -5  -2 223.522 111.457   3
  -5  -5  -3 256.265 117.760   3
  -5  -5  -4-178.799 124.193   3
  -5  -6   7-219.248 86.9596   3
  -5  -6   6 625.189 93.5332   3
  -5  -6   5 179.341 90.3208   3
  -5  -6   4-59.6514 92.6530   3
  -5  -6   3 20.2321 99.4280   3
  -5  -6   2 112.130 100.949   3
  -5  -6   1 273.901 107.606   3
  -5  -6   0 339.322 116.599   3
   5   6   1 664.848 119.341   3
  -5  -6  -2 703.979 129.621   3
  -5  -6  -3 353.637 139.873   3
  -5  -6  -4 179.806 139.048   3
   5   7  -8 154.176 204.396   3
  -5  -7   7 34.1095 99.1369   3
  -5  -7   6 173.433 103.770   3
  -5  -7   5-41.7919 106.925   3
  -5  -7   4-221.033 121.796   3
  -5  -7   3 4.33214 110.768   3
  -5  -7   2 122.359 117.280   3
  -5  -7   1-142.630 126.705   3
  -5  -7   0-202.012 127.429   3
   5   7   1 162.108 145.562   3
  -5  -7  -2 690.791 144.363   3
  -5  -7  -3 732.870 149.651   3
  -5  -7  -4 1866.47 302.047   3
  -5  -8   8 86.9358 115.222   3
  -5  -8   7 213.944 116.629   3
  -5  -8   6 281.700 120.755   3
  -5  -8   5 477.362 124.535   3
  -5  -8   4 172.849 127.868   3
  -5  -8   3 184.684 134.383   3
  -5  -8   2 122.392 145.110   3
  -5  -8   1 120.736 150.218   3
   5   8   0 339.721 162.074   3
  -5  -8  -1-311.560 232.897   3
  -5  -9   8 57.9133 134.247   3
  -5  -9   7-39.1804 137.655   3
  -5  -9   6 179.842 145.826   3
  -5  -9   5 544.633 151.700   3
  -5  -9   4 341.805 162.308   3
  -5  -9   3 7.91688 148.415   3
   6   4  -6 4.30011 130.234   3
   6   4  -5 13.1412 126.160   3
   6   4  -4 22.5804 129.675   3
   6   4  -3 55.9003 131.532   3
  -6  -5   7-109.924 85.4724   3
  -6  -5   6 718.211 95.8055   3
  -6  -5   5 293.029 95.4498   3
  -6  -5   4 162.495 96.1034   3
  -6  -5   3 165.652 98.6717   3
   6   5  -2 7635.30 139.446   3
  -6  -5   1 2238.39 119.276   3
  -6  -5   0 191.476 113.046   3
  -6  -5  -1-475.792 154.160   3
   6   5   2 1360.07 192.337   3
  -6  -6   7 1059.09 102.557   3
  -6  -6   6 1262.13 110.382   3
  -6  -6   5 588.465 109.517   3
  -6  -6   4 677.801 113.402   3
  -6  -6   3 394.685 116.644   3
  -6  -6   2 902.119 124.457   3
  -6  -6   1 433.624 131.451   3
  -6  -6   0 173.158 136.106   3
  -6  -6  -1 202.859 145.824   3
  -6  -6  -2-176.476 152.650   3
  -6  -6  -3-615.417 163.841   3
  -6  -7   7 743.203 112.457   3
  -6  -7   6 762.306 118.846   3
   6   7  -5 876.102 121.384   3
  -6  -7   4 796.407 126.643   3
  -6  -7   3 1042.44 135.776   3
  -6  -7   2 728.523 144.117   3
  -6  -7   1 688.574 150.022   3
  -6  -7   0 789.405 160.487   3
   6   8  -8 183.861 252.129   3
  -6  -8   7-157.152 135.152   3
  -6  -8   6-33.8998 133.559   3
  -6  -8   5 162.317 141.541   3
  -6  -8   4 710.586 155.504   3
  -6  -8   3 1141.29 198.836   3
  -6  -9   8-202.336 176.938   3
   7   6  -7-37.9603 207.774   3
  -7  -6   6-287.689 137.617   3
  -7  -6   5-196.254 128.867   3
  -7  -6   4-302.990 131.085   3
  -7  -6   3-492.224 133.888   3
   7   6  -2 35.4743 219.918   3
  -7  -7   7-85.9134 130.450   3
  -7  -7   6 201.418 139.496   3
  -7  -7   5 131.513 145.047   3
  -7  -7   4 228.476 190.511   3
;
_shelx_hkl_checksum              2959
_olex2_submission_special_instructions 'No special instructions were received'
loop_
_space_group_symop_operation_xyz
'x, y, z'
'-x, -y, -z'
loop_
_atom_site_label
_atom_site_type_symbol
_atom_site_fract_x
_atom_site_fract_y
_atom_site_fract_z
_atom_site_U_iso_or_equiv
_atom_site_adp_type
_atom_site_occupancy
_atom_site_site_symmetry_order
_atom_site_calc_flag
_atom_site_refinement_flags_posn
C15 C 0.2422(7) 0.4762(6) 0.4564(7) 0.0178(13) Uani 1 1 d .
C16 C 0.2369(7) 0.4352(6) 0.3101(7) 0.0199(13) Uani 1 1 d .
O1 O 0.4063(7) 1.0152(5) 0.8057(5) 0.0456(14) Uani 1 1 d .
C2 C 0.2893(7) 0.6567(6) 0.5522(7) 0.0189(12) Uani 1 1 d .
C12 C 0.2001(7) 0.3313(6) 0.5047(7) 0.0191(12) Uani 1 1 d .
C10 C 0.1523(8) 0.1137(7) 0.2657(8) 0.0262(15) Uani 1 1 d .
H10 H 0.122280 -0.004977 0.203340 0.031 Uiso 1 1 calc R
C3 C 0.3264(8) 0.7960(7) 0.4964(8) 0.0241(14) Uani 1 1 d .
H3 H 0.355438 0.915232 0.557311 0.029 Uiso 1 1 calc R
C13 C 0.2067(8) 0.3702(7) 0.6476(7) 0.0240(13) Uani 1 1 d .
H13 H 0.180832 0.277422 0.680176 0.029 Uiso 1 1 calc R
C5 C 0.2785(8) 0.5775(7) 0.2599(7) 0.0222(13) Uani 1 1 d .
C4 C 0.3199(8) 0.7573(7) 0.3587(8) 0.0248(15) Uani 1 1 d .
H4 H 0.343184 0.850676 0.326493 0.030 Uiso 1 1 calc R
C11 C 0.1548(8) 0.1513(6) 0.4040(7) 0.0225(14) Uani 1 1 d .
H11 H 0.126203 0.057093 0.434724 0.027 Uiso 1 1 calc R
C14 C 0.2514(8) 0.5448(6) 0.7404(7) 0.0228(12) Uani 1 1 d .
H14 H 0.253049 0.568083 0.835216 0.027 Uiso 1 1 calc R
C9 C 0.1956(8) 0.2557(7) 0.2149(7) 0.0238(14) Uani 1 1 d .
C6 C 0.2769(9) 0.5355(7) 0.1168(7) 0.0309(15) Uani 1 1 d .
H6 H 0.300993 0.627298 0.082925 0.037 Uiso 1 1 calc R
C8 C 0.1967(9) 0.2193(7) 0.0718(8) 0.0293(15) Uani 1 1 d .
H8 H 0.168542 0.101425 0.008264 0.035 Uiso 1 1 calc R
C1 C 0.2946(8) 0.6892(7) 0.6965(7) 0.0211(13) Uani 1 1 d .
C17 C 0.3516(9) 0.8684(7) 0.8114(8) 0.0316(15) Uani 1 1 d .
H17 H 0.344531 0.869089 0.900757 0.038 Uiso 1 1 calc R
C7 C 0.2402(9) 0.3608(7) 0.0253(7) 0.0358(15) Uani 1 1 d .
H7 H 0.244369 0.336192 -0.068749 0.043 Uiso 1 1 calc R
loop_
_atom_site_aniso_label
_atom_site_aniso_U_11
_atom_site_aniso_U_22
_atom_site_aniso_U_33
_atom_site_aniso_U_23
_atom_site_aniso_U_13
_atom_site_aniso_U_12
C15 0.021(3) 0.017(3) 0.019(3) 0.007(3) 0.010(3) 0.0069(19)
C16 0.020(3) 0.017(3) 0.023(4) 0.006(3) 0.008(3) 0.006(2)
O1 0.072(3) 0.020(2) 0.028(3) -0.008(2) 0.017(3) 0.0000(19)
C2 0.019(3) 0.015(3) 0.019(3) 0.002(3) 0.005(3) 0.0038(18)
C12 0.024(3) 0.020(3) 0.017(3) 0.009(3) 0.008(3) 0.009(2)
C10 0.028(3) 0.019(3) 0.027(4) 0.006(3) -0.001(4) 0.006(2)
C3 0.022(3) 0.017(3) 0.029(4) 0.006(3) 0.002(3) 0.0028(19)
C13 0.029(3) 0.029(3) 0.017(3) 0.013(3) 0.004(3) 0.007(2)
C5 0.026(3) 0.020(3) 0.019(3) 0.006(3) 0.007(3) 0.006(2)
C4 0.034(3) 0.018(3) 0.026(4) 0.011(3) 0.007(4) 0.007(2)
C11 0.027(3) 0.016(3) 0.025(4) 0.009(3) 0.004(3) 0.007(2)
C14 0.031(3) 0.028(3) 0.008(3) 0.003(3) 0.010(3) 0.008(2)
C9 0.022(3) 0.020(3) 0.024(4) 0.003(3) 0.001(3) 0.005(2)
C6 0.051(4) 0.030(3) 0.017(3) 0.014(3) 0.011(4) 0.012(3)
C8 0.039(3) 0.023(3) 0.019(3) -0.001(3) 0.003(4) 0.009(2)
C1 0.023(3) 0.022(3) 0.014(3) 0.001(3) 0.007(3) 0.007(2)
C17 0.038(3) 0.027(3) 0.021(4) -0.001(3) 0.009(4) 0.006(2)
C7 0.054(4) 0.040(4) 0.014(3) 0.011(3) 0.011(4) 0.013(3)
loop_
_atom_type_symbol
_atom_type_description
_atom_type_scat_dispersion_real
_atom_type_scat_dispersion_imag
_atom_type_scat_source
C C 0.0010 0.0010 'International Tables Vol C Tables 4.2.6.8 and 6.1.1.4'
H H 0.0000 0.0000 'International Tables Vol C Tables 4.2.6.8 and 6.1.1.4'
O O 0.0040 0.0030 'International Tables Vol C Tables 4.2.6.8 and 6.1.1.4'
loop_
_geom_angle_atom_site_label_1
_geom_angle_atom_site_label_2
_geom_angle_atom_site_label_3
_geom_angle
C16 C15 C12 118.8(5)
C2 C15 C16 120.5(4)
C2 C15 C12 120.8(6)
C15 C16 C5 119.6(5)
C9 C16 C15 120.8(4)
C9 C16 C5 119.6(6)
C15 C2 C3 118.0(6)
C1 C2 C15 117.9(4)
C1 C2 C3 124.1(5)
C13 C12 C15 119.1(5)
C13 C12 C11 122.2(4)
C11 C12 C15 118.6(6)
C11 C10 H10 119.8
C11 C10 C9 120.3(6)
C9 C10 H10 119.8
C2 C3 H3 119.3
C4 C3 C2 121.5(6)
C4 C3 H3 119.3
C12 C13 H13 119.9
C14 C13 C12 120.2(5)
C14 C13 H13 119.9
C4 C5 C16 118.3(6)
C6 C5 C16 119.0(5)
C6 C5 C4 122.7(5)
C3 C4 C5 122.1(5)
C3 C4 H4 119.0
C5 C4 H4 119.0
C12 C11 H11 118.9
C10 C11 C12 122.2(5)
C10 C11 H11 118.9
C13 C14 H14 119.0
C13 C14 C1 121.9(6)
C1 C14 H14 119.0
C16 C9 C10 119.3(6)
C8 C9 C16 119.6(5)
C8 C9 C10 121.2(6)
C5 C6 H6 119.5
C7 C6 C5 121.0(5)
C7 C6 H6 119.5
C9 C8 H8 120.1
C7 C8 C9 119.8(6)
C7 C8 H8 120.1
C2 C1 C17 125.0(5)
C14 C1 C2 120.0(5)
C14 C1 C17 114.9(6)
O1 C17 C1 129.2(6)
O1 C17 H17 115.4
C1 C17 H17 115.4
C6 C7 C8 120.9(6)
C6 C7 H7 119.5
C8 C7 H7 119.5
loop_
_geom_bond_atom_site_label_1
_geom_bond_atom_site_label_2
_geom_bond_distance
C15 C16 1.426(9)
C15 C2 1.418(8)
C15 C12 1.435(6)
C16 C5 1.430(6)
C16 C9 1.413(8)
O1 C17 1.216(6)
C2 C3 1.444(7)
C2 C1 1.417(9)
C12 C13 1.392(9)
C12 C11 1.431(8)
C10 H10 0.9300
C10 C11 1.352(9)
C10 C9 1.433(7)
C3 H3 0.9300
C3 C4 1.340(9)
C13 H13 0.9300
C13 C14 1.372(8)
C5 C4 1.426(8)
C5 C6 1.399(9)
C4 H4 0.9300
C11 H11 0.9300
C14 H14 0.9300
C14 C1 1.403(7)
C9 C8 1.407(9)
C6 H6 0.9300
C6 C7 1.374(8)
C8 H8 0.9300
C8 C7 1.399(7)
C1 C17 1.478(8)
C17 H17 0.9300
C7 H7 0.9300
loop_
_diffrn_oxdiff_twin_id
_diffrn_oxdiff_twin_ratio
_diffrn_oxdiff_twin_reflns_isolated
_diffrn_oxdiff_twin_reflns_overlapped
1 0.3333 2982 42
2 0.3333 2982 41
3 0.3333 2772 48
loop_
_twin_individual_id
_twin_individual_mass_fraction_refined
1 0.690(6)
2 0.111(3)
3 0.199(5)

_cod_database_fobs_code 2108395
