#------------------------------------------------------------------------------
#$Date: 2022-01-01 06:19:30 +0200 (Sat, 01 Jan 2022) $
#$Revision: 271667 $
#$URL: file:///home/coder/svn-repositories/cod/cif/2/10/89/2108918.cif $
#------------------------------------------------------------------------------
#
# This file is available in the Crystallography Open Database (COD),
# http://www.crystallography.net/. The original data for this entry
# were provided by IUCr Journals, http://journals.iucr.org/.
#
# The file may be used within the scientific community so long as
# proper attribution is given to the journal article from which the
# data were obtained.
#
data_2108918
loop_
_publ_author_name
'Rejnhardt, Piotr'
'Drozd, Marek'
'Daszkiewicz, Marek'
_publ_section_title
;
 Low-temperature phase transition and high-pressure phase stability of
 1<i>H</i>-pyrazole-1-carboxamidine nitrate
;
_journal_issue                   6
_journal_name_full               'Acta Crystallographica Section B'
_journal_page_first              996
_journal_page_last               1002
_journal_paper_doi               10.1107/S2052520621010970
_journal_volume                  77
_journal_year                    2021
_chemical_formula_moiety         'C4 H7 N4, N O3'
_chemical_formula_sum            'C4 H7 N5 O3'
_chemical_formula_weight         173.15
_space_group_crystal_system      monoclinic
_space_group_IT_number           14
_space_group_name_Hall           '-P 2ybc'
_space_group_name_H-M_alt        'P 1 21/c 1'
_atom_sites_solution_hydrogens   geom
_atom_sites_solution_primary     direct
_audit_creation_date             2021-07-14
_audit_creation_method
;
Olex2 1.2
(compiled 2018.05.29 svn.r3508 for OlexSys, GUI svn.r5506)
;
_cell_angle_alpha                90
_cell_angle_beta                 98.54(5)
_cell_angle_gamma                90
_cell_formula_units_Z            4
_cell_length_a                   5.0608(12)
_cell_length_b                   10.1526(10)
_cell_length_c                   13.677(10)
_cell_measurement_reflns_used    766
_cell_measurement_temperature    293(2)
_cell_measurement_theta_max      20.4860
_cell_measurement_theta_min      3.9960
_cell_volume                     694.9(5)
_computing_cell_refinement       'CrysAlisPro 1.171.39.46 (Rigaku OD, 2018)'
_computing_data_collection       'CrysAlisPro 1.171.39.46 (Rigaku OD, 2018)'
_computing_data_reduction        'CrysAlisPro 1.171.39.46 (Rigaku OD, 2018)'
_computing_molecular_graphics    'Olex2 (Dolomanov et al., 2009)'
_computing_publication_material  'Olex2 (Dolomanov et al., 2009)'
_computing_structure_refinement  'ShelXL (Sheldrick, 2015)'
_computing_structure_solution    'ShelXS (Sheldrick, 2008)'
_diffrn_ambient_temperature      293(2)
_diffrn_detector                 'CCD plate'
_diffrn_detector_area_resol_mean 8.2214
_diffrn_detector_type            'Sapphire2, large Be window'
_diffrn_measured_fraction_theta_full 0.353
_diffrn_measured_fraction_theta_max 0.353
_diffrn_measurement_details
;
List of Runs (angles in degrees, time in seconds):

  # Type    Start    End  Width  t~exp~   \w     \q     \k     \f   Frames
--------------------------------------------------------------------------
  1  \w    -20.00  31.60   0.60   30.00    --   25.00   0.00   0.00   86
  2  \w    -20.00  35.80   0.60   30.00    --   25.00   0.00 180.00   93
  3  \w     -3.00  46.80   0.60   30.00    --   25.00 -40.00-170.00   83
  4  \w     -3.00  46.80   0.60   30.00    --   25.00 -40.00  10.00   83
  5  \w      8.00  65.00   0.60   30.00    --   25.00 -82.00  30.00   95
  6  \w      8.00  65.00   0.60   30.00    --   25.00 -82.00-150.00   95
  7  \w     32.50  88.90   0.60   30.00    --   25.00-135.00-122.00   94
  8  \w     32.00  89.00   0.60   30.00    --   25.00-135.00  58.00   95
  9  \w     25.00  46.60   0.60   30.00    --  -25.00-135.00  58.00   36
 10  \w     25.00  46.60   0.60   30.00    --  -25.00-135.00-122.00   36
 11  \w      0.00  22.80   0.60   30.00    --  -25.00 -82.00-150.00   38
 12  \w      0.00  22.80   0.60   30.00    --  -25.00 -82.00  30.00   38
 13  \w    -19.00  17.00   0.60   30.00    --  -25.00 -40.00  10.00   60
 14  \w    -19.00  17.00   0.60   30.00    --  -25.00 -40.00-170.00   60
 15  \w    -33.00  21.60   0.60   30.00    --  -25.00   0.00 180.00   91
 16  \w    -33.00  21.60   0.60   30.00    --  -25.00   0.00   0.00   91
;
_diffrn_measurement_device       'four-circle diffractometer'
_diffrn_measurement_device_type  'Xcalibur, Sapphire2, large Be window'
_diffrn_measurement_method       '\w scans'
_diffrn_orient_matrix_type
'CrysAlisPro convention (1999,Acta A55,543-557)'
_diffrn_orient_matrix_UB_11      -0.0596441000
_diffrn_orient_matrix_UB_12      -0.0149614000
_diffrn_orient_matrix_UB_13      0.0424451000
_diffrn_orient_matrix_UB_21      -0.1284600000
_diffrn_orient_matrix_UB_22      0.0042747000
_diffrn_orient_matrix_UB_23      -0.0287427000
_diffrn_orient_matrix_UB_31      0.0050740000
_diffrn_orient_matrix_UB_32      -0.0680882000
_diffrn_orient_matrix_UB_33      -0.0111404000
_diffrn_radiation_monochromator  graphite
_diffrn_radiation_probe          x-ray
_diffrn_radiation_type           MoK\a
_diffrn_radiation_wavelength     0.71073
_diffrn_reflns_av_R_equivalents  0.0586
_diffrn_reflns_av_unetI/netI     0.0455
_diffrn_reflns_Laue_measured_fraction_full 0.353
_diffrn_reflns_Laue_measured_fraction_max 0.353
_diffrn_reflns_limit_h_max       5
_diffrn_reflns_limit_h_min       -5
_diffrn_reflns_limit_k_max       12
_diffrn_reflns_limit_k_min       -12
_diffrn_reflns_limit_l_max       9
_diffrn_reflns_limit_l_min       -9
_diffrn_reflns_number            3721
_diffrn_reflns_point_group_measured_fraction_full 0.353
_diffrn_reflns_point_group_measured_fraction_max 0.353
_diffrn_reflns_theta_full        25.043
_diffrn_reflns_theta_max         25.043
_diffrn_reflns_theta_min         4.014
_diffrn_source                   'fine-focus sealed X-ray tube'
_diffrn_source_type              'Enhance (Mo) X-ray Source'
_exptl_absorpt_coefficient_mu    0.142
_exptl_absorpt_correction_T_max  1.00000
_exptl_absorpt_correction_T_min  0.01527
_exptl_absorpt_correction_type   multi-scan
_exptl_absorpt_process_details
;
CrysAlisPro 1.171.39.46 (Rigaku Oxford Diffraction, 2018)
Empirical absorption correction using spherical harmonics,
 implemented in SCALE3 ABSPACK scaling algorithm.
;
_exptl_crystal_colour            colourless
_exptl_crystal_density_diffrn    1.655
_exptl_crystal_description       prism
_exptl_crystal_F_000             360
_refine_diff_density_max         0.131
_refine_diff_density_min         -0.160
_refine_diff_density_rms         0.036
_refine_ls_extinction_coef       0.026(8)
_refine_ls_extinction_expression Fc^*^=kFc[1+0.001xFc^2^\l^3^/sin(2\q)]^-1/4^
_refine_ls_extinction_method     'SHELXL-2018/3 (Sheldrick 2018)'
_refine_ls_goodness_of_fit_ref   1.153
_refine_ls_hydrogen_treatment    constr
_refine_ls_matrix_type           full
_refine_ls_number_parameters     110
_refine_ls_number_reflns         434
_refine_ls_number_restraints     0
_refine_ls_restrained_S_all      1.153
_refine_ls_R_factor_all          0.0839
_refine_ls_R_factor_gt           0.0485
_refine_ls_shift/su_max          0.000
_refine_ls_shift/su_mean         0.000
_refine_ls_structure_factor_coef Fsqd
_refine_ls_weighting_details
'w=1/[\s^2^(Fo^2^)+(0.0264P)^2^+0.9907P] where P=(Fo^2^+2Fc^2^)/3'
_refine_ls_weighting_scheme      calc
_refine_ls_wR_factor_gt          0.0921
_refine_ls_wR_factor_ref         0.1121
_reflns_Friedel_coverage         0.000
_reflns_number_gt                312
_reflns_number_total             434
_reflns_threshold_expression     'I > 2\s(I)'
_cod_data_source_file            xk5086sup1.cif
_cod_data_source_block           0.67GPa
_cod_original_cell_volume        695.0(6)
_cod_database_code               2108918
_shelx_shelxl_version_number     2018/3
_chemical_oxdiff_formula         C4N4NO3H7
_shelx_space_group_comment
;
The symmetry employed for this shelxl refinement is uniquely defined
by the following loop, which should always be used as a source of
symmetry information in preference to the above space-group names.
They are only intended as comments.
;
_reflns_odcompleteness_completeness 34.68
_reflns_odcompleteness_iscentric 1
_reflns_odcompleteness_theta     24.99
_olex2_refinement_description
;
1. Fixed Uiso
 At 1.2 times of:
  All C(H) groups, All N(H,H) groups
2.a Aromatic/amide H refined with riding coordinates:
 C1(H1), C2(H2), C3(H3)
2.b X=CH2 refined with riding coordinates:
 N3(H3A,H3B), N4(H4A,H4B)
;
_shelx_res_file
;
TITL instrument in P21/c #14
    instrument.res
    created by SHELXL-2018/3 at 17:15:46 on 14-Jul-2021
REM reset to P21/c #14
CELL 0.71073 5.060777 10.152647 13.677353 90 98.5379 90
ZERR 4 0.001188 0.001012 0.01034 0 0.0455 0
LATT 1
SYMM -X,0.5+Y,0.5-Z
SFAC C H N O
UNIT 16 28 20 12

L.S. 99
PLAN  20
BOND
fmap 2 53
ACTA
OMIT 3 7 5
OMIT 1 0 4
OMIT 1 7 7
OMIT 2 2 7
OMIT 1 2 5
REM <olex2.extras>
REM <HklSrc "%.\\instrument.hkl">
REM </olex2.extras>

WGHT    0.026400    0.990700
EXTI    0.025742
FVAR       2.32587
C1    1    0.101866    0.790719    0.538675    11.00000    0.04583    0.04125 =
         0.10877    0.00388   -0.01030    0.00253
AFIX  43
H1    2   -0.047704    0.830388    0.502871    11.00000   -1.20000
AFIX   0
C2    1    0.321801    0.860449    0.588546    11.00000    0.05697    0.04118 =
         0.05656   -0.00810    0.00215   -0.00385
AFIX  43
H2    2    0.343815    0.951386    0.591189    11.00000   -1.20000
AFIX   0
C3    1    0.493486    0.769497    0.631544    11.00000    0.05340    0.03765 =
         0.08730   -0.00435   -0.01702   -0.00766
AFIX  43
H3    2    0.656641    0.784537    0.671079    11.00000   -1.20000
AFIX   0
C4    1    0.476695    0.524459    0.629706    11.00000    0.02947    0.04057 =
         0.05907    0.00563    0.00968   -0.00440
N1    3    0.378472    0.649481    0.605104    11.00000    0.03703    0.03517 =
         0.07590    0.00156   -0.01190   -0.00231
N2    3    0.133512    0.662696    0.548844    11.00000    0.03667    0.04059 =
         0.08455   -0.00010   -0.01216    0.00136
N3    3    0.337331    0.424119    0.590427    11.00000    0.05223    0.03436 =
         0.07537   -0.00005   -0.01372    0.00080
AFIX  93
H3A   2    0.398670    0.345445    0.600063    11.00000   -1.20000
H3B   2    0.184372    0.436830    0.554968    11.00000   -1.20000
AFIX   0
N4    3    0.708666    0.510774    0.683830    11.00000    0.04594    0.05160 =
         0.06831    0.00101   -0.01654    0.00226
AFIX  93
H4A   2    0.776102    0.433514    0.694999    11.00000   -1.20000
H4B   2    0.794805    0.578975    0.708493    11.00000   -1.20000
AFIX   0
N5    3    0.245729    0.647498    0.825739    11.00000    0.06065    0.04375 =
         0.10806   -0.00614   -0.02984    0.00518
O1    4    0.486372    0.673776    0.855985    11.00000    0.04091    0.04579 =
         0.12771   -0.00455   -0.02735   -0.00397
O2    4    0.165716    0.532682    0.825349    11.00000    0.05791    0.04470 =
         0.13850    0.00043   -0.02092   -0.01400
O3    4    0.084396    0.737413    0.794061    11.00000    0.04915    0.05844 =
         0.07828    0.01062   -0.00460    0.00814
HKLF 4




REM  instrument in P21/c #14
REM wR2 = 0.1121, GooF = S = 1.153, Restrained GooF = 1.153 for all data
REM R1 = 0.0485 for 312 Fo > 4sig(Fo) and 0.0839 for all 434 data
REM 110 parameters refined using 0 restraints

END

WGHT      0.0262      0.9927

REM Highest difference peak  0.131,  deepest hole -0.160,  1-sigma level  0.036
Q1    1   0.3572  0.7597  0.8750  11.00000  0.05    0.13
Q2    1   0.0220  0.7210  0.6631  11.00000  0.05    0.11
Q3    1   0.6365  0.3797  0.6230  11.00000  0.05    0.11
Q4    1   0.3425  0.9180  0.5387  11.00000  0.05    0.11
Q5    1   0.5307  0.8158  0.7756  11.00000  0.05    0.11
Q6    1  -0.1405  0.6743  0.7999  11.00000  0.05    0.11
Q7    1   0.7006  0.4333  0.6991  11.00000  0.05    0.11
Q8    1   0.2303  0.8420  0.4949  11.00000  0.05    0.10
Q9    1   0.6836  0.7180  0.7223  11.00000  0.05    0.10
Q10   1   0.5861  0.6438  0.6631  11.00000  0.05    0.10
Q11   1   0.4548  0.9962  0.5531  11.00000  0.05    0.10
Q12   1   0.0978  0.6542  0.4412  11.00000  0.05    0.10
Q13   1   0.2502  0.6577  0.5744  11.00000  0.05    0.09
Q14   1   0.3356  0.5974  0.6599  11.00000  0.05    0.09
Q15   1  -0.1325  0.7218  0.5390  11.00000  0.05    0.09
Q16   1   0.3067  1.0634  0.6593  11.00000  0.05    0.09
Q17   1   0.0644  0.7951  0.4744  11.00000  0.05    0.09
Q18   1   0.9215  0.6627  0.6428  11.00000  0.05    0.09
Q19   1   0.4946  0.8207  0.5200  11.00000  0.05    0.09
Q20   1   0.2288  0.9803  0.4847  11.00000  0.05    0.09
;
_shelx_res_checksum              21448
_shelx_hkl_file
;
   0  -2   0 3159.72 108.479   3
   0  -2   0 3209.48 137.491   8
   0   2   0 3129.01 133.204   9
   0  -2   0 3156.77 123.788   5
   0  -2   0 3137.19 129.803   6
   0   2   0 3160.64 121.874  12
   0  -2   0 3205.99 136.058   7
   0  -2  -1 11580.9 161.560   3
   0  -2  -1 11663.0 233.849   6
   0  -2  -1 11723.0 209.767   4
   0   2   1 11644.0 169.876  14
   0  -2  -1 11736.6 259.273   7
   0   2   1 11727.1 235.098  11
   0   2   1 11638.8 204.739  13
   0  -2  -1 11789.6 260.470   8
   0  -2  -1 11680.1 252.258   5
   0  -2  -2 1884.69 113.825   5
   0  -2  -2 1927.38 98.6166   6
   0  -2  -2 1774.76 110.896   4
   0   2   2 2032.16 119.388  10
   0  -2  -2 1910.44 112.440   7
   0  -2  -2 1931.23 113.369   8
   0  -3   0 3.43454 10.5908   7
   0   3   0-0.94925 3.08378   9
   0  -3   0-2.64991 6.75082   4
   0  -3   0 9.74469 10.8482   8
   0   3   0 3.06754 10.9382  12
   0  -3   0-5.62063 9.82806   5
   0  -3   0 6.52444 6.80383   6
   0  -3   1 3832.70 363.194   6
   0   3  -1 3651.68 197.361   9
   0  -3   1 3834.40 228.419   8
   0  -3  -1 4021.00 172.010   6
   0  -3  -1 4011.03 125.130   3
   0  -3  -1 3996.12 139.482   4
   0  -3  -1 4035.78 184.715   8
   0   3   1 4058.29 141.634  13
   0  -3  -1 3978.23 183.165   7
   0  -3  -1 3979.31 175.254   5
   0   3   1 3906.05 122.253  14
   0   3   1 3953.03 175.689  12
   0  -3   1 3861.72 227.431   7
   0  -3  -2 1371.05 53.1355  15
   0  -3  -2 1316.70 108.785   5
   0   3   2 1358.35 55.2450  16
   0   3   2 1394.41 98.7910  11
   0  -3  -2 1362.03 114.310   8
   0  -3  -2 1370.74 113.502   7
   0  -3  -2 1353.74 55.7140   2
   0  -3  -2 1407.97 101.509   6
   0  -3  -2 1367.76 67.2887   3
   0   3   2 1422.49 56.5657   1
   0  -3  -2 1340.13 93.8545   4
   0   3   2 1414.42 112.008  10
   0  -3  -3 10176.9 319.963   7
   0  -3  -3 10210.2 281.816   6
   0  -3  -3 10347.4 327.002   8
   0  -3  -3 10398.6 342.790   5
   0   3   3 10304.6 330.796  10
   0  -4   0 969.232 103.051   6
   0   4   0 1067.13 102.620  12
   0  -4   0 1025.02 100.605   5
   0  -4   0 988.280 109.532   8
   0  -4   0 1001.75 76.6278   4
   0   4   0 992.077 106.096   9
   0  -4   0 1014.52 109.991   7
   0  -4  -1 993.449 109.162   8
   0   4   1 1064.91 111.864   9
   0  -4   1 1053.05 126.359   5
   0  -4   1 1048.02 130.849   8
   0   4   1 1067.28 104.527  12
   0   4  -1 1082.27 123.288   9
   0  -4  -1 1072.28 107.560   6
   0  -4   1 1003.65 187.232   6
   0   4   1 1012.56 74.4126  14
   0  -4  -1 978.916 73.6453   3
   0  -4  -1 1047.65 109.951   7
   0   4   1 1049.26 81.0442  13
   0  -4  -1 1037.17 103.169   5
   0  -4  -1 1016.89 80.4706   4
   0  -4   1 1089.79 132.709   7
   0  -4  -2 7301.77 296.627   7
   0  -4  -2 7470.11 242.667   4
   0  -4  -2 7286.50 289.162   5
   0  -4  -2 7303.19 184.474   3
   0  -4  -2 7524.65 302.391   8
   0   4   2 7434.92 298.928  10
   0   4   2 7378.75 232.591  13
   0   4   2 7418.15 266.300  11
   0  -4  -2 7360.18 270.033   6
   0  -4  -3 1850.31 78.0143  15
   0  -4  -3 1735.21 143.393   4
   0  -4  -3 1708.76 146.986   7
   0  -4  -3 1818.17 153.520   8
   0  -4  -3 1756.76 88.9695   3
   0   4   3 1808.53 81.8988  16
   0  -4  -3 1718.05 146.400   5
   0   4   3 1814.32 153.840  10
   0  -4  -3 1699.66 127.954   6
   0  -4  -4 612.437 83.4246   6
   0  -4  -4 539.388 86.2088   7
   0  -4  -4 559.905 92.3161   8
   0  -4  -4 635.599 107.587   5
   0   5   0 36.2977 35.7781   9
   0  -5   0-9.16549 15.6065   6
   0  -5   0 22.5320 26.4524   8
   0  -5   0 42.6853 29.3041   5
   0   5   0 10.0252 5.18733  12
   0  -5   0 42.2292 19.8721   4
   0  -5   0 17.5861 33.1432   7
   0  -5   1 1620.75 181.482   7
   0  -5  -1 1619.83 145.127   5
   0  -5   1 1685.92 187.795   8
   0  -5  -1 1695.98 113.068   4
   0  -5   1 1667.65 170.925   5
   0   5   1 1462.63 118.076  13
   0   5  -1 1742.60 171.133   9
   0   5   1 1643.50 159.030   9
   0  -5  -1 1613.72 155.587   7
   0  -5  -1 1682.08 148.818   6
   0  -5   1 1680.05 355.590   6
   0  -5  -1 1621.30 157.724   8
   0   5   1 1636.12 108.266  14
   0   5   1 1680.24 146.803  12
   0   5   2 647.353 97.1561  10
   0  -5  -2 697.201 100.878   7
   0  -5  -2 719.936 101.864   5
   0  -5  -2 791.958 111.229   8
   0   5   2 704.926 91.8585  11
   0  -5  -2 712.660 79.9267   4
   0   5   2 634.944 72.8177  13
   0   5   2 670.202 95.9493  12
   0  -5  -2 702.975 93.6228   6
   0  -5  -2 644.086 60.3234   3
   0  -5  -3 157.175 45.8761   4
   0  -5  -3 115.130 21.3673   3
   0   5   3 126.765 46.9156  10
   0   5   3 123.672 42.4493  11
   0  -5  -3 85.1058 39.2288   8
   0  -5  -3 118.113 39.2378   6
   0   5   3 102.288 31.1826  13
   0  -5  -3 138.683 45.5980   7
   0  -5  -3 99.9001 37.1840   5
   0   5   4 2483.87 107.475  16
   0  -5  -4 2597.18 121.739   3
   0  -5  -4 2421.33 202.727   8
   0   5   4 2468.61 207.653  10
   0  -5  -4 2413.74 174.308   6
   0  -5  -4 2440.51 102.656  15
   0  -5  -4 2671.19 219.564   5
   0  -5  -4 2544.03 204.485   7
   0  -5  -5-19.1986 23.6552   6
   0  -5  -5 26.5902 29.1415   5
   0  -5  -5 32.9757 36.7852   7
   0  -6   0 5416.37 217.565   4
   0   6   0 5264.48 231.166  14
   0  -6   0 5171.26 279.987   5
   0  -6   0 5138.94 306.359   7
   0  -6   0 5109.22 308.790   8
   0   6   0 5338.07 314.392   9
   0  -6   0 5691.59 332.759   6
   0  -6  -1 539.444 97.8146   7
   0   6   1 608.189 106.177   9
   0  -6  -1 577.311 95.0862   6
   0  -6  -1 522.948 98.8039   8
   0  -6   1 451.010 108.943   8
   0   6   1 561.844 96.9424  12
   0  -6   1 426.926 99.5299   5
   0  -6  -1 512.692 89.3728   5
   0  -6  -1 543.546 69.5556   4
   0   6   1 548.766 67.8840  14
   0  -6   1 544.021 126.709   7
   0   6   2 89.1423 40.2759  11
   0   6   2 13.1259 6.89528  10
   0  -6  -2 42.8994 25.2968   8
   0  -6  -2 78.2299 33.5590   6
   0   6   2 66.9878 27.3162  13
   0   6   2 33.5769 20.0842   9
   0  -6  -2 47.0672 18.1653   5
   0  -6  -2 31.7018 11.5039   4
   0  -6  -2 19.7108 22.1471   7
   0   6   2 67.3554 37.6861  12
   0   6   2 54.6476 27.4682  14
   0  -6  -3 763.325 123.100   8
   0   6   3 820.598 124.434  10
   0   6   3 746.627 104.082  11
   0  -6  -3 713.511 111.738   5
   0   6   3 744.387 114.456  12
   0  -6  -3 732.213 70.7164   3
   0  -6  -3 713.075 103.896   6
   0   6   3 777.908 95.7051  13
   0  -6  -3 820.006 102.629   4
   0  -6  -3 745.857 119.929   7
   0  -6  -4 1032.05 81.1304   3
   0  -6  -4 945.169 131.915   7
   0   6   4 1076.96 123.982  13
   0  -6  -4 1058.43 145.562   8
   0  -6  -4 1045.39 124.002   6
   0   6   4 1101.57 147.777  10
   0  -6  -4 1049.57 144.128   5
   0   6   5 299.855 75.3176  10
   0  -6  -5 468.123 101.882   8
   0  -6  -5 318.761 70.5050   6
   0  -6  -5 409.765 111.276   5
   0   6   5 301.712 63.4869  13
   0  -6  -5 390.394 52.8416   3
   0  -6  -5 382.393 88.4349   7
   0  -7   0 23.2279 32.8709   8
   0   7   0 8.28314 8.18212   9
   0  -7   0-14.8178 27.9848   6
   0  -7   0-1.04327 7.30648   7
   0   7   0-4.68881 12.1303  14
   0  -7   0-49.6021 34.7814   5
   0  -7   0 22.6948 14.2400   4
   0  -7  -1 413.029 96.3668   8
   0  -7   1 225.086 72.5621   5
   0  -7  -1 307.237 77.7192   6
   0  -7   1 160.935 95.7092   8
   0  -7  -1 379.701 85.5790   5
   0   7   1 337.516 75.3100  11
   0   7   1 347.181 79.8055  12
   0  -7  -1 403.621 65.6166   4
   0  -7  -1 376.616 98.2939   7
   0   7   1 389.047 92.7986   9
   0   7   1 346.965 60.6941  14
   0   7   2 57.9376 31.3616  12
   0  -7  -2 20.5685 20.9814   6
   0   7   2-25.9481 39.5857  10
   0   7   2 81.2582 47.0157   9
   0  -7  -2 18.0338 39.3218   7
   0  -7  -2 2.49995 11.9205   8
   0   7   2 26.0296 26.7518  11
   0  -7  -2 63.6763 35.9925   5
   0  -7  -2 23.1977 16.8416   4
   0   7   3 13.9623 17.2559  13
   0  -7  -3 4.43412 15.7426   5
   0   7   3 0.73481 24.4976  11
   0   7   3-28.5246 45.7104  10
   0   7   3-1.23781 17.6066  12
   0  -7  -3-21.5545 10.9678   4
   0  -7  -3-19.2166 19.6603   7
   0  -7  -3-68.9369 47.2044   8
   0   7   3-33.3841 25.0429   9
   0  -7  -3-27.5344 11.5039   6
   0  -7  -4 528.211 109.009   8
   0   7   4 635.500 98.8637  13
   0   7   4 582.427 114.180  10
   0   7   4 617.851 118.501  12
   0  -7  -4 574.280 102.250   6
   0  -7  -4 628.483 121.392   7
   0  -7  -4 625.175 117.842   5
   0  -7  -5 170.769 72.3561   5
   0   7   5 155.677 71.5605  10
   0   7   5 125.770 46.4806  13
   0  -7  -5 172.786 56.4272   7
   0  -7  -5 140.467 55.8296   6
   0  -7  -5 121.234 47.9530   8
   0  -7  -6 205.255 51.3556   7
   0   8   0 163.267 49.1441  14
   0  -8   0 135.143 45.0281   8
   0  -8   0 208.817 78.9504   5
   0   8   0 59.4108 20.4631   9
   0  -8   0 103.583 59.4997   7
   0   8   1 3657.33 286.166  11
   0  -8  -1 3490.84 300.906   7
   0  -8  -1 3636.81 311.318   8
   0  -8  -1 3782.22 221.816   4
   0  -8  -1 3511.35 278.058   5
   0  -8  -1 3841.53 327.426   6
   0   8   1 3647.10 311.303   9
   0   8   2 509.381 110.119   9
   0  -8  -2 576.312 126.154   8
   0  -8  -2 555.263 121.691   7
   0  -8  -2 548.314 110.592   5
   0   8   2 594.725 116.249  11
   0   8   2 603.891 117.740  10
   0   8   2 640.195 116.421  12
   0  -8  -2 526.442 105.005   6
   0  -8  -2 583.681 89.4772   4
   0  -8  -3 1821.74 221.496   7
   0  -8  -3 1826.05 197.250   6
   0   8   3 1801.01 201.748  12
   0   8   3 1867.87 225.898   9
   0   8   3 1769.75 193.036  11
   0  -8  -3 1709.99 199.308   4
   0   8   3 1868.30 219.909  10
   0  -8  -3 1737.65 202.932   5
   0  -8  -3 1870.38 231.257   8
   0  -8  -4 71.1696 54.5027   8
   0   8   4 19.3408 45.5432  12
   0  -8  -4 13.2202 11.5021   6
   0  -8  -4 52.3746 48.9705   5
   0   8   4 22.4622 30.8553  10
   0  -8  -4 90.9013 72.0989   7
   0   8   4-0.28111 38.3741   9
   0   8   5 546.610 126.713  10
   0  -8  -5 514.794 119.208   7
   0   8   5 600.193 108.992  13
   0   8   5 522.551 114.338  12
   0  -8  -5 903.970 166.718   6
   0  -8  -5 654.784 147.076   5
   0  -8  -5 593.171 132.232   8
   0   8   6-42.0207 30.9425  12
   0  -8  -6 131.529 94.0232   6
   0  -8  -6 105.827 58.4473   8
   0  -9   0-9.18047 48.9960   7
   0  -9   0 103.764 42.9878   8
   0  -9   0-69.4003 74.3297   5
   0  -9  -1 281.473 90.2520   5
   0  -9  -1 319.714 108.318   7
   0   9   1 331.840 90.9967  11
   0   9   1 344.148 102.952   9
   0  -9  -1 301.377 112.468   8
   0  -9  -1 97.1991 75.4532   6
   0  -9  -2 593.922 122.873   5
   0  -9  -2 739.954 154.524   7
   0   9   2 635.421 143.104   9
   0   9   2 564.380 111.003  12
   0   9   2 633.721 130.765  10
   0   9   2 675.681 131.527  11
   0  -9  -2 723.927 152.142   6
   0  -9  -2 615.859 154.036   8
   0  -9  -3 481.611 135.179   8
   0  -9  -3 470.099 114.530   6
   0  -9  -3 419.485 117.078   7
   0  -9  -3 427.072 106.010   5
   0   9   3 430.680 106.290  11
   0   9   3 367.039 117.022  10
   0   9   3 424.336 115.956   9
   0   9   3 495.391 115.409  12
   0   9   4 884.666 165.435  10
   0  -9  -4 845.163 154.316   6
   0  -9  -4 859.534 155.236   5
   0   9   4 743.859 145.470  12
   0  -9  -4 812.368 159.990   7
   0   9   4 613.178 144.253   9
   0  -9  -4 851.304 168.183   8
   0  -9  -5 127.785 72.7126   8
   0  -9  -5 139.978 66.9491   6
   0   9   5 121.362 51.2136   9
   0   9   5 145.662 75.2871  10
   0  -9  -5 196.880 86.6881   5
   0   9   5 35.2691 57.8926  12
   0  -9  -5 108.045 66.0933   7
   0   9   6 499.713 113.576  12
   0  -9  -6 843.303 178.056   7
   0   9   6 370.224 97.8564   9
   0  -9  -6 626.286 153.742   8
   0 -10  -1 152.348 105.928   8
   0  10   1 118.210 74.4021  11
   0  10   1 135.749 79.5059   9
   0  10   1 89.7642 84.1539  10
   0 -10  -1 111.656 72.3935   7
   0 -10  -1 199.038 126.957   5
   0 -10  -2 16.0183 33.3665   8
   0  10   2 7.33401 19.6829  10
   0  10   2 3.68218 39.6370   9
   0 -10  -2-40.3166 37.9054   7
   0  10   2-29.4825 55.4256  11
   0 -10  -2 9.40356 30.2845   5
   0  10   3 17.9931 26.6896  10
   0 -10  -3 132.117 67.5133   5
   0 -10  -3 134.064 86.1664   7
   0  10   3 152.537 58.3353   9
   0 -10  -3 236.251 90.7766   8
   0  10   3 169.537 78.3308  12
   0 -10  -3 281.822 111.073   6
   0  10   4 224.943 77.5410   9
   0  10   4 323.686 115.321  10
   0  10   4 359.567 117.984  12
   0 -10  -4 323.493 117.512   8
   0 -10  -4 279.144 97.2267   6
   0 -10  -4 232.924 103.124   7
   0 -10  -4 322.667 117.380   5
   0  10   5-78.0257 69.4564  10
   0 -10  -5-15.7501 52.9693   7
   0 -10  -5 88.7546 61.7640   6
   0  10   5 38.7760 72.6626  12
   0  10   5-8.23168 18.1182   9
   0 -10  -5 49.4658 52.7708   8
   0 -10  -5-73.0455 95.0058   5
   0  10   6 48.3180 41.1769  12
   0 -10  -6-43.9407 26.7890   8
   0 -10  -6-54.7591 86.1327   7
   0  10   6 6.25427 20.4634   9
   0 -11  -1 0.92657 116.456   8
   0  11   1 135.291 86.5742  10
   0 -11  -2 69.3882 90.9244   5
   0  11   2 219.242 102.063  10
   0  11   2 118.877 75.1340   9
   0 -11  -2 262.211 119.793   8
   0 -11  -2 284.881 103.936   7
   0  11   2 75.7691 38.0684  11
   0  11   3 108.298 76.5967   9
   0 -11  -3 151.000 62.5891   5
   0  11   3 45.1695 56.3328  11
   0 -11  -3 126.407 22.4003   7
   0 -11  -3 180.819 72.2523   8
   0 -11  -4 30.4766 48.7209   8
   0  11   4 151.518 78.8409  12
   0 -11  -4 23.4685 34.2220   5
   0  11   4 105.294 76.2079   9
   0  11   4 23.0093 20.9455  10
   0 -11  -4 66.4803 37.3740   7
   0 -11  -4 197.977 74.1899   6
   0 -11  -5 88.9370 82.7340   5
   0  11   5-99.0041 70.5731  12
   0 -11  -5 3.04930 66.3829   7
   0 -11  -5 56.6377 62.0733   8
   0  11   5 35.0098 44.8580   9
   0  11   5-36.8650 14.7193  10
   0  11   6-48.2098 51.9216  12
   0  11   6 46.6577 49.9210   9
   0 -11  -6 42.8880 61.5292   8
   0 -11  -6 53.7257 49.3900   7
   0 -12  -2 112.383 107.983   8
   0  12   2-21.8774 40.5373  10
  -1   0   0 8340.21 227.067  15
  -1   0   0 8034.37 242.210  14
   1   0   0 8509.42 230.291  16
   1   0   1 7.62662 2.91987  16
   1   0   1 11.6788 10.8171   3
   1   0   1 1.82481 1.59943  12
   1   0   1 8.32228 9.65403  13
  -1   0  -1-0.27690 5.64897   4
   1   0   1 17.3895 7.88879   6
  -1   0  -1 16.6659 11.8532  14
  -1   0  -1 18.2075 8.65215   5
  -1   0  -1 27.7516 10.2390  11
  -1   0  -1 11.1714 8.40675  15
  -1   0  -1 1.58884 2.86607   1
   1   0   1 2.35212 2.62386   2
   1   0   2 68.1842 22.3214   3
  -1   0  -2 64.1702 20.8874  15
   1   0   2 68.8791 22.3591  16
  -1   0  -2 71.6128 21.2132   1
  -1   0  -2 78.2134 17.8162   5
   1   0   2 77.9735 24.8809   2
  -1   0  -2 82.4361 24.6160   4
   1   0   2 79.6111 19.0022   6
   1   0   3-9.14492 16.5708   2
   1   0   3-4.46383 4.72943  16
  -1   0  -3-17.4305 13.6002   1
  -1   0  -3-7.43716 10.6824  15
  -1   0  -3 14.5857 10.7022   4
   1   0   4 1589.58 311.593  16
  -1   0  -4 1942.62 184.625  15
  -1   1   0 27756.0 397.547  15
  -1   1   0 27438.5 419.497  14
   1  -1   0 28109.5 421.003   3
   1  -1   0 27738.4 394.008   2
  -1   1   0 27806.9 399.095  11
   1  -1   0 27775.4 383.437   6
   1  -1   0 27640.1 398.128  16
  -1   1   0 27889.7 390.565   1
   1  -1   1 8158.29 227.770  16
  -1  -1  -1 8401.16 241.680   4
  -1   1  -1 8091.67 233.662  14
  -1   1  -1 8230.90 211.502  11
   1   1   1 8141.39 175.983   3
  -1   1  -1 8182.14 139.153   7
   1   1   1 8141.74 236.587  13
  -1  -1  -1 8286.84 220.654   5
   1  -1   1 8116.62 225.970   2
  -1  -1  -1 8118.04 227.011   1
  -1   1  -1 8175.01 227.707  15
   1   1   1 8383.01 227.107  16
   1   1   1 8335.25 224.168  12
   1   1   1 8180.24 226.072   2
   1  -1   1 8177.55 142.644   8
   1  -1   1 8245.07 186.842  13
  -1   1  -1 8334.12 187.521   4
   1  -1   1 8168.65 207.924   6
  -1   1  -1 8091.06 140.830  10
  -1  -1  -1 8175.77 226.383  15
  -1   1  -1 8160.06 228.453   1
   1  -1   1 8210.14 232.686   3
   1  -1   1 8159.38 141.150   7
  -1   1  -1 8299.11 141.997   8
  -1  -1  -1 8146.83 169.256   8
  -1  -1  -1 8277.84 183.453  14
  -1  -1  -2 447.097 53.4234   5
   1   1   2 445.757 38.3534  10
  -1   1  -2 436.075 51.5811   4
  -1  -1  -2 413.773 44.5858  14
   1  -1   2 396.066 57.2345  16
  -1  -1  -2 453.819 39.6178   8
  -1   1  -2 415.112 32.2324   7
   1  -1   2 394.069 56.5847   2
   1  -1   2 412.181 31.5826   5
  -1  -1  -2 438.477 40.4219   7
   1   1   2 440.527 57.0960  16
  -1   1  -2 388.281 57.6315   1
   1  -1   2 451.575 60.6470   3
  -1   1  -2 418.713 58.6741  15
   1  -1   2 407.197 49.4480   6
  -1  -1  -2 415.457 58.2164   4
   1  -1   2 362.524 30.4190   8
  -1  -1  -3 6.73249 16.1806   1
   1  -1   3-26.6260 13.8371   3
  -1  -1  -3 12.2535 11.0003   4
   1  -1   3 9.53937 16.5127   2
  -1   1  -3 15.0698 15.1669  15
   1  -1   3-11.6981 2.95821  16
  -1  -1  -3-12.7510 9.82122   7
  -1  -1  -3-5.08716 2.21302  15
  -1  -1  -3 18.0706 11.6139   5
   1   1   3 2.19609 9.99714  16
   1   1   3 3.12114 11.3637   2
  -1   1  -3 26.7384 13.9869   1
   1   1   4 2256.89 176.710  16
  -1  -1  -4 2392.67 180.075   4
  -1  -1  -4 1966.98 188.594   1
   1   1   4 1718.00 205.123   2
  -1  -1  -4 2286.91 165.544  15
  -1   2   1 1694.81 123.717  14
   1  -2  -1 1688.39 110.582   7
  -1   2   1 1585.29 117.568  11
   1  -2  -1 1600.31 114.534   6
   1  -2  -1 1634.59 113.042   3
  -1   2   0 1664.75 99.0854  10
  -1   2   0 1640.46 113.389  14
  -1   2   0 1650.07 63.5097   5
   1  -2   0 1686.96 97.0099  16
   1  -2   0 1704.54 98.1281   7
   1  -2   0 1616.63 109.379   3
   1  -2   0 1643.55 112.300   6
   1  -2   0 1607.87 93.5844   2
  -1   2   0 1660.42 97.6020  15
  -1   2   0 1722.02 97.4470   1
  -1   2   0 1583.23 110.473  11
   1  -2   0 1657.55 99.4458   8
  -1  -2  -1 3413.99 170.631   4
   1  -2   1 3664.97 171.044   6
  -1  -2  -1 3611.67 160.625   7
   1   2   1 3445.10 170.665  13
  -1  -2  -1 3446.76 147.356   1
  -1  -2  -1 3462.71 170.347   5
  -1   2  -1 3574.25 138.491   9
   1  -2   1 3465.62 135.082   8
  -1   2  -1 3537.18 172.776  14
  -1   2  -1 3551.93 153.303  15
   1  -2   1 3413.95 169.667   3
  -1  -2  -1 3499.81 151.299  15
   1   2   1 3498.45 146.741   2
   1  -2   1 3506.71 153.686  16
  -1   2  -1 3496.50 154.702   1
   1   2   1 3332.63 144.261  16
   1   2   1 3478.34 156.284   9
   1   2   1 3373.25 166.441  12
  -1  -2  -1 3422.55 149.393   8
   1  -2   1 3572.12 104.638  13
   1  -2   1 3526.00 155.720   2
   1  -2   1 3658.04 140.085   7
  -1  -2  -2 597.759 59.9662   8
  -1  -2  -2 547.759 71.1544   4
   1   2   2 600.123 63.7707   9
   1   2   2 599.208 72.8326  12
   1  -2   2 573.659 70.1272  16
  -1  -2  -2 628.651 66.8997  15
   1   2   2 547.160 39.3773   3
  -1  -2  -2 578.535 70.7119   5
  -1  -2  -2 615.064 62.7519   7
   1   2   2 616.088 66.5238   2
   1  -2   2 552.803 74.9886   3
   1   2   2 560.768 71.7862  13
   1  -2   2 574.800 71.2298   6
  -1  -2  -2 605.197 66.4695   1
   1  -2   2 567.712 55.4076   8
  -1   2  -2 617.752 70.7712  15
   1   2   2 565.898 63.1761  16
  -1   2  -2 618.519 73.6118   1
  -1  -2  -2 596.168 40.7347  14
   1  -2   2 593.613 71.7865   2
  -1  -2  -3 3232.96 145.855   7
  -1  -2  -3 3212.99 163.422  15
   1  -2   3 2951.93 218.122   3
  -1  -2  -3 3375.92 175.551   1
   1   2   3 3212.56 185.240  13
  -1  -2  -3 3228.88 146.367   8
   1  -2   3 3372.89 280.001  16
   1   2   3 3334.29 167.139  16
  -1  -2  -3 3270.33 179.969   5
  -1   2  -3 3599.64 233.149  15
   1   2   3 3360.35 151.139  10
   1   2   3 3366.63 170.981   2
  -1  -2  -3 3225.75 185.055   4
  -1  -2  -4 6436.95 288.193   4
  -1  -2  -4 6153.97 311.814   1
  -1  -2  -4 6715.57 231.129   7
  -1  -2  -4 6523.89 262.715  15
  -1  -2  -4 6692.53 279.324   5
   1   2   4 6595.55 263.244  16
   1   2   4 6781.86 355.579   2
   1   2   5 301.376 83.9490  16
  -1  -2  -5 774.096 112.959  15
   1  -3  -2 656.561 88.5672   6
   1  -3  -2 560.935 78.9261   7
   1  -3  -1 11803.2 328.775   7
   1  -3  -1 12073.1 246.862   2
   1  -3  -1 11592.1 315.067   3
   1  -3  -1 11754.9 332.866   8
   1  -3  -1 11923.6 347.933   6
  -1   3   1 11984.2 244.169   1
  -1   3   1 12285.4 342.923  10
  -1   3   1 11878.5 326.358  14
  -1   3   1 11809.5 348.735  11
   1  -3   0 213.722 42.5452   8
  -1   3   0 219.866 38.3347  15
   1  -3   0 169.616 36.3782   3
   1  -3   0 177.654 30.8577   2
  -1   3   0 179.689 44.7399  11
   1  -3   0 175.276 33.7049   7
   1  -3   0 200.267 29.6326   5
  -1   3   0 227.111 35.7926   1
   1  -3   0 187.614 42.6197   6
   1  -3   0 209.068 34.9773  16
  -1   3   0 216.518 42.9711  10
  -1  -3   0 171.169 67.5571   5
  -1   3   0 194.778 42.1784  14
   1  -3   1 41.1289 12.5623   5
   1  -3   1 32.8666 18.6754   3
   1  -3   1 28.8370 15.7580   8
  -1   3  -1-16.2597 17.1832   1
   1   3   1 43.1033 22.4007  13
   1  -3   1 33.5526 16.8570   2
   1  -3   1 36.7036 20.3892   6
   1  -3   1 27.3953 13.0134  16
  -1   3  -1 16.8363 10.2099  15
   1   3   1 26.6705 22.3887  12
  -1   3  -1 14.1940 7.50885   9
  -1  -3  -1 10.6583 6.10718   4
  -1  -3  -1 34.1105 15.2357   1
  -1   3  -1 30.6951 17.4807  14
   1  -3   1 20.1603 9.69178   7
  -1  -3  -1 20.7267 18.3136   5
  -1  -3  -1 22.8760 19.1952   7
  -1  -3  -1 41.8398 19.7389   8
   1   3   1 14.8539 10.5232   2
   1   3   1 12.2623 4.86772   9
  -1  -3  -2 13.4283 12.4029   7
  -1  -3  -2-9.03726 13.8775   1
  -1  -3  -2-10.6947 12.8684   4
   1  -3   2 5.94022 11.1933   6
   1  -3   2 3.28345 11.0999   8
   1  -3   2 15.7513 23.6377   2
   1   3   2 0.82937 6.58611  13
   1   3   2-6.57114 1.02991  11
   1  -3   2 5.38176 19.1524   3
  -1  -3  -2-7.08797 12.1277   8
   1  -3   2-7.91492 6.07521  16
   1   3   2 8.47254 12.2854   2
  -1   3  -2-1.06593 14.9011  15
  -1   3  -2-8.41146 5.41342   1
  -1  -3  -2 10.7000 15.7794  15
   1   3   2 18.7155 12.5096  16
   1   3   2 1.94184 11.3317   9
  -1  -3  -2 37.5977 18.5779   5
   1   3   2 8.25996 5.60055  12
   1   3   3 4235.09 188.044   2
  -1  -3  -3 4369.14 201.751   7
   1   3   3 4359.94 227.661  13
   1   3   3 4371.44 188.103  16
   1  -3   3 3966.42 472.173  16
  -1   3  -3 4151.19 312.007  15
  -1  -3  -3 4463.23 190.220  15
  -1  -3  -3 4393.02 231.133   5
  -1  -3  -3 4076.71 220.269   4
   1   3   3 4527.65 204.658  10
  -1  -3  -3 4281.47 131.847   6
  -1  -3  -3 4339.25 206.284   8
  -1  -3  -3 4312.62 195.398   1
   1   3   4 1663.48 128.052  16
  -1  -3  -4 1663.49 128.741   7
   1   3   4 1805.76 134.128  10
  -1  -3  -4 1761.89 155.371   5
  -1  -3  -4 1632.85 126.122  15
  -1  -3  -4 1669.25 83.8788   6
  -1  -3  -4 1789.26 136.509   8
   1   3   4 1692.98 181.241   2
  -1  -3  -4 1644.21 161.760   1
  -1  -3  -4 1684.68 153.091   4
  -1  -3  -5 1.57762 8.31329   6
   1   3   5 8.93345 6.41778  16
  -1  -3  -5 27.1858 11.5588   5
  -1  -3  -5 46.0729 27.1580  15
  -1  -3  -5 41.5780 29.6400   7
  -1  -3  -5 15.4962 10.8191   4
   1  -4  -3 210.193 68.6280   7
   1  -4  -3 177.194 60.9958   6
   1  -4  -2 8394.94 327.771   7
   1  -4  -2 8382.54 328.408   6
  -1   4   2 7933.93 327.650  10
  -1   4   2 8324.88 333.974  11
   1  -4  -2 8170.22 283.723   3
   1  -4  -2 8380.75 333.430   8
  -1   4   1 3989.24 135.098   1
   1  -4  -1 4025.64 215.805   7
   1  -4  -1 4229.97 195.194   5
  -1   4   1 4113.76 207.910  14
   1  -4  -1 3949.86 223.616   6
  -1   4   1 3923.75 217.350  10
  -1   4   1 3959.11 222.194  11
   1  -4  -1 4064.72 226.032   8
   1  -4  -1 4156.35 140.769   2
   1  -4  -1 3958.17 197.947   3
  -1   4   0 1370.44 132.632  11
  -1   4   0 1306.09 86.6303   1
  -1   4   0 1335.15 87.2928  15
  -1   4   0 1338.32 95.2258  12
   1  -4   0 1391.03 135.918   6
   1  -4   0 1346.79 87.2381  16
   1  -4   0 1336.70 122.505   3
   1  -4   0 1298.56 92.9246   5
   1  -4   0 1288.12 119.742   7
   1  -4   0 1316.77 86.7514   2
  -1  -4   0 1393.17 192.916   5
  -1   4   0 1383.84 123.580  14
   1  -4   0 1334.47 126.125   8
  -1   4  -1 272.388 45.1757  15
   1  -4   1 251.360 39.0758   5
  -1  -4  -1 225.923 34.5967   1
  -1   4  -1 257.608 52.6889  14
   1  -4   1 147.984 57.4746   2
   1  -4   1 229.309 51.8515   7
   1  -4   1 211.907 47.7781   3
  -1   4  -1 259.545 47.8491   1
   1   4   1 204.438 48.4654  12
  -1  -4  -1 218.112 47.8254   4
  -1  -4  -1 185.630 47.1391   7
   1   4   1 241.028 56.4655   9
   1   4   1 243.312 57.0760  13
   1   4   1 260.000 39.2215   2
   1  -4   1 255.347 58.8287   6
  -1  -4  -1 239.128 55.4073   8
   1  -4   1 226.609 40.9102  16
  -1   4  -1 243.603 51.1183   9
   1  -4   1 271.550 54.7906   8
  -1  -4  -1 187.588 48.7077   5
  -1  -4  -2 3314.30 202.213   4
  -1   4  -2 3188.65 169.726  15
   1  -4   2 3161.94 215.590   6
   1   4   2 3234.21 212.446  12
   1   4   2 3342.11 149.189   2
   1  -4   2 3391.83 220.785   3
   1  -4   2 3413.73 143.990   5
  -1  -4  -2 3384.11 209.113   7
  -1  -4  -2 3294.87 202.446   8
  -1  -4  -2 3199.32 214.052   5
   1  -4   2 3547.03 243.897   7
  -1  -4  -2 3478.68 159.172   1
   1   4   2 3324.18 202.313  13
  -1   4  -2 3573.05 218.298   9
   1   4   2 3274.56 204.023   9
   1  -4   2 3154.84 189.370   8
   1  -4   2 3157.47 173.434  16
  -1  -4  -3 824.297 80.6065   1
   1   4   3 924.382 84.7551   2
  -1  -4  -3 836.768 73.3550   6
  -1  -4  -3 927.278 111.660   4
   1   4   3 930.122 104.583  10
  -1  -4  -3 920.887 84.0037  15
   1  -4   3 711.448 211.144   6
   1   4   3 963.564 78.8735  11
  -1  -4  -3 886.818 115.895   5
   1   4   3 869.387 108.452  13
   1   4   3 944.289 83.3822  16
   1   4   3 913.659 105.763   9
  -1  -4  -3 901.583 105.681   8
  -1  -4  -3 896.501 107.298   7
  -1  -4  -4 59.7451 21.5741   6
  -1  -4  -4 80.7370 34.4118   8
  -1  -4  -4 53.7620 19.9418  15
   1   4   4 93.1570 35.2121  16
  -1  -4  -4 81.4903 38.9019   4
  -1  -4  -4 95.6323 37.1663   5
   1   4   4 28.7955 13.3103   2
   1   4   4 119.725 40.7025  10
   1   4   4 76.4675 38.2334  13
  -1  -4  -4 55.5258 28.8140   7
   1   4   5 22.6503 23.8958  16
  -1  -4  -5 20.1487 20.5525   7
  -1  -4  -5 11.4491 8.94280   4
   1   4   5-20.8615 11.8082  13
  -1  -4  -5 23.0772 14.4315   6
  -1  -4  -5-12.7391 19.5734  15
  -1  -4  -5 1.52714 14.9296   5
  -1  -4  -5 0.30757 15.5797   8
  -1  -4  -6 16.4684 36.1673  15
  -1  -4  -6 1.87496 27.4545   7
  -1  -4  -6-29.1317 21.5172   6
  -1  -4  -6 16.5223 23.9349   5
  -1   5   3 311.747 71.2257  10
   1  -5  -3 298.609 57.2844   3
   1  -5  -3 397.804 83.8234   7
   1  -5  -3 311.996 70.4536   6
   1  -5  -3 336.870 79.0879   8
   1  -5  -2 343.879 75.2973   8
  -1   5   2 314.482 37.6488  13
   1  -5  -2 358.415 75.3064   7
  -1   5   2 381.845 80.1332  14
  -1   5   2 332.600 72.5084  11
   1  -5  -2 378.577 64.5547   3
   1  -5  -2 397.482 83.4254   5
   1  -5  -2 319.685 68.8389   6
  -1   5   2 308.441 63.0198  10
   1  -5  -2 352.127 36.6376   2
  -1   5   2 339.925 35.8767   1
   1  -5  -1 37.5339 6.03413   2
   1  -5  -1 28.6888 25.6568   8
  -1   5   1 26.4338 22.3349  14
   1  -5  -1 58.4103 26.8694   3
  -1   5   1 38.2841 22.1145  12
   1  -5  -1 33.9370 20.2878   6
  -1   5   1 42.3104 31.1415  11
  -1   5   1 7.93802 13.4854  10
   1  -5  -1 53.3486 22.9517   5
  -1   5   1 33.5631 10.7547   1
   1  -5  -1 20.3750 14.7510   7
   1  -5   0 3952.17 152.427  16
   1  -5   0 3874.73 192.086   5
  -1   5   0 3798.52 150.605  15
   1  -5   0 3913.30 252.785   6
   1  -5   0 3985.53 230.583   3
  -1   5   0 3925.12 190.229  12
  -1   5   0 3931.00 223.746  14
  -1   5   0 3796.63 245.882  11
   1  -5   0 3908.21 244.900   8
  -1  -5   0 3358.73 345.739   5
  -1   5   0 3841.42 242.066   9
   1  -5   0 3882.96 238.523   7
   1  -5   1 13.6949 18.1283   7
   1   5   1 23.9322 6.40377   9
  -1   5  -1 9.68384 8.79677  15
   1  -5   1 35.7029 18.5665  16
  -1   5  -1 5.43356 12.4987  14
  -1  -5  -1 18.4680 28.7872   7
  -1   5  -1 12.8130 14.7975   9
  -1  -5  -1 17.3890 16.4171   8
   1  -5   1 18.7152 31.6099   6
  -1  -5  -1 22.0993 19.3229   4
   1   5   1 22.1418 6.50478  12
   1  -5   1 21.6794 11.2381   3
  -1  -5  -1-3.48760 7.92223   1
  -1  -5  -1-5.23359 16.6243   5
   1  -5   1 0.79501 23.1005   8
   1  -5   1-3.93413 9.71819   5
   1   5   1 4.23210 6.12892   2
  -1  -5  -2 7038.93 316.990   4
   1  -5   2 7552.82 386.887   3
  -1  -5  -2 7118.58 349.660   5
   1   5   2 7389.03 220.021   2
  -1  -5  -2 7243.82 339.597   7
   1  -5   2 7136.50 388.384   7
   1  -5   2 7487.51 366.823   6
   1  -5   2 7417.22 273.487  16
  -1  -5  -2 7487.41 342.999   8
   1   5   2 7388.08 320.206  13
  -1  -5  -2 7257.64 223.462   1
   1  -5   2 7346.73 249.601   5
  -1   5  -2 7364.41 262.763  15
   1   5   2 7397.85 342.763   9
  -1   5  -2 7558.83 356.432   9
   1  -5   2 7268.80 331.315   8
   1   5   3-17.8907 23.6598  10
   1   5   3 26.5279 16.4857  11
   1   5   3-4.31877 15.6911   9
  -1  -5  -3 3.51915 14.9338   8
   1   5   3 20.7448 13.2393   2
   1   5   3-19.8196 10.6343  16
  -1  -5  -3-17.9918 19.2329   1
   1   5   3 17.7609 25.6040  12
  -1  -5  -3 10.5736 10.9623   6
  -1  -5  -3 15.8417 16.8920   4
  -1  -5  -3 15.6444 20.1003   7
   1   5   3 30.3812 24.9533  13
  -1  -5  -3-12.0335 24.2909   5
  -1  -5  -4 6065.96 335.996   5
  -1  -5  -4 6257.59 241.792   6
   1   5   4 6104.20 316.525  13
   1   5   4 6172.72 314.915  10
  -1  -5  -4 5906.11 310.515   7
  -1  -5  -4 5806.86 232.434  15
   1   5   4 6222.31 234.796  16
  -1  -5  -4 5990.15 316.779   4
  -1  -5  -4 6199.67 322.306   8
  -1  -5  -5 331.745 88.4109   7
  -1  -5  -5 529.280 70.9478   6
   1   5   5 513.863 74.1207  16
  -1  -5  -5 385.962 66.4514  15
   1   5   5 437.117 91.3883  13
   1   5   5 585.334 100.553  10
  -1  -5  -5 454.047 92.3316   4
  -1  -5  -5 445.528 93.0661   5
  -1  -5  -5 511.198 95.3446   8
  -1  -5  -6 200.551 95.1777   7
  -1  -5  -6 200.779 69.7954  15
  -1  -5  -6 375.673 66.6976   6
   1   5   6 247.798 68.4834  13
   1   5   6 315.852 64.0837  16
  -1  -5  -6 371.840 102.320   5
   1  -6  -4 2150.72 183.812   3
   1  -6  -4 2289.61 226.197   7
   1  -6  -4 2234.83 215.168   6
   1  -6  -4 1857.92 203.358   8
   1  -6  -3 382.942 86.1453   8
   1  -6  -3 458.474 87.3685   7
  -1   6   3 481.963 61.4936  13
  -1   6   3 450.704 91.2480  11
   1  -6  -3 442.457 87.8223   6
  -1   6   3 360.142 75.1927  10
   1  -6  -3 368.038 66.4182   3
   1  -6  -2 381.667 86.7162   8
   1  -6  -2 430.093 81.7460   5
  -1   6   2 349.688 21.9149  14
   1  -6  -2 359.966 79.3010   6
  -1   6   2 372.749 83.1183  11
  -1   6   2 392.094 73.9452  12
  -1   6   2 346.802 85.7555  10
   1  -6  -2 354.837 69.1464   3
   1  -6  -2 333.177 72.7259   7
   1  -6  -1 1150.81 129.564   3
   1  -6  -1 1154.86 145.797   7
  -1   6   1 1245.20 150.977  10
  -1   6   1 1195.59 127.611  14
   1  -6  -1 1212.31 152.627   6
  -1   6   1 1087.40 119.316  12
   1  -6  -1 1059.60 115.932   5
  -1   6   1 1127.24 146.886   9
  -1   6   1 1140.15 143.791  11
   1  -6  -1 1085.60 141.355   8
  -1   6   0 1324.74 158.272  11
   1  -6   0 1149.30 111.285  16
  -1   6   0 1292.75 125.171  12
   1  -6   0 1242.46 121.780   5
  -1   6   0 1269.47 137.077  14
  -1   6   0 1184.34 85.0996  15
   1  -6   0 1198.30 132.123   3
   1  -6   0 1254.18 153.887   7
   1  -6   0 1217.66 152.768   6
  -1   6   0 1237.60 153.146   9
   1  -6   0 1171.11 147.836   8
  -1   6  -1 48.1752 27.4487  15
   1  -6   1 37.1602 26.6234   6
  -1  -6  -1 51.1651 35.5344   8
   1  -6   1 24.7624 30.5784   8
  -1   6  -1 27.7555 16.4837  14
   1  -6   1 46.0118 19.4241  16
   1  -6   1 56.6107 21.2018   7
   1  -6   1 61.4381 27.2724   3
   1  -6   1 50.4245 21.6749   5
  -1   6  -1 93.2654 41.5103   9
  -1  -6  -1 21.1735 13.9487   4
   1   6   1 37.2027 7.24648   2
   1   6   1 32.6218 13.8240   9
  -1  -6  -1 29.6129 23.8381   7
  -1  -6  -1-8.50662 24.7849   5
  -1  -6  -1 40.0081 6.33958   1
   1   6   2 1953.35 108.980   2
  -1  -6  -2 1945.91 178.894   4
   1  -6   2 1993.42 204.701   8
   1   6   2 2063.52 184.895  13
  -1   6  -2 1898.35 135.137  15
   1  -6   2 2100.06 223.649   6
   1   6   2 1874.14 154.697  11
   1  -6   2 1945.29 148.619  16
   1  -6   2 1363.04 201.218   7
  -1  -6  -2 1914.66 198.422   5
   1  -6   2 2074.47 158.739   5
  -1  -6  -2 1891.62 189.579   7
   1   6   2 1882.84 193.260   9
   1   6   2 2008.31 197.400  12
  -1  -6  -2 1849.48 191.460   8
  -1  -6  -3 62.9775 36.6626   8
  -1  -6  -3 49.1949 27.1861   7
  -1  -6  -3 27.5976 35.2202   4
   1   6   3-13.6422 14.8740  13
  -1  -6  -3 27.5181 33.6669   6
   1   6   3 35.6273 22.7492   2
   1   6   3 15.3823 27.0866   9
   1   6   3 15.4445 17.3433  12
   1   6   3-11.5413 15.7355  11
   1   6   3 62.0822 27.1218  10
  -1  -6  -3 1.21412 17.2427   5
   1   6   4 167.554 42.3874  16
  -1  -6  -4 161.845 51.4371   8
  -1  -6  -4 108.154 51.8547   7
  -1  -6  -4 175.718 48.4422   6
   1   6   4 17.0274 32.8997  12
   1   6   4 163.816 56.5438   9
   1   6   4 166.318 48.4737  13
  -1  -6  -4 129.606 48.3628   5
   1   6   4 185.358 63.9560  10
  -1  -6  -4 186.531 59.5696   4
  -1  -6  -5 376.915 85.3206   8
  -1  -6  -5 345.371 64.6339  15
  -1  -6  -5 209.490 81.7710   7
  -1  -6  -5 449.248 101.515   5
  -1  -6  -5 352.743 77.7002   4
   1   6   5 231.963 112.829  12
   1   6   5 411.740 88.7476  13
  -1  -6  -5 502.894 83.8475   6
   1   6   5 426.799 65.1620  16
   1   6   5 388.068 91.6512  10
  -1  -6  -6 160.012 44.1454  15
  -1  -6  -6 91.3365 70.5031   7
  -1  -6  -6 192.043 83.2059   5
   1   6   6 154.091 66.4184  13
  -1  -6  -6 215.477 58.9241   6
  -1  -6  -6 108.932 46.8722   8
  -1  -6  -7-12.3050 48.8468   7
  -1  -6  -7 17.4129 19.4075  15
   1   6   7-2.38755 14.3238  13
  -1  -6  -7-13.9149 24.8812   5
   1  -7  -4 67.9282 46.2442   7
  -1   7   4 11.5010 25.9730  10
   1  -7  -4 43.8004 29.9811   6
   1  -7  -4 70.4621 30.7555   3
   1  -7  -4 94.1490 40.8954   8
   1  -7  -3 495.698 110.897   7
   1  -7  -3 377.548 87.6828   8
   1  -7  -3 424.494 93.6821   6
  -1   7   3 515.852 117.706  11
   1  -7  -3 388.115 111.114   5
  -1   7   3 328.748 84.2109  10
   1  -7  -3 380.751 70.5271   3
  -1   7   3 431.054 89.9317  12
  -1   7   2 27.6832 32.5545  14
  -1   7   2 9.56630 10.6412  12
  -1   7   2 25.4647 32.6908  11
  -1   7   2 10.4543 9.11361  10
   1  -7  -2 34.2725 29.0524   3
   1  -7  -2 3.07049 17.7657   6
   1  -7  -2-44.1870 41.5439   5
   1  -7  -2 43.4198 29.0885   7
   1  -7  -2 21.8016 30.9610   8
   1  -7  -1 69.3829 10.6986   7
  -1   7   1 91.4835 39.5744   9
   1  -7  -1 83.4314 40.7472   6
  -1   7   1 83.7796 36.1864  12
  -1   7   1-17.1916 37.8337  10
   1  -7  -1 46.7612 30.3015   5
  -1   7   1 79.8107 41.3852  11
   1  -7  -1 108.206 31.7425   3
  -1   7   1 114.156 48.4030  14
   1  -7  -1 167.110 71.7605   8
  -1   7   0 763.420 133.671  11
  -1   7   0 726.323 112.074  14
  -1   7   0 610.840 113.603   9
   1  -7   0 673.225 124.888   6
   1  -7   0 676.368 106.071   3
   1  -7   0 689.098 99.5338   5
   1  -7   0 646.715 119.173   7
   1  -7   0 688.054 118.311   8
  -1  -7  -1 86.5899 51.7157   8
  -1  -7  -1 116.413 41.9612   7
   1  -7   1 123.342 54.2500   8
   1  -7   1 90.4301 53.0950   6
   1  -7   1 67.3316 39.6271   7
  -1  -7  -1 57.7522 16.8736   4
   1  -7   1 111.117 40.3610   5
  -1   7  -1 111.201 48.3161   9
  -1  -7  -1 152.772 77.2051   5
   1   7   1 46.2684 37.1482   9
   1  -7   1 68.8527 19.5204  16
  -1   7  -1 78.0548 17.3991  14
   1  -7   2 522.958 126.183   8
   1   7   2 485.457 108.498  12
  -1  -7  -2 548.732 98.5059   4
  -1   7  -2 460.816 65.9210  15
   1  -7   2 512.113 136.664   6
  -1   7  -2 578.985 104.557  14
  -1  -7  -2 503.387 112.986   8
   1  -7   2 481.009 81.3808  16
   1  -7   2 476.140 99.0725   5
  -1  -7  -2 528.169 111.621   7
   1   7   2 484.741 92.9136  11
  -1  -7  -2 494.700 107.075   5
   1   7   2 487.790 105.133   9
   1   7   3 418.544 101.288  12
  -1  -7  -3 346.124 89.4401   7
  -1  -7  -3 442.653 93.2892   4
  -1  -7  -3 444.996 110.546   5
   1   7   3 458.600 93.7669  13
   1   7   3 411.128 78.5337  11
  -1  -7  -3 383.196 96.6702   8
   1   7   3 358.711 96.8200  10
   1   7   3 454.121 102.461   9
  -1  -7  -4 122.546 57.3448   8
  -1  -7  -4 56.5758 59.8483   7
  -1  -7  -4 131.713 40.9151   6
   1   7   4 224.767 66.9408  13
  -1  -7  -4 209.403 70.4388   4
   1   7   4 128.026 51.0467  12
   1   7   4 107.346 71.4732  10
  -1  -7  -4 151.218 60.4621   5
   1   7   4 146.032 51.7914   9
  -1  -7  -5 220.874 74.3366   8
  -1  -7  -5 90.3720 85.3300   7
  -1  -7  -5 282.173 85.4734   4
   1   7   5 221.834 70.6793  13
   1   7   5 65.9816 72.9172  12
  -1  -7  -5 278.267 82.8228   5
   1   7   5 256.167 77.0317   9
   1   7   5 216.085 81.4502  10
  -1  -7  -5 232.448 59.7696   6
   1   7   6 116.309 57.4529  13
   1   7   6 17.1254 62.6405  12
  -1  -7  -6 31.5951 17.8704   5
  -1  -7  -6 22.3215 42.4367   7
   1   7   6 73.1794 54.6325  10
  -1  -7  -6 173.797 66.5249   8
   1   7   7 273.011 65.9597  13
  -1  -7  -7 353.076 207.726   7
   1   7   7 149.968 107.269  12
   1  -8  -4 98.1763 51.5932   7
  -1   8   4 107.911 52.4865  12
   1  -8  -4 143.862 61.5793   6
  -1   8   4 203.180 85.4665  10
   1  -8  -4 196.620 64.5353   3
   1  -8  -4 85.7153 58.1981   8
   1  -8  -3 1489.89 200.339   7
   1  -8  -3 1448.26 201.212   8
  -1   8   3 1375.52 179.111  12
   1  -8  -3 1342.95 213.418   5
  -1   8   3 1421.77 199.562  11
  -1   8   3 1604.77 215.186  10
   1  -8  -3 1428.16 191.260   6
   1  -8  -3 1429.13 153.061   3
   1  -8  -2 708.775 137.671   8
   1  -8  -2 750.569 138.326   7
  -1   8   2 751.976 143.989   9
   1  -8  -2 683.312 104.752   3
   1  -8  -2 852.387 136.658   5
   1  -8  -2 696.804 131.620   6
  -1   8   2 657.139 120.560  11
  -1   8   2 735.646 140.111  14
  -1   8   2 792.228 138.348  10
  -1   8   2 725.138 115.244  12
  -1   8   1 1133.51 142.150  12
   1  -8  -1 1199.78 148.308   3
  -1   8   1 1057.57 136.327  14
  -1   8   1 1231.29 175.600  11
   1  -8  -1 1132.16 143.352   5
   1  -8  -1 1254.62 180.091   6
  -1   8   1 1121.29 163.311  10
   1  -8  -1 1061.80 161.867   7
  -1   8   1 1166.88 164.045   9
   1  -8  -1 1090.70 166.268   8
   1  -8   0-37.5300 40.4287   8
  -1   8   0 24.9187 8.56795  14
   1  -8   0 10.7566 22.5192   6
   1  -8   0 35.1286 24.2672   7
  -1   8   0 41.8463 28.9732  11
  -1   8   0 54.8158 44.5193  10
   1  -8   0-47.0962 38.4487   5
  -1   8   0 70.0485 47.9283   9
   1  -8   1 272.438 82.3906   8
   1  -8   1 375.677 122.506   6
   1  -8   1 217.295 81.0338   7
  -1  -8  -1 169.402 61.0926   4
  -1  -8  -1 296.421 112.182   8
  -1   8  -1 184.190 68.7145  11
   1  -8   1 277.066 77.1695   5
  -1   8  -1 238.915 71.0526  14
  -1   8  -1 318.131 92.0141   9
  -1  -8  -1 210.295 89.0522   5
  -1   8  -2-19.2112 29.2510  14
  -1  -8  -2-54.7835 40.6429   4
  -1  -8  -2-32.2175 51.4861   7
  -1  -8  -2-57.1037 45.0235   8
   1   8   2 41.2456 37.2345  12
   1  -8   2-0.58062 135.765   6
  -1  -8  -2-46.3125 10.5116   5
   1   8   2-42.0824 19.5970  11
   1  -8   2-141.310 74.2833   8
   1   8   2-23.9291 7.37079   9
  -1  -8  -3 439.721 108.816   8
  -1  -8  -3 465.969 117.472   5
  -1  -8  -3 498.644 105.211   4
   1   8   3 475.115 94.6674  11
   1   8   3 485.219 116.557  12
   1   8   3 418.932 98.8030  13
  -1  -8  -3 246.153 111.468   7
   1   8   3 448.962 119.185  10
   1   8   3 535.189 127.827   9
  -1  -8  -4 102.723 42.1202   8
   1   8   4-8.62870 38.2254  12
  -1  -8  -4-66.3417 152.050   6
   1   8   4 100.654 49.4808  13
  -1  -8  -4 15.1189 13.9304   4
  -1  -8  -4 119.345 58.1070   5
  -1  -8  -4-12.9459 64.4838   7
   1   8   4 58.9305 44.7591  10
   1   8   4 46.1406 30.7560   9
  -1  -8  -5 94.8368 47.6081   8
   1   8   5 165.378 80.3932  13
   1   8   5 3.45493 49.6298  12
  -1  -8  -5 36.0565 66.3196   7
   1   8   5 47.6496 18.5048  10
  -1  -8  -5 91.4067 62.2764   5
   1   8   5 60.8184 34.2195   9
  -1  -8  -5-3.12890 38.7094   4
   1   8   6 255.982 88.8497  10
   1   8   6 273.624 78.4914  13
  -1  -8  -6 57.0807 58.5332   7
  -1  -8  -6 293.741 93.9716   8
   1   8   6 137.973 106.760  12
  -1  -8  -6 239.308 91.8606   5
   1   8   6 265.045 93.3487   9
   1   8   7 41.9087 25.1402  13
  -1  -8  -7 25.4088 112.812   7
   1   8   7 116.669 45.6737   9
   1   8   7 99.0060 34.4045  12
   1  -9  -5 205.224 93.0901   7
  -1   9   5 98.5435 58.1755  12
   1  -9  -4 422.135 119.128   7
   1  -9  -4 462.720 120.139   6
  -1   9   4 480.655 116.620  12
  -1   9   4 424.141 120.190  10
  -1   9   4 503.854 134.731   9
   1  -9  -4 434.080 124.068   8
   1  -9  -3 318.762 101.609   8
   1  -9  -3 173.067 53.7232   5
   1  -9  -3 311.286 101.410   7
   1  -9  -3 324.988 101.528   6
  -1   9   3 357.838 98.9447  12
  -1   9   3 286.384 87.5189  11
  -1   9   3 311.880 104.864  10
  -1   9   3 244.715 104.630   9
   1  -9  -2 1344.12 201.600   6
   1  -9  -2 1377.39 212.117   7
   1  -9  -2 1468.03 193.736   5
  -1   9   2 1305.61 176.902  12
  -1   9   2 1184.03 179.791  11
  -1   9   2 1469.41 204.446  10
  -1   9   2 1254.88 198.956   9
   1  -9  -2 1320.11 204.144   8
   1  -9  -1 680.413 141.871   7
   1  -9  -1 755.837 145.383   6
   1  -9  -1 634.246 142.036   8
  -1   9   1 650.375 138.532  11
   1  -9  -1 742.700 126.717   5
  -1   9   1 675.722 140.933  10
  -1   9   1 657.179 136.668   9
  -1   9   0 1554.49 181.351  14
   1  -9   0 1681.38 224.905   7
  -1   9   0 1563.07 212.685  11
   1  -9   0 1497.85 199.267   5
   1  -9   0 1666.44 231.050   6
  -1   9   0 1613.16 217.952  10
  -1   9   0 1603.34 219.251   9
   1  -9   0 1593.60 219.031   8
   1  -9   1 34.2160 77.2353   8
   1  -9   1 82.4377 74.1216   7
  -1   9  -1 3.33054 29.7762  14
   1  -9   1 77.3699 50.0406   6
  -1   9  -1 44.7061 52.7210  11
   1  -9   1 136.485 124.818   5
  -1  -9  -2 1573.07 217.988   4
  -1  -9  -2 1898.97 263.655   5
   1   9   2 1666.93 190.805  11
   1   9   2 1861.62 253.464   9
  -1  -9  -2 2159.35 291.581   8
  -1  -9  -3 138.960 28.7497   8
  -1  -9  -3 309.679 105.951   7
  -1  -9  -3 265.030 79.0025   4
   1   9   3 96.5718 70.5814  10
   1   9   3 236.828 98.4063  12
  -1  -9  -3 304.515 101.675   5
   1   9   3 195.573 66.6536   9
  -1  -9  -4 320.615 111.531   8
   1   9   4 224.952 92.9586   9
   1   9   4 245.118 86.1656  13
  -1  -9  -4 258.622 94.3370   7
  -1  -9  -4 253.825 77.6489   4
   1   9   4 130.691 93.0975  12
  -1  -9  -4 236.078 91.9204   5
   1   9   4 131.970 41.9339  10
  -1  -9  -5 70.4159 21.2839   8
  -1  -9  -5 12.3982 39.7573   5
   1   9   5 92.1422 31.8804  13
  -1  -9  -5 57.3141 38.1272   7
   1   9   5 33.7539 35.0513  12
  -1  -9  -5 91.6388 67.1617   4
   1   9   5 195.127 104.687  10
   1   9   5 127.012 73.5429   9
  -1  -9  -6 2.37606 34.1246   7
   1   9   6 27.0507 52.1207  12
   1   9   6 68.8739 71.9035  13
  -1  -9  -6-136.451 89.3578   5
   1   9   6 3.57968 52.9612  10
   1   9   6 64.6362 40.3081   9
  -1  -9  -6 18.5520 26.7692   8
  -1  -9  -7 339.564 152.605   5
  -1  -9  -7 13.9058 141.651   7
   1   9   7 40.7114 78.0047  12
   1   9   7 50.4635 59.7471   9
  -1  10   5 75.1957 60.4415   9
   1 -10  -5-110.752 46.6999   7
   1 -10  -4 466.060 139.933   7
  -1  10   4 491.692 124.068  12
  -1  10   4 411.557 133.221  10
   1 -10  -4 430.227 112.369   6
  -1  10   4 613.348 177.021   9
   1 -10  -4 445.171 133.488   8
   1 -10  -3 134.082 71.6241   8
   1 -10  -3 114.678 68.6871   7
  -1  10   3 125.290 65.0579  12
   1 -10  -3 291.078 106.441   6
  -1  10   3 203.061 90.0652  11
   1 -10  -3 128.036 43.5320   5
  -1  10   3 114.642 73.6916  10
  -1  10   3 87.2366 34.0380   9
   1 -10  -2 26.0295 41.6152   8
  -1  10   2 51.6122 38.6027  11
   1 -10  -2 14.4830 37.3339   6
   1 -10  -2-0.55683 16.7408   5
  -1  10   2 16.3518 38.4964  10
   1 -10  -2 96.8746 75.4552   7
  -1  10   2 37.5779 23.4167   9
   1 -10  -1 315.213 110.221   6
   1 -10  -1 218.497 78.8402   5
   1 -10  -1 389.692 101.458   7
  -1  10   1 410.043 111.444  11
   1 -10  -1 399.463 129.346   8
  -1  10   1 329.480 86.2870  10
  -1  10   1 353.423 100.602   9
  -1  10   0 0.75530 39.8988   9
   1 -10   0 48.5238 34.8453   8
   1 -10   0-77.5580 75.0327   7
   1 -10   0-11.0963 15.7933   6
  -1  10   0 3.32977 34.7010  11
  -1  10   0 46.0523 39.6653  10
   1 -10   1 196.339 216.309   8
  -1  10  -1-76.3883 80.7008  11
  -1 -10  -2 219.600 31.1810   8
   1  10   2 217.046 86.1383  10
  -1 -10  -2 197.723 133.599   5
  -1 -10  -3-121.187 102.442   8
  -1 -10  -3-130.388 130.146   7
  -1 -10  -3 43.3886 49.5504   5
   1  10   3 42.6011 53.8790   9
   1  10   3 57.5621 47.8482  10
  -1 -10  -4 69.8123 38.8532   8
  -1 -10  -4-58.7681 48.1782   7
   1  10   4-23.4747 10.4006  12
   1  10   4-3.86927 14.1102  10
  -1 -10  -4-3.12222 38.0526   5
   1  10   4 39.1458 13.4607   9
  -1 -10  -5 730.933 171.838   8
  -1 -10  -5 800.308 181.780   7
  -1 -10  -5 735.204 163.152   5
   1  10   5 310.752 166.645  12
   1  10   5 500.274 154.433  10
   1  10   5 841.204 176.383   9
  -1 -10  -6 163.228 80.2602   5
   1  10   6 52.7291 90.7616  12
  -1 -10  -6 155.426 101.450   7
   1  10   6 72.3515 69.0590  10
   1  10   6 66.5480 35.6106   9
  -1 -10  -6 162.831 74.6258   8
   1  10   7-22.3305 50.5659  12
  -1 -10  -7 50.8147 57.6240   5
   1  10   7 29.0295 23.2768   9
   1 -11  -5 211.835 112.768   7
  -1  11   5 97.6021 65.8081   9
   1 -11  -4-83.7403 34.8343   7
   1 -11  -4-46.0608 54.0886   6
  -1  11   4-9.99154 53.7464  12
  -1  11   4 64.2616 26.2763  10
   1 -11  -4-23.6840 65.2524   8
   1 -11  -3 105.090 76.7333   8
   1 -11  -3 171.697 116.664   7
   1 -11  -3 60.9191 61.2966   6
  -1  11   3 68.9560 49.4541  11
  -1  11   3-60.6747 72.2469  10
  -1  11   3 46.3888 54.9910   9
   1 -11  -2 107.356 63.9994   8
   1 -11  -2 124.100 48.5424   6
   1 -11  -2-27.8447 37.5713   7
  -1  11   2 236.330 115.045  11
  -1  11   2 116.830 62.6858  10
  -1  11   2 153.156 62.7672   9
   1 -11  -1 63.5456 39.0591   8
   1 -11  -1 121.173 71.3209   7
   1 -11  -1 143.593 104.141   6
  -1  11   1 144.533 78.5208  11
  -1  11   1 118.320 68.9478  10
  -1  11   1 21.9941 62.2513   9
  -1  11   0-27.5032 37.1881  11
  -1  11   0-72.7885 73.0312  10
  -1 -11  -3 177.118 66.8880   8
   1  11   3 179.749 70.5543  10
  -1 -11  -3 100.025 32.0725   5
  -1 -11  -4 90.1270 52.3174   7
   1  11   4-36.2769 39.4050  10
  -1 -11  -4 112.918 85.5219   5
  -1 -11  -4-33.6963 100.083   8
   1  11   4-67.0810 71.2363   9
  -1 -11  -5 69.1946 68.7127   8
   1  11   5-64.8624 64.1495  12
  -1 -11  -5 82.5636 77.6101   5
   1  11   5-54.9473 42.0341  10
   1  11   5 11.0807 46.5572   9
  -1 -11  -5 44.0640 61.3584   7
  -2   0  -1 22.4369 21.4817  15
   2   0   1 16.8562 7.02871  16
  -2   0  -1 2.33798 17.9806   1
  -2   0  -1 9.29116 23.1650  14
   2   0   1-7.06340 5.72481  13
  -2   0  -1-8.01118 19.3280   4
   2   0   1 3.87317 8.76939   6
   2   0   1-1.98423 9.92584   3
   2   0   1-4.75180 7.11005   2
  -2   0  -1 4.00986 10.2589   5
  -2   0  -2 10611.6 346.034   4
   2   0   2 10951.5 370.304   2
  -2   0  -2 10870.2 374.549  15
   2   0   2 11049.9 339.562   3
  -2   0  -2 10941.7 378.566   1
   2   0   2 10585.0 349.262  13
  -2   0  -2 11233.6 351.400  14
   2   0   2 10733.4 248.585   6
   2   0   2 10802.0 370.215  16
  -2   0  -2 10814.1 267.601   5
  -2   0  -3 86.0504 39.8980  14
  -2   0  -3 21.3430 22.3637   4
   2   0   3 55.4113 37.3100  16
   2   0   3 60.0028 37.1679  13
   2   0   3 95.6286 29.5749   6
   2   0   3 34.9749 21.8104  12
  -2   0  -3 55.6329 28.9201  11
   2   0   3 73.0444 43.3825   2
   2   0   3 106.889 45.3112   3
  -2   0  -3 45.3214 21.6036   5
  -2   0  -3 11.5868 18.9780   1
  -2   0  -3 67.9986 42.8529  15
   2   0   4 4024.86 236.874  13
  -2   0  -4 4139.29 228.385  14
  -2   0  -4 3946.47 250.642   1
   2   0   4 4063.58 230.493   3
   2   0   4 4026.72 249.826  16
  -2   0  -4 3878.76 243.497  15
  -2   0  -4 3804.44 242.984   5
  -2   0  -4 4058.78 160.667  11
  -2   0  -4 4068.33 241.059   4
   2   0   4 3930.59 247.549   2
   2   0   5-33.9590 27.5229  16
  -2   0  -5-26.9863 34.4991  15
  -2   0  -5-11.6748 25.0441   4
   2   0   5 19.3699 26.0508   2
  -2   0  -5 12.6467 15.0264   1
  -2   0  -6 1801.39 212.406  15
   2   0   6 1260.94 223.936  16
   2   0   6 1443.97 266.136   2
  -2   0  -6 1808.90 241.643   1
   2  -1   0 3793.85 223.408  16
  -2   1   0 3860.84 203.526   4
  -2   1   0 4055.72 232.919  15
  -2   1   0 4081.37 229.567   1
   2  -1   0 4087.58 225.804   2
   2  -1   0 4426.57 232.791   3
  -2   1   0 4395.74 248.728  14
   2  -1   1 622.615 45.7276   7
  -2   1  -1 564.519 70.4007   4
  -2  -1  -1 623.570 90.4511   4
  -2   1  -1 568.659 82.0780  15
   2  -1   1 553.586 81.0709  16
   2   1   1 578.957 84.9818  16
   2   1   1 641.611 90.3421   2
   2  -1   1 607.179 84.3510   2
  -2  -1  -1 616.938 90.5772   1
   2  -1   1 641.901 82.1959  13
  -2   1  -1 586.901 84.2687  14
   2   1   1 608.844 89.3731  13
  -2   1  -1 607.488 85.4693   1
   2  -1   1 667.351 75.1919   6
   2  -1   1 615.352 83.9358   3
   2   1   1 657.585 76.0397   3
  -2   1  -1 651.711 53.1932   5
  -2  -1  -1 573.943 74.5642   5
  -2  -1  -1 616.430 89.0756  15
  -2  -1  -2-15.9595 20.0805   1
  -2  -1  -2-16.8986 19.4987  14
  -2  -1  -2-15.9291 6.86649   8
   2  -1   2-2.94811 10.7474  16
  -2   1  -2-42.7500 34.8881  15
  -2  -1  -2-29.9468 21.8415  15
  -2  -1  -2 5.56925 15.4786   4
  -2   1  -2-8.63632 25.1939   1
   2  -1   2-22.0834 22.0147  13
  -2   1  -2-33.1101 21.9938  14
  -2   1  -2-40.7238 22.8708   4
   2   1   2 1.23916 16.7583  13
   2  -1   2-9.58650 12.5152   6
  -2   1  -2-19.4671 12.8482  11
   2   1   2-17.2399 9.73599   6
   2   1   2-28.6701 19.1134  12
   2   1   2-9.12883 19.8726  16
   2  -1   2-16.3590 15.5207   2
  -2   1  -2-1.71846 5.18848   5
   2  -1   2-27.4603 25.6501   3
   2   1   2 4.20155 9.75034   2
   2   1   2-48.2258 28.9424   3
  -2  -1  -2-49.0374 26.5750   5
  -2  -1  -3 641.859 96.3300   4
   2  -1   3 598.103 93.9422   2
   2   1   3 663.457 95.9760   2
   2   1   3 650.754 95.8097  16
  -2   1  -3 623.312 90.7722  14
  -2   1  -3 636.524 98.9454   1
  -2   1  -3 668.739 96.1850  15
  -2  -1  -3 660.591 95.7218  15
   2  -1   3 613.771 95.7244  16
   2   1   3 591.875 89.8503  13
  -2  -1  -3 662.322 98.1668   1
   2   1   3 678.240 84.7609   3
  -2  -1  -3 729.185 88.2789  14
   2  -1   3 722.732 92.1883  13
   2  -1   3 667.722 96.7975   3
   2   1   3 659.716 84.6294  12
   2  -1   3 627.878 56.2189  12
  -2   1  -3 672.179 78.1848  11
  -2  -1  -3 696.395 84.8173   5
   2  -1   3 649.352 77.7381   6
  -2   1  -3 631.256 84.8470   4
   2   1   4 3198.70 224.201   2
  -2   1  -4 3077.86 224.100   1
  -2   1  -4 3222.48 212.537   4
   2   1   4 3103.75 218.263  16
  -2  -1  -4 3165.23 218.864  15
  -2   1  -4 3201.95 213.878  14
  -2  -1  -4 3070.37 185.730  14
   2   1   4 3091.63 188.430   3
   2  -1   4 3132.47 216.109   3
   2  -1   4 2913.56 194.390  13
   2   1   4 3129.82 188.782  12
  -2  -1  -4 2986.19 179.036   5
  -2  -1  -4 2900.74 215.888   1
   2  -1   4 2983.16 221.492  16
  -2   1  -4 3050.75 216.920  15
   2  -1   4 3086.53 220.820   2
   2   1   4 3031.31 215.449  13
  -2  -1  -4 3074.74 218.572   4
  -2  -1  -5 39.5334 17.6176   1
   2  -1   5 61.2126 23.0690  16
  -2  -1  -5 44.4754 13.4799   7
  -2  -1  -5 40.4826 21.0904  14
  -2  -1  -5 53.4944 29.9992  15
   2   1   5 44.3036 21.6390   2
  -2  -1  -5 22.7926 14.0756   4
   2   1   5 39.5565 21.9849  13
  -2  -1  -5 57.1974 16.2168  11
  -2  -1  -5 62.5288 37.0188   5
  -2   1  -5 51.8960 34.1877  15
   2   1   5 58.1402 29.0679  16
   2  -1   5 15.3231 32.0858   2
  -2   1  -5 57.2564 34.6901   1
  -2  -1  -6-12.4109 32.0715   4
  -2  -1  -6 37.4448 24.4788  15
   2   1   6 21.2011 16.9779  16
  -2  -1  -6 39.2552 12.9196   7
  -2  -1  -6 45.5040 26.1933   1
  -2   2   0 9768.28 269.621   4
   2  -2   0 9835.47 353.050  16
   2  -2   0 9667.02 357.501   3
  -2   2   0 9582.43 358.587  14
   2  -2   0 9660.55 333.588   6
   2  -2   0 9530.06 336.314   2
  -2   2   0 9773.28 355.087  15
   2  -2   0 9906.59 273.509   7
  -2   2   0 9386.67 332.885   1
  -2   2  -1 1253.43 95.8558   4
  -2  -2  -1 1373.69 142.693   4
   2  -2   1 1161.29 116.016   2
   2   2   1 1358.91 134.349   2
  -2   2  -1 1203.84 121.897  15
  -2   2  -1 1212.26 124.910  14
  -2   2  -1 1173.42 117.886   1
   2  -2   1 1217.13 113.014   6
   2   2   1 1366.60 142.359  13
  -2  -2  -1 1339.57 136.396   1
   2  -2   1 1197.03 80.0110   7
   2  -2   1 1255.05 124.001   3
   2   2   1 1129.20 98.7823   3
  -2  -2  -1 1259.70 127.296   5
   2  -2   1 1371.56 111.710  13
  -2   2  -1 1209.44 117.196  11
   2  -2   1 1188.09 118.621  16
  -2  -2  -2 3923.65 239.893   4
   2  -2   2 4055.76 233.431   2
   2  -2   2 4001.00 141.492   7
  -2   2  -2 4063.99 237.325  15
  -2  -2  -2 4088.85 232.346  15
   2  -2   2 4127.35 215.335   6
  -2   2  -2 4006.28 241.179  14
   2   2   2 4071.03 228.980  16
   2   2   2 3912.95 234.270  13
   2  -2   2 4098.48 241.055   3
   2   2   2 4003.67 173.981   3
   2   2   2 3804.55 218.627   2
   2   2   2 4109.87 229.592  12
  -2  -2  -2 3921.51 229.006   1
   2  -2   2 4006.75 192.194  13
  -2   2  -2 3848.79 209.520  11
  -2   2  -2 4027.81 235.146   1
  -2  -2  -2 3941.56 216.847   5
  -2   2  -2 3899.89 141.873   9
   2  -2   2 4012.42 234.590  16
  -2  -2  -2 3944.58 162.384   8
  -2   2  -2 3971.54 183.850   4
  -2  -2  -3 4089.78 251.946   4
   2   2   3 4291.37 246.028   2
   2  -2   3 4077.15 250.113  16
   2   2   3 4148.32 238.850  16
  -2  -2  -3 4142.45 243.562   1
   2   2   3 4192.26 190.139   3
  -2   2  -3 4117.73 246.001  15
  -2  -2  -3 4235.10 244.902  15
  -2  -2  -3 4189.14 230.370   5
  -2   2  -3 4085.10 248.282  14
  -2  -2  -3 4208.56 189.554  14
   2  -2   3 3893.02 212.670   6
   2  -2   3 4098.09 207.905  13
   2   2   3 4039.04 250.932  13
   2   2   3 4127.37 232.183  12
  -2   2  -3 4131.31 248.713   1
  -2   2  -3 4144.54 219.186  11
   2  -2   3 4131.51 251.102   3
   2   2   3 3990.44 157.501  10
  -2   2  -3 4026.02 131.434  10
   2  -2   3 4049.01 132.535   8
  -2  -2  -3 4188.13 161.842   8
  -2   2  -3 4101.47 212.913   4
   2  -2   3 3977.29 242.009   2
  -2  -2  -4 2477.11 206.161   4
  -2   2  -4 2645.49 213.726   1
   2   2   4 2691.59 204.008   2
   2  -2   4 2465.93 206.509  16
  -2  -2  -4 2594.36 136.262   7
   2   2   4 2710.43 172.853   3
  -2  -2  -4 2542.74 200.762   1
  -2  -2  -4 2707.33 159.419  14
  -2   2  -4 2555.98 201.948  15
   2  -2   4 2538.83 207.918   3
   2   2   4 2580.33 210.477  13
   2  -2   4 2090.99 308.020   6
   2   2   4 2482.34 187.255  12
  -2  -2  -4 2574.14 186.774   5
  -2  -2  -4 2480.91 194.528  15
   2   2   4 2493.73 194.401  16
   2   2   4 2593.34 141.034   9
  -2   2  -4 2596.94 204.077  14
   2  -2   4 2353.23 102.775   8
   2  -2   4 2619.38 213.774   2
  -2   2  -5 408.582 103.667   1
  -2  -2  -5 336.005 79.5881   1
  -2  -2  -5 311.591 71.2671  15
  -2   2  -5 444.340 106.843  15
   2  -2   5 299.501 100.338   2
   2   2   5 315.057 73.1529  16
   2   2   5 318.801 71.1329   2
  -2  -2  -5 276.217 48.8996   7
  -2  -2  -5 290.480 73.9464   4
  -2  -2  -5 339.489 59.7262  14
   2   2   5 331.372 79.2581  13
  -2  -2  -5 375.130 74.9578   5
   2  -2   5 162.871 45.5399   8
   2  -2   5 349.218 107.644  16
   2   2   5 365.891 57.3141   9
   2   2   6 695.469 120.680  16
  -2  -2  -6 777.684 127.031  15
   2   2   6 724.054 124.881  13
  -2  -2  -6 452.510 127.294   5
   2   2   6 718.081 148.872   2
  -2  -2  -6 761.237 129.042   4
  -2  -2  -6 656.954 138.493   1
   2   2   7 552.124 133.280  16
  -2  -2  -7 1300.21 185.686  15
   2  -3  -1 2835.49 184.594   2
   2  -3  -1 2559.98 187.110   7
  -2   3   1 3472.90 249.908  14
   2  -3  -1 3369.97 228.051   6
  -2   3   1 3383.42 218.339   1
   2  -3  -1 3318.11 225.658   3
  -2   3   0 439.442 48.5121   4
   2  -3   0 419.470 61.7852   7
  -2   3   0 417.829 75.3542  15
  -2   3   0 383.484 71.4122  11
  -2   3   0 427.131 77.5534  14
  -2   3   0 457.004 72.8652   1
   2  -3   0 400.995 70.6150   6
   2  -3   0 462.448 75.5037  16
   2  -3   0 426.314 66.0966   2
   2  -3   0 408.125 76.0462   3
  -2   3  -1 89.0084 22.0407   4
   2  -3   1 94.0363 33.3980  16
  -2   3  -1 61.7598 27.2998  14
  -2  -3  -1 85.1254 43.8805   4
   2   3   1 98.3154 45.2601   2
   2   3   1 109.895 54.2110  13
   2  -3   1 71.9098 26.4958   6
   2  -3   1 68.9521 16.3517   7
  -2   3  -1 54.8097 13.1946   1
  -2   3  -1 85.2762 33.4030  11
  -2   3  -1 83.9579 23.7511  10
   2  -3   1 70.1706 28.1788   2
   2  -3   1 89.2935 32.3378   3
  -2   3  -1 51.5933 14.5939  15
  -2  -3  -1 49.6618 14.3391   1
   2  -3   1 94.8636 29.7940   8
   2  -3   2 541.128 85.4095   2
  -2  -3  -2 489.076 87.1809   4
  -2  -3  -2 545.855 85.4139  15
   2   3   2 574.215 87.2292  16
   2   3   2 552.325 95.1378  13
  -2   3  -2 534.982 81.7007  15
  -2   3  -2 513.453 83.4338   1
   2  -3   2 528.272 87.6249  16
   2  -3   2 539.154 63.4621  13
   2  -3   2 519.823 84.7223   6
  -2   3  -2 557.757 94.1246  14
   2   3   2 669.856 101.611  12
  -2  -3  -2 558.141 87.4148   1
  -2   3  -2 478.567 78.0607  11
   2   3   2 525.019 56.4819   3
   2  -3   2 512.771 62.8369   7
  -2  -3  -2 491.554 86.2040   5
  -2   3  -2 509.926 59.5015  10
   2   3   2 562.514 83.6888   2
   2  -3   2 515.430 86.3127   3
  -2   3  -2 574.431 68.8016   9
   2  -3   2 504.724 62.6224   8
  -2   3  -2 590.012 68.5523   4
  -2  -3  -2 489.323 69.2949   8
   2  -3   3 14.2403 2.14213   8
  -2  -3  -3 18.9966 14.8998   8
   2  -3   3 51.1695 32.0119  16
  -2  -3  -3 3.29520 3.48901  15
  -2   3  -3 31.2024 18.4534   1
  -2  -3  -3 54.1058 26.7535   4
  -2   3  -3 52.0688 33.8231  14
   2   3   3-10.0460 26.6934  13
   2  -3   3 16.9541 17.3448  13
   2  -3   3 68.0906 36.2861   2
   2  -3   3 7.77873 15.8633   6
   2   3   3 59.4132 31.7179  16
   2   3   3 40.1281 33.6638  12
   2   3   3 29.3269 18.0849   3
   2  -3   3 46.3450 22.6675   3
  -2  -3  -3 29.4665 21.2008   1
   2   3   3 28.7122 27.9076   2
  -2  -3  -3 38.5745 22.8673   5
  -2   3  -3 12.1085 4.68436  15
  -2  -3  -4 1763.17 182.008   4
   2   3   4 1966.21 171.735   2
   2  -3   4 1977.98 191.372  16
  -2  -3  -4 1711.60 138.501   7
  -2  -3  -4 1851.19 173.074   1
   2   3   4 1881.10 166.803  16
  -2   3  -4 1839.70 174.937  15
  -2  -3  -4 1916.30 171.717  15
  -2  -3  -4 2028.49 123.641  14
   2   3   4 1905.48 189.153  13
   2  -3   4 1856.37 187.759   3
   2  -3   4 1523.96 213.875   6
  -2  -3  -4 1805.69 171.285   5
   2   3   4 2113.01 144.057  10
  -2   3  -4 1893.24 185.733  14
   2   3   4 1912.62 143.638   9
  -2  -3  -4 1763.52 130.392   8
   2  -3   4 2307.32 229.949   2
   2  -3   4 1975.42 126.649   8
  -2   3  -4 2117.08 205.092   1
  -2  -3  -5 168.644 59.4488   1
   2  -3   5 119.928 73.5449  16
   2   3   5 135.697 48.6455  16
  -2  -3  -5 129.278 46.5104   4
  -2  -3  -5 170.449 52.5240  15
  -2  -3  -5 132.234 47.6903   7
  -2  -3  -5 140.959 32.3785  14
   2   3   5 107.055 39.2871   2
   2   3   5 54.2430 54.2980  12
  -2   3  -5 196.727 86.8937  15
   2  -3   5 133.103 51.1682   8
   2   3   5 158.101 56.2659  13
  -2  -3  -5 92.4488 29.1653   5
   2   3   5 216.709 49.3528   9
  -2  -3  -6 172.426 68.3615   4
   2   3   6 196.894 62.0900  16
   2   3   6 185.082 73.4624   2
  -2  -3  -6 125.754 43.4855   7
   2   3   6 203.600 60.1537  13
  -2  -3  -6 172.428 58.1975  15
  -2  -3  -6 134.108 43.5767   1
  -2  -3  -6 180.366 44.9100  14
  -2  -3  -6 199.231 62.2080   5
  -2  -3  -7 726.965 145.351   4
  -2  -3  -7 814.741 139.901  15
   2   3   7 608.554 137.688  13
  -2  -3  -7 434.194 97.3875   7
   2   3   7 620.858 130.443  16
  -2   4   1 220.906 57.6770  14
  -2   4   1 187.020 27.1164   4
  -2   4   1 244.456 54.8378   1
   2  -4  -1 195.485 59.2260   6
  -2   4   1 183.865 52.5601  11
   2  -4  -1 234.935 55.8391   7
   2  -4  -1 241.693 63.9991   3
   2  -4  -1 177.174 40.4404   2
   2  -4   0 1565.68 132.647   2
   2  -4   0 1476.55 130.303   7
   2  -4   0 1673.26 147.108  16
  -2   4   0 1488.28 153.759  14
  -2   4   0 1589.81 134.298   1
   2  -4   0 1642.71 161.289   6
   2  -4   0 1538.69 154.830   3
  -2   4   0 1551.52 145.935  15
  -2   4   0 1451.40 153.675  11
  -2   4   0 1413.55 127.520  10
   2  -4   0 1614.19 139.414   8
  -2   4   0 1503.72 67.7395   4
   2  -4   1 20.0618 18.6792   8
  -2   4  -1-1.23730 21.4782  15
  -2   4  -1 4.09795 16.0230   1
  -2   4  -1-0.78683 19.8683  14
   2  -4   1-7.05265 14.5256   6
  -2   4  -1 4.65367 14.5482  11
   2  -4   1-14.8403 25.9421   2
   2  -4   1 22.4827 19.3516   7
  -2   4  -1 44.2965 19.2064  10
   2  -4   1 20.6603 12.4349   3
  -2   4  -1 15.9673 5.97735   9
   2  -4   1-14.4501 19.6706  16
  -2  -4  -1 11.3366 31.4360   5
  -2  -4  -1 24.0263 27.4422   4
   2  -4   2 66.6785 30.9361   8
   2  -4   2 49.9556 24.0892  16
   2  -4   2 96.8014 35.1409   7
  -2   4  -2 58.0840 31.6319  15
  -2  -4  -2 95.4981 40.8507   8
  -2  -4  -2 37.1615 30.6555   1
  -2   4  -2 114.835 46.0844  14
   2  -4   2 50.6439 14.7811  13
   2  -4   2 64.0317 33.1174   2
   2   4   2 94.4192 35.7056  13
  -2   4  -2 45.4559 18.0796   1
   2  -4   2 72.0995 35.4436   6
   2   4   2 37.1321 30.1212  12
  -2   4  -2 74.6628 35.7313  11
  -2   4  -2 73.6747 30.8074  10
   2  -4   2 71.2247 42.6501   3
  -2  -4  -2 57.0774 32.8069   4
   2   4   2 83.3597 18.7558   3
  -2   4  -2 67.5705 28.1025   9
   2   4   2 43.3300 18.6578   2
  -2  -4  -2 80.6937 34.9501   5
  -2  -4  -3 579.902 104.800   4
   2   4   3 514.844 82.5234   2
   2  -4   3 542.681 92.3548  16
  -2  -4  -3 487.117 104.870   7
   2   4   3 511.861 80.8615  16
  -2  -4  -3 400.060 86.7386  15
   2   4   3 559.109 104.146  13
  -2  -4  -3 413.171 90.3636   1
  -2   4  -3 652.357 108.926  14
   2  -4   3 534.964 63.0673  13
   2  -4   3 590.170 106.455   3
   2  -4   3 528.572 98.4925   6
   2   4   3 277.784 103.945  12
  -2   4  -3 596.398 95.2480  15
  -2  -4  -3 567.434 99.4245   5
   2  -4   3 720.736 119.847   2
   2  -4   3 565.724 78.0827   8
  -2  -4  -3 577.363 85.8871   8
  -2   4  -3 637.824 102.811   1
   2   4   4 2766.45 204.796   2
  -2  -4  -4 2625.73 230.351   4
   2  -4   4 2708.72 233.338  16
  -2   4  -4 2871.87 229.314  15
   2  -4   4 2438.07 291.166   6
   2  -4   4 2281.07 564.047   2
   2   4   4 2634.03 193.896  16
  -2   4  -4 2932.44 245.772  14
   2  -4   4 2827.14 253.284   3
   2   4   4 2684.02 228.498  13
  -2  -4  -4 2761.98 231.999   5
   2   4   4 2748.22 184.651  10
   2   4   4 2801.86 198.810   9
  -2  -4  -4 2851.28 193.125   8
   2  -4   4 3006.33 193.319   8
   2   4   5 23.2478 14.7380  16
  -2  -4  -5 6.98677 2.00206   7
  -2  -4  -5 4.72599 19.1814   4
   2   4   5 26.2788 16.4750   2
   2   4   5-1.66004 22.2677  13
  -2  -4  -5 5.95821 14.0000  15
   2   4   5 10.1255 12.1511  10
  -2  -4  -5 41.8968 8.95486   5
   2   4   5 27.5928 16.1006   9
   2   4   5-5.17770 16.0434  12
  -2  -4  -5 10.4205 31.1354   1
  -2  -4  -5 10.6120 13.6579   8
   2   4   6 123.256 46.2184  16
  -2  -4  -6 170.859 60.4770   4
   2   4   6 70.9442 28.1912   2
  -2  -4  -6 84.0089 48.8624   7
  -2  -4  -6 112.811 64.0496  15
   2   4   6 87.9219 37.0143  13
  -2  -4  -6 18.9082 60.1815   1
   2   4   6 96.1666 73.2767  12
  -2  -4  -6 139.470 55.1753   5
   2   4   6 159.083 54.9323   9
  -2  -4  -7 271.003 86.2330   4
   2   4   7 392.624 95.0271  16
  -2  -4  -7 143.891 78.6662   7
  -2  -4  -7 283.056 105.366  15
   2   4   7 419.636 109.791  13
  -2  -4  -7 367.549 109.988   5
   2  -5  -2 3840.25 210.193   2
   2  -5  -2 4175.43 281.141   7
   2  -5  -2 4190.97 299.674   6
  -2   5   2 3926.38 216.759   1
   2  -5  -2 4136.50 277.536   3
   2  -5  -1 39.7770 19.3361   7
  -2   5   1 40.1898 36.3959  14
   2  -5  -1 53.7414 33.3904   6
  -2   5   1 60.6137 31.9225   1
  -2   5   1 29.5371 25.1644  11
  -2   5   1 48.3577 28.8584  10
   2  -5  -1 42.0897 25.9620   2
   2  -5  -1 42.0420 19.6127   3
   2  -5  -1 53.7916 33.1586   8
   2  -5   0 4609.42 234.710   2
   2  -5   0 4507.80 249.155  16
  -2   5   0 4858.78 259.933  15
   2  -5   0 4603.50 292.750   6
   2  -5   0 4494.14 280.868   3
  -2   5   0 4387.45 171.921  12
  -2   5   0 4450.82 292.964  11
  -2   5   0 4673.09 293.082  14
  -2   5   0 4828.94 238.300   1
  -2   5   0 4622.94 267.541  10
   2  -5   0 4650.29 260.201   7
   2  -5   0 4459.86 257.592   8
  -2   5  -1 1469.33 166.217  14
  -2   5  -1 1494.40 137.644   1
   2  -5   1 1446.43 139.987  16
   2  -5   1 1370.75 159.834   6
   2  -5   1 1289.08 138.085   7
   2  -5   1 1497.59 168.183   3
  -2   5  -1 1394.95 164.968  11
  -2   5  -1 1191.36 112.384  15
  -2   5  -1 1393.11 142.074  10
  -2   5  -1 1427.79 146.225   9
   2  -5   1 1416.70 141.862   8
   2  -5   1 1342.25 132.540   2
   2  -5   2 162.970 46.9540   8
   2  -5   2 92.0410 32.6501  16
   2  -5   2 133.536 45.4874   7
  -2   5  -2 117.628 40.1720  15
   2  -5   2 115.446 44.3327   2
  -2  -5  -2 164.247 62.2374   4
   2   5   2 118.764 48.2029  13
   2  -5   2 175.374 53.5988   6
  -2  -5  -2 127.243 45.2285   8
  -2   5  -2 78.1997 27.4442  11
   2  -5   2 123.844 44.0165   3
  -2   5  -2 131.025 42.3770  10
  -2   5  -2 111.116 41.1667  14
  -2   5  -2 168.560 50.6510   1
  -2  -5  -2 56.5258 39.9743   1
   2   5   2 123.588 46.7047   2
  -2   5  -2 153.725 46.7104   9
  -2  -5  -2 140.664 50.1614   5
   2   5   3 545.403 88.0216   2
  -2   5  -3 546.163 96.8474  15
  -2  -5  -3 443.671 95.9151   1
  -2  -5  -3 478.970 99.7853   4
   2  -5   3 460.459 100.731   6
  -2  -5  -3 356.046 107.095   7
   2  -5   3 448.083 82.5278  16
   2  -5   3 507.794 57.6536  13
   2   5   3 575.142 112.207  13
   2   5   3 192.111 101.216  12
   2  -5   3 517.771 104.702   3
  -2   5  -3 514.919 102.281  14
   2  -5   3 178.561 124.961   2
  -2  -5  -3 510.265 104.931   5
   2  -5   3 609.324 96.5883   8
  -2  -5  -3 538.810 96.9072   8
  -2  -5  -4-24.2974 19.3146   8
   2  -5   4-32.3430 33.9712  16
   2   5   4 22.5420 19.4611  16
   2  -5   4-18.4053 33.4222   8
  -2   5  -4 12.3204 13.6729  15
  -2  -5  -4 3.76918 28.5728  15
  -2  -5  -4 48.3794 36.7586   4
  -2   5  -4 43.3575 36.1417  14
   2  -5   4-50.7967 72.4432   6
   2   5   4 9.75785 18.1743  13
   2  -5   4-13.0082 10.7332   3
   2   5   4 56.4342 36.7447   2
  -2  -5  -4 18.7063 34.0210   1
   2   5   4-3.48143 34.1930  12
  -2  -5  -4-50.1924 45.9757   7
   2   5   4-54.3381 49.5936  10
  -2  -5  -4 66.4556 47.6267   5
   2   5   4-49.0747 31.0994   9
   2   5   6 1543.38 163.665  16
  -2  -5  -6 1337.45 168.036   7
   2   5   6 849.115 320.345   2
   2   5   6 1610.07 204.066  13
  -2  -5  -6 1497.66 189.568   5
   2   5   6 1538.07 169.502   9
  -2  -5  -6 1491.66 194.926   4
   2   5   7 52.1729 50.5951  13
  -2  -5  -7 27.5921 22.0467   4
  -2  -5  -7 61.3342 23.4600  15
   2   5   7 34.2480 36.1602  16
   2   5   7 25.4079 60.3610  12
  -2  -5  -7 8.42063 24.5633   7
  -2  -5  -7-9.19481 26.7057   5
   2   5   7 18.8698 9.70117   9
   2   5   8 102.439 41.7205  13
   2  -6  -2 960.738 97.1426   2
   2  -6  -2 985.573 141.647   7
   2  -6  -2 1036.91 138.545   3
   2  -6  -2 1066.39 153.261   6
  -2   6   2 982.613 105.241   1
   2  -6  -1 539.457 75.8733   2
  -2   6   1 568.248 78.5748   1
   2  -6  -1 483.892 95.1551   7
  -2   6   1 565.362 116.258  14
  -2   6   1 526.888 74.0739  12
   2  -6  -1 508.526 104.291   6
  -2   6   1 553.884 119.516  11
  -2   6   1 587.474 111.234  10
   2  -6  -1 567.238 105.024   3
   2  -6  -1 554.586 104.656   8
   2  -6   0 188.092 63.2006   8
  -2   6   0 189.250 50.1924   1
   2  -6   0 130.637 46.1011   7
   2  -6   0 121.651 33.7292   2
  -2   6   0 79.9551 38.9906  11
   2  -6   0 118.883 21.5840   6
  -2   6   0 170.132 44.8502  12
  -2   6   0 92.6013 27.0993  14
  -2   6   0 104.720 32.1827  10
   2  -6   0 176.023 55.2287   3
  -2   6   0 169.307 50.9180   9
   2  -6   1 141.193 55.0039   8
   2  -6   1 207.788 64.3718   7
   2  -6   1 196.411 63.1209   2
  -2   6  -1 129.838 33.9646  15
  -2   6  -1 137.204 54.8414  14
   2  -6   1 155.089 43.3271  16
   2  -6   1 160.692 58.8629   6
   2  -6   1 220.469 77.9674   3
  -2   6  -1 155.514 61.7422  11
  -2   6  -1 175.928 48.4952   1
  -2   6  -1 162.238 55.1774  10
  -2   6  -1 140.462 43.9616   9
   2  -6   2 30.9532 24.9410   8
   2  -6   2-7.20169 14.6719  16
  -2  -6  -2 52.0550 53.0248   8
   2  -6   2 38.8655 3.53587   7
  -2   6  -2-8.16503 17.6363  15
  -2  -6  -2 74.8300 47.5356   4
  -2   6  -2-20.4468 29.0003  14
  -2  -6  -2 22.8340 47.6475   1
  -2   6  -2 8.38569 20.7018  11
   2  -6   2 13.1558 11.2593   3
  -2   6  -2 48.9991 31.7724  10
   2   6   2 21.9106 15.5165   2
  -2   6  -2 54.6552 33.4650   9
  -2  -6  -2 1.58296 37.4508   5
   2  -6   2 7.90936 32.0025   6
   2  -6   3 8.12112 28.9290   8
  -2  -6  -3-1.79606 10.2703   8
  -2  -6  -3 16.3747 25.6843   1
   2  -6   3 40.2524 33.2807   6
  -2  -6  -3 32.8007 11.6885   4
  -2   6  -3 16.5722 32.8533  14
  -2   6  -3 25.9252 32.3837  15
   2   6   3 19.5103 18.2211  13
   2  -6   3 16.5924 9.98332  16
   2  -6   3 54.4580 42.3540   3
   2   6   3 5.26226 24.1879  12
   2   6   3 13.3639 16.5608   2
  -2  -6  -3-16.1656 20.7553   5
  -2  -6  -4 75.2474 30.8271   8
   2  -6   4 50.5494 11.4355   8
   2  -6   4 83.8598 62.4939  16
  -2  -6  -4 48.6267 51.3152   7
  -2  -6  -4 4.71916 13.6615   1
  -2   6  -4 57.5155 32.1739  15
  -2   6  -4 75.8873 43.8654  14
  -2  -6  -4 92.9585 32.6023   4
   2  -6   4 110.167 109.018   6
   2   6   4 136.281 50.4558   2
   2   6   4 96.3975 51.2651  13
   2   6   4-0.12847 62.7506  12
   2   6   4 60.6344 46.8804  10
  -2  -6  -4 142.274 59.3816   5
   2   6   4 153.015 60.5557   9
   2   6   5 793.899 113.531  16
  -2  -6  -5 609.263 125.696  15
  -2  -6  -5 493.468 118.735   7
   2   6   5 721.447 130.529  13
   2   6   5 308.598 145.822  12
   2   6   5 740.671 126.449  10
  -2  -6  -5 712.728 135.322   5
   2   6   5 677.961 115.104   9
  -2  -6  -5 757.914 125.503   8
   2   6   5 875.007 137.074   2
  -2  -6  -5 658.906 163.589   1
  -2  -6  -5 849.487 147.041   4
   2   6   6 1622.95 162.673  16
   2   6   6 1692.39 208.828  13
  -2  -6  -6 1636.30 210.501   5
   2   6   6 1497.75 169.770  10
   2   6   6 1649.87 189.909   9
  -2  -6  -6 1646.84 190.501   8
  -2  -6  -6 1649.52 218.456   4
  -2  -6  -7 5.95451 15.0433   4
  -2  -6  -7-16.2045 20.6427  15
  -2  -6  -7 65.3726 68.6236   7
   2   6   7 104.160 52.9064  13
   2   6   7 3.97500 69.3973  12
  -2  -6  -7-66.8033 66.5896   5
   2   6   7-37.3896 41.7128   9
   2   6   8 290.793 105.575  13
   2   6   8 47.1453 168.725  12
  -2  -6  -8 80.1206 59.8715   5
   2  -7  -3 0.29714 21.5294   7
   2  -7  -3-35.2681 50.1497   6
   2  -7  -3 10.8015 35.4112   3
   2  -7  -2 196.282 69.5690   7
  -2   7   2 188.181 46.2914  12
   2  -7  -2 279.596 89.7210   6
  -2   7   2 254.817 102.357  11
  -2   7   2 172.156 53.7091  10
   2  -7  -2 249.279 56.2459   3
   2  -7  -2 165.819 55.7775   8
  -2   7   1 1042.33 149.434  14
   2  -7  -1 949.361 151.416   6
   2  -7  -1 1022.84 148.941   3
   2  -7  -1 1048.22 148.172   7
  -2   7   1 907.760 153.904  11
  -2   7   1 876.139 140.221  10
  -2   7   1 913.773 152.116   9
   2  -7  -1 954.449 153.423   8
   2  -7   0 25.0709 14.6508   8
   2  -7   0 110.276 39.9997   7
  -2   7   0-42.8139 36.4842  14
   2  -7   0 15.7522 25.4897   6
  -2   7   0 39.9153 36.6059  11
   2  -7   0 67.3831 46.9703   3
  -2   7   0 33.8894 28.9828  10
  -2   7   0 36.4447 13.8810   9
   2  -7   1 391.217 85.2682   8
   2  -7   1 411.794 93.4609  16
   2  -7   1 317.607 82.3902   7
  -2   7  -1 402.101 95.4770  14
   2  -7   1 323.967 86.6516   6
  -2   7  -1 371.551 94.4715  11
   2  -7   1 350.576 91.3037   3
  -2   7  -1 290.383 68.7548  10
  -2   7  -1 328.447 85.5582   9
   2  -7   2-2.40798 33.5309   8
  -2  -7  -2-13.0662 48.2931   8
   2  -7   2-14.5889 29.8636  16
  -2   7  -2 13.7426 23.1688  15
  -2   7  -2 42.8926 36.2509  14
   2  -7   2 31.6185 15.3758   7
  -2  -7  -2-62.6497 68.2855   4
   2  -7   2-1.98413 29.4491   6
   2  -7   2-34.4336 44.4118   3
  -2   7  -2 2.90610 20.4754  11
  -2   7  -2-30.1701 38.1811  10
  -2   7  -2 30.9029 44.6774   9
  -2  -7  -2-81.1841 55.9379   5
  -2  -7  -3 1456.99 204.241   4
   2  -7   3 1333.06 189.503  16
  -2   7  -3 1205.99 161.433  15
  -2   7  -3 1247.41 184.963  14
   2  -7   3 1365.18 222.548   6
   2  -7   3 1047.94 211.455   3
   2   7   3 1085.59 169.676  13
  -2   7  -3 1192.46 181.194  11
  -2  -7  -3 1288.47 200.214   5
   2  -7   3 1005.35 170.544   8
  -2  -7  -3 1138.38 171.700   8
  -2  -7  -4 21.1369 37.7879   8
  -2  -7  -4-10.2750 57.0330   7
  -2  -7  -4 32.0959 36.3167   4
   2   7   4 41.2217 42.3795  13
   2   7   4 0.14597 47.2136  12
   2   7   4-41.1602 39.0884  10
  -2  -7  -4 49.5838 44.0349   5
   2   7   4-10.6520 22.2800   9
  -2  -7  -5 682.138 128.164   8
  -2  -7  -5 511.861 144.310   7
  -2  -7  -5 714.482 140.862   4
   2   7   5 277.274 147.544  12
   2   7   5 607.357 128.538  10
  -2  -7  -5 663.297 138.044   5
   2   7   5 706.788 131.857   9
   2   7   5 785.071 149.349  13
  -2  -7  -6 214.185 97.0337   7
   2   7   6 391.335 106.535  13
   2   7   6 90.5770 77.3802  12
  -2  -7  -6 245.150 69.6898   4
   2   7   6 251.982 83.6696  10
  -2  -7  -6 244.071 85.3232   5
   2   7   6 361.418 100.736   9
  -2  -7  -6 352.954 94.5559   8
  -2  -7  -7 459.196 132.470   4
  -2  -7  -7 120.147 84.2071   7
   2   7   7 323.159 97.0634  13
   2   7   7 98.1052 106.270  12
  -2  -7  -7 397.711 119.195   5
   2   7   7 178.838 64.5804   9
   2   7   8 188.605 69.6917  13
   2   7   8 51.3123 55.5608  12
  -2  -7  -8 157.370 111.883   5
   2  -8  -3 115.651 61.8085   7
  -2   8   3-30.9181 49.7497  12
   2  -8  -3 26.7056 36.0187   6
   2  -8  -3 26.2309 39.0292   3
   2  -8  -2-27.4527 47.7907   7
   2  -8  -2 19.5057 7.84255   6
  -2   8   2-34.3647 20.6427  11
   2  -8  -2-0.35962 25.2218   3
  -2   8   2-8.47608 11.0805  10
   2  -8  -2-28.4045 13.0513   8
   2  -8  -1 1.65950 51.3221   8
   2  -8  -1 81.1059 30.6381   7
  -2   8   1 61.2940 28.5139  14
   2  -8  -1 1.35069 26.7554   6
  -2   8   1 75.5029 36.2979  11
   2  -8  -1 114.359 58.9740   3
  -2   8   1 135.172 67.4354  10
  -2   8   1 124.847 54.7040   9
   2  -8   0 101.206 50.3922   8
  -2   8   0 47.8955 36.7547  14
   2  -8   0 90.7232 44.1403   7
   2  -8   0 32.5299 67.8850   6
  -2   8   0 110.478 32.5913  11
   2  -8   0 64.7547 29.5110   3
  -2   8   0 132.708 59.2815  10
  -2   8   0 120.995 54.3369   9
   2  -8   1 2.54489 35.5805   8
   2  -8   1-41.4262 55.6356   7
  -2   8  -1 51.7689 42.3064  14
   2  -8   1-9.96580 46.3382   6
   2  -8   1 17.6329 56.9856   3
  -2   8  -1-40.6156 34.0433  11
  -2   8  -1-18.3112 42.1496  10
  -2   8  -1-8.11638 23.2389   9
   2  -8   2 128.588 57.5964   8
   2  -8   2 157.817 62.2258   6
   2  -8   2 190.271 71.3862   3
  -2   8  -2 177.538 71.0507  11
  -2   8  -2 127.733 66.0633  10
  -2   8  -2 217.190 72.5776  14
  -2  -8  -3 2205.77 285.653   4
   2  -8   3 823.526 204.663   8
  -2   8  -3 1264.00 203.330  14
   2  -8   3 1239.31 263.582   6
  -2   8  -3 1016.96 181.290  11
  -2  -8  -3 1813.16 271.115   5
  -2  -8  -3 1731.39 246.791   8
  -2  -8  -4 6.75847 32.0799   8
  -2  -8  -4 52.1859 20.3343   7
   2   8   4 80.0999 51.1883  13
   2   8   4 14.7514 25.4884  12
  -2  -8  -4 58.0689 23.8584   4
   2   8   4 74.9453 51.4353  10
  -2  -8  -4 139.144 75.4672   5
  -2  -8  -5 65.9768 55.0326   8
  -2  -8  -5 1.99813 40.4541   7
  -2  -8  -5 104.036 58.2935   4
   2   8   5 94.8129 47.8284  13
   2   8   5-16.5675 37.3495  12
   2   8   5 85.2262 52.2467  10
   2   8   5 49.3293 33.5704   9
  -2  -8  -6 35.2618 28.9517   8
  -2  -8  -6 4.52160 28.6042   4
  -2  -8  -6-69.7065 46.7833   7
   2   8   6-24.9815 42.0231  13
   2   8   6-3.20709 6.48382  12
   2   8   6-76.7976 65.1606  10
  -2  -8  -6-15.3181 41.1409   5
   2   8   6-20.4956 64.7428   9
  -2  -8  -7 1038.85 210.433   4
  -2  -8  -7 526.942 178.709   7
   2   8   7 698.313 141.071  13
   2   8   7 347.332 173.160  12
  -2  -8  -7 721.839 166.762   5
   2   8   7 626.642 167.423   9
   2   8   8-29.4159 44.8058  13
   2   8   8-23.2107 59.5224  12
  -2  -8  -8 13.1787 17.4783   5
   2  -9  -3-52.4253 70.4331   7
   2  -9  -3 5.94371 43.5732   6
   2  -9  -3 6.91027 25.1422   3
  -2   9   3 67.4749 70.8766   9
   2  -9  -2 1054.78 198.747   6
   2  -9  -2 988.785 164.991   3
  -2   9   2 935.440 183.590  11
   2  -9  -2 1101.10 189.385   7
  -2   9   2 890.545 168.688  10
  -2   9   2 969.883 179.939   9
   2  -9  -2 1079.75 188.334   8
   2  -9  -1-46.1775 46.0267   8
   2  -9  -1 83.3311 57.2192   7
  -2   9   1 76.9855 60.9673  14
   2  -9  -1 57.4429 55.4154   6
   2  -9  -1 150.239 62.2989   3
  -2   9   1-9.20785 27.6987  11
  -2   9   1 63.1900 46.0634  10
  -2   9   1 68.9514 52.7725   9
   2  -9   0 150.054 67.7574   8
   2  -9   0 56.2487 43.6462   7
  -2   9   0 61.7447 28.4131  14
   2  -9   0 43.2173 39.5529   6
   2  -9   0 138.106 66.2621   3
  -2   9   0 175.669 81.0676  11
  -2   9   0 73.7456 52.5638  10
  -2   9   0 58.4921 33.5423   9
   2  -9   1 60.3799 55.9816   8
   2  -9   1 58.9021 55.2726   7
  -2   9  -1 65.9684 18.2319  14
   2  -9   1 79.3267 47.9884   6
   2  -9   1 0.19295 31.7359   3
  -2   9  -1 106.488 54.6492  11
  -2   9  -1 104.416 74.4439  10
  -2   9  -1 59.8936 37.3941   9
   2  -9   2 147.445 89.9915   8
  -2   9  -2 44.8949 41.2951  14
   2  -9   2-29.3162 59.5688   6
  -2   9  -2 103.747 60.0312  11
  -2   9  -2 102.574 65.7937  10
  -2  -9  -3 73.1736 70.9287   8
  -2  -9  -3 90.4633 45.2616   4
   2   9   3 73.5111 41.0245  10
  -2  -9  -3 139.424 111.450   5
  -2  -9  -4-19.8966 43.3784   8
  -2  -9  -4-76.2597 38.2355   4
   2   9   4-65.0568 57.0405  10
  -2  -9  -4 73.3773 59.2745   5
  -2  -9  -5 31.2653 24.1127   8
  -2  -9  -5 49.3614 89.2602   7
   2   9   5-61.4640 57.3341  13
   2   9   5-94.3713 98.3031  12
   2   9   5-9.60964 52.0067  10
  -2  -9  -5-18.1250 44.7302   5
  -2  -9  -5 84.3374 71.1120   4
   2   9   5 30.1348 13.3773   9
  -2  -9  -6-27.4354 44.4935   8
  -2  -9  -6 166.451 95.5004   4
  -2  -9  -6 181.105 133.527   7
   2   9   6 264.518 103.049  13
   2   9   6 37.7294 102.451  12
   2   9   6 18.5072 54.4982  10
  -2  -9  -6-25.2112 56.8526   5
   2   9   6 119.943 86.2321   9
  -2  -9  -7 377.091 138.718   4
   2   9   7 344.267 98.1301  13
   2   9   7 169.085 149.479  12
  -2  -9  -7 260.815 105.832   5
  -2  -9  -7 95.3086 31.3110   7
   2   9   7-21.3733 94.2099   9
  -2  -9  -7 222.098 85.9126   8
   2   9   8 10.2284 59.8825  12
  -2  -9  -8 225.417 137.844   5
   2 -10  -3-27.0887 22.6854   7
   2 -10  -3 16.8403 64.8571   6
  -2  10   3-3.52598 68.2890   9
   2 -10  -3 30.8693 49.7574   8
   2 -10  -2 429.064 118.064   7
   2 -10  -2 446.904 127.116   6
  -2  10   2 372.012 118.140  11
  -2  10   2 384.657 112.288  10
  -2  10   2 439.061 137.055   9
   2 -10  -2 417.713 113.021   8
   2 -10  -1-24.4934 41.7691   8
   2 -10  -1 39.7670 47.4748   7
   2 -10  -1 89.6071 67.4907   6
   2 -10  -1 39.9558 30.6973   3
  -2  10   1 24.4949 46.1549  11
  -2  10   1-117.542 96.8879  10
  -2  10   1 16.8609 34.8907   9
   2 -10   0 127.480 72.9204   8
   2 -10   0-67.0783 78.8326   7
  -2  10   0 37.1441 13.5749  14
   2 -10   0 13.9598 36.4460   6
  -2  10   0 41.9161 37.7460  11
  -2  10   0 49.9247 33.8687  10
  -2  10   0 100.895 70.5575   9
   2 -10   1 510.851 143.320   8
   2 -10   1 837.025 195.685   6
  -2  10  -1 556.876 130.333  14
  -2  10  -1 886.031 198.791  11
   2 -10   1 917.503 219.803   7
  -2  10  -1 615.644 132.427  10
   2 -10   2 114.252 103.566   6
  -2  10  -2 129.210 60.6126  11
  -2 -10  -4-85.8591 89.1901   8
   2  10   4 76.2004 68.2798  10
  -2 -10  -4 97.0598 100.945   5
  -2 -10  -5 15.3434 43.6893   8
  -2 -10  -5 187.116 65.1078   4
   2  10   5 143.140 39.8754  10
  -2 -10  -5 25.0865 40.7144   5
  -2 -10  -6-62.6287 75.4155   8
  -2 -10  -6 6.64289 63.1374   7
  -2 -10  -6 9.30517 60.5826   4
   2  10   6 28.6889 21.0733  13
   2  10   6-5.08676 38.9563  12
   2  10   6-78.4615 63.8163  10
  -2 -10  -6-89.0386 96.7324   5
   2  10   6 27.5178 54.0656   9
   2 -11  -3 11.5471 69.8790   7
   2 -11  -3 67.3546 57.1823   6
  -2  11   3 90.6292 4.53186   9
   2 -11  -2-19.8440 52.1511   7
   2 -11  -2-104.290 93.4819   6
  -2  11   2 37.1521 6.82826  10
  -2  11   2 132.868 51.6235   9
   2 -11  -2-59.4241 80.7312   8
   2 -11  -1 79.3914 32.2542   8
   2 -11  -1 251.145 91.3496   7
   2 -11  -1 169.839 72.7008   6
  -2  11   1 119.140 97.9603  11
  -2  11   1 276.646 83.2237  10
  -2  11   1 114.899 81.9624   9
   2 -11   0-60.3662 42.7142   8
   2 -11   0-18.7025 77.1068   7
   2 -11   0 78.6161 69.9193   6
  -2  11   0-70.9798 68.7968  11
  -2  11   0-39.2888 16.3386  10
  -2  11   0-71.4438 64.7794   9
   2 -11   1 71.7913 180.675   8
   2 -11   1-9.62163 50.8262   6
  -2  11  -1 94.8812 82.8653  11
  -2  11  -1 1.86703 53.3283  10
   3   0   1-31.9300 32.5075  16
  -3   0  -1-83.9654 56.8247  15
  -3   0  -1 9.22048 12.4518   4
  -3   0  -1-47.4972 34.1178   1
   3   0   1 14.3387 30.0008   3
   3   0   1-53.5360 26.0071   2
  -3   0  -2 1192.25 144.188   4
   3   0   2 1111.76 146.814  16
   3   0   2 1165.33 150.197   2
  -3   0  -2 1147.46 154.410  15
  -3   0  -2 1153.98 155.646   1
   3   0   2 1147.01 100.607   6
   3   0   2 1278.59 155.560  13
   3   0   2 1116.91 134.878   3
  -3   0  -2 1321.12 159.502  14
  -3   0  -2 1153.95 107.020   5
  -3   0  -3 16.2688 18.3301   4
  -3   0  -3-23.1085 13.8273  14
  -3   0  -3-15.4415 26.7052  15
   3   0   3 9.76539 13.5621  13
   3   0   3 6.09830 7.41368   6
   3   0   3-36.2204 30.7820  16
   3   0   3 9.62859 21.9172   2
   3   0   3-28.1939 25.9479   3
  -3   0  -3 9.31954 10.4184   1
  -3   0  -3-22.9845 18.1902   5
  -3   0  -4 4.59934 11.4046   1
  -3   0  -4 19.7050 24.8908   4
  -3   0  -4 17.5626 16.3455  15
  -3   0  -4 3.61388 26.4600  14
   3   0   4 17.4293 12.5787  16
   3   0   4-10.9328 16.9953   6
   3   0   4-0.83406 13.2984  13
   3   0   4 10.4999 24.8369   3
  -3   0  -4 42.4417 20.4374   5
   3   0   5 14.5122 27.1066  16
  -3   0  -5-30.0121 21.8456   4
  -3   0  -5-15.0645 28.7195  15
  -3   0  -5 31.9668 21.5425  14
   3   0   5 26.4131 32.7786  13
   3   0   5 17.3492 17.5589   2
  -3   0  -5 15.0714 23.7151   1
   3   0   5-34.3479 16.7151  12
   3   0   5-70.3318 39.1728   3
  -3   0  -6 2384.39 254.661   1
   3   0   6 2494.57 255.595  16
  -3   0  -6 2215.62 244.345  15
  -3   0  -6 2509.58 233.804  14
   3   0   6 2541.47 249.925  13
   3   0   6 2376.73 208.410  12
   3   0   6 2451.01 254.410   2
  -3   0  -6 2559.14 252.541   4
   3   0   7-33.7981 41.7411  16
  -3   0  -7 61.4802 50.0372  15
   3   0   7 104.362 85.8261   2
   3   0   7 73.4595 83.3083  13
  -3   0  -7 52.5468 20.1085  14
   3   0   7 206.994 132.820  12
  -3   0  -7 66.3440 70.5129   1
   3  -1   1 13.1789 24.1261  16
  -3   1  -1 71.5561 43.2127  15
  -3   1  -1 21.2885 26.2376   4
  -3   1  -1 30.0693 37.6608  14
   3  -1   1 28.2723 19.3568   6
   3  -1   1 40.4611 33.9873   3
   3  -1   1 47.0143 34.0541   2
  -3   1  -1 41.6259 20.8519   5
  -3   1  -1-0.10272 11.8207   1
  -3  -1  -2 576.958 111.059   4
   3   1   2 626.433 115.270   2
  -3   1  -2 409.059 92.2244  15
  -3  -1  -2 509.786 111.050  15
  -3   1  -2 398.357 80.5884   4
  -3  -1  -2 604.677 117.917   1
  -3   1  -2 380.920 83.3604  14
   3   1   2 740.142 110.964   3
   3  -1   2 435.218 89.0083  13
   3  -1   2 381.640 64.3066   6
  -3   1  -2 323.311 46.4021   5
  -3  -1  -2 664.040 104.279   5
   3  -1   2 401.307 89.9827  16
  -3   1  -2 325.938 80.2905   1
   3  -1   2 441.208 92.2143   2
   3  -1   2 401.242 82.6132   3
  -3   1  -3 3328.30 234.143   4
  -3  -1  -3 3262.17 253.942   4
   3  -1   3 3372.48 262.897   2
   3   1   3 3380.52 257.542   2
   3  -1   3 3148.72 255.287  16
   3   1   3 3503.40 265.471  16
  -3   1  -3 3401.47 268.062  15
  -3  -1  -3 3384.31 263.796  15
  -3   1  -3 3431.99 270.182   1
  -3  -1  -3 3286.30 264.030   1
  -3   1  -3 3449.90 258.392  14
  -3  -1  -3 3687.18 253.503  14
   3   1   3 3257.85 143.798   6
   3  -1   3 3574.58 207.067   6
   3  -1   3 3517.40 248.545  13
   3   1   3 3472.83 263.541  13
   3  -1   3 3369.91 249.947   3
   3   1   3 3456.72 231.489   3
  -3   1  -3 3471.16 159.313   5
  -3  -1  -3 3463.45 213.213   5
  -3   1  -4 401.607 97.8715   1
   3  -1   4 367.189 90.6279  16
  -3   1  -4 364.275 80.7792   4
  -3   1  -4 352.425 83.5245  15
  -3  -1  -4 286.607 69.2193  15
  -3  -1  -4 327.157 78.5037   4
  -3  -1  -4 321.313 85.0037   1
  -3   1  -4 343.992 80.7761  14
  -3  -1  -4 338.314 77.6854  14
   3  -1   4 429.166 77.3764   6
   3  -1   4 302.711 73.9015  13
   3   1   4 342.261 87.5050  13
   3   1   4 406.632 96.0791  16
   3  -1   4 360.826 90.2576   2
   3   1   4 273.425 71.6941   2
   3  -1   4 304.499 70.2635   3
   3   1   4 311.431 63.9502   3
  -3  -1  -4 357.379 69.4046   5
  -3   1  -5 239.086 68.8247   4
   3   1   5 177.555 60.0885  16
   3  -1   5 306.082 88.4925  16
  -3  -1  -5 162.680 53.6485   4
  -3  -1  -5 330.903 97.0596  15
  -3   1  -5 189.499 65.8494  14
  -3   1  -5 227.589 67.2900   1
  -3  -1  -5 267.994 73.0808  14
  -3   1  -5 198.557 73.6428  15
   3  -1   5 136.456 43.3160  13
   3   1   5 228.956 66.7284  13
   3  -1   5 228.608 70.3722   2
   3   1   5 223.927 87.5139   2
   3   1   5 184.869 51.5048  12
   3   1   5 222.999 56.9507   3
   3  -1   5 299.220 80.7895   3
  -3   1  -5 300.688 69.9470  11
  -3  -1  -5 237.919 71.0770   1
  -3  -1  -5 235.276 55.4584   5
  -3  -1  -6 653.371 136.979   1
   3  -1   6 710.017 136.646  16
   3   1   6 602.508 120.948  16
  -3  -1  -6 587.594 120.912   4
  -3   1  -6 497.056 104.087  15
  -3  -1  -6 680.971 134.648  15
  -3   1  -6 523.952 104.646  14
   3  -1   6 653.948 122.400   2
  -3  -1  -6 599.102 105.187  14
   3   1   6 571.350 116.226   2
   3  -1   6 709.518 132.543  13
   3   1   6 543.260 114.614  13
   3  -1   6 464.341 118.711   3
   3   1   6 645.739 112.440  12
  -3   1  -6 504.494 85.4781  11
  -3   1  -6 632.174 132.580   1
  -3  -1  -7 24.9127 43.9291   4
   3  -1   7 130.529 88.8829  16
   3   1   7 71.5595 44.6610  16
   3  -1   7 242.416 148.000   2
   3   1   7 36.2043 46.1069   2
  -3   1  -7 124.751 54.7807  15
  -3   1  -7 127.647 56.2752  14
  -3  -1  -7 58.3111 49.5876  14
   3  -1   7 37.9028 87.1466  13
   3   1   7-13.7753 35.5248  13
  -3  -1  -7 78.6730 38.6518  15
  -3   1  -7-24.2970 50.9881   1
   3   1   7 115.495 49.2708  12
  -3  -1  -7 72.7201 52.4468   1
   3   1   8 240.909 126.431  16
   3   1   8-84.2924 52.6993  13
  -3  -1  -8 129.064 83.1641  15
   3  -2   1 205.360 60.7320  16
   3  -2   1 255.012 42.2048   7
  -3   2  -1 198.413 55.6894   4
  -3   2  -1 174.739 55.9939  14
  -3   2  -1 193.381 66.2904   1
   3  -2   1 225.318 61.1891   6
  -3   2  -1 225.547 65.1195  15
  -3   2  -1 213.972 32.2130   5
   3  -2   1 208.142 58.2739   2
   3  -2   1 160.401 49.6778   3
   3   2   2 61.5346 46.0568  16
   3  -2   2 15.9408 12.9214   7
  -3   2  -2-18.7052 22.4812   1
  -3   2  -2-1.54131 6.16055  15
   3  -2   2 57.7265 31.4461  16
  -3   2  -2 19.8880 13.9382   4
  -3  -2  -2 38.2007 27.0675  15
  -3  -2  -2 26.6209 9.64171   4
  -3   2  -2 51.7612 44.7141  14
  -3  -2  -2 34.0088 17.5981   8
   3  -2   2 35.2942 28.0508  13
   3   2   2 44.2463 40.9709  13
  -3  -2  -2 57.7092 20.3528   1
   3  -2   2 41.2156 23.8494   6
   3   2   2-13.2840 11.2729   6
   3  -2   2 31.7228 29.5561   2
   3  -2   2 29.7991 32.9993   3
   3   2   2 21.1048 20.8725   3
   3   2   2 85.2958 48.0078   2
  -3  -2  -2 23.1236 7.02481   5
  -3  -2  -3 1946.86 207.302   4
   3  -2   3 1929.32 198.827   2
   3  -2   3 1840.03 197.850  16
   3   2   3 2009.99 200.646   2
   3   2   3 1968.59 201.024  16
  -3   2  -3 2000.25 206.744   1
  -3   2  -3 1989.45 208.852  15
  -3  -2  -3 1832.08 200.041  15
  -3  -2  -3 1957.83 204.705   1
  -3   2  -3 1910.78 198.848  14
   3  -2   3 1919.41 168.638   6
   3  -2   3 1912.47 172.000  13
   3   2   3 1940.16 203.371  13
   3  -2   3 2112.11 209.341   3
   3   2   3 2149.14 175.414   3
  -3   2  -3 2005.03 175.039  11
  -3  -2  -3 2018.95 181.609   5
  -3   2  -3 1883.78 168.916   4
  -3  -2  -4 1435.89 181.112   4
   3   2   4 1513.17 182.459   2
   3  -2   4 1417.52 182.095  16
   3   2   4 1505.37 177.975  16
  -3   2  -4 1484.94 186.451   1
  -3   2  -4 1420.15 177.406  15
  -3  -2  -4 1218.54 153.473  15
  -3  -2  -4 1476.61 184.414   1
  -3   2  -4 1281.96 159.547  14
  -3  -2  -4 1507.79 155.941  14
   3  -2   4 1401.29 146.031   6
   3   2   4 1421.45 147.240   3
   3  -2   4 1422.16 175.993   3
   3  -2   4 1317.28 147.232  13
   3   2   4 1427.83 179.012  13
  -3   2  -4 1384.03 142.715  11
  -3  -2  -4 1393.28 152.181   5
  -3   2  -4 1469.69 159.433   4
   3  -2   4 1374.00 174.232   2
   3  -2   5 18.2803 21.5412  16
  -3   2  -5 48.2085 33.4562   1
  -3   2  -5 3.08258 26.8692  15
  -3  -2  -5-40.3600 22.4621   4
  -3   2  -5-22.4367 26.7722  14
  -3  -2  -5 69.7855 37.1049  14
   3  -2   5-62.4664 31.5964   2
   3  -2   5-34.4237 20.9617  13
   3   2   5-41.4972 29.0038  13
   3   2   5-25.6979 23.1869  16
  -3  -2  -5-24.4360 15.9738  15
   3   2   5 17.8947 5.80129   3
   3   2   5 9.86906 27.8635  12
   3   2   5-55.3312 36.1108   2
   3  -2   5 42.7333 42.8886   3
  -3   2  -5 16.7544 19.3807  11
  -3  -2  -5-65.7587 61.7233   1
  -3  -2  -5-3.39344 16.7065   5
   3  -2   6 64.2593 49.1401  16
   3   2   6 19.6772 28.1763  16
  -3  -2  -6 16.5501 18.0804   4
  -3   2  -6 55.5375 26.9569  15
  -3  -2  -6 36.2415 13.1813  15
   3  -2   6 67.7498 48.2736   2
  -3   2  -6 113.533 67.9148  14
  -3  -2  -6 82.7527 41.0546  14
   3   2   6 74.5848 37.2095   2
   3  -2   6 111.641 57.2833  13
   3   2   6 74.3274 52.8067  13
   3  -2   6 71.5838 19.1071   3
   3   2   6 126.029 43.8050  12
  -3   2  -6 62.0261 27.4782  11
  -3  -2  -6 44.7728 17.9752   5
  -3   2  -6 114.916 60.5369   1
  -3  -2  -6 111.560 50.9362   1
  -3  -2  -7 103.246 58.9073   4
   3  -2   7-325.619 986.841  16
   3   2   7 109.548 53.9326  16
  -3   2  -7-22.9309 72.1785  15
  -3  -2  -7 99.5261 54.1106  15
   3   2   7 109.075 50.8299   2
  -3   2  -7 244.564 155.775  14
  -3  -2  -7 24.6036 29.3217  14
   3   2   7 139.852 71.1013  13
   3   2   7-44.6519 27.1549  12
  -3  -2  -7 124.319 45.2485   1
   3   2   8 37.5903 22.3113  16
  -3  -2  -8 72.5034 30.3330  15
  -3  -2  -8 32.2023 28.8666  14
   3   2   8 92.8643 35.1511  13
  -3   3   0 796.322 103.261   4
   3  -3   0 819.898 125.690   2
   3  -3   0 700.466 88.6897   7
  -3   3   0 953.598 159.470  14
  -3   3   0 983.955 149.510   1
   3  -3   0 757.569 123.484   6
   3  -3   0 825.762 133.159   3
  -3   3  -1 74.9346 34.1488  15
  -3   3  -1 114.377 34.4455   4
   3  -3   1 108.539 36.0289   7
  -3   3  -1 93.3737 51.0281  14
   3  -3   1 190.507 66.2903  16
   3  -3   1 65.1023 32.3609   6
  -3   3  -1 9.63899 20.5615   1
   3  -3   1 65.0139 20.7574   2
   3  -3   1 61.2501 26.7504   3
   3  -3   2 458.557 62.0894   7
   3  -3   2 482.160 100.413  16
  -3   3  -2 421.010 89.8851  15
  -3  -3  -2 478.328 107.480   4
  -3   3  -2 445.579 99.0594  14
   3   3   2 377.965 97.8034  13
   3  -3   2 452.617 83.7274   6
  -3   3  -2 461.561 98.1490   1
  -3  -3  -2 473.141 102.294   1
  -3   3  -2 488.850 94.5948  11
   3  -3   2 458.725 96.0438   2
   3  -3   2 481.788 99.8539   3
   3   3   2 416.153 73.7267   3
   3   3   2 417.561 95.7119   2
  -3  -3  -2 392.101 86.7618   5
  -3  -3  -2 408.804 74.5089   8
  -3   3  -2 501.832 78.4495   4
   3  -3   3 984.856 141.543   2
  -3  -3  -3 919.289 150.349   4
   3  -3   3 972.959 142.475  16
   3   3   3 954.490 143.305   2
   3   3   3 998.248 145.589  16
  -3   3  -3 969.083 147.695  15
  -3  -3  -3 992.132 147.397  15
  -3  -3  -3 952.761 141.584   1
  -3   3  -3 1046.94 155.467  14
  -3   3  -3 886.393 139.388   1
   3  -3   3 1020.78 134.076   6
   3  -3   3 976.932 116.935  13
   3   3   3 963.875 150.433  13
   3  -3   3 980.521 149.848   3
   3   3   3 1087.79 116.276   3
  -3   3  -3 973.599 130.048  11
  -3  -3  -3 954.501 135.773   5
  -3  -3  -3 978.309 101.002   8
  -3   3  -3 1154.81 130.523   4
   3   3   4 587.725 108.449  16
  -3   3  -4 536.483 105.475  15
  -3  -3  -4 585.028 113.820  15
  -3  -3  -4 611.252 125.349   4
  -3  -3  -4 580.992 117.119   1
  -3   3  -4 617.132 122.878  14
  -3   3  -4 551.961 109.590   1
   3   3   4 579.228 86.9804   3
   3  -3   4 553.127 91.8986  13
   3  -3   4 562.260 101.780   6
   3  -3   4 544.998 111.127   2
   3   3   4 543.841 111.985  13
   3  -3   4 624.377 121.291  16
  -3   3  -4 572.964 99.1471  11
   3  -3   4 609.796 113.629   3
   3   3   4 607.982 108.890   2
  -3  -3  -4 603.588 112.530   5
  -3  -3  -5 1854.92 220.331   4
  -3   3  -5 2027.70 235.992   1
   3   3   5 1885.33 211.708   2
   3  -3   5 1994.06 232.285  16
   3   3   5 1899.24 205.080  16
  -3   3  -5 1886.29 217.257  15
  -3   3  -5 1992.48 227.641  14
  -3  -3  -5 2133.71 190.555  14
   3  -3   5 1883.80 220.871   3
   3  -3   5 2028.51 191.420  13
   3   3   5 1814.34 215.655  13
  -3   3  -5 2027.28 201.997  11
  -3  -3  -5 1917.38 196.461   5
   3  -3   5 2007.92 232.758   2
  -3  -3  -6 18.7542 22.0385   1
   3  -3   6 119.278 88.6259  16
   3   3   6-22.6330 13.4682  16
  -3  -3  -6 39.4238 31.9914   4
   3  -3   6 90.7363 96.6877   2
  -3   3  -6 76.5163 39.6585  15
  -3  -3  -6 26.8028 49.7774  15
  -3   3  -6 122.981 86.2657  14
   3   3   6 1.02647 31.3720   2
   3  -3   6-16.6444 11.8766  13
   3   3   6 6.04426 15.2332  13
  -3   3  -6 21.8041 38.5325   1
   3   3   6 15.9877 32.0321  12
  -3   3  -6 110.780 62.2411  11
  -3  -3  -6 67.9073 47.5026   5
   3   3   7 3179.56 295.580  16
   3   3   7 2986.68 302.185  13
  -3  -3  -7 2554.63 292.163   5
   3   3   7 3396.03 355.517   2
  -3  -3  -7 2948.98 302.564   4
  -3  -3  -7 3394.57 346.232   1
  -3  -3  -8 525.367 157.909   4
   3   3   8 374.008 116.735  16
  -3  -3  -8 283.855 79.4847  15
   3   3   8 358.486 112.692  13
   3   3   8 116.095 93.1591  12
  -3   4   0 1157.68 103.877   4
   3  -4   0 1122.04 145.914   2
   3  -4   0 1201.83 129.677   7
  -3   4   0 1269.65 176.994  14
  -3   4   0 1161.22 150.949   1
   3  -4   0 1262.43 164.608   6
   3  -4   0 1225.70 170.412   3
   3  -4   1 171.124 57.1432  16
  -3   4  -1 176.223 46.6780   4
  -3   4  -1 200.579 67.3455  15
   3  -4   1 161.134 42.8986   7
  -3   4  -1 133.483 48.4314  14
   3  -4   1 168.887 68.9985   6
  -3   4  -1 173.648 71.2438  11
   3  -4   1 125.789 40.5720   2
  -3   4  -1 182.046 64.0299   1
   3  -4   1 44.2152 16.2356   3
  -3   4  -2 22.1945 10.4013   4
  -3   4  -2 51.5367 44.2478   1
   3  -4   2 51.3640 34.8301  16
   3  -4   2 80.5237 20.8589   7
  -3   4  -2 83.0911 39.3868  15
  -3   4  -2 105.031 49.5485  14
   3  -4   2 47.0301 27.7011   6
   3  -4   2 43.4349 28.0391   2
  -3   4  -2 15.4802 26.9245  11
   3  -4   2 74.3345 33.9566   3
  -3   4  -2 71.0967 25.1240   9
  -3  -4  -3 9.83245 23.2785   8
   3  -4   3 148.087 59.6319  16
  -3   4  -3 40.8153 21.8768  15
  -3  -4  -3 74.9515 50.3367   4
  -3   4  -3 101.355 56.2599  14
  -3  -4  -3 30.7804 52.6925   1
   3  -4   3 85.6606 30.5314  13
   3   4   3 121.472 65.3375  13
   3  -4   3 100.962 50.1475   6
   3  -4   3 96.1637 26.5198   2
  -3   4  -3 107.739 51.9564   1
  -3   4  -3 158.190 66.8347  11
   3  -4   3 251.244 85.0881   3
   3   4   3 99.2840 39.3481   2
  -3  -4  -3 90.5737 47.6799   5
  -3   4  -4 413.511 88.6143   1
   3   4   4 739.540 146.136  16
   3  -4   4 370.053 93.5422  16
  -3   4  -4 379.156 84.7363  15
  -3  -4  -4 296.479 127.203  15
  -3   4  -4 409.005 94.8332  14
   3  -4   4 480.289 104.398   2
   3  -4   4 400.364 96.5959   6
   3  -4   4 456.345 81.9495  13
  -3   4  -4 425.884 92.5397  11
   3  -4   4 392.667 99.1075   3
   3   4   4 468.973 111.688   2
   3  -4   5 137.559 64.2582  16
   3   4   5 37.7809 37.7789  16
  -3   4  -5 123.498 67.8940  15
  -3  -4  -5 167.666 77.6712   4
   3  -4   5 218.789 109.997   2
  -3  -4  -5 52.9448 62.2120  15
  -3   4  -5 155.892 63.6527  14
   3  -4   5 61.1199 21.7033  13
   3   4   5 95.2621 59.1096  13
   3   4   5 63.9109 37.0407   2
   3  -4   5 267.947 95.9967   3
   3   4   5 20.4612 40.6861  12
  -3   4  -5 112.580 57.8139  11
  -3  -4  -5 19.0325 60.3231   1
  -3   4  -5 144.097 67.9817   1
  -3  -4  -5 34.4475 43.7570   5
  -3  -4  -6 168.730 123.267   1
   3  -4   6 20.5878 102.332  16
   3   4   6 528.902 110.593  16
  -3  -4  -6 444.863 116.222   4
  -3   4  -6 491.322 141.366  15
  -3  -4  -6 213.837 94.1772  15
  -3   4  -6 527.958 155.742  14
   3   4   6 448.117 109.099   2
   3  -4   6 226.663 94.5344  13
   3   4   6 437.160 114.449  13
   3   4   6 168.441 93.4156  12
  -3   4  -6 491.092 146.758  11
  -3  -4  -6 563.196 119.210   5
   3   4   7 382.501 100.270  16
  -3  -4  -7 307.680 90.3991  15
   3   4   7 320.257 114.316   2
   3   4   7 335.021 104.840  13
   3   4   7 103.618 80.9923  12
  -3  -4  -7 282.881 89.7422   4
  -3  -4  -7 107.168 127.318   1
  -3  -4  -7 411.760 117.084   5
  -3  -4  -8 634.629 164.108   4
   3   4   8 748.813 165.926  13
   3   4   8 618.983 138.905  16
   3   4   8 148.077 139.246  12
  -3  -4  -8 853.923 198.869  15
  -3   5   1 436.558 101.407   1
   3  -5  -1 326.642 71.2839   7
   3  -5  -1 315.486 91.1634   6
   3  -5  -1 359.027 84.1830   2
   3  -5  -1 358.805 91.4904   3
  -3   5   0 345.704 80.2866   1
   3  -5   0 449.486 83.5614   7
  -3   5   0 475.185 112.277  14
   3  -5   0 495.139 114.537   6
   3  -5   0 380.799 83.7545   2
   3  -5   0 237.423 73.3985   3
   3  -5   1 35.1586 11.6064  16
  -3   5  -1 90.9464 47.9415   1
   3  -5   1 116.680 45.6260   7
  -3   5  -1 113.432 48.0799  15
  -3   5  -1 113.630 55.8459  14
   3  -5   1 101.934 73.4618   6
   3  -5   1 65.4376 37.8885   2
  -3   5  -1 35.0903 26.4300  11
   3  -5   1 57.7893 28.1686   3
  -3   5  -1 115.897 44.5892   9
  -3   5  -2 3507.52 268.314   1
   3  -5   2 3627.07 274.105  16
   3  -5   2 3671.09 235.741   7
  -3   5  -2 3547.12 269.968  15
  -3   5  -2 3651.91 311.766  14
   3  -5   2 3721.01 296.487   6
   3  -5   2 3516.64 300.988   3
  -3   5  -2 3529.30 284.746  11
  -3   5  -2 3640.70 245.970   9
   3  -5   2 3417.13 261.500   2
  -3  -5  -3 31.3299 65.1061   1
  -3   5  -3 227.154 73.8185   1
  -3  -5  -3 156.137 49.1155   8
   3  -5   3 172.224 59.7240  16
  -3   5  -3 188.645 65.1719  15
  -3  -5  -3 242.606 84.4483   4
  -3   5  -3 232.599 82.1687  14
   3  -5   3 191.370 62.3846   2
   3  -5   3 256.768 80.3724   6
   3   5   3 172.026 63.7141  13
  -3   5  -3 173.929 66.9207  11
   3  -5   3 214.928 70.1664   3
   3   5   3 81.6935 44.8223   2
  -3  -5  -3 165.700 68.8348   5
   3  -5   4 65.2888 38.3459  16
  -3  -5  -4 0.50082 37.3346   1
  -3   5  -4 72.4674 45.9147  15
   3  -5   4-67.9263 60.5933   2
  -3  -5  -4 54.5510 5.64420   4
  -3   5  -4 6.63713 20.3357  14
   3  -5   4 15.4548 24.3123   6
   3   5   4 46.2565 28.6046  13
   3  -5   4 42.6568 26.6554   3
  -3   5  -4 74.2477 52.3261  11
   3   5   4 16.0779 19.4291   2
  -3   5  -4 15.6045 22.6590   1
  -3  -5  -4 10.3571 33.2262   5
  -3  -5  -5 219.974 145.082   1
   3  -5   5 587.544 130.036  16
   3   5   5 758.411 132.114  16
  -3   5  -5 675.962 134.450  15
  -3  -5  -5 684.766 139.278   4
  -3  -5  -5 453.730 138.694  15
  -3   5  -5 892.905 170.113  14
   3   5   5 705.654 142.029  13
   3   5   5 542.534 125.359   2
   3  -5   5 653.262 154.686   3
   3   5   5 228.069 124.848  12
  -3   5  -5 899.583 176.487  11
  -3  -5  -5 766.672 149.151   5
   3   5   6 3084.62 271.377  16
   3   5   6 3472.64 323.752  13
  -3  -5  -6 3148.73 298.822   5
   3   5   6 2959.60 292.849   2
  -3  -5  -6 3183.41 316.488   4
  -3  -5  -7 71.0767 59.2679   4
   3   5   7 74.8105 53.6471  16
   3   5   7 138.463 81.9543   2
  -3  -5  -7 91.8645 75.7917  15
   3   5   7 56.7546 36.2204  13
  -3  -5  -7-7.72566 98.5355   1
   3   5   7 27.6422 39.3472  12
  -3  -5  -7 221.428 88.1511   5
  -3  -5  -8 12.0665 38.6422   4
   3   5   8 33.5182 28.1927  16
  -3  -5  -8 36.8574 52.7365  15
   3   5   8 27.9052 44.0509  13
   3   5   8 15.1780 40.7457  12
  -3  -5  -8 94.1963 72.9218   5
   3  -6  -1 127.488 51.4409   7
   3  -6  -1 179.960 81.1907   6
   3  -6  -1 137.400 54.9500   2
   3  -6  -1 79.3986 61.3978   3
  -3   6   1 67.5122 47.9269   1
  -3   6   0 311.118 75.2032   1
   3  -6   0 446.990 95.8935   7
  -3   6   0 389.711 113.407  14
   3  -6   0 430.387 107.803   6
   3  -6   0 334.237 79.1910   2
  -3   6   0 447.562 124.824  11
   3  -6   0 426.155 112.126   3
  -3   6  -1 976.598 143.940   1
   3  -6   1 968.991 138.118   7
  -3   6  -1 948.479 146.029  15
  -3   6  -1 977.103 161.847  14
   3  -6   1 928.273 162.574   6
  -3   6  -1 948.862 166.260  11
   3  -6   1 865.277 150.433   3
  -3   6  -1 848.250 129.255   9
   3  -6   1 837.247 131.379   2
  -3   6  -2 1485.17 177.728   1
   3  -6   2 1419.99 173.976  16
   3  -6   2 1397.26 169.953   7
  -3   6  -2 1345.13 168.506  15
  -3   6  -2 1366.36 194.531  14
   3  -6   2 1259.92 184.292   3
  -3   6  -2 1301.51 183.181  11
   3  -6   2 1019.50 171.613   8
   3  -6   2 1381.42 171.992   2
  -3  -6  -3-2.36645 39.5503   8
   3  -6   3 74.3583 48.5938  16
  -3   6  -3 5.68763 4.78960  15
   3  -6   3 7.77167 21.7713   2
  -3  -6  -3-44.9843 46.8993   4
  -3   6  -3 56.7502 41.2098  14
   3  -6   3 21.2313 7.89143   6
   3  -6   3 46.0984 48.5018   3
  -3   6  -3 29.4281 25.9341  11
  -3  -6  -3-51.6761 84.6232   1
  -3   6  -3-18.0792 37.4295   1
  -3  -6  -3 53.5002 45.2356   5
  -3  -6  -4 145.932 144.088   1
   3  -6   4 442.033 110.646  16
  -3   6  -4 67.4672 93.8835  15
  -3  -6  -4 447.474 116.621   4
  -3   6  -4 47.3325 123.532  14
   3  -6   4 191.736 133.037   6
   3   6   4 384.681 114.055  13
   3  -6   4 257.638 121.853   3
  -3   6  -4 474.995 123.373  11
   3   6   4 338.183 92.1052   2
  -3  -6  -4 449.323 113.614   5
   3  -6   5 152.769 82.1942  16
  -3   6  -5-34.4733 31.7522  15
  -3  -6  -5 182.144 84.1619   4
  -3  -6  -5 21.8717 49.2578   1
  -3   6  -5-6.67351 55.1958  14
   3   6   5 138.141 65.1647   2
   3   6   5 95.4653 49.9964  13
  -3   6  -5 0.95556 60.4978  11
  -3  -6  -5 280.701 107.459   5
   3   6   6 223.085 74.7977  16
  -3  -6  -6 214.269 86.8581   4
  -3  -6  -6 102.179 74.4333  15
   3   6   6 306.666 110.879   2
   3   6   6 250.751 89.4623  13
   3   6   6 81.0069 71.8383  12
  -3  -6  -6 85.6439 94.1338   1
  -3  -6  -6 310.416 103.297   5
  -3  -6  -7-86.8833 82.5869   4
  -3  -6  -7-25.8608 49.0881  15
   3   6   7-2.03166 36.2840  13
   3   6   7-19.1508 67.4964  12
  -3  -6  -7 19.8129 37.2997   5
  -3  -6  -8-70.2410 75.8549   4
  -3  -6  -8 132.674 120.531  15
   3   6   8 6.71284 56.9081  13
   3   6   8 55.8659 68.6867  12
  -3  -6  -8 64.8681 53.0692   5
   3   6   9 47.6771 65.2303  13
   3  -7  -1 443.037 111.143   7
   3  -7  -1 389.029 105.668   6
   3  -7  -1 387.584 110.800   3
   3  -7   0 82.4341 16.8177   7
  -3   7   0 2.66080 78.0080  14
   3  -7   0 80.3764 57.1059   6
  -3   7   0 29.2403 37.9840  11
   3  -7   0 53.8189 33.2952   3
  -3   7   0 62.7499 43.9672   9
   3  -7   1 280.358 86.1750   7
   3  -7   1 223.382 58.6393   2
  -3   7  -1 4.31244 109.593  14
   3  -7   1 306.410 101.866   6
  -3   7  -1 308.555 95.0892  11
   3  -7   1 128.318 89.2657   3
  -3   7  -1 253.704 73.6218   9
   3  -7   2 1083.49 168.576  16
   3  -7   2 752.419 171.246   2
  -3   7  -2 1059.86 157.840  15
  -3   7  -2 1023.48 171.803  14
   3  -7   2 723.234 144.779   6
  -3   7  -2 769.034 151.304  11
   3  -7   2 422.020 159.669   3
  -3   7  -2 932.668 160.541  10
   3  -7   2 846.597 177.184   8
   3  -7   3 1010.40 171.517  16
  -3   7  -3 91.6998 147.417  15
  -3   7  -3 944.411 168.699  14
   3  -7   3 378.817 183.572   3
   3  -7   3 509.591 157.582   6
  -3   7  -3 882.403 165.245  11
   3  -7   4 953.156 225.873  16
  -3   7  -4 253.697 142.936  15
  -3  -7  -4 1062.97 210.549   4
  -3   7  -4 1075.66 189.122  14
   3  -7   4 355.550 207.301   6
   3   7   4 640.675 147.026  13
   3  -7   4 397.452 192.552   3
  -3   7  -4 976.134 191.819  11
  -3  -7  -4 1069.84 208.082   5
  -3  -7  -5 477.498 159.454   4
   3   7   5 380.766 123.808  13
  -3  -7  -5 459.678 141.081   5
  -3  -7  -6 103.552 89.4301   4
   3   7   6 234.809 100.821  13
   3   7   6-8.35110 55.0834  12
  -3  -7  -6 168.126 83.7242   5
  -3  -7  -7 93.0791 38.5307   4
   3   7   7 192.528 81.5297  13
   3   7   7 52.8560 64.3229  12
  -3  -7  -7 230.217 105.903   5
  -3  -7  -8 11.6534 51.4949   4
   3   7   8 76.2089 53.8430  13
   3   7   8 51.7271 81.7503  12
  -3  -7  -8-19.2795 47.5954   5
   3   7   9-42.2106 61.0382  13
   3  -8  -1 1800.95 231.943   7
   3  -8  -1 1838.65 259.851   6
  -3   8   1 1737.80 243.050   9
   3  -8   0 151.599 56.3556   7
  -3   8   0 2.07642 95.7043  14
   3  -8   0 85.7336 63.2683   6
  -3   8   0 154.684 81.0128  11
   3  -8   0 30.2413 25.7071   3
  -3   8   0 219.083 94.8196   9
   3  -8   1 56.2107 16.4732   7
  -3   8  -1 5.52293 41.3187  14
   3  -8   1 67.6823 28.4714   6
  -3   8  -1 3.11342 35.5272  11
   3  -8   1-27.5904 43.7069   3
  -3   8  -1 45.9359 43.7289  10
  -3   8  -1 6.48945 31.1104   9
   3  -8   1 0.81036 30.7781   8
  -3   8  -2 15.6866 100.994  14
   3  -8   2 6.35224 57.3580   6
   3  -8   2 71.2141 44.5855   3
  -3   8  -2 30.4033 42.3531  11
  -3   8  -2 2.95982 48.3983  10
   3  -8   2 29.4581 73.0913   8
  -3   8  -3 14.1461 104.870  14
   3  -8   3 53.1724 127.128   6
   3  -8   3 122.340 116.784   3
  -3   8  -3 327.120 114.593  11
  -3   8  -4 1.25762 83.2075  14
   3  -8   4-30.8308 174.639   6
  -3   8  -4 18.4131 50.9922  11
  -3  -8  -5 286.559 93.7092   4
   3   8   5 232.313 86.5582  13
  -3  -8  -5 223.967 73.5452   5
  -3  -8  -6 166.837 78.0836   4
   3   8   6 271.356 114.984  13
  -3  -8  -6-14.4465 68.4954   5
  -3  -8  -7 155.397 38.1111   4
   3   8   7 212.463 83.5342  13
   3   8   7 61.6727 104.524  12
  -3  -8  -7 173.682 61.3177   5
   3  -9  -1-30.8545 55.1606   7
   3  -9  -1-78.2928 84.9128   6
   3  -9  -1 75.5933 88.0104   3
  -3   9   1 7.39481 36.4958   9
   3  -9   0 80.5793 62.3475   7
  -3   9   0 4.84232 47.0957  14
   3  -9   0-105.357 88.3954   6
   3  -9   0 24.9322 74.6305   3
  -3   9   0-20.6601 47.2250  11
  -3   9   0-55.8812 33.1284   9
   3  -9   1 23.1632 11.8445   7
  -3   9  -1-2.79778 72.8790  14
   3  -9   1 49.8837 51.9151   6
   3  -9   1-53.2650 51.8616   3
  -3   9  -1-48.2164 57.2963  11
  -3   9  -1 0.72486 42.0047   9
   3  -9   1 54.5554 83.3754   8
  -3   9  -2 2.91236 69.3824  14
   3  -9   2 30.9033 76.9404   6
   3  -9   2 4.95300 42.4839   3
  -3   9  -2 111.513 77.1898  11
  -3   9  -2 26.2108 53.8167  10
  -3   9  -3 28.4614 139.823  14
   3  -9   3 239.579 159.496   6
  -3   9  -3 419.115 136.484  11
  -3  -9  -5 149.827 60.2660   4
  -3  -9  -5 180.768 94.1869   5
   3 -10  -1-68.8553 81.6364   7
   3 -10  -1 197.666 98.9540   6
   3 -10  -1 75.7503 77.2262   3
  -3  10   1 38.3431 36.0025   9
   3 -10   0-34.8668 91.5878   7
  -3  10   0-4.28317 94.3977  14
   3 -10   0-38.8394 69.2808   6
   3 -10   0-118.634 108.534   3
  -3  10   0-157.156 113.999  11
  -3  10   0-8.88123 71.6856   9
  -3  10  -1 1.82561 79.0325  14
   3 -10   1-11.9364 8.44307   6
   3 -10   1 11.8453 80.1264   3
  -3  10  -1 37.2717 53.6837  11
  -3  10  -1-1.44201 66.1136  10
   3 -10   1 56.1989 151.858   8
  -3  10  -2-6.80467 74.1437  14
   3 -10   2 18.9771 87.5803   6
  -3  10  -2 17.1850 54.6553  11
  -3  10  -3-85.2080 48.7404  11
   4   0   3-68.3914 41.1764  16
  -4   0  -3-64.9592 54.1111  15
  -4   0  -3-21.7252 30.2707   4
   4   0   3 15.4580 21.4764  13
   4   0   3-60.2118 64.5876   2
   4   0   3-40.4450 58.5431   3
  -4   0  -3-21.4668 25.2233   1
  -4   0  -4 1771.17 219.395   4
   4   0   4 1767.25 230.634   2
   4   0   4 1741.03 229.026  16
  -4   0  -4 1756.44 239.029   1
  -4   0  -4 1612.37 220.191  15
  -4   0  -4 2041.03 237.756  14
   4   0   4 1976.45 236.769  13
   4   0   5-175.103 96.2001  16
  -4   0  -5 20.9943 32.1554   4
  -4   0  -5-81.8637 62.9595  15
  -4   0  -5-64.7700 40.7848  14
   4   0   5-47.8011 54.3069  13
   4   0   5-40.8363 18.2330   2
   4   0   5-99.2888 52.4275   3
  -4   0  -5 19.5397 29.6089   1
  -4   0  -6 1762.62 248.742   1
   4   0   6 1592.56 219.948  16
  -4   0  -6 1990.17 256.394  15
  -4   0  -6 1963.50 233.389  14
   4   0   6 2046.80 249.605   3
   4   0   6 1920.70 246.952  13
   4   0   6 1791.02 238.743   2
  -4   0  -6 1978.48 241.649   4
  -4   0  -7 5.97718 29.8945   4
   4   0   7-18.6058 5.22269  16
  -4   0  -7 12.0239 55.8107  15
   4   0   7-26.8502 62.9315   2
  -4   0  -7 103.219 75.6956  14
   4   0   7 121.071 64.2635  13
  -4   0  -7-54.2942 69.7527   1
   4   0   8 138.029 100.090  16
   4   0   8 111.688 111.334   2
  -4   0  -8 194.730 123.882  15
  -4   0  -8 231.470 106.158  14
   4   0   8 114.138 92.0096  13
  -4   0  -8 73.6495 39.6374   1
  -4   1  -2 780.995 152.581   4
   4  -1   2 614.696 132.227  16
  -4   1  -2 726.743 149.675  15
   4  -1   2 667.307 104.016   6
  -4   1  -2 799.702 165.030   1
   4  -1   2 701.039 150.028   2
   4  -1   2 606.445 124.405   3
   4  -1   3-127.072 86.8110  16
  -4  -1  -3-9.96577 36.2164   1
   4   1   3-39.3981 33.0158  16
  -4   1  -3-57.9487 56.8266  15
  -4   1  -3-5.24305 15.7322   4
  -4  -1  -3-48.2660 62.9311  15
  -4  -1  -3-25.8242 40.9156   4
  -4   1  -3-69.2839 63.6699  14
   4   1   3 59.9069 33.9319  13
  -4   1  -3 21.5432 19.4636   1
   4  -1   3-70.9920 58.1819   2
   4  -1   3-153.679 80.1517   3
   4   1   3-2.70539 11.8867   3
   4   1   3-37.5009 31.1812   2
  -4   1  -4-63.3696 55.9637   1
   4  -1   4-75.2187 49.8673  16
   4   1   4 3.72173 17.4588  16
  -4   1  -4 41.7132 38.7978   4
  -4   1  -4-140.615 79.5870  15
  -4  -1  -4-3.38486 41.5333   4
  -4  -1  -4 34.9216 41.1091  15
  -4   1  -4 3.35108 23.8329  14
  -4  -1  -4-5.99117 13.1495   1
   4  -1   4-56.1966 30.1023  13
   4   1   4 41.7592 48.3200  13
   4  -1   4-20.2919 23.2069   2
   4   1   4-37.9309 38.3894   2
   4  -1   4-17.7854 29.5610   3
   4   1   4 6.84221 36.5986   3
   4  -1   5 38.9115 42.6265  16
   4   1   5 19.3445 29.4944  16
  -4   1  -5 23.7715 22.5755   4
  -4  -1  -5 14.9894 14.4342   4
  -4   1  -5-69.1690 72.0395  15
  -4  -1  -5 68.1909 57.6754  15
  -4   1  -5-57.6654 55.0610  14
  -4  -1  -5 19.9212 20.0964  14
   4  -1   5 15.1349 22.9153  13
   4   1   5-14.1206 45.4762  13
   4  -1   5 41.3467 57.8809   2
  -4   1  -5-7.47109 31.6714   1
   4   1   5 4.04743 31.6139   2
   4   1   5 55.1417 47.1621   3
   4  -1   5-95.9688 68.9831   3
  -4  -1  -5 58.3102 61.9266   1
  -4   1  -6 230.016 78.5012   4
   4  -1   6 175.163 72.1920  16
   4   1   6 153.153 72.2790  16
  -4   1  -6 107.092 63.8685   1
  -4  -1  -6 219.920 90.1267   4
  -4   1  -6-84.6848 63.1763  15
  -4  -1  -6 129.796 58.8057  15
  -4   1  -6 273.476 95.9793  14
  -4  -1  -6 145.359 84.0677   1
  -4  -1  -6 110.920 43.7574  14
   4  -1   6 180.699 91.1754   2
   4  -1   6 101.978 48.2301  13
   4   1   6 287.477 103.873  13
   4   1   6 83.7858 46.3303   2
   4   1   6 162.189 72.6196   3
   4  -1   6 98.4619 63.9548   3
  -4  -1  -7 395.505 118.482   4
   4  -1   7 470.270 141.318  16
   4   1   7 402.069 113.168  16
  -4   1  -7 618.566 209.150  15
  -4  -1  -7 211.582 81.9262  15
   4  -1   7 423.666 138.357   2
  -4   1  -7 514.224 130.350  14
   4   1   7 296.403 82.1536   2
  -4  -1  -7 591.070 142.086  14
   4  -1   7 159.339 29.9095  13
   4   1   7 384.139 119.424  13
  -4   1  -7 362.305 116.197   1
  -4  -1  -7 422.543 126.793   1
   4  -1   8 300.591 162.187  16
   4   1   8 375.941 126.306  16
   4  -1   8 397.411 210.821   2
   4   1   8 483.825 174.985   2
  -4   1  -8 506.121 162.796  15
  -4  -1  -8 456.730 151.512  15
  -4   1  -8 220.399 85.1290  14
   4  -1   8 700.035 1106.64  13
   4   1   8 519.480 185.857  13
  -4   1  -8 549.744 200.378   1
  -4  -1  -8 655.481 191.052   1
   4  -2   2 101.795 41.4880  16
  -4   2  -2-51.1452 36.1085   1
  -4   2  -2 41.0408 40.2384  15
  -4   2  -2-66.1897 40.6168   4
  -4   2  -2 58.9429 25.5606  14
   4  -2   2-50.9388 44.9789   6
   4  -2   2 52.6121 20.2137   2
   4  -2   2 87.4284 53.6044   3
   4  -2   3 96.6964 40.4059  16
  -4   2  -3 133.730 49.0881   4
  -4   2  -3 57.4001 43.6778  15
  -4  -2  -3 35.4911 46.9179   4
  -4   2  -3 187.828 86.5940  14
  -4  -2  -3 134.100 68.7154   1
  -4   2  -3 80.4487 45.4929   1
   4  -2   3 133.885 58.1681   6
   4  -2   3 120.167 57.7785   2
   4  -2   3 107.072 61.3579   3
   4   2   3 88.8160 17.3139   2
  -4  -2  -3 126.132 52.3370   5
   4  -2   4 515.237 124.917  16
  -4   2  -4 388.989 93.2220   4
   4   2   4 546.474 130.848  16
  -4   2  -4 453.494 110.533  15
  -4  -2  -4 571.958 129.903   4
  -4  -2  -4 509.916 139.986  15
  -4   2  -4 390.828 106.763  14
   4  -2   4 492.488 112.073  13
   4   2   4 433.361 115.926  13
  -4  -2  -4 444.043 119.204   1
   4  -2   4 471.261 125.446   2
   4   2   4 504.660 130.954   2
   4  -2   4 472.522 115.416   3
   4   2   4 405.665 97.2006   3
  -4  -2  -4 572.339 116.329   5
  -4   2  -4 526.944 132.723   1
  -4   2  -5 150.899 66.9872   4
   4  -2   5 35.0446 18.7169  16
   4   2   5 38.5094 33.2777  16
  -4  -2  -5 42.8882 56.4682   4
  -4   2  -5 30.7741 37.8725  15
  -4  -2  -5 35.6294 44.6560  15
  -4   2  -5-66.1093 61.0266  14
  -4   2  -5 25.1879 37.7996   1
   4  -2   5 20.4812 18.0994  13
   4   2   5 23.8440 26.9524  13
   4  -2   5-9.56822 41.5558   2
   4   2   5-67.5521 64.3031   2
   4  -2   5-15.3654 52.6790   3
  -4  -2  -5 42.4910 48.8136   1
   4  -2   6 197.591 78.1365  16
   4   2   6 224.689 88.0077  16
  -4  -2  -6 118.432 55.6798   4
  -4   2  -6 107.919 53.3526  15
  -4  -2  -6 71.3029 33.5989  15
  -4   2  -6 102.372 72.4761  14
   4  -2   6 191.572 93.4650   2
  -4  -2  -6 136.169 68.8758   1
   4  -2   6 206.643 81.7996  13
   4   2   6-11.4940 65.8900  13
   4   2   6 282.091 96.7712   2
   4  -2   6 120.753 74.6040   3
  -4   2  -6 203.962 93.6544   1
  -4  -2  -7 360.777 115.170   4
   4  -2   7 551.584 180.502  16
   4   2   7 324.627 109.199  16
  -4   2  -7 457.713 139.326  15
  -4  -2  -7 430.813 118.189  15
   4  -2   7 376.044 128.463   2
  -4   2  -7 433.673 130.320  14
   4   2   7 340.427 109.983   2
   4  -2   7 144.825 81.5544  13
   4   2   7 361.545 114.453  13
  -4   2  -7 523.198 156.077   1
  -4  -2  -7 548.268 144.330   1
  -4  -2  -8 125.193 78.2184   4
   4   2   8-9.44978 47.1078  16
  -4  -2  -8 3.24001 46.7869  15
   4   2   8-22.9376 70.7548   2
   4   2   8 129.297 102.021  13
  -4  -2  -8 99.6576 74.9742   1
   4   2   9-176.493 106.682  13
   4  -3   2 72.2686 44.9160  16
  -4   3  -2-15.2597 23.3816  15
  -4   3  -2 24.3600 41.7443  14
   4  -3   2 63.6454 37.2535   6
  -4   3  -2 18.3697 23.9503   1
   4  -3   2 101.726 53.7351   2
   4  -3   2 53.4119 38.1427   3
   4  -3   3 2935.17 295.863   2
   4  -3   3 2877.78 296.900  16
  -4   3  -3 2831.45 291.763   1
  -4   3  -3 2876.19 299.389  15
   4  -3   3 3047.14 264.085   6
   4  -3   3 2826.45 292.345   3
   4  -3   4 81.3040 23.4966  16
   4   3   4 72.1963 40.4810  16
  -4   3  -4 175.992 83.5758  15
  -4  -3  -4 103.406 65.3158   4
  -4   3  -4 10.8287 43.0836  14
   4   3   4 190.891 80.7572  13
   4  -3   4 39.0057 19.4505  13
  -4  -3  -4 43.8246 30.6101   1
   4  -3   4-5.99061 56.1373   2
  -4   3  -4 66.0604 40.9662   1
   4  -3   4 43.4067 11.3609   3
   4   3   4 27.5674 37.5813   2
  -4  -3  -4 195.420 76.1501   5
   4  -3   5 340.546 110.172  16
   4   3   5 265.839 96.6317  16
  -4   3  -5 310.913 102.650   1
  -4  -3  -5 221.290 80.0617   4
  -4   3  -5 351.630 110.602  15
  -4  -3  -5 311.988 103.660  15
  -4   3  -5 307.572 106.918  14
   4  -3   5 385.032 117.302   2
   4  -3   5 262.864 83.9224  13
   4   3   5 345.872 105.948  13
   4  -3   5 315.606 107.710   3
   4   3   5 312.237 102.257   2
  -4  -3  -5 330.487 99.0790   5
  -4  -3  -5 306.339 96.2869   1
   4  -3   6 30.0522 46.8572  16
   4   3   6-33.2180 49.7366  16
  -4  -3  -6-0.36735 8.75162   4
  -4   3  -6 93.1122 78.3606  15
  -4  -3  -6-98.2607 63.1797  15
   4  -3   6 134.950 98.3004   2
  -4   3  -6 110.380 68.2484  14
  -4  -3  -6 36.8195 35.2601   1
   4   3   6-73.2895 62.1169  13
   4   3   6 29.1033 23.6613   2
   4  -3   6-68.5909 52.2552   3
  -4  -3  -6 19.5633 9.54190   5
  -4   3  -6-2.54931 37.3743   1
   4  -3   7 692.028 258.250  16
  -4  -3  -7 370.939 122.024   4
   4   3   7 525.346 135.589  16
   4  -3   7 506.262 276.738   2
  -4   3  -7 1040.73 274.006  15
  -4  -3  -7 340.296 112.471  15
  -4   3  -7 791.780 241.597  14
   4   3   7 478.814 138.829   2
   4   3   7 493.593 133.619  13
  -4   3  -7 558.615 187.379   1
  -4  -3  -7 475.205 139.168   1
  -4  -3  -8 112.548 90.6165   4
   4   3   8 4.58140 44.2810  16
   4   3   8-21.5631 44.5568   2
  -4  -3  -8 0.22606 27.6361  15
   4   3   8-20.8070 59.4273  13
  -4  -3  -8 173.923 98.9482   1
   4   3   9-153.185 113.891  16
  -4  -3  -9 137.551 131.326  15
   4   3   9-49.5908 106.096  13
  -4   4  -1-0.78065 35.3069  14
   4  -4   1-23.1622 24.8662   6
   4  -4   1 27.7256 28.4885   2
   4  -4   1-34.7885 57.2249   3
  -4   4  -1 10.4849 32.7803   1
   4  -4   2 1154.26 190.416   2
   4  -4   2 1000.38 183.198  16
  -4   4  -2 1095.85 184.152   1
  -4   4  -2 615.585 191.225  15
   4  -4   2 673.371 171.970   6
  -4   4  -2 1102.94 188.630  14
   4  -4   2 665.373 207.154   3
   4  -4   3 361.703 103.933  16
  -4   4  -3 391.970 106.310  15
  -4   4  -3 0.16403 118.615  14
   4  -4   3 263.849 103.449   6
   4  -4   3 491.529 122.992   2
   4  -4   3 242.657 127.217   3
  -4   4  -3 360.971 104.547   1
   4  -4   4 748.149 153.810  16
  -4   4  -4 743.246 156.470  15
  -4  -4  -4 681.230 169.292   4
  -4   4  -4 712.094 149.277   1
  -4   4  -4 784.968 156.855  14
  -4  -4  -4 590.058 147.867   1
   4  -4   4 317.697 123.322   6
   4  -4   4 733.828 142.259   2
   4   4   4 588.164 147.469  13
   4  -4   4 278.263 157.199   3
   4   4   4 579.059 140.008   2
  -4  -4  -4 680.815 152.250   5
   4  -4   5 661.474 148.693  16
   4   4   5 721.813 151.405  16
  -4   4  -5 560.839 137.848  15
  -4  -4  -5 711.971 167.297   4
   4  -4   5 709.269 152.782   2
  -4   4  -5 792.883 162.518  14
   4   4   5 659.522 144.245  13
   4  -4   5 304.068 148.021   3
   4   4   5 799.262 163.813   2
  -4   4  -5 663.855 136.498  11
  -4  -4  -5 742.117 150.338   5
  -4  -4  -5 730.290 157.374   1
  -4   4  -5 775.032 157.638   1
   4  -4   6 211.710 72.1565  16
   4   4   6 239.994 77.5663  16
  -4  -4  -6 120.363 73.3102   4
   4  -4   6 284.517 153.826   2
  -4   4  -6 31.0302 93.4927  15
  -4  -4  -6 239.234 77.7494  15
  -4  -4  -6 142.128 66.5315   1
  -4   4  -6 3.92097 75.2029  14
   4   4   6 159.169 69.9945  13
   4   4   6 178.877 79.0747   2
   4  -4   6 132.387 103.425   3
  -4   4  -6 12.5806 71.3660   1
  -4  -4  -6 173.372 68.2997   5
   4  -4   7 121.478 139.693  16
  -4  -4  -7 424.479 130.279   4
   4   4   7 254.286 92.3215  16
  -4   4  -7 287.143 206.115  15
  -4  -4  -7 397.041 108.865  15
  -4   4  -7-19.3910 164.560  14
   4   4   7 385.437 117.038   2
   4   4   7 457.987 132.224  13
  -4  -4  -7 533.163 131.261   5
  -4  -4  -7 634.172 154.461   1
  -4  -4  -8-64.6653 78.9058   4
   4   4   8 56.9988 50.3343  16
   4   4   8-4.46780 91.1726   2
  -4  -4  -8-49.8747 91.4594  15
   4   4   8-82.2525 87.1838  13
  -4  -4  -8 51.4871 75.2783   1
   4   4   8-369.625 1174.59  12
   4   4   9-19.7273 13.7196  16
   4   4   9-96.6264 70.7973  13
  -4   5  -1 0.80662 127.286  14
  -4   5  -1 418.122 106.827   1
   4  -5   1 146.306 99.6237   6
   4  -5   1 395.303 104.670   2
   4  -5   1 218.951 122.559   3
   4  -5   2 2416.35 265.083   2
   4  -5   2 2121.99 259.526  16
  -4   5  -2 2616.00 283.755   1
   4  -5   3 69.7373 45.1664  16
  -4   5  -3-5.60357 9.81103  15
  -4   5  -3-0.52676 31.3033  14
  -4   5  -3 25.4693 28.6584   1
   4  -5   3 55.4791 57.9304   6
   4  -5   3 46.3624 48.8365   2
   4  -5   3 41.8388 62.7570   3
   4  -5   4 117.085 77.6303  16
  -4   5  -4-5.10117 71.6552  15
  -4   5  -4 13.5300 40.5325  14
   4  -5   4 106.549 70.3605   2
   4  -5   4 19.5577 24.0489   6
   4  -5   4-33.9285 71.3198   3
  -4   5  -4 51.1921 19.3258  11
  -4   5  -4 1.00070 20.5182   1
   4  -5   5-35.1497 7.01253  16
  -4   5  -5-13.7853 46.3840  15
  -4  -5  -5-53.7375 46.1897   4
   4  -5   5-45.5558 59.1539   2
  -4   5  -5-1.36004 32.2904  14
   4  -5   5-14.4951 117.387   6
   4   5   5 78.6116 68.0384  13
   4  -5   5 4.41037 24.6008   3
   4   5   5-142.591 59.3768   2
  -4   5  -5-14.1554 25.3024  11
  -4   5  -5 21.8171 38.8603   1
  -4  -5  -5 11.8589 46.6740   1
  -4  -5  -5-54.7237 50.3610   5
   4  -5   6 222.732 178.136  16
  -4  -5  -6 74.1974 54.7069   1
  -4  -5  -6 50.3164 25.8457   4
  -4   5  -6 15.8468 118.413  15
  -4   5  -6-20.6923 71.1295  14
   4   5   6-134.079 80.6987   2
   4   5   6 192.360 106.030  13
   4  -5   6-28.7189 71.9311   3
  -4  -5  -6 48.3829 33.7618   5
  -4  -5  -7 78.6036 52.9141   4
   4   5   7-122.996 78.3004  16
  -4  -5  -7-20.9082 32.6069  15
   4   5   7-20.9027 55.2706   2
   4   5   7 31.6661 36.0266  13
  -4  -5  -7 21.9818 49.7036   5
  -4  -5  -7-38.2408 59.7462   1
  -4  -5  -8 103.208 96.7593   4
   4   5   8-82.2901 61.4909  16
   4   5   8 193.630 128.137   2
  -4  -5  -8 109.554 136.677  15
   4   5   8 19.5022 23.5280  13
  -4  -5  -8 29.4125 118.574   1
  -4  -5  -8-46.1906 31.0160   5
  -4   6  -1 5.76365 33.6057  14
   4  -6   1-104.634 103.354   6
   4  -6   1-0.33182 42.7526   2
   4  -6   1-39.8551 23.4248   3
  -4   6  -1-77.0385 61.4175   1
  -4   6  -2 0.19342 67.5118  14
   4  -6   2 166.913 50.6324   2
   4  -6   2 47.2510 70.5626   6
  -4   6  -2 159.035 68.2876   1
   4  -6   2 134.035 94.2715   3
  -4   6  -3-41.2042 21.9771   1
   4  -6   3 117.676 54.0294  16
  -4   6  -3 18.1992 36.9869  15
  -4   6  -3 0.18688 55.8451  14
   4  -6   3 115.242 33.2680   2
   4  -6   3-0.64930 37.2932   6
   4  -6   3 36.5566 69.7160   3
   4  -6   4 120.687 63.1243  16
  -4   6  -4 9.18014 19.3446  15
   4  -6   4-27.5300 34.7105   2
  -4   6  -4 0.76461 28.0721  14
   4  -6   4 18.7910 31.0386   6
   4  -6   4-14.7822 28.5617   3
  -4   6  -4-115.196 87.5659  11
  -4   6  -4 35.7173 74.5274   1
   4  -6   5 52.0502 49.6402  16
  -4  -6  -5 27.9815 72.9395   4
  -4   6  -5-0.36843 39.1715  15
  -4   6  -5 9.09690 74.0596  14
   4   6   5 9.76117 27.3974  13
   4  -6   5-3.19951 77.4449   3
  -4   6  -5 21.6852 55.0485  11
  -4  -6  -6 149.873 86.2747   4
  -4   6  -6-2.68734 93.5551  14
   4   6   6 284.997 117.881  13
  -4  -6  -6 120.004 45.7988   5
  -4  -6  -7-42.8657 42.8811   4
   4   6   7-96.1786 64.2176  13
  -4  -6  -7-39.2830 56.6907   5
  -4   7  -1 15.1959 62.0787  14
   4  -7   1-15.3051 55.8122   6
   4  -7   1 68.6711 90.3615   3
   4  -7   2 42.4270 87.5023   2
  -4   7  -2 20.8881 51.5542  14
   4  -7   2-78.2610 84.9029   6
   4  -7   2 1.79443 51.8882   3
   4  -7   3-76.2352 67.0553  16
   4  -7   3-39.0165 122.351   2
  -4   7  -3-0.99119 218.116  14
   4  -7   3 21.8262 30.5296   6
   4  -7   3 27.8713 39.6810   3
  -4   7  -3-187.616 70.5637  11
   4  -7   4 102.818 311.710  16
  -4   7  -4-27.7488 82.5532  11
  -4   7  -5 31.9869 139.251  14
   4  -7   5 87.9118 125.756   3
  -4   7  -5 100.670 92.2762  11
  -4  -7  -6 33.4721 62.4657   4
   4   7   6 204.947 109.338  13
  -4  -7  -6 60.2642 45.0237   5
  -4   8  -1-7.34003 73.4214  14
   4  -8   1 35.4406 71.0711   6
   4  -8   1 98.7638 62.0683   3
  -4   8  -2 35.1254 126.101  14
   4  -8   2 22.0048 79.7264   6
   4  -8   2 50.1911 84.5594   3
  -4   8  -3 2.35894 123.955  14
   4  -8   3 10.6702 81.5287   6
   4  -8   3-8.34683 29.2917   3
  -4   8  -3 165.392 60.0881  11
  -4   8  -4 0.92157 10.9774  14
  -4   8  -4-7.10830 29.1420  11
   5   0   5 46.9365 69.9080  16
  -5   0  -5-26.0535 68.9702   4
  -5   0  -5-35.6565 35.2893  15
   5   0   5-61.8295 59.6140   2
  -5   0  -5 12.2413 43.0452   1
  -5   0  -6 4.92913 41.4702   4
  -5   0  -6-23.3459 32.1043   1
   5   0   6 0.21815 32.7318   2
   5   0   6 3.92811 28.4758   3
  -5   0  -7 32.7811 56.2732   4
  -5   0  -7 86.8000 72.4520  15
   5   0   7-51.5584 50.4251  13
  -5   0  -7 59.3043 32.6462   1
  -5   1  -4 292.389 125.319   1
   5  -1   4 342.934 129.807   2
  -5   1  -5-44.6497 51.9900   4
   5  -1   5-72.6771 64.7726  16
   5   1   5 39.6906 57.5369  16
  -5  -1  -5-97.5190 87.4173   4
  -5   1  -5-27.8689 71.0249  14
   5  -1   5-45.2776 52.7094   2
   5   1   5 10.7114 44.3794   2
  -5   1  -5 1.59238 40.7959   1
   5  -1   5 112.956 68.3048   3
  -5  -1  -5-83.9752 86.1964   1
  -5   1  -6-3.41739 53.9941   4
  -5  -1  -6 84.0090 64.6553   4
   5  -1   6-132.052 102.775  16
   5   1   6-58.1758 64.4531  16
  -5   1  -6 17.9234 24.4819   1
  -5   1  -6-34.1035 47.6210  15
  -5  -1  -6 78.1402 56.4103  15
  -5  -1  -6 149.070 97.5745   1
  -5   1  -6 16.6250 41.3702  14
   5  -1   6 26.9727 49.8847   2
   5   1   6-19.6749 21.6274  13
   5  -1   6 110.915 75.5027  13
   5   1   6 132.823 69.6129   2
   5  -1   6-123.514 79.8742   3
   5  -2   4 141.718 84.0087  16
  -5   2  -4 155.633 77.3583  15
   5  -2   4 96.6580 37.1085   2
   5  -2   4 248.946 130.762   3
  -5   2  -4 132.912 72.4148   1
   5  -2   5 10.4217 45.7485  16
  -5   2  -5 52.3724 42.9845  15
  -5   2  -5-20.5804 50.9103  14
   5  -2   5-9.76540 48.5976   2
  -5   2  -5-92.1137 60.0366   1
   5  -2   5-28.8813 81.0108   3
  -5   2  -6-85.9974 61.0783   1
   5  -2   6-41.7092 5.61387  16
   5   2   6-220.102 84.2096  16
  -5  -2  -6 75.9980 105.430   4
  -5   2  -6-14.6629 52.9183  15
  -5  -2  -6-132.460 89.5973  15
  -5   2  -6-1.58277 44.2015  14
   5  -2   6-82.8123 87.3614   2
  -5  -2  -6 20.2169 26.4717   1
   5   2   6-106.596 76.2427  13
   5   2   6 32.7453 66.8066   2
   5  -2   6-39.7563 92.5323   3
   5  -3   4 87.9243 47.8023  16
  -5   3  -4 37.6909 70.6201  15
  -5   3  -4-0.48745 69.4340  14
   5  -3   4 168.657 71.7460   2
   5  -3   4 65.4831 86.5110   3
  -5   3  -4 29.5785 46.0502   1
   5  -3   5 6.91411 31.1341  16
  -5   3  -5 102.020 81.9204   1
  -5   3  -5 4.66803 47.3656  15
  -5   3  -5 0.22691 75.8737  14
   5  -3   5 21.8807 56.3842   2
   5  -3   5-40.0823 47.1941   3
   5  -3   6 321.954 131.844  16
  -5  -3  -6 171.737 106.971   4
  -5   3  -6-9.97243 49.4211  15
   5  -3   6 159.325 75.0535   2
  -5   3  -6 15.4482 88.8046  14
  -5  -3  -6 184.284 90.3720   1
   5   3   6 23.6606 71.6264  13
   5   3   6 32.9309 36.3619   2
   5  -3   6 156.349 130.669   3
  -5   3  -6 258.610 116.247   1
  -5   4  -3-8.44254 125.187  14
   5  -4   3 178.175 146.952   3
  -5   4  -3 280.089 131.526   1
   5  -4   4-31.4688 61.0560  16
  -5   4  -4 0.23275 62.1593  15
  -5   4  -4-0.24249 35.7666  14
  -5   4  -4-21.3859 49.9159   1
   5  -4   4 11.4644 29.4532   2
   5  -4   4-32.7925 76.9780   3
   5  -4   5 40.0621 30.3434  16
  -5   4  -5 1.57925 38.2576  15
   5  -4   5-48.0757 53.1005   2
  -5   4  -5 2.12315 88.1474  14
   5  -4   5 16.5345 81.2534   3
  -5   4  -5 23.8636 56.9380   1
  -5   5  -3 3.10318 123.438  14
   5  -5   3 15.6440 92.8450   3
  -5   5  -4 223.253 127.890   1
  -5   5  -4 0.23714 96.8682  15
  -5   5  -4-1.25542 71.5305  14
   5  -5   4 43.6095 75.1066   2
   5  -5   4 10.9326 28.7945   3
   0   0   0    0.00    0.00   0

TITL instrument in P2(1)/c
REM P2(1)/c (#14 in standard setting)
CELL 0.71073   5.060777  10.152647  13.677353  90.0000  98.5379  90.0000
ZERR    4.00   0.001188   0.001012   0.010340   0.0000   0.0455   0.0000
LATT  1
SYMM -x, y+1/2,-z+1/2
SFAC C H N O
UNIT 16.00 28.00 20.00 12.00
TREF
HKLF 4
END
;
_shelx_hkl_checksum              91069
_olex2_submission_special_instructions 'No special instructions were received'
_oxdiff_exptl_absorpt_empirical_details
;
Empirical correction (ABSPACK) includes:
- Absorption correction using spherical harmonics
- Frame scaling
;
_oxdiff_exptl_absorpt_empirical_full_max 35.710
_oxdiff_exptl_absorpt_empirical_full_min 0.551
loop_
_space_group_symop_operation_xyz
'x, y, z'
'-x, y+1/2, -z+1/2'
'-x, -y, -z'
'x, -y-1/2, z-1/2'
loop_
_atom_site_label
_atom_site_type_symbol
_atom_site_fract_x
_atom_site_fract_y
_atom_site_fract_z
_atom_site_U_iso_or_equiv
_atom_site_adp_type
_atom_site_occupancy
_atom_site_site_symmetry_order
_atom_site_calc_flag
_atom_site_refinement_flags_posn
_atom_site_refinement_flags_adp
_atom_site_refinement_flags_occupancy
_atom_site_disorder_assembly
_atom_site_disorder_group
C1 C 0.1019(16) 0.7907(5) 0.5387(10) 0.067(10) Uani 1 1 d . . . . .
H1 H -0.047704 0.830388 0.502871 0.081 Uiso 1 1 calc R . . . .
C2 C 0.3218(17) 0.8604(5) 0.5885(10) 0.052(10) Uani 1 1 d . . . . .
H2 H 0.343815 0.951386 0.591189 0.063 Uiso 1 1 calc R . . . .
C3 C 0.4935(16) 0.7695(5) 0.6315(10) 0.062(9) Uani 1 1 d . . . . .
H3 H 0.656641 0.784537 0.671079 0.075 Uiso 1 1 calc R . . . .
C4 C 0.4767(17) 0.5245(5) 0.6297(10) 0.043(10) Uani 1 1 d . . . . .
N1 N 0.3785(14) 0.6495(4) 0.6051(9) 0.051(10) Uani 1 1 d . . . . .
N2 N 0.1335(12) 0.6627(4) 0.5488(8) 0.056(8) Uani 1 1 d . . . . .
N3 N 0.3373(13) 0.4241(4) 0.5904(9) 0.056(9) Uani 1 1 d . . . . .
H3A H 0.398670 0.345445 0.600063 0.068 Uiso 1 1 calc R . . . .
H3B H 0.184372 0.436830 0.554968 0.068 Uiso 1 1 calc R . . . .
N4 N 0.7087(13) 0.5108(4) 0.6838(7) 0.058(8) Uani 1 1 d . . . . .
H4A H 0.776102 0.433514 0.694999 0.069 Uiso 1 1 calc R . . . .
H4B H 0.794805 0.578975 0.708493 0.069 Uiso 1 1 calc R . . . .
N5 N 0.2457(15) 0.6475(4) 0.8257(9) 0.075(10) Uani 1 1 d . . . . .
O1 O 0.4864(10) 0.6738(3) 0.8560(6) 0.076(7) Uani 1 1 d . . . . .
O2 O 0.1657(11) 0.5327(4) 0.8253(7) 0.084(9) Uani 1 1 d . . . . .
O3 O 0.0844(12) 0.7374(4) 0.7941(7) 0.063(8) Uani 1 1 d . . . . .
loop_
_atom_site_aniso_label
_atom_site_aniso_U_11
_atom_site_aniso_U_22
_atom_site_aniso_U_33
_atom_site_aniso_U_23
_atom_site_aniso_U_13
_atom_site_aniso_U_12
C1 0.046(8) 0.041(4) 0.11(2) 0.004(4) -0.010(13) 0.003(3)
C2 0.057(8) 0.041(3) 0.06(2) -0.008(4) 0.002(12) -0.004(3)
C3 0.053(7) 0.038(3) 0.09(2) -0.004(4) -0.017(12) -0.008(3)
C4 0.029(8) 0.041(4) 0.06(2) 0.006(4) 0.010(13) -0.004(3)
N1 0.037(6) 0.035(3) 0.08(2) 0.002(4) -0.012(11) -0.002(2)
N2 0.037(6) 0.041(3) 0.085(18) 0.000(3) -0.012(9) 0.001(2)
N3 0.052(7) 0.034(3) 0.08(2) 0.000(3) -0.014(11) 0.001(2)
N4 0.046(7) 0.052(3) 0.068(19) 0.001(3) -0.017(10) 0.002(2)
N5 0.061(7) 0.044(3) 0.11(2) -0.006(4) -0.030(12) 0.005(3)
O1 0.041(5) 0.046(2) 0.128(16) -0.005(3) -0.027(8) -0.004(2)
O2 0.058(7) 0.045(3) 0.14(2) 0.000(3) -0.021(11) -0.014(2)
O3 0.049(6) 0.058(3) 0.078(18) 0.011(3) -0.005(10) 0.008(2)
loop_
_atom_type_symbol
_atom_type_description
_atom_type_scat_dispersion_real
_atom_type_scat_dispersion_imag
_atom_type_scat_source
C C 0.0033 0.0016 'International Tables Vol C Tables 4.2.6.8 and 6.1.1.4'
H H 0.0000 0.0000 'International Tables Vol C Tables 4.2.6.8 and 6.1.1.4'
N N 0.0061 0.0033 'International Tables Vol C Tables 4.2.6.8 and 6.1.1.4'
O O 0.0106 0.0060 'International Tables Vol C Tables 4.2.6.8 and 6.1.1.4'
loop_
_geom_angle_atom_site_label_1
_geom_angle_atom_site_label_2
_geom_angle_atom_site_label_3
_geom_angle
_geom_angle_site_symmetry_1
_geom_angle_site_symmetry_3
_geom_angle_publ_flag
N2 C1 C2 111.8(5) . . ?
C3 C2 C1 106.3(4) . . ?
C2 C3 N1 105.8(5) . . ?
N3 C4 N1 117.5(5) . . ?
N4 C4 N1 119.8(4) . . ?
N4 C4 N3 122.5(5) . . ?
C3 N1 C4 128.7(4) . . ?
N2 N1 C3 112.0(4) . . ?
N2 N1 C4 119.3(4) . . ?
C1 N2 N1 104.1(4) . . ?
O1 N5 O3 120.5(5) . . ?
O2 N5 O1 120.3(4) . . ?
O2 N5 O3 119.2(5) . . ?
loop_
_geom_bond_atom_site_label_1
_geom_bond_atom_site_label_2
_geom_bond_distance
_geom_bond_site_symmetry_2
_geom_bond_publ_flag
C1 C2 1.407(7) . ?
C1 N2 1.314(6) . ?
C2 C3 1.342(7) . ?
C3 N1 1.375(6) . ?
C4 N1 1.386(6) . ?
C4 N3 1.308(6) . ?
C4 N4 1.299(6) . ?
N1 N2 1.365(6) . ?
N5 O1 1.255(6) . ?
N5 O2 1.234(6) . ?
N5 O3 1.258(5) . ?

_cod_database_fobs_code 2108918
