#------------------------------------------------------------------------------
#$Date: 2018-03-28 07:49:03 +0300 (Wed, 28 Mar 2018) $
#$Revision: 207152 $
#$URL: file:///home/coder/svn-repositories/cod/cif/2/10/82/2108231.cif $
#------------------------------------------------------------------------------
#
# This file is available in the Crystallography Open Database (COD),
# http://www.crystallography.net/. The original data for this entry
# were provided by IUCr Journals, http://journals.iucr.org/.
#
# The file may be used within the scientific community so long as
# proper attribution is given to the journal article from which the
# data were obtained.
#
data_2108231
loop_
_publ_author_name
'Siidra, Oleg'
'Nekrasova, Diana'
'Depmeier, Wulf'
'Chukanov, Nikita'
'Zaitsev, Anatoly'
'Turner, Rick'
_publ_section_title
;
 Hydrocerussite-related minerals and materials: structural principles,
 chemical variations and infrared spectroscopy
;
_journal_coeditor_code           PS5067
_journal_issue                   2
_journal_name_full               'Acta Crystallographica Section B'
_journal_page_first
;
;
_journal_paper_doi               10.1107/S2052520618000768
_journal_volume                  74
_journal_year                    2018
_chemical_formula_sum            'C2 H2 O8 Pb3'
_chemical_formula_weight         775.61
_space_group_crystal_system      trigonal
_space_group_IT_number           166
_space_group_name_Hall           '-R 3 2"'
_space_group_name_H-M_alt        'R -3 m :H'
_symmetry_space_group_name_Hall  '-R 3 2"'
_symmetry_space_group_name_H-M   'R -3 m :H'
_audit_creation_method           SHELXL-2014/7
_cell_angle_alpha                90
_cell_angle_beta                 90
_cell_angle_gamma                120
_cell_formula_units_Z            3
_cell_length_a                   5.24750(10)
_cell_length_b                   5.24750(10)
_cell_length_c                   23.6795(7)
_cell_measurement_reflns_used    841
_cell_measurement_temperature    296(2)
_cell_measurement_theta_max      27.990
_cell_measurement_theta_min      2.580
_cell_volume                     564.69(2)
_computing_structure_refinement  'SHELXL-2014/7 (Sheldrick, 2014)'
_diffrn_ambient_temperature      296(2)
_diffrn_measured_fraction_theta_full 1.000
_diffrn_measured_fraction_theta_max 1.000
_diffrn_measurement_device_type  'Bruker APEX 2'
_diffrn_radiation_type           MoK\a
_diffrn_radiation_wavelength     0.71073
_diffrn_reflns_av_R_equivalents  0.0566
_diffrn_reflns_av_unetI/netI     0.0371
_diffrn_reflns_Laue_measured_fraction_full 1.000
_diffrn_reflns_Laue_measured_fraction_max 1.000
_diffrn_reflns_limit_h_max       6
_diffrn_reflns_limit_h_min       -6
_diffrn_reflns_limit_k_max       5
_diffrn_reflns_limit_k_min       -6
_diffrn_reflns_limit_l_max       31
_diffrn_reflns_limit_l_min       -30
_diffrn_reflns_number            2825
_diffrn_reflns_point_group_measured_fraction_full 1.000
_diffrn_reflns_point_group_measured_fraction_max 1.000
_diffrn_reflns_theta_full        25.242
_diffrn_reflns_theta_max         27.990
_diffrn_reflns_theta_min         2.580
_exptl_absorpt_coefficient_mu    66.931
_exptl_crystal_density_diffrn    6.842
_exptl_crystal_description       plate
_exptl_crystal_F_000             972
_exptl_crystal_size_max          0.14
_exptl_crystal_size_mid          0.14
_exptl_crystal_size_min          0.05
_refine_diff_density_max         1.746
_refine_diff_density_min         -1.139
_refine_diff_density_rms         0.211
_refine_ls_extinction_coef       0.0025(4)
_refine_ls_extinction_expression Fc^*^=kFc[1+0.001xFc^2^\l^3^/sin(2\q)]^-1/4^
_refine_ls_extinction_method     'SHELXL-2014/7 (Sheldrick 2014'
_refine_ls_goodness_of_fit_ref   1.178
_refine_ls_hydrogen_treatment    undef
_refine_ls_matrix_type           full
_refine_ls_number_parameters     25
_refine_ls_number_reflns         340
_refine_ls_number_restraints     0
_refine_ls_restrained_S_all      1.178
_refine_ls_R_factor_all          0.0211
_refine_ls_R_factor_gt           0.0208
_refine_ls_shift/su_max          0.000
_refine_ls_shift/su_mean         0.000
_refine_ls_structure_factor_coef Fsqd
_refine_ls_weighting_details
'w=1/[\s^2^(Fo^2^)+(0.0166P)^2^+4.8829P] where P=(Fo^2^+2Fc^2^)/3'
_refine_ls_weighting_scheme      calc
_refine_ls_wR_factor_gt          0.0554
_refine_ls_wR_factor_ref         0.0557
_reflns_Friedel_coverage         0.000
_reflns_number_gt                334
_reflns_number_total             340
_reflns_threshold_expression     'I > 2\s(I)'
_cod_data_source_file            ps5067sup1.cif
_cod_data_source_block           natural
_cod_original_cell_volume        564.69(3)
_cod_database_code               2108231
_shelx_shelxl_version_number     2014/7
_shelx_space_group_comment
;
The symmetry employed for this shelxl refinement is uniquely defined
by the following loop, which should always be used as a source of
symmetry information in preference to the above space-group names.
They are only intended as comments.
;
_shelx_res_file
;

    shelx.res created by SHELXL-2014/7


TITL r_3m in R3m
CELL 0.71073   5.2475   5.2475  23.6795  90.000  90.000 120.000
ZERR    3.00   0.0001   0.0001   0.0007   0.000   0.000   0.000
LATT 3
SYMM -Y, X-Y, Z
SYMM -X+Y, -X, Z
SYMM -Y, -X, Z
SYMM -X+Y, Y, Z
SYMM X, X-Y, Z
SFAC O C PB H
UNIT 24 6 9  6
TEMP 23.000
acta
L.S. 20
BOND
FMAP 2
omit -4 56
PLAN 20
TWIN 0 1 0 1 0 0 0 0 1
WGHT    0.016600    4.882900
EXTI    0.002453
BASF   0.64167
FVAR       0.05978   0.16655
MOLE   1
PB1   3    0.000000    0.000000    0.215103    10.16667    0.01957    0.01957 =
         0.01943    0.00000    0.00000    0.00978
PB2   3    0.916434   -0.916434    0.001176    10.08333    0.03082    0.03082 =
         0.02167    0.00075   -0.00075    0.02276
O1    1    0.808417   -0.808417   -0.099508    10.50000    0.01609    0.01609 =
         0.04004    0.00115   -0.00115    0.01309
OH    1    0.000000    0.000000    0.311447    10.16667    0.06246    0.06246 =
         0.01772    0.00000    0.00000    0.03123
C1    2    0.333333   -0.333333    0.233727    10.16667    0.01573    0.01573 =
         0.02792    0.00000    0.00000    0.00786

HKLF 4

REM  r_3m in R3m
REM R1 =  0.0208 for     334 Fo > 4sig(Fo)  and  0.0211 for all     340 data
REM     25 parameters refined using      0 restraints

END

WGHT      0.0123      5.3118

REM Highest difference peak  1.746,  deepest hole -1.139,  1-sigma level  0.211
Q1    1   0.0000  0.0000  0.2476  10.16667  0.05    1.75
Q2    1   0.0000  0.0000  0.1808  10.16667  0.05    1.40
Q3    1   0.3333 -0.3333  0.2827  10.16667  0.05    0.84
Q4    1   0.0634  0.1268  0.3303  10.50000  0.05    0.81
Q5    1   0.9340 -0.9340 -0.1037  10.50000  0.05    0.68
Q6    1  -0.1111 -0.2222  0.2629  10.50000  0.05    0.60
Q7    1   0.0901  0.1802  0.1699  10.50000  0.05    0.57
Q8    1   0.9313 -0.9313 -0.0409  10.50000  0.05    0.54
Q9    1   0.7465 -0.7465 -0.1233  10.50000  0.05    0.53
Q10   1   0.8114 -0.8114 -0.1529  10.50000  0.05    0.50
Q11   1   0.1685  0.0843  0.2094  10.50000  0.05    0.47
Q12   1   0.1910 -0.1910  0.2954  10.50000  0.05    0.42
Q13   1   0.3333 -0.3333  0.1964  10.16667  0.05    0.42
Q14   1  -0.0934 -0.1867  0.3280  10.50000  0.05    0.40
Q15   1   0.7276 -0.9463 -0.1109  11.00000  0.05    0.38
Q16   1   1.0728 -0.8544 -0.1322  10.50000  0.05    0.37
Q17   1   1.0000 -1.0000  0.0479  10.16667  0.05    0.36
Q18   1   0.7800 -0.7800 -0.0729  10.50000  0.05    0.31
Q19   1   1.0609 -0.5409 -0.0863  11.00000  0.05    0.30
Q20   1   0.2648 -0.4703  0.2270  10.50000  0.05    0.26
;
_shelx_res_checksum              65940
_shelx_hkl_file
;
   1  -1   0    0.03    0.04
   1  -1   0    0.01    0.02
   0  -1   0    0.17    0.03
   1   0   0   -0.03    0.05
   2  -1   0  602.48   55.55
  -1  -1   0  640.00   51.42
   1   1   0  563.13   59.93
   1  -2   0  589.05   55.50
   1  -2   0  635.47   51.41
   2  -2   0   -0.02    0.07
  -2   0   0   -0.01    0.03
   2  -2   0    0.03    0.04
   2   0   0   -0.15    0.09
   0  -2   0    0.13    0.05
   3  -1   0   -0.05    0.09
  -1  -2   0    0.54    0.08
   3  -1   0    0.11    0.09
   1   2   0    0.34    0.18
   2  -3   0    0.25    0.16
   2  -3   0   -0.04    0.06
   3  -2   0   -0.05    0.08
  -2  -1   0   -0.45    0.26
   3  -2   0    0.00    0.11
  -2  -1   0    0.05    0.05
   2   1   0   -0.15    0.11
   1  -3   0    0.09    0.11
   1  -3   0    0.06    0.07
  -3   0   0  199.74   19.08
  -3   0   0  200.34   20.33
  -3   0   0  204.82   17.38
   3  -3   0  214.34   17.39
   3  -3   0  208.74   18.82
   0  -3   0  202.74   17.40
   3   0   0  204.87   20.31
   3   0   0  203.37   18.82
  -1  -3   0    0.00    0.09
   3  -4   0   -0.11    0.20
  -2  -2   0  244.80   19.81
   4  -2   0  224.92   21.42
   4  -2   0  221.62   20.36
   2   2   0  237.26   23.15
   2  -4   0  238.16   19.82
   2  -4   0  233.98   21.44
   4  -3   0   -0.03    0.14
   3   1   0    0.86    0.24
  -4   0   0    0.04    0.35
   4  -4   0   -0.03    0.22
  -4   0   0   -0.37    0.32
   4   0   0   -0.13    0.15
   4   0   0    0.64    0.22
   0  -4   0    0.87    0.14
  -1  -4   0   99.98    8.68
   5  -1   0   96.53    9.96
  -1  -4   0  100.24    8.54
   5  -1   0   96.08    9.26
  -5   1   0   97.11    9.49
   4  -5   0  112.91    9.32
   5  -2   0   -0.16    0.15
  -2  -3   0    0.21    0.12
  -5   2   0   -0.56    0.31
   3  -5   0    0.01    0.18
   3  -5   0   -0.05    0.11
   5  -3   0    0.19    0.17
   3   2   0   -0.01    0.23
   2  -5   0    0.23    0.18
   2  -5   0    0.20    0.14
   5  -4   0  105.68    9.38
  -4  -1   0  108.69   10.23
   1  -5   0  100.98    8.65
   4   1   0   97.41    9.38
   4   1   0   95.82   10.12
  -5   0   0   -0.17    0.47
   5   0   0   -0.35    0.23
   0  -5   0    0.27    0.15
   5   0   0    0.01    0.22
   6  -1   0   -0.04    0.24
   6  -1   0   -0.35    0.23
  -1  -5   0    0.05    0.17
  -6   1   0    0.33    0.51
  -6   1   0   -0.01    0.57
  -2  -4   0    0.06    0.26
  -2  -4   0    0.34    0.16
   6  -2   0    0.57    0.24
   4  -6   0    0.45    0.19
  -6   2   0   -0.20    0.44
  -3  -3   0  126.81   10.89
   6  -3   0  122.16   11.63
  -6   3   0  132.22   11.92
   3  -6   0  124.85   10.74
   6  -4   0    0.20    0.25
   2  -6   0    0.14    0.16
   4   2   0    0.04    0.31
  -5  -1   0    0.77    0.64
   1  -6   0    0.50    0.20
   5   1   0   -0.02    0.26
   5   1   0    0.10    0.33
  -6   0   0   67.77    6.12
   6   0   0   55.17    5.88
   6   0   0   58.91    5.49
   0  -6   0   55.75    5.01
   7  -1   0   -0.05    0.31
  -1  -6   0   -0.21    0.21
   7  -2   0   59.48    5.83
  -7   2   0   68.93    6.19
  -7   2   0   60.92    6.39
   7  -3   0    0.28    0.29
  -7   3   0    0.64    0.63
   7  -4   0    0.26    0.30
   3  -7   0    0.05    0.20
  -7   4   0   -0.38    0.52
   5   2   0   60.43    5.85
   2  -7   0   62.93    5.36
   5   2   0   62.85    6.32
   1  -7   0    0.03    0.22
   6   1   0   -0.11    0.34
   0  -7   0   -0.09    0.22
   8  -3   0    0.57    0.39
  -8   3   0   -1.49    0.68
  -8   4   0   59.92    5.73
   4   4   0   54.86    5.36
  -8   5   0   -0.49    0.64
  -9   4   0    0.07    0.98
  -9   5   0    0.06    0.84
  -9   6   0   17.62    2.33
  -9   7   0    0.37    0.75
   0  -1  -1   73.49    6.21
   1   0  -1   69.95    6.71
   0  -1  -1   76.76    6.72
   1   0  -1   70.03    7.24
   1  -1   1   73.43    6.70
   1  -1  -1   42.08    3.82
   1  -1  -1   34.52    3.62
   1  -1  -1   42.33    3.52
   1   0   1   46.45    4.12
   0  -1   1   41.08    3.52
   1  -3  -1    6.24    0.56
   2   1  -1    4.00    0.58
  -2  -1   1    4.98    0.45
  -2  -1   1    4.76    0.69
   3  -2   1    5.58    0.52
   0  -2  -1    9.85    0.96
   2   0  -1   11.52    1.14
   2  -2   1   11.39    0.96
   2  -2   1   11.33    1.05
  -1  -1  -1    0.02    0.04
   1  -2   1    0.23    0.09
   1  -2   1    0.07    0.05
   1   1   1   -0.07    0.13
  -2   0  -1   18.27    1.48
   2  -2  -1   17.19    1.62
   2  -2  -1   16.34    1.48
   0  -2   1   16.43    1.48
   1   2  -1    2.91    0.36
   2  -3  -1    2.59    0.26
   2  -3  -1    2.22    0.36
  -1  -2   1    2.44    0.25
   3  -1   1    2.28    0.31
   3  -1   1    3.03    0.31
   2  -4  -1    0.03    0.16
   2   2  -1   -0.03    0.19
   2  -4  -1   -0.20    0.09
   4  -2   1   -0.13    0.16
   4  -2   1    0.09    0.13
  -2  -2   1    0.03    0.08
   2  -5  -1    1.03    0.17
   3   2  -1    0.00    0.24
   2  -5  -1    0.94    0.24
   5  -3   1    0.80    0.21
   1  -4  -1    0.79    0.14
   4  -3   1    0.52    0.17
  -3   0   1    0.07    0.27
  -3   0   1   -0.07    0.24
  -1  -2  -1    4.81    0.42
   3  -1  -1    4.20    0.46
   3  -1  -1    4.12    0.49
   2  -3   1    4.39    0.42
   2  -3   1    5.51    0.54
  -2  -1  -1    2.59    0.25
   3  -2  -1    2.76    0.32
   3  -2  -1    2.82    0.30
  -2  -1  -1    2.30    0.45
   1  -3   1    2.94    0.32
   1  -3   1    2.45    0.26
   2   1   1    2.84    0.38
   3  -3  -1   -0.07    0.07
  -3   0  -1    0.05    0.25
   3  -3  -1    0.16    0.14
   3   0   1    0.01    0.15
   0  -3   1    0.52    0.09
   3  -4  -1    1.28    0.16
  -4   1  -1    1.42    0.39
   3  -4  -1    1.66    0.32
   4  -1   1    1.08    0.22
   4  -1   1    1.19    0.22
  -1  -3   1    0.54    0.14
   3  -5  -1   -0.07    0.21
   3  -5  -1   -0.01    0.12
   5  -2   1    0.31    0.18
  -2  -3   1    1.29    0.16
   3  -6  -1   -0.02    0.17
  -3  -3   1    0.18    0.25
   6  -3   1    0.54    0.24
   4   3  -1    8.02    1.04
   3  -7  -1    9.22    0.91
   7  -4   1   11.23    1.07
   4   2  -1    1.83    0.38
   2  -6  -1    1.71    0.29
   4   2  -1    2.49    0.47
   6  -4   1    2.19    0.38
   4   1  -1    0.09    0.26
   1  -5  -1    0.06    0.13
   4   1  -1    0.42    0.23
  -4  -1   1   -0.39    0.54
   0  -4  -1    0.04    0.12
   4   0  -1    0.33    0.17
   4   0  -1    0.25    0.20
  -4   0   1    0.01    0.35
   4  -4   1    0.56    0.23
  -4   0   1    0.61    0.39
  -1  -3  -1    0.55    0.12
   4  -1  -1    0.42    0.16
   4  -1  -1    0.67    0.18
  -4   1   1    0.45    0.32
   3  -4   1    0.84    0.26
   3  -4   1    0.43    0.13
   4  -2  -1    0.09    0.12
   2  -4   1    0.50    0.17
   2   2   1    0.94    0.26
  -3  -1  -1    1.79    0.49
   4  -3  -1    1.42    0.24
  -3  -1  -1    1.42    0.15
   4  -3  -1    1.09    0.20
   1  -4   1    0.97    0.17
   3   1   1    0.80    0.28
  -4   0  -1    0.14    0.38
   4  -4  -1    0.01    0.21
  -4   0  -1    0.39    0.37
   4   0   1   -0.04    0.21
   0  -4   1    0.07    0.12
   4   0   1    0.08    0.17
   4  -5  -1   -0.28    0.26
   4  -5  -1   -0.27    0.13
  -5   1  -1   -0.20    0.39
  -1  -4   1    0.02    0.13
   5  -1   1    0.08    0.19
  -1  -4   1   -0.10    0.22
   5  -1   1    0.12    0.19
   4  -6  -1    3.47    0.40
  -6   2  -1    4.33    0.77
   6  -2   1    2.57    0.46
  -2  -4   1    3.88    0.53
  -2  -4   1    3.32    0.38
   4  -7  -1    6.54    0.64
  -7   3  -1    4.89    1.06
  -3  -4   1    5.55    0.78
   7  -3   1    6.15    0.77
   4   4  -1    0.30    0.36
  -8   4  -1   -0.92    0.70
  -9   5  -1    0.48    0.91
  -8   5  -1    1.29    0.82
   5   2  -1   -0.06    0.29
   2  -7  -1   -0.34    0.21
   5   2  -1   -0.40    0.37
   5   1  -1    1.27    0.36
   1  -6  -1    2.32    0.31
   5   1  -1    1.65    0.42
  -5  -1   1    2.17    0.75
   5   0  -1    2.50    0.45
   5   0  -1    3.30    0.46
  -5   0   1    3.52    0.69
  -1  -4  -1    0.16    0.13
   5  -1  -1    0.48    0.24
  -1  -4  -1   -0.11    0.22
   5  -1  -1   -0.03    0.19
   5  -1  -1    0.38    0.21
  -5   1   1   -0.28    0.39
  -2  -3  -1    0.40    0.13
   5  -2  -1    0.91    0.21
   3  -5   1    0.19    0.13
  -5   2   1    0.17    0.36
   5  -3  -1    0.30    0.18
   3   2   1    0.28    0.27
   2  -5   1    0.28    0.15
  -4  -1  -1   -0.02    0.52
   1  -5   1   -0.08    0.13
   4   1   1   -0.14    0.25
  -5   0  -1    2.33    0.60
   5  -5  -1    2.68    0.46
   5   0   1    1.38    0.36
   0  -5   1    1.39    0.25
   0  -5   1    1.46    0.35
   5   0   1    1.73    0.36
  -6   1  -1    1.96    0.62
  -1  -5   1    1.69    0.27
  -1  -5   1    1.48    0.39
   6  -1   1    2.04    0.36
   6  -1   1    0.91    0.35
  -7   2  -1   -1.00    0.52
  -7   2  -1   -0.66    0.63
   7  -2   1    0.40    0.30
  -8   3  -1    4.91    1.18
   8  -3   1    5.31    0.79
  -9   4  -1    0.79    0.99
  -9   6  -1    0.56    0.84
   1  -7  -1    0.23    0.24
   6   1  -1    0.44    0.37
   6   0  -1    0.50    0.30
   0  -6  -1    0.01    0.19
   6   0  -1    0.40    0.33
  -6   0   1    0.08    0.71
   6  -1  -1    2.68    0.44
   6  -1  -1    1.81    0.36
  -1  -5  -1    2.36    0.31
  -6   1   1    2.37    0.73
  -6   1   1    1.10    0.58
  -2  -4  -1    2.42    0.28
   6  -2  -1    1.67    0.35
  -2  -4  -1    1.08    0.35
  -6   2   1    1.48    0.60
   6  -3  -1    0.72    0.25
  -3  -3  -1    0.14    0.27
  -6   3   1    0.11    0.46
   3  -6   1    1.00    0.21
   6  -4  -1    4.08    0.52
   2  -6   1    3.20    0.40
   4   2   1    2.95    0.58
   5   1   1    1.27    0.38
   1  -6   1    1.09    0.23
   5   1   1    0.92    0.40
  -6   0  -1   -0.21    0.68
   0  -6   1    0.03    0.18
   6   0   1    0.06    0.30
   6   0   1   -0.07    0.33
  -1  -6   1    0.47    0.24
   7  -1   1    0.91    0.40
  -9   7  -1   -0.49    0.78
   0  -7  -1   -0.16    0.23
   7  -1  -1    0.02    0.34
  -1  -6  -1    0.36    0.23
   7  -2  -1    0.22    0.31
  -2  -5  -1   -0.02    0.21
  -7   2   1   -0.47    0.53
  -7   2   1    0.33    0.66
   7  -3  -1   11.39    1.19
  -7   3   1   10.20    1.53
   7  -4  -1    5.66    0.74
   3  -7   1    6.02    0.63
  -7   4   1    4.81    0.99
   5   2   1   -0.18    0.32
   5   2   1   -0.05    0.40
   2  -7   1    0.31    0.21
   1  -7   1    0.48    0.23
   6   1   1    0.43    0.36
   0  -7   1    0.27    0.26
   8  -3  -1    3.02    0.58
  -8   3   1    1.87    0.94
   8  -4  -1    0.96    0.40
  -8   4   1    0.55    0.71
  -8   5   1    2.77    0.91
  -9   4   1    0.22    0.97
  -9   5   1    0.28    0.87
  -9   6   1   -0.72    0.75
  -9   7   1    0.70    0.75
   0   0  -2   -0.01    0.01
   0   0   2   -0.02    0.06
   1   0  -2   53.23    4.99
   0  -1  -2   51.93    4.28
  -1   0   2   45.04    5.00
   1  -1  -2   84.80    7.30
   1  -1  -2   97.58    7.50
   1  -1  -2   80.44    7.89
   1   0   2   77.99    8.52
   0  -1   2   87.96    7.30
   1   1  -2   -0.11    0.08
   1  -2  -2    0.01    0.11
   1  -2  -2   -0.01    0.04
  -1  -1   2   -0.04    0.09
   2  -1   2   -0.02    0.05
   2  -1   2   -0.01    0.05
  -1  -1   2   -0.08    0.03
   2  -1   2    0.00    0.06
   1  -3  -2  119.25    9.57
   3  -2   2  103.67    9.81
  -2  -1   2  119.04    9.56
   3  -2   2  108.54   10.34
   2   0  -2  282.97   27.27
   2   0  -2  289.23   29.44
  -2   0   2  336.74   29.46
   2  -2   2  282.86   27.26
  -1  -1  -2    0.22    0.05
   2  -1  -2    0.03    0.06
   2  -1  -2    0.11    0.09
   1  -2   2    0.03    0.07
   1   1   2   -0.04    0.16
   1  -2   2    0.01    0.04
   2  -2  -2  154.21   15.38
   2  -2  -2  184.12   14.98
   2  -2  -2  165.28   16.20
   2   0   2  199.24   17.50
   0  -2   2  180.66   14.98
   1   2  -2  184.91   18.78
   2  -3  -2  188.98   17.44
   2  -3  -2  194.78   16.09
  -1  -2   2  189.73   16.09
   3  -1   2  187.05   17.39
   3  -1   2  192.25   18.76
   2   2  -2    1.67    0.26
   2  -4  -2    0.10    0.18
   2  -5  -2   42.33    4.32
   2  -5  -2   46.88    3.97
   3   2  -2   50.46    4.67
   5  -3   2   45.25    4.30
   1  -4  -2  153.53   13.32
   3   1  -2  142.15   15.55
   4  -3   2  158.30   14.40
  -3  -1   2  176.26   15.66
  -3   0   2    0.66    0.30
   3  -3   2   -0.03    0.12
   3  -1  -2  119.84   10.51
  -1  -2  -2  118.85    9.71
   3  -1  -2  112.89   11.32
   3  -1  -2  106.68    9.98
  -3   1   2  104.61   10.66
   2  -3   2  121.86    9.71
  -2  -1  -2  218.61   20.26
   3  -2  -2  197.91   18.73
   3  -2  -2  213.19   17.81
  -2  -1  -2  197.26   17.32
   1  -3   2  210.22   18.73
   2   1   2  189.16   20.25
  -3   0  -2    0.01    0.06
  -3   0  -2    0.08    0.27
   3  -3  -2    0.03    0.07
   3  -3  -2   -0.10    0.14
   3   0   2   -0.34    0.15
   0  -3   2    0.19    0.09
   3  -4  -2   74.91    8.35
   3  -4  -2  100.34    7.68
  -4   1  -2   79.88    8.49
  -1  -3   2   94.12    7.68
   4  -1   2   94.04    8.96
   4  -1   2   93.78    8.32
   3  -5  -2   92.58    7.55
   3  -5  -2   76.62    6.93
   5  -2   2   76.65    7.50
  -2  -3   2   80.93    6.92
   3  -6  -2    0.23    0.18
  -3  -3   2    0.16    0.26
   6  -3   2   -0.07    0.20
   4   3  -2    7.31    0.84
   3  -7  -2    6.16    0.67
  -4  -3   2    6.02    0.78
   4   2  -2   35.08    3.48
   2  -6  -2   36.78    3.18
   4   2  -2   34.58    3.75
   6  -4   2   40.22    3.48
   1  -5  -2    0.03    0.14
   4   1  -2   -0.06    0.23
   4   1  -2   -0.26    0.17
  -4  -1   2   -0.07    0.54
   5  -4   2    0.60    0.23
   4   0  -2   99.14    9.48
   4   0  -2  100.38    8.80
   0  -4  -2  101.24    8.12
  -4   0   2   89.71    9.00
  -4   0   2   83.26    9.54
   4  -1  -2  155.70   15.70
  -1  -3  -2  158.37   13.47
   4  -1  -2  151.65   14.57
   3  -4   2  161.60   13.47
  -4   1   2  166.74   14.81
  -2  -2  -2    0.16    0.09
   4  -2  -2   -0.10    0.18
   4  -2  -2    0.11    0.13
   2  -4   2    0.16    0.13
   2  -4   2   -0.15    0.09
   2   2   2   -0.33    0.24
   4  -3  -2   91.36    8.30
  -3  -1  -2   95.73    7.65
  -3  -1  -2   74.85    9.00
   4  -3  -2   81.64    7.87
   1  -4   2   94.30    7.67
   3   1   2  101.26    9.00
  -4   0  -2  181.85   15.58
   4  -4  -2  168.25   14.13
  -4   0  -2  185.54   16.57
   4  -4  -2  155.38   15.32
   4   0   2  161.15   15.31
   4   0   2  152.27   16.51
   0  -4   2  164.07   14.13
   4  -5  -2   -0.17    0.26
  -5   1  -2   -0.70    0.37
   4  -5  -2   -0.21    0.12
  -1  -4   2    0.64    0.16
  -1  -4   2    0.79    0.26
   5  -1   2   -0.25    0.20
   5  -1   2    0.05    0.18
   4  -6  -2   24.99    2.08
  -6   2  -2   20.12    2.52
  -2  -4   2   25.34    2.07
   6  -2   2   22.84    2.28
  -2  -4   2   22.20    2.17
  -7   3  -2   10.34    1.53
   4  -7  -2   10.48    1.02
  -3  -4   2   10.73    1.16
   7  -3   2   11.06    1.15
   4  -8  -2   -0.01    0.27
   4   4  -2    0.12    0.34
  -8   4  -2   -0.09    0.78
  -9   5  -2    2.71    1.12
  -8   5  -2    7.41    1.36
   5   2  -2    0.13    0.29
   2  -7  -2    0.07    0.21
   5   2  -2    0.05    0.37
   5   1  -2   23.78    2.28
   1  -6  -2   22.95    2.07
   5   1  -2   25.16    2.46
  -5  -1   2   20.85    2.63
   0  -5  -2   55.20    4.73
   5   0  -2   50.73    5.53
   5   0  -2   52.22    5.15
  -5   0   2   66.78    5.71
   5  -1  -2    0.38    0.19
   5  -1  -2    0.58    0.25
  -1  -4  -2    0.12    0.14
  -5   1   2    0.75    0.39
  -5   1   2    0.06    0.39
  -2  -3  -2   46.36    3.87
   5  -2  -2   45.61    4.21
   3  -5   2   47.52    3.88
  -5   2   2   38.72    4.35
   5  -3  -2   79.34    7.22
   3   2   2   75.40    7.83
   2  -5   2   79.25    6.67
   5  -4  -2    0.07    0.23
  -4  -1  -2    0.22    0.51
   1  -5   2    0.71    0.28
   1  -5   2    0.71    0.17
   4   1   2   -0.36    0.26
  -5   0  -2   30.32    3.60
   5  -5  -2   39.28    3.33
   0  -5   2   34.75    2.97
   5   0   2   35.32    3.52
   0  -5   2   32.10    3.07
   5   0   2   34.22    3.27
  -6   1  -2   42.72    4.07
  -1  -5   2   38.89    3.46
  -1  -5   2   37.53    3.33
   6  -1   2   38.77    3.90
   6  -1   2   36.51    3.66
  -7   2  -2    0.02    0.66
  -7   2  -2   -0.03    0.60
  -2  -5   2    0.53    0.36
   7  -2   2   -0.04    0.30
  -8   3  -2    3.45    1.06
   8  -3   2    4.03    0.68
  -9   4  -2    2.65    1.20
  -9   6  -2   -0.89    0.81
   1  -7  -2   15.79    1.41
   6   1  -2   14.60    1.60
   6   0  -2    0.12    0.33
   0  -6  -2    0.23    0.20
   6   0  -2    0.12    0.30
  -6   0   2   -0.24    0.71
  -1  -5  -2   21.92    1.99
   6  -1  -2   24.69    2.32
   6  -1  -2   23.86    2.21
  -6   1   2   20.33    2.48
  -6   1   2   19.55    2.49
   6  -2  -2   36.48    3.58
  -2  -4  -2   38.11    3.28
  -6   2   2   40.94    3.84
  -3  -3  -2    0.31    0.26
  -6   3   2    0.97    0.49
   3  -6   2    0.39    0.18
   6  -4  -2   22.64    2.31
   4   2   2   27.03    2.57
   2  -6   2   23.32    2.11
   6  -5  -2   39.75    3.46
   1  -6   2   34.44    3.11
   5   1   2   33.81    3.70
   5   1   2   36.22    3.44
  -6   0  -2   -0.18    0.67
   6   0   2    0.40    0.34
   0  -6   2    0.07    0.18
   6   0   2   -0.26    0.35
   7  -1   2   10.63    1.14
  -1  -6   2    9.37    0.94
  -9   7  -2    4.01    1.17
  -1  -6  -2   15.81    1.47
   7  -1  -2   16.63    1.68
   7  -2  -2   -0.40    0.28
  -2  -5  -2   -0.08    0.20
  -7   2   2   -0.19    0.57
  -7   2   2    0.35    0.66
   7  -3  -2    6.69    0.81
  -7   3   2    5.69    1.08
   7  -4  -2   11.00    1.14
   3  -7   2    9.89    1.00
  -7   4   2   11.42    1.46
   5   2   2    0.17    0.36
   2  -7   2    0.44    0.26
   5   2   2    0.31    0.43
   6   1   2   11.29    1.20
   1  -7   2    9.39    0.97
   0  -7   2   11.33    1.10
   8  -3  -2    7.38    1.01
  -8   3   2   10.28    1.52
   8  -4  -2    0.12    0.36
  -8   4   2   -0.37    0.66
  -8   5   2    2.61    0.84
  -8   6   2    7.92    1.27
  -9   4   2    1.76    1.09
  -9   5   2    4.21    1.15
  -9   6   2    0.92    0.82
  -9   7   2    2.28    0.88
   0   0  -3    9.96    1.00
   0  -1  -3    0.08    0.09
   1   0  -3    0.01    0.04
   1   0  -3   -0.04    0.05
   0  -1  -3    0.01    0.04
  -1   0   3   -0.02    0.13
   1  -1  -3   -0.08    0.08
   1  -1  -3    0.04    0.06
   1  -1  -3    0.11    0.03
   1   0   3    0.07    0.11
   0  -1   3   -0.04    0.03
   1   1  -3   69.75    6.98
   1  -2  -3   71.35    5.98
   1  -2  -3   67.22    6.49
   2  -1   3   71.52    6.96
  -1  -1   3   69.45    5.97
   2  -1   3   71.78    6.46
   1  -3  -3    0.35    0.08
   2   1  -3   -0.22    0.11
   1  -3  -3    0.02    0.14
   3  -2   3    0.02    0.06
   3  -2   3    0.01    0.08
  -2  -1   3   -0.05    0.34
  -2  -1   3    0.06    0.05
   2   0  -3   -0.02    0.08
   0  -2  -3    0.14    0.06
   0  -2  -3    0.42    0.13
   2   0  -3    0.05    0.07
   2  -2   3    0.08    0.07
  -2   0   3    0.03    0.17
   2  -1  -3   67.87    6.29
   2  -1  -3   63.77    5.99
  -1  -1  -3   68.59    5.82
   1  -2   3   66.83    6.29
   1   1   3   72.98    6.85
   1  -2   3   70.93    5.82
   2  -2  -3    0.11    0.09
   2  -2  -3    0.10    0.10
   2  -2  -3   -0.02    0.04
   2   0   3    0.01    0.12
   2  -3  -3   -0.04    0.06
   1   2  -3    0.06    0.11
   2  -3  -3    0.00    0.17
  -1  -2   3    0.00    0.06
   3  -1   3    0.10    0.10
   2   2  -3  155.29   15.03
   2  -4  -3  147.39   13.95
   2  -4  -3  152.51   12.87
  -2  -2   3  154.71   12.86
   4  -2   3  147.32   13.91
   3   2  -3    0.29    0.24
   2  -5  -3    0.00    0.13
   2  -5  -3   -0.12    0.20
   5  -3   3   -0.01    0.16
   1  -4  -3    0.06    0.10
   3   1  -3    0.10    0.15
   1  -4  -3    0.07    0.17
   3   1  -3   -0.19    0.18
   4  -3   3    0.07    0.15
  -3  -1   3   -0.24    0.45
   3   0  -3  136.67   13.20
   0  -3  -3  145.36   12.21
   3   0  -3  142.51   14.25
  -3   0   3  140.51   14.29
  -3   0   3  143.06   13.43
   3  -3   3  154.32   13.21
  -1  -2  -3    0.04    0.07
   3  -1  -3   -0.04    0.08
   3  -1  -3   -0.12    0.08
   3  -1  -3   -0.01    0.11
   2  -3   3    0.22    0.13
   1   2   3   -0.01    0.17
  -3   1   3    0.52    0.21
   2  -3   3    0.27    0.08
   3  -2  -3    0.08    0.10
   3  -2  -3    0.13    0.05
  -2  -1  -3    0.09    0.26
   3  -2  -3    0.29    0.15
  -2  -1  -3    0.01    0.06
   1  -3   3   -0.09    0.06
   2   1   3    0.10    0.18
   3  -3  -3  164.88   15.51
   3  -3  -3  172.28   14.32
  -3   0  -3  167.54   14.31
  -3   0  -3  179.73   15.74
   3   0   3  165.93   16.74
   0  -3   3  163.58   14.32
  -4   1  -3   -0.40    0.28
   3  -4  -3    0.04    0.10
   3  -4  -3    0.00    0.23
   4  -1   3    0.31    0.15
  -1  -3   3   -0.09    0.08
   4  -1   3   -0.18    0.15
   3  -5  -3    0.01    0.22
   3  -5  -3    0.24    0.14
   5  -2   3    0.16    0.18
  -2  -3   3   -0.03    0.10
   3  -6  -3   22.24    1.99
  -3  -3   3   24.60    2.07
   6  -3   3   21.64    2.18
   4   3  -3    0.00    0.27
   3  -7  -3   -0.18    0.19
  -4  -3   3    0.39    0.33
   2  -6  -3    0.58    0.20
   4   2  -3    0.16    0.24
   4   2  -3   -0.39    0.27
   6  -4   3   -0.09    0.24
   4   1  -3   67.78    7.13
   1  -5  -3   69.47    6.09
  -4  -1   3   74.90    7.29
   5  -4   3   74.55    6.62
   4   0  -3    0.06    0.18
   4   0  -3   -0.09    0.15
   0  -4  -3   -0.03    0.11
   4  -4   3    0.81    0.24
  -4   0   3   -0.32    0.34
  -4   0   3    0.03    0.35
  -1  -3  -3   -0.16    0.10
   4  -1  -3    0.94    0.17
   4  -1  -3   -0.09    0.16
   4  -1  -3    0.08    0.14
   3  -4   3    0.23    0.19
  -4   1   3   -0.22    0.27
   4  -2  -3  144.60   13.13
  -2  -2  -3  147.87   12.13
   4  -2  -3  120.92   12.49
   2  -4   3  144.10   12.14
   2   2   3  151.71   14.23
   2  -4   3  147.94   13.12
   4  -3  -3    0.19    0.14
  -3  -1  -3    0.11    0.08
  -3  -1  -3    0.83    0.41
   3   1   3   -0.23    0.22
   4  -4  -3    0.05    0.21
  -4   0  -3   -0.16    0.38
   4  -4  -3   -0.19    0.09
  -4   0  -3   -0.45    0.32
   4   0   3    1.30    0.29
   4   0   3    0.89    0.24
   0  -4   3    0.08    0.11
   4  -5  -3   62.97    6.17
  -5   1  -3   63.95    6.33
   4  -5  -3   69.93    5.62
  -1  -4   3   66.00    5.73
  -1  -4   3   66.25    5.62
   5  -1   3   64.61    6.57
   5  -1   3   65.39    6.12
   4  -6  -3    0.00    0.17
  -6   2  -3   -0.16    0.51
   6  -2   3    0.16    0.24
  -2  -4   3    0.43    0.29
  -2  -4   3    0.26    0.16
   4  -7  -3   -0.05    0.21
  -7   3  -3   -0.16    0.63
   7  -3   3    0.37    0.31
  -3  -4   3   -0.13    0.31
  -8   4  -3    1.20    0.89
   4  -8  -3    2.36    0.40
   4   4  -3    1.68    0.46
  -4  -4   3    1.62    0.50
  -9   5  -3   -2.05    0.76
  -8   5  -3   -0.12    0.73
   5   2  -3    8.48    1.00
   5   2  -3    7.44    0.92
   2  -7  -3    7.28    0.76
   5   1  -3    0.04    0.23
   5   1  -3    0.22    0.29
   1  -6  -3    0.10    0.17
  -5  -1   3   -0.52    0.63
   0  -5  -3    0.09    0.14
   5   0  -3   -0.34    0.22
   5   0  -3    0.11    0.20
  -5   0   3   -0.22    0.50
   5  -1  -3   68.09    6.92
   5  -1  -3   68.69    6.15
  -1  -4  -3   69.08    5.94
   5  -1  -3   70.83    6.45
  -5   1   3   70.84    7.02
  -5   1   3   70.63    6.67
   5  -2  -3    0.04    0.17
  -2  -3  -3    0.10    0.12
   5  -2  -3   -0.39    0.24
   3  -5   3    0.01    0.13
  -5   2   3    0.36    0.35
  -3  -2  -3   -0.10    0.10
   5  -3  -3   -0.02    0.16
   2  -5   3    0.05    0.13
   3   2   3   -0.35    0.26
   5  -4  -3   67.64    6.11
  -4  -1  -3   66.91    6.67
   1  -5   3   64.18    5.73
   1  -5   3   64.01    5.61
   4   1   3   65.98    6.62
   5  -5  -3    0.33    0.34
  -5   0  -3   -0.50    0.44
   0  -5   3    0.01    0.15
   5   0   3    0.26    0.24
   0  -5   3    0.02    0.24
   5   0   3    0.12    0.29
  -6   1  -3   -0.36    0.49
   6  -1   3   -0.01    0.27
  -1  -5   3    0.03    0.18
  -1  -5   3    0.10    0.30
   6  -1   3   -0.22    0.27
  -7   2  -3    9.06    1.49
   7  -2   3    9.20    1.10
  -2  -5   3   11.00    1.11
  -8   3  -3   -1.18    0.76
   8  -3   3    0.24    0.39
  -9   4  -3   -1.03    0.86
  -9   6  -3    1.43    1.01
   1  -7  -3   -0.40    0.20
   6   1  -3    0.35    0.34
   6   0  -3   22.08    2.33
   6   0  -3   21.87    2.19
   0  -6  -3   21.35    1.97
  -6   0   3   26.41    2.67
   6  -1  -3    0.22    0.23
  -1  -5  -3   -0.08    0.16
   6  -1  -3    0.04    0.23
  -6   1   3    0.06    0.55
  -6   1   3   -0.34    0.48
   6  -2  -3    0.21    0.21
  -2  -4  -3    0.15    0.15
  -6   2   3    0.23    0.47
   6  -3  -3   20.41    2.05
   3  -6   3   21.62    1.87
  -6   3   3   21.90    2.26
   6  -4  -3   -0.22    0.23
   4   2   3   -0.51    0.33
   2  -6   3    0.24    0.17
   6  -5  -3   -0.17    0.30
   5   1   3   -0.13    0.37
   1  -6   3    0.59    0.19
   5   1   3    0.12    0.31
  -6   0  -3   21.56    2.48
   6   0   3   20.41    2.28
   0  -6   3   21.84    1.89
   6   0   3   21.16    2.14
  -1  -6   3   -0.17    0.19
   7  -1   3    0.20    0.37
  -9   7  -3   -0.39    0.83
  -1  -6  -3   -0.20    0.20
   7  -1  -3    0.23    0.33
   7  -2  -3    8.54    0.93
  -2  -5  -3    8.11    0.78
  -7   2   3    6.53    1.16
  -7   2   3    7.55    1.28
   7  -3  -3   -0.14    0.27
  -7   3   3   -0.13    0.56
   7  -4  -3    0.37    0.30
  -7   4   3   -0.30    0.49
   7  -5  -3   10.69    1.12
   5   2   3    9.40    1.26
   2  -7   3    9.57    0.93
   5   2   3    8.28    1.14
   1  -7   3    0.10    0.22
   6   1   3   -0.04    0.39
   8  -3  -3   -0.02    0.37
  -8   3   3    0.17    0.74
   8  -4  -3    3.06    0.58
  -8   4   3    2.71    0.87
  -8   5   3   -0.03    0.59
  -8   6   3   -1.07    0.55
  -9   4   3    0.37    0.98
  -9   5   3   -0.71    0.79
  -9   6   3    4.49    1.10
  -9   7   3   -0.68    0.65
   0   0  -4    0.01    0.05
   0   0  -4    0.19    0.06
   0   0   4    0.35    0.20
   1   0  -4  294.00   30.55
   0  -1  -4  310.83   26.17
   1   0  -4  306.25   28.29
   0  -1  -4  324.27   28.30
   1  -1  -4  185.53   14.83
   1  -1  -4  165.41   16.04
   1   0   4  173.72   17.33
   1   1  -4    0.09    0.07
   1  -2  -4   -0.01    0.05
   1  -2  -4    0.18    0.13
  -1  -1   4    0.03    0.04
  -1  -1   4    0.36    0.27
   2  -1   4    0.25    0.07
   2  -1   4   -0.03    0.05
   1  -3  -4   43.82    3.81
   2   1  -4   44.15    4.45
   1  -3  -4   51.74    4.17
  -2  -1   4   39.93    4.54
   3  -2   4   42.86    4.11
  -2  -1   4   45.18    3.79
   2   0  -4  134.74   12.39
   0  -2  -4  128.98   10.62
   0  -2  -4  108.14   11.50
   2   0  -4  132.33   11.48
   2  -2   4  127.16   11.47
  -2   0   4  118.08   12.42
   2  -1  -4    0.03    0.10
   2  -1  -4    0.06    0.06
  -1  -1  -4    0.04    0.05
   1  -2   4    0.10    0.05
   1   1   4   -0.28    0.23
   2  -2  -4  202.43   20.12
   2  -2  -4  222.36   18.60
   2  -2  -4  245.86   19.12
   0  -2   4  220.22   18.61
   2   0   4  206.20   21.73
   2  -3  -4   27.02    2.30
   2  -3  -4   22.23    2.54
   1   2  -4   29.67    2.70
  -1  -2   4   26.37    2.30
   3  -1   4   26.63    2.51
   3  -1   4   28.34    2.70
   2   2  -4   -0.18    0.15
   2  -4  -4   -0.05    0.10
   2  -4  -4   -0.16    0.18
  -2  -2   4   -0.11    0.08
   4  -2   4   -0.13    0.12
   2  -5  -4   27.29    2.35
   3   2  -4   22.47    2.49
   2  -5  -4   23.06    2.11
   5  -3   4   25.07    2.30
   1  -4  -4   13.78    1.19
   3   1  -4   15.91    1.43
   3   1  -4   13.46    1.31
   1  -4  -4   11.95    1.33
   4  -3   4   13.14    1.29
  -3  -1   4   11.05    1.58
   0  -3  -4   -0.13    0.07
   3   0  -4   -0.12    0.12
   3   0  -4    0.00    0.10
  -3   0   4   -0.08    0.27
  -3   0   4   -0.31    0.26
   3  -3   4   -0.09    0.12
   3  -1  -4   39.98    4.13
   3  -1  -4   38.67    3.67
   3  -1  -4   41.24    3.85
  -1  -2  -4   43.15    3.55
   1   2   4   39.99    3.96
  -3   1   4   42.93    3.95
   1   2   4   47.10    4.26
  -2  -1  -4   24.77    2.18
  -2  -1  -4   22.08    2.59
   3  -2  -4   24.93    2.37
   3  -2  -4   27.25    2.16
   1  -3   4   24.94    2.18
   2   1   4   28.44    2.63
  -3   0  -4   -0.23    0.26
  -3   0  -4    0.17    0.08
   3  -3  -4    0.08    0.07
   3  -3  -4    0.34    0.16
   3   0   4   -0.37    0.16
   0  -3   4   -0.07    0.08
   3  -4  -4   23.66    2.01
   3  -4  -4   23.38    2.27
  -1  -3   4   23.33    2.01
   4  -1   4   22.58    2.36
   4  -1   4   23.54    2.21
   3  -5  -4   14.75    1.27
  -2  -3   4   14.34    1.26
   5  -2   4   13.78    1.39
   3  -6  -4    0.09    0.15
   3  -6  -4    0.03    0.28
  -3  -3   4    0.18    0.24
   6  -3   4   -0.08    0.21
   3  -7  -4   22.65    1.99
   4   3  -4   20.87    2.19
  -4  -3   4   23.79    2.09
   2  -6  -4   18.43    1.68
   4   2  -4   20.98    2.02
   4   2  -4   17.60    1.85
   4   1  -4   -0.15    0.21
   1  -5  -4    0.19    0.14
   4   1  -4   -0.08    0.17
  -4  -1   4    0.34    0.58
   0  -4  -4   26.44    2.37
   4   0  -4   24.59    2.77
   4   0  -4   25.85    2.58
   4  -4   4   27.31    2.60
  -4   0   4   33.04    2.91
  -4   0   4   33.44    2.82
   4  -1  -4   13.56    1.25
   4  -1  -4   12.93    1.32
  -1  -3  -4   13.81    1.14
   4  -1  -4   13.90    1.22
  -4   1   4   11.09    1.40
   3  -4   4   11.03    1.26
   1   3   4   12.98    1.35
   4  -2  -4   -0.01    0.20
   4  -2  -4   -0.05    0.12
  -2  -2  -4    0.01    0.09
   2  -4   4    0.05    0.11
   2  -4   4   -0.02    0.10
   2   2   4   -0.08    0.29
  -4   2   4   -0.06    0.24
  -3  -1  -4   22.97    2.07
   4  -3  -4   24.74    2.28
  -3  -1  -4   27.06    2.55
   4  -3  -4   28.67    2.18
   1  -4   4   21.44    2.08
   3   1   4   21.82    2.49
   4  -4  -4   17.66    1.57
  -4   0  -4   15.39    1.73
  -4   0  -4   12.48    1.70
   4  -4  -4   16.70    1.36
   4   0   4   15.64    1.67
   0  -4   4   15.05    1.37
   4  -5  -4   -0.21    0.12
   4  -5  -4    0.12    0.30
  -5   1  -4   -0.16    0.42
   5  -1   4    0.11    0.22
  -1  -4   4   -0.23    0.12
  -1  -4   4    0.01    0.22
   5  -1   4   -0.05    0.22
   4  -6  -4   33.90    3.02
   4  -6  -4   30.36    2.70
  -6   2  -4   34.42    3.27
   6  -2   4   29.66    2.96
  -2  -4   4   31.00    2.80
  -2  -4   4   30.31    2.69
  -7   3  -4   14.99    1.89
   4  -7  -4   14.47    1.29
   7  -3   4   13.00    1.44
  -3  -4   4   13.98    1.42
   4   4  -4    0.54    0.35
  -8   4  -4    0.14    0.78
   4  -8  -4    0.01    0.28
  -4  -4   4    0.76    0.44
  -9   5  -4    4.00    1.30
   5   2  -4    0.10    0.33
   5   2  -4   -0.08    0.27
   2  -7  -4   -0.05    0.21
   5   1  -4   15.16    1.50
   1  -6  -4   14.94    1.34
   5   1  -4   14.03    1.60
  -5  -1   4   15.86    1.91
   0  -5  -4    5.83    0.58
   5   0  -4    6.01    0.67
   5   0  -4    6.41    0.72
  -5   0   4    4.27    0.92
   5  -1  -4    0.04    0.23
   5  -1  -4   -0.03    0.16
   5  -1  -4   -0.19    0.16
  -1  -4  -4    0.00    0.12
  -5   1   4   -0.15    0.35
  -5   1   4   -0.12    0.39
   5  -2  -4   22.35    2.17
   5  -2  -4   22.51    2.11
  -2  -3  -4   22.46    1.98
  -5   2   4   25.40    2.35
   5  -3  -4   13.04    1.33
  -3  -2  -4   13.43    1.19
   2  -5   4   13.71    1.21
   3   2   4   14.48    1.53
   5  -4  -4   -0.13    0.23
  -4  -1  -4    0.42    0.49
   1  -5   4   -0.06    0.14
   1  -5   4    0.05    0.23
   4   1   4   -0.11    0.29
   5  -5  -4   10.08    1.11
  -5   0  -4   12.44    1.31
   5   0   4    9.08    1.06
   0  -5   4   10.96    1.03
   0  -5   4    9.50    0.90
   5   0   4    8.33    1.12
  -6   1  -4    6.99    1.19
   6  -1   4    9.55    1.02
  -1  -5   4    9.16    0.85
   6  -1   4    9.41    1.03
  -1  -5   4    8.40    1.00
  -7   2  -4    0.45    0.74
   7  -2   4   -0.07    0.32
  -2  -5   4    0.40    0.38
  -8   3  -4   24.30    2.54
  -3  -5   4   17.59    1.89
  -9   4  -4    1.39    1.13
  -9   6  -4    0.64    0.96
   1  -7  -4    6.93    0.73
   6   1  -4    7.70    0.93
   6   0  -4    0.41    0.28
   0  -6  -4   -0.13    0.18
   6   0  -4   -0.19    0.29
  -6   0   4   -0.02    0.73
   6  -1  -4   15.43    1.63
  -1  -5  -4   15.41    1.40
   6  -1  -4   15.44    1.57
  -6   1   4   16.03    1.86
  -6   1   4   18.29    1.95
  -2  -4  -4   16.78    1.52
   6  -2  -4   16.86    1.68
  -6   2   4   18.97    1.96
   6  -3  -4    0.18    0.21
  -6   3   4    0.22    0.45
   6  -4  -4   29.76    2.70
   4   2   4   25.05    2.96
   2  -6   4   28.89    2.46
   6  -5  -4   11.86    1.19
   5   1   4   10.76    1.19
   1  -6   4    9.85    0.99
   5   1   4   10.51    1.29
  -6   0  -4   -0.01    0.68
   0  -6   4    0.20    0.34
   6   0   4   -0.14    0.33
   0  -6   4    0.21    0.21
   6   0   4    0.10    0.39
   7  -1   4   12.75    1.42
  -1  -6   4   12.66    1.19
   7  -1  -4    7.66    0.84
  -1  -6  -4    6.22    0.70
  -2  -5  -4   -0.03    0.19
   7  -2  -4   -0.08    0.28
  -7   2   4   -0.74    0.55
  -7   2   4    0.10    0.61
   7  -3  -4   20.55    2.08
  -7   3   4   22.31    2.38
   7  -4  -4   13.93    1.40
  -7   4   4   11.99    1.65
   7  -5  -4    0.48    0.37
   5   2   4    0.23    0.39
  -7   5   4    0.04    0.49
   5   2   4   -0.31    0.43
   6   1   4   11.28    1.32
  -8   3   4    6.33    1.27
   8  -4  -4    0.19    0.37
  -8   4   4   -0.23    0.63
  -8   5   4   16.96    2.02
  -8   6   4    3.71    0.88
  -8   7   4   -0.70    0.54
  -9   4   4    5.24    1.32
  -9   5   4    3.17    1.04
  -9   6   4    0.03    0.71
  -9   7   4    1.11    0.76
   0   0  -5    0.03    0.06
   0   0  -5   -0.08    0.06
   0   0   5    0.22    0.25
   1   0  -5  259.04   22.86
   1   0  -5  251.94   24.67
  -1   1  -5  245.82   24.66
  -1   0   5  240.78   24.70
   1  -1  -5  445.17   39.08
   0   1  -5  477.60   45.54
   0   1  -5  470.65   42.18
   1  -1  -5  442.63   40.08
   1   0   5  466.64   45.57
   1   1  -5   -0.01    0.06
   1   1  -5    0.26    0.09
   1  -2  -5    0.12    0.13
   1  -2  -5    0.19    0.06
  -1  -1   5    0.14    0.28
   2  -1   5    0.06    0.07
   1  -3  -5   54.32    4.77
   2   1  -5   57.56    5.16
   2   1  -5   60.15    5.57
   3  -2   5   51.99    5.15
   0  -2  -5  314.24   26.01
   0  -2  -5  275.36   24.03
   2   0  -5  269.36   25.97
   2   0  -5  267.63   28.03
  -2   0   5  303.11   28.08
   2  -2   5  273.50   25.95
   2  -1  -5    0.06    0.07
   2  -1  -5    0.06    0.10
  -1  -1  -5    0.00    0.06
   1   1   5    0.10    0.28
   2  -2  -5  152.06   15.33
   2  -2  -5  166.85   14.17
   0  -2   5  173.58   14.18
   2   0   5  176.02   16.58
   1   2  -5   84.96    8.83
   2  -3  -5   94.14    7.57
   2  -3  -5   81.92    8.24
  -1  -2   5   91.61    7.57
   3  -1   5   89.99    8.20
   3  -1   5   90.59    8.84
   2  -4  -5   -0.08    0.19
   2  -4  -5   -0.05    0.09
   2   2  -5   -0.05    0.15
   4  -2   5    0.12    0.13
  -2  -2   5    0.14    0.08
   3   2  -5   38.57    3.38
   3   2  -5   42.02    3.66
   2  -5  -5   35.60    3.10
   2  -5  -5   29.81    3.40
   5  -3   5   34.03    3.36
   3   1  -5   55.77    6.18
   1  -4  -5   63.13    5.29
   3   1  -5   59.29    5.73
   4  -3   5   66.78    5.72
  -3  -1   5   66.18    6.33
   3   0  -5   -0.01    0.12
   0  -3  -5    0.19    0.09
   3   0  -5   -0.03    0.10
   3  -3   5    0.01    0.12
  -3   0   5   -0.03    0.28
  -3   0   5    0.01    0.28
   3  -1  -5   52.89    4.46
  -1  -2  -5   50.05    4.11
   3  -1  -5   52.74    4.25
   3  -1  -5   50.94    4.79
   1   2   5   40.55    4.57
  -3   1   5   48.84    4.56
   2  -3   5   40.21    4.44
   3  -2  -5   92.61    7.74
   3  -2  -5   92.73    8.40
   3  -2  -5   82.51    8.00
  -2  -1  -5  103.34    9.09
  -2  -1  -5   87.40    7.76
   1  -3   5   86.28    7.76
   2   1   5   95.06    9.13
   3  -3  -5   -0.02    0.06
  -3   0  -5    0.08    0.28
   3  -3  -5    0.20    0.16
   0  -3   5   -0.08    0.08
   3   0   5    0.54    0.22
   3  -4  -5   33.09    3.58
   3  -4  -5   38.74    3.24
   4  -1   5   39.87    3.80
  -1  -3   5   37.70    3.24
   4  -1   5   38.62    3.54
   3  -5  -5   59.97    5.32
   3  -5  -5   71.62    5.84
  -2  -3   5   59.63    5.31
   5  -2   5   60.30    5.77
   3  -6  -5    0.15    0.28
   3  -6  -5    0.23    0.17
   3   3  -5   -0.31    0.20
   6  -3   5   -0.17    0.20
  -3  -3   5   -0.02    0.24
   3  -7  -5   22.14    1.96
   4   3  -5   24.17    2.17
  -4  -3   5   19.42    2.04
   2  -6  -5   49.83    4.15
   4   2  -5   45.51    4.86
   4   2  -5   46.63    4.50
  -4  -2   5   50.24    4.22
   4   1  -5    0.02    0.20
   1  -5  -5    0.03    0.14
   4   1  -5    0.01    0.18
  -4  -1   5    0.07    0.56
   0  -4  -5   27.99    2.42
   4   0  -5   30.28    2.84
   4   0  -5   28.94    2.64
  -4   0   5   25.59    2.83
  -4   0   5   24.70    2.94
   4  -1  -5   56.50    5.32
  -1  -3  -5   60.57    5.15
   4  -1  -5   60.24    5.58
   4  -1  -5   59.45    6.00
  -4   1   5   66.67    6.08
  -4   1   5   66.22    5.76
   1   3   5   54.37    5.71
   4  -2  -5    0.07    0.12
   4  -2  -5    0.16    0.21
  -2  -2  -5    0.12    0.10
   2   2   5   -0.53    0.29
  -4   2   5   -0.08    0.25
   4  -3  -5   38.00    3.30
  -3  -1  -5   35.18    3.01
   4  -3  -5   30.47    3.13
  -3  -1  -5   30.72    3.60
   3   1   5   40.92    3.62
   1  -4   5   36.39    3.02
   4  -4  -5   49.81    4.14
   4  -4  -5   48.70    4.55
  -4   0  -5   58.31    4.73
   0  -4   5   45.56    4.15
   4   0   5   44.05    4.89
  -5   1  -5   -0.03    0.43
   4  -5  -5    0.29    0.13
   4  -5  -5    0.13    0.30
   5  -1   5    0.25    0.23
  -1  -4   5   -0.14    0.13
  -1  -4   5   -0.08    0.21
   5  -1   5   -0.16    0.21
  -6   2  -5   28.31    3.19
   4  -6  -5   31.64    2.66
  -2  -4   5   29.64    2.76
  -2  -4   5   31.74    2.65
   6  -2   5   29.69    2.92
  -7   3  -5   43.76    3.97
   4  -7  -5   36.90    3.25
   3   4  -5   33.93    3.53
  -3  -4   5   39.29    3.36
   7  -3   5   36.94    3.55
  -8   4  -5   -0.07    0.84
   4  -8  -5    0.00    0.27
   4   4  -5   -0.02    0.33
  -4  -4   5   -0.04    0.38
  -9   5  -5    7.76    1.61
   5   2  -5    0.36    0.28
   5   2  -5    0.44    0.34
   2  -7  -5    0.30    0.23
   5   1  -5   19.70    1.85
   5   1  -5   20.06    2.00
   1  -6  -5   17.67    1.67
  -5  -1   5   17.04    2.23
   5   0  -5   22.25    2.19
   5   0  -5   21.35    2.34
   0  -5  -5   23.11    2.00
  -5   0   5   26.82    2.58
   5  -1  -5   -0.04    0.16
  -1  -4  -5    0.05    0.14
   5  -1  -5   -0.02    0.23
   5  -1  -5   -0.01    0.17
  -5   1   5    0.00    0.36
  -5   1   5    0.46    0.41
   5  -2  -5   35.64    3.23
   5  -2  -5   35.51    3.11
  -2  -3  -5   34.13    2.96
  -5   2   5   31.58    3.38
   5  -3  -5   70.89    5.41
  -3  -2  -5   57.10    5.20
   5  -3  -5   58.04    5.65
  -5   3   5   64.44    5.80
   3   2   5   60.39    6.18
   2  -5   5   57.71    5.21
   5  -4  -5   -0.07    0.22
  -4  -1  -5   -0.38    0.43
   4   1   5   -0.02    0.32
   1  -5   5   -0.19    0.13
   1  -5   5   -0.39    0.21
  -5   0  -5    9.56    1.58
   5  -5  -5   14.75    1.46
   5   0   5   15.37    1.54
   5   0   5   14.29    1.43
   0  -5   5   14.62    1.23
   0  -5   5   12.25    1.33
   5  -6  -5   32.49    3.17
  -6   1  -5   34.01    3.45
   6  -1   5   33.54    3.30
  -1  -5   5   31.95    2.93
   6  -1   5   32.43    3.12
  -1  -5   5   30.28    2.80
  -7   2  -5   -0.28    0.66
  -2  -5   5    0.32    0.37
   7  -2   5   -0.35    0.31
  -8   3  -5   16.71    2.29
  -3  -5   5   16.88    1.71
  -9   4  -5   12.27    2.04
  -9   6  -5    0.02    0.95
   1  -7  -5   20.67    1.94
   6   1  -5   22.86    2.16
   6   0  -5   -0.05    0.29
   6   0  -5    0.20    0.26
   0  -6  -5    0.14    0.21
  -6   0   5   -0.21    0.74
   6  -1  -5   17.79    1.77
   6  -1  -5   19.67    1.86
  -1  -5  -5   17.72    1.60
  -6   1   5   15.23    2.06
  -6   1   5   16.96    2.10
  -2  -4  -5   47.14    4.27
   6  -2  -5   48.07    4.65
  -6   2   5   52.57    5.10
  -6   2   5   54.46    4.92
   6  -3  -5   -0.01    0.21
  -6   3   5   -0.16    0.41
   6  -4  -5   30.66    2.90
  -6   4   5   28.02    3.03
   4   2   5   31.70    3.20
   6  -5  -5   32.38    3.05
   1  -6   5   29.49    2.73
   5   1   5   33.11    3.08
   1  -6   5   32.95    2.87
   5   1   5   29.92    3.30
  -6   0  -5    0.31    0.69
   6   0   5   -0.27    0.36
   0  -6   5    0.01    0.19
   6   0   5   -0.18    0.35
   0  -6   5    0.06    0.35
   7  -1   5   12.97    1.45
  -1  -6   5   12.61    1.38
  -1  -6  -5   20.25    1.88
   7  -1  -5   22.21    2.11
  -2  -5  -5    0.12    0.20
   7  -2  -5   -0.03    0.26
  -7   2   5   -0.77    0.57
  -7   2   5   -0.53    0.55
   7  -3  -5   23.40    2.16
  -7   3   5   18.81    2.40
   7  -4  -5   35.82    3.43
  -7   4   5   35.85    3.64
   7  -5  -5   -0.53    0.31
   5   2   5   -0.15    0.46
  -7   5   5    0.46    0.51
   6   1   5   15.69    1.73
  -8   3   5   28.61    3.18
   8  -4  -5   -0.14    0.35
  -8   4   5    0.11    0.66
   8  -5  -5   14.94    1.56
  -8   5   5   12.97    1.81
  -8   6   5   14.29    1.82
  -8   7   5   -0.15    0.53
  -8   8   5    2.57    0.73
  -9   4   5    5.41    1.33
  -9   5   5   12.62    1.89
  -9   6   5    0.16    0.74
  -9   7   5    3.08    0.92
   0   0  -6    1.49    0.19
   0   0  -6    1.55    0.19
   0   0   6    0.95    0.38
   1   0  -6    0.03    0.05
   1   0  -6   -0.01    0.05
  -1   1  -6    0.06    0.07
   0  -1  -6    0.08    0.09
   1  -1   6    0.05    0.06
  -1   0   6    0.38    0.22
   0   1  -6    0.07    0.05
   1  -1  -6    0.27    0.09
   0   1  -6    0.03    0.03
   1  -1  -6   -0.01    0.11
   0  -1   6    0.20    0.05
   1   0   6    0.09    0.23
   0  -1   6    0.00    0.11
   1  -2  -6    0.36    0.19
   1   1  -6    0.66    0.12
   1  -2  -6    0.44    0.11
   1   1  -6    0.70    0.14
   2  -1   6    0.61    0.14
  -1  -1   6    0.00    0.32
   1  -3  -6   -0.24    0.15
   1  -3  -6    0.04    0.09
   2   1  -6    0.20    0.13
   2   1  -6    0.00    0.09
   3  -2   6    0.24    0.10
  -2  -1   6   -0.07    0.38
   0  -2  -6    0.06    0.07
   2   0  -6    0.24    0.08
   0  -2  -6    0.04    0.13
   2   0  -6   -0.07    0.08
   2  -2   6    0.04    0.06
  -2   0   6   -0.13    0.21
   2  -1  -6    0.16    0.15
   2  -1  -6    0.36    0.12
  -1  -1  -6    0.27    0.10
   2  -1  -6    0.61    0.08
   1   1   6    0.36    0.35
   2  -2  -6    0.07    0.12
   2  -2  -6   -0.02    0.05
   2  -2  -6    0.00    0.11
   2   0   6   -0.06    0.17
   2  -3  -6    0.00    0.07
   2  -3  -6   -0.06    0.17
   1   2  -6    0.01    0.10
   3  -1   6   -0.09    0.13
  -1  -2   6    0.12    0.07
   2  -4  -6   59.96    6.17
   2  -4  -6   66.51    5.66
   2   2  -6   67.18    6.62
   4  -2   6   66.79    6.12
  -2  -2   6   69.90    5.65
   3   2  -6    0.11    0.17
   3   2  -6    0.32    0.22
   2  -5  -6   -0.08    0.14
   2  -5  -6    0.05    0.25
   5  -3   6    0.07    0.17
   1  -4  -6    0.16    0.21
   1  -4  -6   -0.11    0.11
   3   1  -6   -0.11    0.16
   3   1  -6   -0.11    0.12
   4  -3   6   -0.01    0.14
  -3  -1   6   -0.22    0.49
   3   0  -6   39.69    4.11
   0  -3  -6   38.41    3.52
   3   0  -6   39.63    3.82
  -3   0   6   44.00    3.99
   3  -3   6   43.25    3.81
  -3   0   6   44.02    4.20
   3  -1  -6   -0.07    0.10
  -1  -2  -6    0.02    0.08
   3  -1  -6   -0.04    0.10
   3  -1  -6   -0.07    0.13
   1   2   6   -0.26    0.34
   2  -3   6    0.00    0.07
  -3   1   6   -0.03    0.19
   1   2   6    0.19    0.27
   3  -2  -6   -0.03    0.04
  -2  -1  -6    0.08    0.24
   3  -2  -6    0.09    0.18
  -2  -1  -6    0.31    0.10
   3  -2  -6    0.00    0.11
   2   1   6   -0.32    0.25
   3  -3  -6   38.11    3.12
   3  -3  -6   36.92    3.25
  -3   0  -6   38.93    3.55
   3  -3  -6   36.82    3.43
   3   0   6   34.64    3.71
   0  -3   6   34.58    3.13
   3  -4  -6    0.14    0.25
   3  -4  -6   -0.01    0.10
  -1  -3   6   -0.20    0.09
   4  -1   6   -0.23    0.17
   4  -1   6   -0.04    0.16
   3  -5  -6    0.23    0.14
   3  -5  -6    0.24    0.27
  -2  -3   6    0.04    0.12
   5  -2   6   -0.02    0.18
   3  -6  -6    3.72    0.55
   3   3  -6    3.32    0.47
   3  -6  -6    3.04    0.39
   6  -3   6    3.07    0.47
  -3  -3   6    3.16    0.48
   4   3  -6    0.13    0.27
   3  -7  -6    0.15    0.22
  -4  -3   6    0.30    0.31
   2  -6  -6   -0.04    0.17
   4   2  -6   -0.24    0.20
   4   2  -6   -0.38    0.25
  -4  -2   6   -0.13    0.23
   1  -5  -6   18.05    1.59
   4   1  -6   17.80    1.87
   4   1  -6   18.00    1.73
  -4  -1   6   17.98    2.12
   4   0  -6    0.09    0.15
   0  -4  -6    0.21    0.13
   4   0  -6   -0.03    0.17
  -4   0   6   -0.63    0.35
  -4   0   6    0.45    0.42
   4  -1  -6    0.03    0.12
  -1  -3  -6    0.08    0.11
   4  -1  -6    0.12    0.19
   4  -1  -6   -0.05    0.13
   1   3   6   -0.40    0.28
  -4   1   6   -0.32    0.29
  -4   1   6   -0.09    0.27
  -2  -2  -6   62.06    5.35
   4  -2  -6   66.35    5.80
   4  -2  -6   56.30    5.54
  -4   2   6   64.54    5.93
   2   2   6   64.53    6.36
  -3  -1  -6   -0.07    0.09
   4  -3  -6    0.11    0.17
   4  -3  -6    0.01    0.20
  -3  -1  -6   -0.37    0.34
   1  -4   6   -0.14    0.10
   3   1   6   -0.02    0.31
  -4   0  -6   -0.66    0.35
   4  -4  -6    0.03    0.10
   4  -4  -6    0.19    0.22
   4   0   6   -0.13    0.27
   0  -4   6    0.07    0.12
   4  -5  -6   21.55    1.78
   4  -5  -6   20.21    2.05
  -5   1  -6   23.72    2.25
  -1  -4   6   19.96    1.78
   5  -1   6   19.18    1.98
   5  -1   6   19.61    2.11
  -1  -4   6   20.37    1.87
  -6   2  -6   -0.87    0.51
   4  -6  -6    0.15    0.18
   4  -6  -6   -0.34    0.28
   6  -2   6    0.61    0.26
  -2  -4   6    0.17    0.28
  -2  -4   6   -0.08    0.16
  -7   3  -6    0.16    0.71
   3   4  -6   -0.14    0.26
   4  -7  -6    0.09    0.22
  -3  -4   6    0.05    0.33
  -8   4  -6   -0.36    0.81
   4  -8  -6    0.65    0.29
   4   4  -6    0.57    0.34
  -4  -4   6   -0.09    0.41
  -9   5  -6    0.30    0.97
   5   2  -6    0.73    0.31
   5   2  -6    0.39    0.36
   2  -7  -6    0.09    0.21
   5   1  -6   -0.29    0.27
   5   1  -6   -0.17    0.21
   1  -6  -6    0.04    0.18
  -5  -1   6   -0.44    0.67
   0  -5  -6    0.11    0.15
   5   0  -6    0.06    0.22
   5   0  -6   -0.02    0.18
  -5   0   6    0.06    0.54
  -1  -4  -6   17.26    1.55
   5  -1  -6   17.94    1.79
   5  -1  -6   17.39    1.70
   5  -1  -6   19.31    1.67
  -5   1   6   17.71    1.94
   4  -5   6   16.69    1.38
  -5   1   6   16.39    1.92
  -2  -3  -6    0.08    0.13
   5  -2  -6    0.18    0.17
   5  -2  -6   -0.06    0.25
  -5   2   6    0.35    0.35
   5  -3  -6   -0.12    0.25
   5  -3  -6    0.22    0.19
  -3  -2  -6   -0.10    0.10
   3   2   6    0.05    0.35
  -5   3   6   -0.27    0.29
   5  -4  -6   21.90    2.06
  -4  -1  -6   23.64    2.31
   4   1   6   22.46    2.29
   1  -5   6   20.47    1.95
   1  -5   6   19.42    1.86
  -5   0  -6    0.21    0.46
   5  -5  -6    0.12    0.31
   5   0   6    0.00    0.35
   0  -5   6   -0.23    0.14
   0  -5   6   -0.30    0.25
   5   0   6   -0.40    0.28
   5  -6  -6    0.15    0.38
  -1  -5   6    0.08    0.31
   6  -1   6    0.24    0.32
  -1  -5   6   -0.10    0.17
   6  -1   6   -0.25    0.28
  -7   2  -6   -0.03    0.70
  -2  -5   6    1.09    0.43
   7  -2   6   -0.31    0.32
  -8   3  -6   -0.56    0.88
  -3  -5   6    0.14    0.46
  -9   4  -6    1.19    1.17
  -9   6  -6    0.17    0.95
   1  -7  -6    0.50    0.26
   6   1  -6    0.10    0.29
   6   0  -6    6.31    0.74
   6   0  -6    5.28    0.71
   0  -6  -6    5.08    0.59
  -6   0   6    6.19    1.18
  -1  -5  -6   -0.18    0.17
   6  -1  -6   -0.13    0.23
  -6   1   6   -0.29    0.54
  -6   1   6    0.02    0.53
   6  -2  -6    0.14    0.21
  -2  -4  -6    0.13    0.16
  -6   2   6    0.16    0.41
  -6   2   6    0.03    0.48
   6  -3  -6    3.72    0.50
  -6   3   6    2.68    0.65
   6  -4  -6   -0.19    0.25
  -6   4   6   -0.42    0.36
   4   2   6   -0.29    0.38
   6  -5  -6    0.30    0.34
   1  -6   6    0.33    0.34
   5   1   6   -0.16    0.41
   6  -6  -6    8.41    1.04
  -6   0  -6    5.76    1.14
   6   0   6    7.28    0.98
   0  -6   6    6.25    0.89
   6   0   6    7.67    0.98
   7  -1   6    0.50    0.45
  -1  -6   6   -0.01    0.40
  -1  -6  -6    0.08    0.22
   7  -1  -6    0.30    0.31
   7  -2  -6    0.38    0.32
  -2  -5  -6    0.68    0.23
  -7   2   6    0.30    0.67
  -7   2   6    0.25    0.60
   7  -3  -6    0.26    0.30
  -7   3   6   -0.19    0.54
   7  -4  -6    0.30    0.31
  -7   4   6   -0.42    0.49
   7  -5  -6    0.08    0.34
  -7   5   6   -0.02    0.48
   5   2   6    0.49    0.50
   6   1   6   -0.40    0.43
  -8   3   6    0.12    0.74
   8  -4  -6    0.54    0.40
  -8   4   6    0.22    0.69
   8  -5  -6    0.15    0.41
  -8   5   6    0.33    0.65
  -8   6   6    0.01    0.58
  -8   7   6    3.02    0.77
  -8   8   6    0.37    0.53
  -9   4   6    0.72    0.87
  -9   5   6   -0.25    0.80
  -9   6   6    1.39    0.83
  -9   7   6   -0.11    0.65
   0   0  -7    0.10    0.09
   0   0  -7    0.06    0.09
   0   0   7    0.38    0.36
  -1   1  -7   66.70    6.78
  -1   1  -7   67.80    5.96
   1   0  -7   66.71    6.78
   0  -1  -7   73.91    6.32
   1   0  -7   68.48    6.28
   1  -1   7   66.06    6.78
   0   1  -7   40.63    3.66
   1  -1  -7   38.54    3.41
   0   1  -7   38.96    3.38
   1   0   7   30.53    3.75
   0  -1   7   31.63    3.69
   1  -2  -7   -0.24    0.13
   1   1  -7   -0.04    0.05
   1  -2  -7    0.03    0.06
   1   1  -7    0.08    0.08
   2  -1   7    0.13    0.10
  -1  -1   7    0.52    0.34
   2   1  -7  189.65   18.99
   1  -3  -7  205.27   16.29
   2   1  -7  188.82   17.59
   3  -2   7  202.32   17.59
  -2  -1   7  170.19   19.09
   2   0  -7  141.76   12.42
   0  -2  -7  131.79   11.50
  -2   2  -7  141.10   13.39
   2   0  -7  140.84   13.40
   2  -2   7  136.69   12.40
  -2   0   7  118.12   13.45
   2  -1  -7   -0.04    0.07
   2  -1  -7   -0.09    0.11
   1   1   7   -0.05    0.35
   2  -2  -7  254.07   20.19
   2  -2  -7  236.90   19.63
   2  -2  -7  205.54   21.23
   2   0   7  229.74   22.96
   2  -3  -7  124.25   11.00
   1   2  -7  137.81   12.84
   3  -1   7  126.56   12.85
   2  -4  -7    0.17    0.21
   2   2  -7    0.02    0.11
   2  -4  -7    0.18    0.12
   2   2  -7   -0.09    0.15
   4  -2   7    0.07    0.13
   2  -5  -7   69.71    6.09
   3   2  -7   67.07    6.59
   3   2  -7   64.08    7.11
   2  -5  -7   85.05    6.68
   5  -3   7   73.52    6.59
   3   1  -7   93.38    8.04
   1  -4  -7   88.48    7.43
   3   1  -7   94.46    8.67
   1  -4  -7   71.69    8.07
  -3  -1   7   81.33    8.81
   4  -3   7   90.46    8.02
   3   0  -7    0.05    0.11
   3   0  -7   -0.09    0.12
   0  -3  -7   -0.07    0.09
  -3   0   7    0.66    0.34
   3  -3   7    0.05    0.11
  -3   0   7   -0.21    0.30
   3  -1  -7  193.67   18.22
   3  -1  -7  181.97   17.33
   3  -1  -7  181.87   19.65
  -1  -2  -7  196.57   16.87
  -3   1   7  201.64   18.48
   1   2   7  200.19   18.53
   2  -3   7  207.78   18.19
  -3   1   7  220.80   19.70
   1   2   7  205.36   19.79
  -2  -1  -7  110.96    9.39
  -2  -1  -7  100.50   10.96
   3  -2  -7  126.79    9.37
   3  -2  -7  113.79   10.16
   3  -2  -7   92.90    9.67
  -3   2   7  106.56   10.28
   2   1   7  120.73   11.07
   3  -3  -7    0.15    0.17
   3  -3  -7    0.06    0.08
   3  -3  -7   -0.35    0.14
  -3   0  -7    0.18    0.30
   3   0   7   -0.15    0.21
   3  -4  -7  152.76   14.27
   3  -4  -7  159.36   13.13
   4  -1   7  155.92   14.22
  -1  -3   7  151.74   13.13
   4  -1   7  152.94   15.34
   3  -5  -7   42.51    3.59
   5  -2   7   42.58    3.91
  -2  -3   7   39.98    3.66
   3  -6  -7    0.01    0.17
   3  -6  -7    0.07    0.31
   3   3  -7    0.13    0.21
  -3  -3   7   -0.27    0.22
   6  -3   7   -0.21    0.22
   4   3  -7   14.16    1.59
   3  -7  -7   14.69    1.34
   4   3  -7   14.27    1.46
  -4  -3   7   14.69    1.44
   2  -6  -7   20.54    2.01
   4   2  -7   25.68    2.21
   4   2  -7   24.10    2.38
  -4  -2   7   21.69    2.07
   4   1  -7    0.04    0.17
   1  -5  -7    0.09    0.14
   4   1  -7    0.07    0.21
  -4  -1   7   -0.58    0.56
   0  -4  -7  137.34   12.21
   4   0  -7  134.14   13.19
   4   0  -7  134.52   14.23
  -4   0   7  153.91   13.51
  -4   0   7  164.56   14.37
   4  -1  -7   90.18    8.02
   4  -1  -7   91.91    7.65
  -1  -3  -7   88.38    7.41
   4  -1  -7   87.84    8.63
  -4   1   7   84.56    8.21
  -4   1   7   77.96    8.69
  -2  -2  -7   -0.05    0.10
   4  -2  -7    0.01    0.14
   4  -2  -7    0.01    0.23
  -4   2   7   -0.05    0.24
   2   2   7   -0.19    0.38
  -3  -1  -7  178.06   16.24
   4  -3  -7  177.84   14.29
  -3  -1  -7  152.10   13.88
   4  -3  -7  152.37   15.02
   3   1   7  157.87   16.29
   4  -4  -7   91.22    7.40
   4  -4  -7   81.27    8.07
   0  -4   7   87.11    7.41
   4   0   7   87.12    8.71
  -5   1  -7    0.40    0.47
   4  -5  -7   -0.02    0.13
   4  -5  -7    0.01    0.31
   5  -1   7   -0.08    0.23
  -1  -4   7   -0.21    0.20
   5  -1   7    1.28    0.30
  -1  -4   7   -0.13    0.13
   4  -6  -7   45.95    4.07
   4  -6  -7   40.74    3.66
  -6   2  -7   46.29    4.33
  -2  -4   7   41.16    3.76
   6  -2   7   40.81    4.00
   3   4  -7    9.73    1.00
  -7   3  -7    8.73    1.47
   4  -7  -7    8.77    0.89
  -3  -4   7    8.77    1.05
   4   4  -7    0.35    0.32
  -8   4  -7   -0.50    0.84
   4  -8  -7    0.14    0.27
  -4  -4   7   -0.01    0.42
  -9   5  -7    4.28    1.38
   2  -7  -7   -0.02    0.21
   5   2  -7   -0.17    0.33
   5   2  -7   -0.22    0.27
   5   1  -7   33.97    3.61
   1  -6  -7   37.76    3.09
   5   1  -7   35.89    3.37
  -5  -1   7   33.12    3.83
   0  -5  -7   40.03    3.59
   5   0  -7   44.43    4.20
   5   0  -7   44.82    3.91
  -5   0   7   34.63    4.35
  -1  -4  -7    0.07    0.13
   5  -1  -7    0.07    0.25
   5  -1  -7   -0.02    0.17
   5  -1  -7   -0.12    0.17
  -5   1   7    0.86    0.43
   1   4   7   -0.06    0.30
  -5   1   7   -0.16    0.41
   4  -5   7    0.29    0.17
   5  -2  -7   61.15    5.84
   5  -2  -7   64.78    6.10
  -2  -3  -7   64.98    5.63
  -5   2   7   75.10    6.31
  -3  -2  -7   39.16    3.51
   5  -3  -7   44.02    3.84
   3   2   7   41.71    4.26
  -5   3   7   39.32    3.95
  -4  -1  -7    0.21    0.44
   5  -4  -7    0.10    0.22
   1  -5   7   -0.05    0.23
   4   1   7    0.09    0.36
   5  -5  -7   77.00    7.06
  -5   0  -7   86.13    7.64
   5   0   7   71.80    7.04
   0  -5   7   73.51    6.56
   5   0   7   69.07    7.58
   5  -6  -7   18.16    2.23
  -1  -5   7   23.42    2.09
   6  -1   7   22.86    2.32
   6  -1   7   23.79    2.22
   7  -2   7    0.29    0.36
  -2  -5   7    0.02    0.38
  -8   3  -7    9.63    1.65
  -3  -5   7    7.89    1.07
  -9   4  -7    2.73    1.31
  -9   6  -7   -0.84    0.97
   6   1  -7   10.31    1.07
   1  -7  -7    9.16    0.95
   6   0  -7    0.13    0.42
   0  -6  -7   -0.06    0.19
   6   0  -7   -0.01    0.26
   6   0  -7    0.18    0.28
  -6   0   7   -0.17    0.75
   6  -1  -7   35.00    3.63
  -1  -5  -7   38.04    3.33
  -6   1   7   44.13    3.99
  -6   1   7   41.48    4.10
  -2  -4  -7   21.86    1.99
   6  -2  -7   22.95    2.19
  -6   2   7   22.93    2.46
  -6   2   7   24.28    2.47
   6  -3  -7   -0.12    0.22
  -3  -3  -7   -0.02    0.15
  -6   3   7   -0.15    0.41
   6  -4  -7   38.64    3.80
   4   2   7   37.65    4.18
   2  -6   7   44.36    3.62
  -6   4   7   40.46    3.94
   6  -5  -7   25.70    2.41
   5   1   7   25.00    2.65
   1  -6   7   22.11    2.26
   6  -6  -7   -0.07    0.43
  -6   0  -7   -0.58    0.63
   6   0   7    0.48    0.43
   0  -6   7   -0.24    0.34
   6   0   7    0.34    0.42
   7  -1   7   17.09    1.90
  -1  -6   7   18.52    1.81
  -2  -6   7    5.30    0.87
   7  -1  -7   10.25    1.08
  -1  -6  -7    8.91    0.92
  -2  -5  -7    0.12    0.20
   7  -2  -7    0.51    0.29
  -7   2   7   -1.30    0.54
  -7   2   7   -0.69    0.59
   7  -3  -7   13.25    1.37
  -7   3   7   13.52    1.75
   7  -4  -7    8.43    0.93
  -7   4   7    6.79    1.15
   7  -5  -7   -0.49    0.33
  -7   5   7    0.06    0.49
   5   2   7   -0.16    0.51
  -7   6   7   15.40    1.76
   6   1   7   16.23    1.78
  -8   3   7    2.95    0.99
  -8   4   7   -0.57    0.64
  -8   5   7    8.46    1.33
  -8   6   7    6.07    1.05
  -8   7   7   -0.11    0.53
  -8   8   7    6.27    1.01
  -9   4   7    2.55    1.07
  -9   5   7    1.25    0.95
  -9   6   7   -1.00    0.66
  -9   7   7    5.41    1.10
   0   0  -8    0.21    0.10
   0   0  -8    0.06    0.10
   0   0   8    0.53    0.37
  -1   1  -8    1.05    0.12
  -1   1  -8    0.67    0.14
   1   0  -8    0.64    0.12
   1   0  -8    0.75    0.14
   0  -1  -8    0.32    0.16
   1   0  -8    0.83    0.12
  -1   0   8    0.50    0.29
   0   1   8    0.40    0.26
   1  -1   8    0.78    0.17
   0   1  -8    1.18    0.15
   0   1  -8    1.34    0.18
   1  -1  -8    0.98    0.20
   1  -1  -8    1.20    0.20
   0  -1   8    1.13    0.30
  -1   1   8    1.52    0.22
   1   0   8    1.56    0.40
   1  -2  -8   -0.03    0.06
   1   1  -8    0.04    0.06
   1  -2  -8   -0.09    0.13
   1   1  -8    0.02    0.08
  -1  -1   8    0.03    0.34
   2  -1   8   -0.09    0.11
   2   1  -8   16.01    1.45
   2   1  -8   14.89    1.34
   1  -3  -8   13.52    1.24
   3  -2   8   13.40    1.33
  -2  -1   8   10.90    1.62
   2   0  -8    1.17    0.20
   2   0  -8    1.19    0.19
  -2   2  -8    1.16    0.19
   0  -2  -8    1.76    0.28
   0  -2  -8    2.29    0.21
  -2   0   8    1.55    0.36
   2  -2   8    1.31    0.16
   2  -1  -8    0.08    0.12
   2  -1  -8    0.01    0.08
   1   1   8   -0.07    0.37
  -2   1   8    0.06    0.14
   0   2  -8    0.76    0.11
   2  -2  -8    0.66    0.11
   2  -2  -8    0.64    0.19
   0   2  -8    0.99    0.14
   2  -2  -8    0.58    0.17
   2   0   8    0.56    0.28
   1   2  -8   23.02    2.17
   1   2  -8   22.62    2.35
   2  -3  -8   24.00    2.01
   2  -3  -8   23.70    2.25
   3  -1   8   23.22    2.37
   2   2  -8    0.00    0.12
   2  -4  -8    0.36    0.25
   2   2  -8   -0.15    0.15
   2  -4  -8   -0.04    0.10
   4  -2   8    0.27    0.15
   2  -5  -8    9.73    0.93
   3   2  -8   11.37    1.02
   3   2  -8   11.24    1.11
   2  -5  -8    7.44    1.06
   3   1  -8   24.66    2.66
   1  -4  -8   24.91    2.27
   3   1  -8   24.28    2.46
   1  -4  -8   32.07    2.56
  -3  -1   8   24.81    2.86
   4  -3   8   28.31    2.46
   3   0  -8    0.15    0.12
   0  -3  -8    0.08    0.10
   3   0  -8   -0.14    0.12
   0  -3  -8   -0.04    0.19
  -3   0   8    0.47    0.36
  -3   0   8   -0.09    0.31
   3  -1  -8   13.43    1.26
   3  -1  -8   14.46    1.34
   3  -1  -8   13.71    1.23
  -1  -2  -8   13.43    1.16
   1   2   8   10.02    1.43
  -3   1   8   11.01    1.36
   1   2   8   10.54    1.54
  -3   1   8   13.72    1.41
  -2  -1  -8   28.07    2.46
   3  -2  -8   23.63    2.06
   3  -2  -8   21.45    2.18
  -2  -1  -8   23.66    2.09
   3  -2  -8   23.34    2.26
  -3   2   8   24.31    2.32
   2   1   8   24.37    2.58
   3  -3  -8    0.23    0.18
   3  -3  -8   -0.06    0.08
   3  -3  -8   -0.02    0.17
   3   0   8   -0.15    0.24
   3  -4  -8   15.44    1.35
   3  -4  -8   11.78    1.54
   4  -1   8   16.72    1.62
   4  -1   8   16.86    1.52
   3  -5  -8   18.74    1.76
   3  -5  -8   17.80    1.53
   2   3  -8   16.17    1.66
   5  -2   8   17.62    1.69
  -2  -3   8   16.78    1.59
   3  -6  -8   -0.04    0.30
   3   3  -8    0.14    0.21
   3  -6  -8    0.02    0.17
  -3  -3   8   -0.10    0.25
   3  -7  -8    0.09    0.21
   4   3  -8    0.31    0.33
   4   3  -8    0.27    0.27
  -4  -3   8    0.25    0.32
   4   2  -8    0.84    0.30
   2  -6  -8    1.06    0.39
   2  -6  -8    0.57    0.20
   4   2  -8    0.33    0.24
  -4  -2   8    0.30    0.27
   4   1  -8    0.30    0.19
   1  -5  -8    0.09    0.14
   4   1  -8    0.17    0.22
  -4  -1   8   -0.44    0.57
   4   0  -8   10.27    1.01
   0  -4  -8    8.73    0.85
   4   0  -8    9.76    0.94
  -4   0   8    7.54    1.18
  -4   0   8   10.12    1.25
   4  -1  -8   24.25    2.28
   4  -1  -8   26.16    2.37
   4  -1  -8   24.35    2.53
  -1  -3  -8   24.83    2.18
  -4   1   8   26.37    2.55
   1   3   8   24.57    2.54
  -4   1   8   26.59    2.63
  -2  -2  -8   -0.01    0.11
   4  -2  -8   -0.06    0.23
   4  -2  -8    0.14    0.15
   2   2   8   -0.37    0.40
  -4   2   8    0.04    0.26
  -3  -1  -8   12.31    1.50
   4  -3  -8   11.07    1.29
   4  -3  -8   15.80    1.36
  -3  -1  -8   13.57    1.21
  -4   3   8   14.81    1.42
   3   1   8   15.38    1.60
   4  -4  -8   17.03    1.45
   4  -4  -8   16.70    1.67
   4   0   8   16.05    1.81
   4  -5  -8   -0.09    0.13
  -5   1  -8   -0.08    0.49
   4  -5  -8    0.13    0.29
   5  -1   8   -0.32    0.25
  -1  -4   8   -0.13    0.21
   5  -1   8    0.18    0.26
   2   4  -8    0.76    0.25
  -6   2  -8    0.42    0.62
   4  -6  -8    0.46    0.20
   4  -6  -8    0.72    0.37
   6  -2   8    0.28    0.28
  -2  -4   8    0.51    0.31
  -7   3  -8    0.79    0.78
   4  -7  -8    0.49    0.24
  -3  -4   8    0.83    0.40
  -8   4  -8   -0.94    0.82
  -4  -4   8   -0.13    0.40
  -9   5  -8    1.91    1.18
   2  -7  -8    0.28    0.24
   5   2  -8    0.12    0.34
   5   2  -8    0.23    0.28
   5   1  -8    0.91    0.33
   5   1  -8    0.96    0.28
   1  -6  -8    0.98    0.25
  -5  -1   8    0.87    0.75
   0  -5  -8    5.22    0.54
   5   0  -8    5.01    0.64
   5   0  -8    5.34    0.60
  -5   0   8    5.55    0.96
  -1  -4  -8    0.54    0.17
   5  -1  -8    0.40    0.19
   5  -1  -8    0.36    0.28
   5  -1  -8    0.06    0.18
  -5   1   8    0.14    0.41
   1   4   8    0.22    0.35
   4  -5   8    0.20    0.17
  -5   1   8    0.69    0.47
  -2  -3  -8    8.20    0.81
   5  -2  -8    9.11    0.94
   5  -2  -8    9.95    0.92
  -5   2   8    7.14    1.08
   3  -5   8    8.83    0.75
  -5   2   8    8.77    1.05
   5  -3  -8   17.59    1.60
   5  -3  -8   15.15    1.61
  -3  -2  -8   16.66    1.47
   3   2   8   17.15    1.92
  -5   3   8   17.78    1.75
  -4  -1  -8   -0.07    0.42
   5  -4  -8    0.31    0.27
   5  -4  -8   -0.07    0.23
   4   1   8   -0.27    0.37
   1  -5   8    0.14    0.25
   5  -5  -8    3.32    0.60
  -5   0  -8    3.12    0.68
   0  -5   8    3.16    0.52
   5   0   8    3.91    0.66
   5   0   8    4.44    0.65
   5  -6  -8    2.25    0.54
   6  -1   8    1.61    0.42
   6  -1   8    1.53    0.44
  -1  -5   8    0.97    0.39
  -2  -5   8    0.10    0.38
   7  -2   8   -0.13    0.35
  -8   3  -8    0.01    0.97
  -3  -5   8   -0.33    0.42
  -4  -5   8    0.61    0.50
   6   1  -8    1.39    0.38
   1  -7  -8    1.49    0.32
   6   0  -8    0.28    0.41
   0  -6  -8    0.08    0.21
   6   0  -8    0.09    0.26
   6   0  -8   -0.21    0.28
  -6   0   8    0.00    0.78
  -1  -5  -8    1.26    0.25
   6  -1  -8    1.23    0.45
   6  -1  -8    1.08    0.30
  -6   1   8    0.29    0.60
  -6   1   8    0.32    0.57
   6  -2  -8    0.94    0.28
  -2  -4  -8    0.55    0.19
  -6   2   8    0.83    0.54
  -6   2   8    0.67    0.48
  -3  -3  -8    0.37    0.17
   6  -3  -8    0.24    0.24
  -6   3   8   -0.36    0.41
   6  -4  -8    1.13    0.33
  -6   4   8    0.25    0.42
   4   2   8   -0.15    0.47
   2  -6   8    0.49    0.33
   6  -5  -8    1.46    0.45
   1  -6   8    1.49    0.43
  -6   5   8    2.22    0.51
   5   1   8    1.02    0.55
   6  -6  -8    0.19    0.42
  -6   0  -8   -0.73    0.63
   6   0   8   -0.25    0.40
   0  -6   8    0.90    0.43
   6   0   8   -0.13    0.43
   7  -1   8    1.33    0.57
  -1  -6   8    1.04    0.49
  -2  -6   8    0.72    0.52
   7  -1  -8    0.94    0.36
  -1  -6  -8    1.16    0.28
   7  -2  -8    0.57    0.32
  -2  -5  -8   -0.10    0.20
  -7   2   8   -0.52    0.62
  -7   2   8   -0.16    0.63
   7  -3  -8    0.60    0.31
  -7   3   8   -0.04    0.59
   7  -4  -8    0.22    0.32
  -7   4   8    0.64    0.55
   7  -5  -8    0.63    0.39
  -7   5   8    0.27    0.50
   5   2   8    0.47    0.59
   7  -6  -8    1.07    0.50
   6   1   8    0.24    0.48
  -7   6   8    0.47    0.47
  -7   7   8    2.81    0.64
  -8   3   8    0.59    0.80
  -8   4   8   -0.02    0.69
  -8   5   8   -0.94    0.52
  -8   6   8   -0.10    0.55
  -8   7   8    0.14    0.54
  -8   8   8    0.27    0.52
  -9   4   8   -0.21    0.81
  -9   5   8    0.09    0.82
  -9   6   8   -0.08    0.73
  -9   7   8    0.08    0.68
   0   0  -9  995.73   82.53
   0   0  -9 1000.00   86.90
   0   0   9  848.24   93.81
   0  -1  -9    0.02    0.11
  -1   1  -9    0.06    0.09
   1   0  -9    0.22    0.10
   1   0  -9    0.29    0.09
  -1   1  -9    0.03    0.07
   1   0  -9    0.04    0.06
  -1   0   9    0.39    0.31
   1  -1   9    0.14    0.15
   0   1   9   -0.11    0.24
   1  -1  -9    0.05    0.09
   1  -1  -9   -0.09    0.10
   0   1  -9    0.18    0.07
   0   1  -9    0.33    0.06
  -1   1   9   -0.02    0.14
   0  -1   9   -0.19    0.24
   1   0   9    0.30    0.32
   1  -2  -9  434.66   35.33
   1   1  -9  435.81   41.21
   1  -2  -9  386.28   38.20
   1   1  -9  425.78   38.16
  -1  -1   9  393.61   41.29
   2  -1   9  421.93   41.21
   2   1  -9    0.02    0.09
   1  -3  -9    0.14    0.10
   2   1  -9    0.04    0.12
   1  -3  -9    0.31    0.20
  -2  -1   9   -0.22    0.43
   3  -2   9    0.11    0.10
   2   0  -9    0.01    0.09
   2   0  -9    0.12    0.09
  -2   2  -9    0.07    0.09
   0  -2  -9    0.08    0.16
   0  -2  -9    0.14    0.10
  -2   0   9    0.06    0.27
  -1   2  -9  436.45   41.00
   2  -1  -9  383.74   36.12
   2  -1  -9  411.81   37.99
   1   1   9  369.67   41.14
  -2   1   9  426.19   38.45
   1   1   9  416.76   38.54
  -2   1   9  456.40   41.04
   0   2  -9   -0.03    0.05
   2  -2  -9    0.24    0.08
   2  -2  -9    0.32    0.17
   2  -2  -9   -0.09    0.11
   0   2  -9    0.12    0.08
   2   0   9    0.02    0.26
   2  -3  -9   -0.11    0.17
   1   2  -9    0.06    0.11
   2  -3  -9    0.04    0.09
   1   2  -9    0.11    0.09
   3  -1   9   -0.07    0.16
   2  -4  -9  136.66   11.29
   2   2  -9  136.87   13.17
   2  -4  -9  119.99   12.25
   2   2  -9  136.24   12.19
   4  -2   9  132.43   12.20
   2  -5  -9   -0.11    0.13
   3   2  -9    0.06    0.19
   3   2  -9   -0.12    0.16
   2  -5  -9    0.18    0.25
  -3  -2   9   -0.06    0.19
   1  -4  -9    0.42    0.25
   1  -4  -9    0.08    0.13
   3   1  -9    0.03    0.15
   3   1  -9   -0.01    0.13
  -3  -1   9   -0.75    0.49
   3   0  -9  121.00   11.35
   0  -3  -9  129.98   11.42
   3   0  -9  123.07   12.25
   0  -3  -9  116.72   10.51
  -3   0   9  131.87   11.63
  -3   0   9  121.34   12.35
  -1  -2  -9    0.09    0.10
   3  -1  -9   -0.04    0.11
   3  -1  -9    0.07    0.16
   3  -1  -9   -0.09    0.10
  -3   1   9   -0.03    0.23
   1   2   9   -0.28    0.29
  -3   1   9    0.03    0.22
  -2  -1  -9    0.20    0.22
   3  -2  -9   -0.06    0.06
   3  -2  -9    0.18    0.20
   3  -2  -9   -0.08    0.12
  -3   2   9    0.10    0.18
   2   1   9   -0.15    0.38
   3  -3  -9  132.08   11.06
   3  -3  -9  123.22   12.00
   3  -3  -9  135.07   11.40
   3   0   9  130.12   12.99
   3  -4  -9    0.16    0.24
   3  -4  -9    0.11    0.11
   1   3  -9   -0.04    0.11
   4  -1   9    0.33    0.24
   3  -5  -9    0.08    0.13
   3  -5  -9   -0.22    0.23
   2   3  -9   -0.05    0.15
   5  -2   9    0.09    0.20
  -2  -3   9   -0.04    0.20
   3  -6  -9   86.45    7.38
   3   3  -9   84.77    7.99
   3  -6  -9   85.57    8.06
  -3  -3   9   88.69    7.50
   4   3  -9    0.33    0.32
   3  -7  -9    0.11    0.37
   3  -7  -9    0.07    0.23
   4   3  -9    0.01    0.26
  -4  -3   9    0.17    0.31
   4   2  -9    0.25    0.27
   2  -6  -9   -0.53    0.26
   4   2  -9    0.09    0.21
   2  -6  -9    0.02    0.17
  -4  -2   9   -0.20    0.23
   4   1  -9   66.55    5.91
   4   1  -9   63.13    6.37
   1  -5  -9   65.02    5.46
  -4  -1   9   58.09    6.55
   4   0  -9    0.22    0.16
   0  -4  -9    0.16    0.14
   4   0  -9   -0.03    0.16
  -4   0   9   -0.17    0.41
   0   4   9    0.36    0.30
  -4   0   9   -0.02    0.41
   4  -1  -9    0.12    0.14
   4  -1  -9    0.06    0.14
   4  -1  -9    0.07    0.21
  -1  -3  -9    0.20    0.12
  -4   1   9    0.09    0.31
   1   3   9   -0.16    0.32
  -4   1   9   -0.15    0.31
  -2  -2  -9  132.18   11.22
   4  -2  -9  134.95   12.13
   4  -2  -9  129.86   11.56
   2  -4   9  130.65    9.86
  -4   2   9  131.35   12.33
   4  -3  -9    0.24    0.24
  -3  -1  -9    0.21    0.33
  -3  -1  -9    0.21    0.13
   4  -3  -9    0.11    0.19
  -4   3   9    0.32    0.24
   3   1   9   -0.24    0.36
   4  -4  -9    0.10    0.10
   4  -4  -9   -0.15    0.24
   4   0   9    0.01    0.31
   4  -5  -9   66.97    5.52
   4  -5  -9   59.52    6.07
  -5   1  -9   67.71    6.28
   5  -1   9   63.47    6.48
  -1  -4   9   61.86    5.62
   5  -1   9   67.82    6.04
  -6   2  -9   -0.52    0.54
   4  -6  -9   -0.08    0.18
   4  -6  -9   -0.22    0.33
  -2  -4   9    0.03    0.28
   6  -2   9   -0.05    0.26
  -7   3  -9    0.23    0.76
   4  -7  -9    0.39    0.23
  -3  -4   9   -0.43    0.33
  -8   4  -9   46.20    4.95
  -4  -4   9   46.88    4.20
  -9   5  -9    0.80    1.16
   2  -7  -9   42.65    3.77
   5   2  -9   42.38    4.41
   5   2  -9   44.83    4.10
   1  -6  -9    0.02    0.20
   5   1  -9   -0.16    0.26
   5   1  -9    0.46    0.26
  -5  -1   9   -0.36    0.69
   5   0  -9    0.17    0.21
   0  -5  -9   -0.13    0.15
   5   0  -9   -0.26    0.20
  -5   0   9   -0.08    0.56
   5  -1  -9   64.60    6.09
  -1  -4  -9   64.38    5.62
   5  -1  -9   67.96    6.54
   5  -1  -9   67.59    5.84
  -5   1   9   65.76    6.68
   1   4   9   61.29    6.28
   4  -5   9   65.30    4.96
  -5   1   9   68.36    6.36
   5  -2  -9    0.02    0.18
  -2  -3  -9    0.08    0.14
   5  -2  -9   -0.12    0.27
  -5   2   9   -0.39    0.33
   3  -5   9    0.07    0.17
  -5   2   9   -0.42    0.29
   5  -3  -9   -0.15    0.27
  -3  -2  -9    0.26    0.14
   5  -3  -9   -0.21    0.19
   3   2   9    0.07    0.45
  -5   3   9    0.26    0.32
   5  -4  -9   65.20    6.13
  -4  -1  -9   65.33    6.61
   5  -4  -9   67.89    5.82
  -5   4   9   66.50    6.22
   4   1   9   64.87    6.70
   1  -5   9   64.08    5.74
  -5   0  -9   -0.52    0.42
   5  -5  -9   -0.29    0.28
   5   0   9   -0.10    0.37
   0  -5   9   -0.29    0.25
   5  -6  -9   -0.16    0.38
   6  -1   9    0.56    0.37
  -1  -5   9    0.00    0.31
   6  -1   9    0.09    0.34
  -2  -5   9   50.69    4.56
   7  -2   9   51.24    4.86
  -3  -5   9    0.65    0.50
  -4  -5   9   -0.13    0.50
   6   1  -9    0.05    0.28
   1  -7  -9    0.27    0.25
   6   0  -9   40.28    4.05
   6   0  -9   43.06    3.70
   0  -6  -9   39.47    3.48
   6   0  -9   39.30    3.79
  -6   0   9   37.61    4.36
   6  -1  -9    0.27    0.24
   6  -1  -9    0.09    0.38
  -1  -5  -9    0.07    0.19
  -6   1   9    0.20    0.59
   6  -2  -9    0.16    0.24
  -2  -4  -9    0.16    0.18
  -6   2   9   -0.16    0.44
  -6   2   9   -0.43    0.45
  -3  -3  -9   82.13    7.12
   6  -3  -9   81.71    7.73
  -6   3   9   87.62    7.97
   6  -4  -9    0.48    0.29
   4   2   9   -0.64    0.42
   2  -6   9    0.05    0.30
  -6   4   9    0.22    0.41
   6  -5  -9    0.03    0.34
   5   1   9   -0.11    0.47
  -6   5   9   -0.14    0.36
   1  -6   9    0.27    0.34
   6  -6  -9   42.78    4.18
  -6   0  -9   43.58    4.53
   6   0   9   43.98    4.20
   0  -6   9   42.77    3.88
   6   0   9   42.04    4.47
   7  -1   9    0.37    0.49
  -1  -6   9   -0.23    0.43
  -2  -6   9   -0.26    0.47
  -1  -6  -9    0.05    0.23
   7  -1  -9    0.20    0.32
  -2  -5  -9   43.40    3.76
   7  -2  -9   42.25    4.11
  -7   2   9   46.50    4.48
  -7   2   9   42.88    4.60
   7  -3  -9    0.20    0.30
  -7   3   9    0.17    0.59
   7  -4  -9    0.18    0.29
  -7   4   9    0.19    0.52
   7  -5  -9   49.90    4.48
  -7   5   9   44.65    4.60
   5   2   9   45.09    4.92
   7  -6  -9    0.61    0.48
   1  -7   9   -0.21    0.39
  -7   6   9    0.25    0.46
   6   1   9    0.47    0.54
   0  -7   9   -0.33    0.44
  -7   7   9    0.04    0.44
  -8   3   9   -0.95    0.70
  -8   4   9   42.13    4.36
  -8   5   9   -0.28    0.60
  -8   6   9    0.43    0.60
  -8   8   9   -0.36    0.50
  -9   4   9   -0.58    0.85
  -9   5   9   -0.19    0.80
  -9   6   9   11.53    1.72
   0   0 -10    0.39    0.12
   0   0 -10    0.24    0.12
   0   0  10    0.15    0.33
   0  -1 -10  247.29   21.89
   1   0 -10  243.73   21.86
  -1   1 -10  247.00   20.76
   1   0 -10  236.95   20.78
   1   0 -10  229.98   23.59
  -1   1 -10  232.82   23.60
   1  -1  10  257.75   23.64
  -1   0  10  211.73   23.68
   0   1 -10  151.53   13.31
   1  -1 -10  126.93   11.74
   1  -1 -10  140.58   12.35
   0  -1  10  116.27   13.38
   1   1 -10   -0.01    0.06
   1  -2 -10    0.15    0.16
   1   1 -10    0.14    0.10
   1  -2 -10   -0.06    0.09
  -1  -1  10    0.25    0.38
   2  -1  10    0.22    0.17
   1  -3 -10   65.60    5.43
   2   1 -10   57.25    5.78
   1  -3 -10   59.96    4.96
   2   1 -10   56.84    5.35
  -2  -1  10   46.04    5.91
   3  -2  10   60.37    5.34
   2   0 -10   41.60    4.05
  -2   2 -10   44.84    4.06
   0  -2 -10   38.35    3.49
  -2   2 -10   43.18    3.55
   2   0 -10   42.04    3.59
   2   0 -10   40.09    3.75
  -2   0  10   35.27    3.93
  -2   0  10   34.96    4.14
   2  -1 -10    0.10    0.10
  -1   2 -10    0.14    0.08
   2  -1 -10    0.04    0.15
  -2   1  10   -0.19    0.19
   1   1  10    0.11    0.31
   1   1  10    0.77    0.46
  -2   1  10   -0.10    0.19
   2  -2 -10   69.20    6.59
   2  -2 -10   70.96    6.27
   0   2 -10   71.59    7.07
   0   2 -10   70.11    6.54
   2  -2 -10   71.08    6.07
  -2   2  10   72.13    6.65
   2   0  10   74.82    7.21
   1   2 -10   37.66    3.59
   2  -3 -10   33.62    3.08
   1   2 -10   37.49    3.32
   3  -1  10   34.37    3.62
   2  -4 -10    0.03    0.11
   2  -4 -10    0.24    0.24
   2   2 -10    0.16    0.12
   2   2 -10   -0.14    0.15
   4  -2  10    0.06    0.14
   3   2 -10   10.94    1.32
   2  -5 -10   14.32    1.33
   3   2 -10   12.21    1.22
   2  -5 -10   13.22    1.13
   1  -4 -10    7.48    0.71
   3   1 -10    8.24    0.83
   1  -4 -10    5.78    0.85
   3   1 -10    7.88    0.76
  -3  -1  10    6.07    1.10
   3   0 -10    0.02    0.12
   0  -3 -10   -0.03    0.12
   0  -3 -10    0.08    0.21
   3   0 -10   -0.04    0.13
  -3   0  10    0.02    0.36
   0   3  10    0.41    0.28
  -3   0  10    0.05    0.38
   3  -1 -10   51.23    5.73
  -1  -2 -10   58.41    4.94
   3  -1 -10   57.33    5.33
   3  -1 -10   55.54    5.09
  -3   1  10   61.63    5.49
  -3   1  10   63.71    5.81
   1   2  10   59.44    5.55
   3  -2 -10   34.26    2.99
  -2  -1 -10   29.09    3.22
   3  -2 -10   30.05    2.87
   3  -2 -10   35.86    2.73
  -3   2  10   30.86    3.06
   2   1  10   28.31    3.38
   3  -3 -10   -0.14    0.19
   3  -3 -10   -0.12    0.09
   3  -3 -10    0.02    0.19
  -3   3  10    0.51    0.18
   3   0  10    0.08    0.30
   1   3 -10   12.19    1.21
   3  -4 -10   13.33    1.13
   3  -4 -10   13.46    1.33
   4  -1  10   12.10    1.38
   2   3 -10    8.23    0.82
   3  -5 -10    9.13    0.76
   3  -5 -10    5.35    0.91
   5  -2  10    7.67    0.85
  -2  -3  10    8.39    0.82
   3  -6 -10    0.00    0.19
   3  -6 -10    0.12    0.34
   3   3 -10   -0.06    0.19
  -3  -3  10    1.01    0.31
   3  -7 -10   30.15    2.49
   3  -7 -10   23.31    2.16
   4   3 -10   21.74    2.53
   4   3 -10   23.10    2.34
  -4  -3  10   25.91    2.25
   4   2 -10    9.26    1.05
   4   2 -10    9.65    0.96
   2  -6 -10    9.10    0.88
   2  -6 -10    8.60    1.11
  -4  -2  10    8.96    0.94
   4   1 -10    0.12    0.21
   4   1 -10    0.09    0.18
   1  -5 -10    0.09    0.17
  -4  -1  10   -0.85    0.57
   4   0 -10   10.24    1.00
   0  -4 -10   10.20    0.92
   4   0 -10    9.16    1.06
   4  -4  10   11.02    0.83
   0   4  10    8.70    1.14
  -4   0  10   11.14    1.36
  -4   0  10    9.71    1.31
   4  -1 -10    7.95    0.76
   4  -1 -10    6.63    0.72
   4  -1 -10    7.65    0.75
  -1  -3 -10    6.83    0.66
  -4   1  10    7.24    0.96
  -4   1  10    7.13    0.92
   1   3  10    5.81    0.93
   3  -4  10    6.19    0.60
   4  -2 -10    0.20    0.15
  -2  -2 -10    0.00    0.13
   4  -2 -10   -0.01    0.24
  -4   2  10    0.43    0.30
   2  -4  10   -0.03    0.13
  -3  -1 -10   11.75    1.15
   4  -3 -10   12.82    1.28
   4  -3 -10   13.10    1.25
  -3  -1 -10   14.72    1.42
   1  -4  10   11.55    1.03
   3   1  10   14.40    1.59
  -4   3  10   13.49    1.34
   4  -4 -10    6.61    0.75
   4   0  10    5.78    0.87
   4  -5 -10   -0.11    0.13
   4  -5 -10    0.27    0.34
  -5   1 -10    0.36    0.51
   5  -1  10   -0.15    0.24
  -1  -4  10    0.25    0.24
   5  -1  10   -0.13    0.29
   4  -6 -10   15.81    1.43
   4  -6 -10   14.85    1.66
   6  -2  10   18.07    1.64
  -2  -4  10   14.87    1.52
   4  -7 -10   15.28    1.32
   4  -7 -10   11.47    1.51
  -3  -4  10   15.54    1.45
  -8   4 -10    0.45    1.04
  -4  -4  10    0.15    0.44
  -9   5 -10    6.23    1.63
   5   2 -10   -0.01    0.28
   2  -7 -10    0.11    0.22
   5   2 -10   -0.52    0.30
   5   1 -10   10.51    1.12
   5   1 -10   10.38    1.21
   1  -6 -10   11.08    1.03
  -5  -1  10   12.82    1.60
   5   0 -10   10.49    0.99
   0  -5 -10    8.28    0.86
   5   0 -10    9.25    0.95
   5   0 -10    9.55    1.00
   0   5  10    8.89    1.13
  -5   0  10    7.32    1.30
   5  -1 -10   -0.13    0.18
   5  -1 -10   -0.06    0.17
   5  -1 -10   -0.23    0.25
  -1  -4 -10    0.38    0.17
   1   4  10    0.03    0.41
  -5   1  10   -0.46    0.40
  -5   1  10   -0.02    0.43
   4  -5  10    0.29    0.19
  -2  -3 -10   13.27    1.17
   5  -2 -10   13.11    1.28
   5  -2 -10   12.50    1.28
  -5   2  10   14.71    1.50
  -5   2  10   11.80    1.46
   3  -5  10   12.75    1.06
  -3  -2 -10    7.43    0.70
   5  -3 -10    6.79    0.84
   5  -3 -10    8.20    0.81
   3   2  10    5.33    1.06
  -5   3  10    7.76    0.96
   5  -4 -10   -0.02    0.29
   5  -4 -10    0.14    0.26
  -4  -1 -10    0.14    0.39
   4   1  10   -0.06    0.43
  -5   4  10    0.32    0.31
   1  -5  10   -0.06    0.24
   5  -5 -10   17.00    1.69
  -5   0 -10   17.70    1.87
   0  -5  10   16.12    1.56
   5   0  10   14.37    1.85
   5  -6 -10    6.42    0.96
   6  -1  10    6.48    0.90
   6  -1  10    6.99    0.94
  -1  -5  10    8.39    0.90
   5  -7 -10   -0.32    0.38
  -2  -5  10    0.32    0.40
  -3  -5  10   10.97    1.31
  -4  -5  10    1.79    0.65
   6   1 -10    3.92    0.59
   1  -7 -10    3.62    0.49
   6   0 -10    0.29    0.30
   6   0 -10   -0.15    0.23
   6   0 -10    0.46    0.44
   0  -6 -10   -0.19    0.21
  -6   0  10   -0.47    0.77
   0   6  10   -0.34    0.41
   6  -1 -10   11.59    1.23
   6  -1 -10   11.93    1.28
  -1  -5 -10   11.58    1.11
   5  -6  10   12.93    1.02
  -6   1  10   12.02    1.61
  -2  -4 -10    8.40    0.80
   6  -2 -10    7.37    0.98
   6  -2 -10    9.31    0.91
  -6   2  10    8.06    1.22
  -6   2  10    7.26    1.13
   6  -3 -10    0.15    0.22
  -3  -3 -10    0.04    0.17
  -6   3  10    0.14    0.45
   6  -4 -10   14.67    1.58
   4   2  10   15.66    1.88
   2  -6  10   17.14    1.56
  -6   4  10   15.54    1.73
   6  -5 -10    7.99    0.95
   5   1  10    7.33    1.11
   1  -6  10    5.96    0.87
  -6   5  10    7.01    0.95
  -6   0 -10   -0.29    0.63
   6  -6 -10   -0.16    0.41
   0  -6  10    0.31    0.39
  -6   6  10    0.52    0.39
   6   0  10   -0.32    0.44
   6   0  10   -0.22    0.47
  -1  -6  10    4.80    0.86
   7  -1  10    7.87    1.03
  -2  -6  10    3.43    0.76
  -3  -6  10    0.65    0.57
   7  -1 -10    3.48    0.57
  -1  -6 -10    3.21    0.45
   7  -2 -10    0.39    0.31
  -2  -5 -10    0.11    0.22
  -7   2  10   -0.14    0.64
  -7   2  10   -1.04    0.58
   7  -3 -10   23.12    2.28
  -7   3  10   23.62    2.59
   7  -4 -10   13.81    1.44
  -7   4  10   13.11    1.71
   7  -5 -10    0.35    0.36
  -7   5  10   -0.15    0.49
   5   2  10    0.05    0.57
   7  -6 -10    7.49    1.01
   6   1  10    7.12    1.08
   1  -7  10    6.80    0.93
  -7   6  10    4.95    0.93
  -7   7  10    1.25    0.53
   0  -7  10    2.16    0.61
  -8   3  10    4.28    1.07
  -8   4  10   -0.36    0.66
  -8   5  10    9.43    1.44
  -8   6  10    3.03    0.80
  -8   7  10   -0.45    0.51
  -8   8  10    1.19    0.61
  -9   4  10    3.28    1.13
  -9   5  10    1.24    0.93
  -9   6  10    0.38    0.81
   0   0 -11    0.32    0.13
   0   0 -11   -0.01    0.10
   0   0  11    0.60    0.37
  -1   1 -11   16.85    1.63
  -1   1 -11   16.48    1.43
   1   0 -11   16.16    1.50
   1   0 -11   17.26    1.45
   1   0 -11   17.29    1.62
  -1   0  11   14.22    1.76
   0   1  11   13.01    1.74
   1  -1  11   13.14    1.68
   0   1 -11   28.14    2.78
   1  -1 -11   30.68    2.49
   0   1 -11   28.62    2.57
   1  -1 -11   27.22    2.61
   0  -1  11   21.61    2.88
   1   0  11   27.79    2.97
  -1   1  11   29.36    2.85
   1   1 -11   -0.07    0.09
   1  -2 -11   -0.10    0.10
   1  -2 -11   -0.03    0.15
   1   1 -11    0.58    0.10
   2  -1  11    0.10    0.20
  -1  -1  11    0.22    0.39
   2   1 -11   53.48    4.90
   1  -3 -11   46.61    4.21
   2   1 -11   50.96    4.54
  -2  -1  11   47.19    5.07
   3  -2  11   46.60    4.52
   2   0 -11  112.66   10.12
  -2   2 -11  110.45   11.47
   0  -2 -11  124.93   10.69
   2   0 -11  113.67   10.62
   0  -2 -11  122.20    9.86
  -2   2 -11  114.25   10.08
   2   0 -11  111.07   11.47
  -2   0  11  119.28   10.90
  -2   0  11  115.53   11.58
   2  -1 -11    0.09    0.16
  -1   2 -11   -0.05    0.08
   2  -1 -11   -0.09    0.09
   1   1  11    0.81    0.47
   1   1  11    0.51    0.35
  -2   1  11    0.17    0.22
  -2   1  11    0.31    0.22
   0   2 -11   72.13    6.31
   2  -2 -11   68.09    6.37
   0   2 -11   77.46    6.83
   2  -2 -11   67.19    5.86
   2   0  11   57.93    6.95
  -2   2  11   65.76    6.44
   2  -3 -11   83.04    7.06
   1   2 -11   80.82    7.61
   1   2 -11   80.21    8.22
   2  -3 -11   87.29    7.69
   3  -1  11   83.79    8.27
   2   2 -11    0.19    0.13
   2   2 -11    0.11    0.17
   2  -4 -11   -0.09    0.11
   2  -4 -11   -0.04    0.22
   4  -2  11    0.07    0.15
   2  -5 -11   25.74    2.44
   3   2 -11   29.54    2.86
   3   2 -11   28.94    2.64
   3   1 -11   70.84    7.17
   1  -4 -11   73.08    6.15
   3   1 -11   73.92    6.64
   1  -4 -11   80.93    6.73
  -3  -1  11   58.93    7.31
   0  -3 -11    0.18    0.14
   3   0 -11   -0.07    0.16
   3   0 -11    0.13    0.12
   0  -3 -11    0.20    0.23
   3   0 -11   -0.04    0.14
  -3   0  11    0.32    0.43
  -3   0  11   -0.69    0.35
   0   3  11   -0.04    0.29
  -1  -2 -11   45.94    3.91
   3  -1 -11   48.79    4.21
   3  -1 -11   45.75    4.52
   3  -1 -11   48.60    4.04
   1   2  11   39.54    4.41
  -3   1  11   42.18    4.37
  -3   1  11   43.83    4.60
   3  -2 -11   86.81    7.73
   3  -2 -11   81.36    8.10
  -2  -1 -11   95.87    8.74
   3  -2 -11   85.56    7.47
  -3   2  11   84.74    8.23
   2   1  11   95.14    8.94
   3  -3 -11   -0.18    0.19
   3  -3 -11    0.13    0.11
   3  -3 -11    0.02    0.21
   3   0  11   -0.10    0.33
  -3   3  11    0.15    0.18
   3  -4 -11   46.88    3.98
   1   3 -11   49.64    4.29
   4  -1  11   41.87    4.69
   3  -5 -11   47.47    4.18
   3  -5 -11   45.06    3.78
   2   3 -11   40.86    4.07
  -2  -3  11   42.09    3.84
   5  -2  11   44.75    4.11
   3  -6 -11   -0.21    0.32
   3  -6 -11    0.02    0.19
   3   3 -11   -0.25    0.18
  -3  -3  11    0.20    0.29
   4   3 -11    1.52    0.41
   3  -7 -11    1.06    0.51
   4   3 -11    1.86    0.37
   3  -7 -11    1.23    0.30
  -4  -3  11    1.33    0.43
   4   2 -11   15.30    1.79
   4   2 -11   16.50    1.66
   2  -6 -11   20.92    1.81
   2  -6 -11   16.09    1.53
  -4  -2  11   18.29    1.59
   4   1 -11   -0.17    0.21
   4   1 -11   -0.06    0.17
   1  -5 -11    0.06    0.17
  -4  -1  11    0.16    0.63
   4   0 -11   50.88    4.44
   4   0 -11   50.53    4.78
   4   0 -11   52.50    4.27
   0  -4 -11   48.35    4.11
   4  -4  11   46.86    3.61
  -4   0  11   45.35    4.71
  -4   0  11   44.25    4.94
   0   4  11   39.18    4.57
   4  -1 -11   70.46    7.27
   4  -1 -11   70.82    6.46
  -1  -3 -11   73.84    6.26
   4  -1 -11   71.35    6.76
  -4   1  11   76.14    7.38
   3  -4  11   76.80    5.51
   1   3  11   71.32    6.99
  -4   1  11   75.98    6.99
  -2  -2 -11   -0.05    0.14
   4  -2 -11   -0.53    0.21
   4  -2 -11    0.01    0.16
  -4   2  11   -0.13    0.25
  -4   2  11   -0.35    0.27
   2  -4  11    0.05    0.14
   4  -3 -11   32.25    3.58
  -3  -1 -11   42.04    3.47
  -3  -1 -11   39.51    4.06
   4  -3 -11   47.86    3.78
   3   1  11   40.75    4.22
   1  -4  11   36.42    3.05
  -4   3  11   42.88    3.85
   4  -4 -11   81.81    8.06
  -4   4  11   92.76    8.11
   0  -4  11   83.86    7.50
   4   0  11   88.22    8.75
  -5   1 -11    0.69    0.58
   4  -5 -11    0.02    0.30
   4  -5 -11    0.06    0.15
  -1  -4  11    0.10    0.24
   5  -1  11   -0.07    0.31
   5  -1  11    0.39    0.31
   4  -6 -11   11.20    0.94
   4  -6 -11    7.02    1.13
  -2  -4  11    9.79    1.04
   6  -2  11   10.12    1.09
   4  -7 -11    2.94    0.60
   4  -7 -11    2.41    0.39
  -3  -4  11    2.45    0.52
  -8   4 -11   -0.95    0.90
  -4  -4  11    0.15    0.42
  -9   5 -11    1.21    1.21
   5   2 -11   -0.04    0.27
   2  -7 -11    0.33    0.25
   1  -6 -11    9.26    0.92
   5   1 -11    9.16    1.09
   5   1 -11   10.24    1.02
  -5  -1  11   10.32    1.46
   5   0 -11   18.81    2.10
   0  -5 -11   20.48    1.82
   5   0 -11   20.69    1.94
   5   0 -11   19.73    1.97
   5  -5  11   21.95    1.62
   0   5  11   20.11    2.13
  -5   0  11   23.88    2.43
   5  -1 -11   -0.03    0.18
   5  -1 -11    0.00    0.29
  -1  -4 -11    0.09    0.16
   5  -1 -11    0.31    0.20
   1   4  11   -0.12    0.39
   4  -5  11   -0.03    0.17
  -5   1  11    0.08    0.47
  -5   1  11    0.17    0.47
   5  -2 -11   22.65    2.21
  -2  -3 -11   23.28    2.07
   5  -2 -11   25.44    2.26
  -5   2  11   23.62    2.51
   3  -5  11   22.91    1.85
  -5   2  11   23.80    2.47
   5  -3 -11   42.59    3.94
  -3  -2 -11   44.52    3.77
   5  -3 -11   41.32    4.10
  -5   3  11   44.01    4.25
   3   2  11   48.55    4.64
   5  -4 -11    0.03    0.29
   5  -4 -11    0.04    0.26
  -5   4  11   -0.18    0.30
   1  -5  11   -0.02    0.25
   4   1  11    0.54    0.50
  -5   0 -11    9.55    1.42
   5  -5 -11   12.37    1.33
   0  -5  11   11.48    1.20
   5   0  11   12.01    1.47
  -5   5  11   13.96    1.30
   5  -6 -11   19.13    1.94
   6  -1  11   19.71    1.93
  -1  -5  11   17.35    1.77
   6  -1  11   18.04    1.99
   5  -7 -11   -0.28    0.39
  -2  -5  11    0.47    0.42
  -3  -5  11    1.56    0.57
  -4  -5  11    1.66    0.62
   6   1 -11    8.63    0.95
   6   1 -11    8.42    1.09
   1  -7 -11    7.91    0.85
   0  -6 -11    0.05    0.21
   6   0 -11    0.07    0.29
   6   0 -11    0.05    0.42
   6   0 -11    0.31    0.27
   0   6  11   -0.13    0.45
  -6   0  11   -0.63    0.80
   6  -1 -11    9.41    0.98
   6  -1 -11   10.75    1.07
  -1  -5 -11    8.65    0.87
   5  -6  11    8.68    0.80
  -6   1  11    7.56    1.31
  -2  -4 -11   16.86    1.55
   6  -2 -11   17.31    1.72
   6  -2 -11   16.34    1.70
  -6   2  11   19.33    2.01
  -6   2  11   18.56    2.03
   6  -3 -11   -0.06    0.35
   6  -3 -11    0.22    0.26
  -3  -3 -11    0.05    0.17
  -6   3  11    0.28    0.46
   6  -4 -11   10.05    1.09
   4   2  11    9.07    1.40
   2  -6  11   10.78    1.09
  -6   4  11    9.41    1.26
   6  -5 -11   16.84    1.74
   1  -6  11   16.12    1.63
  -6   5  11   16.54    1.78
   5   1  11   17.07    2.00
  -6   0 -11    0.72    0.66
   6  -6 -11    0.54    0.41
   6   0  11    0.16    0.50
   0  -6  11    0.49    0.40
   6   0  11    0.30    0.53
  -6   6  11    0.14    0.38
   7  -1  11    5.95    0.95
  -1  -6  11    4.98    0.83
  -2  -6  11    3.73    0.80
  -3  -6  11    0.59    0.59
   7  -1 -11    7.82    0.93
  -1  -6 -11    8.39    0.84
  -2  -5 -11   -0.13    0.22
   7  -2 -11    0.02    0.27
  -7   2  11   -0.77    0.62
  -7   2  11   -0.90    0.62
   7  -3 -11    1.70    0.41
  -7   3  11    1.13    0.69
   7  -4 -11    2.40    0.50
  -7   4  11    2.84    0.78
   7  -5 -11    0.12    0.38
   2  -7  11    0.02    0.42
  -7   5  11   -0.09    0.48
   5   2  11   -0.49    0.60
   7  -6 -11    6.56    0.91
  -7   6  11    5.24    0.88
   6   1  11    5.13    0.99
   1  -7  11    4.29    0.81
   0  -7  11    6.22    0.94
  -7   7  11    5.56    0.88
  -1  -7  11    0.50    0.55
  -8   3  11    3.62    1.04
  -8   4  11   -0.47    0.66
  -8   5  11    1.31    0.73
  -8   6  11    3.24    0.84
  -8   7  11    0.55    0.58
  -8   8  11    1.77    0.67
  -9   4  11   -0.65    0.84
  -9   5  11    1.96    0.98
  -9   6  11   -0.45    0.73
   0   0 -12   37.78    3.44
   0   0 -12   37.97    3.27
   0   0  12   33.25    3.85
  -1   1 -12    0.13    0.12
   1   0 -12   -0.10    0.11
   0  -1 -12   -0.03    0.14
   1   0 -12   -0.02    0.10
  -1   1 -12   -0.04    0.10
   1   0 -12   -0.01    0.08
   0  -1 -12    0.13    0.14
   0   1  12   -0.17    0.33
   0   1  12   -0.07    0.28
  -1   0  12    0.43    0.36
   1  -1  12    0.27    0.27
   0   1 -12   -0.08    0.07
   1  -1 -12    0.12    0.15
   0   1 -12   -0.06    0.09
   0   1 -12   -0.02    0.09
   1  -1 -12   -0.01    0.12
  -1   0 -12   -0.03    0.12
   0  -1  12   -0.03    0.32
  -1   1  12    0.19    0.27
  -1   1  12    0.29    0.26
   1   0  12    0.16    0.41
   1   1 -12  162.38   14.78
   1  -2 -12  159.02   14.84
   1  -2 -12  163.63   13.71
   1   1 -12  160.49   15.96
   2  -1  12  156.87   16.01
  -1   2  12  162.03   15.01
  -1  -1  12  164.33   16.10
   2   1 -12    0.13    0.10
   1  -3 -12   -0.09    0.18
   1  -3 -12    0.42    0.15
   2   1 -12    0.05    0.13
  -1   3  12    0.06    0.18
  -2  -1  12   -0.24    0.49
   3  -2  12    0.17    0.11
   2   0 -12    0.00    0.13
  -2   2 -12    0.19    0.10
   2   0 -12    0.04    0.12
   2   0 -12    0.08    0.09
   0  -2 -12   -0.20    0.16
   0  -2 -12    0.04    0.12
  -2   2 -12    0.26    0.14
  -2   0  12    0.45    0.37
  -2   0  12    0.11    0.39
   0   2  12    0.58    0.31
   2  -1 -12  155.38   13.86
   2  -1 -12  157.31   14.56
  -1   2 -12  169.99   15.70
  -2   1  12  160.93   14.81
   1   1  12  140.24   15.86
  -2   1  12  170.24   15.77
   1   1  12  151.79   14.88
   2  -2 -12    0.13    0.19
   0   2 -12   -0.04    0.09
   0   2 -12    0.01    0.06
   2  -2 -12    0.00    0.14
   2  -2 -12   -0.03    0.10
   2   0  12    0.02    0.35
  -2   2  12    0.11    0.19
   1   2 -12   -0.04    0.09
   2  -3 -12   -0.12    0.22
   2  -3 -12    0.05    0.11
   1   2 -12   -0.01    0.12
  -2   3  12    0.17    0.15
   3  -1  12   -0.02    0.24
   2   2 -12  163.28   15.86
   2  -4 -12  161.44   13.61
   2   2 -12  163.37   14.69
   2  -4 -12  145.60   14.75
   4  -2  12  164.85   14.70
   3   2 -12    0.20    0.17
   3   2 -12   -0.05    0.20
   2  -5 -12   -0.03    0.27
   2  -5 -12    0.20    0.16
   3   1 -12    0.00    0.13
   1  -4 -12    0.00    0.25
   3   1 -12   -0.26    0.15
   1  -4 -12    0.15    0.15
  -3  -1  12    0.79    0.57
   3   0 -12  201.54   19.71
   3   0 -12  205.75   17.39
   0  -3 -12  204.86   18.35
   0  -3 -12  200.54   16.93
   3   0 -12  201.28   18.27
  -3   0  12  193.35   19.85
   0   3  12  173.63   18.55
  -3   0  12  212.10   18.66
   3  -1 -12    0.24    0.20
   3  -1 -12    0.01    0.11
  -1  -2 -12   -0.14    0.14
   3  -1 -12   -0.12    0.12
  -3   1  12    0.25    0.31
   1   2  12    0.03    0.33
  -3   1  12    0.01    0.29
   3  -2 -12   -0.26    0.20
  -2  -1 -12    0.39    0.24
   3  -2 -12    0.15    0.16
   3  -2 -12    0.07    0.09
   2   1  12    0.44    0.51
  -3   2  12    0.27    0.24
   3  -3 -12  229.53   19.32
   3  -3 -12  228.83   19.88
   3  -3 -12  220.09   20.93
  -3   3  12  223.16   21.12
   3   0  12  237.57   22.68
   3  -4 -12   -0.17    0.23
   3  -4 -12    0.01    0.12
   4  -1  12   -0.24    0.25
   3  -5 -12    0.11    0.16
   3  -5 -12    0.05    0.27
   2   3 -12   -0.09    0.15
   5  -2  12    0.41    0.24
  -2  -3  12   -0.09    0.21
   3  -6 -12   31.60    3.42
   3   3 -12   36.86    3.34
   3  -6 -12   36.01    3.09
  -3  -3  12   36.41    3.17
   4   3 -12   -0.08    0.25
   3  -7 -12    0.03    0.24
   3  -7 -12    0.52    0.43
   4   3 -12   -0.01    0.31
  -4  -3  12    0.61    0.38
   4   2 -12   -0.04    0.22
   4   2 -12   -0.11    0.25
   2  -6 -12    0.29    0.21
   2  -6 -12    0.37    0.36
  -4  -2  12   -0.40    0.25
   4   1 -12   92.14    8.43
   4   1 -12   89.52    9.09
   1  -5 -12  100.43    8.53
   1  -5 -12   89.02    7.80
  -4  -1  12   82.30    9.27
   5  -4  12   93.35    6.85
   4   0 -12    0.00    0.17
   4   0 -12    0.08    0.22
   0  -4 -12    0.20    0.16
   4   0 -12    0.08    0.17
   4  -4  12    0.13    0.16
  -4   0  12    0.11    0.50
  -4   0  12   -0.45    0.44
   0   4  12    0.21    0.33
   4  -1 -12   -0.02    0.22
   4  -1 -12   -0.09    0.14
   4  -1 -12    0.07    0.15
  -1  -3 -12   -0.05    0.14
   1   3  12   -0.19    0.36
   3  -4  12   -0.12    0.15
  -4   1  12    0.06    0.36
  -4   1  12    0.00    0.38
  -2  -2 -12  157.34   13.37
   4  -2 -12  156.45   14.45
   4  -2 -12  154.60   13.76
  -4   2  12  157.49   14.70
  -4   2  12  165.87   15.63
   2  -4  12  151.13   11.75
  -3  -1 -12   -0.18    0.16
  -3  -1 -12   -0.21    0.28
   4  -3 -12   -0.06    0.26
   4  -3 -12    0.07    0.20
   1  -4  12    0.07    0.15
   3   1  12    0.06    0.47
  -4   3  12    0.29    0.26
   4  -4 -12    0.09    0.27
  -4   4  12   -0.29    0.21
   4   0  12   -0.26    0.37
   0  -4  12   -0.23    0.19
   4  -5 -12   93.20    7.76
   4  -5 -12   84.23    8.48
   5  -1  12   89.86    9.11
  -1  -4  12   89.57    7.89
   5  -1  12   97.35    8.48
   4  -6 -12    0.10    0.19
   4  -6 -12   -0.10    0.35
  -2  -4  12   -0.12    0.30
   4  -7 -12    0.08    0.23
   4  -7 -12    0.21    0.41
  -3  -4  12    0.17    0.37
  -8   4 -12    6.26    1.46
  -4  -4  12    5.58    0.85
  -9   5 -12   -0.95    1.07
  -5  -4  12   -0.04    0.51
   5   2 -12   17.01    1.64
   2  -7 -12   15.68    1.50
   1  -6 -12    0.02    0.21
   5   1 -12   -0.08    0.23
   5   1 -12   -0.09    0.25
  -5  -1  12   -1.00    0.66
   5   0 -12    0.18    0.23
   0  -5 -12    0.32    0.19
   5   0 -12   -0.13    0.27
   5   0 -12   -0.08    0.20
   5  -5  12   -0.15    0.18
   0   5  12   -0.37    0.38
  -5   0  12   -0.13    0.63
   5  -1 -12   92.21    8.84
   5  -1 -12   87.63    8.23
   5  -1 -12   87.35    7.87
  -1  -4 -12   85.75    7.61
   4  -5  12   92.02    6.71
  -5   1  12   93.53    8.55
   1   4  12   83.89    8.47
  -5   1  12   89.66    9.01
   5  -2 -12    0.26    0.30
  -2  -3 -12    0.09    0.16
   5  -2 -12    0.14    0.20
  -5   2  12    0.07    0.40
   3  -5  12   -0.13    0.18
  -5   2  12    0.13    0.38
   5  -3 -12    0.12    0.29
  -3  -2 -12    0.26    0.17
   5  -3 -12    0.19    0.21
   3   2  12    0.10    0.53
  -5   3  12   -0.29    0.33
   2  -5  12    0.10    0.18
   5  -4 -12   87.82    7.84
   5  -4 -12   89.69    8.25
   1  -5  12   90.06    7.71
  -5   4  12   85.42    8.35
   4   1  12   90.98    9.04
  -5   0 -12   -0.05    0.47
   5  -5 -12    0.31    0.36
  -5   5  12    0.31    0.30
   0  -5  12    0.19    0.29
   5   0  12    0.46    0.48
   5  -6 -12   -0.26    0.38
   6  -1  12    0.00    0.40
   6  -1  12    0.33    0.38
  -1  -5  12    0.15    0.32
   5  -7 -12   17.18    1.91
  -2  -5  12   19.43    1.82
  -3  -5  12    0.06    0.50
  -4  -5  12    0.18    0.51
   6   1 -12   -0.73    0.44
   6   1 -12    0.38    0.32
   6   0 -12   34.19    2.90
   0  -6 -12   29.41    2.69
   6   0 -12   29.65    2.93
   6   0 -12   31.11    3.12
   0   6  12   30.91    3.12
  -6   0  12   28.02    3.48
   6  -1 -12   -0.22    0.38
   6  -1 -12   -0.23    0.23
  -1  -5 -12   -0.05    0.21
   5  -6  12    0.04    0.23
  -6   1  12   -0.10    0.62
   6  -2 -12   -0.18    0.21
   6  -2 -12    0.15    0.37
  -2  -4 -12   -0.04    0.17
  -6   2  12    0.04    0.53
   4  -6  12   -0.01    0.22
  -6   2  12    0.23    0.51
   6  -3 -12   33.26    3.23
   6  -3 -12   34.15    3.13
  -3  -3 -12   33.59    2.96
  -6   3  12   36.02    3.47
   6  -4 -12   -0.38    0.27
  -6   4  12    0.09    0.41
   2  -6  12   -0.13    0.32
   4   2  12   -0.03    0.56
   6  -5 -12    0.17    0.37
   5   1  12   -0.80    0.55
  -6   5  12    0.24    0.42
   1  -6  12   -0.06    0.33
  -6   0 -12   31.43    3.27
   6  -6 -12   28.25    3.01
  -6   6  12   27.62    2.99
   6   0  12   38.28    3.15
   6   0  12   28.51    3.27
   0  -6  12   30.79    2.83
   6  -7 -12    0.00    0.43
  -1  -6  12    0.13    0.45
   7  -1  12   -0.51    0.49
  -2  -6  12    0.03    0.54
  -3  -6  12    4.88    0.94
  -1  -6 -12   -0.16    0.24
   7  -2 -12   16.78    1.58
  -2  -5 -12   14.56    1.41
  -7   2  12   13.81    1.99
   7  -3 -12    0.01    0.30
  -7   3  12   -0.37    0.60
   7  -4 -12    0.37    0.34
  -7   4  12   -0.41    0.55
   7  -5 -12   18.94    1.91
  -7   5  12   16.15    2.02
   2  -7  12   19.50    1.84
   7  -6 -12   -0.13    0.42
  -7   6  12   -0.66    0.44
   6   1  12   -0.15    0.57
   1  -7  12    0.16    0.43
   0  -7  12    0.05    0.50
  -7   7  12    0.16    0.46
  -1  -7  12   11.99    1.50
  -8   3  12    0.22    0.78
  -8   4  12    6.91    1.26
  -8   5  12   -0.19    0.62
  -8   6  12    0.15    0.62
  -8   7  12    9.55    1.34
  -8   8  12   -0.64    0.51
  -9   4  12    0.13    0.94
  -9   5  12    0.56    0.88
  -9   6  12    4.44    1.13
   0   0 -13    0.02    0.11
   0   0 -13    0.55    0.16
   0   0  13    0.40    0.41
  -1   1 -13   93.29    7.07
   1   0 -13   75.24    7.08
   1   0 -13   83.39    7.43
  -1   1 -13   74.68    7.42
   0  -1 -13   91.73    7.47
   1   0 -13   75.58    8.02
   1  -1  13   82.95    8.12
   0   1  13   70.99    8.14
   0   1  13   77.06    7.67
   0   1 -13   49.21    3.92
   1  -1 -13   39.69    3.75
   1  -1 -13   40.81    3.95
   1   0  13   35.34    4.40
  -1   1  13   47.24    4.34
  -1   1  13   43.09    4.11
   1   0  13   36.29    4.14
   0  -1  13   42.78    4.37
   1  -2 -13    0.13    0.17
   1  -2 -13   -0.07    0.13
   1   1 -13    0.03    0.08
   1   1 -13   -0.01    0.11
   2  -1  13    0.20    0.26
  -1   2  13    0.25    0.25
  -1  -1  13    0.25    0.43
   2   1 -13    5.23    0.58
   1  -3 -13    5.29    0.64
   1  -3 -13    4.94    0.52
   2   1 -13    4.80    0.52
  -2  -1  13    5.45    0.90
  -1   3  13    5.44    0.65
   0  -2 -13   25.23    2.32
   2   0 -13   26.51    2.48
   2   0 -13   28.61    2.68
   2   0 -13   29.14    2.39
  -2   2 -13   27.03    2.69
  -2   0  13   24.13    2.84
   0   2  13   21.98    2.65
  -2   0  13   26.64    2.72
  -1   2 -13   -0.01    0.10
  -1  -1 -13    0.20    0.23
   2  -1 -13   -0.16    0.14
   2  -1 -13   -0.06    0.11
  -2   1  13    0.09    0.29
  -2   1  13   -0.51    0.24
   1   1  13    0.16    0.34
   1   1  13    0.38    0.47
   0   2 -13   46.08    4.69
   2  -2 -13   46.05    4.04
   0   2 -13   45.83    4.33
   2  -2 -13   49.18    4.19
   2  -2 -13   46.20    4.39
   2   0  13   51.68    4.91
  -2   2  13   47.53    4.48
   1   2 -13    3.15    0.32
   2  -3 -13    1.97    0.42
   1   2 -13    3.23    0.38
   2  -3 -13    3.09    0.34
   3  -1  13    2.47    0.48
  -2   3  13    2.99    0.41
   2   2 -13    0.73    0.20
   2  -4 -13   -0.09    0.24
   2  -4 -13   -0.11    0.13
   2   2 -13    0.11    0.13
   3   2 -13    0.63    0.26
   2  -5 -13    1.25    0.23
   3   2 -13    1.16    0.24
   2  -5 -13    1.00    0.35
   3   1 -13    0.14    0.17
   1  -4 -13    0.11    0.16
   1  -4 -13    0.03    0.25
   3   1 -13    0.00    0.14
  -3  -1  13    0.34    0.55
   3   0 -13   -0.20    0.17
   3   0 -13    0.05    0.13
   3   0 -13   -0.09    0.14
   0  -3 -13    0.03    0.14
   0  -3 -13    0.24    0.25
   0   3  13   -0.23    0.31
  -3   0  13    0.35    0.47
  -3   0  13   -0.16    0.42
  -1  -2 -13    5.44    0.53
   3  -1 -13    4.45    0.52
   3  -1 -13    4.17    0.55
  -3   1  13    5.87    0.74
   1   2  13    5.12    0.81
  -3   1  13    4.68    0.73
   3  -2 -13    2.39    0.42
   3  -2 -13    2.94    0.30
   3  -2 -13    2.96    0.38
   2   1  13    2.37    0.65
   2   1  13    2.18    0.71
  -3   2  13    3.08    0.50
   3  -3 -13    0.07    0.20
   3  -3 -13   -0.17    0.11
   3  -3 -13    0.39    0.25
   3   0  13   -0.16    0.41
  -3   3  13    0.36    0.23
   0  -3  13   -0.13    0.13
   3  -4 -13    0.38    0.15
   3  -4 -13    0.28    0.27
   4  -1  13   -0.02    0.28
   3  -5 -13    0.56    0.34
   3  -5 -13    0.57    0.19
  -2  -3  13    0.53    0.27
   3   3 -13    0.06    0.27
   3  -6 -13   -0.08    0.34
   3  -6 -13    0.01    0.18
  -3  -3  13    0.42    0.30
   3  -7 -13    8.29    1.01
   3  -7 -13    6.54    0.71
   4   3 -13    5.47    0.84
  -4  -3  13    7.76    0.87
   2  -6 -13    2.88    0.63
   2  -6 -13    3.51    0.46
   4   2 -13    3.69    0.50
   4   2 -13    3.90    0.54
  -4  -2  13    3.66    0.53
   1  -5 -13   -0.18    0.29
   4   1 -13    0.18    0.18
   4   1 -13   -0.18    0.21
   1  -5 -13    0.16    0.17
   5  -4  13    0.20    0.19
  -4  -1  13    0.44    0.64
   4   0 -13    2.18    0.36
   0  -4 -13    2.58    0.34
   4   0 -13    2.21    0.35
   4   0 -13    2.50    0.41
  -4   0  13    3.57    0.76
   0   4  13    1.68    0.51
   4  -4  13    3.29    0.33
  -4   0  13    2.18    0.68
   4  -1 -13    0.17    0.23
   4  -1 -13    0.18    0.15
   4  -1 -13    0.10    0.15
  -1  -3 -13    0.23    0.17
  -4   1  13    0.39    0.41
   1   3  13    0.07    0.39
   3  -4  13    0.14    0.16
  -4   1  13    0.05    0.35
   4  -2 -13    0.13    0.27
   4  -2 -13    0.05    0.17
  -2  -2 -13    0.09    0.17
  -4   2  13   -0.03    0.31
  -4   2  13    0.17    0.30
   2   2  13    0.09    0.42
   2  -4  13    0.07    0.16
  -3  -1 -13    0.13    0.19
   4  -3 -13   -0.06    0.27
   4  -3 -13    0.01    0.20
  -3  -1 -13    0.28    0.29
   3   1  13    0.59    0.53
  -4   3  13    0.34    0.28
   1  -4  13    0.44    0.18
   4  -4 -13    1.90    0.38
  -4   4  13    1.03    0.31
   0  -4  13    1.18    0.30
   4   0  13    1.68    0.54
   4  -5 -13    0.36    0.34
   4  -5 -13   -0.13    0.16
  -1  -4  13   -0.01    0.24
   5  -1  13    0.30    0.36
   5  -1  13   -0.10    0.31
   4  -6 -13    6.69    0.86
   4  -6 -13    5.32    0.60
  -2  -4  13    6.07    0.75
   4  -7 -13    2.56    0.64
   4  -7 -13    3.97    0.49
  -3  -4  13    4.01    0.65
  -4  -4  13    0.01    0.46
  -9   5 -13    3.37    1.33
  -5  -4  13    0.97    0.58
  -5  -3  13    2.70    0.63
   2  -7 -13   -0.04    0.23
   5   2 -13    0.25    0.28
   5   1 -13    2.31    0.40
   5   1 -13    1.94    0.40
   1  -6 -13    2.55    0.37
  -5  -1  13    2.04    0.85
   5   0 -13    0.68    0.34
   5   0 -13    0.52    0.25
   0  -5 -13    0.76    0.23
   5   0 -13    0.40    0.24
  -5   0  13    0.19    0.65
   0   5  13    0.64    0.43
   5  -5  13    0.37    0.22
   5  -1 -13    0.05    0.30
   5  -1 -13   -0.01    0.20
  -1  -4 -13    0.31    0.19
  -5   1  13    0.17    0.51
   4  -5  13    0.06    0.21
  -5   1  13   -0.12    0.46
   1   4  13    0.24    0.45
   5  -2 -13    0.86    0.25
   5  -2 -13    0.46    0.35
  -2  -3 -13    0.82    0.21
  -5   2  13    0.91    0.44
  -5   2  13    0.79    0.50
   3  -5  13    0.89    0.25
  -3  -2 -13    0.42    0.20
   5  -3 -13    0.33    0.25
   5  -3 -13    0.42    0.34
   2  -5  13    0.82    0.32
   3   2  13    0.26    0.56
   2  -5  13    0.32    0.21
  -5   3  13    1.31    0.44
   5  -4 -13   -0.16    0.24
   5  -4 -13    0.07    0.31
  -5   4  13    0.53    0.36
   4   1  13   -0.60    0.49
   1  -5  13   -0.23    0.24
   5  -5 -13    0.60    0.36
  -5   0 -13    0.06    0.48
   0  -5  13    0.75    0.34
   5   0  13    0.33    0.49
  -5   5  13    0.81    0.36
   5  -6 -13    0.97    0.47
   6  -1  13    1.68    0.51
  -1  -5  13    0.99    0.42
   6  -1  13    1.03    0.44
   5  -7 -13   -0.17    0.39
  -2  -5  13   -0.27    0.39
  -3  -5  13    4.76    0.85
  -4  -5  13    1.75    0.63
   6   1 -13    0.86    0.36
   6   1 -13    1.32    0.56
   6   0 -13   -0.26    0.29
   0  -6 -13    0.13    0.24
   6   0 -13    0.23    0.28
   6   0 -13    0.50    0.44
   0   6  13   -0.31    0.47
  -6   0  13   -0.82    0.81
   6  -1 -13    3.24    0.48
   6  -1 -13    2.37    0.57
  -1  -5 -13    2.45    0.40
   5  -6  13    2.91    0.41
  -6   1  13    2.31    0.83
   1   5  13    3.02    0.71
  -2  -4 -13    3.69    0.43
   6  -2 -13    3.05    0.48
   6  -2 -13    2.98    0.60
  -6   2  13    2.68    0.72
  -6   2  13    3.25    0.82
   4  -6  13    3.25    0.44
   6  -3 -13    0.28    0.38
   6  -3 -13   -0.05    0.24
  -3  -3 -13    0.12    0.20
  -6   3  13    0.08    0.50
   6  -4 -13    7.11    0.84
   6  -4 -13    6.90    0.82
  -6   4  13    5.34    0.95
   4   2  13    6.38    1.12
   2  -6  13    5.94    0.84
   6  -5 -13    1.25    0.43
   1  -6  13    1.45    0.45
   5   1  13    1.22    0.69
  -6   5  13    1.43    0.50
   6  -6 -13   -0.26    0.38
  -6   0 -13   -0.22    0.57
   0  -6  13    0.04    0.39
   6   0  13    0.35    0.58
   6   0  13    0.31    0.54
  -6   6  13    0.01    0.38
   6  -7 -13    2.76    0.66
  -1  -6  13    2.37    0.61
  -2  -6  13    0.80    0.60
  -3  -6  13    0.44    0.63
  -1  -6 -13    1.05    0.33
  -2  -5 -13   -0.26    0.22
   7  -2 -13    0.22    0.32
  -7   2  13   -0.31    0.67
   7  -3 -13    6.14    0.79
  -7   3  13    6.14    1.15
   7  -4 -13    3.52    0.62
  -7   4  13    4.32    0.90
   7  -5 -13   -0.13    0.35
  -7   5  13    0.53    0.53
   2  -7  13    0.07    0.40
   7  -6 -13    2.71    0.63
  -7   6  13    1.18    0.57
   1  -7  13    2.56    0.61
   0  -7  13   -0.17    0.49
  -7   7  13   -0.26    0.45
  -1  -7  13    0.36    0.60
  -8   3  13    2.07    0.96
  -8   4  13    0.19    0.74
  -8   5  13    4.76    1.08
  -8   6  13    0.34    0.62
  -8   7  13   -0.78    0.53
  -9   4  13    0.87    0.99
  -9   5  13    0.32    0.88
  -9   6  13   -0.01    0.80
   0   0 -14    0.03    0.12
   0   0 -14    0.13    0.14
   0   0  14    0.08    0.42
   0   0  14   -0.46    0.31
   1   0 -14  210.79   16.19
   1   0 -14  210.39   18.36
   0  -1 -14  161.21   16.17
  -1   1 -14  195.21   16.16
  -1   0  14  180.41   18.50
   0   1  14  184.14   18.49
  -1   0  14  187.67   17.38
   0   1  14  160.80   17.33
   1  -1  14  172.01   18.45
   1  -1 -14  379.45   31.29
   0   1 -14  336.01   29.70
   0   1 -14  336.25   33.74
  -1   0 -14  357.89   31.29
   0   1 -14  361.33   31.25
  -1   1  14  321.41   33.84
   1   0  14  346.69   31.78
   1   0  14  314.30   33.90
   0  -1  14  337.78   33.87
  -1   1  14  315.29   31.72
   1   1 -14    0.12    0.09
   1   1 -14    0.09    0.12
   1  -2 -14    0.20    0.20
  -1  -1  14    0.46    0.45
  -1   2  14   -0.02    0.26
   2  -1  14    0.00    0.27
   2   1 -14   54.47    4.85
   1  -3 -14   51.99    4.52
   2   1 -14   54.28    5.24
  -1   3  14   48.62    4.99
  -2  -1  14   51.85    5.44
   2   0 -14  160.96   14.54
  -2   2 -14  173.99   16.51
   0  -2 -14  176.32   15.34
   2   0 -14  170.69   15.28
   0  -2 -14  174.63   14.17
   0   2  14  155.95   15.58
  -2   0  14  174.54   15.66
  -2   0  14  142.04   16.62
  -1   2 -14    0.09    0.10
   2  -1 -14   -0.05    0.11
   2  -1 -14   -0.04    0.18
  -1   2 -14    0.16    0.12
  -2   1  14    0.32    0.32
   1   1  14    0.07    0.47
  -2   1  14    0.43    0.33
   1   1  14   -0.16    0.35
   2  -2 -14   91.99    7.41
   2  -2 -14   82.14    7.63
   2  -2 -14   88.96    8.03
  -2   2  14   95.78    8.18
   2   0  14   73.12    8.78
   1   2 -14   87.02    9.08
   2  -3 -14   91.28    7.81
   1   2 -14   88.49    8.40
   2  -3 -14  101.11    8.50
  -2   3  14   89.94    8.55
   3  -1  14   93.17    9.17
   2  -4 -14    0.16    0.14
   2   2 -14    0.06    0.17
   2  -4 -14    0.15    0.24
   2   2 -14   -0.14    0.12
   3   2 -14   36.76    3.36
   2  -5 -14   25.81    3.16
   2  -5 -14   30.76    2.87
   3   2 -14   37.10    3.10
   3   1 -14   55.15    5.73
   1  -4 -14   58.85    4.94
   1  -4 -14   64.58    5.41
   3   1 -14   56.28    5.31
  -3  -1  14   53.45    5.93
  -1   4  14   56.55    5.45
   0  -3 -14    0.13    0.26
   3   0 -14   -0.12    0.14
   0  -3 -14   -0.20    0.16
   3   0 -14    0.13    0.19
   3   0 -14    0.06    0.14
   3  -3  14   -0.01    0.14
  -3   0  14    0.68    0.49
   0   3  14    0.08    0.35
  -3   0  14   -0.42    0.46
  -1  -2 -14   46.23    4.22
   3  -1 -14   52.99    4.54
   3  -1 -14   51.83    4.36
   1   2  14   44.26    4.77
  -3   1  14   48.91    4.75
  -3   1  14   47.12    4.99
   3  -2 -14   91.01    7.95
   3  -2 -14   82.19    8.62
   3  -2 -14  104.80    8.23
   2   1  14   97.32    9.52
  -3   2  14   95.06    8.80
   3  -3 -14    0.04    0.24
   3  -3 -14    0.13    0.20
   3  -3 -14   -0.03    0.12
   0  -3  14    0.18    0.15
   3   0  14   -0.29    0.41
  -3   3  14   -0.40    0.21
   3  -4 -14   35.26    2.89
   4  -1  14   29.87    3.43
  -3   4  14   34.02    3.17
   3  -5 -14   60.81    5.60
   3  -5 -14   58.48    5.11
   3  -6 -14   -0.01    0.20
   3   3 -14   -0.09    0.26
   3  -6 -14    0.03    0.35
  -3  -3  14   -0.11    0.28
   3  -7 -14   19.33    1.79
   3  -7 -14   17.36    2.04
   4   3 -14   22.03    2.10
  -4  -3  14   19.02    1.88
   2  -6 -14   46.61    3.88
   4   2 -14   36.01    4.03
   4   2 -14   38.37    3.73
   2  -6 -14   39.01    3.47
  -4  -2  14   42.15    3.54
   1  -5 -14   -0.11    0.18
   4   1 -14    0.19    0.22
   1  -5 -14   -0.20    0.32
   4   1 -14    0.13    0.19
   5  -4  14    0.17    0.18
  -4  -1  14    0.00    0.63
   4   0 -14   25.76    2.02
   0  -4 -14   20.67    1.90
   4   0 -14   22.05    2.05
   4   0 -14   23.45    2.20
  -4   0  14   21.47    2.41
  -4   0  14   18.55    2.42
   0   4  14   17.42    2.21
   4  -4  14   20.08    1.69
  -1  -3 -14   64.45    5.18
   4  -1 -14   53.82    5.33
   4  -1 -14   58.31    5.58
   3  -4  14   61.05    4.55
  -4   1  14   65.71    5.86
   1   3  14   56.61    5.81
  -4   1  14   63.04    6.15
   4  -2 -14   -0.02    0.16
  -2  -2 -14    0.03    0.17
   4  -2 -14    0.33    0.27
   2  -4  14    0.11    0.15
  -4   2  14   -0.08    0.29
   2   2  14   -0.26    0.41
  -4   2  14   -0.40    0.31
   4  -3 -14   28.82    2.92
  -3  -1 -14   31.50    2.82
   4  -3 -14   35.65    3.07
   3   1  14   28.62    3.50
   1  -4  14   31.89    2.49
  -4   3  14   36.57    3.18
   4  -4 -14   37.58    3.55
  -4   4  14   36.34    3.56
   4   0  14   40.79    3.94
   0  -4  14   35.14    3.28
   4  -5 -14    0.04    0.16
   4  -5 -14    0.45    0.34
  -1  -4  14   -0.12    0.24
   5  -1  14    0.08    0.34
   5  -1  14    0.03    0.36
   4  -6 -14   16.50    2.13
   4  -6 -14   24.11    1.91
  -2  -4  14   22.88    2.02
   4  -7 -14   32.44    2.95
   4  -7 -14   35.07    3.31
  -3  -4  14   33.85    3.09
  -4  -4  14   -0.24    0.47
  -9   5 -14    5.28    1.57
  -5  -4  14    6.37    0.95
   5   2 -14    0.37    0.29
   2  -7 -14    0.51    0.28
  -5  -2  14    0.30    0.38
   5   1 -14   17.58    1.86
   5   1 -14   18.98    1.74
   1  -6 -14   16.02    1.60
   5   1 -14   18.25    1.74
  -5  -1  14   18.22    2.17
   5   0 -14   24.29    2.37
   5   0 -14   24.59    2.42
   0  -5 -14   25.55    2.24
   5   0 -14   24.77    2.59
   0   5  14   25.82    2.62
  -5   0  14   27.21    2.93
   5  -5  14   26.59    2.00
   5  -1 -14    0.07    0.30
   5  -1 -14    0.23    0.21
  -1  -4 -14    0.30    0.21
  -5   1  14   -0.38    0.49
   4  -5  14   -0.05    0.21
  -5   1  14    0.17    0.53
   1   4  14   -0.07    0.43
   5  -2 -14   28.59    2.85
  -2  -3 -14   31.09    2.73
   5  -2 -14   33.61    2.96
   3  -5  14   31.39    2.43
  -5   2  14   31.15    3.28
  -5   2  14   30.47    3.19
   5  -3 -14   52.56    5.39
  -3  -2 -14   58.78    4.98
   5  -3 -14   59.98    5.17
   2  -5  14   58.06    4.40
  -5   3  14   55.36    5.56
   3   2  14   60.52    6.05
   2  -5  14   60.22    5.07
   5  -4 -14    0.24    0.28
   5  -4 -14    0.23    0.31
   1  -5  14    0.33    0.29
   4   1  14    0.03    0.55
  -5   4  14    0.42    0.37
  -5   0 -14   13.54    1.65
   5  -5 -14   12.67    1.52
   0  -5  14   15.47    1.42
  -5   5  14   15.23    1.53
   5   0  14   14.65    1.76
   5  -6 -14   33.57    3.28
  -1  -5  14   31.13    3.03
   6  -1  14   38.73    3.32
   6  -1  14   31.31    3.45
   5  -7 -14    0.22    0.41
  -2  -5  14    0.21    0.43
  -3  -5  14   12.79    1.50
  -4  -5  14   14.33    1.67
  -5  -5  14    0.22    0.58
   0  -6 -14   -0.13    0.22
   6   0 -14   -0.06    0.43
   6   0 -14   -0.25    0.29
   6   0 -14   -0.02    0.25
  -6   0  14   -0.53    0.81
   0   6  14   -0.34    0.47
  -1  -5 -14   16.58    1.46
   6  -1 -14   16.13    1.61
   6  -1 -14   17.21    1.60
   5  -6  14   14.95    1.32
   1   5  14   15.66    1.83
  -6   1  14   12.52    1.98
  -2  -4 -14   42.33    3.70
   6  -2 -14   37.77    4.01
   6  -2 -14   47.79    3.92
  -6   2  14   44.74    4.51
   4  -6  14   42.54    3.30
  -6   2  14   43.63    4.34
   6  -3 -14   -0.24    0.24
   6  -3 -14   -0.30    0.36
  -3  -3 -14   -0.11    0.21
  -6   3  14   -0.08    0.48
   6  -4 -14   20.03    2.10
   6  -4 -14   23.82    2.20
   2  -6  14   24.93    2.12
  -6   4  14   22.46    2.36
   4   2  14   18.80    2.55
   6  -5 -14   28.55    2.91
   5   1  14   32.82    3.32
   1  -6  14   29.22    2.73
  -6   5  14   28.60    2.98
   6  -6 -14    0.39    0.44
   6   0  14   -0.27    0.53
   0  -6  14   -0.15    0.38
  -6   6  14   -0.25    0.39
   6  -7 -14    7.47    1.17
  -1  -6  14   11.44    1.22
  -2  -6  14   16.08    1.78
  -3  -6  14    0.13    0.59
   7  -2 -14    0.23    0.32
  -2  -5 -14    0.08    0.25
  -7   2  14    0.11    0.75
   7  -3 -14   19.74    1.92
  -7   3  14   16.96    2.28
   7  -4 -14   29.67    3.04
  -7   4  14   34.63    3.33
   7  -5 -14   -0.12    0.38
  -7   5  14   -0.41    0.51
   2  -7  14    0.04    0.45
   1  -7  14   11.57    1.32
  -7   6  14    9.73    1.37
  -7   7  14   14.73    1.77
   0  -7  14   17.37    1.73
  -1  -7  14    0.06    0.59
  -2  -7  14    1.77    0.74
  -8   3  14   19.73    2.54
  -8   4  14    0.09    0.69
  -8   5  14   13.37    1.85
  -8   6  14   12.45    1.70
  -8   7  14   -0.24    0.57
  -9   4  14    5.03    1.34
  -9   5  14   11.52    1.84
   0   0 -15   51.38    4.85
   0   0 -15   53.99    4.61
   0   0  15   49.61    5.39
   0   0  15   54.01    5.09
   0  -1 -15   -0.08    0.16
   0  -1 -15   -0.14    0.14
   1   0 -15   -0.07    0.11
   1   0 -15    0.02    0.13
   1   0 -15   -0.08    0.14
  -1   1 -15    0.47    0.13
  -1   1 -15    0.25    0.14
   0   1  15    0.14    0.34
   0   1  15    0.51    0.43
  -1   0  15    0.07    0.36
  -1   0  15    0.28    0.42
   1  -1  15    0.24    0.36
   0   1 -15    0.15    0.13
  -1   0 -15   -0.06    0.14
  -1   0 -15    0.19    0.16
   1  -1 -15    0.04    0.15
   0   1 -15    0.00    0.11
   0   1 -15   -0.08    0.12
   1  -1 -15    0.42    0.19
  -1   1  15    0.10    0.37
  -1   1  15    0.02    0.31
   1   0  15   -0.07    0.46
   1   0  15   -0.63    0.30
   0  -1  15   -0.14    0.39
   1  -2 -15   19.69    1.91
   1  -2 -15   19.09    1.82
   1   1 -15   18.81    2.00
   1   1 -15   18.87    1.79
   1   1 -15   22.32    1.85
   2  -1  15   19.37    2.13
  -1   2  15   15.65    2.03
  -1  -1  15   24.00    2.26
   1  -3 -15    0.01    0.16
   1  -3 -15   -0.11    0.19
   2   1 -15    0.08    0.15
   2   1 -15   -0.02    0.11
  -1   3  15    0.29    0.31
  -2  -1  15    0.28    0.52
   2   0 -15    0.26    0.18
   0  -2 -15    0.16    0.21
   2   0 -15   -0.08    0.14
   2   0 -15    0.17    0.12
  -2   2 -15    0.05    0.16
   0   2  15    1.10    0.44
  -2   0  15   -0.35    0.40
  -2   0  15    0.18    0.46
  -1   2 -15   20.95    2.11
   2  -1 -15   19.51    1.90
  -1   2 -15   20.48    1.86
   2  -1 -15   23.71    1.98
  -2   1  15   18.94    2.25
   1   1  15   20.26    2.23
   1   1  15   21.58    2.38
  -2   1  15   19.13    2.17
   0   2 -15    0.17    0.13
   2  -2 -15    0.14    0.15
   2  -2 -15    0.04    0.19
   2  -2 -15    0.10    0.21
   2   0  15   -0.29    0.47
  -2   2  15    0.03    0.29
   1   2 -15    0.09    0.14
   2  -3 -15    0.04    0.15
   2  -3 -15   -0.10    0.20
   1   2 -15    0.01    0.10
  -2   3  15    0.10    0.24
   3  -1  15    0.01    0.31
   2  -4 -15    4.58    0.64
   2  -4 -15    4.67    0.49
   2   2 -15    4.43    0.57
   2   2 -15    4.81    0.51
  -2   4  15    5.07    0.60
   2  -5 -15   -0.01    0.19
   3   2 -15   -0.10    0.21
   3   2 -15    0.06    0.17
   2  -5 -15   -0.12    0.30
   1  -4 -15   -0.28    0.25
   3   1 -15   -0.08    0.17
   1  -4 -15    0.16    0.17
   3   1 -15    0.25    0.15
  -1   4  15   -0.30    0.28
  -3  -1  15   -0.15    0.56
   0  -3 -15    0.66    0.30
   3   0 -15    0.38    0.16
   0  -3 -15    0.06    0.17
   3   0 -15    0.40    0.18
   3   0 -15    0.62    0.24
  -3   0  15    0.28    0.44
  -3   0  15    0.18    0.49
   0   3  15    0.88    0.41
   3  -1 -15    0.22    0.15
   3  -1 -15   -0.08    0.21
  -1  -2 -15    0.22    0.18
   1   2  15   -0.40    0.35
  -3   1  15    0.09    0.38
   2  -3  15   -0.11    0.14
  -3   1  15   -0.50    0.33
   3  -2 -15   -0.09    0.24
   3  -2 -15    0.23    0.13
   3  -2 -15    0.15    0.19
   2   1  15    0.06    0.54
  -3   2  15    0.07    0.30
   2   1  15    0.18    0.46
   1  -3  15    0.09    0.14
   3  -3 -15    0.55    0.17
   3  -3 -15    0.69    0.28
   3  -3 -15    0.43    0.26
   0  -3  15    0.69    0.19
  -3   3  15    0.71    0.30
   3   0  15    1.04    0.53
   3  -4 -15    0.06    0.15
   3  -4 -15    0.14    0.25
   4  -1  15    0.02    0.33
  -3   4  15    0.15    0.22
   3  -5 -15   -0.45    0.16
   3  -5 -15    0.04    0.31
   3  -6 -15    1.72    0.49
   3  -6 -15    2.07    0.33
   3   3 -15    1.81    0.39
  -3  -3  15    2.43    0.46
   3  -7 -15   -0.03    0.26
   3  -7 -15    0.02    0.43
  -4  -3  15    0.11    0.38
   2  -6 -15   -0.13    0.39
   4   2 -15   -0.21    0.20
   4   2 -15   -0.16    0.27
   2  -6 -15   -0.28    0.22
   4   1 -15    0.22    0.22
   4   1 -15    0.26    0.20
   1  -5 -15    0.07    0.19
   1  -5 -15   -0.02    0.35
  -4  -1  15   -1.06    0.59
   5  -4  15   -0.08    0.21
   4   0 -15   -0.05    0.17
   4   0 -15    0.05    0.19
   4   0 -15    0.14    0.26
   0  -4 -15    0.03    0.19
   0   4  15    0.05    0.37
   4  -4  15    0.14    0.19
  -4   0  15    0.27    0.56
   4  -1 -15    0.13    0.17
  -1  -3 -15    0.13    0.20
   4  -1 -15   -0.11    0.23
  -4   1  15    0.02    0.40
   3  -4  15   -0.14    0.17
   1   3  15   -0.17    0.36
  -4   1  15    0.27    0.45
   4  -2 -15    4.81    0.57
   4  -2 -15    4.79    0.64
  -2  -2 -15    4.78    0.55
  -4   2  15    4.85    0.72
  -4   2  15    5.17    0.80
   2  -4  15    4.06    0.48
   2   2  15    7.19    1.00
   4  -3 -15    0.10    0.22
   4  -3 -15   -0.16    0.26
   3   1  15    0.39    0.59
   1  -4  15    0.05    0.18
  -4   3  15   -0.16    0.30
   4  -4 -15    0.14    0.27
  -4   4  15   -0.08    0.28
   0  -4  15    0.38    0.24
   4   0  15   -0.32    0.45
   4  -5 -15   -0.12    0.30
  -4   5  15    0.22    0.25
   5  -1  15    0.07    0.40
  -1  -4  15    0.21    0.28
   4  -6 -15   -0.08    0.35
   4  -6 -15   -0.14    0.20
  -2  -4  15    0.30    0.34
   4  -7 -15   -0.04    0.41
   4  -7 -15    0.06    0.27
  -3  -4  15   -0.09    0.41
  -4  -4  15    3.74    0.74
  -9   5 -15   -1.07    1.09
  -5  -4  15    0.17    0.54
  -5  -3  15    0.10    0.46
   2  -7 -15    2.83    0.46
   5   2 -15    3.48    0.52
  -5  -2  15    3.04    0.57
   5   1 -15   -0.20    0.26
   1  -6 -15   -0.26    0.23
   5   1 -15    0.32    0.36
   5   1 -15    0.09    0.22
   5   0 -15    0.01    0.32
   5   0 -15    0.20    0.25
   0  -5 -15   -0.07    0.20
   5   0 -15   -0.18    0.21
  -5   0  15   -0.40    0.66
   5  -5  15    0.17    0.23
   0   5  15    0.12    0.43
   5  -1 -15    0.29    0.21
  -1  -4 -15    0.12    0.21
   5  -1 -15    0.02    0.32
  -5   1  15    0.93    0.57
   1   4  15   -0.16    0.44
   4  -5  15    0.12    0.23
  -5   1  15   -0.06    0.52
  -2  -3 -15    0.17    0.19
   5  -2 -15    0.24    0.33
   5  -2 -15    0.27    0.21
  -5   2  15    0.27    0.47
   3  -5  15    0.17    0.22
  -5   2  15   -0.26    0.43
   5  -3 -15   -0.21    0.21
   5  -3 -15   -0.12    0.31
  -3  -2 -15   -0.08    0.20
   2  -5  15   -0.23    0.27
  -5   3  15    0.08    0.41
   2  -5  15    0.02    0.21
   3   2  15   -0.59    0.53
   5  -4 -15   -0.02    0.34
   5  -4 -15    0.54    0.30
   4   1  15    0.00    0.57
   1  -5  15   -0.06    0.27
  -5   4  15    0.08    0.37
  -5   0 -15    0.16    0.47
   5  -5 -15    0.56    0.36
  -5   5  15   -0.13    0.33
   0  -5  15   -0.04    0.30
   5   0  15   -0.08    0.51
   5  -6 -15    0.55    0.43
   6  -1  15   -0.03    0.40
  -1  -5  15    0.02    0.36
   5  -7 -15    3.41    0.68
  -2  -5  15    3.72    0.70
  -3  -5  15   -0.17    0.51
  -4  -5  15   -0.44    0.56
  -5  -5  15    0.45    0.58
   6   0 -15    0.11    0.30
   0  -6 -15    0.00    0.24
   6   0 -15   -0.01    0.45
   6   0 -15    0.11    0.28
   0   6  15    0.41    0.51
  -1  -5 -15   -0.06    0.23
   6  -1 -15    0.28    0.28
   6  -1 -15    0.42    0.40
   1   5  15   -0.53    0.49
  -6   1  15   -0.59    0.68
   5  -6  15    0.13    0.27
  -2  -4 -15   -0.16    0.22
   6  -2 -15    0.28    0.27
   6  -2 -15    0.09    0.41
   4  -6  15    0.45    0.27
  -6   2  15    0.26    0.59
  -6   2  15    0.13    0.59
  -3  -3 -15    2.20    0.36
   6  -3 -15    2.31    0.43
   6  -3 -15    2.25    0.50
  -6   3  15    2.05    0.69
   6  -4 -15   -0.23    0.37
   6  -4 -15    0.12    0.32
   2  -6  15   -0.34    0.36
  -6   4  15    0.49    0.50
   4   2  15   -0.50    0.59
   6  -5 -15   -0.23    0.35
  -6   5  15   -0.61    0.40
   1  -6  15    0.26    0.38
   5   1  15   -0.04    0.62
   6  -6 -15   -0.10    0.42
   0  -6  15   -0.50    0.37
   6   0  15    0.47    0.56
  -6   6  15   -0.30    0.39
  -1  -6  15    0.35    0.50
  -2  -6  15    0.22    0.56
  -3  -6  15   -0.21    0.61
   7  -2 -15    3.75    0.58
  -2  -5 -15    3.33    0.50
  -7   2  15    4.84    1.12
   7  -3 -15    0.39    0.33
  -7   3  15   -0.31    0.63
   7  -4 -15    0.19    0.33
  -7   4  15    0.58    0.64
   7  -5 -15    2.75    0.63
   2  -7  15    3.65    0.71
  -7   5  15    3.61    0.83
  -7   6  15    0.23    0.51
   1  -7  15    0.16    0.47
   0  -7  15   -0.16    0.54
  -7   7  15    0.29    0.52
  -1  -7  15    0.02    0.58
  -2  -7  15    0.29    0.67
  -8   3  15   -0.41    0.83
  -8   4  15    3.98    1.07
  -8   5  15   -0.57    0.65
  -8   6  15   -0.49    0.58
  -8   7  15   -0.14    0.60
  -9   4  15   -0.68    0.92
  -9   5  15   -0.77    0.78
   0   0 -16    0.12    0.15
   0   0 -16   -0.01    0.14
   0   0  16   -0.03    0.37
   0   0  16   -0.34    0.41
   1   0 -16   32.90    2.87
  -1   1 -16   28.49    2.98
   1   0 -16   32.10    3.23
   0  -1 -16   35.08    2.87
   1   0 -16   33.44    3.00
   0   1  16   35.49    3.44
  -1   0  16   27.66    3.41
  -1   0  16   31.67    3.28
   0   1  16   36.29    3.27
   1  -1  16   29.51    3.37
  -1   0 -16   17.35    1.62
   0   1 -16   21.52    1.63
   1  -1 -16   15.36    1.71
   0   1 -16   20.57    1.83
   0   1 -16   17.57    1.69
  -1   0 -16   15.84    1.71
   1  -1 -16   15.94    1.64
   0  -1  16   19.08    2.04
   1   0  16   15.13    1.93
  -1   1  16   19.79    2.03
   1   0  16   17.32    2.08
  -1   1  16   18.50    1.97
   1  -2 -16   -0.17    0.20
   1   1 -16   -0.09    0.15
   1  -2 -16    0.26    0.21
   1   1 -16    0.01    0.10
   1   1 -16    0.62    0.17
  -1  -1  16    0.25    0.48
  -1   2  16   -0.29    0.33
   2  -1  16   -0.31    0.33
   1  -3 -16  107.99    8.69
   2   1 -16   96.07    8.91
   2   1 -16   99.43    9.34
   1  -3 -16  115.74    9.42
   2   1 -16   96.83   10.09
  -1   3  16   85.20    9.56
  -2  -1  16  112.50   10.30
   2   0 -16   55.70    4.53
   2   0 -16   52.94    5.09
   2   0 -16   52.66    4.72
  -2   0  16   50.52    5.03
   0   2  16   45.00    4.94
  -2   0  16   44.07    5.26
   2  -1 -16   -0.03    0.14
  -1   2 -16    0.19    0.13
   2  -1 -16   -0.03    0.20
  -1   2 -16   -0.02    0.14
   1   1  16    0.17    0.39
  -2   1  16   -0.37    0.37
  -2   1  16   -0.03    0.32
   1   1  16    0.35    0.51
   0   2 -16   83.90    8.80
   2  -2 -16   85.94    8.21
   2  -2 -16   99.21    7.81
   2   0  16  100.32    8.53
   2   0  16   81.21    9.01
  -2   2  16   84.46    8.38
   1   2 -16   64.18    5.87
   2  -3 -16   61.25    5.05
  -2   3  16   57.21    5.59
   3  -1  16   50.12    5.95
   2   2 -16   -0.02    0.12
   2  -4 -16    0.00    0.17
   2   2 -16   -0.11    0.17
   2  -4 -16    0.29    0.27
  -2   4  16   -0.02    0.25
   3   2 -16   34.85    3.74
   3   2 -16   36.00    3.46
   2  -5 -16   37.21    3.23
   2  -5 -16   41.81    3.57
   3   1 -16   51.33    4.88
   1  -4 -16   48.06    4.21
   3   1 -16   52.58    4.52
   1  -4 -16   41.00    4.58
  -1   4  16   48.39    4.71
  -3  -1  16   49.08    5.10
   3   0 -16    0.05    0.14
   0  -3 -16    0.04    0.17
   0  -3 -16   -0.06    0.24
   3   0 -16    0.17    0.17
   3   0 -16    0.64    0.26
   0   3  16    0.13    0.34
  -3   0  16   -0.40    0.44
  -3   0  16   -0.43    0.46
   3  -1 -16   98.94    9.60
  -1  -2 -16  110.56    8.92
   3  -1 -16   97.57    9.16
  -3   1  16  110.20   10.49
   2  -3  16   97.48    7.82
   1   2  16  105.14    9.90
  -3   1  16  114.74    9.91
   3  -2 -16   57.62    4.72
   3  -2 -16   61.14    5.14
   3  -2 -16   48.61    4.89
  -3   2  16   55.12    5.30
   2   1  16   52.78    5.42
   1  -3  16   54.51    4.17
   2   1  16   53.93    5.76
   3  -3 -16   -0.07    0.20
   3  -3 -16   -0.02    0.25
   3  -3 -16   -0.05    0.14
   3   0  16   -0.04    0.48
  -3   3  16    0.18    0.29
   0  -3  16    0.08    0.16
   3  -4 -16   97.63    8.31
   3  -4 -16   86.83    7.61
  -3   4  16   84.42    8.35
   4  -1  16   88.66    8.96
   3  -5 -16   14.77    1.85
   3  -5 -16   21.45    1.67
   3  -6 -16   -0.39    0.35
   3   3 -16   -0.02    0.27
   3  -6 -16    0.00    0.23
  -3  -3  16   -0.31    0.31
   3  -7 -16    8.56    0.97
   3  -7 -16   10.86    1.27
  -4  -3  16   10.60    1.11
   2  -6 -16   10.04    1.36
   2  -6 -16   11.51    1.17
   4   2 -16   13.13    1.35
   4   2 -16   13.66    1.25
   4   1 -16    0.06    0.22
   4   1 -16    0.09    0.19
   4   1 -16    0.12    0.27
   1  -5 -16   -0.03    0.35
   1  -5 -16    0.17    0.21
  -1   5  16    0.14    0.40
   5  -4  16    0.07    0.22
  -4  -1  16   -0.41    0.65
   4   0 -16   59.10    6.29
   4   0 -16   58.93    5.59
   0  -4 -16   66.18    5.43
   4   0 -16   62.60    5.84
   0   4  16   70.43    6.09
  -4   0  16   58.42    6.51
   4  -4  16   66.77    4.78
   4  -1 -16   51.15    4.26
  -1  -3 -16   47.27    4.12
   4  -1 -16   51.30    4.43
   3  -4  16   46.14    3.62
  -4   1  16   45.36    4.70
  -4   1  16   43.61    4.92
   1   3  16   44.66    4.66
   4  -2 -16   -0.09    0.17
   4  -2 -16    0.33    0.28
  -2  -2 -16   -0.07    0.19
  -4   2  16    0.23    0.39
   2   2  16    0.21    0.49
  -4   2  16    0.01    0.36
   2  -4  16   -0.20    0.16
   4  -3 -16   97.63    7.96
   4  -3 -16   83.58    8.35
   1  -4  16   90.37    6.79
  -4   3  16   84.87    8.51
   3   1  16   95.46    9.24
   4  -4 -16   32.72    3.25
   0  -4  16   35.33    3.02
  -4   4  16   38.14    3.32
   4   0  16   28.25    3.61
   4  -5 -16   -0.13    0.32
  -1  -4  16   -0.05    0.27
   5  -1  16   -0.23    0.38
  -4   5  16    0.23    0.29
   4  -6 -16   19.87    1.90
   4  -6 -16   23.61    2.18
  -2  -4  16   21.68    2.02
   4  -7 -16    5.16    0.62
   4  -7 -16    4.67    0.80
  -3  -4  16    5.41    0.81
  -4  -4  16   -0.31    0.47
  -5  -4  16    2.88    0.72
  -5  -3  16    1.94    0.58
   5   2 -16    0.37    0.29
  -5  -2  16   -0.26    0.35
   5   1 -16   17.67    1.86
   1  -6 -16   20.63    1.76
   5   1 -16   18.52    2.00
   5   1 -16   19.32    1.87
   0  -5 -16   24.84    2.47
   5   0 -16   30.08    2.62
   5   0 -16   29.77    2.67
   5   0 -16   32.06    2.86
   0   5  16   28.23    2.87
   5  -5  16   23.46    2.18
  -5   0  16   26.48    3.17
   5  -1 -16   -0.16    0.29
   5  -1 -16   -0.05    0.21
  -1  -4 -16   -0.20    0.21
  -5   1  16   -0.24    0.55
  -5   1  16   -0.30    0.53
   4  -5  16   -0.15    0.21
   1   4  16   -0.34    0.40
  -2  -3 -16   40.63    3.45
   5  -2 -16   36.07    3.71
   5  -2 -16   41.11    3.59
  -5   2  16   39.36    3.99
   3  -5  16   39.88    3.05
  -5   2  16   40.68    4.14
   5  -3 -16   24.47    2.09
  -3  -2 -16   21.09    1.91
   5  -3 -16   16.70    1.99
   3   2  16   18.96    2.49
   2  -5  16   23.08    1.98
   2  -5  16   20.81    1.71
  -5   3  16   23.67    2.29
   5  -4 -16   -0.43    0.33
  -4  -1 -16    0.32    0.24
   5  -4 -16   -0.40    0.28
   4   1  16   -0.41    0.57
  -5   4  16    0.21    0.39
   1  -5  16   -0.06    0.27
  -5   0 -16   50.28    4.95
   5  -5 -16   48.06    4.62
  -5   5  16   45.06    4.65
   0  -5  16   48.93    4.30
   5   0  16   49.48    5.08
   5  -6 -16    6.49    1.12
  -1  -5  16   11.00    1.09
   6  -1  16   10.89    1.21
   5  -7 -16    0.22    0.44
  -2  -5  16   -0.43    0.41
  -3  -5  16    3.12    0.74
  -4  -5  16    1.44    0.66
  -5  -5  16   -0.23    0.58
   0  -6 -16    0.14    0.27
   6   0 -16    0.13    0.44
   6   0 -16   -0.07    0.28
   0   6  16    0.35    0.51
   6  -1 -16   21.29    2.05
   6  -1 -16   20.76    2.06
  -1  -5 -16   21.46    1.91
   5  -6  16   22.03    1.72
   1   5  16   20.32    2.32
  -6   1  16   18.71    2.50
   6  -2 -16   13.31    1.22
   6  -2 -16   10.80    1.25
  -2  -4 -16   10.11    1.09
  -6   2  16   10.73    1.54
   4  -6  16   11.42    1.04
  -6   2  16   13.62    1.69
   6  -3 -16    0.11    0.38
  -3  -3 -16   -0.02    0.23
   6  -3 -16    0.16    0.26
   3  -6  16    0.13    0.25
  -6   3  16   -0.27    0.54
   6  -4 -16   20.76    2.09
   6  -4 -16   19.23    2.00
   2  -6  16   22.16    2.01
  -6   4  16   21.29    2.31
   4   2  16   21.70    2.53
   6  -5 -16   12.03    1.35
   1  -6  16   13.93    1.33
   5   1  16    9.82    1.65
  -6   5  16   12.17    1.50
   6  -6 -16   -0.07    0.43
   6   0  16    0.49    0.57
   0  -6  16   -0.09    0.44
  -6   6  16    0.32    0.44
  -1  -6  16    9.19    1.19
  -2  -6  16    4.53    0.90
  -3  -6  16    0.16    0.64
  -4  -6  16    3.09    0.83
  -2  -5 -16   -0.04    0.26
  -3  -4 -16    8.33    0.89
   7  -3 -16    8.78    1.02
  -7   3  16   11.26    1.53
   7  -4 -16    5.07    0.75
  -7   4  16    5.79    1.09
   7  -5 -16    0.07    0.40
   2  -7  16   -0.32    0.44
  -7   5  16   -0.14    0.59
  -7   6  16    7.41    1.18
   1  -7  16    9.45    1.15
   0  -7  16    3.35    0.80
  -7   7  16    5.11    0.88
  -1  -7  16   -0.03    0.62
  -2  -7  16    5.74    1.06
  -8   3  16    2.33    1.03
  -8   4  16   -0.42    0.73
  -8   5  16    3.19    0.99
  -8   6  16    3.54    0.93
  -8   7  16   -0.43    0.60
   0   0 -17    0.31    0.17
   0   0 -17    0.20    0.15
   0   0  17    0.13    0.47
   0   0  17   -0.11    0.36
  -1   1 -17    4.89    0.64
   0  -1 -17    6.84    0.67
   1   0 -17    7.41    0.67
  -1   1 -17    6.49    0.64
   1   0 -17    7.07    0.67
   0  -1 -17    4.89    0.68
  -1   0  17    8.35    1.06
   1  -1  17    7.11    0.95
   0   1  17    7.23    1.01
   0   1  17    7.51    0.99
  -1   0  17    7.61    1.06
   0   1 -17   15.90    1.32
   1  -1 -17   15.95    1.30
  -1   0 -17   13.12    1.34
   0   1 -17   12.87    1.42
   1  -1 -17   14.65    1.36
   0   1 -17   12.36    1.26
  -1   0 -17   13.73    1.26
   0  -1  17   15.15    1.66
  -1   1  17   10.08    1.61
  -1   1  17   10.08    1.56
   1   0  17   13.88    1.72
   1   0  17   13.52    1.62
   1   1 -17    0.32    0.17
   1   1 -17    0.20    0.17
   1  -2 -17    0.04    0.23
   1   1 -17   -0.02    0.11
   1  -2 -17    0.02    0.18
  -1   2  17    0.19    0.37
   2  -1  17   -0.01    0.37
  -1  -1  17    0.56    0.50
   2   1 -17   32.74    2.86
   2   1 -17   31.59    2.96
   2   1 -17   32.83    3.20
   1  -3 -17   29.97    2.78
  -1   3  17   31.52    3.18
  -2  -1  17   31.68    3.42
   0  -2 -17   21.19    1.67
   2   0 -17   15.91    1.54
   2   0 -17   15.65    1.70
   2   0 -17   16.15    1.58
   0   2  17   18.71    1.89
  -2   0  17   13.27    1.93
  -2   0  17   16.04    1.94
  -1  -1 -17    0.34    0.22
  -1   2 -17    0.09    0.15
  -1   2 -17    0.15    0.14
   2  -1 -17   -0.02    0.16
   2  -1 -17    0.08    0.21
  -2   1  17    0.10    0.43
  -2   1  17    1.13    0.49
   1   1  17   -0.14    0.37
   1   1  17    0.24    0.52
   0   2 -17   11.14    0.93
   0   2 -17   10.88    1.03
   2  -2 -17    8.37    0.96
   2  -2 -17    8.02    0.99
   2   0  17    8.25    1.34
  -2   2  17   10.37    1.23
   2   0  17    8.63    1.30
   2  -3 -17   62.81    5.09
   1   2 -17   46.67    5.39
   2  -3 -17   55.51    4.66
  -2   3  17   52.84    5.18
   3  -1  17   55.62    5.53
   2   2 -17   -0.12    0.17
   2  -4 -17   -0.09    0.16
   2  -4 -17   -0.06    0.25
  -2   4  17   -0.60    0.26
   2  -5 -17   11.70    1.57
   3   2 -17   16.30    1.62
   2  -5 -17   15.54    1.41
   3   2 -17   16.56    1.49
   1  -4 -17   39.70    3.20
   1  -4 -17   43.07    3.51
   3   1 -17   35.22    3.68
   3   1 -17   35.75    3.41
   3   1 -17   35.19    3.29
  -1   4  17   28.35    3.58
  -3  -1  17   39.25    3.94
   3   0 -17    0.13    0.22
   3   0 -17    0.13    0.18
   0  -3 -17    0.24    0.20
   3   0 -17    0.12    0.15
   0  -3 -17   -0.13    0.24
  -3   0  17   -0.16    0.49
  -3   0  17   -0.24    0.48
   0   3  17   -0.07    0.35
  -1  -2 -17   25.93    2.56
   3  -1 -17   30.00    2.65
   3  -1 -17   31.47    2.75
  -3   1  17   29.49    3.13
   2  -3  17   29.30    2.25
   1   2  17   29.10    2.99
  -3   1  17   28.38    3.00
   3  -2 -17   51.70    4.62
   3  -2 -17   48.14    5.02
   3  -2 -17   64.03    4.82
   1  -3  17   53.49    4.09
  -3   2  17   52.85    5.21
   2   1  17   50.91    5.64
   2   1  17   59.92    5.36
   3  -3 -17    0.31    0.23
   3  -3 -17   -0.05    0.15
   3  -3 -17    0.01    0.26
   3   0  17   -0.04    0.50
  -3   3  17    0.28    0.31
   0  -3  17   -0.15    0.17
   3  -4 -17   22.99    1.85
  -1  -3  17   20.80    1.65
  -3   4  17   21.22    2.11
   4  -1  17   17.32    2.24
   2   3 -17   23.32    2.69
   3  -5 -17   26.29    2.32
   3  -5 -17   31.56    2.60
   3  -6 -17   -0.08    0.23
   3  -6 -17    0.16    0.37
   3   3 -17    0.28    0.28
  -3  -3  17   -0.06    0.32
   3  -7 -17    0.99    0.53
   3  -7 -17    1.27    0.35
  -4  -3  17    0.41    0.44
   2  -6 -17    6.08    0.65
   4   2 -17    4.42    0.68
   4   2 -17    5.66    0.64
   2  -6 -17    6.18    0.85
   1  -5 -17   -0.13    0.22
   4   1 -17    0.06    0.22
   4   1 -17    0.20    0.20
   4   1 -17    0.17    0.30
   1  -5 -17   -0.16    0.35
  -1   5  17   -0.41    0.40
  -4  -1  17    0.17    0.66
   5  -4  17   -0.10    0.24
   0  -4 -17   17.38    1.73
   4   0 -17   20.98    1.99
   4   0 -17   20.72    1.86
   4   0 -17   20.34    1.83
  -4   0  17   18.34    2.28
   0   4  17   15.64    2.04
   4  -4  17   18.89    1.55
   4  -1 -17   35.72    3.57
  -1  -3 -17   41.35    3.34
   4  -1 -17   34.51    3.44
   1   3  17   39.53    3.84
  -4   1  17   42.73    3.92
   3  -4  17   39.73    2.94
  -4   1  17   36.20    4.03
  -2  -2 -17   -0.15    0.22
   4  -2 -17   -0.14    0.20
   4  -2 -17   -0.11    0.26
  -4   2  17   -0.02    0.41
   2   2  17   -0.49    0.44
  -4   2  17    0.01    0.39
   2  -4  17    0.21    0.19
   4  -3 -17   18.95    1.95
   4  -3 -17   23.53    2.05
  -4   3  17   21.66    2.19
   3   1  17   19.05    2.45
   1  -4  17   20.55    1.67
   4  -4 -17   33.85    3.16
   0  -4  17   31.52    2.54
  -4   4  17   31.24    3.21
   4   0  17   34.93    3.56
   4  -5 -17    0.45    0.36
  -1  -4  17   -0.21    0.27
  -4   5  17    0.07    0.32
   5  -1  17   -0.27    0.38
   4  -6 -17    2.63    0.58
  -2  -4  17    3.74    0.60
   4  -7 -17    1.97    0.56
   4  -7 -17    1.86    0.38
  -3  -4  17    2.04    0.56
  -4  -4  17    0.07    0.49
  -5  -4  17    0.90    0.61
  -5  -3  17    1.16    0.54
  -5  -2  17    0.47    0.40
   1  -6 -17    5.21    0.61
   5   1 -17    5.21    0.62
   5   1 -17    5.12    0.72
   5   1 -17    3.75    0.62
   0  -5 -17   16.96    1.51
   5   0 -17   14.98    1.61
   5   0 -17   17.05    1.72
   5   0 -17   15.06    1.60
   0   5  17   19.19    1.87
   5  -5  17   16.94    1.36
  -5   0  17   13.37    2.08
   5  -1 -17    0.32    0.23
  -1  -4 -17   -0.32    0.21
   5  -1 -17    0.01    0.31
  -5   1  17   -0.26    0.57
   1   4  17    0.21    0.46
   4  -5  17    0.20    0.24
  -5   1  17   -0.30    0.56
  -2  -3 -17   14.18    1.31
   5  -2 -17   15.01    1.40
   5  -2 -17   13.42    1.39
  -5   2  17   13.95    1.69
   3  -5  17   12.71    1.18
  -5   2  17   14.31    1.78
  -3  -2 -17   28.24    2.46
   5  -3 -17   24.13    2.65
   5  -3 -17   33.11    2.60
   3   2  17   29.93    3.17
   2  -5  17   27.36    2.20
   2  -5  17   27.75    2.52
  -5   3  17   24.99    2.85
   5  -4 -17    0.27    0.32
   5  -4 -17    0.50    0.36
  -4  -1 -17    0.65    0.28
  -5   4  17    0.00    0.40
   1  -5  17    0.31    0.31
   4   1  17   -0.87    0.58
   5  -5 -17    7.48    1.12
  -5   0 -17   11.51    1.22
   0  -5  17    9.94    1.04
  -5   5  17   10.48    1.20
   5   0  17    7.21    1.30
   5  -6 -17    9.39    1.11
   6  -1  17    8.28    1.07
  -1  -5  17    7.09    0.98
  -5   6  17    7.93    1.03
   5  -7 -17    0.16    0.43
  -2  -5  17    0.42    0.48
  -3  -5  17    1.16    0.62
  -4  -5  17    0.88    0.64
  -5  -5  17    0.79    0.64
   6   0 -17    0.12    0.29
   0  -6 -17    0.16    0.29
   6   0 -17    0.48    0.47
   0   6  17    0.56    0.55
   6  -1 -17    5.01    0.77
  -1  -5 -17    4.93    0.60
   6  -1 -17    5.29    0.66
  -6   1  17    4.09    1.07
   5  -6  17    3.78    0.56
   1   5  17    4.59    0.91
  -2  -4 -17    5.85    0.69
   6  -2 -17    6.95    0.87
   6  -2 -17    5.48    0.75
  -6   2  17    6.56    1.10
   4  -6  17    6.40    0.69
  -6   2  17    6.07    1.18
   6  -3 -17   -0.31    0.36
  -3  -3 -17   -0.08    0.23
   6  -3 -17    0.04    0.29
   3  -6  17    0.55    0.31
  -6   3  17   -0.16    0.52
   6  -4 -17    3.66    0.58
   6  -4 -17    2.65    0.57
  -6   4  17    3.22    0.80
   2  -6  17    4.65    0.67
   4   2  17    1.97    0.86
   6  -5 -17    7.86    1.07
  -6   5  17    9.73    1.23
   1  -6  17    8.12    1.05
   5   1  17    8.77    1.39
   6  -6 -17    0.18    0.40
  -6   6  17    0.55    0.46
   0  -6  17    0.56    0.46
   6   0  17   -0.22    0.53
  -1  -6  17    2.79    0.71
  -2  -6  17    2.42    0.73
  -3  -6  17   -0.23    0.63
  -4  -6  17    0.23    0.68
  -2  -5 -17    0.09    0.29
   7  -3 -17    1.57    0.43
  -3  -4 -17    1.14    0.33
  -7   3  17    1.08    0.80
   7  -4 -17    1.71    0.49
  -7   4  17    1.18    0.73
   2  -7  17    0.16    0.46
  -7   5  17   -0.13    0.59
   1  -7  17    3.56    0.74
  -7   6  17    3.90    0.85
  -7   7  17    2.93    0.82
   0  -7  17    5.79    0.91
  -1  -7  17   -0.47    0.57
  -2  -7  17    2.03    0.80
  -8   4  17    0.95    0.88
  -8   5  17   -0.15    0.73
  -8   6  17    0.68    0.73
   1  -8  17    0.78    0.62
  -8   7  17    0.13    0.67
   0   0 -18  337.39   29.14
   0   0 -18  334.36   30.66
   0   0  18  331.01   33.26
   0   0  18  334.76   31.18
   0  -1 -18    0.17    0.18
  -1   1 -18    0.02    0.15
   1   0 -18    0.20    0.19
   1   0 -18    0.07    0.15
   0  -1 -18    0.15    0.20
  -1   0  18    0.08    0.45
   0   1  18    0.06    0.39
   0   1  18    0.24    0.51
  -1   0  18    0.53    0.52
   1  -1  18    0.02    0.42
   1  -1  18    0.33    0.41
   1  -1 -18    0.07    0.18
   0   1 -18    0.25    0.17
  -1   0 -18    0.23    0.18
   0   1 -18    0.03    0.14
  -1   0 -18   -0.05    0.18
   1  -1 -18   -0.18    0.19
  -1   1  18    0.03    0.46
   1   0  18    0.12    0.40
   0  -1  18    0.12    0.46
   1   0  18    0.50    0.54
  -1   1  18    0.10    0.41
   1   1 -18  126.44   11.16
   1  -2 -18  122.86   10.65
   1  -2 -18  123.38   11.21
   1   1 -18  122.51   12.06
   1   1 -18  124.43   10.64
  -1   2  18  101.26   11.45
   2  -1  18  111.19   12.17
  -1  -1  18  137.30   12.25
   2   1 -18    0.03    0.14
   1  -3 -18   -0.14    0.20
   2   1 -18   -0.10    0.16
   1  -3 -18    0.07    0.20
   2   1 -18    0.00    0.20
  -1   3  18   -0.02    0.38
  -2  -1  18   -0.51    0.48
   0  -2 -18   -0.03    0.20
   2   0 -18   -0.06    0.13
   2   0 -18   -0.07    0.19
   2   0 -18   -0.04    0.15
  -2   0  18   -0.89    0.45
   0   2  18    0.10    0.39
  -2   0  18    0.44    0.47
  -1   2 -18  122.37   10.58
   2  -1 -18  118.78   11.16
  -1   2 -18  117.74   12.02
   2  -1 -18  125.98   10.62
  -1  -1 -18  117.03   11.18
  -2   1  18  114.16   11.47
   1   1  18  133.01   11.49
   1   1  18  134.85   12.26
  -2   1  18  109.93   12.16
   0   2 -18    0.03    0.15
   0   2 -18   -0.07    0.16
   2  -2 -18   -0.33    0.20
   2  -2 -18   -0.10    0.22
   0  -2  18    0.09    0.15
  -2   2  18   -0.11    0.34
   2   0  18   -0.20    0.51
   2   0  18    0.07    0.47
   1   2 -18   -0.03    0.16
   2  -3 -18   -0.27    0.22
   2  -3 -18   -0.05    0.18
  -1  -2  18   -0.06    0.16
  -2   3  18    0.29    0.37
   3  -1  18   -0.03    0.36
   2  -4 -18   27.44    2.38
   2   2 -18   26.45    2.74
   2  -4 -18   27.25    2.61
  -2   4  18   26.81    2.72
   3   2 -18    0.03    0.22
   2  -5 -18    0.13    0.32
   2  -5 -18    0.03    0.22
  -2   5  18    0.61    0.42
   3   1 -18    0.00    0.24
   1  -4 -18    0.19    0.29
   3   1 -18    0.14    0.20
   3   1 -18   -0.10    0.15
   1  -4 -18   -0.25    0.20
  -3  -1  18    0.21    0.59
  -1   4  18   -0.38    0.36
   0  -3 -18   33.04    2.64
   0  -3 -18   32.45    2.88
   3   0 -18   29.24    3.01
   3   0 -18   28.06    2.70
   3   0 -18   29.20    2.79
  -3   0  18   31.26    3.19
  -3   0  18   23.58    3.22
   0   3  18   31.34    3.04
   3  -1 -18   -0.01    0.16
   3  -1 -18   -0.13    0.23
  -3   1  18   -0.38    0.45
   1   2  18    0.00    0.40
  -3   1  18   -0.17    0.42
   2  -3  18    0.06    0.17
   3  -2 -18   -0.19    0.19
   3  -2 -18   -0.24    0.23
   1  -3  18   -0.06    0.17
  -3   2  18    0.12    0.39
   2   1  18    0.19    0.55
   2   1  18    0.26    0.50
   3  -3 -18   32.48    2.90
   3  -3 -18   33.43    2.77
   3  -3 -18   29.15    3.04
  -3   3  18   32.89    3.17
   0  -3  18   32.17    2.46
   3   0  18   29.96    3.45
   3  -4 -18    0.04    0.19
   3  -4 -18   -0.05    0.25
   4  -1  18    0.33    0.39
  -3   4  18    0.35    0.35
  -1  -3  18    0.21    0.19
   2   3 -18   -0.06    0.22
   3  -5 -18   -0.16    0.27
   3  -5 -18    0.32    0.21
  -3   5  18   -0.32    0.32
   3  -6 -18   27.94    2.53
   3   3 -18   27.77    2.93
   3  -6 -18   29.94    2.82
  -3  -3  18   29.03    2.62
   3  -7 -18   -0.10    0.45
   3  -7 -18    0.13    0.30
  -4  -3  18   -0.06    0.43
   4   2 -18   -0.02    0.27
   2  -6 -18   -0.26    0.25
   2  -6 -18    0.34    0.42
   1  -5 -18   23.99    2.03
   1  -5 -18   18.51    1.76
   4   1 -18   18.42    1.87
   4   1 -18   20.14    1.85
   4   1 -18   18.21    2.02
  -1   5  18   21.72    2.15
   5  -4  18   18.93    1.58
  -4  -1  18   19.69    2.33
   4   0 -18    0.36    0.31
   4   0 -18    0.18    0.19
   4   0 -18   -0.05    0.21
   0  -4 -18    0.09    0.23
  -4   0  18   -0.24    0.59
   4  -4  18   -0.36    0.20
   0   4  18    0.00    0.41
   4  -1 -18    0.36    0.29
  -1  -3 -18    0.07    0.24
   4  -1 -18    0.12    0.20
   1   3  18    0.13    0.42
  -4   1  18   -0.13    0.52
  -4   1  18    0.06    0.50
   3  -4  18    0.00    0.21
   4  -2 -18   27.12    2.57
  -2  -2 -18   28.12    2.49
   4  -2 -18   28.11    2.67
   2  -4  18   27.98    2.19
   2   2  18   28.98    2.99
  -4   2  18   27.83    2.92
  -4   2  18   28.39    3.00
   4  -3 -18    0.07    0.29
   4  -3 -18    0.09    0.23
   3   1  18   -0.04    0.57
  -4   3  18   -0.23    0.38
   1  -4  18    0.18    0.22
   4  -4 -18    0.01    0.28
  -4   4  18   -0.11    0.35
   0  -4  18    0.55    0.23
   4   0  18    0.16    0.54
   4  -5 -18   16.18    1.74
  -1  -4  18   17.54    1.62
   5  -1  18   16.34    1.91
  -4   5  18   17.38    1.79
   4  -6 -18    0.19    0.38
  -2  -4  18   -0.14    0.35
   4  -7 -18    0.01    0.40
  -3  -4  18   -0.34    0.43
  -4  -4  18   22.04    2.21
  -5  -4  18    0.45    0.57
  -5  -3  18   -0.55    0.47
  -5  -2  18   16.29    1.65
   5   1 -18   -0.12    0.35
   5   1 -18    0.04    0.23
   1  -6 -18   -0.08    0.25
  -1   6  18    0.12    0.51
   0  -5 -18    0.00    0.24
   5   0 -18   -0.08    0.26
   5   0 -18    0.30    0.36
   5   0 -18   -0.04    0.23
  -5   0  18    0.15    0.71
   5  -5  18    0.03    0.27
   0   5  18    0.40    0.48
   5  -1 -18   19.65    1.88
  -1  -4 -18   19.74    1.78
   5  -1 -18   18.58    1.89
   4  -5  18   20.55    1.60
  -5   1  18   20.84    2.36
   1   4  18   19.66    2.17
  -5   1  18   18.04    2.31
  -2  -3 -18    0.10    0.23
   5  -2 -18    0.01    0.22
   5  -2 -18    0.07    0.35
  -5   2  18    0.04    0.51
   3  -5  18    0.26    0.26
  -5   2  18    0.34    0.54
   5  -3 -18    0.20    0.35
  -3  -2 -18    0.35    0.26
   5  -3 -18    0.16    0.28
  -5   3  18    0.33    0.48
   2  -5  18    0.32    0.27
   3   2  18    0.36    0.62
   2  -5  18    0.32    0.32
  -4  -1 -18   17.83    1.61
   5  -4 -18   17.38    1.68
   5  -4 -18   17.20    1.76
   1  -5  18   16.84    1.67
  -5   4  18   17.87    1.91
   4   1  18   15.86    2.14
   5  -5 -18   -0.03    0.35
  -5   0 -18   -0.25    0.44
  -5   5  18    0.26    0.40
   0  -5  18   -0.30    0.32
   5   0  18    0.34    0.58
   5  -6 -18   -0.29    0.39
   6  -1  18    0.66    0.46
  -5   6  18    0.28    0.42
  -1  -5  18    0.53    0.44
  -2  -5  18   20.51    2.04
  -3  -5  18   -0.06    0.54
  -4  -5  18    0.22    0.62
  -5  -5  18    2.08    0.75
   6   0 -18   12.45    1.37
   0  -6 -18   12.07    1.23
   6   0 -18   12.18    1.31
   0   6  18   14.28    1.59
   6  -1 -18   -0.14    0.42
   6  -1 -18    0.01    0.27
  -1  -5 -18    0.00    0.25
   1   5  18    0.56    0.57
   5  -6  18   -0.05    0.29
   6  -2 -18   -0.04    0.27
  -2  -4 -18    0.30    0.28
   6  -2 -18    0.26    0.42
   4  -6  18   -0.22    0.29
  -6   2  18   -0.46    0.61
  -6   2  18    0.02    0.65
   6  -3 -18   28.74    2.82
   6  -3 -18   29.78    2.72
  -3  -3 -18   29.72    2.59
   3  -6  18   27.97    2.34
  -6   3  18   29.34    3.12
   6  -4 -18    0.22    0.41
   6  -4 -18    0.61    0.36
   2  -6  18   -0.32    0.36
   4   2  18   -0.30    0.65
  -6   4  18    0.05    0.54
   6  -5 -18    0.02    0.35
   1  -6  18    0.13    0.40
   5   1  18    0.07    0.62
  -6   5  18    0.25    0.50
   6  -6 -18   13.91    1.53
  -6   6  18   12.46    1.60
   0  -6  18   13.54    1.44
  -1  -6  18   -0.61    0.49
  -6   7  18   -0.29    0.46
  -2  -6  18   -0.34    0.59
  -3  -6  18    3.73    0.89
  -4  -6  18    0.36    0.65
  -3  -4 -18    0.15    0.28
  -7   3  18   -0.64    0.64
  -7   4  18    0.07    0.63
  -7   5  18   18.91    2.25
   2  -7  18   20.19    2.00
  -7   6  18    0.89    0.63
   1  -7  18    0.37    0.53
   0  -7  18    0.08    0.54
  -7   7  18    0.37    0.58
  -1  -7  18    5.92    1.05
  -2  -7  18    0.83    0.75
  -8   4  18   16.86    2.28
  -8   5  18    1.17    0.83
   2  -8  18   -0.48    0.54
  -8   6  18   -0.94    0.66
   1  -8  18    6.31    1.05
  -8   7  18    5.72    1.18
   0   0 -19    0.75    0.21
   0   0  19    0.09    0.42
   0   0  19    0.56    0.52
   1   0 -19  214.23   19.74
   1   0 -19  216.08   20.76
  -1   1 -19  254.93   19.72
   0  -1 -19  235.33   19.74
   0  -1 -19  253.14   20.78
  -1   0  19  207.57   22.57
   1  -1  19  188.84   22.51
   0   1  19  227.21   22.58
   0   1  19  233.79   21.19
  -1   0 -19   97.55   10.72
  -1   0 -19  120.32   10.19
   0   1 -19  122.94   10.20
   0   1 -19  120.91   11.57
   0  -1  19  124.57   11.74
  -1   1  19  115.30   11.75
   0  -1  19  119.47   11.03
   1   0  19  111.86   11.04
   1   0  19  117.97   11.78
  -1   1  19  115.78   11.07
   1   1 -19    0.01    0.14
   1  -2 -19    0.28    0.22
   1  -2 -19    0.22    0.26
   1   1 -19   -0.09    0.17
   1   1 -19   -0.04    0.16
   2  -1  19   -0.11    0.39
  -1  -1  19    0.62    0.51
  -1   2  19    0.41    0.43
   1  -3 -19   63.13    5.38
   2   1 -19   55.70    5.51
   2   1 -19   60.09    5.76
   2   1 -19   56.74    6.22
   1  -3 -19   71.45    5.84
  -2  -1  19   74.45    6.47
   2   0 -19   38.94    4.22
   2   0 -19   43.16    3.76
   2   0 -19   46.31    3.93
  -2   0  19   44.40    4.29
  -2   0  19   41.84    4.46
   0   2  19   37.67    4.16
  -1   2 -19    0.01    0.16
   2  -1 -19    0.91    0.27
  -1  -1 -19   -0.09    0.21
   2  -1 -19    0.25    0.19
  -1   2 -19   -0.14    0.16
   1   1  19    0.46    0.44
  -2   1  19   -0.20    0.46
   1   1  19    0.28    0.51
  -2   1  19    0.56    0.48
   0   2 -19   65.11    5.99
   0   2 -19   65.44    6.79
   2  -2 -19   76.03    6.35
   2   0  19   67.57    7.02
  -2   2  19   69.73    6.58
   0  -2  19   66.45    5.14
   2  -3 -19   34.31    3.04
   1   2 -19   37.50    3.12
   1   2 -19   37.41    3.51
   3  -1  19   28.03    3.62
  -1  -2  19   33.79    2.66
  -2   3  19   35.88    3.49
   2   2 -19   -0.02    0.19
   2  -4 -19    0.19    0.27
   2  -4 -19    0.02    0.19
  -2   4  19   -0.07    0.39
   2  -5 -19   27.13    2.13
   3   2 -19   22.04    2.43
  -2   5  19   21.32    2.47
   3   1 -19   14.36    1.43
   3   1 -19   14.92    1.32
   3   1 -19   13.83    1.32
   1  -4 -19   10.56    1.39
   1  -4 -19   12.68    1.26
  -1   4  19   14.41    1.60
  -3  -1  19   14.23    1.75
   3   0 -19    0.15    0.24
   3   0 -19   -0.01    0.16
   0  -3 -19    0.00    0.21
   3   0 -19    0.04    0.19
   0  -3 -19    0.06    0.26
   0   3  19   -0.10    0.38
  -3   0  19   -0.30    0.52
  -3   0  19   -0.52    0.51
   3  -1 -19   56.78    5.70
   3  -1 -19   63.17    5.46
  -3   1  19   57.17    6.32
   1   2  19   70.38    6.01
   2  -3  19   61.13    4.66
  -3   1  19   64.96    6.04
   3  -2 -19   27.54    3.11
  -1   3 -19   39.97    3.09
   3  -2 -19   33.98    3.28
   1  -3  19   35.28    2.67
   2   1  19   34.43    3.78
  -3   2  19   33.94    3.50
   2   1  19   38.48    3.62
   3  -3 -19   -0.03    0.17
   3  -3 -19   -0.16    0.23
   3  -3 -19    0.18    0.28
   3   0  19    0.01    0.52
  -3   3  19    0.21    0.39
   0  -3  19   -0.10    0.18
   3  -4 -19   23.49    2.05
   3  -4 -19   26.27    2.29
   1   3 -19   21.02    2.36
   4  -1  19   21.90    2.50
  -3   4  19   24.80    2.39
  -1  -3  19   22.95    1.83
   3  -5 -19   15.29    1.41
   2   3 -19   16.28    1.63
  -3   5  19   13.55    1.67
   3  -6 -19   -0.10    0.37
   3  -6 -19    0.33    0.27
   3   3 -19    0.02    0.27
  -4  -3  19   25.46    2.42
   4   2 -19   12.50    1.21
   2  -6 -19   10.75    1.31
   2  -6 -19   10.23    1.11
   4   2 -19   11.66    1.27
   6  -4  19   12.27    1.04
   4   1 -19    0.03    0.29
   4   1 -19    0.11    0.25
   1  -5 -19    0.07    0.23
   1  -5 -19   -0.40    0.36
   4   1 -19   -0.17    0.20
  -1   5  19   -0.05    0.44
  -4  -1  19   -0.48    0.65
   5  -4  19    0.37    0.26
   4   0 -19   16.64    1.74
   4   0 -19   16.82    1.89
   0  -4 -19   20.74    1.69
   4   0 -19   18.92    1.78
  -4   0  19   12.89    2.18
   0   4  19   23.01    2.09
   4  -4  19   19.97    1.51
   4  -1 -19   13.73    1.31
   4  -1 -19   12.97    1.31
  -1  -3 -19   13.02    1.26
  -4   1  19   12.07    1.69
  -4   1  19   14.58    1.78
   1   3  19   13.70    1.59
   3  -4  19   12.45    1.11
   4  -2 -19    0.21    0.21
  -2  -2 -19   -0.25    0.21
   4  -2 -19   -0.09    0.29
  -4   2  19   -0.07    0.46
  -4   2  19    0.10    0.46
   2   2  19   -0.04    0.50
   2  -4  19   -0.21    0.20
   4  -3 -19   22.89    2.40
   4  -3 -19   27.96    2.31
  -4   3  19   25.12    2.59
   3   1  19   22.95    2.83
   1  -4  19   24.44    1.97
   4  -4 -19    8.94    1.08
  -4   4  19   11.75    1.26
   4   0  19    9.16    1.40
   0  -4  19   10.15    0.90
   4  -5 -19    0.05    0.34
  -1  -4  19   -0.27    0.30
   5  -1  19    0.56    0.47
  -4   5  19   -0.24    0.34
   4  -6 -19   23.53    2.22
  -2  -4  19   20.09    2.08
  -3  -4  19   14.56    1.55
  -4  -4  19    0.46    0.53
  -5  -4  19    7.43    1.13
  -5  -3  19    6.55    0.97
  -5  -2  19    0.34    0.45
   5   1 -19   14.83    1.54
   5   1 -19   15.09    1.56
   1  -6 -19   15.11    1.47
  -1   6  19   17.25    1.82
   6  -5  19   15.55    1.31
   0  -5 -19    9.54    1.09
   5   0 -19   12.57    1.21
   5   0 -19   11.91    1.16
   5   0 -19   12.78    1.23
   5  -5  19    8.80    1.01
   0   5  19   10.91    1.44
  -5   0  19    9.88    1.64
   5  -1 -19   -0.11    0.23
   5  -1 -19    0.08    0.36
  -1  -4 -19    0.06    0.24
  -5   1  19   -0.01    0.64
   1   4  19    0.21    0.49
  -5   1  19    0.71    0.70
   4  -5  19    0.11    0.26
   5  -2 -19   21.60    2.48
   5  -2 -19   28.75    2.44
  -2  -3 -19   26.33    2.33
   3  -5  19   25.99    2.08
  -5   2  19   26.39    2.89
  -5   2  19   31.43    2.89
   5  -3 -19   10.57    1.39
  -3  -2 -19   14.69    1.35
   5  -3 -19   16.52    1.47
   2  -5  19   13.59    1.38
   2  -5  19   15.22    1.23
  -5   3  19   15.55    1.75
   3   2  19   12.88    1.89
  -4  -1 -19    0.19    0.28
   5  -4 -19   -0.02    0.30
   5  -4 -19   -0.15    0.37
   1  -5  19    0.31    0.33
  -5   4  19   -0.22    0.43
   4   1  19   -0.41    0.60
   1  -5  19    0.36    0.28
   5  -5 -19   18.34    2.05
  -5   0 -19   24.54    2.19
  -5   5  19   17.21    2.12
   0  -5  19   19.76    1.93
   5   0  19   19.26    2.35
   5  -6 -19    6.54    1.02
  -1  -5  19    9.50    1.07
  -5   6  19    8.72    1.10
  -2  -5  19    0.51    0.50
  -3  -5  19   13.13    1.60
  -4  -5  19    3.80    0.89
  -5  -5  19    0.19    0.62
  -1   7  19    7.77    1.20
   6   0 -19   -0.27    0.28
   6  -6  19    0.02    0.34
   0   6  19   -0.32    0.50
   6  -1 -19   16.20    1.61
   6  -1 -19   13.58    1.54
  -1  -5 -19   15.90    1.46
   1   5  19   14.96    1.88
   5  -6  19   16.37    1.33
  -2  -4 -19    9.16    1.01
   6  -2 -19   11.60    1.13
   6  -2 -19   10.03    1.20
  -6   2  19   10.54    1.53
   4  -6  19    9.95    1.01
  -6   2  19   10.03    1.57
  -3  -3 -19   -0.04    0.27
   6  -3 -19    0.30    0.30
   6  -3 -19    0.00    0.39
   3  -6  19   -0.24    0.30
  -6   3  19    0.57    0.64
   6  -4 -19   18.20    2.08
   6  -4 -19   22.15    2.00
  -6   4  19   20.20    2.33
   2  -6  19   22.47    2.02
   4   2  19   20.66    2.51
   6  -5 -19    9.38    1.16
  -6   5  19    9.56    1.29
   1  -6  19    7.89    1.07
  -6   6  19   -0.71    0.44
   0  -6  19    0.05    0.48
  -6   7  19    7.17    1.21
  -1  -6  19   12.13    1.31
  -2  -6  19    5.25    0.99
  -3  -6  19   -0.12    0.69
  -4  -6  19    1.12    0.73
   6  -7  19    4.89    0.66
  -3  -4 -19   21.73    2.06
  -7   3  19   25.07    2.71
  -7   4  19   10.46    1.58
  -7   5  19   -0.40    0.64
   2  -7  19   -0.69    0.47
  -7   6  19    6.84    1.20
   1  -7  19    7.83    1.09
  -7   7  19    4.33    0.89
   0  -7  19    2.51    0.80
  -1  -7  19    0.03    0.66
  -7   8  19   -0.24    0.63
  -2  -7  19    2.66    0.85
  -8   4  19   -0.24    0.83
  -8   5  19    8.75    1.52
   2  -8  19    5.22    0.93
  -8   6  19    3.34    1.04
   1  -8  19    0.12    0.61
   0  -8  19    2.41    0.78
   0   0 -20    0.11    0.16
   0   0 -20    0.07    0.19
   0   0  20   -0.62    0.35
   0   0  20   -0.61    0.49
   1   0 -20    0.51    0.23
   0  -1 -20    0.37    0.24
   0  -1 -20    0.12    0.18
  -1   1 -20    0.24    0.18
   1   0 -20   -0.13    0.16
  -1   0  20   -0.11    0.51
  -1   0  20    0.08    0.48
   0   1  20    0.21    0.47
   0   1  20   -0.21    0.39
   1  -1  20    0.34    0.46
  -1   0 -20    0.48    0.21
  -1   0 -20    0.86    0.23
   1  -1 -20    0.20    0.22
   0   1 -20    0.51    0.22
   1  -1 -20    0.00    0.18
   0   1 -20    0.19    0.18
  -1   1  20   -0.28    0.42
   0  -1  20    0.03    0.48
   1   0  20    1.49    0.51
  -1   1  20    0.20    0.51
   1   0  20    0.48    0.51
   1   1 -20    0.04    0.19
   1   1 -20   -0.02    0.18
   1  -2 -20    0.00    0.21
   1  -2 -20    0.04    0.25
   2  -1  20    0.01    0.40
  -1   2  20    0.38    0.43
  -1  -1  20    0.51    0.54
   2   1 -20    6.41    0.75
   1  -3 -20    4.31    0.74
   2   1 -20    7.28    0.69
   1  -3 -20    6.48    0.69
   2   1 -20    7.86    0.73
  -2  -1  20    6.79    1.07
  -1   3  20    6.37    1.02
   2   0 -20    8.08    0.81
   2   0 -20    6.65    0.81
   2   0 -20    6.97    0.86
   0  -2 -20    8.96    0.88
  -2   0  20    8.53    1.26
   2  -2  20    8.75    0.87
  -2   0  20    5.58    1.14
   0   2  20   10.86    1.22
   2  -1 -20   -0.17    0.16
  -1   2 -20   -0.13    0.16
   2  -1 -20   -0.03    0.23
  -1   2 -20    0.02    0.18
  -2   1  20   -0.15    0.46
   1   1  20    0.36    0.53
   1   1  20   -0.12    0.40
  -2   1  20   -0.37    0.46
   2  -2 -20    3.71    0.60
   0   2 -20    5.56    0.56
   2  -2 -20    4.42    0.60
   0   2 -20    5.93    0.61
  -2   2  20    4.97    0.89
   0  -2  20    4.55    0.50
   2   0  20    4.23    0.91
   2   0  20    5.15    0.93
   2  -3 -20   10.74    1.06
   2  -3 -20   14.08    1.19
   1   2 -20   10.94    1.19
   1   2 -20   10.46    1.08
   3  -1  20   10.32    1.39
  -1  -2  20   10.78    0.93
  -2   3  20   10.55    1.40
   2   2 -20   -0.12    0.23
   2   2 -20   -0.11    0.20
   2  -4 -20    0.22    0.24
   2  -4 -20    0.16    0.27
  -2   4  20    0.17    0.42
   2  -5 -20    4.33    0.77
   3   2 -20    6.34    0.76
   3   2 -20    7.28    0.76
   2  -5 -20    5.73    0.69
  -2   5  20    6.69    1.01
   3   1 -20   10.47    1.24
   3   1 -20   12.45    1.25
   1  -4 -20   15.16    1.37
   3   1 -20   12.05    1.36
   1  -4 -20   13.83    1.23
  -3  -1  20   16.07    1.71
  -1   4  20   12.34    1.57
   0  -3 -20   -0.05    0.24
   3   0 -20    0.06    0.25
   3   0 -20   -0.02    0.19
   3   0 -20   -0.15    0.16
   0  -3 -20    0.05    0.30
  -3   0  20    0.44    0.57
   0   3  20   -0.10    0.40
  -3   0  20    0.16    0.54
   3  -1 -20    6.94    0.78
   3  -1 -20    6.96    0.77
  -3   1  20    7.04    1.15
  -3   1  20    7.68    1.15
   1   2  20    6.23    1.04
   2  -3  20    7.64    0.67
   3  -2 -20   14.57    1.23
   3  -2 -20   10.94    1.23
   1  -3  20   11.09    1.02
   2   1  20   13.54    1.66
  -3   2  20   13.47    1.59
   2   1  20   11.67    1.66
   3  -3 -20    0.04    0.20
   3  -3 -20   -0.14    0.26
   3  -3 -20    0.05    0.28
   3   0  20   -0.18    0.54
   0  -3  20    0.03    0.20
  -3   3  20   -0.35    0.36
   1   3 -20    8.26    0.84
   3  -4 -20    7.60    0.74
   3  -4 -20    5.25    0.85
  -3   4  20    6.94    1.01
   4  -1  20    5.88    1.00
  -1  -3  20    8.44    0.70
   3  -5 -20    9.29    0.92
   2   3 -20    8.06    1.03
   3  -5 -20   12.33    1.09
  -3   5  20    8.45    1.18
   3  -6 -20    0.09    0.38
   3  -6 -20    0.15    0.28
   3   3 -20   -0.03    0.28
  -4  -3  20   -0.45    0.45
   2  -6 -20    2.24    0.42
   2  -6 -20    2.42    0.57
   4   2 -20    1.01    0.38
   4   2 -20    2.04    0.46
   6  -4  20    2.18    0.43
  -2   6  20    1.63    0.66
   1  -5 -20    0.51    0.30
   4   1 -20    0.12    0.26
   4   1 -20    0.10    0.22
   1  -5 -20    0.28    0.38
   4   1 -20    0.05    0.32
  -4  -1  20   -0.30    0.66
  -1   5  20   -0.15    0.47
   5  -4  20    0.48    0.31
   4   0 -20   14.08    1.21
   4   0 -20   11.03    1.17
   4   0 -20   12.56    1.26
   0  -4 -20   10.71    1.13
  -4   0  20    9.56    1.60
   0   4  20   11.31    1.47
   4  -4  20   10.99    1.02
   4  -1 -20   14.79    1.35
  -1  -3 -20   14.02    1.29
   4  -1 -20   12.40    1.34
  -4   1  20   11.71    1.74
   1   3  20   16.10    1.68
   3  -4  20   12.81    1.15
  -4   1  20   14.65    1.83
   4  -2 -20   -0.01    0.29
   4  -2 -20    0.03    0.24
  -2  -2 -20    0.15    0.25
   2  -4  20    0.02    0.22
  -4   2  20    0.53    0.51
   2   2  20   -0.06    0.49
  -4   2  20   -0.42    0.46
   4  -3 -20    6.14    0.84
   4  -3 -20    7.63    0.86
   3   1  20    8.50    1.29
   1  -4  20    7.79    0.75
  -4   3  20    7.25    1.09
   4  -4 -20   17.97    1.81
  -4   4  20   17.54    1.95
   0  -4  20   17.69    1.47
   4   0  20   17.62    2.13
   4  -5 -20    0.02    0.31
   5  -1  20   -0.26    0.43
  -4   5  20    0.89    0.45
   4  -6 -20    0.90    0.44
  -4   6  20    1.28    0.53
  -2  -4  20    1.15    0.48
  -3  -4  20   -0.08    0.50
  -4  -4  20   -0.09    0.57
  -5  -4  20   -0.14    0.61
  -5  -3  20    1.38    0.60
  -5  -2  20   -0.25    0.44
   1  -6 -20    0.99    0.35
   5   1 -20    0.67    0.44
   5   1 -20    1.41    0.35
   6  -5  20    0.73    0.37
  -1   6  20    1.72    0.62
   5   0 -20    2.94    0.46
   0  -5 -20    4.26    0.51
   5   0 -20    1.66    0.53
   5   0 -20    2.59    0.45
   0   5  20    4.13    0.77
   5  -5  20    2.75    0.47
  -5   0  20    2.36    0.92
  -1  -4 -20   -0.14    0.28
   5  -1 -20    0.22    0.36
   5  -1 -20    0.05    0.24
  -5   1  20    0.22    0.66
   1   4  20   -0.33    0.48
  -5   1  20    0.26    0.69
   4  -5  20    0.15    0.28
  -2  -3 -20    6.03    0.69
   5  -2 -20    6.10    0.72
   5  -2 -20    4.85    0.73
  -5   2  20    5.36    1.07
   3  -5  20    5.19    0.63
  -5   2  20    5.36    1.02
   5  -3 -20   13.21    1.11
   5  -3 -20    8.00    1.06
  -3  -2 -20    9.43    1.00
   2  -5  20   10.41    1.06
  -5   3  20    8.03    1.33
   2  -5  20    9.90    0.93
   3   2  20    9.71    1.51
  -4  -1 -20    0.43    0.31
   5  -4 -20   -0.16    0.32
   5  -4 -20    0.23    0.37
  -5   4  20   -0.06    0.47
   4   1  20   -0.51    0.63
   1  -5  20    0.15    0.29
   1  -5  20    0.22    0.34
  -5   0 -20    1.60    0.52
   5  -5 -20    1.45    0.49
   0  -5  20    1.80    0.49
  -5   5  20    1.91    0.59
   5   0  20    2.05    0.72
   5  -6 -20    2.68    0.56
  -1  -5  20    1.42    0.57
  -5   6  20    2.15    0.61
  -2  -5  20   -0.29    0.53
  -3  -5  20   -0.04    0.61
  -4  -5  20    0.87    0.69
  -5  -5  20    0.31    0.63
  -1   7  20    2.57    0.75
   0   6  20   -0.62    0.51
   6  -6  20    0.37    0.37
   6  -1 -20    1.67    0.38
  -1  -5 -20    1.51    0.38
   6  -1 -20    1.35    0.53
   5  -6  20    0.76    0.37
   1   5  20    0.60    0.59
  -2  -4 -20    2.10    0.43
   6  -2 -20    1.81    0.45
   6  -2 -20    3.52    0.60
  -6   2  20    2.59    0.92
  -6   2  20    1.99    0.85
   4  -6  20    2.22    0.46
  -3  -3 -20    0.43    0.31
   6  -3 -20    0.11    0.30
   6  -3 -20   -0.36    0.39
  -6   3  20   -0.41    0.61
   3  -6  20    0.07    0.33
   6  -4 -20    1.42    0.43
   6  -4 -20    1.56    0.50
   2  -6  20    1.02    0.49
  -6   4  20   -0.07    0.61
   4   2  20    1.99    0.81
   6  -5 -20    2.40    0.58
   1  -6  20    2.74    0.60
  -6   5  20    1.11    0.62
   0  -6  20    0.20    0.47
  -6   6  20    0.39    0.56
  -6   7  20   -0.01    0.51
  -1  -6  20    0.77    0.63
  -2  -6  20    1.33    0.70
  -3  -6  20   -0.17    0.69
  -4  -6  20    0.88    0.72
   6  -7  20    1.59    0.46
   5  -7  20    0.73    0.40
  -7   3  20   -0.56    0.72
  -7   4  20    0.62    0.76
   2  -7  20   -0.10    0.52
  -7   5  20   -0.10    0.66
  -7   6  20    1.06    0.69
   1  -7  20    0.39    0.57
  -7   7  20    1.77    0.75
   0  -7  20    1.17    0.69
  -1  -7  20    0.79    0.75
  -2  -7  20    0.61    0.71
  -8   4  20   -0.53    0.78
  -8   5  20   -0.06    0.80
  -8   6  20    0.79    0.79
   2  -8  20    0.63    0.65
   1  -8  20   -0.49    0.60
   0  -8  20    0.21    0.66
   0   0 -21   35.56    3.21
   0   0 -21   34.93    3.36
   0   0  21   36.80    3.85
   0   0  21   38.23    3.66
   0  -1 -21    0.07    0.21
   1   0 -21    0.07    0.21
   0  -1 -21    0.36    0.20
  -1   1 -21    0.06    0.19
   1   0 -21    0.18    0.19
  -1   0  21    0.30    0.53
   0   1  21   -0.15    0.48
   0   1  21    0.00    0.42
  -1   0  21   -0.49    0.43
   1  -1  21    0.55    0.47
   0   1 -21    0.08    0.20
  -1   0 -21   -0.03    0.20
   1  -1 -21    0.22    0.21
   1  -1 -21    0.02    0.21
   1   0  21    0.05    0.44
   1   0  21   -0.10    0.51
  -1   1  21    0.26    0.48
   0  -1  21    0.05    0.48
  -1   1  21   -0.21    0.48
   1  -2 -21  110.83    9.54
   1   1 -21  105.67    9.05
   1   1 -21  103.66   10.25
   2  -1  21   92.96   10.38
  -1   2  21   99.70    9.84
   1  -3 -21    0.12    0.25
   2   1 -21   -0.04    0.22
   1  -3 -21   -0.08    0.23
   2   1 -21    0.09    0.19
  -2  -1  21    0.08    0.54
  -1   3  21   -0.28    0.40
   2   0 -21   -0.07    0.17
   0  -2 -21   -0.15    0.22
   2   0 -21    0.10    0.22
  -2   0  21    0.16    0.56
   0   2  21    0.18    0.42
  -2   0  21    0.12    0.51
   2  -1 -21  116.32    9.50
  -1   2 -21  101.04   10.74
  -1   2 -21  111.90    9.46
   2  -1 -21  104.68    9.98
   1   1  21  122.98   10.32
  -2   1  21   98.35   10.30
   1   1  21  125.46   11.00
  -2   1  21   87.46   10.90
   0   2 -21   -0.26    0.18
   2  -2 -21   -0.18    0.21
   0   2 -21   -0.02    0.19
   2  -2 -21   -0.06    0.25
   2   0  21   -0.21    0.52
  -2   2  21    0.01    0.46
   0  -2  21    0.06    0.18
   2   0  21    0.07    0.49
   1   2 -21   -0.16    0.19
   2  -3 -21    0.20    0.23
   1   2 -21   -0.08    0.20
   2  -3 -21   -0.21    0.21
   3  -1  21    0.33    0.43
  -1  -2  21   -0.08    0.19
  -2   3  21    0.19    0.43
   2   2 -21   90.54    8.06
   2   2 -21   90.81    9.12
   2  -4 -21   91.88    7.86
   2  -4 -21   94.55    8.51
  -2   4  21   89.28    8.74
   2  -5 -21    0.34    0.34
   3   2 -21    0.02    0.25
   3   2 -21    0.27    0.30
   2  -5 -21    0.02    0.26
  -2   5  21   -0.32    0.46
   1  -4 -21    0.27    0.29
   3   1 -21   -0.31    0.25
   1  -4 -21    0.19    0.24
   3   1 -21   -0.28    0.21
   3   1 -21    0.08    0.18
  -1   4  21    0.19    0.47
  -3  -1  21   -0.47    0.58
   0  -3 -21  127.99   11.00
   3   0 -21  119.57   11.28
   0  -3 -21  137.62   11.91
   3   0 -21  129.47   11.84
  -3   0  21  137.54   12.31
  -3   0  21  116.45   12.98
   0   3  21  133.29   12.17
  -2   3 -21   -0.07    0.21
   3  -1 -21   -0.22    0.24
   3  -1 -21   -0.03    0.19
  -3   1  21    0.09    0.54
   2  -3  21    0.05    0.21
  -3   1  21   -0.61    0.48
   1   2  21    0.39    0.47
   3  -2 -21   -0.06    0.26
  -1   3 -21    0.00    0.20
   3  -2 -21   -0.08    0.22
   2   1  21    0.28    0.54
   2   1  21    0.74    0.58
  -3   2  21   -0.05    0.48
   1  -3  21    0.07    0.19
   0   3 -21  134.09   13.59
   3  -3 -21  153.78   12.04
   3  -3 -21  131.28   12.66
   3  -3 -21  137.24   11.68
   0   3 -21  134.45   11.98
  -3   3  21  135.86   12.94
   3   0  21  130.28   13.82
   0  -3  21  137.90   10.28
   3  -4 -21    0.30    0.30
   3  -4 -21   -0.01    0.21
   1   3 -21   -0.13    0.20
  -1  -3  21   -0.20    0.22
   4  -1  21   -0.04    0.41
  -3   4  21   -0.06    0.42
   3  -5 -21    0.00    0.32
   2   3 -21   -0.17    0.24
   3  -5 -21    0.24    0.25
  -3   5  21    0.56    0.49
   3  -6 -21   24.42    2.13
   3  -6 -21   22.00    2.34
   3   3 -21   24.00    2.44
  -3   6  21   22.39    2.53
  -4  -3  21    0.36    0.51
   2  -6 -21   -0.25    0.27
   4   2 -21    0.21    0.34
   2  -6 -21    0.09    0.40
  -2   6  21   -0.26    0.49
   6  -4  21    0.09    0.34
   1  -5 -21   57.82    5.24
   1  -5 -21   66.44    5.73
   4   1 -21   59.07    5.61
   4   1 -21   53.88    6.05
   4   1 -21   59.98    5.40
   5  -4  21   59.55    4.63
  -4  -1  21   72.28    6.31
  -1   5  21   60.46    5.89
   4   0 -21    0.10    0.23
   4   0 -21   -0.13    0.18
   0  -4 -21   -0.13    0.24
   4   0 -21    0.36    0.32
  -4   0  21    0.08    0.66
   4  -4  21    0.34    0.29
   0   4  21   -0.13    0.43
   4  -1 -21   -0.15    0.29
   4  -1 -21   -0.03    0.21
  -1  -3 -21   -0.31    0.23
   1   3  21    0.06    0.44
  -4   1  21   -0.17    0.58
  -4   1  21   -0.80    0.54
   3  -4  21   -0.11    0.24
   4  -2 -21   97.36    8.36
   4  -2 -21   88.99    8.76
  -2  -2 -21   92.69    8.13
  -4   2  21   93.79    9.60
   2   2  21  102.11    9.12
   2  -4  21   93.49    7.15
  -4   2  21   97.10    9.11
   4  -3 -21    0.26    0.32
   4  -3 -21   -0.19    0.25
   3   1  21    0.27    0.61
  -4   3  21   -0.42    0.45
   1  -4  21    0.08    0.25
   4  -4 -21    0.01    0.29
   4   0  21   -0.39    0.53
   0  -4  21   -0.12    0.26
  -4   4  21   -0.58    0.41
  -4   5  21   57.40    5.72
   5  -1  21   60.61    6.06
   4  -6 -21   -0.31    0.34
  -2  -4  21   -0.06    0.41
  -4   6  21    0.66    0.51
  -3  -4  21    0.50    0.53
  -4  -4  21    5.47    0.96
  -5  -4  21    0.30    0.62
  -5  -3  21   -0.13    0.54
  -5  -2  21   13.02    1.41
   1  -6 -21   -0.12    0.31
   5   1 -21   -0.22    0.40
   6  -5  21   -0.44    0.32
  -1   6  21   -0.42    0.50
   0  -5 -21   -0.16    0.30
   5   0 -21   -0.01    0.25
   5   0 -21   -0.23    0.36
   5   0 -21    0.13    0.26
  -5   0  21   -0.97    0.66
   5  -5  21    0.50    0.32
   0   5  21   -0.06    0.48
  -1  -4 -21   59.00    5.12
   5  -1 -21   60.60    5.29
   5  -1 -21   57.08    5.49
   1   4  21   65.19    5.80
  -5   1  21   62.37    5.97
   4  -5  21   58.91    4.52
  -5   1  21   50.44    6.15
  -2  -3 -21    0.02    0.27
   5  -2 -21    0.24    0.26
   5  -2 -21    0.29    0.35
  -5   2  21   -0.09    0.62
  -5   2  21    0.15    0.65
   3  -5  21   -0.30    0.28
   5  -3 -21   -0.09    0.34
   5  -3 -21    0.31    0.31
  -3  -2 -21    0.12    0.30
   2  -5  21    0.47    0.32
  -5   3  21   -0.23    0.53
   2  -5  21   -0.01    0.33
   3   2  21    0.54    0.64
   5  -4 -21   64.85    5.55
  -4  -1 -21   65.05    5.40
   5  -4 -21   57.71    5.84
   1  -5  21   64.66    5.47
   4   1  21   62.26    6.50
   1  -5  21   59.01    4.76
  -5   4  21   59.19    6.05
   5  -5 -21    0.73    0.41
  -5   5  21   -0.22    0.43
   0  -5  21    0.22    0.38
   5   0  21    0.11    0.61
   5  -6 -21   -0.10    0.40
  -1  -5  21   -0.09    0.44
  -5   6  21    0.46    0.50
  -2  -5  21   14.94    1.64
  -3  -5  21    0.10    0.60
  -4  -5  21    0.79    0.68
  -5  -5  21    3.93    0.91
  -1   7  21   -0.03    0.57
   6  -6  21   21.59    1.86
   0   6  21   22.98    2.46
  -1  -5 -21    0.09    0.33
   6  -1 -21   -0.09    0.30
   6  -1 -21   -0.39    0.45
   1   5  21    0.33    0.61
   5  -6  21    0.09    0.34
   6  -2 -21    0.01    0.43
  -2  -4 -21   -0.29    0.30
   6  -2 -21    0.44    0.31
   4  -6  21   -0.08    0.34
  -6   2  21   -0.01    0.73
  -6   2  21    0.30    0.72
  -3  -3 -21   22.74    2.19
   6  -3 -21   26.88    2.33
   6  -3 -21   23.61    2.39
   3  -6  21   27.14    2.03
  -6   3  21   20.01    2.70
   6  -4 -21   -0.05    0.36
   6  -4 -21    0.17    0.42
   2  -6  21   -0.81    0.38
  -6   4  21    0.44    0.65
   4   2  21   -0.07    0.67
   6  -5 -21    0.04    0.41
   1  -6  21   -0.58    0.41
  -6   5  21    0.24    0.58
   0  -6  21   19.70    2.00
  -6   6  21   20.25    2.25
  -1  -6  21   -0.13    0.54
  -6   7  21    0.22    0.59
  -2  -6  21   -1.14    0.58
  -3  -6  21    4.69    1.05
  -4  -6  21    0.56    0.74
   6  -7  21    0.10    0.40
   5  -7  21   13.92    1.30
  -7   3  21    0.82    0.85
  -7   4  21    0.09    0.76
   2  -7  21   15.66    1.61
  -7   5  21   12.45    1.88
  -7   6  21    0.48    0.66
   1  -7  21   -0.24    0.56
  -7   7  21   -0.41    0.61
   0  -7  21    0.08    0.62
  -1  -7  21    8.05    1.31
  -2  -7  21    0.92    0.76
  -8   4  21    3.04    1.16
  -8   5  21   -0.79    0.76
   2  -8  21   -0.07    0.64
  -8   6  21   -0.09    0.79
   1  -8  21    6.97    1.15
   0  -8  21    0.10    0.68
   0   0 -22    0.27    0.21
   0   0 -22    0.53    0.20
   0   0  22    0.00    0.44
   0   0  22    0.27    0.53
   1   0 -22    4.08    0.53
   1   0 -22    3.75    0.52
  -1   1 -22    4.62    0.50
   0  -1 -22    4.61    0.55
   0  -1 -22    4.64    0.54
  -1   0  22    4.07    0.86
   1  -1  22    3.74    0.78
  -1   0  22    4.30    0.86
   0   1  22    3.95    0.81
   0   1  22    3.30    0.79
  -1   0 -22    2.25    0.36
   1  -1 -22    1.86    0.35
   1  -1 -22    1.81    0.35
   0   1 -22    1.84    0.33
  -1   1  22    2.37    0.67
  -1   1  22    2.03    0.67
   1   0  22    1.95    0.67
   1   0  22    2.06    0.63
   0  -1  22    2.38    0.64
   1  -2 -22    0.08    0.20
   1   1 -22   -0.06    0.18
   1   1 -22   -0.01    0.22
  -1   2  22   -0.06    0.45
  -1  -1  22    0.15    0.51
   2  -1  22   -0.14    0.43
  -1  -1  22   -0.17    0.18
   1  -3 -22    2.17    0.39
   2   1 -22    1.61    0.37
   2   1 -22    2.04    0.36
   1  -3 -22    3.21    0.45
  -2  -1  22    2.51    0.71
  -1   3  22    1.44    0.62
   2   0 -22    0.25    0.26
   2   0 -22   -0.15    0.17
   0  -2 -22   -0.13    0.23
   0   2  22   -0.01    0.43
   2  -2  22    0.15    0.23
  -2   0  22    0.10    0.53
  -2   0  22    0.16    0.56
   2  -1 -22   -0.08    0.20
  -1   2 -22    0.00    0.20
   2  -1 -22    0.28    0.25
  -2   1  22   -0.03    0.52
  -2   1  22   -1.19    0.42
   1  -2  22   -0.03    0.24
   1   1  22   -0.62    0.40
   1   1  22    0.69    0.56
   0   2 -22    0.22    0.19
   2  -2 -22    0.16    0.24
   0   2 -22    0.03    0.20
   2  -2 -22    0.05    0.26
   0  -2  22    0.44    0.21
   2   0  22   -0.37    0.48
   2   0  22    0.04    0.53
  -2   2  22   -0.12    0.47
   2  -3 -22    1.38    0.32
   2  -3 -22    0.98    0.32
   1   2 -22    1.44    0.30
   1   2 -22    1.89    0.33
  -2   3  22    1.17    0.58
  -1  -2  22    1.29    0.29
   3  -1  22    1.35    0.53
   2   2 -22   -0.02    0.25
   2  -4 -22   -0.16    0.25
   2  -4 -22    0.29    0.27
   2   2 -22    0.18    0.24
  -2   4  22    0.46    0.50
   3   2 -22    2.48    0.48
   2  -5 -22    3.01    0.45
   2  -5 -22    2.92    0.54
   3   2 -22    2.52    0.44
  -2   5  22    1.76    0.68
   3   1 -22    5.88    0.61
   1  -4 -22    4.07    0.57
   3   1 -22    5.21    0.64
   1  -4 -22    2.78    0.60
  -3  -1  22    5.32    0.96
  -1   4  22    3.67    0.84
   0  -3 -22   -0.04    0.24
   0  -3 -22    0.01    0.30
   3   0 -22    0.00    0.19
   3   0 -22    0.02    0.27
   3   0 -22    0.14    0.21
   0   3  22    0.02    0.45
  -3   0  22    0.41    0.63
   3  -1 -22    2.15    0.37
  -2   3 -22    2.04    0.38
   3  -1 -22    2.47    0.43
   2  -3  22    2.01    0.36
  -3   1  22    1.98    0.71
   1   2  22    2.92    0.68
  -3   1  22    0.64    0.63
   3  -2 -22    1.21    0.34
   3  -2 -22    0.69    0.30
  -1   3 -22    0.94    0.28
   1  -3  22    1.74    0.31
  -3   2  22    1.44    0.61
   2   1  22    0.90    0.63
   2   1  22    1.47    0.63
   0   3 -22    0.15    0.21
   3  -3 -22    0.10    0.28
   3  -3 -22    0.35    0.30
   0   3 -22   -0.36    0.21
   3  -3 -22    0.03    0.23
   3   0  22   -0.18    0.51
   0  -3  22    0.17    0.24
  -3   3  22    0.20    0.48
   3  -4 -22    7.70    0.86
   1   3 -22    6.43    0.77
   3  -4 -22    7.35    0.77
   1   3 -22    7.10    0.83
  -1  -3  22    8.15    0.71
  -3   4  22    6.26    1.05
   4  -1  22    7.19    1.05
   3  -5 -22    1.41    0.43
   3  -5 -22    1.85    0.38
   2   3 -22    2.07    0.39
  -3   5  22    2.58    0.67
   3  -6 -22   -0.34    0.29
   3   3 -22    0.09    0.36
   3  -6 -22   -0.22    0.33
  -3   6  22   -0.38    0.54
  -4  -3  22    0.52    0.51
   2  -6 -22    0.23    0.32
   4   2 -22   -0.38    0.34
   2  -6 -22   -0.11    0.41
  -2   6  22    0.06    0.54
   6  -4  22   -0.26    0.34
   4   1 -22   -0.02    0.27
   4   1 -22    0.41    0.36
   1  -5 -22    0.15    0.28
   1  -5 -22    0.33    0.40
  -1   5  22   -0.05    0.50
  -4  -1  22    0.15    0.67
   5  -4  22   -0.03    0.29
   0  -4 -22    3.09    0.45
   4   0 -22    2.36    0.39
   4   0 -22    2.42    0.39
   4   0 -22    2.43    0.48
   0   4  22    2.14    0.64
  -4   0  22    1.52    0.79
   4  -4  22    1.98    0.41
  -1  -3 -22    4.19    0.56
   4  -1 -22    3.60    0.60
   4  -1 -22    4.01    0.55
  -4   1  22    3.94    1.00
  -4   1  22    2.88    0.89
   3  -4  22    4.79    0.55
   1   3  22    5.16    0.88
   4  -2 -22    0.07    0.30
  -2  -2 -22    0.37    0.30
   4  -2 -22    0.52    0.27
  -4   2  22    0.55    0.61
   2  -4  22    0.63    0.29
  -4   2  22   -0.19    0.56
   2   2  22    0.01    0.53
   4  -3 -22    7.43    0.93
   4  -3 -22    9.14    0.92
   1  -4  22    8.05    0.83
   3   1  22    9.39    1.37
  -4   3  22    7.92    1.23
   4  -4 -22    0.69    0.36
  -4   4  22    1.20    0.56
   0  -4  22    1.22    0.35
   4   0  22    1.31    0.66
   4  -5 -22    0.04    0.33
   5  -1  22    0.06    0.46
  -4   5  22   -0.03    0.46
   4  -6 -22    0.37    0.38
  -2  -4  22    0.45    0.48
  -4   6  22    0.29    0.53
  -3  -4  22    0.52    0.55
  -4  -4  22    0.30    0.62
  -5  -4  22   -0.11    0.62
  -5  -3  22   -0.16    0.56
  -5  -2  22   -0.38    0.45
   6  -5  22   -0.13    0.34
  -1   6  22    0.45    0.54
   5   0 -22    1.14    0.33
   0  -5 -22    0.70    0.35
   5   0 -22    1.46    0.45
   0   5  22    0.92    0.57
  -5   0  22    0.28    0.81
   5  -5  22    0.19    0.34
   5  -1 -22    0.22    0.27
  -1  -4 -22    0.39    0.30
   5  -1 -22   -0.28    0.39
   4  -5  22    0.22    0.32
   1   4  22    0.55    0.54
  -5   1  22   -0.24    0.68
   5  -2 -22    2.30    0.47
   5  -2 -22    3.44    0.58
  -2  -3 -22    2.51    0.49
  -5   2  22    3.62    0.89
  -5   2  22    2.04    0.83
   3  -5  22    3.54    0.51
   5  -3 -22    1.11    0.43
  -3  -2 -22    1.06    0.39
   5  -3 -22    2.05    0.43
   2  -5  22    1.46    0.40
  -5   3  22    1.73    0.72
   3   2  22    1.82    0.75
   5  -4 -22   -0.21    0.34
   5  -4 -22    0.83    0.42
  -4  -1 -22    0.51    0.34
   1  -5  22    0.61    0.35
  -5   4  22    0.58    0.55
   4   1  22    0.11    0.67
   1  -5  22    0.05    0.39
   5  -5 -22    1.32    0.48
  -5   5  22    0.80    0.61
   0  -5  22    1.96    0.54
  -5   6  22    0.01    0.53
  -1  -5  22    0.45    0.49
  -2  -5  22   -0.04    0.54
  -5   7  22   -0.01    0.59
  -3  -5  22    0.01    0.61
  -4  -5  22    0.05    0.66
  -5  -5  22   -0.25    0.64
  -1   7  22   -0.52    0.53
   0   6  22   -0.45    0.56
   6  -6  22   -0.29    0.37
   6  -1 -22    0.15    0.32
   6  -1 -22    0.24    0.47
   5  -6  22   -0.13    0.37
   1   5  22    0.49    0.59
   6  -2 -22    0.64    0.47
  -2  -4 -22    0.05    0.31
   6  -2 -22    0.43    0.31
  -6   2  22   -0.91    0.69
   4  -6  22    0.28    0.36
   6  -3 -22    0.99    0.43
  -3  -3 -22   -0.52    0.29
   6  -3 -22    0.05    0.33
   3  -6  22   -0.09    0.38
  -6   3  22    0.30    0.70
   6  -4 -22    0.05    0.36
   6  -4 -22    0.50    0.43
  -6   4  22   -0.16    0.61
   2  -6  22    0.65    0.49
   1  -6  22   -0.04    0.43
  -6   5  22   -0.11    0.56
   0  -6  22   -0.04    0.47
  -6   6  22   -0.23    0.55
  -1  -6  22    0.42    0.61
  -6   7  22   -0.11    0.60
  -2  -6  22   -0.97    0.63
  -3  -6  22   -0.37    0.70
  -4  -6  22   -0.48    0.68
   6  -7  22   -0.24    0.39
   5  -7  22   -0.11    0.41
  -7   3  22   -0.50    0.75
  -7   4  22    1.14    0.85
  -7   5  22    0.26    0.75
   2  -7  22   -0.57    0.54
   1  -7  22    0.14    0.58
  -7   6  22   -1.02    0.59
  -7   7  22    0.68    0.74
   0  -7  22    0.80    0.69
  -1  -7  22   -0.63    0.68
  -2  -7  22    0.80    0.80
  -8   4  22   -0.35    0.90
  -8   5  22   -0.59    0.82
   1  -8  22   -0.07    0.63
   0  -8  22    1.37    0.78
   0   0 -23    0.21    0.21
   0   0 -23    0.32    0.19
   0   0  23    0.52    0.55
   0   0  23   -0.14    0.43
  -1   1 -23   72.24    7.21
   1   0 -23   78.17    7.61
   1   0 -23   80.84    7.24
   0  -1 -23   78.61    7.23
   0   1  23   92.91    7.95
  -1   0  23   89.01    8.43
  -1   0  23   91.92    7.98
   0   1  23   88.79    8.43
   0   1 -23  169.39   16.37
   1  -1 -23  201.90   16.39
   1  -1 -23  195.91   17.25
   1   0  23  206.10   17.66
  -1   1  23  154.33   18.75
  -1   1  23  167.89   17.64
   0  -1  23  208.21   18.78
   1   0  23  197.29   18.81
   1   1 -23    0.02    0.22
   1  -2 -23    0.13    0.22
   1   1 -23    0.00    0.20
   2  -1  23    0.77    0.51
  -1   2  23   -0.07    0.46
  -1  -1  23   -0.32    0.19
  -1  -1  23   -0.10    0.52
   1  -3 -23   22.01    2.32
   2   1 -23   27.97    2.66
   2   1 -23   26.79    2.38
  -1   3  23   25.87    2.78
  -2  -1  23   27.09    2.89
   2   0 -23   70.92    6.45
   2   0 -23   67.65    6.76
   2  -2  23   70.84    7.27
  -2   0  23   80.40    7.17
  -2   0  23   75.21    7.52
   0   2  23   80.48    7.09
   2  -1 -23   -0.09    0.21
   2  -1 -23    0.09    0.24
   1   1  23    0.01    0.44
  -2   1  23   -0.18    0.52
   1   1  23   -0.44    0.50
   1  -2  23    0.08    0.26
  -2   1  23   -0.39    0.45
   0   2 -23   45.42    4.43
   0   2 -23   46.84    3.92
  -2   2  23   39.19    4.43
   2   0  23   40.33    4.64
   2   0  23   45.49    4.46
   0  -2  23   42.90    3.37
   2  -3 -23   49.53    3.90
   1   2 -23   39.04    3.67
   2  -3 -23   43.92    3.60
   1   2 -23   38.09    4.13
  -2   3  23   34.34    4.13
  -1  -2  23   41.48    3.16
   3  -1  23   38.63    4.27
   2   2 -23   -0.13    0.26
   2  -4 -23    0.19    0.28
   2  -4 -23    0.31    0.28
   2   2 -23    0.12    0.25
  -2   4  23   -0.04    0.49
   3   2 -23   16.92    1.61
   2  -5 -23   14.45    1.54
   3   2 -23   17.76    1.76
  -2   5  23   17.03    1.98
   3   1 -23   25.40    2.54
   1  -4 -23   29.90    2.49
   3   1 -23   24.37    2.81
  -3  -1  23   36.18    3.14
  -1   4  23   28.22    2.93
   3   0 -23   -0.26    0.19
   0  -3 -23    0.18    0.31
   0  -3 -23   -0.39    0.21
   3   0 -23    0.04    0.29
  -3   0  23   -0.30    0.59
   0   3  23    0.11    0.46
   3  -1 -23   22.86    2.35
   3  -1 -23   25.48    2.46
  -3   1  23   27.24    2.92
   2  -3  23   26.12    2.04
  -3   1  23   28.72    2.90
   1   2  23   27.06    2.74
   3  -2 -23   41.05    3.89
  -1   3 -23   38.64    4.14
   1  -3  23   41.42    3.18
  -3   2  23   37.74    4.19
   2   1  23   51.04    4.26
   0   3 -23    0.17    0.23
   3  -3 -23    0.22    0.31
   0   3 -23   -0.19    0.22
   3  -3 -23    0.32    0.30
   3   0  23    0.34    0.55
   0  -3  23   -0.53    0.22
  -3   3  23   -0.38    0.46
   1   3 -23   20.68    1.73
   3  -4 -23   17.32    1.67
   1   3 -23   19.34    1.92
   4  -1  23   15.59    2.06
  -1  -3  23   16.83    1.50
  -3   4  23   19.61    2.11
   3  -5 -23   29.80    2.43
   2   3 -23   20.95    2.25
   3  -5 -23   26.18    2.21
   2   3 -23   22.98    2.52
  -3   5  23   22.80    2.63
   3  -6 -23   -0.38    0.37
   3  -6 -23   -0.20    0.30
   3   3 -23   -0.42    0.31
  -3   6  23   -0.37    0.56
  -4  -3  23   11.68    1.42
   2  -6 -23   18.98    1.83
   4   2 -23   15.31    1.89
   2  -6 -23   25.03    2.08
   6  -4  23   21.46    1.68
  -2   6  23   18.81    2.26
   4   1 -23    0.26    0.29
   1  -5 -23    0.07    0.29
   4   1 -23    0.26    0.35
   1  -5 -23   -0.08    0.35
  -4  -1  23   -1.00    0.60
  -1   5  23    0.11    0.52
   5  -4  23   -0.02    0.31
   4   0 -23    9.42    0.97
   4   0 -23    9.69    0.94
   0  -4 -23    7.38    0.93
  -4   0  23    6.94    1.35
   4  -4  23    9.09    0.89
   0   4  23    7.73    1.21
   4  -1 -23   28.17    2.58
   4  -1 -23   24.95    2.65
  -1  -3 -23   30.20    2.52
   1   3  23   33.89    2.98
  -4   1  23   27.57    3.11
  -4   1  23   22.67    3.10
   3  -4  23   29.28    2.24
   4  -2 -23   -0.26    0.24
   4  -2 -23   -0.04    0.31
  -2  -2 -23    0.30    0.28
   2   2  23   -0.67    0.50
  -4   2  23    0.44    0.61
   2  -4  23    0.24    0.28
   2   2  23   -0.01    0.58
  -4   2  23   -0.42    0.56
   4  -3 -23   15.12    1.53
   4  -3 -23   12.10    1.42
  -4   3  23   16.40    1.92
   3   1  23   15.82    1.92
   1  -4  23   16.00    1.28
   4  -4 -23   13.99    1.48
   0   4 -23   12.95    1.33
  -4   4  23   13.05    1.74
   0  -4  23   16.07    1.24
   4   0  23   13.10    1.82
   4  -5 -23   -0.20    0.33
   5  -1  23    0.60    0.48
  -4   5  23    0.05    0.52
   4  -6 -23    7.33    1.11
  -4   6  23   12.97    1.47
  -2  -4  23   11.77    1.25
  -3  -4  23   22.18    2.23
  -4  -4  23   -0.52    0.60
  -5  -4  23    3.55    0.88
  -5  -3  23   11.03    1.42
  -2   7  23    0.97    0.68
  -5  -2  23    0.54    0.52
  -1   6  23    8.45    1.27
   6  -5  23    8.64    0.93
   5   0 -23   15.28    1.54
   0  -5 -23   15.29    1.49
   5   0 -23   12.53    1.53
   5  -5  23   16.77    1.36
   0   5  23   18.11    1.85
   5  -1 -23    0.22    0.29
  -1  -4 -23    0.15    0.32
   5  -1 -23    0.15    0.38
   4  -5  23    0.16    0.34
   1   4  23    0.53    0.58
  -5   1  23    0.35    0.72
   5  -2 -23   13.55    1.46
  -2  -3 -23   12.50    1.39
   5  -2 -23   16.14    1.50
  -5   2  23   11.76    1.89
   3  -5  23   17.65    1.31
  -5   2  23   13.17    1.92
   5  -3 -23   31.87    2.53
   5  -3 -23   22.92    2.59
  -3  -2 -23   25.60    2.41
   3   2  23   26.76    3.07
  -5   3  23   28.31    2.97
   2  -5  23   26.74    2.18
   5  -4 -23    0.13    0.36
  -4  -1 -23   -0.17    0.31
   5  -4 -23    0.14    0.38
  -5   4  23   -0.53    0.53
   1  -5  23   -0.18    0.39
   1  -5  23    0.57    0.36
   4   1  23   -0.24    0.64
   5  -5 -23    6.57    1.00
  -5   5  23    7.82    1.23
   0  -5  23   10.72    1.11
  -5   6  23   13.78    1.78
  -1  -5  23   14.52    1.63
  -2  -5  23   -0.22    0.55
  -5   7  23    0.37    0.65
  -3  -5  23    7.83    1.22
  -4  -5  23    7.78    1.26
  -5  -5  23   -0.13    0.68
  -1   7  23    8.68    1.32
   6  -6  23   -0.06    0.38
   0   6  23    0.51    0.61
   5  -6  23    7.78    0.92
   1   5  23    9.39    1.33
   6  -2 -23   25.41    2.07
  -2  -4 -23   20.58    1.92
   6  -2 -23   18.62    2.06
  -6   2  23   18.45    2.60
   4  -6  23   19.85    1.78
  -3  -3 -23    0.08    0.34
   6  -3 -23    0.16    0.40
   6  -3 -23    0.20    0.36
  -6   3  23   -0.10    0.69
   3  -6  23    0.16    0.39
   6  -4 -23   11.10    1.19
   6  -4 -23    8.24    1.11
  -6   4  23   10.24    1.53
  -6   5  23   11.97    1.79
   1  -6  23   14.91    1.49
   0  -6  23   -0.30    0.48
  -6   6  23   -0.30    0.57
  -6   7  23    4.75    1.07
  -1  -6  23    7.48    1.10
  -2  -6  23    7.72    1.23
  -3  -6  23    0.16    0.75
   6  -7  23    8.78    1.01
   5  -7  23   -0.07    0.43
  -7   3  23   10.99    1.82
  -7   4  23   18.70    2.48
  -7   5  23   -0.80    0.67
   1  -7  23    6.68    1.03
  -7   6  23    3.89    1.09
   0  -7  23   10.96    1.40
  -7   7  23    7.25    1.41
  -1  -7  23    0.72    0.79
  -2  -7  23    1.71    0.90
  -8   4  23    0.77    0.96
  -8   5  23    4.38    1.24
   1  -8  23   -0.19    0.64
   0  -8  23    2.15    0.86
   0   0 -24   95.82    8.57
   0   0  24   98.49    9.34
   0   0  24   99.58    9.94
   1   0 -24    0.34    0.24
   0  -1 -24    0.12    0.21
   1   0 -24    0.66    0.25
   0   1  24    0.05    0.47
  -1   0  24   -0.10    0.50
  -1   0  24   -0.48    0.51
   1  -1  24    0.56    0.49
   0   1  24    0.20    0.53
   0   1 -24    0.55    0.24
   1  -1 -24    0.41    0.25
   1  -1 -24    0.58    0.24
  -1   1  24   -0.07    0.54
   1   0  24    0.49    0.57
   1   0  24   -0.02    0.48
  -1   1  24    0.08    0.53
   0  -1  24   -0.16    0.48
   1   1 -24   36.24    3.99
   1  -2 -24   39.08    3.73
   1   1 -24   39.52    3.55
  -1  -1  24   49.17    4.25
  -1   2  24   40.04    4.06
  -1  -1  24   38.35    3.04
   2  -1  24   40.42    4.17
   2   1 -24   -0.16    0.24
   1  -3 -24    0.08    0.26
   1  -3 -24   -0.39    0.24
   2   1 -24    0.03    0.22
  -1   3  24   -0.13    0.51
  -2  -1  24   -0.40    0.54
   2   0 -24    0.06    0.22
   0  -2 -24   -0.02    0.25
   2   0 -24   -0.29    0.25
   0   2  24   -0.13    0.44
  -2   0  24    0.84    0.63
  -2   0  24   -0.23    0.57
   2  -1 -24   38.95    3.62
   2  -1 -24   38.22    3.80
   1   1  24   47.98    4.36
  -2   1  24   36.62    4.30
  -2   1  24   37.58    4.14
   1   1  24   46.59    4.12
   0   2 -24   -0.11    0.22
   0   2 -24   -0.03    0.21
   2  -2 -24   -0.07    0.27
   2  -2 -24   -0.16    0.21
   2   0  24    0.44    0.57
  -2   2  24   -0.83    0.46
   0  -2  24    0.08    0.24
   2   0  24    0.46    0.54
   2  -3 -24   -0.01    0.25
   1   2 -24    0.05    0.25
   2  -3 -24   -0.15    0.22
   1   2 -24    0.03    0.23
  -2   3  24   -0.21    0.50
   3  -1  24    0.55    0.48
  -1  -2  24   -0.28    0.21
   2  -4 -24    3.09    0.49
   2   2 -24    4.10    0.54
   2   2 -24    2.88    0.49
   2  -4 -24    3.35    0.52
  -2   4  24    2.79    0.79
   3   2 -24    0.09    0.30
   2  -5 -24    0.05    0.34
   3   2 -24   -0.38    0.30
   2  -5 -24   -0.15    0.30
  -2   5  24    0.21    0.58
   3   1 -24   -0.16    0.23
   1  -4 -24    0.23    0.32
   3   1 -24    0.04    0.30
   1  -4 -24    0.08    0.29
  -3  -1  24    0.28    0.62
  -1   4  24    0.37    0.54
   0  -3 -24   12.14    1.11
   3   0 -24    8.40    1.00
   0  -3 -24    9.49    1.00
   3   0 -24    9.44    1.01
   0   3  24    9.30    1.34
  -3   0  24    9.06    1.44
   3  -1 -24    0.12    0.25
   3  -1 -24    0.36    0.30
  -3   1  24    0.18    0.59
   2  -3  24   -0.03    0.25
  -3   1  24   -0.35    0.57
   1   2  24   -0.77    0.42
   3  -2 -24   -0.10    0.25
  -1   3 -24    0.01    0.23
   3  -2 -24   -0.18    0.28
  -3   2  24   -0.37    0.54
   2   1  24    0.10    0.55
   1  -3  24   -0.11    0.24
   2   1  24    0.20    0.57
   3  -3 -24    7.72    0.87
   0   3 -24    8.23    0.79
   3  -3 -24    5.73    0.86
   0   3 -24    7.66    0.86
   3   0  24    7.32    1.19
  -3   3  24    6.36    1.16
   0  -3  24    7.36    0.75
   1   3 -24    0.03    0.27
   3  -4 -24   -0.11    0.26
   3  -4 -24    0.13    0.26
   1   3 -24    0.35    0.27
  -3   4  24    0.14    0.55
  -1  -3  24    0.22    0.29
   4  -1  24   -0.10    0.48
   2   3 -24   -0.25    0.29
   3  -5 -24    0.11    0.32
   3  -5 -24   -0.03    0.29
   2   3 -24   -0.05    0.27
  -3   5  24   -0.07    0.55
   3  -6 -24   10.32    1.02
  -3   6  24    7.89    1.39
  -4  -3  24    0.15    0.57
  -3   7  24   -0.75    0.64
   6  -4  24   -0.17    0.38
  -2   6  24    0.54    0.62
   4   1 -24    4.71    0.71
   1  -5 -24    4.90    0.67
   1  -5 -24    5.14    0.77
   4   1 -24    4.33    0.65
   5  -4  24    5.56    0.67
  -4  -1  24    6.59    1.05
  -1   5  24    5.50    0.98
   0  -4 -24    0.12    0.32
   4   0 -24   -0.03    0.24
   4   0 -24    0.37    0.35
  -4   0  24   -0.09    0.67
   4  -4  24   -0.01    0.32
   0   4  24    0.06    0.52
   4  -1 -24    0.06    0.23
   4  -1 -24   -0.10    0.31
  -1  -3 -24   -0.24    0.26
  -4   1  24    0.01    0.67
  -4   1  24    0.04    0.64
   1   3  24   -0.13    0.49
   3  -4  24   -0.27    0.29
  -2  -2 -24    3.09    0.52
   4  -2 -24    3.04    0.53
   4  -2 -24    3.94    0.58
   2  -4  24    3.42    0.51
   2   2  24    4.29    0.92
  -4   2  24    3.55    0.93
   2   2  24    4.34    0.89
  -4   2  24    3.69    0.90
   4  -3 -24    0.40    0.36
   4  -3 -24    0.13    0.31
   1  -4  24    0.18    0.30
   3   1  24    0.19    0.63
  -4   3  24   -0.02    0.54
   4  -4 -24    0.02    0.33
   4   0  24    0.38    0.58
  -4   4  24   -0.03    0.55
   0  -4  24    0.02    0.31
   1   4 -24    5.25    0.69
   4  -5 -24    4.26    0.73
  -4   5  24    5.76    1.01
   5  -1  24    5.93    0.88
   2   4 -24   -0.43    0.35
  -4   6  24   -0.54    0.55
  -2  -4  24    0.26    0.49
  -4   7  24    0.08    0.70
  -3  -4  24   -0.57    0.57
  -4  -4  24    8.68    1.28
  -5  -4  24    0.32    0.68
  -5  -3  24    0.08    0.60
  -5  -2  24    7.77    1.09
  -2   7  24    7.90    1.28
   6  -5  24    0.07    0.40
  -1   6  24    0.07    0.53
   5   0 -24   -0.09    0.27
   5   0 -24    0.68    0.43
   0  -5 -24    0.45    0.37
   0   5  24    0.13    0.51
   5  -5  24   -0.13    0.37
   5  -1 -24    5.54    0.69
  -1  -4 -24    4.08    0.66
   5  -1 -24    5.33    0.75
  -5   1  24    3.18    1.05
   4  -5  24    5.03    0.67
   1   4  24    5.82    0.99
  -2  -3 -24    0.42    0.35
   5  -2 -24    0.05    0.37
   5  -2 -24   -0.07    0.29
  -5   2  24   -0.29    0.67
  -5   2  24   -0.02    0.69
   3  -5  24   -0.14    0.34
  -3  -2 -24    0.45    0.35
   5  -3 -24    0.21    0.32
   5  -3 -24    0.19    0.36
  -5   3  24   -0.62    0.59
   3   2  24   -0.07    0.62
   2  -5  24    0.01    0.35
   5  -4 -24    4.08    0.71
   5  -4 -24    5.04    0.73
  -4  -1 -24    5.77    0.69
   4   1  24    5.13    1.05
  -5   4  24    3.93    0.98
   1  -5  24    4.04    0.66
   1  -5  24    5.48    0.80
   5  -5 -24   -0.24    0.36
   0  -5  24    0.79    0.50
  -5   5  24    0.05    0.60
  -5   6  24   -0.39    0.57
  -1  -5  24   -0.19    0.53
  -5   7  24    7.33    1.35
  -2  -5  24   10.57    1.32
  -3  -5  24   -0.10    0.68
  -4  -5  24   -0.72    0.70
  -1   7  24    0.21    0.61
   6  -6  24    3.52    0.64
   0   6  24    3.57    0.88
   1   5  24   -0.34    0.55
   5  -6  24   -0.13    0.38
   4  -6  24    0.20    0.41
  -6   2  24    0.44    0.83
   6  -3 -24   10.07    1.14
  -3  -3 -24    9.55    1.05
   6  -3 -24   10.63    1.14
  -6   3  24    7.01    1.49
   3  -6  24    9.96    1.08
   6  -4 -24   -0.32    0.39
  -6   4  24    0.58    0.74
  -6   5  24    0.40    0.67
   1  -6  24   -0.39    0.45
   0  -6  24    3.53    0.75
  -6   6  24    2.57    0.88
  -1  -6  24   -0.01    0.64
  -6   7  24    0.11    0.69
  -2  -6  24    0.34    0.71
  -3  -6  24    1.48    0.86
   6  -7  24    0.16    0.44
   5  -7  24    7.64    0.94
  -7   3  24    0.38    0.89
  -7   4  24    0.69    0.82
  -7   5  24    7.45    1.43
  -7   6  24    0.04    0.73
   1  -7  24    0.67    0.64
   0  -7  24   -0.56    0.64
  -1  -7  24    0.78    0.76
  -2  -7  24   -0.08    0.80
  -8   4  24    5.62    1.45
   1  -8  24    1.05    0.77
   0  -8  24   -0.34    0.70
  -1  -8  24   -0.47    0.73
   0   0 -25    0.95    0.27
   0   0  25    0.47    0.57
   0   0  25    0.68    0.53
   0  -1 -25   10.09    1.03
   1   0 -25    8.72    0.98
   0   1  25    9.61    1.37
  -1   0  25   10.79    1.44
   0   1  25   10.03    1.43
   1  -1  25   11.32    1.38
  -1   0  25    9.70    1.41
   0   1 -25    4.54    0.55
   1  -1 -25    4.75    0.57
   1  -1 -25    2.90    0.54
   1   0  25    6.33    0.99
  -1   1  25    4.57    0.94
   0  -1  25    5.12    0.87
   1   0  25    5.61    0.93
  -1   1  25    4.12    0.92
   1   1 -25    0.03    0.26
   1  -2 -25    0.57    0.26
   2  -1  25   -0.18    0.44
  -1  -1  25    0.31    0.56
  -1  -1  25   -0.01    0.22
  -1   2  25    0.54    0.55
   1  -3 -25   28.51    2.38
   2   1 -25   23.89    2.40
   2   1 -25   24.86    2.68
  -1   3  25   31.66    2.90
   2   0 -25   11.84    1.09
   0  -2 -25    8.01    1.10
  -2   0  25   12.72    1.62
  -2   0  25   12.53    1.57
   0   2  25   13.37    1.53
   2  -1 -25    0.08    0.26
   2  -1 -25   -0.17    0.23
   1   1  25   -0.34    0.45
   1   1  25   -0.88    0.51
  -2   1  25    0.60    0.62
  -2   1  25   -0.20    0.57
   0   2 -25   17.24    2.11
   2  -2 -25   25.25    2.04
   0   2 -25   18.43    1.88
   2   0  25   24.52    2.43
   0  -2  25   19.18    1.65
   2   0  25   26.28    2.41
  -2   2  25   20.79    2.40
   1   2 -25   19.06    1.73
   2  -3 -25   14.25    1.67
   1   2 -25   19.95    1.92
  -1  -2  25   20.04    1.51
   3  -1  25   18.38    2.09
  -2   3  25   17.99    2.24
   2  -4 -25    0.39    0.28
   2  -4 -25   -0.09    0.28
   2   2 -25    0.11    0.28
   2   2 -25    0.09    0.29
  -2   4  25   -0.01    0.55
   3   2 -25   11.31    1.29
   3   2 -25   10.93    1.20
   2  -5 -25   12.30    1.16
  -2   5  25   11.83    1.62
   1  -4 -25   11.72    1.62
   3   1 -25   17.71    1.58
   3   1 -25   18.27    1.71
   1  -4 -25   13.81    1.52
  -1   4  25   15.19    1.96
  -3  -1  25   22.11    2.05
   0  -3 -25   -0.31    0.28
   3   0 -25    0.23    0.23
   3   0 -25    0.13    0.32
   0  -3 -25   -0.12    0.30
   0   3  25    0.23    0.51
  -3   0  25    0.08    0.63
   3  -1 -25   27.88    2.81
   3  -1 -25   32.00    2.71
  -3   1  25   26.26    3.19
   2  -3  25   30.41    2.34
   1   2  25   37.10    3.16
  -3   1  25   22.56    3.23
   3  -2 -25   14.04    1.68
   3  -2 -25   13.83    1.61
  -1   3 -25   19.01    1.79
   2   1  25   21.02    2.13
  -3   2  25   18.24    2.20
   2   1  25   19.59    2.05
  -3   2  25   17.13    2.12
   1  -3  25   17.84    1.44
   3  -3 -25   -0.05    0.31
   3  -3 -25   -0.25    0.27
   0   3 -25    0.10    0.26
   0   3 -25   -0.02    0.25
  -3   3  25    0.10    0.54
   3   0  25    0.48    0.56
   0  -3  25   -0.20    0.26
   1   3 -25   25.48    2.91
   3  -4 -25   29.41    2.55
   1   3 -25   26.31    2.60
   3  -4 -25   34.48    2.80
  -3   4  25   25.60    3.04
   4  -1  25   29.58    3.07
  -1  -3  25   29.26    2.29
   2   3 -25    8.32    0.94
   3  -5 -25    7.60    0.92
   2   3 -25    9.32    1.01
  -3   5  25    8.63    1.34
   3  -6 -25    0.02    0.33
  -3   6  25    0.08    0.64
  -3   7  25    2.54    0.87
  -4  -3  25    2.81    0.77
  -2   6  25    5.24    1.03
   6  -4  25    4.61    0.68
   4   1 -25   -0.16    0.37
   1  -5 -25   -0.11    0.32
  -1   5  25   -0.01    0.55
   5  -4  25   -0.31    0.33
   4   0 -25   17.59    1.77
   0  -4 -25   17.55    1.72
   4   0 -25   17.18    1.78
   4  -4  25   19.77    1.56
  -4   0  25   16.94    2.25
   0   4  25   21.44    2.12
   4  -1 -25   15.45    1.61
  -1  -3 -25   13.16    1.56
   4  -1 -25   18.78    1.67
  -4   1  25   19.03    2.29
  -4   1  25   18.48    2.17
   3  -4  25   17.60    1.44
   1   3  25   16.40    1.95
   4  -2 -25   -0.18    0.31
  -2  -2 -25    0.06    0.31
   4  -2 -25    0.32    0.30
  -4   2  25   -0.09    0.63
   2  -4  25    0.23    0.32
   2   2  25   -0.47    0.54
  -4   2  25    0.26    0.66
   2   2  25    0.18    0.62
   4  -3 -25   27.50    2.91
   4  -3 -25   34.21    2.79
   1  -4  25   27.25    2.40
   3   1  25   34.84    3.40
  -4   3  25   26.97    3.22
   4  -4 -25    7.53    1.09
  -4   4  25    9.75    1.43
   0  -4  25   10.79    0.95
   4   0  25   11.24    1.44
   4  -5 -25    0.25    0.36
   1   4 -25    0.29    0.33
  -4   5  25   -0.36    0.53
   5  -1  25    0.14    0.47
  -2  -4  25    6.20    0.91
  -4   6  25    3.96    1.00
  -4   7  25    1.74    0.85
  -3  -4  25    0.67    0.67
  -4  -4  25    0.70    0.71
  -5  -4  25    2.02    0.82
  -5  -3  25   -0.67    0.60
  -2   7  25    0.84    0.67
  -5  -2  25    0.02    0.55
   6  -5  25    8.24    0.90
  -1   6  25    6.06    1.13
   5   0 -25   10.57    1.11
   5  -5  25    9.70    1.06
   0   5  25   10.12    1.42
  -1  -4 -25   -0.03    0.33
   5  -1 -25    0.20    0.42
   5  -1 -25    0.14    0.28
   4  -5  25   -0.29    0.37
   1   4  25   -0.23    0.53
   5  -2 -25   15.06    1.34
   5  -2 -25   11.69    1.34
  -2  -3 -25   12.83    1.27
  -5   2  25   10.55    1.81
   3  -5  25   12.68    1.20
  -5   2  25   11.81    1.82
  -3  -2 -25    6.24    0.84
   5  -3 -25    8.34    0.97
   5  -3 -25    5.45    0.86
   3   2  25    9.53    1.34
   2  -5  25    8.33    0.88
  -5   3  25    8.41    1.37
   5  -4 -25    0.02    0.41
  -4  -1 -25   -0.39    0.31
   5  -4 -25    0.46    0.39
  -5   4  25   -0.45    0.61
   1  -5  25    0.11    0.45
   1  -5  25   -0.66    0.35
   0  -5  25   17.45    1.74
  -5   5  25   15.78    2.09
  -1  -5  25    6.14    0.94
  -5   6  25    3.14    0.92
  -2  -5  25    0.51    0.68
  -5   7  25    1.35    0.77
  -3  -5  25    0.83    0.76
  -4  -5  25    1.31    0.81
  -1   7  25    2.22    0.79
   0   6  25   -0.02    0.60
   6  -6  25   -0.44    0.40
   5  -6  25    6.30    0.82
   1   5  25    5.98    1.09
   4  -6  25    4.29    0.70
   3  -6  25    0.54    0.48
  -6   3  25    0.16    0.77
  -6   4  25    7.09    1.34
  -6   5  25    3.65    0.99
   1  -6  25    5.12    0.86
  -6   6  25   -0.17    0.64
   0  -6  25   -0.09    0.52
  -1  -6  25    2.21    0.80
  -6   7  25    1.36    0.83
  -2  -6  25    1.17    0.82
  -3  -6  25    0.38    0.79
   6  -7  25    1.60    0.57
   5  -7  25    0.11    0.50
  -7   3  25    1.33    1.02
  -7   4  25    2.65    1.01
  -7   5  25   -0.61    0.72
  -7   6  25    2.83    0.97
   1  -7  25    1.67    0.72
   0  -7  25    1.92    0.80
  -1  -7  25   -1.16    0.71
  -2  -7  25    3.15    1.01
   1  -8  25    0.05    0.68
   0  -8  25    2.86    0.92
   0   0 -26    0.38    0.25
   0   0  26   -0.09    0.47
   0   0  26    0.93    0.62
   0  -1 -26    5.08    0.76
   1   0 -26    6.34    0.76
   0   1  26    8.98    1.19
   1  -1  26    8.26    1.10
  -1   0  26    7.26    1.15
   0   1  26    9.20    1.23
  -1   0  26    9.61    1.24
   0   1 -26   15.06    1.55
   1  -1 -26   16.18    1.56
   1  -1 -26   18.18    1.65
   1   0  26   19.79    2.00
   0  -1  26   18.43    1.99
  -1   1  26   14.52    2.01
   1   0  26   16.33    2.01
  -1   1  26   14.79    2.02
   1   1 -26    0.41    0.27
   1  -2 -26    0.09    0.24
  -1  -1  26    0.89    0.56
  -1   2  26   -0.18    0.52
   2  -1  26    0.35    0.50
  -1  -1  26    0.02    0.22
   2   1 -26   24.47    2.07
   2   1 -26   21.76    2.27
   1  -3 -26   18.64    2.00
  -1   3  26   22.77    2.48
  -2  -1  26   23.63    2.53
   0  -2 -26   24.97    2.19
   2   0 -26   19.79    2.07
   0   2  26   23.76    2.48
  -2   0  26   21.16    2.59
   2  -1 -26   -0.17    0.24
   2  -1 -26   -0.06    0.27
   1   1  26   -0.32    0.49
   1   1  26   -0.79    0.51
  -2   1  26    0.31    0.57
  -2   1  26   -0.32    0.57
   2  -2 -26    6.76    1.01
   0   2 -26   11.48    0.99
   2  -2 -26    7.32    0.97
   0   2 -26   10.60    1.09
  -2   2  26   12.58    1.59
   0  -2  26   11.67    0.90
   2   0  26   11.65    1.46
   2  -3 -26   44.18    3.45
   1   2 -26   31.45    3.23
   2  -3 -26   35.48    3.18
   1   2 -26   30.48    3.64
  -1  -2  26   37.37    2.81
  -2   3  26   34.87    3.77
   3  -1  26   42.03    3.83
   2  -4 -26   -0.32    0.28
   2   2 -26    0.26    0.32
   2  -4 -26   -0.24    0.25
   2   2 -26    0.08    0.27
  -2   4  26   -0.05    0.55
   2  -5 -26    8.82    1.01
   2  -5 -26    6.76    1.05
   3   2 -26   12.04    1.07
  -2   5  26   10.41    1.46
   3   1 -26   21.86    2.42
   1  -4 -26   24.65    2.16
   3   1 -26   22.03    2.20
  -1   4  26   29.76    2.68
   0  -3 -26    0.34    0.34
   0  -3 -26   -0.20    0.27
   3   0 -26   -0.23    0.30
  -3   0  26    0.27    0.68
   0   3  26    0.59    0.55
   3  -1 -26   21.05    2.11
   3  -1 -26   18.13    2.01
  -3   1  26   27.33    2.65
   1   2  26   26.74    2.46
   2  -3  26   22.95    1.78
  -3   1  26   20.52    2.56
   3  -2 -26   36.16    3.16
  -1   3 -26   32.79    3.35
   1  -3  26   37.22    2.61
  -3   2  26   26.14    3.47
  -3   2  26   26.70    3.58
   0   3 -26   -0.28    0.25
   3  -3 -26    0.27    0.31
   3  -3 -26   -0.32    0.30
   3   0  26   -0.08    0.56
   0  -3  26    0.26    0.30
  -3   3  26    0.08    0.59
   1   3 -26   18.56    1.81
   1   3 -26   17.37    1.63
  -3   4  26   13.64    2.06
   4  -1  26   16.01    1.94
  -1  -3  26   16.25    1.44
   3  -5 -26   16.32    1.60
   3  -5 -26   21.02    1.76
   2   3 -26   15.48    1.63
   2   3 -26   17.01    1.81
  -3   5  26   12.34    2.02
  -3   6  26   -0.10    0.64
  -3   7  26    3.14    0.94
  -4  -3  26    2.71    0.78
   6  -4  26    7.87    0.88
  -2   6  26    7.21    1.26
   1  -5 -26   -0.35    0.34
   4   1 -26    0.35    0.41
  -1   5  26   -0.60    0.51
   5  -4  26    0.26    0.39
   4   0 -26   15.60    1.53
   0  -4 -26   13.59    1.46
   0   4  26   16.07    1.83
   4  -4  26   16.60    1.36
  -4   0  26   13.66    1.98
   4  -1 -26   27.86    2.36
  -1  -3 -26   25.02    2.28
   4  -1 -26   24.15    2.42
  -4   1  26   18.37    2.86
   3  -4  26   26.46    2.06
   1   3  26   28.69    2.75
  -4   1  26   21.44    2.93
   4  -2 -26    0.03    0.30
   4  -2 -26    0.35    0.35
  -2  -2 -26   -0.15    0.30
   2   2  26   -0.44    0.55
   2   2  26    1.06    0.66
  -4   2  26   -0.28    0.63
   2  -4  26    0.05    0.33
  -4   2  26    0.10    0.66
   4  -3 -26   11.88    1.35
   4  -3 -26   11.37    1.42
   1  -4  26   17.76    1.28
   3   1  26   17.61    1.87
  -4   3  26   15.00    1.93
   4  -4 -26   28.91    2.74
  -4   4  26   23.39    2.98
   0  -4  26   27.37    2.27
   4   0  26   30.02    3.12
   4  -5 -26   -0.22    0.32
   1   4 -26   -0.35    0.32
  -4   5  26    0.22    0.60
   5  -1  26    0.77    0.51
  -2  -4  26    3.79    0.80
  -4   6  26    2.74    0.91
  -3  -4  26    2.92    0.80
  -4   7  26    1.88    0.89
  -4  -4  26    0.12    0.70
  -5  -4  26    0.71    0.76
  -5  -3  26    1.46    0.75
  -2   7  26   -0.30    0.62
  -1   6  26    5.45    1.01
   6  -5  26    5.74    0.78
   0   5  26   15.93    1.88
   5  -5  26   15.70    1.45
   5  -1 -26    0.35    0.32
   5  -1 -26    0.49    0.43
  -1  -4 -26   -0.18    0.33
   1   4  26   -0.47    0.56
   4  -5  26   -0.28    0.39
   5  -2 -26    8.61    1.14
  -2  -3 -26    8.47    1.10
   5  -2 -26   11.19    1.16
   3  -5  26   12.41    1.12
  -5   2  26   10.27    1.68
  -5   2  26   13.74    1.74
   5  -3 -26   16.72    1.89
   5  -3 -26   21.78    1.83
  -3  -2 -26   18.73    1.76
  -5   3  26   16.32    2.32
   2  -5  26   15.38    1.61
   3   2  26   22.51    2.33
  -4  -1 -26   -0.01    0.34
   5  -4 -26    0.29    0.37
   5  -4 -26    0.32    0.44
  -5   4  26   -0.20    0.67
   1  -5  26    0.41    0.40
   1  -5  26   -0.10    0.45
   0  -5  26   10.41    1.25
  -5   5  26    8.94    1.47
  -1  -5  26   10.21    1.24
  -5   6  26    6.91    1.36
  -2  -5  26   -0.23    0.63
  -5   7  26   -1.22    0.65
  -3  -5  26    0.90    0.76
  -4  -5  26    1.14    0.85
  -1   7  26    5.18    1.03
   0   6  26   -0.36    0.58
   6  -6  26   -0.35    0.47
   1   5  26    6.20    1.06
   5  -6  26    4.34    0.77
   4  -6  26    5.97    0.84
   3  -6  26   -1.03    0.42
  -6   3  26   -0.66    0.73
  -6   4  26    3.31    1.04
   1  -6  26    8.80    1.12
  -6   5  26    5.05    1.25
   0  -6  26   -0.34    0.57
  -6   6  26   -0.63    0.69
  -6   7  26    2.93    1.02
  -1  -6  26    3.79    0.90
  -2  -6  26    2.15    0.90
  -3  -6  26    1.02    0.84
   6  -7  26    5.52    0.82
   5  -7  26   -0.44    0.47
  -7   3  26    1.24    1.03
  -7   4  26    2.45    1.10
  -7   5  26   -1.22    0.74
   1  -7  26    3.22    0.84
  -7   6  26    0.56    0.87
   0  -7  26    4.41    1.01
  -1  -7  26    0.60    0.82
  -2  -7  26    1.58    0.94
   1  -8  26   -0.42    0.67
   0  -8  26    0.54    0.78
   0   0 -27   48.85    4.65
   0   0  27   54.82    5.53
   0   0  27   57.94    5.24
   0  -1 -27    0.25    0.24
   1   0 -27    0.36    0.28
   0   1  27   -0.14    0.56
  -1   0  27    0.04    0.54
   1  -1  27    0.03    0.52
   0   1  27    0.17    0.51
  -1   0  27   -0.01    0.57
   1  -1 -27   -0.08    0.23
   0   1 -27   -0.11    0.24
   1  -1 -27    0.00    0.26
   1   0  27   -0.36    0.48
  -1   1  27    0.47    0.57
  -1   1  27    0.15    0.58
   0  -1  27    0.10    0.54
   1   0  27    0.58    0.57
   1   1 -27   14.62    1.52
   1  -2 -27   15.02    1.58
   2  -1  27   18.09    1.91
  -1   2  27   19.02    2.02
  -1  -1  27   16.64    1.94
  -1  -1  27   15.82    1.33
   1  -3 -27   -0.14    0.27
   1  -3 -27   -0.09    0.28
   2   1 -27   -0.35    0.29
  -1   3  27   -1.11    0.45
  -2  -1  27   -0.20    0.58
   0  -2 -27    0.17    0.28
   2   0 -27   -0.38    0.28
   0   2  27   -0.16    0.51
  -2   0  27   -0.34    0.57
   2  -1 -27   15.68    1.52
   2  -1 -27   14.81    1.60
   1   1  27   18.47    1.96
   1   1  27   19.69    2.04
  -2   1  27   15.84    2.07
   1  -2  27   15.62    1.34
  -2   1  27   14.02    2.02
   2  -2 -27    0.23    0.27
   2  -2 -27    0.38    0.32
   0   2 -27    0.21    0.27
   0  -2  27   -0.52    0.25
   2   0  27    0.78    0.58
  -2   2  27   -0.21    0.59
   2  -3 -27   -0.05    0.28
   1   2 -27    0.07    0.26
   1   2 -27    0.00    0.28
   2  -3 -27    0.17    0.28
  -2   3  27   -0.48    0.58
  -1  -2  27   -0.21    0.28
   3  -1  27    1.00    0.53
   2   2 -27    0.80    0.33
   2  -4 -27    0.93    0.36
   2  -4 -27    1.14    0.37
   2   2 -27    0.92    0.36
  -2   4  27   -0.14    0.62
   3   2 -27    0.22    0.37
   2  -5 -27    0.48    0.37
   2  -5 -27   -0.26    0.32
  -2   5  27   -0.24    0.57
   3   1 -27    0.20    0.37
   3   1 -27    0.26    0.28
   1  -4 -27   -0.17    0.32
   1  -4 -27    0.37    0.35
  -1   4  27    0.51    0.58
  -3  -1  27    0.97    0.70
   0  -3 -27    1.65    0.44
   0  -3 -27    1.80    0.40
   3   0 -27    1.50    0.43
   3  -3  27    2.06    0.44
  -3   0  27    1.25    0.75
   0   3  27    1.12    0.64
   3  -1 -27    0.21    0.28
   3  -1 -27    0.07    0.30
  -3   1  27    0.78    0.73
   1   2  27    0.81    0.57
  -3   1  27   -0.12    0.68
   2  -3  27    0.28    0.32
  -1   3 -27    0.02    0.27
   3  -2 -27    0.01    0.29
   3  -2 -27    0.01    0.30
   2   1  27    0.26    0.60
  -3   2  27    0.07    0.62
   2   1  27   -1.11    0.48
   1  -3  27    0.84    0.34
  -3   2  27    0.08    0.64
   3  -3 -27    1.66    0.41
   3  -3 -27    1.74    0.45
   0   3 -27    1.89    0.39
   0  -3  27    1.63    0.41
   3   0  27    2.43    0.74
  -3   3  27    1.27    0.72
   3  -4 -27    0.08    0.31
   1   3 -27    0.14    0.30
   1   3 -27    0.59    0.31
   4  -1  27   -0.05    0.46
  -1  -3  27    0.29    0.35
  -3   4  27   -0.59    0.54
   3  -5 -27   -0.32    0.33
   2   3 -27    0.49    0.37
   3  -5 -27    0.19    0.32
  -3   5  27   -0.26    0.59
  -3   6  27    3.33    0.95
  -3   7  27    0.32    0.73
  -4  -3  27    0.73    0.67
   6  -4  27    0.55    0.45
  -2   6  27   -0.15    0.64
   1  -5 -27    1.30    0.42
   5  -4  27    2.58    0.54
  -1   5  27    1.76    0.72
   4   0 -27    0.38    0.39
   0  -4 -27   -0.08    0.30
   4  -4  27   -0.02    0.37
   0   4  27    0.20    0.52
   4  -1 -27    0.43    0.37
  -1  -3 -27   -0.25    0.29
   4  -1 -27    0.13    0.30
  -4   1  27    0.43    0.74
  -4   1  27    0.76    0.78
   1   3  27    0.64    0.58
   3  -4  27    0.06    0.35
   4  -2 -27    1.10    0.39
   4  -2 -27    0.76    0.36
  -2  -2 -27    0.30    0.34
   2  -4  27    0.96    0.40
   2   2  27    1.73    0.71
  -4   2  27   -0.01    0.68
   2   2  27    0.57    0.62
  -4   2  27    1.16    0.78
   4  -3 -27   -0.53    0.27
   4  -3 -27    0.02    0.36
   1  -4  27    0.41    0.37
  -4   3  27   -0.56    0.59
   3   1  27    0.55    0.62
   4  -4 -27    0.04    0.35
   0  -4  27   -0.14    0.34
  -4   4  27   -0.67    0.56
   1   4 -27    0.98    0.40
   4  -5 -27    0.79    0.39
  -4   5  27    1.37    0.74
  -2  -4  27    0.32    0.58
  -4   6  27   -0.17    0.66
  -4   7  27    0.00    0.75
  -3  -4  27   -0.01    0.68
  -4  -4  27    3.49    0.96
  -5  -4  27   -0.78    0.70
  -5  -3  27    0.62    0.72
  -2   7  27    3.11    0.88
   6  -5  27   -0.12    0.47
  -1   6  27   -0.21    0.53
   0   5  27   -0.04    0.55
   5  -5  27   -0.15    0.44
   5  -1 -27    1.19    0.48
  -1  -4 -27    1.38    0.45
   5  -1 -27    1.15    0.40
   4  -5  27    1.49    0.51
   1   4  27    1.84    0.70
   5  -2 -27    0.72    0.36
   5  -2 -27    0.11    0.39
  -2  -3 -27   -0.34    0.35
   3  -5  27   -0.44    0.38
  -5   2  27   -0.07    0.78
  -3  -2 -27    0.25    0.37
   5  -3 -27   -0.21    0.35
   5  -3 -27    0.05    0.38
  -5   3  27   -0.44    0.70
   2  -5  27   -0.38    0.39
   5  -4 -27    0.62    0.47
   5  -4 -27    0.62    0.43
  -4  -1 -27    1.16    0.40
  -5   4  27    0.29    0.71
   1  -5  27    1.59    0.57
   1  -5  27    1.65    0.51
  -5   5  27   -0.36    0.61
   0  -5  27    0.24    0.56
  -5   6  27    0.03    0.66
  -1  -5  27   -0.28    0.61
  -5   7  27    2.89    1.03
  -2  -5  27    3.79    0.95
  -3  -5  27    1.01    0.82
  -4  -5  27    0.12    0.79
  -6  -2  27   -0.30    0.64
   6  -6  27    1.33    0.57
   0   6  27    2.22    0.80
   1   5  27    0.28    0.59
   5  -6  27    0.56    0.50
   4  -6  27   -0.35    0.46
   3  -6  27    3.40    0.71
  -6   3  27    4.13    1.15
  -6   4  27   -0.26    0.76
   2  -6  27   -0.31    0.47
   1  -6  27    0.15    0.53
  -6   5  27   -0.80    0.72
  -6   6  27    0.94    0.81
   0  -6  27    0.77    0.65
  -1  -6  27    0.21    0.72
  -2  -6  27    0.46    0.81
  -3  -6  27    0.64    0.86
   6  -7  27    0.43    0.55
   5  -7  27    1.43    0.63
  -7   4  27    0.58    0.94
  -7   5  27    2.58    1.07
   1  -7  27   -0.11    0.65
   0  -7  27    0.18    0.73
  -1  -7  27    0.53    0.80
  -2  -7  27    0.65    0.88
   1  -8  27    0.36    0.74
   0  -8  27    0.66    0.78
   0   0 -28    0.42    0.27
   0   0  28   -0.41    0.52
   0   0  28    0.42    0.59
   1   0 -28  100.52    9.26
   1  -1  28  109.40   10.66
  -1   0  28  100.36   10.71
   0   1  28  114.83   10.12
   0   1  28  104.59   10.73
   1  -1 -28   38.50    3.25
   0   1 -28   40.54    3.24
   1  -1 -28   29.68    3.39
   1  -2 -28    0.19    0.23
   1   1 -28    0.08    0.27
   2  -1  28    0.61    0.53
  -1  -1  28    0.03    0.27
  -1  -1  28   -0.55    0.54
  -1   2  28   -1.07    0.51
   1  -3 -28   37.34    3.07
   2   1 -28   27.01    2.89
   1  -3 -28   27.80    2.83
  -2  -1  28   37.60    3.49
  -1   3  28   32.05    3.37
   0  -2 -28   14.66    1.80
   2   0 -28   19.40    1.76
   0   2  28   25.54    2.24
  -2   0  28   20.48    2.26
   2  -1 -28   -0.19    0.30
   2  -1 -28    0.14    0.28
   1  -2  28    0.09    0.27
  -2   1  28   -0.17    0.63
   1   1  28   -0.77    0.49
  -2   1  28   -0.21    0.61
   1   1  28    0.09    0.61
   2  -2 -28   40.13    3.86
   2  -2 -28   43.62    3.67
   2   0  28   47.26    4.39
  -2   2  28   35.20    4.20
   0  -2  28   36.93    3.16
   1   2 -28   18.29    1.72
   2  -3 -28   15.47    1.67
   1   2 -28   17.46    1.90
   3  -1  28   20.53    2.09
  -1  -2  28   19.16    1.52
  -2   3  28   18.94    2.30
   2  -4 -28    0.08    0.32
   2  -4 -28   -0.01    0.31
   2   2 -28    0.03    0.28
   2   2 -28    0.37    0.33
  -2   4  28   -0.03    0.63
   2  -5 -28   13.80    1.60
   2  -5 -28   21.18    1.78
   3   2 -28   15.79    1.66
  -2   5  28   17.34    2.15
   1  -4 -28    5.61    0.89
   3   1 -28    8.51    0.92
   1  -4 -28    6.21    0.85
  -3  -1  28   10.57    1.26
  -1   4  28    8.44    1.28
   0  -3 -28    0.06    0.33
   3   0 -28    0.15    0.37
   0  -3 -28    0.21    0.30
  -3   0  28    0.74    0.69
   3  -3  28   -0.15    0.33
   0   3  28   -0.22    0.50
   3  -1 -28   29.15    3.04
   3  -1 -28   31.77    2.90
  -3   1  28   27.07    3.52
  -3   1  28   33.65    3.51
   2  -3  28   30.75    2.53
   1   2  28   36.89    3.38
   1   2  28   36.98    3.56
   3  -2 -28   12.60    1.48
   3  -2 -28   12.23    1.40
  -3   2  28   20.67    2.19
   1  -3  28   16.57    1.29
  -3   2  28   19.23    2.02
   3  -3 -28   -0.30    0.33
   3  -3 -28    0.13    0.32
   0   3 -28    0.19    0.29
  -3   3  28   -0.28    0.61
   0  -3  28    0.50    0.36
   3   0  28    0.44    0.60
   3  -4 -28   14.57    1.40
   1   3 -28   11.99    1.31
   1   3 -28   12.00    1.45
  -3   4  28   10.29    1.76
  -1  -3  28   12.70    1.21
   4  -1  28   18.05    1.65
   2   3 -28   12.96    1.32
  -3   5  28   11.71    1.77
  -3   6  28    0.75    0.70
  -4  -3  28   14.63    1.77
  -3   7  28   13.93    1.94
   6  -4  28   10.76    1.08
  -2   6  28    8.33    1.43
   5  -4  28    0.38    0.42
  -1   5  28    0.14    0.60
   4   0 -28   13.15    1.39
   0  -4 -28   12.32    1.35
   0   4  28   15.95    1.74
   4  -4  28   13.80    1.26
   4  -1 -28    7.39    0.97
   4  -1 -28    8.13    0.95
  -1  -3 -28    7.83    0.93
   1   3  28    8.95    1.32
  -4   1  28    8.65    1.44
   3  -4  28    9.37    0.94
   4  -2 -28    0.14    0.33
   4  -2 -28    0.21    0.35
  -2  -2 -28    0.61    0.33
   2  -4  28    0.72    0.42
  -4   2  28   -0.86    0.63
   2   2  28   -0.10    0.61
  -4   2  28    0.33    0.72
   2   2  28    1.19    0.66
   4  -3 -28   16.19    1.60
   4  -3 -28   15.39    1.50
   1  -4  28   14.04    1.36
   3   1  28   18.01    1.97
  -4   3  28   10.47    1.92
   4  -4 -28    5.08    0.84
  -4   4  28    8.13    1.34
   0  -4  28    9.22    0.90
  -4   5  28    0.88    0.70
  -2  -4  28   12.06    1.38
  -4   6  28    7.87    1.50
  -4   7  28    7.76    1.52
  -3  -4  28   11.15    1.42
  -4  -4  28   -0.16    0.74
  -5  -4  28    6.85    1.21
  -5  -3  28    4.99    1.03
  -2   7  28   -0.35    0.61
  -1   6  28   10.71    1.58
   6  -5  28   12.42    1.23
   5  -5  28    5.87    0.82
   0   5  28    6.79    1.13
   5  -1 -28   -0.13    0.31
   4  -5  28   -0.16    0.40
   1   4  28    0.67    0.65
   5  -2 -28   19.48    1.69
  -2  -3 -28   16.38    1.63
   5  -2 -28   15.73    1.73
   3  -5  28   16.19    1.52
  -5   2  28   14.05    2.24
  -3  -2 -28    9.90    1.04
   5  -3 -28    7.09    1.04
   5  -3 -28    8.99    1.13
  -5   3  28   11.99    1.71
   2  -5  28   11.99    1.12
  -4  -1 -28    0.53    0.37
   1  -5  28    0.20    0.52
   1  -5  28   -0.25    0.41
  -5   4  28   -0.01    0.73
   0  -5  28   12.33    1.33
  -5   5  28    6.70    1.42
  -5   6  28    4.64    1.16
  -1  -5  28    5.85    1.02
  -5   7  28    0.36    0.81
  -2  -5  28   -1.08    0.63
  -3  -5  28    8.68    1.39
  -4  -5  28    3.76    1.05
  -6  -2  28    2.90    0.88
   6  -6  28   -0.48    0.50
   0   6  28    0.48    0.68
   1   5  28   10.83    1.51
   5  -6  28    9.83    1.18
   4  -6  28    7.24    0.95
  -6   3  28    1.30    0.91
   3  -6  28   -0.41    0.52
   2  -6  28   12.95    1.32
  -6   4  28   10.09    1.79
  -6   5  28    4.30    1.19
   1  -6  28    6.31    1.00
  -6   6  28    0.04    0.76
   0  -6  28   -0.51    0.63
  -1  -6  28    8.74    1.37
  -2  -6  28    2.79    0.96
  -3  -6  28   -0.93    0.81
   6  -7  28    4.33    0.81
   5  -7  28   -0.31    0.55
   4  -7  28   11.35    1.32
  -7   4  28    6.77    1.51
  -7   5  28   -0.09    0.88
   1  -7  28    8.92    1.35
   0  -7  28    3.67    0.97
  -1  -7  28   -0.73    0.76
   1  -8  28   -0.68    0.72
   0  -8  28    2.64    0.96
   0   0 -29    0.40    0.28
   0   0  29    0.09    0.57
   1   0 -29    3.64    0.55
   0   1  29    4.71    0.98
   1  -1  29    4.45    0.84
   0   1  29    4.08    0.91
  -1   0  29    5.07    0.97
   1  -1 -29    8.11    0.83
   0   1 -29    7.38    0.82
   0  -1  29    8.03    1.18
  -1   1  29    8.43    1.30
   1   0  29    7.82    1.23
  -1   1  29    6.22    1.23
   1   1 -29    0.33    0.30
   1  -2 -29    0.11    0.27
   2  -1  29   -0.18    0.48
  -1   2  29   -0.13    0.57
  -1  -1  29   -0.27    0.55
   1  -3 -29   -0.06    0.26
   1  -3 -29    0.11    0.31
   2   1 -29    0.11    0.32
  -1   3  29   -0.20    0.55
  -2  -1  29   -0.36    0.57
   0  -2 -29    2.29    0.44
   2   0 -29    1.39    0.39
  -2   0  29    1.53    0.74
   0   2  29    0.43    0.60
   2  -1 -29    0.18    0.30
   1  -2  29   -0.12    0.28
  -2   1  29   -0.75    0.57
   1   1  29    0.65    0.64
  -2   1  29   -0.24    0.64
   1   1  29    0.21    0.57
   2  -2 -29    0.38    0.32
   2  -2 -29    0.22    0.29
  -2   2  29    0.12    0.66
   2   0  29    2.10    0.69
  -2   2  29    0.91    0.75
   0  -2  29    0.48    0.31
   2  -3 -29    0.07    0.28
   2  -3 -29    0.60    0.33
   1   2 -29    0.48    0.33
   1   2 -29    0.04    0.28
   3  -1  29    0.86    0.54
  -2   3  29   -0.31    0.61
   2  -4 -29    0.25    0.34
   2   2 -29    0.08    0.35
   2  -4 -29    0.17    0.32
  -2   4  29    0.04    0.61
  -2   5  29    0.24    0.67
   1  -4 -29    0.68    0.36
   3   1 -29   -0.04    0.35
   1  -4 -29   -0.68    0.32
  -3  -1  29    0.04    0.65
  -1   4  29    0.55    0.62
   0  -3 -29    0.36    0.34
   3   0 -29   -0.01    0.36
   0   3  29    0.05    0.60
   3  -3  29    0.16    0.35
  -3   0  29    0.04    0.71
   3  -1 -29   -0.12    0.29
   3  -1 -29    0.03    0.32
  -3   1  29   -0.76    0.62
  -3   1  29    0.03    0.72
   1   2  29    0.15    0.64
   2  -3  29    0.55    0.36
   1   2  29   -0.62    0.51
   3  -2 -29   -0.01    0.33
   3  -2 -29    0.42    0.32
   2   1  29    0.25    0.66
  -3   2  29    0.77    0.71
   1  -3  29    0.02    0.33
  -3   2  29    0.68    0.72
   3  -3 -29    0.00    0.36
   3  -3 -29    0.10    0.30
   0   3 -29   -0.09    0.29
   0  -3  29    0.56    0.36
  -3   3  29   -0.66    0.60
   3   0  29    0.44    0.60
   1   3 -29   -0.07    0.33
   1   3 -29    0.50    0.34
   3  -4 -29    0.03    0.29
  -1  -3  29    0.30    0.38
  -3   4  29   -0.58    0.63
   4  -1  29    0.09    0.48
   2   3 -29    0.08    0.36
  -3   5  29    0.59    0.72
  -3   6  29    0.15    0.69
  -4  -3  29    0.59    0.69
  -3   7  29    0.15    0.73
   6  -4  29    0.07    0.46
  -2   6  29   -0.36    0.63
   5  -4  29    0.62    0.45
  -1   5  29    0.50    0.61
   0  -4 -29    0.11    0.38
   4   0 -29    0.15    0.42
   4  -4  29    0.45    0.44
   0   4  29    0.37    0.58
   4  -1 -29    0.16    0.33
  -1  -3 -29    0.34    0.33
   4  -1 -29    0.66    0.40
   3  -4  29    0.49    0.41
   1   3  29   -0.03    0.61
   4  -2 -29    0.53    0.36
  -2  -2 -29    0.28    0.34
   4  -2 -29    0.30    0.36
  -4   2  29   -0.91    0.67
   2  -4  29    0.47    0.40
  -4   2  29   -0.08    0.72
   2   2  29   -0.40    0.60
   4  -3 -29   -0.07    0.34
   4  -3 -29    0.03    0.38
  -4   3  29    0.42    0.75
   1  -4  29   -0.40    0.36
   4  -4 -29    1.25    0.43
  -4   4  29    0.51    0.74
   0  -4  29    1.12    0.48
  -4   5  29   -1.13    0.62
  -4   6  29    0.18    0.72
  -2  -4  29    0.03    0.67
  -4   7  29    1.04    0.85
  -3  -4  29    1.00    0.74
  -4  -4  29   -0.21    0.72
  -5  -4  29    0.09    0.76
  -5  -3  29   -0.25    0.72
   6  -5  29   -0.13    0.49
  -1   6  29    0.22    0.63
   5  -5  29    0.12    0.47
   0   5  29   -0.07    0.58
   1   4  29    0.54    0.62
   4  -5  29   -0.67    0.42
   5  -2 -29    0.62    0.39
   3  -5  29   -0.02    0.48
  -5   2  29   -0.03    0.77
  -5   3  29   -0.54    0.72
   2  -5  29    0.09    0.44
  -5   4  29    0.38    0.74
   1  -5  29   -0.43    0.46
   1  -5  29   -0.30    0.52
  -5   5  29   -0.43    0.69
   0  -5  29    0.06    0.56
  -1  -5  29   -0.13    0.64
  -5   6  29    0.28    0.78
  -2  -5  29    0.30    0.77
  -3  -5  29    0.31    0.82
  -4  -5  29   -0.05    0.81
  -6  -2  29   -0.29    0.69
   0   6  29    0.30    0.70
   6  -6  29   -0.57    0.51
   5  -6  29   -0.34    0.51
   4  -6  29    0.21    0.52
  -6   3  29   -0.55    0.80
   3  -6  29   -0.40    0.52
  -6   4  29    1.46    0.92
   2  -6  29   -0.09    0.53
   1  -6  29   -0.05    0.59
  -6   5  29   -0.56    0.78
  -6   6  29   -0.16    0.80
   0  -6  29    0.19    0.67
  -1  -6  29    0.55    0.75
  -2  -6  29    0.17    0.85
  -3  -6  29   -1.09    0.80
   6  -7  29   -0.91    0.53
   5  -7  29   -0.48    0.59
   4  -7  29    0.05    0.58
  -7   4  29    1.59    1.05
   1  -7  29    0.93    0.76
   0  -7  29   -0.17    0.71
  -1  -7  29   -0.09    0.82
   1  -8  29   -0.58    0.73
   0   0 -30   11.61    1.17
   0   0  30   12.73    1.65
   1   0 -30    0.16    0.28
   0   1  30    0.89    0.67
   1  -1  30    0.77    0.55
  -1   0  30    0.30    0.60
   0   1  30   -0.06    0.56
   1  -1 -30    0.15    0.28
   0  -1  30    0.02    0.53
  -1   1  30   -0.68    0.54
   1   0  30    0.20    0.60
  -1   1  30   -0.13    0.63
   1  -2 -30   34.63    3.59
   1   1 -30   35.30    3.42
  -1   2  30   37.59    3.96
  -1   2  30   37.25    4.15
   2  -1  30   42.97    4.03
  -1  -1  30   43.40    4.07
   1  -3 -30    0.29    0.32
   1  -3 -30   -0.15    0.28
   2   1 -30    0.02    0.35
  -1   3  30    0.27    0.61
  -2  -1  30   -0.26    0.60
   0  -2 -30    0.08    0.31
   2   0 -30    0.17    0.31
   0   2  30    0.83    0.63
   0   2  30   -0.63    0.62
  -2   0  30    0.54    0.67
   2  -1 -30   33.94    3.43
   1   1  30   42.46    3.96
  -2   1  30   37.27    4.17
   1   1  30   42.49    4.16
   1  -2  30   37.89    2.99
  -2   1  30   39.87    4.03
   2  -2 -30    0.52    0.35
   2  -2 -30   -0.10    0.26
   2   0  30   -0.37    0.55
   0  -2  30    0.35    0.34
  -2   2  30   -0.27    0.65
  -2   2  30    0.56    0.71
   2  -3 -30    0.18    0.29
   1   2 -30   -0.10    0.30
   2  -3 -30   -0.28    0.29
  -2   3  30    0.27    0.68
   3  -1  30    0.38    0.52
   2  -4 -30   33.35    3.07
   2   2 -30   32.40    2.93
   2  -4 -30   28.81    2.85
  -2   4  30   33.15    3.45
  -2   5  30    0.24    0.68
   1  -4 -30    0.56    0.39
   1  -4 -30   -0.42    0.34
   3   1 -30   -0.35    0.36
  -1   4  30   -0.09    0.58
  -3  -1  30   -0.15    0.62
   0  -3 -30   42.88    4.05
   3   0 -30   42.05    4.16
   3  -3  30   54.87    3.64
  -3   0  30   46.76    4.94
   3  -1 -30    0.23    0.34
  -3   1  30    0.64    0.77
   1   2  30    0.24    0.64
   1   2  30    0.18    0.60
  -3   1  30   -0.13    0.71
   2  -3  30   -0.23    0.34
   3  -2 -30   -0.12    0.33
   3  -2 -30   -0.21    0.29
   1  -3  30   -0.08    0.34
  -3   2  30   -1.25    0.62
   2   1  30    0.39    0.65
  -3   2  30   -1.15    0.58
   3  -3 -30   46.47    4.72
  -3   3  30   42.19    5.08
   3   0  30   57.33    5.28
   0  -3  30   53.54    3.92
   3  -4 -30   -0.43    0.30
  -3   4  30   -0.81    0.61
  -3   5  30   -0.40    0.67
  -3   6  30   10.32    1.62
  -4  -3  30   -0.14    0.65
   6  -4  30    0.54    0.50
  -2   6  30    0.03    0.64
   5  -4  30   28.55    2.22
  -1   5  30   23.22    2.82
   0   4  30    0.65    0.60
   4  -4  30    0.45    0.45
  -1  -3 -30    0.61    0.37
   4  -1 -30    0.04    0.37
   3  -4  30    0.09    0.39
   1   3  30   -0.31    0.58
   4  -2 -30   33.16    3.11
   4  -2 -30   31.29    3.27
  -2  -2 -30   35.01    3.05
   2   2  30   43.12    3.82
  -4   2  30   28.29    3.67
   2  -4  30   34.06    2.75
   4  -3 -30    0.19    0.38
   4  -3 -30   -0.30    0.32
   1  -4  30   -0.29    0.39
  -4   3  30   -0.59    0.71
  -4   4  30    0.21    0.72
   0  -4  30   -0.73    0.40
  -4   5  30   16.48    2.22
  -4   6  30   -1.25    0.64
  -2  -4  30    0.64    0.70
  -3  -4  30    0.11    0.76
  -4  -4  30    1.49    0.88
  -5  -4  30   -0.79    0.75
  -5  -3  30   -1.37    0.67
   6  -5  30    1.08    0.56
  -1   6  30    0.43    0.65
   5  -5  30    0.44    0.52
   0   5  30   -0.39    0.57
   1   4  30   25.65    2.81
   4  -5  30   26.16    2.22
  -5   2  30   -0.73    0.78
   3  -5  30    0.49    0.48
  -5   3  30   -0.49    0.71
   2  -5  30    0.08    0.47
   1  -5  30   21.56    1.99
  -5   4  30   18.06    2.72
   1  -5  30   26.04    2.28
   0  -5  30    0.03    0.60
  -5   5  30   -0.05    0.74
  -1  -5  30   -0.37    0.67
  -5   6  30    0.13    0.77
  -2  -5  30    4.96    1.12
  -3  -5  30   -0.85    0.78
  -4  -5  30   -1.13    0.76
  -6  -2  30    0.46    0.74
   6  -6  30   10.68    1.21
   0   6  30    9.99    1.50
   5  -6  30   -0.30    0.53
   4  -6  30   -0.75    0.50
  -6   3  30    9.05    1.73
   3  -6  30   10.43    1.24
  -6   4  30   -0.05    0.84
   2  -6  30   -0.35    0.53
   1  -6  30   -0.22    0.57
  -6   5  30   -0.82    0.78
  -6   6  30    6.15    1.46
   0  -6  30    9.84    1.30
  -1  -6  30    0.39    0.79
  -2  -6  30    0.19    0.88
   6  -7  30    0.32    0.59
   5  -7  30    4.14    0.88
   4  -7  30   -0.90    0.58
   1  -7  30    0.81    0.78
   0  -7  30   -0.25    0.75
  -1  -7  30    2.60    1.00
   0   0  31    1.21    0.67
   1   0 -31    2.42    0.44
  -1   0  31    1.86    0.77
   0   1  31    2.70    0.79
   0   1  31    2.14    0.80
   1  -1  31    1.50    0.64
   1  -1 -31    0.66    0.32
  -1   1  31    0.78    0.70
   1   0  31    1.48    0.68
   0  -1  31    1.25    0.64
  -1   1  31    1.29    0.73
   1  -2 -31   -0.33    0.26
   1   1 -31    0.08    0.32
   2  -1  31    0.06    0.52
  -1   2  31    0.91    0.67
  -1   2  31    0.05    0.67
  -1  -1  31   -0.42    0.56
   2   1 -31    7.38    0.99
   1  -3 -31    9.91    1.03
   1  -3 -31    9.04    0.97
  -1   3  31    7.69    1.36
  -2  -1  31   10.77    1.34
   2   0 -31    4.36    0.65
   0   2  31    5.46    1.05
   0   2  31    6.74    1.13
  -2   0  31    4.36    1.03
   2  -1 -31    0.19    0.33
  -2   1  31    0.21    0.67
   1   1  31    0.09    0.59
   1  -2  31    0.13    0.31
  -2   1  31    0.32    0.70
   1   1  31   -0.44    0.61
   2  -2 -31    9.27    0.94
   2  -2 -31    8.18    0.96
   0  -2  31    7.60    0.88
   2   0  31    9.74    1.33
  -2   2  31    8.03    1.42
  -2   2  31    8.96    1.45
   2  -3 -31    3.37    0.56
   1   2 -31    4.97    0.63
   2  -3 -31    2.44    0.54
  -2   3  31    4.11    1.02
   3  -1  31    6.41    0.85
   2  -4 -31    0.09    0.31
   2   2 -31   -0.23    0.36
   2  -4 -31   -0.11    0.34
  -2   4  31   -0.24    0.63
  -2   5  31    4.98    1.08
   1  -4 -31    4.79    0.74
   3   1 -31    7.31    0.86
   1  -4 -31    5.25    0.78
  -1   4  31    5.72    1.10
   3   0 -31    0.52    0.38
   0  -3 -31   -0.03    0.31
   3  -3  31    0.34    0.38
   0   3  31    0.24    0.60
   3  -1 -31    8.75    1.00
   1   2  31   10.34    1.44
   1   2  31    8.25    1.38
  -3   1  31    7.85    1.44
   2  -3  31    9.84    0.97
   3  -2 -31    3.59    0.61
   3  -2 -31    2.67    0.57
   1  -3  31    5.52    0.65
  -3   2  31    4.03    1.07
  -3   2  31    4.69    1.09
   2   1  31    6.25    1.03
   3  -3 -31    0.51    0.33
   0  -3  31   -0.12    0.39
  -3   3  31   -0.42    0.66
   3  -4 -31   12.68    1.31
  -3   4  31   10.34    1.76
  -3   5  31    2.90    0.99
  -3   6  31   -0.55    0.69
   7  -4  31    0.87    0.56
  -4  -3  31    0.10    0.70
  -2   6  31    1.96    0.83
   6  -4  31    1.67    0.57
   5  -4  31    0.07    0.47
  -1   5  31   -0.37    0.56
   0   4  31    7.02    1.21
   4  -4  31    7.67    0.91
   1   3  31    6.79    1.21
   3  -4  31    7.08    0.87
   4  -2 -31    0.34    0.36
   4  -2 -31    0.05    0.37
  -2  -2 -31    0.41    0.35
   2  -4  31   -0.07    0.41
  -4   2  31   -0.05    0.77
   4  -3 -31   11.74    1.28
   1  -4  31   12.93    1.23
  -4   3  31    8.47    1.68
   0  -4  31    3.63    0.67
  -4   4  31    3.56    1.07
  -4   5  31   -1.23    0.63
  -4   6  31    1.14    0.86
  -2  -4  31    1.61    0.80
  -3  -4  31   -0.04    0.78
  -4  -4  31   -0.15    0.81
  -5  -3  31    0.68    0.79
   7  -5  31    0.18    0.54
   6  -5  31    2.25    0.65
  -1   6  31    1.82    0.80
   0   5  31    3.51    0.87
   5  -5  31    2.40    0.63
   4  -5  31   -0.84    0.45
   1   4  31    0.78    0.67
   3  -5  31    6.20    0.89
  -5   3  31    4.38    1.17
   2  -5  31    3.39    0.71
   1  -5  31    0.06    0.56
  -5   4  31    0.12    0.80
   1  -5  31    0.26    0.52
   0  -5  31    5.67    0.97
  -5   5  31    2.06    1.02
  -5   6  31    1.23    0.88
  -1  -5  31    1.97    0.82
  -2  -5  31   -0.11    0.79
  -3  -5  31    0.22    0.84
  -6  -2  31    0.10    0.72
   6  -6  31   -0.69    0.54
   5  -6  31    0.48    0.58
   4  -6  31    1.30    0.62
   3  -6  31   -0.19    0.57
  -6   3  31   -0.84    0.84
  -6   4  31    1.14    0.99
   2  -6  31    1.26    0.65
  -6   5  31    1.19    0.89
   1  -6  31    0.97    0.70
   0  -6  31   -0.34    0.65
  -1  -6  31    1.19    0.84
  -2  -6  31    1.00    0.90
   6  -7  31    1.19    0.66
   5  -7  31   -0.96    0.61
   4  -7  31   -1.38    0.58
   1  -7  31    1.13    0.80
   0  -7  31    0.50    0.82
  -1  -7  31   -0.46    0.80
   0   0  32    1.18    0.68
   0   1  32   24.43    2.85
  -1   0  32   26.34    2.98
   1  -1  32   27.10    2.86
   0   1  32   26.08    3.00
   1  -1 -32   47.59    4.13
  -1   1  32   46.76    4.72
   0  -1  32   48.47    4.83
   1   0  32   45.27    4.88
  -1   1  32   41.02    4.92
   1   1 -32    0.28    0.31
   2  -1  32    0.64    0.55
  -1  -1  32   -0.15    0.57
  -1   2  32    0.46    0.71
  -1   2  32    0.84    0.68
   1  -3 -32    4.17    0.65
   1  -3 -32    4.07    0.69
   2   1 -32    5.64    0.72
  -2  -1  32    7.14    1.00
  -1   3  32    6.00    1.11
   2   0 -32   19.31    1.90
   0   2  32   22.89    2.37
  -2   0  32   19.40    2.41
   0   2  32   19.96    2.43
   2  -1 -32   -0.12    0.31
   1   1  32   -0.49    0.61
  -2   1  32    0.63    0.75
   1   1  32    0.39    0.63
  -2   1  32    0.27    0.70
   1  -2  32    0.27    0.33
   2  -2 -32    6.80    0.89
   2  -2 -32    5.64    0.88
  -2   2  32   11.19    1.50
   0  -2  32   10.43    0.91
   2   0  32   10.54    1.30
  -2   2  32    9.29    1.43
   2  -3 -32   11.63    1.21
   2  -3 -32   10.68    1.25
   3  -1  32   16.48    1.56
  -2   3  32   10.55    1.70
   2   2 -32   -0.59    0.37
   2  -4 -32   -0.44    0.34
  -2   4  32    0.10    0.67
  -2   5  32    2.68    0.87
  -1   4  32    7.54    1.27
   0  -3 -32    0.55    0.35
   3   0 -32    0.28    0.38
   3  -3  32    0.48    0.39
   0   3  32    0.03    0.62
   3  -1 -32    4.74    0.71
  -1  -2 -32    4.50    0.66
   2  -3  32    6.11    0.72
   1   2  32    6.73    1.16
   1   2  32    7.10    1.15
   3  -2 -32   10.79    1.20
   3  -2 -32   12.36    1.16
  -3   2  32    8.40    1.62
  -3   2  32    9.31    1.64
   1  -3  32   11.22    1.12
   3  -3 -32   -0.23    0.31
  -3   3  32   -0.76    0.64
   0  -3  32   -0.44    0.35
  -3   4  32    4.05    1.08
  -3   5  32    4.36    1.11
  -3   6  32   -0.80    0.70
   7  -4  32    4.25    0.75
  -4  -3  32    4.05    0.99
   6  -4  32    3.87    0.73
  -2   6  32    5.00    1.05
  -1   5  32    0.26    0.63
   5  -4  32    0.39    0.50
   0   4  32    1.43    0.70
   4  -4  32    2.22    0.56
   3  -4  32    7.88    0.93
   1   3  32    7.77    1.31
   4  -2 -32    0.18    0.36
   2  -4  32   -0.06    0.43
  -4   2  32    1.52    0.85
  -4   3  32    5.52    1.19
   1  -4  32    3.84    0.69
  -4   4  32    1.86    0.94
   0  -4  32    2.76    0.61
  -4   5  32   -0.38    0.70
  -4   6  32    2.78    1.02
  -2  -4  32    4.26    0.98
   7  -3  32    8.26    0.96
  -3  -4  32    7.61    1.34
  -4  -4  32   -1.34    0.78
  -5  -3  32    1.61    0.89
   7  -5  32    0.89    0.57
  -1   6  32    2.56    0.85
   6  -5  32    2.52    0.65
   5  -5  32    6.68    0.91
   0   5  32    5.17    1.08
   4  -5  32   -0.33    0.48
   1   4  32    0.46    0.66
   3  -5  32    3.64    0.74
   2  -5  32    5.74    0.88
  -5   3  32    5.01    1.26
   1  -5  32   -1.11    0.53
  -5   4  32    0.29    0.83
   1  -5  32    0.07    0.51
  -5   5  32    2.09    1.00
   0  -5  32    3.78    0.88
  -1  -5  32    3.36    0.95
  -5   6  32    4.52    1.20
  -2  -5  32   -0.59    0.80
  -3  -5  32    2.57    1.01
  -6  -2  32    3.06    0.91
   7  -6  32    2.83    0.73
   6  -6  32    0.23    0.60
   5  -6  32    2.87    0.76
   4  -6  32    7.61    1.09
   3  -6  32   -0.04    0.60
  -6   4  32    2.94    1.13
   2  -6  32    2.23    0.73
   1  -6  32    3.92    0.90
  -6   5  32    2.21    1.06
   0  -6  32   -0.20    0.67
  -1  -6  32    1.08    0.86
  -2  -6  32    3.91    1.14
   6  -7  32    2.12    0.74
   5  -7  32   -0.69    0.62
   1  -7  32    0.30    0.80
   0  -7  32    3.25    1.01
  -1  -7  32   -0.85    0.79
   0   0  33   78.19    8.04
   1   0 -33    0.18    0.29
   1  -1  33    0.28    0.55
   0   1  33   -0.08    0.60
  -1   0  33   -0.39    0.63
   0   1  33    0.02    0.69
   1  -1 -33    0.61    0.33
  -1   1  33   -0.32    0.70
  -1   1  33    0.07    0.66
   0  -1  33    0.85    0.35
   1   0  33    0.96    0.65
   0  -1  33    0.25    0.57
   1   1 -33   31.79    3.34
  -1  -1  33   39.86    3.94
  -1   2  33   35.75    4.08
   2  -1  33   43.10    3.93
  -1   2  33   36.88    3.90
   1  -3 -33    0.31    0.33
   2   1 -33   -0.56    0.34
   1  -3 -33    0.21    0.35
  -1   3  33   -0.08    0.63
   2   0 -33    0.14    0.34
   0   2  33   -0.26    0.71
   0   2  33   -0.47    0.60
   2  -1 -33   33.45    3.18
   1  -2  33   35.14    2.78
  -2   1  33   34.20    3.90
   1   1  33   38.87    3.88
   2  -2 -33    0.13    0.35
   0  -2  33    0.30    0.37
  -2   2  33   -0.33    0.65
  -2   2  33   -0.45    0.72
   2  -3 -33    0.14    0.32
   2  -3 -33    0.04    0.33
  -2   3  33   -1.00    0.62
  -2   4  33    9.42    1.51
  -2   5  33    0.12    0.65
   4  -3  33    0.18    0.41
  -1   4  33   -0.13    0.62
   0   3  33   15.32    1.92
   3  -3  33   14.35    1.34
  -1  -2 -33    0.52    0.30
   3  -1 -33    0.19    0.38
   1   2  33    0.14    0.64
   2  -3  33    0.27    0.39
   3  -2 -33   -0.26    0.34
   1  -3  33   -0.33    0.37
  -3   2  33    0.31    0.79
   3  -3 -33    7.75    1.05
   0  -3  33   11.07    1.04
  -3   3  33   11.19    1.65
  -3   4  33   -0.19    0.68
  -3   5  33   -0.78    0.67
  -3   6  33    9.38    1.55
   7  -4  33   -0.44    0.51
  -4  -3  33    0.01    0.78
  -2   6  33    0.87    0.74
   6  -4  33    0.91    0.54
   5  -4  33   11.26    1.15
  -1   5  33    8.51    1.45
   0   4  33   -0.08    0.60
   4  -4  33   -0.46    0.45
   1   3  33   -0.44    0.60
   3  -4  33    0.05    0.45
  -4   2  33    8.44    1.67
   2  -4  33   12.00    1.18
   1  -4  33   -0.36    0.46
  -4   3  33   -1.15    0.72
  -4   4  33    0.94    0.84
   0  -4  33   -0.22    0.49
  -4   5  33    6.49    1.34
  -4   6  33   -0.21    0.75
  -2  -4  33    0.91    0.79
  -3  -4  33    0.17    0.81
   7  -3  33   -0.55    0.45
  -4  -4  33    4.45    1.12
  -5  -3  33    0.02    0.80
   7  -5  33    7.62    1.00
   6  -5  33    0.28    0.56
   0   5  33    0.24    0.69
   5  -5  33    0.19    0.55
   1   4  33    9.10    1.37
   4  -5  33    8.16    1.05
   3  -5  33   -0.11    0.51
   2  -5  33   -0.01    0.52
  -5   3  33   -0.40    0.80
   1  -5  33    7.56    1.03
  -5   4  33    5.49    1.42
   1  -5  33    8.69    1.18
   0  -5  33    0.53    0.68
  -5   5  33   -0.51    0.72
  -1  -5  33   -0.41    0.72
  -2  -5  33    7.05    1.30
  -3  -5  33   -1.29    0.80
  -6  -2  33    0.45    0.77
   7  -6  33    0.28    0.60
   6  -6  33    5.13    0.90
   5  -6  33    0.68    0.64
   4  -6  33    0.23    0.60
   3  -6  33   12.37    1.46
  -6   4  33    0.26    0.89
   1  -6  33    0.77    0.75
  -1  -6  33   -0.13    0.78
  -2  -6  33   -0.30    0.86
   6  -7  33   -0.93    0.58
   5  -7  33    8.58    1.21
   0  -7  33    0.62    0.81
   0   0  34   -0.11    0.65
   1   0 -34    0.96    0.37
   1  -1  34    0.46    0.58
   1  -1 -34    0.54    0.35
   0  -1  34    0.01    0.31
   0  -1  34    0.09    0.57
  -1   2  34    0.02    0.73
  -1   2  34    0.86    0.72
   1  -3 -34    6.50    0.80
   2   1 -34    4.96    0.76
  -1   3  34    5.39    1.11
   2   0 -34    1.45    0.44
   0   2  34    1.60    0.76
   2  -1 -34    0.39    0.36
   1  -2  34    0.15    0.35
  -2   2  34    1.59    0.83
   0  -2  34    3.33    0.55
   2  -3 -34    1.10    0.42
   2  -3 -34    2.04    0.46
  -2   3  34    3.84    0.96
  -2   4  34   -0.43    0.67
  -2   5  34    3.11    0.92
  -1   4  34    4.45    1.00
   4  -3  34    3.92    0.66
   3  -3  34    0.29    0.43
   0   3  34   -0.33    0.60
   2  -3  34    5.27    0.74
   1   2  34    6.44    1.17
   1  -3  34    3.05    0.60
  -3   2  34    2.73    0.97
  -3   3  34   -0.97    0.62
   0  -3  34    0.76    0.46
  -3   4  34    5.14    1.18
  -3   5  34    1.75    0.87
   6  -3  34    0.72    0.47
   7  -4  34    0.67    0.54
  -4  -3  34   -0.22    0.80
   6  -4  34    0.71    0.55
  -1   5  34   -0.18    0.60
   5  -4  34   -0.21    0.49
   0   4  34    2.67    0.87
   4  -4  34    3.72    0.67
   3  -4  34    6.00    0.83
   1   3  34    5.26    1.07
   2  -4  34   -0.32    0.43
   1  -4  34    5.78    0.84
  -4   3  34    5.92    1.27
  -4   4  34    1.88    0.93
   0  -4  34    1.63    0.57
  -4   5  34   -0.25    0.76
  -2  -4  34    0.64    0.77
  -3  -4  34   -0.46    0.78
   7  -3  34    0.35    0.49
  -4  -4  34    0.31    0.86
  -5  -3  34    0.67    0.84
   7  -5  34   -0.62    0.51
   6  -5  34    1.70    0.63
   0   5  34    1.82    0.81
   5  -5  34    1.99    0.66
   4  -5  34    0.01    0.54
   1   4  34   -0.24    0.62
   3  -5  34    2.47    0.68
  -5   3  34    1.62    0.99
   2  -5  34    1.79    0.66
   1  -5  34   -0.31    0.55
   1  -5  34   -0.06    0.63
  -5   4  34   -0.22    0.81
   0  -5  34    3.26    0.90
  -5   5  34    3.03    1.07
  -1  -5  34    1.15    0.76
  -2  -5  34   -0.48    0.81
  -3  -5  34    0.76    0.90
   7  -6  34   -0.56    0.55
   6  -6  34    0.25    0.60
   5  -6  34    1.72    0.72
   4  -6  34   -0.34    0.64
   3  -6  34   -0.13    0.63
   1  -6  34    0.05    0.68
   0  -6  34   -0.25    0.73
  -1  -6  34   -0.85    0.76
  -2  -6  34   -0.77    0.86
   6  -7  34   -0.16    0.64
   5  -7  34   -1.27    0.63
   0  -7  34    0.82    0.83
   1   0 -35    3.54    0.56
   0  -1  35    9.07    0.91
  -1   2  35   -0.18    0.66
  -1   3  35    8.47    1.40
   2   0 -35   11.20    1.21
   0   2  35   12.88    1.69
   2  -1 -35   -0.36    0.32
   1  -2  35    0.79    0.40
   0  -2  35    8.91    0.90
  -2   2  35    6.76    1.34
  -2   3  35   18.48    2.36
  -2   4  35   -0.21    0.70
   5  -3  35    5.89    0.77
  -2   5  35    4.88    1.15
   4  -3  35   15.82    1.36
  -1   4  35   12.12    1.85
   3  -3  35    0.30    0.41
   0   3  35   -0.03    0.63
   1   2  35   11.81    1.62
   2  -3  35   10.89    1.15
  -3   2  35   17.69    2.41
   1  -3  35   19.74    1.67
   0  -3  35    0.57    0.48
  -3   3  35    0.07    0.72
  -3   4  35    7.95    1.45
  -3   5  35    7.91    1.46
   6  -3  35    0.26    0.49
  -4  -3  35    1.37    0.88
   7  -4  35    1.22    0.56
   6  -4  35    3.27    0.66
  -1   5  35   -0.14    0.66
   5  -4  35   -0.36    0.49
   0   4  35    8.28    1.43
   4  -4  35   11.19    1.14
   1   3  35   13.43    1.85
   3  -4  35   14.75    1.44
   2  -4  35   -0.01    0.46
   1  -4  35    7.08    0.94
  -4   3  35    6.66    1.38
  -4   4  35   11.53    1.94
   0  -4  35   15.27    1.46
  -4   5  35    0.57    0.79
  -2  -4  35    1.58    0.89
  -3  -4  35    3.44    1.05
   7  -3  35    3.21    0.63
  -4  -4  35    1.22    0.92
  -5  -3  35    2.11    0.95
   7  -5  35    0.37    0.54
   6  -5  35    2.93    0.71
   5  -5  35    8.89    1.10
   1   4  35    0.68    0.66
   4  -5  35   -0.59    0.54
   3  -5  35    7.39    1.03
  -5   3  35    6.95    1.50
   2  -5  35    8.47    1.08
   1  -5  35   -0.55    0.63
  -5   4  35    0.53    0.86
   1  -5  35   -0.09    0.58
   0  -5  35    4.66    1.02
  -1  -5  35    6.43    1.21
  -2  -5  35    0.90    0.90
  -3  -5  35    0.84    0.88
   6  -6  35    0.38    0.64
   5  -6  35    2.54    0.75
   4  -6  35    4.77    0.91
   3  -6  35   -0.69    0.67
   0  -6  35   -0.03    0.75
  -1  -6  35    1.00    0.84
   5  -7  35   -1.19    0.63
   0  -7  35    1.38    0.87
   0  -1  36   -0.27    0.33
  -1   2  36   -0.77    0.62
  -1   3  36    0.34    0.66
   2  -2  36   -0.39    0.38
   0   2  36   -0.27    0.63
   1  -2  36    0.56    0.38
  -2   2  36   -0.80    0.65
   0  -2  36   -0.26    0.38
  -2   3  36    0.05    0.67
  -2   4  36    0.33    0.75
  -2   5  36   -0.12    0.73
   5  -3  36    0.37    0.48
   4  -3  36    0.19    0.44
  -1   4  36    0.29    0.70
   0   3  36    0.32    0.68
   3  -3  36    0.78    0.46
   2  -3  36   -0.09    0.43
   1   2  36   -0.37    0.62
   1  -3  36    0.39    0.43
  -3   2  36   -0.32    0.73
   0  -3  36    0.98    0.50
  -3   3  36    1.53    0.84
  -3   4  36    0.49    0.74
  -3   5  36   -0.21    0.76
   6  -3  36    0.42    0.48
   7  -4  36   -0.09    0.49
  -4  -3  36   -0.78    0.78
   6  -4  36    0.01    0.52
   5  -4  36    0.12    0.50
  -1   5  36    0.08    0.71
   0   4  36   -0.05    0.66
   4  -4  36   -0.30    0.50
   1   3  36    0.03    0.64
   3  -4  36   -0.34    0.45
   2  -4  36    1.18    0.54
   1  -4  36    0.20    0.52
  -4   3  36    0.07    0.81
   0  -4  36   -0.31    0.51
  -4   4  36   -0.58    0.71
  -4   5  36   -0.38    0.77
  -2  -4  36    0.53    0.79
   7  -3  36    0.39    0.48
  -3  -4  36   -1.25    0.79
  -4  -4  36    1.20    0.88
  -5  -2  36    0.27    0.79
   6  -5  36    1.20    0.60
   5  -5  36    0.63    0.57
   4  -5  36    0.68    0.60
   3  -5  36   -0.34    0.58
   2  -5  36    0.50    0.58
  -5   4  36   -0.21    0.84
   1  -5  36   -0.34    0.56
   0  -5  36    0.32    0.73
  -1  -5  36   -0.11    0.75
  -2  -5  36   -0.62    0.82
   6  -6  36    0.95    0.66
   5  -6  36   -0.03    0.64
   4  -6  36   -0.68    0.65
   3  -6  36    0.12    0.69
   0  -6  36    0.36    0.75
  -1  -6  36   -0.17    0.77
   5  -7  36   -0.48    0.70
   0  -1  37   15.61    1.36
  -1   2  37   -0.37    0.69
  -1   3  37    9.62    1.53
   0   2  37    6.61    1.21
   2  -2  37    6.39    0.77
   1  -2  37   -0.40    0.37
  -2   2  37   11.68    1.75
   0  -2  37   11.51    1.16
  -2   3  37    5.12    1.13
  -2   4  37    0.07    0.76
   5  -3  37    7.96    0.94
  -1   4  37    2.19    0.84
   4  -3  37    3.21    0.62
   0   3  37    0.71    0.69
   3  -3  37    0.38    0.43
   2  -3  37    9.68    1.04
   1  -3  37    5.04    0.73
   0  -3  37    0.24    0.47
  -3   3  37   -0.84    0.69
  -3   4  37    2.64    0.96
   6  -3  37    0.37    0.48
  -4  -3  37    5.63    1.17
   6  -4  37    2.98    0.67
   5  -4  37    0.53    0.55
   4  -4  37    5.15    0.82
   0   4  37    6.41    1.17
   1   3  37    2.38    0.84
   3  -4  37    3.09    0.65
   2  -4  37    0.17    0.47
   1  -4  37    4.79    0.78
  -4   3  37    2.94    1.08
  -4   4  37    3.98    1.13
   0  -4  37    4.12    0.79
  -2  -4  37    6.43    1.23
  -3  -4  37    3.99    1.11
  -5  -2  37   -0.57    0.74
   6  -5  37    5.14    0.84
   5  -5  37    2.87    0.72
   4  -5  37    0.29    0.58
   3  -5  37    8.00    1.09
   2  -5  37    3.07    0.77
   1  -5  37   -0.17    0.61
   0  -5  37    3.83    0.94
  -1  -5  37    1.93    0.89
  -2  -5  37    0.47    0.86
   6  -6  37    0.13    0.61
   5  -6  37    4.15    0.86
   4  -6  37    1.61    0.77
   3  -6  37   -0.28    0.67
   0  -6  37   -0.55    0.71
  -1  -6  37    2.84    0.97
   0  -1  38    6.85    0.77
  -1   3  38   -0.45    0.69
   2  -2  38    4.49    0.64
   1  -2  38    0.80    0.43
   0  -2  38    2.88    0.58
  -2   3  38    1.75    0.85
  -2   4  38   -1.12    0.70
   5  -3  38    0.59    0.48
  -1   4  38   -0.37    0.68
   4  -3  38    0.32    0.45
   0   3  38   -0.34    0.69
   3  -3  38    0.50    0.48
   2  -3  38    0.86    0.49
   1  -3  38    1.17    0.51
  -3   3  38   -0.79    0.66
   0  -3  38    0.14    0.47
  -3   4  38    1.80    0.91
   6  -3  38    0.49    0.49
  -4  -3  38    0.77    0.88
   6  -4  38    0.90    0.55
   5  -4  38    0.28    0.53
   4  -4  38    0.33    0.51
   0   4  38   -0.12    0.69
   1   3  38    0.74    0.71
   3  -4  38    1.15    0.54
   2  -4  38    0.29    0.50
  -4   3  38    0.47    0.77
   1  -4  38    0.19    0.53
  -4   4  38    0.25    0.85
  -2  -4  38    1.20    0.87
  -3  -4  38    2.85    1.00
  -5  -2  38    0.32    0.77
   6  -5  38    0.36    0.55
   5  -5  38    2.73    0.71
   4  -5  38    0.80    0.62
   3  -5  38   -0.29    0.57
   2  -5  38    0.00    0.62
   1  -5  38   -0.49    0.60
   0  -5  38    0.78    0.74
  -1  -5  38    0.90    0.84
  -2  -5  38    0.05    0.85
   5  -6  38   -0.33    0.63
   4  -6  38    1.81    0.78
   3  -6  38   -0.63    0.66
   0  -6  38    0.86    0.79
   0  -1  39    0.06    0.38
  -1   3  39    0.10    0.71
   2  -2  39    0.37    0.40
   1  -2  39    6.25    0.76
   0  -2  39   -0.47    0.39
  -2   3  39   -0.03    0.71
  -2   4  39    7.90    1.39
   5  -3  39    0.17    0.49
  -1   4  39    0.41    0.72
   4  -3  39    0.59    0.47
   3  -3  39    9.46    1.03
   0   3  39    9.31    1.50
   2  -3  39    0.46    0.44
   1  -3  39   -0.47    0.41
  -3   3  39    8.88    1.51
  -3   4  39    0.03    0.75
   6  -3  39    1.83    0.56
  -4  -3  39    0.40    0.82
   6  -4  39    0.24    0.51
   5  -4  39    6.83    0.92
   4  -4  39    0.01    0.52
   3  -4  39   -0.50    0.49
   2  -4  39    8.29    1.03
   1  -4  39   -0.34    0.51
  -2  -4  39    1.07    0.82
  -3  -4  39    0.74    0.86
  -5  -2  39    1.58    0.84
   5  -5  39    0.09    0.56
   4  -5  39    4.42    0.83
   3  -5  39   -0.23    0.58
   2  -5  39   -0.96    0.57
   1  -5  39    4.31    0.85
   0  -5  39    0.58    0.71
  -1  -5  39    0.73    0.78
  -2  -5  39    1.44    0.90
   5  -6  39    0.05    0.65
   4  -6  39   -0.31    0.64
   3  -6  39    2.70    0.81
   0  -6  39    3.30    0.93
   1  -1  40    3.75    0.56
   3  -2  40    6.01    0.77
  -1   3  40    6.43    1.23
   2  -2  40    4.72    0.66
   1  -2  40    0.25    0.39
  -2   3  40    3.14    0.99
   5  -3  40    3.44    0.66
   4  -3  40    5.34    0.76
   3  -3  40   -0.18    0.46
   0   3  40   -0.30    0.73
   2  -3  40    6.43    0.84
   1  -3  40    2.21    0.57
   6  -3  40   -0.43    0.44
   5  -4  40    0.15    0.53
   4  -4  40    5.27    0.80
   3  -4  40    3.91    0.71
   2  -4  40    0.17    0.51
   1  -4  40    7.41    0.97
  -2  -4  40    3.08    0.96
   5  -5  40    2.08    0.66
   4  -5  40    0.24    0.57
   3  -5  40    3.97    0.81
   2  -5  40    0.86    0.64
   1  -5  40   -1.55    0.53
   0  -5  40    3.37    0.88
  -1  -5  40    1.56    0.81
   4  -6  40    1.27    0.72
   3  -6  40   -0.44    0.64
   1  -1  41    2.55    0.50
   3  -2  41    0.67    0.44
   2  -2  41    1.86    0.48
   1  -2  41    0.45    0.42
   5  -3  41    0.57    0.50
   4  -3  41    1.20    0.53
   3  -3  41    0.10    0.47
   2  -3  41    0.97    0.51
   1  -3  41    1.13    0.49
   5  -4  41    0.84    0.56
   4  -4  41    0.97    0.55
   3  -4  41    0.71    0.55
   2  -4  41   -0.07    0.48
   1  -4  41    0.71    0.56
  -2  -4  41    0.01    0.76
   5  -5  41    0.63    0.60
   4  -5  41   -0.62    0.55
   3  -5  41   -0.34    0.56
   2  -5  41    0.02    0.58
   0  -5  41    1.13    0.71
  -1  -5  41   -0.24    0.70
   1  -1  42    0.34    0.39
   3  -2  42    0.38    0.44
   2  -2  42   -0.02    0.39
   4  -2  42    6.22    0.79
   5  -3  42    0.38    0.48
   4  -3  42    0.31    0.49
   3  -3  42    8.75    1.00
   2  -3  42    0.10    0.44
   1  -3  42    0.10    0.45
   5  -2  42    0.17    0.45
   5  -4  42    4.42    0.73
   4  -4  42    0.66    0.53
   3  -4  42   -0.04    0.48
   2  -4  42    6.72    0.91
   1  -4  42    0.28    0.54
  -1  -4  42    5.08    1.01
  -2  -4  42   -0.47    0.75
   4  -5  42    4.99    0.84
   3  -5  42    0.34    0.58
   2  -5  42   -1.08    0.54
   0  -5  42   -0.17    0.65
   1  -1  43    0.32    0.39
   3  -2  43   -0.53    0.40
   2  -2  43    0.32    0.42
   1  -2  43   -0.69    0.38
   4  -2  43    0.58    0.44
   4  -3  43    0.07    0.47
   3  -3  43   -0.45    0.43
   2  -3  43   -0.15    0.45
   1  -3  43   -0.37    0.44
   5  -2  43   -0.11    0.42
   4  -4  43   -0.10    0.50
   3  -4  43    0.65    0.53
   2  -4  43    0.20    0.51
   1  -4  43    1.39    0.61
  -1  -4  43    0.42    0.68
   3  -5  43    0.06    0.56
   2  -5  43   -0.86    0.51
   1  -1  44    1.93    0.47
   2  -1  44   -0.23    0.36
   3  -2  44    2.82    0.56
   2  -2  44    3.57    0.61
   1  -2  44    0.20    0.43
   4  -2  44   -0.07    0.43
   4  -3  44    5.33    0.77
   3  -3  44    0.41    0.47
   2  -3  44    2.98    0.60
   1  -3  44    6.13    0.83
   4  -4  44    3.00    0.65
   3  -4  44    4.67    0.76
   2  -4  44    0.56    0.51
   1  -4  44    2.89    0.68
  -1  -4  44   -0.25    0.65
   1  -1  45    0.50    0.41
   2  -1  45    0.48    0.40
   3  -2  45    1.07    0.46
   2  -2  45    0.69    0.44
   1  -2  45    0.64    0.45
   4  -2  45    1.74    0.51
   3  -3  45    1.98    0.56
   2  -3  45    0.22    0.45
   1  -3  45   -0.12    0.45
   2  -4  45    2.02    0.60
   1  -1  46    4.63    0.64
   1   0  46    2.60    0.49
   2  -1  46   -0.33    0.37
   3  -2  46    2.24    0.53
   2  -2  46    1.38    0.47
   1  -2  46    0.02    0.41
   3  -1  46    1.38    0.46
   3  -3  46   -0.25    0.44
   2  -3  46    1.60    0.51
   2  -1  47    0.17    0.39
   2  -2  47    2.87    0.55
   0   0   0    0.00    0.00
;
_shelx_hkl_checksum              91279
loop_
_space_group_symop_operation_xyz
'x, y, z'
'-y, x-y, z'
'-x+y, -x, z'
'-y, -x, z'
'-x+y, y, z'
'x, x-y, z'
'x+2/3, y+1/3, z+1/3'
'-y+2/3, x-y+1/3, z+1/3'
'-x+y+2/3, -x+1/3, z+1/3'
'-y+2/3, -x+1/3, z+1/3'
'-x+y+2/3, y+1/3, z+1/3'
'x+2/3, x-y+1/3, z+1/3'
'x+1/3, y+2/3, z+2/3'
'-y+1/3, x-y+2/3, z+2/3'
'-x+y+1/3, -x+2/3, z+2/3'
'-y+1/3, -x+2/3, z+2/3'
'-x+y+1/3, y+2/3, z+2/3'
'x+1/3, x-y+2/3, z+2/3'
'-x, -y, -z'
'y, -x+y, -z'
'x-y, x, -z'
'y, x, -z'
'x-y, -y, -z'
'-x, -x+y, -z'
'-x+2/3, -y+1/3, -z+1/3'
'y+2/3, -x+y+1/3, -z+1/3'
'x-y+2/3, x+1/3, -z+1/3'
'y+2/3, x+1/3, -z+1/3'
'x-y+2/3, -y+1/3, -z+1/3'
'-x+2/3, -x+y+1/3, -z+1/3'
'-x+1/3, -y+2/3, -z+2/3'
'y+1/3, -x+y+2/3, -z+2/3'
'x-y+1/3, x+2/3, -z+2/3'
'y+1/3, x+2/3, -z+2/3'
'x-y+1/3, -y+2/3, -z+2/3'
'-x+1/3, -x+y+2/3, -z+2/3'
loop_
_atom_site_label
_atom_site_type_symbol
_atom_site_fract_x
_atom_site_fract_y
_atom_site_fract_z
_atom_site_U_iso_or_equiv
_atom_site_adp_type
_atom_site_occupancy
_atom_site_site_symmetry_order
_atom_site_calc_flag
_atom_site_refinement_flags_posn
_atom_site_refinement_flags_adp
_atom_site_refinement_flags_occupancy
Pb1 Pb 0.0000 0.0000 0.21510(2) 0.0195(3) Uani 1 6 d S T P
Pb2 Pb 0.91643(19) -0.91643(19) 0.00118(9) 0.0245(5) Uani 0.1667 2 d S T P
O1 O 0.8084(6) -0.8084(6) -0.0995(3) 0.0218(12) Uani 1 2 d S T P
OH O 0.0000 0.0000 0.3114(5) 0.048(4) Uani 1 6 d S T P
C1 C 0.3333 -0.3333 0.2337(6) 0.020(3) Uani 1 6 d S T P
loop_
_atom_site_aniso_label
_atom_site_aniso_U_11
_atom_site_aniso_U_22
_atom_site_aniso_U_33
_atom_site_aniso_U_23
_atom_site_aniso_U_13
_atom_site_aniso_U_12
Pb1 0.0196(3) 0.0196(3) 0.0194(4) 0.000 0.000 0.00978(16)
Pb2 0.0308(9) 0.0308(9) 0.0217(7) 0.0008(5) -0.0008(5) 0.0228(8)
O1 0.016(2) 0.016(2) 0.040(3) 0.0011(11) -0.0011(11) 0.013(2)
OH 0.062(6) 0.062(6) 0.018(6) 0.000 0.000 0.031(3)
C1 0.016(4) 0.016(4) 0.028(7) 0.000 0.000 0.008(2)
loop_
_atom_type_symbol
_atom_type_description
_atom_type_scat_dispersion_real
_atom_type_scat_dispersion_imag
_atom_type_scat_source
O O 0.0106 0.0060 'International Tables Vol C Tables 4.2.6.8 and 6.1.1.4'
C C 0.0033 0.0016 'International Tables Vol C Tables 4.2.6.8 and 6.1.1.4'
Pb Pb -3.3944 10.1111 'International Tables Vol C Tables 4.2.6.8 and 6.1.1.4'
H H 0.0000 0.0000 'International Tables Vol C Tables 4.2.6.8 and 6.1.1.4'
loop_
_geom_angle_atom_site_label_1
_geom_angle_atom_site_label_2
_geom_angle_atom_site_label_3
_geom_angle
_geom_angle_site_symmetry_1
_geom_angle_site_symmetry_3
OH Pb1 O1 80.44(14) . 7_465
OH Pb1 O1 80.44(14) . 7_355
O1 Pb1 O1 158.5(3) 7_465 7_355
OH Pb1 O1 80.44(14) . 9_665
O1 Pb1 O1 49.4(2) 7_465 9_665
O1 Pb1 O1 117.30(8) 7_355 9_665
OH Pb1 O1 80.44(14) . 8_435
O1 Pb1 O1 68.8(2) 7_465 8_435
O1 Pb1 O1 117.30(8) 7_355 8_435
O1 Pb1 O1 117.30(8) 9_665 8_435
OH Pb1 O1 80.44(14) . 8_335
O1 Pb1 O1 117.30(8) 7_465 8_335
O1 Pb1 O1 49.4(2) 7_355 8_335
O1 Pb1 O1 68.8(2) 9_665 8_335
O1 Pb1 O1 158.5(3) 8_435 8_335
OH Pb1 O1 80.44(14) . 9_655
O1 Pb1 O1 117.30(8) 7_465 9_655
O1 Pb1 O1 68.8(2) 7_355 9_655
O1 Pb1 O1 158.5(3) 9_665 9_655
O1 Pb1 O1 49.4(2) 8_435 9_655
O1 Pb1 O1 117.30(8) 8_335 9_655
OH Pb1 Pb2 39.32(3) . 27_345
O1 Pb1 Pb2 50.16(13) 7_465 27_345
O1 Pb1 Pb2 115.95(14) 7_355 27_345
O1 Pb1 Pb2 79.50(14) 9_665 27_345
O1 Pb1 Pb2 50.16(13) 8_435 27_345
O1 Pb1 Pb2 115.95(14) 8_335 27_345
O1 Pb1 Pb2 79.50(14) 9_655 27_345
OH Pb1 Pb2 39.32(3) . 26_565
O1 Pb1 Pb2 115.95(14) 7_465 26_565
O1 Pb1 Pb2 50.16(13) 7_355 26_565
O1 Pb1 Pb2 115.95(14) 9_665 26_565
O1 Pb1 Pb2 79.50(14) 8_435 26_565
O1 Pb1 Pb2 79.50(14) 8_335 26_565
O1 Pb1 Pb2 50.16(13) 9_655 26_565
Pb2 Pb1 Pb2 66.56(5) 27_345 26_565
OH Pb1 Pb2 39.32(3) . 25_545
O1 Pb1 Pb2 79.50(14) 7_465 25_545
O1 Pb1 Pb2 79.50(14) 7_355 25_545
O1 Pb1 Pb2 50.16(13) 9_665 25_545
O1 Pb1 Pb2 115.95(14) 8_435 25_545
O1 Pb1 Pb2 50.16(13) 8_335 25_545
O1 Pb1 Pb2 115.95(14) 9_655 25_545
Pb2 Pb1 Pb2 66.56(5) 27_345 25_545
Pb2 Pb1 Pb2 66.56(5) 26_565 25_545
Pb2 Pb2 Pb2 119.47(9) 21_435 20_765
Pb2 Pb2 Pb2 90.001(1) 21_435 3_855
Pb2 Pb2 Pb2 30.26(4) 20_765 3_855
Pb2 Pb2 Pb2 30.26(4) 21_435 2_525
Pb2 Pb2 Pb2 90.001(1) 20_765 2_525
Pb2 Pb2 Pb2 60.0 3_855 2_525
Pb2 Pb2 Pb2 59.934(12) 21_435 19_735
Pb2 Pb2 Pb2 59.934(11) 20_765 19_735
Pb2 Pb2 Pb2 30.067(11) 3_855 19_735
Pb2 Pb2 Pb2 30.067(11) 2_525 19_735
Pb2 Pb2 OH 120.19(7) 21_435 25_545
Pb2 Pb2 OH 120.19(7) 20_765 25_545
Pb2 Pb2 OH 147.83(10) 3_855 25_545
Pb2 Pb2 OH 147.83(10) 2_525 25_545
Pb2 Pb2 OH 169.9(4) 19_735 25_545
Pb2 Pb2 O1 97.0(3) 21_435 .
Pb2 Pb2 O1 97.0(3) 20_765 .
Pb2 Pb2 O1 109.25(11) 3_855 .
Pb2 Pb2 O1 109.25(11) 2_525 .
Pb2 Pb2 O1 110.3(2) 19_735 .
OH Pb2 O1 79.8(3) 25_545 .
Pb2 Pb2 Pb1 111.9(3) 21_435 25_545
Pb2 Pb2 Pb1 111.9(3) 20_765 25_545
Pb2 Pb2 Pb1 123.28(3) 3_855 25_545
Pb2 Pb2 Pb1 123.28(3) 2_525 25_545
Pb2 Pb2 Pb1 131.42(19) 19_735 25_545
OH Pb2 Pb1 38.5(3) 25_545 25_545
O1 Pb2 Pb1 118.30(14) . 25_545
C1 O1 Pb2 112.5(8) 13_544 .
C1 O1 Pb1 94.85(16) 13_544 13_534
Pb2 O1 Pb1 96.96(13) . 13_534
C1 O1 Pb1 94.85(16) 13_544 13_644
Pb2 O1 Pb1 96.96(13) . 13_644
Pb1 O1 Pb1 158.5(3) 13_534 13_644
Pb1 OH Pb2 102.2(3) . 27_345
Pb1 OH Pb2 102.2(3) . 26_565
Pb2 OH Pb2 115.7(2) 27_345 26_565
Pb1 OH Pb2 102.2(3) . 25_545
Pb2 OH Pb2 115.7(2) 27_345 25_545
Pb2 OH Pb2 115.7(2) 26_565 25_545
O1 C1 O1 120.000(10) 9_655 8_435
O1 C1 O1 120.000(9) 9_655 7_455
O1 C1 O1 120.000(10) 8_435 7_455
loop_
_geom_bond_atom_site_label_1
_geom_bond_atom_site_label_2
_geom_bond_distance
_geom_bond_site_symmetry_2
Pb1 OH 2.281(12) .
Pb1 O1 2.6706(12) 7_465
Pb1 O1 2.6706(12) 7_355
Pb1 O1 2.6706(12) 9_665
Pb1 O1 2.6706(12) 8_435
Pb1 O1 2.6706(12) 8_335
Pb1 O1 2.6706(12) 9_655
Pb1 Pb2 3.583(2) 27_345
Pb1 Pb2 3.583(2) 26_565
Pb1 Pb2 3.583(2) 25_545
Pb2 Pb2 0.7616(18) 21_435
Pb2 Pb2 0.7616(18) 20_765
Pb2 Pb2 1.316(3) 3_855
Pb2 Pb2 1.316(3) 2_525
Pb2 Pb2 1.520(3) 19_735
Pb2 OH 2.323(3) 25_545
Pb2 O1 2.578(7) .
Pb2 Pb1 3.583(2) 25_545
O1 C1 1.288(6) 13_544
O1 Pb1 2.6706(12) 13_534
O1 Pb1 2.6706(12) 13_644
OH Pb2 2.322(3) 27_345
OH Pb2 2.322(3) 26_565
OH Pb2 2.323(3) 25_545
C1 O1 1.288(6) 9_655
C1 O1 1.288(6) 8_435
C1 O1 1.288(6) 7_455

_cod_database_fobs_code 2108231
