#------------------------------------------------------------------------------
#$Date: 2021-09-22 04:47:00 +0300 (Wed, 22 Sep 2021) $
#$Revision: 269240 $
#$URL: file:///home/coder/svn-repositories/cod/cif/2/10/88/2108885.cif $
#------------------------------------------------------------------------------
#
# This file is available in the Crystallography Open Database (COD),
# http://www.crystallography.net/. The original data for this entry
# were provided by IUCr Journals, http://journals.iucr.org/.
#
# The file may be used within the scientific community so long as
# proper attribution is given to the journal article from which the
# data were obtained.
#
data_2108885
loop_
_publ_author_name
'Novelli, Giulia'
'McMonagle, Charles J.'
'Kleemiss, Florian'
'Probert, Michael'
'Puschmann, Horst'
'Grabowsky, Simon'
'Maynard-Casely, Helen E.'
'McIntyre, Garry J.'
'Parsons, Simon'
_publ_section_title
;
 Accurate H-atom parameters for the two polymorphs of
 <small>L</small>-histidine at 5, 105 and 295K
;
_journal_issue                   5
_journal_name_full               'Acta Crystallographica Section B'
_journal_page_first
;
;
_journal_paper_doi               10.1107/S205252062100740X
_journal_volume                  77
_journal_year                    2021
_chemical_absolute_configuration syn
_chemical_formula_moiety         'C6 H9 N3 O2'
_chemical_formula_sum            'C6 H9 N3 O2'
_chemical_formula_weight         155.157
_space_group_crystal_system      orthorhombic
_space_group_IT_number           19
_space_group_name_Hall           'P 2ac 2ab'
_space_group_name_H-M_alt        'P 21 21 21'
_symmetry_Int_Tables_number      19
_audit_creation_date             2021-01-27
_audit_creation_method
;
Olex2 1.3
(compiled 2020.11.12 svn.r5f609507 for OlexSys, GUI svn.r6226)
;
_cell_angle_alpha                90
_cell_angle_beta                 90
_cell_angle_gamma                90
_cell_formula_units_Z            4
_cell_length_a                   5.1498(2)
_cell_length_b                   7.1902(2)
_cell_length_c                   18.8503(6)
_cell_measurement_reflns_used    7499
_cell_measurement_temperature    5
_cell_measurement_theta_max      36.27
_cell_measurement_theta_min      3.03
_cell_volume                     697.99(4)
_computing_cell_refinement       'SAINT V8.38A (?, 2016)'
_computing_data_reduction        'SAINT V8.38A (?, 2016)'
_computing_molecular_graphics    'Olex2 (Dolomanov et al., 2009)'
_computing_publication_material  'Olex2 (Dolomanov et al., 2009)'
_computing_structure_refinement  'ShelXL (Sheldrick, 2015)'
_computing_structure_solution    'ShelXT (Sheldrick, 2015)'
_diffrn_ambient_temperature      5
_diffrn_measured_fraction_theta_full 0.9565
_diffrn_measured_fraction_theta_max 0.8485
_diffrn_measurement_device       'XIPHOS four-circle diffractometer'
_diffrn_measurement_device_type  'Bruker APEX-II CCD'
_diffrn_measurement_method       '\f scans'
_diffrn_radiation_collimation    focused
_diffrn_radiation_monochromator  'multilayer optics'
_diffrn_radiation_probe          x-ray
_diffrn_radiation_type           'Mo K\a'
_diffrn_radiation_wavelength     0.71073
_diffrn_reflns_av_R_equivalents  0.0274
_diffrn_reflns_av_unetI/netI     0.0247
_diffrn_reflns_Laue_measured_fraction_full 0.9565
_diffrn_reflns_Laue_measured_fraction_max 0.8485
_diffrn_reflns_limit_h_max       8
_diffrn_reflns_limit_h_min       -8
_diffrn_reflns_limit_k_max       10
_diffrn_reflns_limit_k_min       -10
_diffrn_reflns_limit_l_max       28
_diffrn_reflns_limit_l_min       -28
_diffrn_reflns_number            13716
_diffrn_reflns_point_group_measured_fraction_full 0.9677
_diffrn_reflns_point_group_measured_fraction_max 0.8640
_diffrn_reflns_theta_full        25.2417
_diffrn_reflns_theta_max         36.33
_diffrn_reflns_theta_min         3.03
_diffrn_source                   'rotating anode'
_diffrn_source_target            Mo
_diffrn_source_type              'Bruker TXS with Helios Optics'
_exptl_absorpt_coefficient_mu    0.114
_exptl_absorpt_correction_T_max  0.7471
_exptl_absorpt_correction_T_min  0.6821
_exptl_absorpt_correction_type   multi-scan
_exptl_absorpt_process_details
;
 SADABS 2016/2: Krause, L., Herbst-Irmer, R., Sheldrick G.M. & Stalke D.,
 J. Appl. Cryst. 48 (2015) 3-10
;
_exptl_crystal_colour            colourless
_exptl_crystal_density_diffrn    1.477
_exptl_crystal_description       needle
_exptl_crystal_F_000             328.072
_exptl_crystal_size_max          0.2
_exptl_crystal_size_mid          0.1
_exptl_crystal_size_min          0.1
_refine_diff_density_max         0.1695
_refine_diff_density_min         -0.1297
_refine_diff_density_rms         0.0369
_refine_ls_abs_structure_details
'Flack, H. D. (1983). Acta Cryst. A39, 876-881.'
_refine_ls_abs_structure_Flack   0.1(7)
_refine_ls_d_res_high            0.5999
_refine_ls_d_res_low             6.7181
_refine_ls_goodness_of_fit_ref   1.1312
_refine_ls_hydrogen_treatment    refall
_refine_ls_matrix_type           full
_refine_ls_number_constraints    0
_refine_ls_number_parameters     181
_refine_ls_number_reflns         2928
_refine_ls_number_restraints     99
_refine_ls_restrained_S_all      1.1114
_refine_ls_R_factor_all          0.0219
_refine_ls_R_factor_gt           0.0191
_refine_ls_shift/su_max          0.0001
_refine_ls_shift/su_mean         0.0000
_refine_ls_structure_factor_coef Fsqd
_refine_ls_weighting_details
'w=1/[\s^2^(Fo^2^)+(0.0100P)^2^] where P=(Fo^2^+2Fc^2^)/3'
_refine_ls_weighting_scheme      calc
_refine_ls_wR_factor_gt          0.0316
_refine_ls_wR_factor_ref         0.0322
_reflns_Friedel_coverage         0.886
_reflns_limit_h_max              8
_reflns_limit_h_min              -8
_reflns_limit_k_max              10
_reflns_limit_k_min              -10
_reflns_limit_l_max              28
_reflns_limit_l_min              -28
_reflns_number_gt                2768
_reflns_number_total             2928
_reflns_threshold_expression     I>=2u(I)
_iucr_refine_instructions_details
;
TITL ortho_5k_xray_0m_a.res in P2(1)2(1)2(1)
REM Old TITL Ortho_5K_xray_0m in P2(1)2(1)2(1)
REM SHELXT solution in P2(1)2(1)2(1)
REM R1 0.098, Rweak 0.022, Alpha 0.001, Orientation as input
REM Flack x = -0.272 ( 0.324 ) from Parsons' quotients
REM Formula found by SHELXT: C8 N O2
CELL 0.71073 5.1498 7.1902 18.8502 90 90 90
ZERR 4 0.0002 0.0002 0.0006 0 0 0
LATT -1
SYMM 0.5-X,-Y,0.5+Z
SYMM -X,0.5+Y,0.5-Z
SYMM 0.5+X,0.5-Y,-Z
SFAC C H N O
DISP C 0.0021 0.0016 11.5003
DISP H 0 0 0.624
DISP N 0.0041 0.0033 19.5955
DISP O 0.0079 0.0061 32.4922
UNIT 24 36 12 8
EQIV $1 1+X,+Y,+Z
EQIV $2 1-X,-0.5+Y,0.5-Z
EQIV $3 1.5-X,1-Y,0.5+Z
RIGU H5 H3 H6 C4 N2 C5 N3 C6
RIGU H1A H1B H1C N1
RIGU H3A C3 H3B C2 H2

L.S. 99
PLAN  1
TEMP -268.14
CONF
HTAB N1 O2_$1
HTAB N1 O2_$2
HTAB N1 N2
HTAB N3 O1_$3
BOND $H
MORE -1
fmap 2 53
acta 
LIST -6
OMIT 0 0 12
OMIT 0 1 4
OMIT 2 0 0
WGHT 0.009956 0
FVAR 0.697935
REM <olex2.extras>
REM <HklSrc "%.\\HOTX21.hkl">
REM </olex2.extras>

O2    4     0.32523  0.49519  0.23975  11.00000  0.00482  0.00938  0.00712 =
 0.00189 -0.00049  0.00064 
O1    4     0.73277  0.49178  0.19748  11.00000  0.00583  0.01196  0.00459 =
 0.00142  0.00017 -0.00016 
N1    3     0.91743  0.31183  0.31202  11.00000  0.00558  0.00680  0.00580 =
 -0.00024 -0.00005  0.00100 
H1B   2     1.03602  0.37599  0.27690  11.00000  0.00633  0.02128  0.02395 =
 0.01172  0.00707  0.00904 
H1A   2     1.00807  0.31171  0.36007  11.00000  0.01518  0.02028  0.01609 =
 0.00179 -0.00599 -0.00267 
H1C   2     0.87527  0.18140  0.29586  11.00000  0.02674  0.01267  0.02216 =
 -0.00550 -0.00345 -0.00433 
N3    3     0.86938  0.50331  0.55327  11.00000  0.00740  0.00818  0.00394 =
 0.00013  0.00015  0.00061 
H3    2     0.84651  0.50586  0.60684  11.00000  0.03283  0.01491  0.00404 =
 0.00184 -0.00068  0.01143 
N2    3     1.03202  0.43924  0.44704  11.00000  0.00622  0.00828  0.00463 =
 -0.00033 -0.00029  0.00177 
C4    1     0.80291  0.53935  0.43875  11.00000  0.00607  0.00598  0.00412 =
 -0.00002 -0.00079  0.00091 
C1    1     0.56621  0.47000  0.24536  11.00000  0.00472  0.00584  0.00474 =
 -0.00005 -0.00039  0.00020 
C2    1     0.66640  0.41387  0.31927  11.00000  0.00474  0.00611  0.00425 =
 0.00045 -0.00034  0.00002 
H2    2     0.52557  0.32015  0.34285  11.00000  0.01446  0.01062  0.02667 =
 0.00705 -0.00219 -0.00222 
C6    1     0.70071  0.57917  0.50444  11.00000  0.00628  0.00772  0.00477 =
 -0.00053  0.00000  0.00128 
H6    2     0.53153  0.65532  0.51897  11.00000  0.01808  0.02539  0.02166 =
 0.00195  0.00491  0.00814 
C5    1     1.06292  0.42054  0.51647  11.00000  0.00626  0.00819  0.00537 =
 0.00041 -0.00092  0.00135 
H5    2     1.21821  0.34874  0.54123  11.00000  0.01882  0.02654  0.01705 =
 0.00417 -0.00157  0.00822 
C3    1     0.70255  0.58731  0.36630  11.00000  0.00775  0.00614  0.00530 =
 -0.00034 -0.00100  0.00107 
H3B   2     0.52230  0.65533  0.37056  11.00000  0.02247  0.02059  0.02992 =
 -0.00031 -0.00221  0.00854 
H3A   2     0.83079  0.68523  0.33886  11.00000  0.02268  0.02178  0.01646 =
 0.00061 -0.00005 -0.00712 
HKLF 4

END
Q1 1 1 0.433333 0.4875 11 0.05 0.17

  REM The information below was added by Olex2.
  REM
  REM R1 = 0.0191 for 2768 Fo > 4sig(Fo) and 0.0219 for all 2928 data
  REM 181 parameters refined using 99 restraints
  REM Highest difference peak 0.1695, deepest hole -0.1297
  REM Mean Shift 0.0000, Max Shift 0.0001.

  REM +++ Tabular Listing of Refinement Information +++
  REM R1_all = 0.0219
  REM R1_gt = 0.0191
  REM wR_ref = 0.0322
  REM GOOF = 1.1312
  REM Shift_max = 0.0001
  REM Shift_mean = 0.0000
  REM Reflections_all = 2928
  REM Reflections_gt = 2768
  REM Parameters = 181
  REM Hole = -0.1297
  REM Peak = 0.1695
  REM Flack = 0.1(7)

  
;
_cod_data_source_file            um5050sup1.cif
_cod_data_source_block           HOTX21
_cod_original_sg_symbol_Hall     ' P 2ac 2ab'
_cod_database_code               2108885
_shelx_shelxl_version_number     2017/1
_olex2_refinement_description
;
1. Rigid body (RIGU) restrains
 H5, H3, H6, C4, N2, C5, N3, C6
 with sigma for 1-2 distances of 0.004 and sigma for 1-3 distances of 0.004
 H3A, C3, H3B, C2, H2
 with sigma for 1-2 distances of 0.004 and sigma for 1-3 distances of 0.004
 H1A, H1B, H1C, N1
 with sigma for 1-2 distances of 0.004 and sigma for 1-3 distances of 0.004
;
_olex2_submission_special_instructions 'No special instructions were received'
loop_
_space_group_symop_id
_space_group_symop_operation_xyz
1 x,y,z
2 x+1/2,-y+1/2,-z
3 -x,y+1/2,-z+1/2
4 -x+1/2,-y,z+1/2
loop_
_atom_site_label
_atom_site_type_symbol
_atom_site_fract_x
_atom_site_fract_y
_atom_site_fract_z
_atom_site_U_iso_or_equiv
_atom_site_adp_type
_atom_site_occupancy
_atom_site_refinement_flags_posn
_atom_site_refinement_flags_adp
O2 O 0.32523(5) 0.49519(5) 0.239747(17) 0.00711(7) Uani 1.000000 . .
O1 O 0.73277(5) 0.49178(6) 0.197479(17) 0.00746(7) Uani 1.000000 . .
N1 N 0.91743(7) 0.31183(6) 0.31202(2) 0.00606(7) Uani 1.000000 . U
N3 N 0.86938(6) 0.50331(6) 0.55327(2) 0.00651(7) Uani 1.000000 . U
N2 N 1.03202(6) 0.43924(6) 0.44704(2) 0.00638(7) Uani 1.000000 . U
C4 C 0.80291(7) 0.53935(6) 0.43875(2) 0.00539(8) Uani 1.000000 . U
C1 C 0.56621(7) 0.47000(7) 0.24536(2) 0.00510(8) Uani 1.000000 . .
C2 C 0.66640(7) 0.41387(7) 0.31927(2) 0.00504(8) Uani 1.000000 . U
C6 C 0.70071(8) 0.57917(7) 0.50444(2) 0.00626(8) Uani 1.000000 . U
C5 C 1.06292(8) 0.42054(7) 0.51647(2) 0.00661(8) Uani 1.000000 . U
C3 C 0.70255(8) 0.58731(7) 0.36630(2) 0.00640(8) Uani 1.000000 . U
H1B H 1.0360(14) 0.3760(12) 0.2769(4) 0.0172(19) Uani 1.000000 . U
H1C H 0.8753(15) 0.1814(12) 0.2959(4) 0.0205(19) Uani 1.000000 . U
H1A H 1.0081(14) 0.3117(11) 0.3601(4) 0.0172(19) Uani 1.000000 . U
H3 H 0.8465(14) 0.5059(12) 0.6068(4) 0.0173(19) Uani 1.000000 . U
H2 H 0.5256(12) 0.3202(10) 0.3429(4) 0.0172(17) Uani 1.000000 . U
H6 H 0.5315(13) 0.6553(10) 0.5190(4) 0.0217(18) Uani 1.000000 . U
H5 H 1.2182(12) 0.3487(10) 0.5412(3) 0.0208(18) Uani 1.000000 . U
H3A H 0.8308(14) 0.6852(11) 0.3389(4) 0.0203(18) Uani 1.000000 . U
H3B H 0.5223(14) 0.6553(10) 0.3706(4) 0.0243(19) Uani 1.000000 . U
loop_
_atom_site_aniso_label
_atom_site_aniso_U_11
_atom_site_aniso_U_22
_atom_site_aniso_U_33
_atom_site_aniso_U_12
_atom_site_aniso_U_13
_atom_site_aniso_U_23
O2 0.00482(10) 0.00938(18) 0.00712(15) 0.00064(13) -0.00049(10) 0.00189(12)
O1 0.00583(10) 0.01196(18) 0.00459(15) -0.00016(12) 0.00017(10) 0.00142(12)
N1 0.00558(13) 0.0068(2) 0.00580(19) 0.00100(14) -0.00005(13) -0.00024(14)
N3 0.00740(12) 0.0082(2) 0.00394(18) 0.00061(14) 0.00015(11) 0.00013(14)
N2 0.00622(11) 0.0083(2) 0.00463(19) 0.00177(12) -0.00029(12) -0.00033(13)
C4 0.00607(12) 0.0060(2) 0.0041(2) 0.00091(14) -0.00079(13) -0.00002(14)
C1 0.00472(13) 0.0058(2) 0.0047(2) 0.00020(14) -0.00039(14) -0.00005(14)
C2 0.00474(13) 0.0061(2) 0.0043(2) 0.00002(15) -0.00034(13) 0.00045(15)
C6 0.00628(14) 0.0077(2) 0.0048(2) 0.00128(15) 0.00000(13) -0.00053(15)
C5 0.00626(14) 0.0082(2) 0.0054(2) 0.00135(16) -0.00092(14) 0.00041(15)
C3 0.00775(14) 0.0061(2) 0.0053(2) 0.00107(16) -0.00100(14) -0.00034(15)
H1B 0.006(3) 0.021(5) 0.024(4) 0.009(2) 0.007(2) 0.012(2)
H1C 0.027(4) 0.013(3) 0.022(4) -0.0043(19) -0.003(3) -0.0055(19)
H1A 0.015(4) 0.020(5) 0.016(3) -0.003(3) -0.0060(17) 0.0018(19)
H3 0.033(4) 0.015(5) 0.004(3) 0.011(4) -0.0007(16) 0.0018(17)
H2 0.014(3) 0.011(4) 0.027(4) -0.002(2) -0.002(2) 0.007(2)
H6 0.018(3) 0.025(5) 0.022(4) 0.008(2) 0.005(2) 0.002(3)
H5 0.019(3) 0.027(5) 0.017(4) 0.008(2) -0.002(2) 0.004(2)
H3A 0.023(3) 0.022(4) 0.016(4) -0.007(2) -0.000(2) 0.001(2)
H3B 0.022(3) 0.021(4) 0.030(5) 0.0085(18) -0.002(2) -0.000(3)
loop_
_atom_type_symbol
_atom_type_scat_dispersion_real
_atom_type_scat_dispersion_imag
_atom_type_scat_source
_atom_type_scat_dispersion_source
H 0.00000 0.00000 'NoSpherA2: Chem.Sci. 2021, DOI:10.1039/D0SC05526C' custom
C 0.00210 0.00160 'NoSpherA2: Chem.Sci. 2021, DOI:10.1039/D0SC05526C' custom
O 0.00790 0.00610 'NoSpherA2: Chem.Sci. 2021, DOI:10.1039/D0SC05526C' custom
N 0.00410 0.00330 'NoSpherA2: Chem.Sci. 2021, DOI:10.1039/D0SC05526C' custom
loop_
_diffrn_refln_index_h
_diffrn_refln_index_k
_diffrn_refln_index_l
_diffrn_refln_intensity_net
_diffrn_refln_intensity_u
-1 0 0 0.2 0.1
1 0 0 0 0.2
1 0 0 -0.3 0.1
-1 0 0 0.1 0.2
2 0 0 431.36 8.8
-2 0 0 423.76 9.9
-2 0 0 441.66 8.8
2 0 0 420.76 9.8
3 0 0 0.1 1
3 0 0 0.6 0.8
3 0 0 1.6 0.4
3 0 0 -1.1 0.5
-3 0 0 0.3 0.3
-3 0 0 -0.6 0.9
-3 0 0 -0.5 0.7
-3 0 0 -0.1 0.4
4 0 0 6.2 1
-4 0 0 6.3 0.9
-4 0 0 6.1 0.9
4 0 0 4.9 0.7
-5 0 0 0.7 0.6
5 0 0 0.5 0.5
5 0 0 -0.4 0.7
-5 0 0 0.5 0.6
-6 0 0 1.4 1
6 0 0 0.3 0.8
6 0 0 1 1.1
-6 0 0 0.7 0.9
-7 0 0 0.3 1
7 0 0 -1.6 1.2
-7 0 0 -0.1 1.2
7 0 0 0.8 0.8
8 0 0 182.28 5.7
8 0 0 178.38 7.3
-8 0 0 181.28 6.4
-8 0 0 184.08 5.6
0 1 0 0.1 0.1
0 -1 0 0 0.1
0 -1 0 0.4 0.3
0 1 0 -0.1 0.1
1 1 0 3843.52 59.29
1 -1 0 3768.12 59.59
1 -1 0 3817.72 58.39
-1 -1 0 3854.31 59.99
1 1 0 3927.01 122.09
-1 1 0 3854.81 60.29
-1 1 0 3782.82 58.29
-1 -1 0 3771.42 58.29
-2 -1 0 4.6 1.2
2 -1 0 5 0.9
2 1 0 6.6 1.3
2 1 0 6.3 1
-2 -1 0 6.4 1.1
-2 1 0 6.4 1
2 -1 0 8.2 1.5
-2 1 0 4.3 1.1
3 -1 0 184.38 3.8
-3 1 0 184.98 7.2
-3 -1 0 195.88 5.9
-3 -1 0 191.38 3.8
3 1 0 198.38 4.5
3 -1 0 184.18 6.1
-3 1 0 187.88 4.2
-3 1 0 195.88 3.8
3 -1 0 186.98 7.3
-3 -1 0 193.28 4.1
3 1 0 196.38 7.1
3 1 0 192.88 6.1
-3 1 0 199.18 6
3 -1 0 194.48 4.5
-3 -1 0 192.08 7.1
4 1 0 -0.3 0.5
4 1 0 -0.4 0.5
-4 -1 0 0 0.6
-4 1 0 0.1 0.6
-4 -1 0 0 0.5
4 -1 0 -0.1 0.7
-4 1 0 0.3 0.4
4 -1 0 0.1 0.5
5 1 0 0 0.8
5 -1 0 0.4 0.6
5 1 0 0.2 0.6
-5 -1 0 0.3 0.7
-5 1 0 0.7 0.7
-5 1 0 0.4 0.6
-5 -1 0 0.7 0.7
5 -1 0 0.7 1
-6 1 0 0.1 0.7
6 1 0 -0.7 0.5
6 -1 0 -0.3 1.2
6 -1 0 1.1 0.7
-6 -1 0 0.7 1.1
-6 1 0 0.3 0.6
6 1 0 0 0.8
-6 -1 0 1.8 1.1
7 -1 0 27 3.3
-7 1 0 31.3 2.6
7 1 0 25.9 2.7
-7 -1 0 21.7 2.5
-7 -1 0 26.2 2.4
7 1 0 26.8 2.1
-7 1 0 26.4 2
7 -1 0 28.7 2.2
8 -1 0 32.6 3.8
8 -1 0 37.6 2.8
8 1 0 37.7 2.7
-8 -1 0 36.4 2.9
-8 -1 0 38.5 3.4
-8 1 0 38.8 2.8
-8 1 0 37.5 3.3
8 1 0 33.9 3.5
0 2 0 9987.5 260.77
0 -2 0 9999 220.38
0 -2 0 9546.24 244.88
0 2 0 9795.12 223.28
1 -2 0 641.14 11
1 -2 0 626.84 12.1
-1 -2 0 636.34 11
-1 -2 0 623.04 11.4
1 2 0 629.24 11.4
1 2 0 645.64 11.4
-1 2 0 623.34 12.1
-2 2 0 828.22 16.4
2 -2 0 817.42 13.1
2 -2 0 824.92 14.8
2 2 0 800.72 15.6
-2 2 0 808.32 14.5
-2 -2 0 800.92 14.4
2 -2 0 836.42 16.6
-2 2 0 829.72 12.8
2 2 0 821.22 14.9
-2 2 0 795.72 13.6
-2 -2 0 798.72 15.4
-3 -2 0 82.69 2.4
3 -2 0 78.79 2.2
-3 2 0 78.49 2.5
3 2 0 82.59 2.2
-3 -2 0 80.79 3.8
3 -2 0 85.89 2.9
-3 2 0 81.99 2.2
3 2 0 84.19 3.9
-3 -2 0 78.29 4.4
3 2 0 88.59 4.6
4 2 0 16.2 1.5
-4 -2 0 16.9 1.3
-4 -2 0 17.8 1.3
-4 2 0 16.3 1.4
-4 2 0 17.6 1.1
4 -2 0 17.8 1.7
4 2 0 18 1.1
4 -2 0 18.3 1.3
-5 -2 0 4.1 1
-5 2 0 2.5 0.7
5 2 0 2.7 0.7
5 -2 0 3.3 0.9
-5 2 0 3.4 1
5 2 0 1.6 1.1
-5 -2 0 2.1 1
5 -2 0 3.3 1.4
-6 2 0 26.6 2.1
6 -2 0 28.8 2.9
-6 2 0 27 1.8
6 2 0 25.2 1.9
6 -2 0 25.9 2
-6 -2 0 25.5 2.5
-6 -2 0 28.2 2.3
6 2 0 28.5 2.4
-7 2 0 59.19 2.9
-7 2 0 66.29 3.6
-7 -2 0 58.89 3.2
7 2 0 54.69 3.7
7 -2 0 63.79 3.2
7 -2 0 57.29 4.5
7 2 0 59.39 3
-7 -2 0 66.39 3.8
8 -2 0 36.8 3.2
8 -2 0 34.5 4.3
-8 2 0 36.6 3.3
8 2 0 34.8 3.1
-8 2 0 40.9 2.6
-8 -2 0 34.7 3.6
8 2 0 38.6 3.5
-8 -2 0 37 2.8
0 3 0 0.2 0.3
0 -3 0 -0.1 0.6
0 -3 0 0.1 0.4
0 3 0 0.8 0.7
1 -3 0 173.58 4.6
1 3 0 177.18 5.1
-1 3 0 173.88 5.6
1 3 0 174.38 5.3
-1 -3 0 172.78 4.8
-1 3 0 177.08 4.6
-1 -3 0 175.68 4.7
1 -3 0 174.68 5.7
-2 -3 0 279.27 6.9
2 -3 0 288.67 7.3
-2 3 0 286.07 8.5
2 3 0 298.47 7.7
-2 3 0 280.97 5.4
2 -3 0 279.47 5.7
2 3 0 279.97 7.9
-2 -3 0 292.77 8
-2 3 0 279.57 4.9
2 -3 0 280.27 8.6
3 -3 0 107.89 3.6
3 3 0 107.89 5.6
3 -3 0 104.79 2.7
3 3 0 116.29 3.2
-3 -3 0 99.59 5.2
3 3 0 105.19 2.7
-3 -3 0 107.69 2.7
-3 3 0 106.29 2.6
3 3 0 101.59 4.8
-3 3 0 107.09 3.1
-3 -3 0 100.99 4.4
-3 -3 0 106.69 2.7
-4 -3 0 202.18 4.7
-4 -3 0 205.28 4.5
-4 3 0 197.08 5
4 -3 0 205.58 4.7
4 3 0 199.48 5.1
4 3 0 201.88 4.5
-4 3 0 192.78 4.4
5 -3 0 8.4 1.5
5 3 0 9.2 1.6
-5 3 0 6.5 1
-5 3 0 8.1 1.4
-5 -3 0 8.7 1.4
5 -3 0 6.2 1.9
-5 -3 0 6.5 1.4
5 3 0 7.5 1.1
6 -3 0 5.2 1.4
-6 3 0 5.5 1
6 -3 0 4.2 2.1
-6 3 0 5.6 1.4
6 3 0 6 1.5
6 3 0 3 1.1
-6 -3 0 5.2 1.4
-6 -3 0 5.8 1.7
7 -3 0 36.2 4.1
-7 3 0 37.4 2.2
7 -3 0 38.3 2.9
-7 -3 0 41.8 3.3
-7 -3 0 35.3 2.7
-7 3 0 39.5 2.8
7 3 0 33.1 2.6
7 3 0 36.3 3
8 -3 0 29.6 4.4
8 3 0 35.9 3.4
8 3 0 44.9 3.1
8 -3 0 34.7 3.3
-8 3 0 38.5 3.1
-8 -3 0 31 3.1
-8 -3 0 34.1 3.4
-8 3 0 30.4 2.5
0 4 0 672.23 12.7
0 4 0 683.93 13.9
0 -4 0 682.53 12.2
0 -4 0 659.53 14.1
-1 -4 0 0.4 0.8
-1 4 0 0.3 0.4
-1 4 0 1.3 1.1
-1 4 0 -0.8 0.7
1 -4 0 -2.9 1.2
1 4 0 1.9 1.1
1 4 0 0.5 0.8
-1 -4 0 0.5 1.3
2 4 0 128.59 5.3
2 -4 0 128.39 6.2
2 4 0 121.79 5.2
2 -4 0 126.29 3.6
-2 4 0 124.19 2.7
-2 4 0 125.19 5.9
-2 -4 0 123.09 4.7
2 4 0 129.09 2.9
-2 -4 0 124.89 2.9
-2 -4 0 128.99 4.9
-2 4 0 126.49 3.2
2 -4 0 120.79 5.1
2 4 0 124.49 3.3
-2 -4 0 119.79 2.7
-3 -4 0 61.39 2
-3 4 0 57.49 2.3
-3 -4 0 53.89 2.2
3 -4 0 51.89 2.1
3 4 0 60.79 2.4
3 -4 0 54.99 2.9
-3 4 0 58.49 1.9
3 4 0 60.89 2
-4 4 0 7 1.2
-4 4 0 5.1 0.8
4 4 0 4.9 1
-4 -4 0 4.9 1.1
4 -4 0 9.3 2.2
-4 -4 0 6.5 1.2
4 -4 0 6.4 1.4
4 4 0 5.8 0.8
-5 -4 0 38.8 2.5
5 -4 0 44.1 2.7
5 -4 0 41 3.9
5 4 0 41.6 2.2
-5 4 0 42.9 2
5 4 0 45 2.6
-5 -4 0 44.1 2.5
-5 4 0 43.1 2.5
6 -4 0 3.9 2.5
-6 4 0 3.6 1.2
6 4 0 1.9 1
-6 -4 0 2.1 1.3
6 4 0 3.5 1
-6 4 0 1.8 0.8
-6 -4 0 1.6 1.4
6 -4 0 3.2 1.6
7 -4 0 1.5 1.4
-7 4 0 0.9 0.9
7 -4 0 -0.2 2.6
-7 4 0 -0.3 1
0 -5 0 -0.3 1.6
0 5 0 2.3 1
0 -5 0 1.9 0.6
0 -5 0 3.7 1.1
0 5 0 4.3 1.2
-1 -5 0 2.8 1.7
1 5 0 3.7 2
-1 5 0 2 0.6
-1 -5 0 1.6 0.5
1 -5 0 0.7 1.2
-1 -5 0 2.7 1.2
1 5 0 2.3 0.6
1 5 0 3.3 0.7
-1 -5 0 4.3 1.1
1 5 0 3.1 1.2
-1 5 0 0.8 1.3
-1 5 0 2.7 1
1 -5 0 3.4 2.5
2 5 0 130.19 3.7
-2 5 0 135.49 3.5
-2 -5 0 136.49 2.9
2 -5 0 140.49 4.4
-2 -5 0 140.19 3.5
2 5 0 139.39 3.2
3 5 0 200.88 5.4
3 5 0 221.88 5.7
-3 -5 0 213.68 5.2
-3 5 0 202.28 5
3 -5 0 212.88 6
-3 5 0 207.28 4.4
-4 5 0 90.29 2.8
-4 5 0 85.09 3.3
4 -5 0 78.99 4.5
4 -5 0 86.99 3.4
-5 5 0 189.78 4.8
5 -5 0 195.28 5.3
-5 5 0 193.88 5.6
5 -5 0 185.98 7
6 -5 0 35.5 3
-6 5 0 36.5 2.1
-6 5 0 30.6 2.5
6 -5 0 33.3 4
7 -5 0 109.69 4.7
-7 5 0 110.29 4
7 -5 0 112.99 6.5
-7 5 0 109.59 4.9
1 -6 0 0.1 0.8
-1 6 0 0.6 0.5
1 -6 0 0.4 1.4
-1 6 0 0.5 0.5
2 -6 0 12.2 2.1
-2 6 0 9.3 1.1
-3 6 0 49.1 2.4
3 -6 0 51.19 3.9
-4 6 0 26.3 2.1
4 -6 0 21.7 2.8
4 -6 0 26.2 2.5
-4 6 0 27.9 1.6
-5 6 0 17.3 1.4
5 -6 0 15.5 2.1
5 -6 0 16.4 3
-5 6 0 16.7 1.9
-6 6 0 29.5 2.5
6 -6 0 23.5 2.6
6 -6 0 27.1 3.7
-6 6 0 27.5 1.9
-7 6 0 7 1.8
7 -6 0 8.2 2.2
7 -6 0 11.5 3.3
3 -7 0 68.79 4.4
-3 7 0 67.19 2.9
4 -7 0 11.6 2.7
-4 7 0 13.4 1.8
4 -7 0 16.7 2
-5 7 0 111.49 4.4
5 -7 0 115.79 4.4
5 -7 0 94.39 5.6
-6 7 0 57.89 3.4
6 -7 0 47.2 3.8
6 -7 0 53.19 5.6
-6 7 0 56.29 2.8
0 0 1 0 0.1
0 0 -1 0 0.1
0 0 -1 0 0.1
-1 0 -1 272.47 5
-1 0 1 263.87 5.1
1 0 -1 270.97 5.8
1 0 -1 253.07 5.1
-1 0 -1 257.97 5.6
1 0 1 257.97 5.6
1 0 1 265.97 5
2 0 1 12.1 1.8
-2 0 1 11.8 1.7
2 0 1 16.4 1.4
2 0 -1 8.7 1.5
2 0 -1 12.8 1.3
-2 0 1 14.6 1.4
-2 0 -1 12.8 1.9
-2 0 -1 15.8 1.4
-3 0 -1 664.83 15.2
3 0 -1 693.83 13.9
-3 0 1 649.54 13.4
-3 0 -1 678.43 11
3 0 1 677.83 13.6
-3 0 1 685.43 15.4
-3 0 -1 671.73 10.5
3 0 1 668.33 10.6
3 0 -1 666.33 11.4
-3 0 -1 664.23 13.3
3 0 1 668.43 11.3
3 0 -1 658.33 10.5
3 0 -1 663.43 15.3
-3 0 1 677.63 11
3 0 1 640.54 15.1
4 0 -1 19.1 1.2
-4 0 1 21.2 1.3
4 0 -1 18 1.5
-4 0 -1 21.4 1.3
-4 0 1 19 1.3
4 0 1 19.4 1.2
-4 0 -1 20.3 1.4
4 0 1 20.1 1.6
5 0 1 97.59 3.8
5 0 1 97.79 2.9
5 0 -1 97.89 3
5 0 -1 94.79 3.8
-5 0 -1 98.59 3.4
-5 0 1 96.09 3.4
-5 0 -1 98.79 2.9
-5 0 1 99.09 3
-6 0 1 139.59 4
6 0 1 139.19 4.1
-6 0 -1 128.39 4.5
-6 0 -1 140.19 4
6 0 -1 140.39 4.2
6 0 -1 131.89 5
6 0 1 136.79 5.1
-6 0 1 137.69 4.6
-7 0 1 2.5 1.1
7 0 1 2 1.4
7 0 -1 1.4 0.9
-7 0 -1 1.9 1.2
-7 0 1 0.3 1.2
7 0 -1 1.8 1.5
-7 0 -1 0 1.3
7 0 1 0.9 1
8 0 -1 6.9 1.8
8 0 1 17 1.8
-8 0 -1 11 1.8
8 0 -1 10.4 2.6
-8 0 -1 12.7 2.2
-8 0 1 11.7 1.9
-8 0 1 14.4 2.5
8 0 1 12.6 2.6
0 -1 1 54.69 1.9
0 -1 1 54.49 1.5
0 1 -1 48.9 1.8
0 1 -1 50.99 1.5
0 -1 -1 56.59 1.4
1 -1 1 1285.77 19.8
1 1 -1 1258.07 20.7
-1 1 1 1251.17 19.7
-1 1 1 1318.07 20.8
1 1 -1 1334.37 21.9
-1 -1 -1 1266.87 19.7
-1 -1 -1 1311.07 20.8
1 -1 1 1293.37 21
-1 -1 1 1285.27 20.5
1 -1 -1 1311.67 20.8
-1 1 -1 1275.37 20.9
1 1 1 1261.07 19.8
1 -1 -1 1317.77 19.8
-1 -1 1 1267.07 20.5
1 1 1 1307.17 20.7
2 -1 1 358.96 7.8
-2 1 1 361.86 7.7
2 1 -1 356.26 8.8
-2 -1 -1 358.86 8.5
2 -1 1 351.96 9
-2 -1 -1 360.96 7.5
2 1 -1 362.76 7.9
-2 1 1 351.66 8.8
-2 -1 1 359.56 7.7
2 1 1 363.16 7.7
-2 1 -1 366.96 9.1
2 -1 -1 356.86 7.8
-2 1 -1 349.17 7.6
2 1 1 345.77 8.5
2 -1 -1 363.86 9
3 -1 1 140.79 5.3
-3 -1 -1 136.29 5.8
3 1 -1 133.19 5.8
-3 1 1 129.79 3.3
-3 -1 -1 135.29 4.8
-3 -1 -1 129.89 3.2
3 -1 1 134.09 3
3 1 -1 129.99 5
-3 1 1 140.39 6.2
-3 1 1 125.79 4.9
-3 1 1 131.59 2.9
3 -1 1 133.69 6.3
3 1 -1 133.39 3.6
3 -1 1 138.99 3.6
-3 -1 -1 132.49 2.9
3 -1 -1 137.79 5.3
3 -1 -1 139.19 3.7
-3 1 -1 130.59 4.9
3 1 1 131.39 4.9
3 1 1 129.49 2.9
-3 1 -1 134.49 2.9
-3 -1 1 130.89 4.8
-3 1 -1 125.29 5.9
3 1 1 132.19 3.5
3 -1 -1 134.19 3
3 1 1 132.09 5.8
-3 -1 1 126.39 5.8
-3 1 -1 133.49 3.3
-3 -1 1 131.69 3.2
-3 -1 1 132.99 3
3 -1 -1 140.79 6.4
-4 1 1 20.5 1.4
4 1 -1 17.2 1.2
4 -1 1 19.9 1.2
-4 1 1 18.5 1.2
-4 -1 -1 18.4 1.2
-4 -1 -1 20.7 1.4
4 1 -1 19.5 1.6
4 -1 1 17.5 1.6
-4 1 -1 18.2 1.3
-4 -1 1 20.2 1.3
4 1 1 20.5 1.2
4 -1 -1 19.3 1.6
4 -1 -1 18.1 1.2
-4 1 -1 18.6 1.1
-4 -1 1 19.2 1.5
4 1 1 16.6 1.5
-5 -1 -1 16.4 1.5
-5 1 1 16.3 1.5
5 1 -1 17 1.4
5 -1 1 15.8 1.3
5 -1 1 13.5 1.7
-5 -1 -1 16 1.5
-5 1 1 16.1 1.3
5 1 -1 18.2 2
5 -1 -1 17.2 2
5 -1 -1 16.4 1.3
-5 -1 1 15.7 1.4
-5 1 -1 17 1.5
5 1 1 16.8 1.8
5 1 1 13.2 1.3
-5 -1 1 16.4 1.5
-5 1 -1 17.5 1.4
6 1 -1 16.2 1.5
6 -1 1 14.8 2.2
-6 -1 -1 12.1 1.7
6 -1 1 15.5 1.5
-6 1 1 18.5 1.9
-6 1 1 15.2 1.5
-6 -1 -1 15.3 1.7
6 1 -1 14.5 2.1
-6 1 -1 16.3 1.8
6 1 1 17.7 1.6
-6 -1 1 19.2 1.9
6 1 1 15.5 2.2
6 -1 -1 16.9 2.3
-6 -1 1 16.7 1.9
-6 1 -1 14.3 1.5
6 -1 -1 17.1 1.7
7 -1 1 0.6 1.5
-7 1 1 1.9 1
7 -1 1 1.4 1
-7 1 1 1 1.3
-7 -1 -1 1.7 1.2
-7 -1 -1 1.8 1.4
7 1 -1 -0.5 0.9
7 1 -1 1.6 1.3
7 -1 -1 2.3 1.2
-7 -1 1 1.2 1.4
-7 1 -1 2.1 1.2
-7 -1 1 1.6 1.2
-7 1 -1 1.9 1
7 1 1 1.2 1.1
7 -1 -1 1.5 1.8
7 1 1 3.3 0.8
8 -1 1 2.2 1.3
-8 -1 -1 1.5 1.4
8 -1 1 4.8 2
8 1 -1 0.6 1.8
-8 1 1 3.1 1.3
-8 -1 -1 2.6 1.9
8 1 -1 0 1.2
-8 1 1 3.7 1.6
-8 -1 1 2.7 1.8
-8 1 -1 2.9 1.3
8 1 1 -1.7 1.5
-8 1 -1 3.1 1.6
8 -1 -1 1.2 2
-8 -1 1 2.7 1.3
8 -1 -1 4.5 1.2
8 1 1 1 1.1
0 -2 1 412.26 7.6
0 -2 -1 420.36 7
0 2 -1 429.56 7.7
0 2 -1 417.96 8.6
0 2 1 417.46 7.1
0 2 1 425.46 7.7
0 -2 1 409.86 8.6
0 -2 -1 416.86 7.8
1 2 -1 1571.24 25.7
1 2 -1 1600.54 25.8
-1 -2 -1 1599.14 24.8
-1 2 1 1594.84 25.9
-1 -2 -1 1609.54 25.1
1 -2 1 1658.73 26.6
1 -2 -1 1623.34 26.1
1 -2 -1 1604.04 24.7
-1 -2 1 1667.73 25.7
1 2 1 1676.43 25.6
1 2 1 1627.24 25.9
-1 2 -1 1586.94 26.5
-1 -2 1 1636.74 25.3
-2 2 1 122.09 3.9
-2 -2 -1 121.79 3.9
-2 -2 -1 116.49 4.3
2 -2 1 121.39 4.1
2 -2 1 116.59 3
-2 2 1 129.49 2.8
2 2 -1 130.99 4.4
2 -2 1 114.49 4.9
-2 2 1 123.79 3.1
2 2 -1 114.29 4.6
-2 2 1 131.79 5
2 -2 -1 130.39 4.3
2 -2 -1 118.79 3.4
-2 2 -1 120.29 2.5
-2 -2 1 111.59 4.4
2 2 1 109.69 4.3
2 -2 -1 119.09 4.9
-2 -2 1 123.39 4.1
2 2 1 129.59 4
-2 2 -1 108.29 4.7
2 -2 -1 113.19 2.7
-3 2 1 341.77 6.1
-3 -2 -1 353.46 10
3 -2 1 359.36 7.2
3 2 -1 357.96 6.9
-3 -2 -1 346.67 6.3
3 2 -1 347.57 6.1
3 -2 1 330.47 6.1
-3 -2 -1 352.26 6.1
3 2 -1 349.07 10.2
3 2 -1 348.27 9.1
-3 2 1 353.76 6.7
-3 -2 -1 345.87 8.4
-3 -2 1 360.46 10.1
3 -2 -1 342.57 6.2
3 2 1 350.86 6.1
3 -2 -1 346.77 7
-3 2 -1 353.46 6.2
3 2 1 364.16 9
-3 -2 1 344.37 8.6
-3 2 -1 339.47 6.7
-3 -2 1 353.46 6.2
3 2 1 343.17 9.8
-3 -2 1 351.06 6.5
3 2 1 359.26 6.8
-4 2 1 64.09 2.1
4 2 -1 60.59 2.6
-4 -2 -1 61.29 2.3
-4 -2 -1 58.89 2.1
-4 2 1 63.49 2.4
4 2 -1 61.59 2.1
4 -2 1 61.09 2.9
4 -2 1 62.69 2.2
4 -2 -1 64.79 2.2
4 2 1 66.99 2.7
-4 -2 1 62.49 2.4
-4 2 -1 62.29 2.1
-4 -2 1 62.69 2.2
-4 2 -1 62.39 2.4
4 -2 -1 60.89 2.8
4 2 1 61.79 2
-5 2 1 50.59 2.1
5 2 -1 54.09 3
-5 -2 -1 48.4 2.3
-5 -2 -1 49.99 2.5
-5 2 1 52.09 2.6
5 -2 1 62.79 3.5
5 -2 1 53.99 2.4
5 2 -1 52.09 2.2
-5 2 -1 51.79 2.1
5 -2 -1 52.49 2.4
5 2 1 51.29 2.1
5 2 1 47.9 2.7
-5 -2 1 47.6 2.2
-5 -2 1 49.7 2.5
5 -2 -1 59.39 3.4
-5 2 -1 53.79 2.6
-6 2 1 46.9 2.7
-6 -2 -1 48.3 2.7
6 2 -1 43.1 3
6 -2 1 46.8 3.6
-6 2 1 46 2.3
-6 -2 -1 41.3 2.9
6 -2 1 43.6 2.4
6 2 -1 46.6 2.3
-6 -2 1 48.8 2.5
6 2 1 40.1 2.3
6 -2 -1 48.3 2.5
6 -2 -1 44.2 3.6
6 2 1 43.2 2.9
-6 -2 1 44.4 2.9
-6 2 -1 45.7 2.2
-6 2 -1 48.1 2.8
7 2 -1 64.49 3.9
7 2 -1 63.09 3.1
-7 -2 -1 66.49 3.8
7 -2 1 66.39 3.1
-7 2 1 64.99 3.5
7 -2 1 61.39 4.4
-7 2 1 59.79 2.8
-7 -2 -1 59.49 3.2
7 2 1 58.29 3.8
7 2 1 61.59 2.9
-7 2 -1 63.79 2.9
-7 -2 1 62.49 3.7
7 -2 -1 62.49 3.4
-7 2 -1 64.09 3.4
-7 -2 1 58.69 3.1
7 -2 -1 62.49 4.5
-8 -2 -1 4.9 1.5
8 2 -1 1.2 1.6
8 2 -1 7.9 2
-8 2 1 4.7 1.6
-8 -2 -1 4.4 2
8 -2 1 7.6 1.7
-8 2 1 3.3 1.2
8 -2 1 -0.9 2.5
8 2 1 3.8 1.7
8 2 1 4.8 1.5
8 -2 -1 5.6 2.6
-8 -2 1 4.6 1.7
8 -2 -1 4.2 1.7
-8 2 -1 2 1.6
-8 -2 1 6.7 2.1
-8 2 -1 5.2 1.3
0 -3 -1 4.8 1.1
0 3 -1 5.6 0.9
0 -3 1 4.4 0.8
0 3 1 4.3 1
0 -3 -1 4.8 0.7
0 3 1 4.7 0.7
0 3 -1 6.5 1.3
0 -3 1 4 1.1
1 3 -1 195.58 5.7
-1 -3 -1 195.98 4.8
-1 -3 -1 187.58 4.8
1 3 -1 193.68 5.9
1 -3 1 199.18 6.3
-1 3 1 194.48 5.8
1 3 1 192.78 5.1
1 3 1 195.78 5.4
-1 3 -1 186.38 5
-1 -3 1 190.58 5.2
1 -3 -1 190.38 4.8
-1 -3 1 192.88 5.3
-1 3 -1 194.48 6.1
1 -3 -1 198.18 5.9
2 3 -1 603.14 9.6
2 -3 1 606.64 12.2
-2 -3 -1 601.04 12.6
-2 -3 -1 593.74 11.5
-2 3 1 595.54 9.4
-2 3 1 597.54 13.6
2 3 -1 603.54 10.2
2 3 -1 602.84 13.4
2 -3 1 609.34 14.1
2 3 -1 619.94 13
2 -3 1 604.94 10.4
-2 3 1 601.14 9.9
-2 -3 1 604.34 12
-2 3 -1 565.14 9.9
-2 -3 1 588.04 13
2 -3 -1 610.14 10.3
2 -3 -1 592.84 13.7
-2 -3 1 596.94 9.4
2 -3 -1 618.44 12.1
-2 3 -1 596.14 9.5
2 3 1 631.44 12.3
-2 -3 1 600.04 9.6
-2 3 -1 593.54 13.9
2 3 1 601.74 12.7
3 3 -1 46.7 2
-3 -3 -1 42.5 1.7
3 -3 1 38.9 1.7
-3 3 1 44.2 1.6
3 -3 1 47.7 2.5
-3 -3 -1 45.7 3.5
3 3 -1 44.8 1.6
-3 -3 -1 48.5 1.8
-3 -3 -1 42.8 2.9
3 3 1 42.6 3.4
3 3 1 41.8 1.6
3 3 1 43.9 3.1
-3 -3 1 43.1 1.7
3 -3 -1 44.3 2.3
3 3 1 42 1.9
-3 3 -1 42.5 1.5
-3 -3 1 47.8 1.8
-3 3 -1 44.9 1.9
3 -3 -1 44 1.7
4 -3 1 155.88 3.9
4 3 -1 154.78 3.8
-4 3 1 148.39 3.6
4 3 -1 160.38 4.4
4 -3 1 152.08 4.9
-4 -3 -1 149.49 3.9
-4 -3 -1 152.28 3.7
-4 3 1 150.88 4.2
4 3 1 149.99 4.3
-4 -3 1 153.58 3.9
-4 3 -1 155.28 3.7
-4 -3 1 158.98 3.9
4 -3 -1 155.58 4.8
-4 3 -1 154.98 4.3
4 -3 -1 146.69 3.8
4 3 1 156.18 3.7
-5 -3 -1 15.2 1.7
5 3 -1 16.7 1.7
-5 3 1 15.2 1.3
5 -3 1 16.6 1.8
5 -3 1 13 2.3
5 3 -1 14.6 1.9
-5 -3 -1 15.4 1.6
-5 3 1 13.3 1.7
-5 -3 1 14.1 1.8
-5 -3 1 16.6 1.7
5 -3 -1 11.5 2.3
5 3 1 15.4 1.9
-5 3 -1 13.5 1.2
-5 3 -1 15.1 1.8
5 -3 -1 18.6 2.1
5 3 1 12.2 1.3
-6 3 1 2.2 1.2
-6 -3 -1 2.8 1.3
6 -3 1 2.2 2.1
-6 3 1 2.1 0.8
6 3 -1 3 1.3
6 3 -1 0.9 0.9
-6 -3 -1 2.3 1.6
6 -3 1 3 1.3
-6 -3 1 3.4 1.3
6 -3 -1 3.1 2.1
6 3 1 3.4 1.2
-6 3 -1 1.5 1.1
-6 -3 1 2.8 1.5
6 3 1 3.6 1
-6 3 -1 2.2 0.7
6 -3 -1 1.3 1.2
-7 -3 -1 1.9 1.4
-7 -3 -1 2.2 1.8
7 3 -1 1 1.4
7 3 -1 1.7 1.1
7 -3 1 2.3 2.4
7 -3 1 2.2 1.2
-7 3 1 2.2 0.9
-7 3 1 1.9 1.2
-7 -3 1 5.2 1.8
7 -3 -1 2.6 2.2
-7 3 -1 0.8 0.9
-7 -3 1 1 1.5
-7 3 -1 1.8 1.2
7 3 1 -1.6 1.1
7 3 1 0.5 1.4
7 -3 -1 3.9 1.5
8 -3 1 28.6 3.2
-8 3 1 35.7 2.6
-8 3 1 31.5 3.1
8 3 -1 38.7 2.8
8 -3 1 27.1 4.1
8 3 -1 31.9 3.7
-8 3 -1 36.4 2.7
-8 -3 1 35.8 3.5
8 -3 -1 35 4.6
-8 -3 1 36.6 3.2
-8 3 -1 38.8 3.3
8 -3 -1 39 3.4
0 4 1 5.7 1
0 4 -1 4.7 1.4
0 -4 1 5.8 1.6
0 4 1 5.2 1.2
0 -4 1 6.5 1.3
0 4 -1 6.2 1.2
0 -4 -1 7.8 1.7
-1 -4 -1 453.35 9.7
-1 4 1 470.95 9.6
1 4 -1 461.45 10.9
1 4 -1 459.15 11.4
1 -4 1 456.55 7.3
1 -4 1 459.15 8.2
1 -4 1 443.16 11.6
-1 -4 -1 473.85 9.2
-1 4 1 458.65 10.9
1 4 1 457.15 10.6
1 4 1 461.25 10
-1 4 -1 465.85 11.5
1 -4 -1 471.95 9.5
-1 -4 1 454.75 10.5
-1 4 -1 459.35 9.9
1 -4 -1 458.55 11.2
-1 4 -1 457.25 7.8
-1 -4 1 469.15 9.8
-2 4 1 256.07 8.5
-2 4 1 259.87 5.2
2 4 -1 275.77 5
2 -4 1 257.97 5.7
-2 -4 -1 254.57 7.1
2 4 -1 263.37 8.1
-2 -4 -1 252.97 6.8
-2 -4 -1 254.37 4.6
-2 -4 -1 265.07 4.8
-2 4 1 260.27 4.7
2 4 -1 261.17 5.6
2 4 -1 275.87 8.3
-2 -4 1 277.27 5.1
2 -4 -1 270.87 5.7
2 -4 -1 258.47 8.8
2 4 1 251.27 7.6
-2 -4 1 259.67 4.8
-2 4 -1 252.37 5.3
-2 -4 1 264.57 7.6
2 4 1 256.87 7.7
2 -4 -1 269.67 7.4
2 4 1 250.27 5.2
-2 4 -1 260.27 4.8
-2 -4 1 260.47 7.3
2 4 1 261.27 4.8
-3 4 1 37.3 1.9
-3 -4 -1 35.8 2.1
3 -4 1 39.2 2.6
-3 -4 -1 40.2 1.6
-3 4 1 37.5 1.5
3 4 -1 38.8 1.7
3 4 -1 39.5 2
-3 -4 1 42.3 1.9
-3 4 -1 37.1 1.9
3 -4 -1 37.2 1.9
3 4 1 38.9 1.9
3 4 1 38.3 1.5
3 -4 -1 45.7 2.9
-3 -4 1 37.2 1.8
-3 4 -1 39.4 1.5
4 4 -1 23.6 1.8
4 -4 1 28.2 2.1
-4 4 1 22.7 1.3
4 -4 1 25.5 2.8
-4 4 1 25.5 1.7
-4 -4 -1 21.2 1.7
-4 -4 -1 26 1.8
4 4 -1 26.6 1.5
4 4 1 25.3 1.8
4 -4 -1 30 3.2
-4 4 -1 24.8 1.8
-4 -4 1 21.2 1.7
4 4 1 25.8 1.4
-4 -4 1 29.5 2
-4 4 -1 24.5 1.4
4 -4 -1 28.5 2.2
5 4 -1 76.49 3.5
-5 -4 -1 79.59 3
-5 4 1 80.99 3.3
-5 4 1 76.09 2.7
5 4 -1 80.39 2.9
5 -4 1 82.89 4.8
-5 -4 -1 75.59 3.1
5 -4 1 79.89 3.2
5 -4 -1 83.69 4.5
-5 4 -1 81.09 2.8
-5 4 -1 82.59 3.4
5 4 1 82.59 2.9
-5 -4 1 78.49 3.2
5 -4 -1 78.09 3.3
5 4 1 78.19 3.5
-5 -4 1 74.19 3.1
6 -4 1 17.2 3.2
6 -4 1 20.4 2.2
6 4 -1 21.9 1.8
-6 4 1 19.6 1.5
6 4 -1 21 2.1
-6 4 1 22.1 2.1
-6 4 -1 19.7 1.7
-6 -4 1 20.9 2.3
-6 4 -1 20.8 2
6 -4 -1 17.2 3
6 -4 -1 22.1 2.3
-6 -4 1 20.3 2.2
7 4 -1 39.1 3.4
7 4 -1 39.3 4.1
7 -4 1 40.1 4.5
-7 4 1 46.5 3.1
-7 4 1 39.8 2.4
7 -4 1 38.9 3.2
-7 -4 1 41.4 3.8
-7 4 -1 39.6 2.5
7 -4 -1 42.7 3.2
7 -4 -1 40.1 4.5
-7 4 -1 39 3.1
0 -5 1 5.9 1.3
0 5 -1 6.3 1.5
0 5 1 5.1 1.2
0 -5 1 4.6 1.4
0 5 -1 4.6 0.8
0 5 -1 4.7 0.8
0 -5 1 4.6 0.7
0 -5 -1 2.7 1.9
0 -5 1 1.9 1.8
0 5 1 4 1.4
0 5 -1 3.9 1.5
-1 5 1 30.1 1.4
1 -5 1 24.6 1.4
1 5 -1 25.7 2.5
-1 5 1 32.7 3
1 5 -1 33.1 3.9
1 5 -1 27.4 1.4
1 -5 1 35.8 2.3
1 -5 1 31.8 4.3
-1 5 1 30.7 2.3
1 5 -1 29.4 1.5
-1 -5 1 30.3 2.1
1 -5 -1 27.1 2.2
-1 5 -1 27.4 2.2
-1 -5 1 25.5 1.1
-1 -5 1 22.9 2.9
1 -5 -1 28 3.9
1 -5 -1 29.4 2.4
-1 5 -1 34.8 4
-1 -5 1 27.3 2.4
-1 5 -1 25.1 1.4
1 -5 -1 30.2 1.3
2 5 -1 291.77 11.3
-2 5 1 334.17 5.8
2 5 -1 320.47 10.8
2 -5 1 334.27 7.2
2 5 -1 330.07 6.2
2 5 -1 323.77 6.8
-2 5 1 329.67 6.4
-2 -5 1 346.87 6.5
-2 5 -1 338.77 6.6
-2 -5 1 333.77 5.8
-2 -5 1 328.47 10.2
-2 -5 1 335.57 10.5
2 -5 -1 344.67 7.3
-3 5 1 240.58 5.5
3 -5 1 237.78 6.4
-3 5 1 241.28 4.9
3 5 -1 243.28 5.1
3 5 -1 242.38 5.7
-3 -5 1 239.88 4.9
-3 5 -1 245.38 5.7
3 -5 -1 259.27 6.6
3 -5 -1 243.88 5.2
-3 -5 1 240.88 5.1
-3 5 -1 242.18 4.9
-4 5 1 54.19 2.1
4 -5 1 54.79 4
4 5 -1 51.09 2.9
4 5 -1 55.39 2.4
-4 5 1 53.79 2.6
4 -5 1 60.39 2.9
-4 5 -1 55.99 2.7
-4 5 -1 53.59 2.2
-4 -5 1 56.99 2.8
4 -5 -1 54.99 2.9
-4 -5 1 54.69 2.5
4 -5 -1 53.99 4.1
5 -5 1 17.8 3.1
-5 5 1 22.2 2
-5 5 1 22.8 1.7
5 -5 1 23.9 2.5
5 -5 -1 17.2 2
-5 5 -1 21.6 2
5 -5 -1 20.5 3.2
-5 5 -1 21.8 1.7
6 -5 1 3 1.8
6 -5 1 5.5 2.7
-6 5 1 4.2 1.1
-6 5 1 3.7 1.2
6 -5 -1 3.4 1.6
-6 5 -1 5.4 1.2
6 -5 -1 4.4 2.7
-6 5 -1 5.2 1.4
-7 5 1 5.6 1.1
-7 5 1 0.8 1.1
7 -5 1 4.8 1.9
7 -5 1 2.4 2.8
-7 5 -1 3.1 1.3
7 -5 -1 6.1 1.8
-7 5 -1 1.8 1.2
7 -5 -1 0.3 2.8
0 6 -1 126.09 3.6
0 -6 1 133.69 4.1
0 6 -1 128.99 3.4
0 -6 1 129.09 3
1 -6 1 39 2.8
1 -6 1 37.1 1.7
-1 6 -1 38.1 1.8
-1 6 -1 41.8 2
1 -6 -1 40.8 4.1
-1 -6 1 42.3 3.1
2 -6 1 307.57 7.2
-2 6 1 295.17 6.2
-2 6 -1 297.57 6.4
2 -6 -1 300.37 6.9
-3 6 1 1.5 0.7
3 -6 1 4.1 2.1
-3 6 1 3.2 0.7
-3 6 -1 1.9 0.8
3 -6 -1 1.2 1.2
3 -6 -1 5.1 2.1
4 -6 1 5.5 2.3
-4 6 1 4.2 0.8
-4 6 1 3.6 1
4 -6 1 4.1 1.5
4 -6 -1 2.1 2.2
-4 6 -1 3.1 1
-4 6 -1 2.6 0.8
4 -6 -1 3.5 1.6
5 -6 1 5.7 2.4
-5 6 1 6 1.4
-5 6 1 5.7 1
5 -6 1 4.9 1.9
-5 6 -1 5.7 1.3
5 -6 -1 5.2 2.6
-5 6 -1 4.9 1
5 -6 -1 7.7 1.7
-6 6 1 75.19 3.1
6 -6 1 76.99 4
-6 6 1 73.79 3.8
6 -6 1 69.89 5.3
-6 6 -1 73.19 3
6 -6 -1 72.69 5.5
-6 6 -1 77.19 3.9
6 -6 -1 70.09 4.1
7 -6 1 18.5 2.5
7 -6 1 19.2 3.6
-7 6 1 17.7 1.8
-7 6 1 18.3 2.6
7 -6 -1 19.4 2.6
7 -6 -1 16.8 3.6
-7 6 -1 19.2 1.9
-7 6 -1 17.3 2.5
2 -7 1 25.7 2.8
-2 7 -1 24.2 2
3 -7 1 206.08 6.5
-3 7 -1 210.98 5.6
4 -7 1 59.99 4.6
4 -7 1 67.59 3.3
-4 7 1 63.19 3.1
-4 7 -1 64.09 3.2
4 -7 -1 63.39 4.7
4 -7 -1 66.79 3.4
5 -7 1 59.39 3.7
-5 7 1 68.99 3.4
5 -7 1 56.89 5
-5 7 1 65.59 2.8
-5 7 -1 65.19 3.4
5 -7 -1 63.59 5
5 -7 -1 68.29 3.4
-6 7 1 4.8 1.2
6 -7 1 3.6 2
6 -7 1 2.4 2.8
-6 7 1 5.9 1.5
-6 7 -1 6.7 1.6
6 -7 -1 7.2 3.1
6 -7 -1 4.6 2.1
5 -8 1 6.6 2.2
5 -8 1 13.3 3
-5 8 -1 11.5 1.9
6 -8 1 30.9 4
6 -8 1 32.1 3.2
-6 8 -1 36.3 2.9
1 0 2 407.76 7.9
1 0 -2 417.86 7.5
1 0 2 406.56 7.2
-1 0 -2 409.86 7.9
1 0 -2 421.36 8.1
-1 0 2 413.46 8.2
-1 0 -2 414.06 7.1
-1 0 2 406.06 7.4
-2 0 2 210.88 5.5
-2 0 2 214.98 6.4
2 0 2 209.18 5.3
-2 0 -2 208.18 5.2
2 0 2 223.48 6.5
-2 0 -2 223.78 6.4
2 0 -2 214.08 6.4
2 0 -2 214.68 5.6
3 0 2 -0.3 1.2
3 0 2 -0.2 0.4
-3 0 -2 1.3 0.5
3 0 -2 -0.6 0.8
3 0 -2 1.1 0.7
-3 0 2 0 0.8
3 0 2 0.6 0.6
-3 0 2 -0.2 1.1
-3 0 -2 -0.5 0.6
-3 0 2 -0.3 0.4
-3 0 2 0.3 0.5
-3 0 -2 0.5 0.4
3 0 -2 -0.2 0.3
3 0 2 -0.8 0.6
-3 0 -2 1.9 1.2
3 0 -2 1.5 1.3
-4 0 -2 7.1 0.9
4 0 -2 6.9 1.2
4 0 -2 8.8 1
4 0 2 6.7 1.1
-4 0 -2 8.1 1.1
-4 0 2 7.7 0.9
4 0 2 7.5 0.9
-4 0 2 10.9 1.2
5 0 -2 14.9 1.4
-5 0 -2 14.8 1.5
5 0 2 15.1 1.2
-5 0 2 13.7 1.4
5 0 -2 11.9 1.6
5 0 2 13.6 1.7
-5 0 -2 15.7 1.4
-5 0 2 16.5 1.4
6 0 -2 7.5 1.3
-6 0 -2 7.2 1.3
6 0 2 7.6 1.1
6 0 2 6.7 1.6
-6 0 2 9.2 1.3
6 0 -2 8.2 1.7
-6 0 -2 9.3 1.6
-6 0 2 9.3 1.5
-7 0 2 28.4 2.3
7 0 2 27.3 2.2
-7 0 -2 30.2 2.8
7 0 -2 32.2 2.2
7 0 -2 29.9 3.1
-7 0 2 29.9 2.5
7 0 2 28.5 3
-7 0 -2 30.7 2.3
-8 0 -2 2.6 1.4
-8 0 2 4.6 1.4
8 0 2 5.2 1.2
8 0 -2 3.9 1.4
-8 0 -2 4.6 1.8
-8 0 2 2.2 1.8
8 0 -2 3.2 2.2
8 0 2 1.9 1.8
0 -1 -2 331.37 5.1
0 -1 2 323.27 5.9
0 1 -2 344.27 6.8
0 -1 2 336.77 6.7
-1 -1 -2 239.88 4.5
1 -1 2 243.18 5.9
1 -1 2 239.18 5
-1 1 2 248.68 5.6
1 1 -2 244.48 5.5
-1 -1 -2 241.38 5.1
-1 1 2 240.98 4.9
1 1 -2 253.37 5.8
-1 -1 2 245.98 5.7
1 -1 -2 238.98 4.9
1 1 2 245.18 4.6
-1 -1 2 242.08 5.3
1 1 2 241.58 5.1
-1 1 -2 248.88 6
1 -1 -2 251.97 5.7
2 1 -2 66.59 3.4
-2 -1 -2 69.89 2.7
-2 1 2 67.49 3.4
2 -1 2 61.89 2.7
-2 -1 -2 67.79 3.2
2 1 -2 69.69 3
-2 1 2 67.19 2.8
2 -1 2 73.39 3.7
-2 1 -2 67.09 2.7
-2 1 -2 70.29 3.5
2 -1 -2 70.79 3.5
2 1 2 70.29 2.7
-2 -1 2 69.49 3.4
2 1 2 71.19 3.3
2 -1 -2 65.99 2.8
-2 -1 2 66.39 2.8
-3 -1 -2 166.68 5.3
3 1 -2 154.58 6.4
-3 -1 -2 163.18 6.3
3 -1 2 156.18 8
-3 1 2 164.68 3.4
-3 -1 -2 163.18 3.3
3 -1 2 162.38 3.4
-3 -1 -2 164.38 3.6
3 -1 2 164.98 6.6
-3 1 2 157.08 3.7
3 -1 2 169.28 4.2
-3 1 2 155.08 6.2
3 1 -2 159.28 5.6
3 1 -2 166.38 4.1
-3 1 2 169.38 8.2
3 -1 -2 159.58 3.4
3 1 2 160.48 3.9
3 -1 -2 167.38 8
-3 1 -2 157.28 6.1
-3 1 -2 161.58 3.3
-3 -1 2 154.18 3.6
-3 -1 2 157.08 6.6
-3 1 -2 164.98 3.8
3 1 2 165.28 5.4
3 -1 -2 163.78 4.1
3 1 2 160.98 6.4
-3 -1 2 161.18 5.5
3 -1 -2 175.28 7
3 1 2 155.98 3.3
-3 -1 2 162.98 3.5
-3 1 -2 169.88 8.6
-4 1 2 70.79 2.6
-4 1 2 76.79 2.3
-4 -1 -2 72.69 2.2
4 -1 2 71.79 2.9
4 1 -2 75.69 3
-4 -1 -2 68.79 2.4
4 -1 2 73.99 2.3
4 1 -2 70.19 2.3
4 1 2 74.79 2.2
4 -1 -2 71.69 2.9
4 1 2 73.49 2.8
-4 1 -2 72.79 2.6
-4 -1 2 74.79 2.3
-4 -1 2 74.89 2.6
-4 1 -2 71.79 2.2
4 -1 -2 73.19 2.3
5 -1 2 369.66 7.3
-5 1 2 366.16 7.8
-5 -1 -2 380.06 7.8
5 1 -2 373.16 8.5
5 -1 2 367.66 8.5
-5 1 2 372.16 7.2
5 1 -2 362.76 7.3
-5 -1 -2 365.06 7.1
-5 1 -2 376.26 7.2
5 -1 -2 366.16 7.3
5 -1 -2 365.26 8.5
5 1 2 366.26 7.2
-5 -1 2 366.26 7.2
5 1 2 371.86 8.3
-5 -1 2 372.26 7.8
-5 1 -2 370.56 7.8
6 -1 2 31.7 2
6 1 -2 30.2 1.9
-6 1 2 28.8 2.2
-6 1 2 32.7 1.9
-6 -1 -2 32.5 2.3
6 1 -2 29.4 2.5
6 -1 2 26.4 2.7
-6 -1 -2 34.3 2.5
6 -1 -2 30.3 2.2
-6 -1 2 29.9 2.3
6 1 2 28.3 1.9
-6 1 -2 29.9 2.3
-6 1 -2 31.8 1.9
6 1 2 31.1 2.6
-6 -1 2 28.6 2
6 -1 -2 28.5 2.9
7 -1 2 14.9 2.3
-7 1 2 18.4 1.7
-7 1 2 20 2.2
7 -1 2 13.8 1.7
-7 -1 -2 15.7 1.9
7 1 -2 14.3 2.3
-7 -1 -2 17.5 2.3
7 1 -2 15.7 1.9
-7 -1 2 16.2 2.3
7 1 2 18 1.7
7 -1 -2 11.6 2.4
-7 -1 2 18 2
7 -1 -2 18.1 2.1
-7 1 -2 17.8 1.9
7 1 2 13.3 2.2
-7 1 -2 16.6 2.1
-8 -1 -2 45.9 3.7
-8 1 2 46.7 3.4
-8 -1 -2 47.7 3
8 -1 2 45.3 4.3
8 1 -2 54.49 4.1
-8 1 2 46.9 2.9
8 -1 2 43.9 3
8 1 -2 51.39 3.2
8 -1 -2 50.29 3
8 1 2 38.7 3.6
-8 -1 2 49.9 3.7
8 -1 -2 44.5 4.5
-8 1 -2 44.3 2.8
-8 1 -2 47.1 3.6
8 1 2 44.2 3
-8 -1 2 46.7 3
0 2 2 7.9 0.7
0 -2 2 11.4 1.2
0 2 -2 7.3 0.8
0 2 -2 9 1.3
0 -2 2 7.5 0.8
0 2 2 7.4 0.5
-1 -2 -2 451.95 8.3
-1 2 2 460.35 9.2
-1 -2 -2 462.15 7.8
-1 2 2 446.06 8.1
1 -2 2 458.45 10
1 2 -2 446.66 9.4
1 2 -2 458.65 9.6
1 -2 -2 460.75 8.3
-1 2 -2 454.25 10
1 -2 -2 459.85 9.3
-1 -2 2 457.75 9.2
1 2 2 440.56 8.3
1 2 2 462.55 8.1
-1 -2 2 462.35 9.3
2 -2 2 338.17 6.4
-2 2 2 332.87 7.5
-2 -2 -2 342.17 7.3
2 -2 2 329.47 9.2
-2 -2 -2 334.47 8
2 2 -2 326.47 8.8
-2 2 2 325.67 8.7
2 2 -2 341.37 8.3
2 -2 2 334.17 7.8
2 2 -2 324.97 6.6
2 -2 -2 338.37 7.7
-2 -2 2 333.17 7.8
2 2 2 339.27 7.3
-2 2 -2 326.47 6
-2 -2 2 332.37 8.5
2 -2 -2 348.87 9
-2 2 -2 331.17 9.1
2 2 2 331.77 8.1
-2 2 -2 328.97 5.5
3 -2 2 61.69 2
-3 -2 -2 64.39 2
-3 -2 -2 62.79 2
-3 2 2 61.59 2.2
-3 2 2 61.99 1.9
3 2 -2 60.19 2.3
3 -2 2 67.19 2.7
3 2 -2 62.19 1.9
-3 -2 -2 63.39 4
-3 -2 -2 65.29 3.3
3 2 2 66.39 3.3
3 2 2 65.49 3.9
3 2 2 64.09 2.2
-3 -2 2 61.99 2.1
-3 -2 2 62.69 2
3 -2 -2 68.89 2.6
-3 2 -2 60.19 2.3
3 -2 -2 68.69 2.1
3 2 2 64.59 1.8
-3 2 -2 63.79 1.9
4 2 -2 16.9 1.5
4 -2 2 17.9 1.8
-4 2 2 16 1.3
-4 -2 -2 20.2 1.4
4 -2 2 19.2 1.4
4 2 -2 19.4 1.2
-4 -2 -2 16.4 1.3
-4 2 2 19 1.1
4 -2 -2 20.6 1.9
-4 -2 2 17.7 1.4
4 2 2 16.3 1.1
-4 2 -2 17.8 1.1
4 2 2 17.6 1.5
4 -2 -2 21.5 1.4
-4 2 -2 18.2 1.4
-4 -2 2 17.3 1.4
-5 2 2 45.7 2
-5 -2 -2 43.7 2.2
5 2 -2 43.7 2
5 2 -2 40.6 2.6
-5 2 2 49.6 2.5
-5 -2 -2 42.8 2.3
5 -2 2 46.7 2.2
5 -2 2 41.4 3
5 2 2 40.7 2.4
5 -2 -2 50.59 2.3
-5 2 -2 43.9 2.4
-5 -2 2 41.5 2.2
5 2 2 45.6 2
-5 -2 2 43.9 2.2
-5 2 -2 45.6 2
5 -2 -2 44.2 3.1
6 2 -2 0.4 0.7
6 2 -2 0.1 1.1
-6 -2 -2 0.9 1.3
-6 2 2 1.1 0.7
6 -2 2 -0.4 1.5
6 -2 2 1.4 0.8
-6 -2 -2 1.5 1.2
-6 2 2 1 0.8
-6 -2 2 -1.3 1.2
6 2 2 2 0.7
-6 2 -2 1.5 0.7
-6 2 -2 1 0.9
6 -2 -2 1.2 1
6 -2 -2 0 1.6
6 2 2 1.6 1.1
-6 -2 2 2.5 1.2
-7 2 2 39.7 2.8
7 2 -2 36.8 2.5
7 -2 2 36.6 3.6
-7 -2 -2 35 2.6
-7 2 2 35.7 2.2
7 -2 2 36.7 2.5
7 2 -2 33.2 3
-7 -2 -2 33.6 3.2
-7 -2 2 40.4 3.2
7 2 2 36.8 2.4
-7 2 -2 39.3 2.7
-7 2 -2 36.7 2.3
7 -2 -2 38.5 2.9
7 2 2 38.8 3
7 -2 -2 36.1 4
-7 -2 2 36.8 2.8
8 2 -2 30.8 2.8
-8 -2 -2 33.6 3.3
-8 2 2 35.7 3.1
8 -2 2 31.2 2.9
-8 -2 -2 29.1 2.8
-8 2 2 32.5 2.3
8 -2 2 35.9 4.4
8 2 -2 31.7 3.4
-8 2 -2 33 3.1
8 -2 -2 30.2 4.2
8 2 2 34.5 3.4
-8 2 -2 29.7 2.5
-8 -2 2 31.3 2.9
8 2 2 31.8 2.5
-8 -2 2 33.8 3.4
8 -2 -2 36.7 3
0 -3 -2 664.83 11.9
0 -3 2 642.64 11.8
0 3 -2 665.23 13.5
0 3 -2 631.74 12.1
0 3 2 653.33 11.7
0 -3 2 650.73 13.5
0 3 2 657.93 10.9
1 3 -2 191.18 6
1 -3 2 201.28 6.6
-1 -3 -2 198.78 4.6
1 3 -2 194.08 6.3
-1 -3 -2 200.58 4.6
-1 3 2 191.38 5.6
-1 3 -2 199.48 6.4
-1 -3 2 190.78 5.7
-1 -3 2 199.98 5.5
1 3 2 194.98 4.8
-1 3 -2 192.78 5.3
1 -3 -2 189.98 5.7
1 3 2 201.58 5.2
1 -3 -2 198.48 4.8
2 -3 2 11.2 2.3
2 -3 2 11.6 1.8
2 3 -2 11.6 2
-2 3 2 11.4 0.9
2 3 -2 9.6 1.1
-2 -3 -2 13.3 1.9
2 3 -2 13.9 2.2
2 3 -2 12.2 0.9
-2 -3 -2 20 1.9
2 -3 2 12.9 1.3
-2 3 2 13.3 0.8
-2 3 2 15.9 2.3
2 3 2 15.6 1.6
2 -3 -2 13.1 1.4
-2 -3 2 14.2 0.9
2 -3 -2 13.2 2.3
2 3 2 13.2 1.9
-2 -3 2 13.8 2.1
-2 3 -2 13 0.8
-2 3 -2 12.9 2.3
2 -3 -2 10.9 1
-2 -3 2 9.9 1
-2 3 -2 12.1 1
-2 -3 2 11.3 1.9
2 -3 -2 11.6 1.9
3 -3 2 37.8 2.3
-3 -3 -2 39.4 1.6
-3 -3 -2 40.7 3.2
-3 3 2 38.8 1.7
-3 3 2 39.4 1.4
3 3 -2 41.6 2
-3 -3 -2 38.7 2.7
3 3 -2 36.6 1.6
-3 -3 -2 42.3 1.7
3 3 2 44.5 3.3
-3 -3 2 37.5 1.6
3 -3 -2 43.3 2.3
3 3 2 39.4 1.4
3 3 2 41.3 2.9
3 3 2 40.7 1.8
-3 3 -2 36.8 1.8
-3 3 -2 40.3 1.5
3 -3 -2 43 1.8
-3 -3 2 39.6 1.6
4 -3 2 54.09 2.3
4 -3 2 57.79 3.2
-4 -3 -2 54.79 2.2
-4 -3 -2 55.99 2.1
-4 3 2 52.39 2.3
-4 3 2 55.49 2
4 3 -2 48.5 2.4
4 3 -2 54.89 2.1
-4 -3 2 58.19 2.4
-4 3 -2 53.69 2.4
4 3 2 53.59 2.4
-4 -3 2 52.99 2.2
-4 3 -2 53.19 1.9
4 3 2 57.29 2
4 -3 -2 55.59 2.4
4 -3 -2 63.99 3.3
-5 -3 -2 180.58 4.8
5 3 -2 168.48 5.5
5 3 -2 180.18 4.7
-5 -3 -2 170.88 4.4
5 -3 2 170.28 4.6
-5 3 2 178.08 4.4
5 -3 2 180.08 6.2
-5 3 2 172.48 5
5 -3 -2 185.88 6.1
-5 -3 2 179.68 4.6
5 3 2 173.38 4.3
5 -3 -2 178.88 4.7
-5 -3 2 180.38 4.9
5 3 2 180.48 5.3
-5 3 -2 174.38 4.3
-5 3 -2 179.78 5.2
6 -3 2 25 3.3
-6 3 2 24.7 1.7
-6 3 2 22 2.2
6 -3 2 26.6 2.3
-6 -3 -2 22.1 2.4
6 3 -2 24.2 2.3
-6 -3 -2 26.4 2.2
6 3 -2 23.8 2
6 3 2 23.1 1.8
-6 -3 2 21.7 2.5
6 3 2 22.7 2.3
-6 -3 2 22.5 2.2
6 -3 -2 22.2 2.2
-6 3 -2 27.2 2.4
6 -3 -2 23.7 3.3
-6 3 -2 24.1 1.7
7 -3 2 6.3 2.7
7 3 -2 11.7 2.1
-7 3 2 13 1.6
-7 -3 -2 13.4 2.8
-7 3 2 11.3 1.9
7 -3 2 9.8 1.7
7 3 -2 14.2 1.9
-7 3 -2 13.6 1.7
7 -3 -2 11.4 2
-7 -3 2 13 2.2
7 -3 -2 14.3 2.9
-7 -3 2 15.2 2.1
7 3 2 10.2 2.2
7 3 2 9.9 2.6
-7 3 -2 14.4 2.1
8 -3 2 14.9 3.3
8 3 -2 11 2.4
8 3 -2 15.3 2.1
-8 3 2 12.7 2.1
8 -3 2 12.2 2.2
-8 3 2 17.4 1.9
-8 3 -2 16.1 2.5
-8 -3 2 12.3 2.3
-8 3 -2 13.8 1.9
8 -3 -2 10.8 2.4
8 -3 -2 7.8 3.2
-8 -3 2 14 2.2
0 4 2 363.96 7.4
0 -4 -2 342.77 8.4
0 4 -2 351.56 9.5
0 -4 2 368.26 6.6
0 -4 2 349.77 9.7
0 -4 2 350.06 8
0 4 -2 346.77 6.2
0 -4 2 335.77 5.7
0 4 -2 352.96 6.5
0 4 2 349.17 8.1
0 4 -2 352.86 8.4
1 4 -2 787.72 12.8
-1 4 2 799.12 14.1
1 -4 2 768.62 11.9
-1 4 2 784.22 15.6
-1 -4 -2 784.02 13.4
1 -4 2 810.22 12.9
1 4 -2 782.32 12.3
1 -4 2 773.62 17.2
-1 -4 -2 772.42 13.8
1 4 -2 780.72 16.8
1 4 -2 814.52 16.3
1 4 2 802.42 14.3
-1 -4 2 784.72 14.8
-1 -4 2 737.93 15.5
-1 4 -2 787.32 14.9
1 -4 -2 815.82 14.1
-1 -4 2 780.92 12.5
1 4 2 773.92 15
-1 4 -2 771.62 12.5
-1 -4 2 763.72 11.8
1 -4 -2 793.02 15.9
-1 4 -2 780.52 16.7
2 4 -2 100.49 4.9
-2 4 2 96.29 2.3
2 4 -2 94.49 3.2
2 -4 2 99.19 3.4
-2 -4 -2 96.69 3.9
-2 4 2 100.89 4.9
-2 -4 -2 95.79 4
-2 4 2 100.59 2.7
2 4 -2 98.99 2.6
2 4 -2 95.09 4.8
2 4 2 103.59 4.3
2 4 2 97.39 4.2
-2 4 -2 94.19 2.8
-2 -4 2 97.59 2.8
2 -4 -2 101.19 3.3
-2 -4 2 99.79 4.6
-2 4 -2 96.29 2.4
2 -4 -2 96.39 5.4
-2 -4 2 95.99 2.4
-2 -4 2 93.99 4.5
2 -4 -2 101.29 4.5
3 4 -2 11.3 1.3
-3 -4 -2 16.6 1.8
-3 4 2 10.1 1.1
-3 -4 -2 9.8 0.9
-3 4 2 11 0.8
3 4 -2 11.9 1.1
3 -4 2 8.8 1.6
-3 4 -2 11.1 0.9
3 4 2 10.8 1.2
3 -4 -2 14.2 1.6
-3 -4 2 11.2 1.3
3 -4 -2 12.3 1.8
-3 4 -2 11.1 1.2
3 4 2 11.4 0.9
-3 -4 2 9.8 1.1
4 4 -2 50.09 2.1
-4 -4 -2 48.2 2.4
-4 4 2 49.1 2.3
4 -4 2 51.69 3.3
-4 -4 -2 46.1 2.8
4 4 -2 48.5 2.5
4 -4 2 50.49 2.4
-4 4 2 49.7 1.9
-4 4 -2 47.4 2
-4 -4 2 43.1 2.1
4 -4 -2 51.99 3.3
-4 4 -2 50.89 2.5
-4 -4 2 51.39 2.5
4 4 2 46 2.3
4 -4 -2 50.79 2.5
4 4 2 48.7 2.2
5 4 -2 -0.6 0.7
-5 4 2 0.7 0.8
5 -4 2 -1.4 1.9
5 4 -2 1.8 0.7
-5 4 2 1.9 0.7
5 -4 2 1.1 1.3
-5 4 -2 0.8 0.7
-5 4 -2 1.2 0.7
-5 -4 2 -0.3 1
5 -4 -2 2.4 2.1
5 -4 -2 3.6 1.4
-5 -4 2 0.4 1.2
6 -4 2 11.9 2
6 4 -2 12.6 2.1
-6 4 2 16.4 2
6 -4 2 12.9 2.8
6 4 -2 14.2 1.6
-6 4 2 15.7 1.4
-6 4 -2 13 1.4
6 -4 -2 10.9 2.9
-6 4 -2 13.2 1.8
-6 -4 2 11.3 1.7
-6 -4 2 12.1 1.8
6 -4 -2 15.5 2.1
7 -4 2 49.3 3.3
7 4 -2 42 3.3
-7 4 2 47.5 3.1
-7 4 2 46.9 2.6
7 4 -2 47.4 3
7 -4 2 48.4 5.1
-7 4 -2 49.3 3.3
-7 -4 2 46.2 3
-7 -4 2 46.5 3.3
-7 4 -2 45.6 2.6
7 -4 -2 45.8 3.3
7 -4 -2 36.4 4.2
0 -5 2 212.18 6.2
0 5 -2 208.28 4.7
0 5 -2 203.98 7.6
0 5 -2 206.38 6.6
0 5 -2 216.88 4.5
0 -5 2 206.88 3.9
0 -5 2 201.48 7.8
0 -5 2 208.98 4.9
1 5 -2 17.2 1.2
-1 5 2 20.1 1.2
1 5 -2 15 2.4
-1 5 2 19.2 2.6
1 -5 2 22.6 2.1
1 -5 2 17.9 1.2
1 5 -2 10.5 2.6
-1 5 2 16.3 1.7
1 5 -2 15.3 1.3
1 -5 -2 19.9 2
-1 -5 2 19.5 2.1
1 -5 -2 20.7 3.2
-1 -5 2 18.8 1.1
1 -5 -2 19.8 2.1
-1 -5 2 18.2 2.7
-1 5 -2 17.7 1.2
-1 -5 2 16.2 1.6
-2 5 2 129.79 2.9
-2 5 2 127.39 3.3
2 -5 2 129.69 4
2 5 -2 127.59 3.2
2 5 -2 131.59 3.9
-2 5 -2 128.59 3.5
-2 -5 2 122.59 2.9
2 -5 -2 125.69 4.2
-2 -5 2 134.89 3.7
3 5 -2 45.6 1.9
3 5 -2 45.6 2.3
3 -5 2 40.4 3.1
-3 5 2 42.2 2
-3 5 2 43.1 1.7
-3 5 -2 43.8 1.7
-3 -5 2 46.6 2
-3 5 -2 44.2 2.1
3 -5 -2 38.3 3.3
-3 -5 2 44.5 2.3
3 -5 -2 37.2 2.3
4 5 -2 -0.5 1.1
4 -5 2 2.7 2
-4 5 2 2.1 0.7
-4 5 2 1.1 0.8
4 5 -2 1.6 0.9
4 -5 2 2.2 1.3
-4 5 -2 1.8 0.8
-4 -5 2 3.2 1.4
-4 5 -2 2.3 0.7
4 -5 -2 2 1.4
4 -5 -2 1.9 2.2
-4 -5 2 2.4 1.1
5 5 -2 107.79 3.7
5 5 -2 107.49 4.2
5 -5 2 112.49 4.1
-5 5 2 105.69 3.9
5 -5 2 98.19 5.3
-5 5 2 107.79 3.4
-5 5 -2 102.99 3.4
-5 -5 2 108.59 3.9
5 -5 -2 105.59 5.5
-5 -5 2 104.29 3.7
5 -5 -2 105.19 4
-5 5 -2 106.99 4.1
6 -5 2 27 3.7
-6 5 2 25 1.9
6 -5 2 24.9 2.8
-6 5 2 24.9 2.2
-6 5 -2 22.7 2
6 -5 -2 23.3 3.6
6 -5 -2 26.7 2.9
-6 5 -2 28.2 2.4
-7 5 2 50.79 2.9
-7 5 2 58.49 3.4
7 -5 2 60.09 3.7
7 -5 2 49.9 5.3
7 -5 -2 48.5 5.2
-7 5 -2 57.19 3.6
7 -5 -2 57.19 3.6
-7 5 -2 56.19 2.9
0 -6 2 454.35 7.7
0 -6 2 469.95 9.1
0 6 -2 468.75 8.4
0 6 -2 451.65 8.8
1 -6 2 146.69 3.4
1 6 -2 151.28 3.8
1 -6 2 150.98 4.6
1 6 -2 142.59 4
-1 6 -2 143.49 4
-1 -6 2 144.29 4.1
-1 6 -2 142.09 3.8
-1 -6 2 142.49 3.1
2 6 -2 0.8 0.6
-2 6 2 0.7 0.5
2 -6 2 -1.3 1.6
2 6 -2 0.4 0.7
-2 6 -2 1.6 0.7
-2 -6 2 1 0.7
-2 -6 2 1.2 1.4
2 -6 -2 0.4 1.5
-3 6 2 57.79 2.1
3 -6 2 62.39 4
-3 6 2 58.19 2.5
3 -6 -2 57.19 3.7
-3 6 -2 56.09 2.6
3 -6 -2 59.59 2.6
4 -6 2 64.69 3.2
-4 6 2 71.99 2.5
-4 6 2 69.29 3
4 -6 2 66.99 4.5
4 -6 -2 65.19 4.4
4 -6 -2 68.99 3.3
-4 6 -2 68.19 2.5
-4 6 -2 74.79 3.2
5 -6 2 13.2 2.2
5 -6 2 10.7 2.8
-5 6 2 10.5 1.6
-5 6 2 12.3 1.4
5 -6 -2 14.6 2.1
5 -6 -2 13.9 3
-5 6 -2 11.2 1.8
-5 6 -2 10.1 1.3
-6 6 2 35.7 2.8
6 -6 2 31.1 3.2
-6 6 2 32.1 2.2
6 -6 2 32.5 4
-6 6 -2 32.8 2.8
6 -6 -2 31.4 3.9
6 -6 -2 36.8 3.2
-6 6 -2 29.4 2.1
7 -6 2 1.9 2.6
-7 6 2 1 1.2
-7 6 2 1.2 1
7 -6 2 2.5 1.9
-7 6 -2 1.8 1.3
7 -6 -2 1.9 1.7
-7 6 -2 -0.5 0.9
7 -6 -2 -1.2 2.8
1 -7 2 31 3.3
1 -7 2 34.5 1.9
-1 7 -2 31.5 2.1
-1 7 -2 31.5 1.9
2 -7 2 46.8 3.7
-2 7 -2 41.1 2.3
3 -7 2 147.19 5.6
-3 7 -2 140.79 4.5
4 -7 2 39.3 4.1
4 -7 2 44.9 2.9
-4 7 -2 42.3 2.6
5 -7 2 39.3 3.2
5 -7 2 40.4 4.3
-5 7 2 39.3 2.6
-5 7 2 38.1 2.1
-5 7 -2 36.8 2.7
5 -7 -2 37.9 4.1
5 -7 -2 39.5 3.1
-6 7 2 3.1 1.1
-6 7 2 4.6 1.4
6 -7 2 -1.4 2.8
6 -7 2 3.3 2
6 -7 -2 7.6 2.9
6 -7 -2 6.6 1.9
-6 7 -2 3.2 1.5
3 -8 2 23.5 4.6
4 -8 2 60.89 4.9
4 -8 2 71.39 3.7
-4 8 -2 71.49 3.4
5 -8 2 15.3 2.5
5 -8 2 15.9 3.4
-5 8 -2 17 2.2
6 -8 2 18.5 2.8
-6 8 -2 22.4 2.7
0 0 -3 -0.2 0.1
0 0 -3 0.1 0.1
0 0 3 0.1 0.1
0 0 3 0 0.1
-1 0 3 279.57 5.7
1 0 -3 280.77 5.8
-1 0 -3 282.87 6.1
1 0 3 276.17 5.3
1 0 -3 285.57 6.4
1 0 3 277.97 6.1
-1 0 3 285.57 6.3
-2 0 3 42.8 2.2
2 0 3 41.7 2.1
2 0 3 38.1 2.6
-2 0 -3 39.8 2
2 0 -3 36.5 2.5
-2 0 -3 38.3 2.5
2 0 -3 37.4 2.2
-2 0 3 38.1 2.6
-3 0 3 15.1 2.7
3 0 3 12.5 1.7
3 0 -3 14.9 2.7
-3 0 -3 15 0.9
3 0 3 12.9 0.8
3 0 3 17.1 1.4
-3 0 -3 17.8 2.7
3 0 -3 15.4 1.1
3 0 3 19 2.8
3 0 -3 13.4 1.3
-3 0 3 12.2 2.1
-3 0 -3 14.7 1.2
-3 0 -3 14.4 1.8
3 0 -3 16.1 3.1
-3 0 3 16.5 1
-4 0 -3 262.57 5.6
-4 0 3 271.17 5.3
4 0 3 252.57 5.1
-4 0 3 266.57 5.7
-4 0 -3 260.97 5.1
4 0 -3 265.87 5.3
4 0 3 259.17 6
4 0 -3 263.07 6.2
-5 0 3 157.68 4.4
5 0 3 145.89 4.7
-5 0 3 147.09 3.8
-5 0 -3 151.48 4.3
5 0 -3 153.98 4.1
5 0 3 150.18 3.9
5 0 -3 154.88 5
-5 0 -3 142.19 3.8
6 0 -3 67.89 2.9
6 0 3 70.49 3.7
-6 0 -3 64.79 3.2
6 0 -3 65.89 3.7
6 0 3 63.79 2.6
-6 0 3 68.49 3.2
-6 0 3 68.29 2.8
-6 0 -3 64.79 2.8
-7 0 3 19.5 2.2
7 0 -3 17.4 2.6
7 0 3 20.6 2
7 0 3 16.8 2.4
-7 0 3 21.9 2.1
-7 0 -3 21.5 2.1
7 0 -3 17.8 1.9
-7 0 -3 19.9 2.3
8 0 3 39 2.7
-8 0 3 43.6 3.4
-8 0 -3 39.2 3.4
-8 0 3 38.9 2.7
-8 0 -3 36.2 2.8
8 0 -3 36 2.8
8 0 3 42.1 3.7
8 0 -3 40.5 4.4
0 -1 -3 253.77 4
0 1 -3 252.27 5.9
0 1 -3 251.67 5.1
0 1 3 260.57 4
0 1 3 236.58 3.8
0 -1 3 249.38 5
0 -1 3 240.58 5.8
0 -1 -3 244.68 3.9
1 -1 3 509.25 10.3
-1 1 3 501.35 8.9
1 1 -3 522.25 10.1
-1 -1 -3 509.35 8.3
1 1 -3 512.85 9.8
-1 -1 -3 511.65 8.9
-1 1 3 521.05 9.7
-1 1 -3 515.15 10.3
1 1 3 505.95 8.4
-1 -1 3 524.55 10.2
1 -1 -3 515.95 9.7
1 1 3 505.75 9
1 -1 -3 509.95 8.9
-1 -1 3 505.65 9.6
-2 -1 -3 173.48 5.3
2 -1 3 179.18 4.9
2 1 -3 159.78 5.6
2 -1 3 164.68 5.9
-2 1 3 176.28 5.8
-2 -1 -3 173.98 4.5
-2 1 3 177.98 4.9
2 1 -3 182.58 5.3
-2 1 -3 165.98 5.7
2 1 3 167.78 5.3
2 1 3 169.88 4.5
-2 -1 3 184.28 5.8
2 -1 -3 170.58 5.7
-2 -1 3 174.18 5
2 -1 -3 175.68 4.9
-3 -1 -3 9.1 0.9
3 1 -3 11.5 0.9
-3 -1 -3 9 0.8
3 -1 3 9.8 1.2
-3 1 3 7.8 0.8
3 -1 3 10.8 0.9
-3 -1 -3 9.8 1.5
3 1 -3 7.8 1
-3 1 3 8.9 1
-3 -1 -3 9.5 1.9
3 -1 -3 8.7 0.9
3 -1 -3 8.4 1.1
3 1 3 11.4 1.2
-3 1 -3 10.1 0.8
3 1 3 9.8 0.7
3 1 3 9.5 1.5
-3 -1 3 9.7 1
-3 -1 3 10.7 1
-3 1 -3 7.6 0.9
3 1 3 9.9 2
4 -1 3 40.8 2.2
-4 -1 -3 43.9 1.9
-4 -1 -3 44.2 1.8
4 -1 3 43.5 1.7
4 1 -3 44.7 2.4
-4 1 3 42.3 2
4 1 -3 42 1.7
-4 1 3 45.8 1.8
4 1 3 41.5 1.6
4 -1 -3 46.8 2.5
-4 1 -3 46.1 1.8
-4 -1 3 44.3 1.8
-4 -1 3 43.9 2
-4 1 -3 44.3 2
4 -1 -3 43.4 1.8
4 1 3 44.2 2.2
-5 1 3 4.3 0.9
5 1 -3 5.1 1
5 -1 3 5.5 1.5
-5 -1 -3 5.7 1.1
-5 1 3 5.5 1.1
-5 -1 -3 4.3 1.1
5 1 -3 4 1.3
5 -1 3 5.8 1.1
5 -1 -3 4.3 1
5 1 3 4.9 0.9
5 -1 -3 4.2 1.3
-5 -1 3 4.7 1
-5 1 -3 5.5 1.1
-5 1 -3 5.4 0.9
-5 -1 3 5.1 1.1
5 1 3 5 1.3
6 1 -3 16.9 2.1
6 -1 3 17 2.2
6 -1 3 18.2 1.6
6 1 -3 16.2 1.6
-6 1 3 17.8 2
-6 1 3 20.4 1.7
-6 -1 -3 20.4 2.1
-6 -1 -3 19.8 2.1
6 1 3 19.3 1.6
6 -1 -3 14.4 2.2
-6 1 -3 17.9 1.7
6 1 3 19.4 2.1
-6 -1 3 17.9 1.8
6 -1 -3 19.5 1.8
-6 -1 3 18.3 1.8
-6 1 -3 18.1 2
-7 -1 -3 15.1 2.2
-7 -1 -3 15.1 1.9
7 1 -3 15.3 1.7
-7 1 3 17 2.1
7 -1 3 15 2.4
-7 1 3 18.3 1.8
7 1 -3 13.8 2.3
7 -1 3 19.4 1.8
-7 -1 3 17.5 2
7 1 3 16.9 2.4
7 -1 -3 19.6 2
-7 -1 3 15 2.1
-7 1 -3 14.1 2.1
-7 1 -3 17.1 1.9
7 -1 -3 15.9 2.5
7 1 3 15.4 1.6
8 1 -3 43.6 3.1
-8 1 3 48.5 3.5
8 -1 3 35.2 4
8 1 -3 51.49 4.1
-8 1 3 46.9 2.8
-8 -1 -3 41.5 3.6
8 -1 3 45 3
-8 -1 -3 43.6 3
-8 1 -3 44 3.6
8 1 3 37.5 2.9
-8 -1 3 42.9 3.1
8 -1 -3 39.5 3.3
8 1 3 45.5 3.8
8 -1 -3 40.3 4.5
-8 -1 3 43.3 3.6
-8 1 -3 48.9 2.9
0 -2 3 362.86 7.4
0 -2 -3 365.96 6.3
0 -2 -3 366.46 5.8
0 2 -3 369.16 7.6
0 2 -3 384.36 8.8
0 -2 3 365.66 8.6
0 2 3 374.26 5.9
0 2 3 370.16 6.2
1 2 -3 760.92 14.8
1 -2 3 806.82 15.6
-1 2 3 790.62 13.1
1 2 -3 816.12 15.1
-1 -2 -3 790.52 12.8
-1 -2 -3 790.32 12.3
-1 2 3 809.82 14.2
1 2 3 826.62 12.7
1 2 3 792.52 13
-1 2 -3 816.12 13.9
-1 -2 3 785.92 14.5
-1 2 -3 803.92 15.4
-1 -2 3 815.12 14.7
1 -2 -3 801.32 13.2
1 -2 -3 788.72 14.1
2 2 -3 220.68 7.1
2 -2 3 223.88 6
2 2 -3 217.98 6.5
-2 -2 -3 217.98 6.1
2 -2 3 207.98 7.1
2 2 -3 221.28 4.7
2 -2 3 221.78 4.7
-2 2 3 222.48 5.7
2 2 -3 211.18 4.1
-2 2 3 211.58 6.7
-2 -2 -3 220.58 5.3
2 2 3 216.78 6
2 2 3 219.58 5.4
2 -2 -3 223.08 6.9
-2 -2 3 220.08 6.8
-2 2 -3 214.68 4.3
-2 -2 3 216.58 4.1
-2 2 -3 219.08 7.1
-2 -2 3 226.78 6.2
2 -2 -3 218.68 5.9
-2 -2 3 221.88 4.2
-2 2 -3 214.98 3.9
-3 -2 -3 141.79 4.8
3 2 -3 137.99 3.3
3 2 -3 145.29 3.9
-3 -2 -3 144.89 5.9
-3 2 3 141.09 3.2
-3 2 3 139.99 3.5
-3 -2 -3 145.09 3.1
-3 -2 -3 143.59 3.2
3 -2 3 145.79 4.1
-3 2 -3 142.69 3.2
3 -2 -3 145.49 3.9
3 2 3 153.68 5.1
3 -2 -3 144.19 3.3
3 2 3 138.79 3
3 2 3 145.99 3.6
-3 -2 3 143.29 3.3
-3 2 -3 141.99 3.6
3 2 3 136.39 5.7
-3 -2 3 144.19 3.4
-4 2 3 15.7 1.3
4 -2 3 13.9 1.5
-4 -2 -3 12.6 1.2
4 2 -3 12.7 1.4
4 2 -3 15.1 1.1
-4 -2 -3 19.8 1.4
-4 2 3 15.1 1
4 -2 3 14.1 1.2
4 2 3 15.6 1.4
4 -2 -3 17.6 1.8
-4 2 -3 14.4 1.3
-4 -2 3 14.3 1.3
4 2 3 13.9 1
-4 2 -3 15.8 1
-4 -2 3 14.3 1.3
4 -2 -3 11.7 1.3
-5 2 3 83.99 2.8
5 -2 3 79.79 2.9
-5 2 3 83.09 3.2
5 -2 3 78.19 3.7
5 2 -3 84.69 3.7
-5 -2 -3 80.89 3.1
5 2 -3 80.29 2.8
-5 -2 -3 83.59 2.9
5 -2 -3 82.39 4
-5 -2 3 82.79 2.9
5 2 3 81.09 2.7
-5 2 -3 85.19 3.3
-5 2 -3 84.69 2.8
5 2 3 81.29 3.3
-5 -2 3 82.09 3.1
5 -2 -3 79.19 2.9
6 -2 3 40.1 3.1
6 -2 3 41.2 2.3
-6 -2 -3 39.1 2.6
-6 -2 -3 38.3 2.8
6 2 -3 39.5 2.3
6 2 -3 46 3
-6 2 3 38.7 2.1
-6 2 3 39.6 2.6
-6 2 -3 41.6 2.6
-6 -2 3 34.6 2.7
-6 2 -3 38.1 2.1
6 -2 -3 41.2 2.6
6 2 3 42.6 2.1
6 2 3 40.2 2.8
-6 -2 3 41.4 2.5
6 -2 -3 42.7 3.7
-7 2 3 79.09 3.9
7 -2 3 86.69 3.4
7 2 -3 74.39 3.7
7 -2 3 72.99 4.9
-7 -2 -3 78.99 3.4
-7 -2 -3 77.19 4.1
7 2 -3 77.19 4.2
-7 2 3 77.79 3.2
-7 -2 3 80.19 4.1
-7 2 -3 81.29 3.2
7 2 3 79.59 3.4
7 -2 -3 83.59 3.9
7 2 3 77.59 4.2
-7 2 -3 78.59 3.9
7 -2 -3 74.09 5
-7 -2 3 79.19 3.6
-8 -2 -3 22.8 2.7
8 2 -3 16.2 2.8
-8 2 3 18.5 2.1
8 -2 3 18.1 3.5
-8 2 3 24.1 2.6
-8 -2 -3 22.8 2.8
8 2 -3 22.5 2.6
8 -2 3 17.4 2.4
-8 -2 3 23.8 3
8 2 3 17.6 2.7
8 2 3 23.5 2.6
-8 -2 3 22.1 2.5
-8 2 -3 24.2 2.9
-8 2 -3 19.1 2.1
8 -2 -3 19.2 3.5
8 -2 -3 27.2 2.8
0 3 -3 73.49 3.8
0 -3 3 70.29 3.7
0 3 3 71.99 2.1
0 3 3 71.59 2.4
0 -3 -3 70.99 2.6
0 -3 3 70.29 2.9
0 3 -3 72.79 3
-1 -3 -3 300.67 5.8
1 -3 3 306.37 8.7
-1 3 3 284.37 7.1
1 -3 3 304.07 5.7
1 3 -3 300.67 8.1
1 3 -3 301.57 8.5
1 -3 3 279.97 4.8
-1 -3 -3 299.77 5.8
-1 3 -3 290.47 5.4
-1 3 -3 307.27 7.2
1 3 3 300.97 6.4
1 -3 -3 290.87 7.2
-1 -3 3 283.87 7.2
-1 -3 3 283.07 7.7
-1 3 -3 300.07 8.4
1 -3 -3 282.87 6.3
1 3 3 294.57 6.2
-2 3 3 293.17 8.5
-2 -3 -3 291.77 7.2
-2 3 3 295.07 5.1
2 3 -3 298.87 6.2
-2 -3 -3 290.57 6.6
2 3 -3 292.47 8.8
2 -3 3 294.67 6.1
-2 3 3 297.27 7.1
2 3 -3 313.77 8.8
2 -3 3 280.77 9.1
2 3 -3 308.27 5.5
-2 3 3 290.27 5.5
2 -3 3 296.27 7.6
2 -3 -3 296.07 5.8
2 -3 -3 289.87 5.2
-2 -3 3 310.17 5.6
2 3 3 298.17 7.1
2 -3 -3 300.57 7.4
-2 3 -3 295.47 5.7
-2 -3 3 297.97 7.9
-2 -3 3 297.77 8.5
2 -3 -3 290.97 8.6
2 3 3 300.27 7.5
-2 -3 3 285.37 5.3
-2 3 -3 297.37 5.2
-2 3 -3 300.37 9.3
-3 -3 -3 9.3 1.7
3 -3 3 11.5 1.5
3 3 -3 13.1 1.2
-3 -3 -3 7.9 1.6
-3 -3 -3 13 1
-3 3 3 8.7 0.8
-3 -3 -3 7.2 0.9
-3 3 3 11.4 1
-3 3 -3 11.6 1.1
-3 -3 3 10.6 0.9
-3 -3 3 12.9 1.2
3 -3 -3 6.2 1
-3 3 -3 10.2 0.9
3 3 3 13 1.1
3 3 3 9.6 1.6
3 -3 -3 12.8 1.5
3 3 3 8.9 0.7
3 3 3 8.9 1.8
4 3 -3 61.99 2.8
4 3 -3 62.19 2.3
-4 3 3 60.89 2.5
-4 -3 -3 62.99 2.4
-4 3 3 61.89 2.1
4 -3 3 60.49 2.3
-4 -3 -3 67.79 2.3
4 -3 3 63.19 3.1
4 3 3 60.59 2
4 -3 -3 63.99 3.3
4 3 3 64.79 2.5
-4 -3 3 61.59 2.4
-4 3 -3 63.39 2.7
-4 3 -3 62.69 2.1
4 -3 -3 64.19 2.5
-4 -3 3 63.09 2.5
-5 3 3 45.3 2.1
5 -3 3 43.5 3.4
5 -3 3 44.2 2.4
5 3 -3 44.8 2.3
-5 -3 -3 44.7 2.3
-5 3 3 41.3 2.5
-5 -3 -3 51.59 2.6
5 3 -3 49.2 2.9
5 3 3 44.4 2.5
-5 -3 3 45.2 2.5
-5 3 -3 44.7 2.7
-5 3 -3 48.3 2.1
5 -3 -3 45.6 2.6
-5 -3 3 43.8 2.5
5 3 3 47.2 2
5 -3 -3 43.5 3.6
6 -3 3 103.69 5.3
6 3 -3 92.49 4.4
-6 -3 -3 96.69 3.4
-6 3 3 95.89 3.9
-6 3 3 98.89 3.4
6 3 -3 97.49 3.7
-6 -3 -3 104.99 4.1
6 -3 3 104.79 3.8
6 3 3 97.79 3.4
-6 3 -3 102.29 3.4
-6 -3 3 95.89 4
6 -3 -3 98.59 3.8
6 -3 -3 104.59 5.3
-6 -3 3 92.99 3.5
6 3 3 100.29 4.2
-6 3 -3 102.79 4.1
-7 3 3 27.5 2.5
7 3 -3 29.9 2.3
7 -3 3 24.5 2.5
7 3 -3 26.8 3.2
-7 3 3 26.8 2.1
7 -3 3 18.5 3
-7 3 -3 28.1 2.1
-7 -3 3 26.9 2.9
-7 3 -3 23.1 2.6
7 -3 -3 28.5 3.8
7 -3 -3 27.2 3
-7 -3 3 27.4 2.7
8 3 -3 56.49 3.3
-8 3 3 53.49 3.5
8 3 -3 51.39 3.9
8 -3 3 49.5 5.3
8 -3 3 58.59 3.4
-8 3 3 55.19 3
-8 -3 3 54.89 3.4
8 -3 -3 56.19 3.7
-8 3 -3 51.99 3.8
8 -3 -3 51.69 5.5
-8 -3 3 52.79 3.7
-8 3 -3 55.29 3.2
0 4 -3 68.29 2.3
0 4 -3 67.69 3.4
0 -4 3 63.29 3.2
0 -4 3 64.89 2.3
0 4 -3 67.59 2.1
0 -4 3 59.19 4.1
0 4 -3 66.89 4
0 4 3 71.89 2.6
0 4 3 63.59 2.9
0 -4 3 62.29 1.7
0 -4 -3 75.69 3.5
1 4 -3 109.89 2.8
-1 -4 -3 108.69 3.4
1 4 -3 112.09 5.4
1 -4 3 104.69 2.4
1 4 -3 105.29 4.8
1 4 -3 111.99 3.1
-1 -4 -3 117.19 3.3
-1 4 3 107.79 4.4
1 -4 3 110.59 5.8
-1 4 3 113.19 3.6
1 -4 3 115.59 3.3
1 4 3 104.19 3.9
-1 -4 3 115.19 3.1
1 -4 -3 110.29 4.7
-1 4 -3 105.39 4.3
-1 4 -3 106.49 2.8
-1 4 -3 109.39 5.4
1 -4 -3 108.69 3.7
-1 -4 3 111.09 4.3
-1 -4 3 110.69 2.4
-1 -4 3 106.89 4.8
1 4 3 113.09 3.6
-2 4 3 126.49 2.7
2 4 -3 126.69 3.7
-2 4 3 131.79 5.6
-2 4 3 128.39 3.2
2 4 -3 126.29 5.9
2 -4 3 126.09 3.9
2 4 -3 130.79 6
2 4 -3 130.19 3.1
2 -4 -3 132.99 5
2 -4 -3 124.29 2.9
2 -4 -3 133.29 3.7
-2 -4 3 123.79 5.3
-2 -4 3 135.69 3.4
-2 -4 3 119.89 5.4
2 -4 -3 130.29 6.1
-2 4 -3 124.99 3.4
-2 -4 3 131.59 2.9
3 -4 3 22.5 2.1
3 4 -3 22.8 1.4
3 4 -3 21.9 1.6
-3 4 3 23.1 1.4
-3 4 3 25.5 1.2
3 -4 -3 27.2 2.5
3 -4 -3 27.6 1.8
-3 -4 3 24.6 1.4
-3 -4 3 21.8 1.7
-3 4 -3 22.8 1.2
-3 4 -3 24.2 1.5
-4 4 3 6 0.9
-4 4 3 7.4 1.1
4 4 -3 7.2 1.1
4 -4 3 6.2 1.9
4 4 -3 5.2 1.2
4 -4 3 4.4 1.1
-4 4 -3 7 1
-4 -4 3 6.9 1.2
4 -4 -3 7.7 1.4
-4 4 -3 7.4 1.1
4 -4 -3 5.8 1.8
-4 -4 3 6.3 1.4
-5 4 3 65.59 3
5 4 -3 69.69 3.4
5 4 -3 62.29 2.8
-5 4 3 65.29 2.5
5 -4 3 67.29 4.5
5 -4 3 70.09 3.1
-5 -4 3 66.89 2.9
-5 4 -3 67.59 3.1
5 -4 -3 65.19 4.2
-5 4 -3 66.09 2.6
5 -4 -3 69.09 3.2
-5 -4 3 69.49 3.1
6 -4 3 4.8 1.5
6 -4 3 4.2 2.5
-6 4 3 3.8 0.9
-6 4 3 3.8 1.3
6 4 -3 4.1 1.3
6 4 -3 4.9 1.2
-6 -4 3 4.6 1.5
-6 4 -3 3.2 1.1
-6 4 -3 5.1 1
-6 -4 3 3.7 1.4
6 -4 -3 3.6 1.6
6 -4 -3 4.5 2.4
-7 4 3 126.59 5
7 -4 3 132.89 4.8
7 4 -3 122.89 5.5
7 -4 3 116.79 6.5
-7 4 3 122.79 4.1
7 4 -3 123.29 4.7
-7 4 -3 125.29 5.1
7 -4 -3 124.59 4.9
-7 -4 3 132.79 4.7
-7 -4 3 124.79 4.5
-7 4 -3 124.29 4.2
7 -4 -3 120.69 6.8
8 4 -3 22.8 3.6
8 4 -3 29.1 3.5
-8 -4 3 27.2 3.1
0 -5 3 34.9 3.2
0 5 -3 26.4 3.7
0 -5 3 28.8 2.2
0 5 -3 30.8 1.7
0 5 -3 29.4 2.7
0 -5 3 33.8 4.2
0 5 -3 31.1 1.7
0 -5 3 30.1 1.3
1 5 -3 198.98 4.3
1 -5 3 194.08 3.8
1 -5 3 199.08 4.9
-1 5 3 197.78 4.3
1 5 -3 192.28 4.7
1 -5 -3 205.48 4.5
-1 5 -3 195.28 4.4
-1 -5 3 203.08 4.7
-1 -5 3 195.28 3.8
2 5 -3 168.28 4.7
-2 5 3 183.08 3.6
-2 5 3 174.88 4
2 5 -3 183.58 4.1
2 -5 3 167.78 4.9
-2 -5 3 181.48 4.4
-2 -5 3 172.08 3.7
2 -5 -3 176.18 4.8
-2 5 -3 171.48 4.3
3 -5 3 2.5 1.7
-3 5 3 3.7 0.8
3 5 -3 5.3 0.8
-3 5 3 3.5 0.6
3 5 -3 3.1 0.9
3 -5 -3 4.1 1.3
3 -5 -3 7.2 2.1
-3 5 -3 3.2 0.7
-3 -5 3 4.6 0.9
-3 -5 3 4 1.3
-3 5 -3 3.3 0.8
-4 5 3 16.9 1.3
4 -5 3 11.5 1.7
4 5 -3 16.4 1.6
4 -5 3 14.8 2.5
4 5 -3 19.2 2
-4 5 3 14 1.6
4 -5 -3 15 1.7
-4 5 -3 19.1 1.4
4 -5 -3 20.1 2.9
-4 -5 3 14.5 1.5
-4 -5 3 18.9 1.9
-4 5 -3 17.9 1.8
5 5 -3 27 2.4
5 -5 3 23.6 3.2
5 5 -3 21.2 2
-5 5 3 23.8 2
5 -5 3 24.5 2.6
-5 5 3 26.6 1.7
-5 5 -3 27.6 1.8
-5 -5 3 27.3 2.8
-5 -5 3 25.1 2.4
-5 5 -3 28 2.3
5 -5 -3 29.6 2.6
5 -5 -3 22.4 3.1
-6 5 3 63.09 2.8
6 -5 3 61.39 5
-6 5 3 62.59 3.4
6 5 -3 60.99 3.7
6 5 -3 67.49 3.2
6 -5 3 67.79 3.6
6 -5 -3 69.49 3.6
-6 -5 3 71.89 3.5
6 -5 -3 62.59 5
-6 -5 3 64.69 3.3
-6 5 -3 63.79 2.8
-6 5 -3 68.99 3.6
-7 5 3 50.59 2.8
7 -5 3 54.19 3.7
-7 5 3 56.49 3.4
7 -5 3 53.39 5.1
-7 5 -3 52.59 2.8
7 -5 -3 55.49 3.5
7 -5 -3 51.79 5.2
-7 5 -3 50.99 3.4
0 6 -3 56.29 2.2
0 6 -3 61.19 2.5
0 -6 3 54.09 3
0 -6 3 54.09 1.9
1 6 -3 13.1 1.3
1 6 -3 16.9 1.5
1 -6 3 12.7 1.4
1 -6 3 16.2 2.1
-1 -6 3 15 1.3
-1 6 -3 15 1.4
-1 -6 3 14 1.8
-1 6 -3 14.5 1.3
2 6 -3 17.2 1.7
2 -6 3 14.1 2.1
2 6 -3 16.8 1.4
-2 -6 3 16.2 1.4
-2 6 -3 15.6 1.4
-2 -6 3 19 2.1
-3 6 3 42.7 2.2
3 -6 3 50.09 3.7
3 6 -3 41.8 2.1
-3 6 3 42.7 1.8
3 6 -3 48.9 2.7
-3 -6 3 40.8 2.1
-3 -6 3 45.7 2.7
-3 6 -3 45 2.4
3 -6 -3 44.6 2.4
3 -6 -3 50.99 3.4
-4 6 3 27.7 1.9
-4 6 3 27.5 1.6
4 -6 3 21.3 3.1
4 -6 -3 27.5 2.4
4 -6 -3 25.4 3
-4 6 -3 25.5 2.1
5 -6 3 34.1 3
-5 6 3 35.5 2.4
-5 6 3 30.7 1.9
5 -6 3 33.2 3.8
-5 6 -3 32.2 2
-5 6 -3 36.6 2.7
5 -6 -3 33 3.6
5 -6 -3 35.2 2.8
-6 6 3 6.8 1.4
6 -6 3 6 2.8
6 -6 3 10.5 2
-6 6 3 8 1.6
6 -6 -3 7 1.9
-6 6 -3 7.4 1.3
6 -6 -3 10.9 3.1
-6 6 -3 8.2 1.7
-7 6 3 42.6 3
-7 6 3 33.3 2.5
7 -6 3 22.6 3.8
7 -6 3 35.9 3.8
-7 6 -3 36.9 3
-7 6 -3 34.5 2.5
7 -6 -3 36.2 4.6
7 -6 -3 42.5 3.4
0 -7 3 7.2 2.2
0 -7 3 7.7 1.1
0 7 -3 5.6 1.2
0 7 -3 6.5 1.1
1 -7 3 41.5 2.3
1 -7 3 46.7 3.6
-1 7 -3 43 2.3
-1 7 -3 43.3 2.3
2 -7 3 36.4 3.6
-2 7 -3 39.4 2.3
3 -7 3 17.9 2.8
-3 7 -3 19 1.8
4 -7 3 33.8 3.5
-4 7 -3 33.8 2.5
5 -7 3 61.69 3.7
5 -7 3 58.69 4.9
-5 7 -3 61.29 3.5
-6 7 3 38 3.3
6 -7 3 38.3 4.5
-6 7 3 41 4.1
6 -7 3 43.6 3.3
-6 7 -3 36.7 2.9
6 -7 -3 39.4 3.8
6 -7 -3 32.9 6.2
2 -8 3 50.09 5
-2 8 -3 47 4.3
3 -8 3 15.4 2.8
-3 8 -3 12.6 1.7
4 -8 3 44.7 4.6
4 -8 3 51.49 3.1
-4 8 -3 46.7 2.9
5 -8 3 -0.1 1.9
5 -8 3 2.9 2.7
-5 8 -3 1.8 1.2
6 -8 3 3.7 3
-6 8 -3 2.4 1.3
0 0 -4 3026.2 47.5
0 0 4 3107.09 47
0 0 -4 3133.49 47.8
0 0 4 3066.99 47.6
1 0 -4 102.09 3.1
-1 0 4 96.59 2.9
-1 0 4 101.59 3.3
1 0 4 95.99 3.2
-1 0 -4 96.99 3.2
1 0 4 101.19 2.6
1 0 -4 101.69 3.5
-2 0 -4 2.2 0.8
2 0 -4 1.7 0.8
2 0 -4 2.6 0.8
2 0 4 1.7 0.8
-2 0 4 2.5 0.7
2 0 4 3.1 0.7
-2 0 -4 3.6 0.8
-2 0 4 3 0.9
3 0 4 863.31 16.3
3 0 4 841.12 13.8
-3 0 -4 858.11 18.1
-3 0 -4 859.61 14.3
-3 0 -4 861.81 13.7
3 0 -4 862.51 13.4
-3 0 4 840.42 13.4
-3 0 4 856.21 13.7
3 0 4 883.91 18.6
3 0 4 873.21 14.1
-3 0 -4 865.91 16
-4 0 -4 2.2 0.6
4 0 -4 1.8 0.9
4 0 -4 1.2 0.6
-4 0 4 1.7 0.6
4 0 4 2.3 0.6
-4 0 4 1.2 0.6
-4 0 -4 1.2 0.6
4 0 4 0.2 0.7
-5 0 4 69.69 2.5
5 0 -4 70.29 3.3
5 0 4 72.99 2.6
-5 0 4 74.69 2.9
-5 0 -4 74.19 2.6
5 0 4 70.59 3.4
5 0 -4 72.09 2.7
-5 0 -4 70.69 2.9
6 0 4 3.7 0.8
-6 0 4 5 1.2
-6 0 -4 3.1 1.2
-6 0 -4 4.5 1.2
6 0 4 2.7 1.3
6 0 -4 4.6 1
6 0 -4 2.9 1.4
-6 0 4 4.6 1
-7 0 -4 24.3 2.7
-7 0 4 19.3 2.3
7 0 -4 19.9 2.8
7 0 4 15.8 1.9
-7 0 -4 20.3 2.2
7 0 -4 16.8 2
-7 0 4 19.9 1.9
7 0 4 15.2 2.3
8 0 -4 57.89 4.6
-8 0 4 55.29 3.7
8 0 4 53.89 3
-8 0 4 53.59 3.1
8 0 4 49.7 4.3
-8 0 -4 54.99 3.1
8 0 -4 56.49 3.4
-8 0 -4 53.59 3.8
0 -1 4 72.79 3
0 1 4 64.59 1.5
0 1 -4 74.79 3
0 -1 -4 73.29 1.7
0 1 -4 64.09 2.3
0 -1 4 63.89 2.2
0 1 4 63.79 1.5
0 -1 -4 63.09 1.6
-1 -1 -4 219.18 4.7
-1 -1 -4 213.68 4.1
1 -1 4 220.18 6
-1 1 4 214.28 4.7
1 1 -4 218.58 5.7
1 1 -4 219.88 5.8
-1 1 4 224.48 5.4
1 -1 -4 220.58 5.4
-1 -1 4 222.78 5.9
-1 -1 4 218.68 5.4
-1 1 -4 213.78 5
1 1 4 224.18 4.2
-1 1 -4 227.48 6
1 1 4 222.28 4.7
1 -1 -4 212.68 4.7
2 1 -4 119.69 2.6
2 1 -4 125.29 3.1
-2 -1 -4 120.49 3.6
2 1 -4 123.09 4.4
2 1 -4 117.29 4.9
-2 -1 -4 121.89 4.3
2 -1 4 119.79 4.9
-2 1 4 126.69 4.8
2 -1 4 127.39 3.5
-2 1 4 119.29 3.9
2 -1 4 124.99 4
-2 -1 4 112.99 2.7
-2 -1 4 122.79 4.2
-2 1 -4 126.19 3
-2 -1 4 119.39 4.7
-2 1 -4 125.29 4.9
-2 -1 4 122.09 2.6
2 1 4 124.49 4.4
2 -1 -4 121.79 4.8
2 1 4 122.29 3.7
2 -1 -4 127.69 4.2
3 1 -4 0 0.4
-3 1 4 0.8 0.4
-3 -1 -4 -0.1 0.8
3 -1 4 0.2 0.5
-3 -1 -4 0.2 0.5
-3 -1 -4 -0.4 0.6
3 -1 4 0.4 0.4
3 1 -4 0.2 0.6
-3 1 4 0.9 0.6
-3 -1 4 0.4 0.6
-3 1 -4 0.6 0.4
3 1 4 0.3 0.5
3 1 4 0.5 0.9
3 -1 -4 0.1 0.7
3 -1 -4 0.6 0.5
-3 1 -4 -1.4 0.5
3 1 4 0.9 0.5
3 1 4 0.3 0.4
-3 -1 4 0.7 0.4
-4 1 4 383.46 7.6
-4 -1 -4 378.36 6.8
-4 -1 -4 384.66 7.3
4 1 -4 389.76 7.2
4 -1 4 389.66 8.2
4 -1 4 370.76 7
-4 1 4 388.36 7.1
4 1 -4 383.66 8.1
-4 1 -4 369.36 6.9
4 1 4 373.86 6.8
4 1 4 382.76 7.8
-4 1 -4 371.36 7.5
-4 -1 4 406.36 7.2
4 -1 -4 369.26 7
-4 -1 4 389.56 7.6
4 -1 -4 386.96 8.1
-5 -1 -4 37.5 2
5 -1 4 32.2 1.9
-5 1 4 32.1 1.7
-5 1 4 34.4 2.2
5 1 -4 30.4 1.9
5 1 -4 30.6 2.6
-5 -1 -4 31 2.1
5 -1 4 30 2.5
5 1 4 36.5 2.4
-5 1 -4 32.8 1.7
5 1 4 35.7 1.7
-5 -1 4 36 2.1
5 -1 -4 31 2.6
5 -1 -4 35.5 2.1
-5 -1 4 35.3 1.9
-5 1 -4 31.5 2
6 -1 4 8 1.1
-6 1 4 9.2 1.5
-6 -1 -4 9.1 1.5
6 -1 4 7.1 1.8
-6 -1 -4 9.6 1.7
-6 1 4 8.4 1.2
6 1 -4 9.1 1.4
6 1 -4 9.7 2
-6 -1 4 9.3 1.3
6 1 4 5.8 1.1
6 -1 -4 6.9 2
6 1 4 8.4 1.6
-6 -1 4 8.4 1.5
-6 1 -4 7.6 1.4
-6 1 -4 8.6 1.3
6 -1 -4 8.6 1.5
7 -1 4 70.89 4.3
7 1 -4 72.29 3.3
-7 1 4 68.99 3.1
7 -1 4 69.29 3.1
-7 -1 -4 68.39 3.2
-7 -1 -4 71.49 3.8
-7 1 4 68.99 3.6
7 1 -4 65.99 4.2
7 -1 -4 71.49 4.6
7 -1 -4 74.19 3.4
-7 1 -4 68.79 3.1
7 1 4 70.09 3.1
7 1 4 64.69 4
-7 -1 4 71.69 3.8
-7 -1 4 70.19 3.3
-7 1 -4 63.69 3.6
8 -1 4 -0.3 1.8
-8 -1 -4 0.5 1.2
-8 1 4 -0.5 1.2
8 1 -4 -0.7 1.9
8 -1 4 1.8 1.1
8 1 -4 -3.5 1.4
-8 -1 -4 -0.4 1.7
-8 1 4 0.6 1.4
-8 -1 4 0.4 1.3
-8 1 -4 1 1.3
8 -1 -4 -0.1 2.2
8 1 4 1 0.9
8 -1 -4 -0.9 1.3
-8 1 -4 0.8 1.6
-8 -1 4 -0.8 1.6
8 1 4 0.5 1.3
0 2 4 1946.01 28
0 -2 4 1933.71 31.3
0 2 -4 1984.4 32
0 -2 -4 1943.91 28.2
0 2 4 1932.31 28
0 2 -4 1867.41 31.9
0 -2 4 1907.11 31.7
-1 2 4 147.09 3.7
-1 -2 -4 152.08 3
1 -2 4 159.48 5.6
1 2 -4 148.79 5.1
-1 2 4 150.08 4.4
1 2 -4 151.08 5.2
-1 -2 -4 154.18 3.3
1 2 4 147.49 3.4
1 -2 -4 154.18 3.8
-1 2 -4 158.28 5.5
-1 2 -4 150.18 4.4
1 -2 -4 152.88 4.5
-1 -2 4 152.48 4.8
-1 -2 4 152.08 4.9
1 2 4 151.58 3.2
-2 -2 -4 6.5 1.2
-2 2 4 7.9 1.1
2 2 -4 6.8 0.6
2 2 -4 7.6 1.4
2 2 -4 6.9 0.9
2 2 -4 7.7 1.6
-2 -2 -4 8.2 1.2
2 -2 4 7.8 1.3
2 -2 4 8.1 1.8
-2 2 4 7 0.6
2 -2 4 7.7 0.9
-2 2 4 7.8 1.5
2 2 4 6 1.1
2 -2 -4 6.7 1.3
2 2 4 7.4 1
2 -2 -4 7.5 1.6
2 -2 -4 7.1 0.8
-2 -2 4 5.9 0.6
-2 -2 4 8.9 1.8
-2 2 -4 6.8 1.6
-2 2 -4 6.7 0.6
-2 2 -4 6.9 0.7
-2 -2 4 7.2 0.6
2 -2 -4 8 1.4
-2 -2 4 5.6 1.1
3 2 -4 115.89 3
3 -2 4 114.69 3.6
3 2 -4 116.99 3.5
-3 2 4 117.29 2.8
-3 -2 -4 121.79 5.2
-3 -2 -4 112.39 4.4
-3 -2 -4 113.79 2.8
-3 2 4 118.79 3.1
-3 -2 -4 115.39 2.7
3 2 4 113.89 2.6
-3 2 -4 113.09 3.2
3 2 4 122.89 4.5
-3 -2 4 119.89 3.1
-3 2 -4 115.59 2.7
3 -2 -4 116.99 3.4
3 -2 -4 109.59 2.8
-3 -2 4 117.79 2.9
3 2 4 118.39 3.1
3 2 4 121.19 5.2
-4 2 4 30.4 1.5
4 -2 4 27.5 2.1
-4 -2 -4 32.6 1.6
4 2 -4 28.2 1.9
4 2 -4 28.5 1.5
-4 -2 -4 25.8 1.6
-4 2 4 28.1 1.7
4 -2 4 26.5 1.4
4 -2 -4 27.9 2.2
-4 -2 4 30 1.7
-4 2 -4 26.3 1.7
-4 2 -4 29.8 1.4
4 2 4 27.2 1.4
-4 -2 4 28.2 1.6
4 -2 -4 29.3 1.7
4 2 4 26.9 1.7
-5 -2 -4 118.69 3.4
5 -2 4 116.29 4.6
-5 -2 -4 127.49 3.9
5 -2 4 120.79 3.5
-5 2 4 120.79 3.5
5 2 -4 119.29 3.6
5 2 -4 117.59 4.4
-5 2 4 118.29 3.9
-5 2 -4 123.49 4
5 -2 -4 120.09 4.7
5 2 4 116.79 4.1
-5 -2 4 119.69 3.6
5 -2 -4 115.89 3.6
-5 -2 4 119.89 3.8
5 2 4 115.89 3.3
-5 2 -4 116.29 3.4
-6 2 4 21.7 2
6 -2 4 22.2 2.8
6 2 -4 24.6 2.4
-6 -2 -4 23 2.6
6 -2 4 21.6 1.8
-6 2 4 21.6 1.7
6 2 -4 25.1 2.1
-6 -2 -4 24.5 2.2
6 -2 -4 20.9 2.6
-6 2 -4 24.7 1.7
-6 2 -4 22.5 2.1
6 2 4 21.8 1.7
6 2 4 28 2.5
6 -2 -4 24.1 2.2
-6 -2 4 22.7 2.3
-6 -2 4 21.9 2.1
7 2 -4 24.4 3
7 -2 4 24.4 3.4
7 -2 4 25.4 2.2
7 2 -4 24.7 2.4
-7 -2 -4 22.5 2.4
-7 2 4 22.7 2
-7 2 4 24.8 2.2
-7 -2 -4 23.2 2.7
7 -2 -4 23.4 3.2
-7 -2 4 25.6 2.8
7 -2 -4 26.8 2.7
-7 -2 4 27.9 2.4
7 2 4 19.9 2
-7 2 -4 23.8 2.1
-7 2 -4 25.8 2.6
7 2 4 21.7 2.7
8 2 -4 43.7 4
-8 2 4 50.59 2.9
8 -2 4 44.5 4.5
8 2 -4 47.9 3.2
8 -2 4 41.9 3.1
-8 2 4 48.6 3.4
-8 -2 4 45.2 3.8
-8 2 -4 42.8 3.5
8 -2 -4 48.4 3.3
8 -2 -4 45.3 4.8
-8 -2 4 47.2 3.1
-8 2 -4 46.6 3
0 -3 -4 1032.4 15.5
0 3 4 1046.1 15.7
0 3 -4 1016.6 18.3
0 -3 4 1023.8 17.9
0 3 -4 1047.2 20.1
0 -3 4 1044.8 20.1
0 3 4 1019.5 16.1
0 -3 -4 1050.09 16.4
1 -3 4 121.09 5.4
1 -3 4 114.19 2.4
1 3 -4 119.89 2.7
1 -3 4 122.19 3.1
-1 -3 -4 121.69 2.8
1 3 -4 127.29 5.4
-1 3 4 122.49 4.1
-1 -3 -4 117.69 2.9
1 3 -4 122.59 4.9
1 3 -4 116.59 3
-1 -3 4 116.79 2.5
-1 3 -4 121.59 5.2
-1 -3 4 118.09 2.9
-1 -3 4 118.89 4.7
-1 -3 4 120.89 4.4
1 -3 -4 119.59 3.5
1 3 4 116.19 3
1 3 4 123.09 3.3
-1 3 -4 128.89 4.3
1 -3 -4 128.89 4.5
-1 3 -4 118.39 2.9
2 3 -4 95.39 3
-2 -3 -4 91.59 3.2
2 3 -4 88.49 2.4
-2 3 4 96.89 3.5
-2 3 4 95.59 4.5
-2 -3 -4 95.59 3.6
2 3 -4 90.39 4.6
2 -3 4 94.59 3.1
-2 3 4 89.59 2.4
-2 3 4 91.89 2.1
2 -3 4 92.69 4.5
2 -3 4 90.59 5.3
2 3 -4 94.19 4.7
-2 -3 4 90.39 4.1
-2 3 -4 92.19 2.7
2 -3 -4 85.89 2.2
-2 -3 4 91.49 2.3
2 -3 -4 96.89 4.8
2 3 4 95.79 3.4
2 -3 -4 88.99 2.8
-2 3 -4 95.49 5.3
2 -3 -4 87.89 3.8
-2 -3 4 92.39 2.6
-2 -3 4 94.09 4.4
-2 3 -4 96.59 2.3
2 3 4 91.89 3.6
3 -3 4 22.9 2
3 3 -4 23 1.6
-3 -3 -4 21.5 2.2
-3 -3 -4 21.8 1.2
-3 -3 -4 18.6 1.3
-3 -3 -4 21.6 2.3
-3 3 4 20 1
3 3 -4 20 1.3
-3 3 4 19.2 1.3
3 3 4 18 1.2
3 3 4 20.7 1.9
3 3 4 22.2 2.8
3 -3 -4 16.2 1.7
-3 3 -4 22.2 1.4
3 3 4 20.3 0.9
-3 -3 4 27.2 1.6
-3 -3 4 20.2 1.2
-3 3 -4 20.5 1.1
3 -3 -4 24.9 1.6
-4 3 4 188.78 4.7
4 -3 4 184.08 4.4
-4 -3 -4 179.38 4.3
4 3 -4 185.28 4.5
4 -3 4 194.08 5.5
-4 3 4 184.48 4.1
4 3 -4 180.88 5.1
-4 -3 -4 183.58 4
4 -3 -4 178.48 4.3
4 -3 -4 180.48 5.4
-4 3 -4 188.38 4.2
4 3 4 188.58 4.7
-4 -3 4 189.68 4.5
-4 3 -4 188.28 4.9
-4 -3 4 178.78 4.3
4 3 4 184.88 4
-5 3 4 39.8 1.9
5 -3 4 42.7 2.4
-5 -3 -4 43.9 2.3
-5 -3 -4 38.8 2.4
5 -3 4 44.3 3.6
5 3 -4 40.9 2.7
5 3 -4 45.7 2.3
-5 3 4 39.1 2.4
5 -3 -4 43.4 2.5
-5 3 -4 42.7 2
-5 -3 4 40.5 2.4
-5 3 -4 44.3 2.7
5 -3 -4 47.1 3.4
-5 -3 4 41.8 2.4
5 3 4 40.3 1.9
5 3 4 42.8 2.4
-6 3 4 39.1 2.6
-6 3 4 42.8 2.2
6 -3 4 40 2.6
6 3 -4 44.7 3.1
6 3 -4 40.7 2.4
6 -3 4 41.9 3.8
-6 3 -4 41.8 2.8
6 -3 -4 42.3 2.8
6 -3 -4 39.3 4
-6 -3 4 37.9 2.8
-6 3 -4 44 2.3
-6 -3 4 38.8 2.6
-7 3 4 39.3 3
7 3 -4 43.9 2.9
7 -3 4 48.6 4.5
7 -3 4 45.3 2.9
-7 3 4 43.8 2.5
7 3 -4 36.3 3.3
7 -3 -4 40 4.5
7 -3 -4 46 3.3
-7 -3 4 42.5 2.9
-7 -3 4 37.5 3.3
-7 3 -4 46.6 2.7
-7 3 -4 41.7 3.1
8 3 -4 29.9 2.6
8 -3 4 28.4 2.6
-8 3 4 28.5 2.8
-8 3 4 23.7 2.2
8 -3 4 28 4.1
8 3 -4 22.9 3
-8 3 -4 24.8 2.3
-8 3 -4 27.5 2.9
8 -3 -4 26.5 3.9
8 -3 -4 24.5 2.8
-8 -3 4 26.5 2.7
-8 -3 4 27.8 3.1
0 -4 4 355.26 8.6
0 4 -4 354.46 6.6
0 4 -4 364.76 9.2
0 -4 4 358.06 10.6
0 -4 4 378.76 7.1
0 4 -4 371.36 10.5
0 -4 4 349.67 6
0 4 -4 376.16 7
0 -4 -4 363.66 7.9
0 -4 -4 369.96 6.7
0 4 4 374.06 7
0 4 4 355.16 7.5
1 4 -4 72.09 2.5
-1 -4 -4 67.19 2.4
1 -4 4 72.59 2.7
-1 -4 -4 74.09 2.4
1 -4 4 73.69 4.9
-1 4 4 73.59 3.4
1 4 -4 71.19 2.2
1 -4 4 73.79 1.9
1 4 -4 71.29 4.1
1 4 -4 69.39 4.4
1 4 4 74.09 3
-1 -4 4 81.69 2.7
1 -4 -4 73.69 3
-1 4 -4 72.39 3.5
-1 -4 4 72.69 1.9
1 -4 -4 73.49 3.7
1 4 4 72.29 2.7
-1 -4 4 69.69 4
-1 4 -4 67.59 4.3
-1 -4 4 68.29 3.4
-1 4 -4 72.69 2.3
-2 4 4 63.89 1.7
2 4 -4 66.09 2.6
-2 4 4 65.19 2.1
2 4 -4 63.59 2.1
2 -4 4 64.49 2
2 -4 4 66.99 2.8
-2 4 4 65.49 4
2 -4 -4 63.19 3.4
2 -4 -4 60.69 4.4
-2 -4 4 62.09 2.4
-2 4 -4 63.69 2.3
2 -4 -4 67.59 2.1
-2 -4 4 65.49 1.9
2 -4 -4 65.69 2.8
3 4 -4 144.49 3.7
3 -4 4 146.39 4.5
-3 4 4 150.88 3.3
-3 4 4 142.19 3.7
3 4 -4 146.89 4.3
-3 -4 4 141.99 3.7
-3 4 -4 146.29 4
-3 -4 4 145.29 3.5
3 -4 -4 139.09 3.5
3 -4 -4 146.29 4.5
-3 4 -4 145.99 3.4
4 -4 4 18 1.6
-4 4 4 14.9 1.4
4 4 -4 17.7 1.6
4 4 -4 15.7 1.5
4 -4 4 13.7 2
-4 4 4 17.8 1.2
-4 -4 4 14.8 1.6
4 -4 -4 13.7 1.6
-4 -4 4 16 1.6
4 -4 -4 16.1 2.4
-4 4 -4 16.2 1.5
-4 4 -4 14.3 1.4
5 -4 4 38.8 2.6
-5 4 4 32.2 1.8
-5 4 4 36.3 2.2
5 -4 4 35.4 3.5
5 4 -4 33.7 2.1
5 4 -4 30.9 2.5
-5 4 -4 33.8 2.4
-5 -4 4 35.7 2.6
5 -4 -4 33.4 3.6
-5 -4 4 31.3 2.2
5 -4 -4 32.8 2.6
-5 4 -4 33.5 2
6 4 -4 48.7 3.3
-6 4 4 49.9 2.8
6 4 -4 47.1 2.8
-6 4 4 46.9 2.3
6 -4 4 50.19 3
6 -4 4 48.1 4.1
-6 -4 4 46.4 2.8
6 -4 -4 51.69 3.3
-6 4 -4 47.4 2.9
-6 4 -4 49.4 2.5
6 -4 -4 44.2 4.3
-6 -4 4 48.8 2.9
7 -4 4 1.2 2.4
7 4 -4 1.5 1.2
7 4 -4 -0.9 0.9
7 -4 4 0.7 1.3
-7 4 4 1.6 1.1
-7 4 4 1.6 0.7
7 -4 -4 -2.6 2.6
7 -4 -4 -2.8 1.7
-7 4 -4 0.3 1.1
-7 4 -4 0 1.1
-7 -4 4 0.8 1.5
-7 -4 4 1.1 1.4
8 4 -4 8.8 2.1
8 4 -4 3.2 2.1
-8 -4 4 9.4 2.3
-8 -4 4 11.8 2.4
0 5 -4 25.5 1.6
0 -5 4 24.4 1.2
0 -5 4 23.4 2
0 5 -4 23.2 1.5
1 -5 4 51.29 2.8
1 -5 4 35.1 1.5
1 5 -4 37.2 1.9
1 5 -4 38.2 1.7
-1 5 -4 42.4 1.9
-1 -5 4 38 1.5
-1 5 -4 39.6 1.9
-1 -5 4 50.09 2.5
-2 5 4 246.78 4.5
2 -5 4 251.37 4.9
2 -5 4 243.28 6
2 5 -4 233.78 5.2
2 5 -4 247.18 6
-2 5 4 245.28 5
-2 -5 4 253.27 5.5
2 -5 -4 252.57 5.9
-2 5 -4 241.18 5.5
2 -5 -4 232.18 4.7
-2 -5 4 245.38 4.8
3 5 -4 64.49 2.4
-3 5 4 64.39 2.4
3 5 -4 64.79 2.9
-3 5 4 64.19 2
3 -5 4 67.99 3.7
-3 5 -4 61.29 2.6
3 -5 -4 60.49 2.6
-3 -5 4 68.89 2.4
-3 -5 4 64.29 2.7
3 -5 -4 60.59 3.6
-4 5 4 126.39 3.9
-4 5 4 122.89 3.3
4 -5 4 112.69 5.1
4 5 -4 121.59 3.7
4 5 -4 115.99 4.3
4 -5 -4 119.09 5.2
-4 -5 4 117.89 3.6
-4 5 -4 114.79 4.1
-4 -5 4 124.29 3.8
4 -5 -4 118.89 3.7
-4 5 -4 118.79 3.4
-5 5 4 63.59 3
5 -5 4 65.79 4.5
5 5 -4 61.99 2.9
5 5 -4 60.89 3.4
5 -5 4 60.49 3.2
-5 5 4 62.89 2.5
-5 5 -4 64.59 2.6
-5 5 -4 66.59 3.3
5 -5 -4 65.89 3.2
5 -5 -4 67.39 4.8
-5 -5 4 61.79 3.1
-5 -5 4 63.49 3.3
6 5 -4 12.3 2.2
-6 5 4 17.7 2.2
-6 5 4 14.4 1.5
6 -5 4 15.3 2.1
6 5 -4 15.9 2
6 -5 4 14.1 2.7
-6 5 -4 17.7 2.3
-6 -5 4 13.6 2.1
-6 5 -4 15.3 1.5
6 -5 -4 11 3
-6 -5 4 14.7 2
6 -5 -4 16.2 2.1
7 -5 4 20.1 2.5
-7 5 4 20.2 2
-7 5 4 21.3 2.4
7 -5 4 19.6 3.5
7 -5 -4 17.9 2.5
7 -5 -4 16.2 3.5
-7 5 -4 20.2 2.5
-7 5 -4 23 2
0 -6 4 39 2.8
0 6 -4 41.4 2
0 -6 4 39.8 1.8
0 6 -4 39 2.1
1 -6 4 26.1 2.9
1 6 -4 26.3 1.8
1 -6 4 28 1.6
1 6 -4 24.4 1.8
-1 6 -4 26.8 1.8
-1 -6 4 27.4 2.4
-1 -6 4 29.3 1.5
-1 6 -4 28.2 1.7
2 6 -4 109.79 3.4
2 -6 4 112.79 3.2
2 -6 4 107.69 4.4
2 6 -4 107.99 3.9
-2 -6 4 116.89 3.8
-2 -6 4 107.39 3
-2 6 -4 107.09 3.4
3 6 -4 114.19 3.5
3 -6 4 103.89 4.7
3 6 -4 109.29 4.2
-3 6 -4 114.49 3.9
-3 -6 4 113.79 4
-3 -6 4 112.49 3.2
4 -6 4 6.3 2.7
-4 6 4 5.6 1.2
4 6 -4 4.9 1.3
-4 6 4 4.5 0.9
4 6 -4 6.1 1.1
-4 -6 4 4.5 1.5
4 -6 -4 5.1 2.3
-4 -6 4 5 1.3
-4 6 -4 4.9 1.3
4 -6 -4 4.8 1.6
5 -6 4 13.8 2.2
-5 6 4 13.1 1.7
-5 6 4 17.2 1.5
5 -6 4 16.6 3.2
-5 6 -4 14.2 2.1
5 -6 -4 18 3.2
5 -6 -4 15.8 2
6 -6 4 49.6 3.5
6 -6 4 48.8 5.1
-6 6 4 44.5 3
-6 6 4 48.1 2.5
6 -6 -4 49.1 3.3
-6 6 -4 49.5 3.3
6 -6 -4 48.2 4.8
-6 6 -4 46.4 2.6
-7 6 4 14.5 2
-7 6 4 14.6 2.3
7 -6 4 13.3 3.7
7 -6 4 15.1 2.4
7 -6 -4 20.7 2.6
-7 6 -4 13.6 1.9
7 -6 -4 16.6 3.5
-7 6 -4 14.7 2.3
0 -7 4 18.7 2.7
0 7 -4 13.2 1.6
0 -7 4 15.8 1.4
0 7 -4 16.4 1.6
1 -7 4 16 1.8
1 7 -4 17.7 1.6
1 -7 4 17.3 2.4
1 7 -4 18.9 2
-1 -7 4 16.1 1.6
-1 7 -4 18.5 1.7
-1 -7 4 17.3 2.2
-1 7 -4 15.7 1.6
2 -7 4 67.79 4.4
-2 7 -4 64.69 2.9
3 -7 4 65.59 4.4
-3 7 -4 63.19 3.1
4 -7 4 16.4 2.9
-4 7 -4 18.4 2
5 -7 4 32.5 3.8
5 -7 4 34.9 3.1
-5 7 -4 36.7 2.9
6 -7 4 10.1 2.2
6 -7 4 5.1 2.9
-6 7 -4 11.1 2
1 -8 4 45.3 4.5
-1 8 -4 49.99 3.7
2 -8 4 45.2 4.4
-2 8 -4 45.2 2.6
-2 8 -4 43.8 2.8
3 -8 4 2.7 2.3
-3 8 -4 0.7 0.9
4 -8 4 12.8 3
-4 8 -4 15.6 2.1
5 -8 4 75.69 4.1
5 -8 4 68.49 5.5
-5 8 -4 75.59 4
6 -8 4 19.8 2.6
6 -8 4 20.6 3.8
-6 8 -4 25 2.6
5 -9 4 42.9 7.4
5 -9 4 50.49 5.2
0 0 -5 0.1 0.2
0 0 5 0.1 0.2
0 0 5 0.3 0.2
0 0 -5 0.4 0.4
1 0 -5 103.79 3.4
-1 0 5 104.49 3.5
-1 0 -5 102.69 3.4
1 0 -5 101.99 3.6
-1 0 5 99.09 3.2
1 0 5 105.79 3.5
2 0 -5 73.89 1.8
-2 0 -5 71.29 3.4
2 0 -5 71.39 3.2
-2 0 5 70.59 3.1
2 0 -5 68.39 2.1
2 0 -5 74.99 3.8
-2 0 5 69.49 3.6
2 0 5 75.19 3.6
2 0 5 75.09 2.9
-2 0 5 72.29 1.8
-3 0 -5 59.29 1.8
-3 0 -5 59.69 3
3 0 5 61.29 4
3 0 -5 59.49 1.9
3 0 5 59.29 3.2
3 0 5 59.59 1.8
-3 0 -5 59.79 3.8
3 0 -5 59.19 2.4
-3 0 5 60.89 1.9
3 0 5 59.29 2.2
-3 0 -5 61.79 2.2
4 0 -5 69.69 2.3
4 0 -5 71.09 3
4 0 5 70.69 2.2
-4 0 5 73.19 2.3
4 0 5 73.09 2.9
-4 0 -5 69.39 2.2
-4 0 5 70.29 2.5
-4 0 -5 73.19 2.6
5 0 5 201.58 5.8
5 0 5 206.48 4.8
5 0 -5 205.08 4.9
-5 0 5 206.98 5.3
5 0 -5 199.68 5.9
-5 0 -5 203.38 5.2
-5 0 5 208.98 4.9
-5 0 -5 206.58 4.7
6 0 -5 2.9 1.1
-6 0 -5 2.2 1.1
6 0 5 2.8 0.9
-6 0 5 2.8 1.1
-6 0 5 4 1
6 0 -5 4.2 1.6
6 0 5 2.4 1.3
7 0 5 0.2 1
7 0 5 5 1.5
-7 0 -5 1.9 1.1
-7 0 -5 -0.7 1.3
-7 0 5 2.5 1
-7 0 5 0.1 1.1
7 0 -5 1.2 1.7
7 0 -5 1.9 1.1
8 0 -5 39.4 4.2
-8 0 -5 39.7 2.9
-8 0 -5 41.2 3.4
-8 0 5 39.7 2.8
-8 0 5 37.7 3.3
8 0 5 38 2.7
8 0 5 40.4 4.4
8 0 -5 41 3.1
0 -1 5 500.55 9.2
0 -1 5 471.35 10.2
0 1 -5 508.45 10.4
0 -1 -5 500.05 8.3
0 1 5 483.75 8
0 1 -5 493.25 9.4
0 1 5 506.85 8
0 -1 -5 488.05 8.1
-1 1 5 59.09 2.2
1 1 -5 63.49 3
-1 1 5 60.09 2.6
-1 -1 -5 60.59 2.1
1 1 -5 64.29 2.9
1 -1 5 54.89 3
1 1 5 59.39 1.8
-1 -1 5 63.79 3
-1 1 -5 54.79 2.3
-1 -1 5 58.39 2.7
1 -1 -5 59.99 2.3
1 1 5 58.59 2.2
1 -1 -5 54.79 2.5
-1 1 -5 58.09 2.9
2 -1 5 77.39 3.1
2 1 -5 67.19 3.8
2 1 -5 80.49 3.7
-2 -1 -5 70.49 3.2
2 -1 5 75.59 2.3
-2 -1 -5 66.69 2.8
2 1 -5 73.89 2.3
-2 1 5 75.19 3.8
-2 1 5 80.59 3.2
2 -1 5 79.59 4
2 1 5 70.49 3.3
-2 -1 5 83.09 3.5
-2 -1 5 67.79 1.9
2 -1 -5 78.89 3.8
2 1 5 74.29 2.8
-2 -1 5 78.69 2
-2 1 -5 74.29 2.1
-2 1 -5 72.09 1.8
-2 1 -5 80.09 3.9
2 -1 -5 77.29 3.4
3 1 -5 39 1.5
-3 1 5 38 1.6
-3 -1 -5 41.6 2.6
-3 -1 -5 41 3.4
3 -1 5 36.3 2.1
-3 -1 -5 41.9 1.6
-3 1 5 41.3 1.5
-3 -1 -5 41.2 1.6
3 -1 -5 42.8 1.6
-3 -1 5 41.3 1.7
3 1 5 42.7 1.4
3 1 5 46.5 3.3
3 1 5 39.3 2.6
-3 1 -5 46 1.9
-3 1 -5 39.5 1.4
3 -1 -5 40.7 1.9
3 1 5 42.2 1.8
-3 -1 5 41.9 1.6
4 1 -5 551.54 9.7
4 -1 5 569.84 10.9
4 1 -5 553.24 10.8
-4 1 5 562.24 10.2
-4 -1 -5 563.24 9.9
-4 1 5 562.04 9.7
-4 -1 -5 565.84 9.4
4 -1 -5 578.14 9.8
-4 1 -5 573.24 10.3
4 -1 -5 560.64 10.8
-4 1 -5 569.54 9.5
4 1 5 560.24 10.4
4 1 5 559.04 9.4
-4 -1 5 555.14 10.2
-4 -1 5 571.74 9.8
5 -1 5 8 1.1
-5 1 5 11 1.2
-5 -1 -5 10.8 1.5
-5 1 5 10.3 1.4
5 1 -5 9.9 1.2
-5 -1 -5 9.1 1.2
5 -1 5 10.6 1.6
5 1 -5 14.7 2
5 1 5 11 1
5 1 5 9.2 1.5
5 -1 -5 9.8 1.9
-5 1 -5 10.9 1.2
-5 1 -5 10 1.4
5 -1 -5 10.5 1.4
-5 -1 5 10.8 1.4
-5 -1 5 10.9 1.2
6 -1 5 59.79 2.6
6 -1 5 58.59 3.6
6 1 -5 57.19 2.8
6 1 -5 59.59 3.5
-6 -1 -5 56.69 3.1
-6 -1 -5 59.39 2.8
-6 1 5 55.89 2.6
-6 1 5 56.59 2.9
6 1 5 53.19 3.3
6 -1 -5 50.49 3.7
-6 -1 5 56.99 3.1
-6 1 -5 60.19 3.1
-6 -1 5 59.69 2.8
6 -1 -5 58.49 2.9
6 1 5 57.59 2.6
-6 1 -5 57.69 2.6
7 1 -5 37 3.3
-7 1 5 33.3 2.7
-7 1 5 29.9 2.2
7 -1 5 33.9 2.2
7 1 -5 36.1 2.6
-7 -1 -5 32.9 2.5
7 -1 5 32.7 3.4
-7 -1 -5 34.4 3.2
7 1 5 32.3 3
7 -1 -5 33.5 2.6
7 -1 -5 32.1 3.6
7 1 5 30.8 2.3
-7 -1 5 35.8 2.5
-7 1 -5 31.4 2.8
-7 -1 5 34.3 2.9
-7 1 -5 34.2 2.4
-8 -1 -5 12.9 1.9
-8 -1 -5 17.2 2.6
-8 1 5 14.6 2.4
8 -1 5 10.7 2
8 -1 5 11 2.8
8 1 -5 13.3 2.3
8 1 -5 10.8 2.7
-8 1 5 16.3 1.9
-8 1 -5 15 2.5
-8 1 -5 15.6 2.1
-8 -1 5 11.8 2.1
8 -1 -5 14.4 3.2
8 1 5 18.5 1.7
8 1 5 15.4 2.6
8 -1 -5 14.3 2
-8 -1 5 13.4 2.3
0 -2 5 39.7 2.2
0 -2 5 34.9 2.9
0 2 -5 38.8 3.1
-1 2 5 79.69 3
1 2 -5 74.39 3.6
1 2 -5 72.09 3.6
-1 2 5 75.59 2.4
-1 -2 -5 74.79 2
1 -2 5 73.09 3.9
-1 -2 5 77.39 3.4
-1 2 -5 80.59 3.1
1 2 5 77.49 1.8
-1 -2 5 78.59 3.5
-1 2 -5 75.29 3.8
1 -2 -5 78.29 3
1 2 5 75.49 2.1
1 -2 -5 75.79 2.5
2 2 -5 268.87 8.4
2 2 -5 274.37 8
2 -2 5 278.77 5.7
-2 2 5 280.77 5.4
-2 2 5 276.17 4.8
2 2 -5 275.27 5.1
-2 -2 -5 267.77 5.9
2 -2 5 278.57 8.6
2 2 -5 279.47 5.8
-2 2 5 273.47 6.7
-2 2 5 277.17 7.9
-2 -2 -5 277.87 6.8
2 -2 5 280.97 7.1
2 -2 -5 273.97 7.9
-2 -2 5 273.27 8.3
-2 2 -5 275.67 4.8
-2 -2 5 270.47 7.4
2 2 5 272.57 6
-2 2 -5 278.47 5.3
2 -2 -5 270.17 4.8
2 -2 -5 265.47 5.3
2 2 5 279.77 6.9
2 -2 -5 275.57 6.9
-2 -2 5 280.17 5.2
-2 2 -5 276.17 8.5
-3 -2 -5 73.49 4.1
-3 -2 -5 63.79 1.8
3 2 -5 62.99 2.1
-3 2 5 65.49 1.9
-3 -2 -5 59.99 2
3 2 -5 65.99 2.6
-3 -2 -5 69.19 3.5
-3 2 5 67.59 2.2
3 -2 5 64.99 2.8
3 2 5 64.89 1.7
3 -2 -5 67.29 2.1
3 2 5 66.39 3.3
3 2 5 69.89 3.9
-3 -2 5 64.29 2.1
3 -2 -5 71.09 2.6
-3 2 -5 64.79 2.4
-3 2 -5 63.79 1.9
-3 -2 5 65.19 2.2
3 2 5 61.39 2.2
-4 -2 -5 22.2 1.5
4 2 -5 20.2 1.7
-4 2 5 21 1.2
4 -2 5 22.6 1.4
-4 -2 -5 22.2 1.5
4 -2 5 19.3 1.9
4 2 -5 19.9 1.4
-4 2 5 24.2 1.5
-4 -2 5 23.6 1.6
4 -2 -5 21.1 1.7
-4 2 -5 22.5 1.2
4 -2 -5 26 2
4 2 5 22.1 1.2
-4 2 -5 22 1.6
4 2 5 23.3 1.6
-4 -2 5 22.8 1.5
5 2 -5 73.69 3.4
-5 -2 -5 77.49 3.1
5 -2 5 79.39 2.8
-5 -2 -5 81.69 2.8
5 -2 5 79.99 3.8
5 2 -5 74.99 3
-5 2 5 76.19 2.7
-5 2 5 78.19 3.2
-5 2 -5 75.59 3.2
5 2 5 77.69 2.6
5 -2 -5 79.49 4
5 -2 -5 81.39 3.1
-5 -2 5 76.99 3.1
5 2 5 81.69 3.4
-5 -2 5 76.39 2.9
-5 2 -5 79.59 2.7
6 2 -5 -0.2 0.9
-6 2 5 -1.1 0.9
-6 2 5 -0.4 0.6
6 -2 5 0 0.8
6 2 -5 -0.3 1
-6 -2 -5 -0.1 1.1
6 -2 5 -1.5 1.3
-6 -2 -5 -0.9 1.3
6 2 5 0.4 0.6
-6 2 -5 -0.1 1
6 -2 -5 1 1.4
-6 -2 5 -0.1 1
-6 2 -5 -0.4 0.7
6 2 5 -1.3 1
-6 -2 5 0.4 1.2
6 -2 -5 1.7 1.7
7 -2 5 9.5 2.4
7 2 -5 7.9 1.6
-7 -2 -5 8.9 3.3
-7 2 5 9.9 1.5
7 2 -5 8.9 2.2
7 -2 5 8.3 1.6
-7 2 5 10.6 1.8
-7 -2 5 10.8 1.8
-7 -2 5 8.5 2
7 2 5 9.1 2.9
7 -2 -5 8.2 2.7
7 -2 -5 10.8 2
-7 2 -5 10 1.6
-7 2 -5 7.7 1.8
8 -2 5 4.6 1.3
8 2 -5 2 1.8
-8 2 5 3.4 1.5
8 -2 5 3.2 2.3
-8 2 5 2.4 1.1
8 2 -5 5.5 1.5
-8 2 -5 2.5 1.8
8 -2 -5 -1.1 1.8
-8 2 -5 1.4 1.3
8 -2 -5 2.4 2.7
-8 -2 5 3.6 1.5
-8 -2 5 2.8 1.8
0 -3 5 22 1.3
0 -3 -5 26.6 1.2
0 -3 5 18.8 1.7
0 3 5 20.7 0.9
0 3 -5 19.4 1.7
0 3 -5 19.7 1.1
0 -3 5 19.8 0.8
0 -3 -5 26.2 1.6
0 3 -5 20.2 1.1
0 -3 5 22.1 2.4
0 3 -5 20.2 2.7
0 3 5 20.7 0.8
1 3 -5 25.8 1.4
1 -3 5 26 1.5
1 -3 5 27.8 3.4
1 3 -5 23.1 2.2
-1 -3 -5 24.5 0.9
1 3 -5 23.4 2.5
-1 3 5 25.8 1.8
-1 -3 -5 24.4 1
1 3 -5 23.7 1.1
1 -3 5 24 0.9
-1 -3 5 24.4 2.3
1 3 5 27.2 1.2
1 3 5 25.9 1.1
-1 3 -5 24.3 2.5
-1 -3 5 24.2 1.3
-1 3 -5 26.8 1.3
1 -3 -5 27.1 1.8
-1 -3 5 27.4 2.1
1 -3 -5 27.3 2
-1 3 -5 25.1 2
-1 -3 5 25.8 1
-2 -3 -5 6.2 1.2
2 3 -5 6.9 0.8
2 3 -5 5.7 1.5
2 -3 5 6 1
-2 3 5 5.5 1.5
2 3 -5 5.8 1.6
2 3 -5 5.2 1.1
-2 3 5 6 0.7
-2 -3 -5 7 1.2
2 -3 5 5.4 0.6
-2 3 5 6.2 0.6
-2 3 5 7.7 1.2
2 3 5 6.7 1.1
2 -3 -5 7.8 1.5
2 -3 -5 9.7 1.1
-2 -3 5 5.2 1.4
-2 3 -5 5.1 0.8
-2 -3 5 4.2 1.3
-2 3 -5 5.8 0.6
2 -3 -5 5 1.5
2 3 5 7.1 1.2
-2 -3 5 9.3 1.1
2 -3 -5 3.5 0.8
3 3 -5 11 1.4
-3 -3 -5 9.9 1.1
-3 3 5 10.6 0.8
3 -3 5 9.7 1.4
-3 3 5 11.1 1
3 3 -5 9.4 1
3 -3 -5 9 1.4
-3 -3 5 9.4 1.1
-3 3 -5 10.7 1.2
3 3 5 11.6 1.4
-3 -3 5 9.3 0.9
-3 3 -5 10.7 0.9
3 -3 -5 11.1 1.3
4 3 -5 149.29 3.9
-4 3 5 150.48 3.6
4 -3 5 155.68 5
-4 3 5 149.79 4.1
4 -3 5 152.38 3.8
4 3 -5 152.48 4.7
4 -3 -5 152.38 4.9
-4 3 -5 153.78 3.7
-4 -3 5 153.18 3.9
4 -3 -5 150.18 3.9
-4 3 -5 153.28 4.4
-4 -3 5 153.78 3.9
5 -3 5 35.8 3
5 -3 5 33.8 2
5 3 -5 35.9 2.5
-5 3 5 33 1.8
-5 3 5 34.7 2.1
5 3 -5 33.9 2.1
5 -3 -5 33.8 2.4
5 -3 -5 34.5 3.3
-5 -3 5 34.4 2.3
-5 3 -5 33.5 1.9
-5 3 -5 36.8 2.4
-5 -3 5 30.9 2.1
-6 3 5 23 1.8
6 3 -5 26.3 2.6
6 -3 5 20.7 2.1
6 3 -5 25.7 2.1
6 -3 5 25.5 3.2
-6 3 5 22.9 2.1
-6 3 -5 24.2 1.9
6 -3 -5 22.5 3.2
-6 -3 5 24.2 2.4
-6 3 -5 25.8 2.4
6 -3 -5 24.7 2.7
-6 -3 5 27.7 2.3
-7 3 5 19.3 2.4
7 -3 5 15.6 3.1
-7 3 5 15.6 1.7
7 3 -5 19.5 2.8
7 -3 5 20.2 2.2
7 3 -5 20.6 2.1
-7 -3 5 17.6 2.4
-7 3 -5 19.2 1.9
7 -3 -5 18.6 2.5
-7 -3 5 18.3 2.1
-7 3 -5 16.9 2.2
7 -3 -5 19.4 3.4
8 3 -5 7.1 1.8
-8 3 5 8.2 1.4
-8 3 5 9.7 1.8
8 -3 5 7.4 1.7
8 3 -5 4.8 2.3
8 -3 5 8.5 2.8
-8 3 -5 6.4 1.9
-8 3 -5 5.2 1.6
-8 -3 5 5.9 1.9
8 -3 -5 8 2
-8 -3 5 6.8 1.9
8 -3 -5 10 2.9
0 4 -5 170.58 5.9
0 4 -5 159.48 3.7
0 -4 5 163.88 4.2
0 -4 -5 161.68 3.5
0 4 5 167.88 3.7
0 -4 5 155.78 6.8
0 -4 5 156.58 5.3
0 4 -5 161.48 6.8
0 4 5 153.88 3.9
0 -4 -5 158.78 4.2
0 -4 5 158.68 3.2
0 4 -5 169.18 4.1
-1 4 5 228.78 6.3
1 4 -5 224.08 5.1
1 -4 5 232.28 4.3
1 -4 5 242.88 5.3
1 4 -5 226.68 7.8
1 4 -5 231.28 4.7
1 4 -5 212.68 8.2
1 -4 -5 233.18 6.5
1 -4 -5 228.18 5.5
-1 -4 5 227.38 5
-1 -4 5 230.18 4.2
-1 -4 5 224.18 6.9
-1 -4 5 211.88 7.4
-1 4 -5 230.08 4.9
-2 4 5 111.49 5
-2 4 5 108.79 2.8
2 4 -5 106.59 3.5
-2 4 5 112.09 2.4
2 -4 5 113.09 3.6
2 -4 5 103.79 2.7
2 -4 -5 122.49 3.5
2 -4 -5 105.69 5.4
2 -4 -5 114.89 4.4
-2 -4 5 119.89 3.3
2 -4 -5 105.69 2.6
-2 4 -5 104.19 3.1
-2 -4 5 105.19 2.7
3 4 -5 144.89 3.8
3 4 -5 155.88 4.6
-3 4 5 148.59 3.8
-3 4 5 154.38 3.4
3 -4 5 153.58 4.7
-3 -4 5 153.08 3.9
-3 4 -5 151.78 3.5
-3 4 -5 152.38 4.2
3 -4 -5 155.98 3.7
-3 -4 5 146.39 3.6
3 -4 -5 160.58 4.6
4 4 -5 9.3 1.6
4 4 -5 12.2 1.5
-4 4 5 7.7 1.2
-4 4 5 9 1
4 -4 5 5.9 1.7
-4 -4 5 9.9 1.5
4 -4 -5 9.1 2.3
-4 4 -5 11.6 1.2
-4 4 -5 8.6 1.3
4 -4 -5 9.4 1.5
-4 -4 5 5.9 1.2
-5 4 5 64.19 3
5 -4 5 72.39 3.2
5 4 -5 64.89 3.4
5 -4 5 72.49 4.5
5 4 -5 67.39 2.9
-5 4 5 69.29 2.6
-5 4 -5 70.19 2.7
-5 4 -5 66.49 3.3
5 -4 -5 68.59 4.3
5 -4 -5 72.49 3.2
-5 -4 5 68.59 3
-5 -4 5 73.59 3.3
-6 4 5 14.7 1.5
6 4 -5 17.2 1.8
-6 4 5 19.2 2.2
6 4 -5 14.2 2.2
6 -4 5 18 2
6 -4 5 18 3
-6 -4 5 16.3 2
-6 4 -5 17.3 1.6
6 -4 -5 16.9 2.2
-6 -4 5 16.8 2.2
6 -4 -5 17.3 3.1
-6 4 -5 14.4 1.9
7 -4 5 16.7 3.5
-7 4 5 14.4 2.1
7 -4 5 15.2 2.3
7 4 -5 11.6 1.8
7 4 -5 14.7 2.4
-7 4 5 16.4 1.7
-7 4 -5 16.1 2.4
-7 4 -5 17.6 1.9
7 -4 -5 13.6 3.2
-7 -4 5 12.5 2
7 -4 -5 16.9 2.3
-7 -4 5 13.1 2.1
0 -5 5 2.2 1.2
0 5 -5 4.2 0.8
0 5 -5 4.6 1
0 -5 5 3.5 0.7
1 5 -5 38.7 2
1 5 -5 36 1.8
1 -5 5 38.1 1.7
1 -5 5 33.8 2.6
-1 -5 5 38.4 1.5
-1 5 -5 35.8 1.8
-1 5 -5 35.2 1.9
-1 -5 5 46.8 2.7
2 -5 5 71.09 2.3
2 5 -5 65.09 2.4
2 -5 5 73.89 3.2
2 5 -5 69.49 3
-2 5 -5 66.69 2.6
-2 -5 5 71.29 2.2
-2 -5 5 75.59 3
3 5 -5 81.89 2.8
3 -5 5 84.29 3.8
-3 5 5 83.89 2.4
-3 5 5 85.09 2.8
3 5 -5 81.09 3.4
-3 -5 5 84.39 3.1
3 -5 -5 89.69 4.2
-3 5 -5 81.99 3.1
3 -5 -5 83.49 2.8
-3 -5 5 88.59 2.8
4 -5 5 23.8 3
4 5 -5 21.3 1.7
-4 5 5 23.1 1.4
4 5 -5 21.4 2.1
-4 5 5 21.4 1.7
-4 5 -5 19 2.1
4 -5 -5 21.3 2.2
4 -5 -5 23.2 2.9
-4 -5 5 20.5 2.2
-4 -5 5 17.4 1.8
-4 5 -5 21.3 1.5
5 5 -5 12.7 1.9
5 -5 5 9.4 2.3
-5 5 5 14.4 1.3
5 5 -5 13.9 1.7
-5 5 5 12.4 1.7
5 -5 5 12.5 1.7
-5 -5 5 12.9 1.8
-5 -5 5 14.5 2
-5 5 -5 11.1 1.8
-5 5 -5 11.8 1.3
5 -5 -5 11.9 1.9
5 -5 -5 11.7 3
-6 5 5 6.8 1.2
6 5 -5 9.3 1.8
6 -5 5 9.3 1.9
-6 5 5 7.6 1.4
6 5 -5 8 1.6
6 -5 5 6.8 2.6
-6 -5 5 6.5 1.7
-6 -5 5 5.9 1.8
-6 5 -5 7.4 1.7
6 -5 -5 7.9 1.8
-6 5 -5 8.9 1.4
6 -5 -5 6.1 2.6
-7 5 5 27.8 2.1
7 -5 5 28 3.2
7 5 -5 29.9 3.5
7 -5 5 25.2 3.8
-7 5 5 31.8 2.6
7 5 -5 22.1 2.5
-7 5 -5 26.4 2.3
-7 5 -5 27.6 2.8
-7 -5 5 27.8 2.9
-7 -5 5 26.8 2.9
7 -5 -5 17.2 3.6
7 -5 -5 24.4 2.8
0 -6 5 6.5 1.7
0 6 -5 9.8 1.2
0 -6 5 11.8 1.3
0 6 -5 12.9 1.5
1 6 -5 164.88 4.7
1 6 -5 167.88 4.4
1 -6 5 167.58 5.3
1 -6 5 161.58 3.7
-1 -6 5 167.18 3.7
-1 6 -5 167.68 4.7
-1 6 -5 164.78 4.3
-1 -6 5 174.78 4.9
2 -6 5 131.89 4.9
2 6 -5 145.19 4
2 6 -5 131.19 4.6
2 -6 5 137.69 3.6
-2 -6 5 131.19 3.4
-2 6 -5 134.69 4
3 6 -5 143.29 4.9
3 6 -5 138.29 4.1
3 -6 5 140.19 5.3
-3 -6 5 137.49 4.5
-3 -6 5 131.29 3.6
-3 6 -5 136.49 4.3
4 6 -5 0.6 0.8
4 6 -5 1.2 0.9
4 -6 5 -0.4 2.4
-4 -6 5 1.1 1.1
-4 6 -5 0.7 0.9
-4 -6 5 0.6 1.5
-5 6 5 25.1 2
5 6 -5 23.1 2.4
5 -6 5 30 2.9
5 -6 5 24.1 3.6
-5 6 5 27.3 1.7
5 6 -5 25.9 2
5 -6 -5 26.3 2.5
-5 6 -5 28.7 2.5
-5 -6 5 27.8 2.3
5 -6 -5 28.8 3.5
-5 -6 5 23.4 2.3
6 -6 5 22.5 2.6
-6 6 5 31.5 2.1
6 -6 5 24.3 3.9
-6 6 5 28.3 2.3
6 -6 -5 20.8 3.6
6 -6 -5 28.3 2.9
-6 6 -5 26.6 2.6
7 -6 5 1.1 2.9
-7 6 5 4.2 1.5
-7 6 5 3.6 1.2
7 -6 5 0.4 2.1
7 -6 -5 0.1 2.1
-7 6 -5 4.2 1.5
7 -6 -5 4.8 3
0 7 -5 0.9 0.8
0 -7 5 1.1 1
0 7 -5 -0.1 0.8
0 -7 5 0.4 1.9
1 -7 5 25.3 2.9
1 -7 5 26 1.9
1 7 -5 28.4 2.4
1 7 -5 26.9 1.9
-1 -7 5 23 2.5
-1 7 -5 27.6 2.2
-1 7 -5 28.1 1.9
-1 -7 5 25.9 1.9
2 7 -5 19.4 2.2
2 -7 5 21.3 2
2 7 -5 19.8 1.8
2 -7 5 20.3 2.9
-2 7 -5 17.3 1.8
-2 -7 5 21.5 2.4
-2 -7 5 18.5 1.7
-2 7 -5 18.7 1.7
3 -7 5 74.39 4.8
-3 7 -5 73.59 3.3
4 -7 5 5.9 2.3
-4 7 -5 5.6 1.4
5 -7 5 66.39 4.9
5 -7 5 60.99 3.6
-5 7 -5 61.79 3.6
6 -7 5 11.9 2.4
6 -7 5 12.2 3.3
-6 7 -5 13.7 2.2
0 8 -5 3.1 1.4
0 -8 5 3.5 2.7
1 -8 5 58.59 2.8
1 -8 5 56.59 4.2
-1 8 -5 56.59 2.8
-1 8 -5 55.89 3.1
2 -8 5 53.89 4.6
-2 8 -5 55.09 3.1
-2 8 -5 61.09 3
3 -8 5 53.29 4.3
-3 8 -5 47.8 2.9
4 -8 5 31.2 3.8
-4 8 -5 33.4 2.6
5 -8 5 34.1 4.3
5 -8 5 40.6 3.4
-5 8 -5 34.8 3.1
6 -8 5 19.1 2.6
6 -8 5 15.9 3.6
-6 8 -5 16.5 2.4
4 -9 5 6.7 2.9
-4 9 -5 6 1.6
5 -9 5 21.6 2.7
5 -9 5 19.5 3.7
-5 9 -5 22.7 2.9
0 0 -6 90.59 2.9
0 0 6 88.39 3
0 0 -6 89.19 3.2
0 0 6 89.69 2.7
1 0 -6 141.49 4.6
-1 0 -6 142.49 3.7
1 0 -6 140.79 4.3
-1 0 -6 140.59 4.3
1 0 6 137.99 4.5
-1 0 6 138.09 4.1
-1 0 6 141.89 4.7
2 0 -6 24.6 1.3
-2 0 -6 24 2.1
2 0 -6 23.9 2.2
2 0 6 25.2 1.6
2 0 6 24 2.2
-2 0 6 25.3 2.2
-2 0 6 23.6 1.1
-2 0 6 24.2 1
2 0 -6 23.8 2
-2 0 6 23.4 1.8
2 0 -6 26.2 1.1
-3 0 -6 72.09 4.4
3 0 -6 69.19 2.6
-3 0 6 73.39 2.2
3 0 -6 69.69 2.1
3 0 6 67.99 3.4
-3 0 6 70.19 2.3
-3 0 -6 67.99 1.9
-3 0 -6 72.79 2.3
3 0 6 70.89 4.4
3 0 6 74.79 2.6
3 0 6 72.19 2
-4 0 6 14.5 1.2
4 0 6 15.1 1.5
4 0 -6 15.5 1.6
-4 0 6 16.8 1.2
-4 0 -6 13.8 1.3
4 0 -6 15.7 1.2
4 0 6 14.6 1
-4 0 -6 15.1 1.2
5 0 6 32.8 2.4
-5 0 6 34.4 2.1
5 0 -6 33.9 2
5 0 6 33.4 1.7
-5 0 -6 34.8 2.2
-5 0 -6 33.3 2
5 0 -6 36.6 2.8
-5 0 6 35.5 1.9
6 0 6 24.3 1.8
6 0 -6 23.8 2.6
-6 0 -6 24.6 2
6 0 6 29.5 2.6
-6 0 6 26.1 2.3
-6 0 -6 28.6 2.6
6 0 -6 25.6 2.1
-6 0 6 28.5 1.9
-7 0 6 9.8 1.9
7 0 6 4.8 2
7 0 6 9.8 1.4
-7 0 -6 12.1 1.7
-7 0 -6 8.9 2.1
7 0 -6 9.1 1.8
-7 0 6 9 1.5
7 0 -6 9.6 2.5
8 0 -6 -0.9 1.4
-8 0 -6 0.9 1.4
8 0 6 -2.9 1.4
8 0 -6 0.6 2.1
-8 0 -6 -0.5 1.7
-8 0 6 -0.1 1.2
8 0 6 -1.5 1
-8 0 6 -0.8 1.4
0 -1 6 773.32 14.6
0 1 6 748.93 12
0 -1 -6 775.12 12.6
0 1 -6 746.63 13.5
0 -1 6 742.53 13.1
0 1 6 757.32 11.9
0 1 -6 747.13 14.6
0 -1 -6 739.23 12.2
1 1 -6 605.64 12.2
-1 1 6 584.94 11.1
1 1 -6 585.24 12.1
-1 -1 -6 594.34 9.6
-1 1 6 563.54 10.4
1 -1 6 585.54 12.5
-1 -1 -6 576.64 10.4
-1 -1 6 602.34 11.9
1 -1 -6 589.54 11.3
-1 1 -6 583.44 12.3
1 1 6 588.54 10.5
-1 1 -6 580.94 10.9
1 1 6 577.84 9.6
-1 -1 6 580.24 11.7
1 -1 -6 584.24 10.6
-2 -1 -6 437.36 9.7
-2 1 6 437.96 7.4
2 1 -6 452.35 11.3
-2 1 6 436.86 7.1
2 1 -6 442.46 8.1
2 -1 6 450.55 9.4
2 -1 6 441.06 11.1
-2 1 6 446.36 9.4
2 1 -6 433.66 7.4
2 1 -6 441.36 10.5
-2 1 6 446.26 10.8
2 -1 6 444.26 7.9
-2 -1 6 443.06 10.8
-2 1 -6 440.96 10.9
-2 1 -6 421.66 7.4
2 -1 -6 434.96 7.7
-2 -1 6 441.86 9.9
2 1 6 445.06 8.7
2 1 6 439.26 9.9
-2 -1 6 442.36 7.4
2 -1 -6 454.85 10.8
2 -1 -6 434.66 9.6
2 -1 -6 424.46 7.1
-2 -1 6 442.56 7.4
-2 1 -6 429.96 7
-3 -1 -6 261.07 8.1
3 -1 6 247.18 5.7
-3 -1 -6 247.58 4.9
3 1 -6 251.17 5
-3 1 6 248.48 5.1
3 1 -6 250.17 5.7
-3 1 6 250.17 4.8
-3 -1 -6 246.68 6.6
-3 -1 -6 251.67 4.6
3 -1 -6 250.57 4.9
-3 1 -6 247.68 5.2
3 1 6 255.17 5.3
3 1 6 255.17 8.3
-3 -1 6 256.37 5
-3 1 -6 249.48 4.7
3 -1 -6 249.58 5.6
-3 -1 6 249.18 5.2
3 1 6 248.28 4.6
3 1 6 255.87 6.9
-4 1 6 3 0.7
-4 -1 -6 3.9 0.8
4 -1 6 3.1 1
4 -1 6 4 0.7
4 1 -6 4.3 0.8
4 1 -6 3.4 0.9
4 -1 -6 4.1 0.9
4 -1 -6 4.3 1.1
-4 1 -6 4.7 0.7
-4 -1 6 2.7 0.7
4 1 6 4.2 0.9
-4 1 -6 3 0.8
-5 1 6 55.69 2.6
5 1 -6 60.99 3.3
-5 1 6 63.19 2.4
5 -1 6 55.89 3.2
5 -1 6 57.29 2.3
-5 -1 -6 60.99 2.5
-5 -1 -6 59.19 2.7
5 1 -6 63.09 2.6
-5 1 -6 57.69 2.4
5 -1 -6 59.79 3.3
5 -1 -6 65.29 2.7
-5 -1 6 62.69 2.5
-5 -1 6 57.69 2.6
5 1 6 56.69 2.9
5 1 6 57.69 2.2
-5 1 -6 56.89 2.7
-6 1 6 28.2 2.2
-6 1 6 24 1.9
-6 -1 -6 27 2.2
6 1 -6 27.6 2.1
6 -1 6 23.6 2.6
6 -1 6 24.1 1.9
6 1 -6 28.3 2.7
-6 -1 -6 20.6 2.3
6 1 6 23.6 2.6
-6 -1 6 24.2 2
6 -1 -6 29.7 2.3
6 -1 -6 32.7 3.4
6 1 6 34 1.9
-6 1 -6 27.7 2
-6 -1 6 27.6 2.4
-6 1 -6 27.3 2.4
7 1 -6 30.1 3.3
-7 1 6 31.4 2.5
7 1 -6 23.1 2.6
-7 -1 -6 31.4 2.5
-7 1 6 26.7 2.1
7 -1 6 32.9 2.2
-7 -1 -6 26.9 2.8
7 -1 6 24.1 3.1
-7 -1 6 30.5 2.8
-7 -1 6 28 2.3
-7 1 -6 30.6 2.4
7 -1 -6 26.9 3.5
7 1 6 34.1 2.8
-7 1 -6 30.1 2.9
7 1 6 26.5 2.1
7 -1 -6 27.9 2.7
8 1 -6 20.3 2.7
8 1 -6 21.3 3.5
-8 1 6 22.6 2.8
-8 -1 -6 23.7 3.1
8 -1 6 17.7 2.3
8 -1 6 20.7 3
-8 1 6 26.9 2.3
-8 -1 6 20.7 2.8
8 1 6 15 3.1
-8 -1 6 23.2 2.4
-8 1 -6 22.9 2.5
8 -1 -6 19.4 2.7
-8 1 -6 20.4 2.8
8 -1 -6 21.3 3.6
8 1 6 28.9 3
0 2 -6 740.03 13.9
0 -2 6 718.43 13.4
0 2 -6 723.03 15.4
0 -2 6 735.83 15.4
1 2 -6 401.36 7.2
1 -2 6 372.96 6.2
-1 2 6 408.46 8.4
1 2 -6 381.56 6.6
1 2 -6 385.46 9.9
1 -2 6 386.86 10.3
-1 2 6 388.46 7.4
-1 -2 -6 389.16 6.6
1 -2 6 395.16 7
1 2 -6 392.56 9.9
-1 -2 6 396.86 6.4
1 2 6 388.56 6.7
1 2 6 398.26 6.3
-1 -2 6 383.66 9.4
-1 -2 6 405.46 9.4
-1 2 -6 399.96 8.7
-1 -2 6 388.26 6.9
1 -2 -6 393.86 8.3
-1 2 -6 381.46 6.7
1 -2 -6 389.56 7.6
-1 2 -6 393.76 10
2 2 -6 88.19 4.5
-2 -2 -6 78.59 2.7
2 2 -6 82.69 4.5
2 -2 6 77.29 4.6
2 2 -6 78.79 2.2
2 2 -6 77.09 2.8
2 -2 6 90.39 3.8
2 -2 6 84.69 2.7
-2 -2 -6 80.79 3.3
-2 2 6 78.59 3.3
2 -2 6 76.99 2
-2 2 6 79.09 1.9
-2 2 6 79.19 4
-2 2 6 80.59 2.1
2 -2 -6 83.39 4.1
-2 2 -6 80.09 2
2 2 6 78.59 3.4
2 2 6 80.89 2.8
2 -2 -6 82.99 3.6
-2 2 -6 72.69 3.5
-2 -2 6 81.39 2.2
-2 -2 6 84.49 4.6
-2 2 -6 78.09 2.3
2 -2 -6 82.29 2.4
-2 -2 6 78.79 2.3
-2 -2 6 79.59 3.9
2 -2 -6 69.09 2
-2 2 -6 80.39 4.5
3 2 -6 7.7 1.1
3 -2 6 8.9 1.3
-3 -2 -6 8.1 0.8
-3 -2 -6 11 2
-3 -2 -6 9.2 1.5
-3 2 6 8.2 0.9
-3 2 6 7.5 0.8
-3 -2 -6 10.1 0.9
3 2 -6 6.4 0.8
3 2 6 9.4 1.4
-3 -2 6 8.5 0.9
3 2 6 7.9 1.9
3 -2 -6 8.6 1.3
-3 2 -6 7.9 1
3 -2 -6 6.2 1
3 2 6 9.7 1.1
-3 -2 6 8.6 0.9
3 2 6 7.4 0.6
-3 2 -6 7.9 0.8
4 -2 6 129.09 4.3
4 -2 6 124.79 3.3
-4 2 6 122.79 3.6
4 2 -6 124.09 4.1
-4 2 6 117.29 3.1
4 2 -6 120.29 3.4
-4 -2 -6 126.99 3.1
-4 -2 -6 115.29 3.3
-4 -2 6 117.79 3.3
4 -2 -6 129.99 3.5
-4 2 -6 120.59 3.1
4 2 6 124.39 2.9
-4 2 -6 122.49 3.7
4 -2 -6 120.99 4.1
4 2 6 121.19 3.6
-4 -2 6 124.59 3.6
-5 2 6 43.6 2.5
-5 2 6 43.6 2
-5 -2 -6 41.6 2.1
5 2 -6 36.3 2.8
5 -2 6 42.6 3
-5 -2 -6 44 2.5
5 2 -6 47.2 2.4
5 -2 6 42.8 2.3
5 -2 -6 43.4 2.6
-5 2 -6 44.5 2.1
-5 -2 6 40.1 2.3
-5 2 -6 43.7 2.5
5 2 6 40.7 2.6
5 2 6 41.4 1.9
5 -2 -6 45.2 3.4
-5 -2 6 46.7 2.4
6 -2 6 21.5 2.6
6 -2 6 26.5 2.1
6 2 -6 26.9 2.6
6 2 -6 28.1 2.1
-6 -2 -6 26 2.7
-6 2 6 27.9 2.2
-6 2 6 28.7 1.9
-6 -2 -6 28.8 2.3
6 -2 -6 29.9 2.6
-6 2 -6 27.9 2
6 2 6 22.4 2.4
6 2 6 25.7 1.9
-6 -2 6 29.2 2.3
6 -2 -6 26.8 3.1
-6 2 -6 33 2.6
-6 -2 6 26 2.2
7 -2 6 120.09 4.3
-7 2 6 119.19 4.7
7 2 -6 113.09 5.3
-7 2 6 113.69 4
7 -2 6 120.29 5.8
7 2 -6 129.39 4.7
-7 2 -6 122.49 4.2
7 -2 -6 111.49 5.7
-7 2 -6 118.19 4.9
7 -2 -6 126.29 4.7
-7 -2 6 117.39 4.8
-7 -2 6 124.49 4.4
8 2 -6 20.4 3.1
8 -2 6 27.1 2.3
8 2 -6 24.9 2.8
-8 2 6 19.8 2.7
8 -2 6 21.3 3.5
-8 2 6 22.1 2.1
-8 -2 6 23 2.6
8 -2 -6 23.5 2.9
-8 -2 6 24 2.9
-8 2 -6 22.6 2.8
8 -2 -6 16.9 3.6
-8 2 -6 24.6 2.4
0 3 -6 438.16 7.8
0 3 -6 429.56 10
0 3 -6 423.66 7.4
0 3 -6 417.76 11.4
0 -3 6 446.86 7.9
0 -3 6 414.16 6.8
0 -3 6 416.06 11.4
1 3 -6 11.1 2.3
-1 3 6 11.8 1.5
1 -3 6 11 2.2
1 3 -6 11.4 1.1
1 -3 6 9.5 0.7
1 3 -6 10 0.8
1 -3 6 10.8 1.1
-1 3 6 12 1
1 3 -6 14.7 2.3
-1 -3 6 11.5 1.8
1 -3 -6 10.8 1.5
-1 -3 6 10.4 1.9
-1 -3 6 10.4 0.7
1 -3 -6 11.2 1.3
-1 3 -6 12.1 2.2
-1 3 -6 10.4 0.9
-1 -3 6 9.6 1.1
-1 3 -6 11.2 1.7
2 -3 6 65.99 1.9
2 -3 6 68.39 2.7
2 3 -6 65.79 2.2
-2 3 6 68.69 2
-2 3 6 69.29 3.1
-2 3 6 66.39 1.7
2 3 -6 68.99 2.7
-2 3 6 73.79 4
-2 -3 6 65.59 2.3
2 -3 -6 59.69 2
-2 -3 6 68.29 2
2 -3 -6 70.69 3.9
2 -3 -6 71.99 2.3
-2 3 -6 64.59 2.3
2 -3 -6 66.99 3.4
-3 3 6 327.07 6
-3 3 6 331.47 6.4
3 -3 6 334.17 7.3
3 3 -6 335.57 6.5
3 3 -6 324.87 7.3
3 -3 -6 327.77 6.1
-3 3 -6 334.97 6.8
-3 -3 6 328.37 6.3
-3 -3 6 321.17 6.4
-3 3 -6 334.17 6.1
3 -3 -6 345.17 7.1
4 -3 6 30 2.4
4 3 -6 33.4 2.2
-4 3 6 31.5 1.8
4 3 -6 32.3 1.8
-4 3 6 33.6 1.6
-4 -3 6 32.2 1.7
-4 3 -6 30 1.6
4 -3 -6 30.7 2
-4 3 -6 30.9 1.9
4 -3 -6 31.5 2.7
-4 -3 6 31.1 1.9
5 -3 6 22.4 2.6
5 -3 6 20.3 1.8
-5 3 6 21.3 1.8
5 3 -6 25.8 1.8
5 3 -6 24.4 2.3
-5 3 6 24.7 1.6
-5 -3 6 22.6 2
5 -3 -6 22.3 2
-5 3 -6 21.3 1.9
-5 3 -6 22.7 1.5
5 -3 -6 25.9 2.9
-5 -3 6 22.1 1.8
6 -3 6 57.69 4.2
6 -3 6 62.29 2.9
6 3 -6 58.59 2.9
-6 3 6 57.59 3
-6 3 6 57.19 2.5
6 3 -6 57.19 3.7
-6 3 -6 59.09 3.2
6 -3 -6 56.49 3.3
6 -3 -6 60.09 4.4
-6 -3 6 58.99 3.1
-6 3 -6 57.69 2.6
-6 -3 6 56.59 3
7 -3 6 39.6 2.8
-7 3 6 39.8 2.3
7 -3 6 38 4
7 3 -6 39.3 3.3
7 3 -6 41.5 2.8
-7 3 6 41.5 2.9
-7 3 -6 41 3.1
-7 -3 6 41.4 3.1
-7 3 -6 36.4 2.6
7 -3 -6 36.5 4.1
-7 -3 6 37.9 2.9
7 -3 -6 40.7 3.3
-8 3 6 19.9 2.7
-8 3 6 19.5 2.1
8 -3 6 24.8 2.4
8 3 -6 20.5 2.7
8 3 -6 14.6 2.8
8 -3 6 12.6 3.3
-8 3 -6 20.3 2.3
8 -3 -6 16.4 2.6
-8 3 -6 22.1 3.3
-8 -3 6 19.9 2.5
-8 -3 6 21.3 2.6
8 -3 -6 14.8 3.6
0 4 -6 720.03 12.2
0 4 -6 698.03 11.7
0 -4 6 695.73 11
0 -4 6 721.23 12.3
1 4 -6 53.79 2
1 -4 6 51.09 1.6
1 4 -6 51.39 2.3
1 -4 6 51.79 2.4
-1 4 -6 50.59 2
-1 -4 6 53.89 2.3
-1 -4 6 53.99 1.7
2 -4 6 121.79 3.9
2 4 -6 117.09 3.9
-2 4 6 116.29 2.8
2 4 -6 112.49 3.1
-2 4 6 115.39 5.1
-2 4 6 116.49 2.5
2 -4 6 117.59 2.9
-2 4 -6 116.09 3.4
2 -4 -6 124.39 4.6
2 -4 -6 116.49 2.8
-2 -4 6 135.29 3.7
-2 -4 6 114.79 2.9
2 -4 -6 117.89 5.5
2 -4 -6 114.79 3.4
3 4 -6 16 1.6
3 4 -6 15.1 1.2
3 -4 6 14.7 1.8
-3 4 6 16.6 1.2
-3 4 6 16 1
-3 4 -6 16.7 1.4
3 -4 -6 16.2 1.6
-3 -4 6 14.1 1.5
3 -4 -6 17.9 2
-3 -4 6 11.8 1.1
4 -4 6 41 3.3
-4 4 6 46.1 2.3
-4 4 6 46.7 1.9
4 4 -6 48.2 2.4
4 4 -6 44.5 2.6
-4 -4 6 45.2 2.5
4 -4 -6 48.3 3.6
-4 -4 6 49.4 2.2
4 -4 -6 50.19 2.6
-4 4 -6 47.8 2
-4 4 -6 50.49 2.7
5 4 -6 19.2 1.9
5 -4 6 25.2 1.9
-5 4 6 24.6 1.9
-5 4 6 20.3 1.5
5 4 -6 22.2 2.3
5 -4 6 23.3 3
5 -4 -6 18.7 2.7
-5 4 -6 23.3 1.6
-5 4 -6 26.1 2.3
-5 -4 6 22.3 2.2
-5 -4 6 26.4 2.6
5 -4 -6 24.1 2.5
-6 4 6 68.49 2.8
6 -4 6 67.39 4.7
6 -4 6 72.49 3.4
-6 4 6 69.39 3.4
6 4 -6 66.79 3.3
6 4 -6 69.09 3.9
-6 4 -6 67.39 3.5
6 -4 -6 71.29 3.7
-6 4 -6 70.49 2.9
-6 -4 6 68.39 3.5
6 -4 -6 67.99 4.8
-6 -4 6 69.89 3.5
-7 4 6 77.99 3.9
7 -4 6 80.29 5.2
7 4 -6 71.39 4.5
7 -4 6 83.29 3.9
7 4 -6 70.19 3.9
-7 4 6 80.29 3.3
-7 -4 6 77.39 3.9
7 -4 -6 76.49 4.2
-7 4 -6 78.29 3.3
-7 4 -6 76.99 4.1
7 -4 -6 79.89 5.6
-7 -4 6 77.99 4
0 -5 6 64.19 3
0 5 -6 70.69 2.5
0 5 -6 68.69 2.7
0 -5 6 60.79 1.9
1 5 -6 2.6 0.9
1 -5 6 1.2 1.1
1 -5 6 3.7 0.8
1 5 -6 1.9 0.7
-1 -5 6 4.7 1.3
-1 5 -6 2.8 0.8
-1 5 -6 2.8 0.9
-1 -5 6 2.5 0.7
2 -5 6 41.4 1.8
2 5 -6 31.9 2.2
2 5 -6 35 1.8
2 -5 6 33 2.5
-2 5 -6 32.9 1.9
-2 -5 6 34.7 1.6
-2 -5 6 32.6 2.3
3 5 -6 50.19 2.8
3 5 -6 53.99 2.3
3 -5 6 52.29 3.2
-3 5 6 51.09 2.3
-3 5 6 50.19 1.9
3 -5 -6 50.69 3.4
-3 -5 6 51.29 2.2
3 -5 -6 49.99 2.7
-3 -5 6 46.8 2.7
-3 5 -6 48.3 2.4
-4 5 6 1.9 0.7
4 -5 6 3.6 2.1
4 5 -6 3.5 1.1
-4 5 6 2.8 0.6
4 5 -6 2.6 0.9
-4 -5 6 2 1.3
-4 -5 6 1.4 1
-4 5 -6 1.8 0.9
4 -5 -6 3.4 2.1
4 -5 -6 1.7 1.2
5 -5 6 13.5 1.8
-5 5 6 13.1 1.7
-5 5 6 14.2 1.2
5 -5 6 11 2.6
5 5 -6 10.2 1.5
5 5 -6 14.2 2.1
-5 -5 6 12.1 1.7
5 -5 -6 14.5 1.8
5 -5 -6 10.8 2.8
-5 -5 6 12.6 1.9
-5 5 -6 13 1.9
-5 5 -6 12.4 1.3
-6 5 6 37.2 2.6
6 -5 6 40.3 3.1
6 5 -6 32.4 3
6 -5 6 34.8 3.9
6 5 -6 39.8 2.7
-6 5 6 39.7 2.2
-6 -5 6 37.2 2.9
6 -5 -6 37.6 3
-6 5 -6 37.7 2.2
-6 5 -6 38.8 2.9
-6 -5 6 41.6 3
6 -5 -6 36.3 4.1
7 5 -6 17.1 2.3
7 5 -6 10.8 2.5
7 -5 6 12.2 2.3
-7 5 6 17.1 2.3
7 -5 6 15.7 3.4
-7 5 6 13.9 1.7
7 -5 -6 13 3.4
-7 5 -6 15.1 2.3
-7 -5 6 18.1 2.4
-7 5 -6 16.2 1.9
-7 -5 6 19.5 2.5
7 -5 -6 15.8 2.5
0 6 -6 278.77 6.5
0 6 -6 270.07 6
0 -6 6 271.87 5.3
0 -6 6 263.17 6.8
1 -6 6 53.49 2.2
1 -6 6 61.79 3.5
1 6 -6 58.29 2.5
1 6 -6 55.09 2.7
-1 6 -6 58.79 2.5
-1 6 -6 58.19 2.7
-1 -6 6 62.59 3.3
-1 -6 6 55.79 2.1
2 6 -6 47.6 3.1
2 -6 6 48.2 2.3
2 -6 6 48.7 3.4
2 6 -6 42.7 2.2
-2 6 -6 44.9 2.3
-2 -6 6 42.6 2
-2 -6 6 41.3 2.9
3 6 -6 14.4 1.9
3 6 -6 14.8 1.6
3 -6 6 11.2 2.5
-3 6 -6 14.3 1.8
-3 -6 6 12.5 1.4
-3 -6 6 14.1 2
4 6 -6 25.8 2
4 -6 6 27.8 3.2
4 6 -6 27.7 2.5
-4 6 -6 29.2 2.3
-4 -6 6 25 2.3
-4 -6 6 30.2 2.9
5 6 -6 4 1
5 -6 6 2.4 1.7
5 -6 6 -1 2.3
5 6 -6 2.5 1.3
-5 -6 6 2.7 1.5
-5 6 -6 2.5 1.1
-5 -6 6 2.4 1.3
6 6 -6 47.2 3.1
-6 6 6 51.59 2.8
-6 6 6 60.39 4.1
6 -6 6 49.2 5
6 6 -6 56.39 3.8
6 -6 6 52.19 3.8
6 -6 -6 48.4 6
-6 -6 6 57.19 3.7
6 -6 -6 57.29 3.6
-6 6 -6 55.69 3.5
-6 -6 6 54.09 3.2
-7 6 6 52.19 3.4
7 -6 6 45.8 5.3
7 -6 6 47 3.8
-7 6 6 54.69 2.8
-7 6 -6 55.59 3.7
7 -6 -6 58.09 3.8
7 -6 -6 46.3 5
0 -7 6 151.78 5.5
0 -7 6 142.79 3.7
0 7 -6 151.18 4.4
0 7 -6 153.18 4.7
1 -7 6 50.39 4
1 7 -6 52.19 2.9
1 7 -6 53.29 2.6
1 -7 6 52.29 2.4
-1 -7 6 44.2 3.6
-1 -7 6 48.7 2.2
-1 7 -6 54.09 2.6
-1 7 -6 52.99 3
2 -7 6 63.09 4.2
2 7 -6 61.29 3.4
2 -7 6 65.19 2.8
2 7 -6 62.79 2.9
-2 -7 6 63.89 2.5
-2 7 -6 62.09 3.1
-2 -7 6 63.79 3.5
-2 7 -6 60.89 2.9
3 -7 6 0.3 2.3
3 7 -6 2.2 1.1
3 7 -6 0.6 0.9
-3 7 -6 1.1 1
-3 -7 6 0.8 1.1
-3 -7 6 1.2 1.7
4 -7 6 30.5 3.5
-4 7 -6 34.9 2.6
5 -7 6 3.3 2.7
5 -7 6 5 1.9
-5 7 -6 4.6 1.4
6 -7 6 2.5 2.2
6 -7 6 9.9 3
-6 7 -6 8.2 1.8
0 -8 6 120.99 5.3
0 -8 6 112.89 3.5
0 8 -6 117.19 4.1
0 8 -6 126.39 4.3
1 -8 6 46.2 2.6
1 -8 6 43.7 4.2
1 8 -6 42.7 3.2
1 8 -6 48.6 4.1
-1 8 -6 45.4 2.6
-1 8 -6 46.7 2.9
-1 -8 6 46.2 3.9
2 -8 6 4.2 2.7
-2 8 -6 4.3 1.3
-2 8 -6 5.7 1.4
3 -8 6 8.8 2.7
-3 8 -6 9.4 1.6
-3 8 -6 6.4 1.6
4 -8 6 43 4.5
-4 8 -6 46.9 3
5 -8 6 0.7 2.9
5 -8 6 1.6 1.9
-5 8 -6 0.8 1.2
6 -8 6 -2.7 2.2
6 -8 6 -1.1 3
-6 8 -6 2.4 1.3
2 -9 6 14.1 3.5
-2 9 -6 15.4 3.4
-2 9 -6 12.6 2.5
3 -9 6 27.4 3.6
-3 9 -6 26.9 2.9
-3 9 -6 31.6 2.6
4 -9 6 17.7 3.5
-4 9 -6 13.8 2.3
-4 9 -6 15.7 2.3
5 -9 6 11.5 3.2
5 -9 6 10.3 2.2
-5 9 -6 6.6 1.9
0 0 -7 0.7 0.7
0 0 7 -0.9 0.7
0 0 7 0.7 0.6
0 0 -7 0.1 0.8
1 0 7 414.36 9.3
-1 0 -7 417.46 9.1
-1 0 7 417.86 9.4
-1 0 7 409.16 8.7
1 0 -7 422.26 9.1
-1 0 -7 399.76 8
1 0 -7 415.76 9.3
-2 0 7 547.45 12.6
2 0 -7 524.85 8.9
2 0 7 540.25 12.3
-2 0 7 560.44 11.5
-2 0 -7 564.24 12.2
2 0 7 562.54 10.8
2 0 -7 547.45 11.8
2 0 -7 567.54 12.9
-2 0 7 555.04 9.1
-2 0 7 567.64 9
2 0 -7 567.64 9.6
-3 0 7 12.9 1
3 0 7 12 2
-3 0 -7 13.9 3
3 0 7 14 0.9
-3 0 -7 11.2 1.1
3 0 -7 12.2 1.1
-3 0 7 11.4 1.1
3 0 7 16.2 1.4
-3 0 -7 12.6 0.9
3 0 -7 15.2 1.4
3 0 7 14.5 3
-4 0 7 53.69 2
-4 0 -7 52.19 2.2
4 0 7 52.49 1.9
4 0 7 50.89 2.5
-4 0 7 51.19 2.2
-4 0 -7 52.59 1.9
4 0 -7 50.09 2.5
4 0 -7 56.29 2.2
5 0 -7 9.1 1.3
5 0 7 7.7 1.5
-5 0 7 6.3 1.1
5 0 -7 8.1 1.7
5 0 7 5.4 1
-5 0 -7 5.4 1.1
-5 0 -7 5 1.2
-5 0 7 4.8 1.2
6 0 -7 59.19 2.9
6 0 7 48.6 3.4
-6 0 -7 57.19 2.6
-6 0 7 57.59 3
6 0 -7 60.59 3.8
-6 0 7 57.69 2.7
6 0 7 57.79 2.6
-6 0 -7 57.49 3.3
7 0 -7 63.19 3.3
-7 0 -7 57.49 3.6
-7 0 -7 56.39 3
-7 0 7 56.39 3.4
7 0 -7 60.09 4.5
7 0 7 59.79 2.8
7 0 7 53.39 3.8
-7 0 7 53.99 3
8 0 7 98.19 4.1
-8 0 -7 104.49 4.2
8 0 -7 96.49 5.9
8 0 7 90.09 5.3
-8 0 -7 95.39 4.8
8 0 -7 101.09 4.9
-8 0 7 99.89 4.1
-8 0 7 97.19 4.7
0 -1 7 213.78 5.3
0 1 7 215.58 4.4
0 -1 -7 207.18 5
0 1 7 206.28 4.6
0 -1 7 214.58 6.4
0 1 -7 201.18 5.6
0 1 -7 202.38 6.5
0 -1 -7 209.78 4.8
-1 -1 -7 760.32 12.1
-1 -1 -7 743.23 12.9
1 -1 7 737.03 15.3
-1 1 7 730.23 12.8
1 1 -7 744.13 14.9
1 1 -7 745.53 14.7
-1 1 7 757.12 13.6
-1 -1 7 738.63 14.4
1 1 7 724.33 13.1
1 -1 -7 732.83 13.2
-1 1 -7 746.93 14.9
1 1 7 743.13 11.9
-1 -1 7 715.03 14.3
1 -1 -7 741.73 13.8
-1 1 -7 752.02 13.5
2 -1 7 93.89 2.7
-2 1 7 96.29 2.2
-2 1 7 94.79 4.4
-2 1 7 90.09 2.3
2 1 -7 97.39 2.4
-2 1 7 95.89 3.7
2 1 -7 91.49 2.9
2 1 -7 96.99 4.3
-2 -1 -7 94.09 3.8
2 -1 7 88.09 3.6
2 1 -7 95.49 4.8
2 -1 7 88.39 4.5
2 1 7 86.99 3.8
2 -1 -7 96.49 3.9
-2 -1 7 94.89 4
-2 1 -7 91.49 4.5
-2 -1 7 92.49 2.3
-2 -1 7 99.49 2.5
-2 1 -7 90.69 2.4
2 1 7 93.79 3.2
2 -1 -7 101.69 2.3
2 -1 -7 88.49 2.6
-2 1 -7 89.29 2.1
2 -1 -7 88.09 4.3
-2 -1 7 94.29 4.6
3 1 -7 354.86 7.3
3 1 -7 342.77 6.5
-3 1 7 346.47 6.3
-3 -1 -7 365.56 10
-3 1 7 346.37 6.6
3 -1 7 350.56 7.3
-3 -1 -7 355.26 6
-3 -1 -7 354.56 6.4
-3 1 -7 340.67 6.7
3 1 7 352.86 8.5
3 -1 -7 346.37 6.3
3 -1 -7 341.57 7.1
-3 -1 7 355.26 6.5
3 1 7 354.76 10.1
3 1 7 349.96 6
3 1 7 359.36 6.8
-3 -1 7 351.06 6.7
-3 1 -7 354.46 6.2
-4 1 7 185.58 4.6
4 -1 7 189.28 5.3
4 1 -7 194.08 5.3
-4 -1 -7 185.98 4.5
4 1 -7 194.78 4.6
4 -1 7 180.68 4.2
-4 1 7 185.58 4.3
-4 -1 -7 188.68 4.1
4 1 7 190.98 4.1
4 1 7 193.78 4.9
-4 1 -7 186.18 4.1
4 -1 -7 188.58 5.3
4 -1 -7 187.48 4.4
-4 -1 7 194.28 4.7
-4 -1 7 192.28 4.4
-4 1 -7 188.08 4.7
-5 -1 -7 172.88 4.9
5 -1 7 174.78 4.4
5 1 -7 169.48 5.5
-5 1 7 172.08 4.8
-5 1 7 177.38 4.5
-5 -1 -7 179.08 4.3
5 1 -7 182.68 4.8
5 -1 7 176.28 5.6
5 1 7 181.78 4.3
5 -1 -7 172.98 5.6
5 1 7 176.68 5.3
-5 -1 7 175.88 5
-5 -1 7 179.28 4.6
5 -1 -7 173.08 4.6
-5 1 -7 173.88 4.3
-5 1 -7 176.18 5
-6 1 7 13.2 1.9
-6 1 7 12.4 1.4
6 1 -7 11.6 1.7
-6 -1 -7 11.3 2
-6 -1 -7 11.1 1.5
6 -1 7 7.8 1.8
6 1 -7 11.5 2.2
6 -1 7 11.6 1.5
6 -1 -7 16.3 2.6
-6 -1 7 14 1.9
6 1 7 12.5 1.9
6 1 7 13.9 1.3
-6 1 -7 14.4 2
6 -1 -7 12.4 1.8
-6 1 -7 13.9 1.6
-6 -1 7 11.6 1.6
7 -1 7 20.8 3
-7 -1 -7 24.2 2.3
7 1 -7 21.4 2.4
7 -1 7 24 2.1
-7 1 7 22.9 2.6
-7 1 7 21.6 2
7 1 -7 20.2 3
-7 -1 -7 18.5 2.5
7 1 7 25.4 2
7 -1 -7 25.4 2.6
7 1 7 20.3 2.9
-7 1 -7 21.6 2.2
-7 -1 7 25.5 2.7
-7 1 -7 24.8 2.8
-7 -1 7 22.6 2.1
7 -1 -7 21.9 3.4
-8 1 7 61.09 3.9
8 -1 7 48.3 4.5
8 1 -7 57.19 4.7
8 1 -7 64.99 3.8
-8 1 7 60.99 3.2
8 -1 7 54.79 3.3
-8 -1 7 58.99 3.3
8 -1 -7 56.99 5
-8 1 -7 57.59 3.3
-8 -1 7 57.99 3.8
-8 1 -7 55.69 4
8 -1 -7 59.59 3.8
0 2 7 246.08 4.3
0 2 -7 254.37 5.1
0 2 -7 257.67 8.1
0 -2 -7 251.07 4.7
0 2 -7 252.97 6.8
0 2 7 256.77 4.4
0 -2 7 247.28 4.3
0 2 -7 249.28 4.7
0 -2 7 254.77 7.9
0 -2 7 258.57 6.6
0 -2 7 257.87 5.1
0 -2 -7 253.67 4.6
1 2 -7 146.19 3.2
1 -2 7 153.78 3.6
1 2 -7 150.68 5.9
1 2 -7 150.08 3.6
1 -2 7 142.29 6
-1 -2 -7 142.39 2.9
-1 -2 -7 142.29 3.2
1 -2 7 149.09 2.9
1 2 -7 140.49 5.6
-1 2 7 154.18 4.5
-1 2 7 141.39 3.7
1 -2 -7 153.68 4.6
-1 2 -7 151.38 4.9
-1 -2 7 151.58 5.3
1 -2 -7 148.09 4.1
-1 -2 7 149.59 3.4
1 2 7 148.29 2.9
-1 2 -7 147.99 5.8
1 2 7 146.09 3.4
-1 2 -7 146.39 3.3
-1 -2 7 147.49 3
-1 -2 7 145.19 5.4
-2 2 7 86.79 2.1
2 -2 7 90.39 3
2 2 -7 79.39 5.6
2 2 -7 89.49 3.1
-2 2 7 86.19 2.3
2 2 -7 88.39 2.5
2 -2 7 83.79 5.1
2 -2 7 85.69 2.1
-2 -2 -7 90.39 3.6
2 2 -7 83.09 5.4
-2 2 7 89.39 3.5
-2 2 7 88.99 4.4
2 -2 -7 88.89 4.5
2 2 7 91.09 3.6
2 -2 -7 89.39 3.8
-2 2 -7 86.29 4.9
-2 -2 7 85.79 2.3
2 -2 -7 85.19 2.2
2 2 7 91.29 2.9
-2 -2 7 88.19 2.5
-2 2 -7 80.99 3.7
2 -2 -7 87.69 2.6
-2 -2 7 76.99 4.9
-2 2 -7 87.89 2.6
-2 -2 7 89.19 5.2
-3 2 7 2.9 0.6
3 -2 7 2.5 1
3 2 -7 2.2 0.7
-3 -2 -7 3.1 0.6
3 2 -7 2.2 0.6
-3 -2 -7 4.4 1.5
-3 -2 -7 2.4 0.6
-3 2 7 2.4 0.6
-3 -2 -7 4.2 1.4
3 -2 -7 2.5 1
3 2 7 2.7 0.4
-3 2 -7 2.5 0.7
3 -2 -7 4.6 0.9
3 2 7 2.6 1.2
3 2 7 1.6 0.6
3 2 7 2 0.9
-3 -2 7 2.7 0.6
-3 2 -7 3.1 0.6
-3 -2 7 2.1 0.7
-4 2 7 63.39 2.5
-4 -2 -7 68.79 2.2
-4 2 7 65.29 2.2
4 -2 7 65.59 3.2
4 2 -7 67.89 3
4 2 -7 64.09 2.4
4 -2 7 66.99 2.3
-4 -2 -7 64.39 2.4
-4 2 -7 68.19 2.7
4 -2 -7 62.39 2.5
4 2 7 68.39 2.6
-4 2 -7 65.19 2.2
-4 -2 7 66.59 2.4
4 2 7 67.79 2
-4 -2 7 67.49 2.5
4 -2 -7 66.89 3.2
5 2 -7 54.99 2.5
-5 -2 -7 56.39 3
5 -2 7 54.99 2.4
5 -2 7 56.79 3.5
-5 2 7 52.99 2.3
5 2 -7 61.39 3.3
-5 -2 -7 55.19 2.8
-5 2 7 58.69 2.8
-5 2 -7 55.69 2.4
5 -2 -7 58.49 2.9
-5 2 -7 59.69 3
-5 -2 7 55.29 2.6
5 2 7 52.69 2.4
5 -2 -7 58.69 3.8
5 2 7 53.79 3.1
-5 -2 7 53.99 2.5
6 2 -7 24.2 2.6
-6 2 7 26.9 2.2
6 -2 7 26.6 2.9
6 2 -7 27.3 2.1
6 -2 7 25.6 2.1
-6 2 7 27.2 1.9
-6 -2 7 27.4 2.1
6 -2 -7 25.3 2.5
-6 2 -7 26.7 2.5
6 -2 -7 28.7 3.4
-6 -2 7 29.6 2.4
-6 2 -7 29.6 2
-7 2 7 3.2 1.1
7 2 -7 3.8 1.8
7 2 -7 5 1.4
7 -2 7 2.8 2
7 -2 7 4.6 1.2
-7 2 7 3.7 1.5
-7 -2 7 4 1.4
7 -2 -7 3.6 2.5
-7 2 -7 6.5 1.4
7 -2 -7 3.4 1.8
-7 -2 7 2.7 1.6
-7 2 -7 4.2 1.6
8 2 -7 24.4 3.5
-8 2 7 26.6 2.4
8 -2 7 26.9 3.4
-8 2 7 30.9 2.9
8 -2 7 31.3 2.5
8 2 -7 34.9 2.9
-8 2 -7 31.2 3.3
-8 -2 7 35.2 3.3
8 -2 -7 28.5 4
8 -2 -7 33 3.3
-8 2 -7 29.6 2.8
-8 -2 7 28.1 3
0 3 -7 59.09 4.1
0 -3 7 55.19 1.6
0 3 -7 59.99 2.2
0 3 -7 55.59 1.9
0 -3 7 56.49 3.9
0 -3 7 58.39 3.2
0 -3 7 59.59 2.2
0 3 -7 56.29 3.3
1 3 -7 130.59 3.2
-1 3 7 132.09 3.5
-1 3 7 132.49 4.3
1 3 -7 133.39 3.6
1 -3 7 141.79 3.6
1 3 -7 120.29 5.6
1 -3 7 126.09 6.4
1 -3 7 135.09 2.8
1 3 -7 124.79 6.1
-1 -3 7 131.69 5.1
-1 -3 7 133.09 2.9
1 -3 -7 140.69 4.5
1 -3 -7 133.19 3.9
-1 -3 7 138.89 5.8
-1 3 -7 131.19 6.1
-1 3 -7 123.29 4.8
-1 -3 7 143.49 3.5
-1 3 -7 132.29 3.3
-2 3 7 254.67 4.8
2 3 -7 257.17 5.2
2 -3 7 251.37 5.7
2 -3 7 239.88 4.7
-2 3 7 254.37 4.5
-2 3 7 257.27 7.7
2 3 -7 261.47 6.1
-2 3 7 252.37 6.5
2 -3 -7 249.68 5.2
-2 3 -7 255.37 5.4
2 -3 -7 249.38 4.6
2 -3 -7 256.87 7
2 -3 -7 265.57 8
-2 -3 7 252.97 4.9
-2 -3 7 259.17 5.4
-3 3 7 156.78 3.4
3 3 -7 156.58 3.9
-3 3 7 156.48 3.8
3 -3 7 157.18 4.6
3 3 -7 157.08 4.6
-3 -3 7 153.98 3.9
3 -3 -7 148.29 3.5
-3 3 -7 156.88 4.1
-3 -3 7 154.08 3.7
-3 3 -7 157.98 3.5
3 -3 -7 164.18 4.6
4 3 -7 50.79 2.7
-4 3 7 52.49 2.3
4 -3 7 51.49 3
4 3 -7 49.6 2.2
-4 3 7 49.99 1.9
4 -3 -7 48.8 3.1
-4 -3 7 49.99 2.1
-4 3 -7 48.6 1.9
-4 -3 7 49.5 2.2
-4 3 -7 45.4 2.4
4 -3 -7 47.3 2.4
-5 3 7 67.59 2.5
5 3 -7 65.49 2.9
5 3 -7 74.19 3.7
5 -3 7 71.09 2.8
5 -3 7 66.89 3.8
-5 3 7 68.89 3
-5 3 -7 61.09 3
-5 3 -7 69.49 2.7
5 -3 -7 68.79 4.1
-5 -3 7 67.99 3
-5 -3 7 64.99 2.8
5 -3 -7 76.69 3.3
6 -3 7 24.8 3
6 -3 7 24 2
-6 3 7 24.9 2.1
6 3 -7 23 2
-6 3 7 23.9 1.7
6 3 -7 18.4 2.5
-6 3 -7 22.7 2.2
6 -3 -7 22.1 3
-6 -3 7 23.5 2.3
-6 -3 7 21.6 2.2
6 -3 -7 23.5 2.5
-6 3 -7 21.2 1.9
7 -3 7 1.6 2.1
7 3 -7 1.2 1.3
7 3 -7 3.4 1.6
7 -3 7 1.8 1.3
-7 3 7 1.6 0.9
-7 3 7 2.6 1.2
7 -3 -7 0.6 2.6
-7 3 -7 3.3 1.5
-7 3 -7 3.8 1.2
7 -3 -7 4.7 1.8
-7 -3 7 3.4 1.6
-7 -3 7 3.1 1.5
8 3 -7 1.7 2.1
-8 3 7 0.4 1.3
8 3 -7 -0.1 1.2
-8 -3 7 0.5 1.8
-8 -3 7 0.9 1.7
8 -3 -7 -3.2 2.6
0 4 -7 8.7 1.2
0 4 -7 7.8 1
0 -4 7 7.4 1.1
0 -4 7 8.9 0.8
1 -4 7 47.6 2.6
1 4 -7 54.99 2.3
1 -4 7 48.6 1.6
1 4 -7 48.9 2.1
-1 4 -7 55.19 2.3
-1 -4 7 54.69 1.7
-1 4 -7 52.19 2.1
-1 -4 7 55.89 2.5
2 4 -7 65.69 2.3
-2 4 7 63.19 2
2 4 -7 62.39 2.8
2 -4 7 66.69 2.8
-2 4 7 65.09 1.7
2 -4 7 60.59 2
-2 4 -7 61.19 2.4
-2 -4 7 62.39 2
2 -4 -7 61.99 2.2
2 -4 -7 68.09 2.6
3 4 -7 20.8 1.8
-3 4 7 19.5 1.3
3 -4 7 23.9 2.4
-3 4 7 20.4 1.1
3 4 -7 20 1.4
3 -4 -7 19.4 2
-3 -4 7 19.9 1.6
-3 4 -7 18.5 1.5
3 -4 -7 22.3 1.8
-3 -4 7 18.7 1.3
-4 4 7 14.6 1.4
4 -4 7 11 1.9
4 4 -7 11.2 1.6
-4 4 7 14.3 1.3
4 4 -7 9.7 1.3
-4 4 -7 12.8 1.7
-4 -4 7 13.5 1.6
4 -4 -7 15 2.2
-4 -4 7 13.1 1.4
-4 4 -7 11.1 1.1
4 -4 -7 11.8 1.5
5 4 -7 5.8 1.2
5 -4 7 5.8 1.8
-5 4 7 6.2 1
-5 4 7 6.2 1.2
5 4 -7 4.9 1.4
5 -4 7 7 1.3
-5 4 -7 6.7 1
-5 -4 7 7.3 1.7
5 -4 -7 6.8 1.7
-5 4 -7 7.2 1.5
-5 -4 7 6.9 1.5
5 -4 -7 8.2 2.4
6 -4 7 96.79 5.3
-6 4 7 96.89 3.5
6 -4 7 107.69 4.1
6 4 -7 101.09 4.1
6 4 -7 103.49 4.8
-6 4 7 100.89 4.1
-6 4 -7 105.29 3.6
-6 4 -7 109.99 4.5
-6 -4 7 104.89 4.2
6 -4 -7 103.99 5.6
-6 -4 7 102.69 4
6 -4 -7 103.09 4.2
7 -4 7 4.3 1.8
-7 4 7 5 1.4
-7 4 7 3.5 1.1
7 4 -7 0.7 1.7
7 -4 7 4 2.4
7 4 -7 1.4 1.4
-7 -4 7 3.2 1.7
7 -4 -7 3.2 2.9
-7 4 -7 4 1.2
-7 -4 7 6 1.8
7 -4 -7 6.3 1.9
-7 4 -7 2.7 1.4
0 -5 7 7.3 0.8
0 5 -7 5.8 1
0 -5 7 7.5 1.3
0 5 -7 7.8 1.2
1 5 -7 40.1 2.1
1 5 -7 43 2.3
1 -5 7 44 1.7
1 -5 7 42.1 2.6
-1 -5 7 43.1 1.6
-1 -5 7 46.1 2.6
-1 5 -7 45.2 2.2
-1 5 -7 43.8 2.2
2 -5 7 6.6 1
2 5 -7 6.4 0.9
2 5 -7 6 1.3
2 -5 7 4.1 1.4
-2 -5 7 3.7 1.4
-2 -5 7 6.4 0.9
-2 5 -7 6.2 1.1
3 5 -7 41.7 2.7
3 5 -7 44.5 2.2
3 -5 7 42.7 3.2
-3 5 -7 45.2 2.4
-3 -5 7 47.1 2.3
-3 -5 7 46.6 2.6
4 5 -7 74.09 3.6
4 -5 7 78.29 4.4
4 5 -7 72.09 3
-4 5 7 75.29 2.9
-4 5 7 76.59 2.5
4 -5 -7 70.99 4
-4 -5 7 76.29 3
-4 5 -7 74.89 3.3
4 -5 -7 71.89 3
-4 -5 7 75.79 3.3
-5 5 7 69.19 3
5 5 -7 64.49 3.7
-5 5 7 63.59 2.5
5 5 -7 63.39 3
5 -5 7 63.69 3.2
5 -5 7 60.49 4.6
-5 5 -7 65.89 3.5
5 -5 -7 65.19 3.1
5 -5 -7 61.69 4.4
-5 -5 7 65.79 3.3
-5 -5 7 62.69 3.1
6 -5 7 7.3 2
-6 5 7 8.2 1.6
6 5 -7 9.5 2
6 5 -7 8.5 1.6
-6 5 7 9 1.3
6 -5 7 8.1 2.9
6 -5 -7 8.8 2.1
-6 5 -7 8.4 1.5
6 -5 -7 5.5 2.8
-6 -5 7 10.4 1.9
-6 5 -7 9.3 1.8
-6 -5 7 8.4 1.9
7 5 -7 2.5 1.3
-7 5 7 1.8 0.9
7 -5 7 1.1 2.8
7 5 -7 0.8 1.4
-7 5 7 3 1.2
7 -5 7 1.7 1.7
-7 -5 7 2.2 1.6
-7 5 -7 1.3 1.3
-7 5 -7 0.9 1.1
7 -5 -7 0 2.5
7 -5 -7 -1.3 1.7
-7 -5 7 2 1.8
0 -6 7 -0.6 0.8
0 -6 7 -2.4 1.2
0 6 -7 -0.7 0.5
0 6 -7 -0.8 0.7
1 6 -7 61.69 2.7
1 -6 7 63.59 3.6
1 6 -7 65.99 3
1 -6 7 66.29 2.3
-1 6 -7 65.59 2.9
-1 -6 7 66.69 2.3
-1 6 -7 61.59 2.7
-1 -6 7 70.49 3.4
2 6 -7 5.9 1.2
2 -6 7 5 1
2 -6 7 5.6 1.9
-2 6 -7 5.2 1.1
-2 -6 7 0.9 1.5
-2 -6 7 4.2 1
3 6 -7 17.2 2.1
3 6 -7 17.4 1.7
3 -6 7 19.8 2.9
-3 -6 7 19 1.8
-3 -6 7 19.1 2.2
-3 6 -7 17.5 1.9
4 -6 7 31.1 3.5
4 6 -7 38.3 2.8
4 6 -7 37.4 2.3
-4 -6 7 40.5 3.2
-4 6 -7 38.3 2.6
-4 -6 7 32 2.4
5 -6 7 6.6 1.7
5 6 -7 6.1 1.2
5 6 -7 6.1 1.6
5 -6 7 10.5 2.9
-5 -6 7 6.3 1.5
-5 6 -7 7.3 1.4
-5 -6 7 8.2 1.9
6 -6 7 41.9 3.7
6 -6 7 33.3 4.3
6 6 -7 41.3 2.8
6 6 -7 43.6 3.2
-6 -6 7 35.9 3.2
-6 -6 7 44 3
-6 6 -7 37.7 3.1
7 -6 7 7.5 2.4
7 -6 7 3.8 3.2
-7 6 -7 7.7 2
0 7 -7 49.1 2.5
0 -7 7 45.3 2.3
0 7 -7 47.2 2.8
0 -7 7 50.09 3.9
1 7 -7 10.3 1.7
1 -7 7 13.8 2.7
1 7 -7 10.3 1.6
1 -7 7 9.8 1.3
-1 -7 7 8.5 2.2
-1 7 -7 13 1.7
-1 7 -7 12 1.7
-1 -7 7 9.7 1.3
2 7 -7 122.59 4.9
2 7 -7 124.29 4.1
2 -7 7 128.19 3.8
2 -7 7 126.49 5.4
-2 7 -7 127.69 4.3
-2 -7 7 127.19 4.6
-2 -7 7 128.29 3.6
-2 7 -7 122.79 4.5
3 7 -7 1.4 1.2
3 -7 7 2.7 2.1
3 7 -7 3 1.1
-3 7 -7 1.5 1
-3 -7 7 1.8 1.2
-3 -7 7 0.2 1.8
4 7 -7 17.1 2.2
4 -7 7 13.8 2.8
4 7 -7 17.7 1.8
-4 -7 7 18.1 2
-4 7 -7 14.5 2
-4 -7 7 19.1 2.4
5 -7 7 34.6 4.1
5 -7 7 38.1 3.1
-5 7 -7 32.5 2.7
6 -7 7 2.2 2.8
6 -7 7 2.5 2.1
-6 7 -7 4.3 1.6
0 8 -7 62.39 3.1
0 -8 7 62.99 2.7
0 -8 7 63.19 4.5
0 8 -7 60.49 3
1 8 -7 143.19 5.1
1 8 -7 139.79 4.6
1 -8 7 136.79 4
1 -8 7 124.09 6.1
-1 8 -7 137.69 4.5
-1 -8 7 136.19 3.8
-1 -8 7 137.79 5.6
-1 8 -7 126.49 4.9
2 -8 7 12.8 3
2 8 -7 11 2
2 -8 7 13 1.8
2 8 -7 15.3 2.6
-2 -8 7 12.3 3
-2 8 -7 10.9 1.6
-2 -8 7 16.7 2.8
-2 8 -7 12.4 1.9
3 -8 7 15.4 3.2
-3 8 -7 14.7 2
-3 8 -7 14.7 2.1
4 -8 7 12.2 3.3
-4 8 -7 10.3 1.8
5 -8 7 14.8 2.4
5 -8 7 9.5 3
-5 8 -7 12.6 2
6 -8 7 15.2 5.4
6 -8 7 13.2 4.2
-6 8 -7 19.3 3
1 -9 7 53.19 3.8
1 -9 7 44.1 4.9
-1 9 -7 49.1 3.5
-1 9 -7 52.59 3.5
2 -9 7 110.99 5.9
-2 9 -7 116.79 4.9
-2 9 -7 118.29 4.5
3 -9 7 62.89 5.3
-3 9 -7 56.09 3.7
-3 9 -7 57.09 3.5
4 -9 7 23 3.7
-4 9 -7 31.7 2.8
-4 9 -7 26 2.9
5 -9 7 9 2.2
5 -9 7 10.9 3.1
-5 9 -7 6.3 1.9
0 0 8 352.26 8.1
0 0 -8 360.76 8.6
0 0 -8 359.86 7.8
0 0 8 359.06 7.4
-1 0 -8 57.29 3
-1 0 -8 51.49 2.3
-1 0 8 53.59 2.8
1 0 -8 52.89 2.9
1 0 8 53.29 3.1
1 0 -8 52.69 2.9
-1 0 8 54.19 2.7
-2 0 -8 -0.3 0.8
2 0 -8 -0.1 0.9
2 0 8 0.5 0.7
-2 0 8 -0.3 0.8
2 0 8 -0.2 0.5
-2 0 -8 0.8 0.4
-2 0 8 0 0.8
2 0 -8 -0.8 0.4
-2 0 -8 0.7 0.4
2 0 -8 0 0.5
-2 0 8 0 0.4
2 0 8 0.2 0.9
2 0 -8 1.2 1.1
-2 0 8 -0.1 0.4
-3 0 -8 15.8 1.2
3 0 -8 13.6 1.2
-3 0 -8 16.7 1
-3 0 8 17.9 1.2
-3 0 8 16.6 1.1
3 0 8 17.2 1.4
3 0 -8 15.8 1.3
-4 0 -8 2.7 0.9
4 0 -8 4.5 1
-4 0 -8 2.1 0.7
-4 0 8 1.6 0.6
4 0 8 1.3 0.6
4 0 8 2.1 0.9
-4 0 8 2.2 0.7
4 0 -8 3 1.1
-5 0 -8 37.1 2
-5 0 -8 37.9 2.6
5 0 8 37.1 1.9
5 0 -8 38.3 2.4
-5 0 8 34.4 2.3
5 0 8 35.6 2.8
-5 0 8 32.3 2
5 0 -8 33.8 2.9
-6 0 -8 0.7 1
6 0 8 -0.1 1.2
6 0 -8 2.2 1.7
6 0 8 1.8 0.7
6 0 -8 1.4 1.1
-6 0 -8 -0.6 1.3
-6 0 8 2.7 1.1
-6 0 8 -0.3 0.7
-7 0 8 2.5 1.1
-7 0 -8 2.7 1.6
-7 0 8 3.3 1.5
-7 0 -8 3.5 1.4
7 0 8 1.6 1.7
7 0 -8 3.8 1.7
7 0 -8 1.4 2
7 0 8 3.5 1
-8 0 8 90.49 4.6
8 0 -8 92.29 4.7
8 0 -8 85.89 5.8
8 0 8 81.19 5.2
-8 0 -8 91.69 4
8 0 8 89.39 3.9
-8 0 -8 90.09 4.8
-8 0 8 87.09 4
0 1 -8 242.38 7.3
0 1 -8 237.48 6.5
0 1 8 248.18 5.4
0 -1 -8 242.98 5.6
0 1 8 248.88 5.1
0 -1 8 251.77 7.2
0 -1 -8 240.88 5.9
0 -1 8 240.38 6
1 -1 8 838.82 17.3
1 1 -8 849.81 16.7
-1 1 8 847.52 15.5
1 1 -8 829.72 12.9
1 1 -8 817.62 13.6
-1 -1 -8 827.22 13.7
-1 1 8 833.12 14.5
-1 -1 -8 843.22 14.7
1 1 -8 835.52 16.6
1 1 8 836.02 15.1
1 -1 -8 836.62 15.1
-1 -1 8 861.51 14.2
-1 -1 8 850.71 13.1
1 -1 -8 839.62 15.6
-1 -1 8 855.11 16.2
-1 1 -8 853.21 15.2
-1 1 -8 849.52 16.7
-1 -1 8 836.82 16.2
-2 1 8 97.29 3.8
2 -1 8 95.39 2.2
2 -1 8 93.29 2.9
-2 -1 -8 97.19 4.1
-2 1 8 99.99 4.6
-2 1 8 94.09 2.3
2 1 -8 90.09 2.4
2 1 -8 93.69 5
2 1 -8 95.59 3.1
2 -1 8 94.69 3.7
2 1 -8 89.79 4.5
2 -1 8 93.69 5
-2 1 8 87.49 2.4
2 -1 -8 94.59 4.2
-2 -1 8 90.09 4.2
2 1 8 94.39 3.3
2 1 8 93.19 4.1
-2 1 -8 91.99 3.7
2 -1 -8 91.79 2.7
-2 -1 8 94.19 2.4
-2 1 -8 88.49 4.7
2 -1 -8 93.79 4.6
2 -1 -8 91.49 2.3
-2 -1 8 91.09 2.5
-2 1 -8 91.29 2.5
-3 -1 -8 22.4 1.3
3 -1 8 21.7 1.6
-3 -1 -8 23.8 3
-3 -1 -8 22.5 1.2
-3 1 8 23.7 1.4
-3 1 8 23.7 1.2
3 1 -8 20.8 1.3
3 1 -8 21 1.6
-3 -1 8 21.7 1.3
3 -1 -8 24.7 1.7
3 1 8 22.8 1
-3 1 -8 24.4 1.4
-3 1 -8 24.9 1.2
3 1 8 21.4 1.5
-3 -1 8 22.6 1.4
3 -1 -8 29.8 1.6
3 1 8 19.8 2.9
3 1 8 23.1 2
-4 1 8 179.88 4.6
4 1 -8 185.48 5.3
-4 1 8 180.78 4.2
4 1 -8 177.28 4.4
-4 -1 -8 178.68 3.9
4 -1 8 187.38 5.2
-4 -1 -8 173.38 4.3
4 -1 8 179.18 4.1
-4 -1 8 174.98 4.5
4 -1 -8 181.48 4.4
-4 -1 8 182.88 4.4
4 1 8 184.58 4.8
-4 1 -8 182.48 4.7
-4 1 -8 186.48 4.1
4 -1 -8 177.88 5.2
4 1 8 182.18 4
5 1 -8 90.79 3.4
-5 1 8 89.89 3.5
-5 -1 -8 88.99 2.9
-5 -1 -8 85.09 3.4
-5 1 8 84.69 3
5 -1 8 90.69 3
5 1 -8 86.79 4.1
5 -1 8 88.59 4.1
-5 1 -8 87.99 3
5 -1 -8 85.29 4
-5 -1 8 89.69 3.4
5 1 8 88.89 2.8
5 1 8 91.89 3.7
-5 -1 8 91.29 3.2
5 -1 -8 93.69 3.5
-5 1 -8 91.69 3.6
6 1 -8 19.7 2.5
-6 -1 -8 23.5 2.4
6 1 -8 24.5 2.3
6 -1 8 22.3 1.8
-6 -1 -8 24.6 1.9
-6 1 8 26 2.3
6 -1 8 24 2.6
-6 1 8 21.7 1.8
6 1 8 24 1.7
-6 -1 8 26.1 1.9
-6 1 -8 24.4 2.5
-6 -1 8 24.7 2.3
6 -1 -8 25.4 2.4
6 1 8 17.9 2.5
6 -1 -8 23.8 3
-6 1 -8 27.2 2.1
7 1 -8 3.9 2.1
7 -1 8 4.2 1.9
-7 1 8 4 1.2
7 1 -8 6.4 1.7
-7 1 8 5.1 1.6
7 -1 8 4.2 1.2
-7 -1 8 7.8 1.8
7 -1 -8 5.4 1.9
-7 1 -8 5 1.8
-7 -1 8 6.8 1.4
-7 1 -8 6 1.5
7 -1 -8 4.3 2.4
-8 1 8 7.6 1.9
8 -1 8 10.5 1.6
8 -1 8 10.8 2.4
8 1 -8 13 3
-8 1 8 7.8 1.5
8 1 -8 11.5 2.1
-8 1 -8 6.8 2.2
8 -1 -8 6 2.2
-8 -1 8 8.6 2
-8 1 -8 7.6 1.8
-8 -1 8 9.4 1.8
8 -1 -8 5.3 2.6
0 2 -8 2.8 0.6
0 -2 8 2.2 0.8
0 -2 -8 4 0.8
0 2 8 4.3 0.5
0 2 -8 11 2
0 2 -8 3.2 0.9
0 -2 8 4.5 0.5
0 -2 8 11 1.8
-1 -2 -8 -0.2 0.3
-1 -2 -8 0.8 0.4
-1 2 8 -0.7 0.3
1 2 -8 0.4 0.3
1 2 -8 0.4 0.7
-1 2 8 0.7 0.5
1 -2 8 0.6 0.6
1 -2 8 0.5 0.3
1 2 -8 1 0.5
1 2 -8 0.7 0.7
1 -2 8 0.7 1.1
1 -2 -8 -0.2 0.8
-1 2 -8 1.7 1
-1 -2 8 0.4 0.5
-1 2 -8 0.7 0.4
1 2 8 0.5 0.4
-1 2 -8 0.4 0.5
1 2 8 0.8 0.3
-1 -2 8 0.6 0.3
1 -2 -8 0.5 0.6
-1 -2 8 0.7 0.8
-1 -2 8 0.9 0.5
2 2 -8 60.79 2.1
-2 2 8 63.89 1.7
2 -2 8 63.39 2.5
-2 2 8 65.59 3.7
-2 -2 -8 62.09 2.9
-2 2 8 67.39 3.1
2 -2 8 59.39 1.7
-2 2 8 64.29 1.9
2 2 -8 61.19 2.6
-2 -2 8 64.89 2.3
2 -2 -8 65.69 3.8
2 2 8 63.09 3
2 2 8 64.39 2.5
2 -2 -8 53.49 1.9
2 -2 -8 64.89 2.2
-2 -2 8 63.69 2
2 -2 -8 65.39 3.4
-2 2 -8 63.69 2.2
3 2 -8 234.78 5.1
3 2 -8 242.78 5.9
-3 2 8 236.88 5
3 -2 8 233.98 5.7
-3 2 8 241.38 4.7
3 -2 -8 236.08 4.9
3 -2 -8 244.08 5.6
-3 -2 8 236.28 5.1
-3 2 -8 243.08 4.7
-3 -2 8 244.78 5
-3 2 -8 236.68 5.3
4 -2 8 29.2 2.2
4 2 -8 27.4 1.7
-4 2 8 29.6 1.7
-4 2 8 27.8 1.5
4 2 -8 32 2.2
-4 2 -8 30.2 1.5
-4 2 -8 28.8 1.8
-4 -2 8 26.7 1.6
4 -2 -8 30.2 2
4 -2 -8 30.7 2.7
-4 -2 8 26.1 1.6
-5 2 8 136.79 4.3
-5 2 8 141.59 3.9
5 2 -8 137.89 5
5 2 -8 137.59 4.2
5 -2 8 139.69 4
5 -2 8 138.99 5.1
-5 -2 8 136.59 4
5 -2 -8 143.39 4.2
5 -2 -8 138.59 5.2
-5 -2 8 141.99 4.3
-5 2 -8 133.49 4.4
-5 2 -8 138.99 3.8
6 -2 8 12.4 2.2
6 -2 8 8.9 1.4
6 2 -8 10.2 1.6
-6 2 8 12.5 1.4
-6 2 8 10.7 1.6
6 2 -8 11.3 2.2
-6 -2 8 10.1 1.6
-6 -2 8 10.1 1.4
-6 2 -8 10.4 1.5
6 -2 -8 9 2.4
-6 2 -8 10.7 1.8
6 -2 -8 8.6 1.6
-7 2 8 15 2.2
7 2 -8 12.1 2.3
7 -2 8 14.6 1.8
-7 2 8 12.3 1.7
7 2 -8 13.6 2
7 -2 8 12.5 2.5
-7 -2 8 11.7 2
7 -2 -8 13 3.1
-7 -2 8 13.4 2
-7 2 -8 9.9 2
-7 2 -8 9.3 1.6
7 -2 -8 14.9 2.4
8 -2 8 93.19 5.9
8 2 -8 113.49 4.9
-8 2 8 114.69 5.1
8 2 -8 115.89 6
-8 2 8 101.79 4.3
8 -2 8 110.19 4.3
-8 -2 8 111.39 4.8
-8 -2 8 105.69 4.5
8 -2 -8 104.19 5.1
-8 2 -8 108.09 5.1
-8 2 -8 105.09 4.2
0 -3 8 84.69 2.9
0 -3 8 85.69 2.2
0 3 -8 84.99 4.3
0 3 -8 87.09 3
0 -3 8 87.19 4.1
0 3 -8 86.59 5.3
0 3 -8 90.99 2.7
0 -3 8 84.79 5
1 -3 8 449.46 7.5
1 3 -8 455.85 8.6
1 3 -8 439.86 7.9
-1 3 8 452.05 9.3
-1 3 8 447.16 8.3
1 -3 8 449.06 8.5
-1 -3 8 452.05 8.2
1 -3 -8 450.55 8.7
1 -3 -8 452.85 9.4
-1 -3 8 458.55 7.5
-1 3 -8 458.85 8.2
-1 3 -8 457.95 8.4
2 3 -8 225.98 4.9
-2 3 8 242.58 4.3
-2 3 8 245.38 6.3
-2 3 8 239.98 4.6
2 -3 8 233.78 5.5
-2 3 8 242.28 7.7
2 -3 8 231.28 4.5
2 3 -8 245.68 5.9
2 -3 -8 234.18 4.4
-2 3 -8 228.88 5.1
2 -3 -8 247.98 6.8
-2 -3 8 236.78 4.7
2 -3 -8 247.58 5
2 -3 -8 247.88 7.9
-2 -3 8 234.08 5.1
-3 3 8 234.48 4.6
-3 3 8 226.88 4.9
3 3 -8 228.58 6
3 -3 8 232.48 5.9
3 3 -8 228.88 5.1
-3 -3 8 225.48 4.9
3 -3 -8 238.68 5.6
-3 -3 8 224.38 5.1
-3 3 -8 233.18 5.4
3 -3 -8 228.28 4.8
-4 3 8 238.48 5.5
4 3 -8 230.58 6.3
4 3 -8 230.88 5.5
4 -3 8 226.28 6.3
-4 3 8 234.18 5
4 -3 -8 231.38 6.2
4 -3 -8 237.08 5.3
-4 3 -8 234.88 5.1
-4 3 -8 232.68 5.8
-4 -3 8 229.78 5.3
-4 -3 8 231.38 5.3
-5 3 8 69.29 3
-5 3 8 62.29 2.5
5 3 -8 68.99 3.6
5 -3 8 71.99 2.9
5 -3 8 72.39 3.9
5 3 -8 67.69 2.9
-5 -3 8 69.09 2.9
-5 3 -8 72.39 2.7
5 -3 -8 74.89 3.3
5 -3 -8 72.59 4.2
-5 -3 8 69.79 3
-5 3 -8 73.19 3.4
-6 3 8 69.09 3.3
6 3 -8 70.99 4
6 -3 8 69.59 3.1
6 3 -8 66.69 3.3
6 -3 8 69.89 4.3
-6 3 8 64.79 2.8
6 -3 -8 67.39 3.5
-6 -3 8 68.39 3.2
6 -3 -8 71.09 4.6
-6 3 -8 69.79 3.5
-6 -3 8 67.49 3.2
-6 3 -8 69.09 2.9
7 3 -8 3.1 1.9
7 3 -8 3.9 1.5
7 -3 8 2.8 1.2
7 -3 8 4.7 2.2
-7 3 8 4.3 1.4
-7 3 8 3.4 1.2
-7 3 -8 2.5 1.1
-7 -3 8 3.3 1.7
-7 3 -8 1.6 1.4
-7 -3 8 3.7 1.5
7 -3 -8 3.7 1.9
7 -3 -8 3.9 2.7
0 4 -8 102.99 3.3
0 4 -8 106.19 3.3
0 -4 8 101.59 3.5
0 -4 8 104.89 2.5
1 -4 8 41.6 1.5
1 -4 8 45.4 2.4
1 4 -8 43.4 2
1 4 -8 43.2 2.2
-1 4 -8 46.8 2.2
-1 4 -8 43.4 2
-1 -4 8 45.6 1.6
-1 -4 8 45.3 2.1
2 -4 8 63.59 2.9
2 -4 8 64.09 2.1
2 4 -8 63.79 3.1
2 4 -8 65.09 2.4
-2 -4 8 67.79 2.6
-2 -4 8 67.39 2.2
-2 4 -8 70.59 2.6
-3 4 8 283.37 5.3
-3 4 8 290.07 5.8
3 4 -8 285.97 7.1
3 4 -8 284.07 6.1
3 -4 8 292.87 7.1
3 -4 -8 289.77 6.5
-3 4 -8 275.37 6.4
-3 -4 8 286.27 5.8
-3 -4 8 276.87 6.1
3 -4 -8 276.27 5.5
4 4 -8 23.1 1.8
4 4 -8 25.4 2.3
4 -4 8 21.8 2.6
-4 4 8 24.9 1.9
-4 4 8 24.3 1.4
-4 -4 8 22.8 2
4 -4 -8 24.9 2.7
4 -4 -8 21.6 2.4
-4 4 -8 23.7 2
-4 -4 8 19.5 1.8
-5 4 8 43.3 2.5
5 -4 8 47.4 2.6
5 4 -8 45.5 2.6
-5 4 8 43.8 2.1
5 4 -8 48.8 3.2
5 -4 8 45.9 3.7
5 -4 -8 44.1 3
-5 4 -8 47.7 2.3
-5 -4 8 41.6 2.7
-5 4 -8 49.5 2.9
5 -4 -8 51.49 4.1
-5 -4 8 55.79 2.9
6 -4 8 21.8 3.1
6 -4 8 21.7 2.5
6 4 -8 20.1 2.1
6 4 -8 20.7 2.7
-6 4 8 23.3 1.7
-6 4 8 21.1 2.1
-6 4 -8 24 2.4
6 -4 -8 20.3 2.3
-6 4 -8 20.3 1.9
-6 -4 8 19.7 2.2
-6 -4 8 22.3 2.4
6 -4 -8 22.2 3.4
7 -4 8 65.79 4.9
-7 4 8 67.39 3.1
7 4 -8 67.29 3.7
7 -4 8 64.39 3.7
7 4 -8 64.29 4.4
-7 4 8 67.59 3.5
-7 4 -8 68.09 4.1
7 -4 -8 60.39 5.3
7 -4 -8 71.69 3.9
-7 4 -8 66.09 3.3
-7 -4 8 67.69 3.9
-7 -4 8 62.89 3.7
0 5 -8 42 2.3
0 5 -8 44.3 2.2
0 -5 8 47.4 2.8
0 -5 8 43.9 1.7
1 -5 8 443.46 7.8
1 -5 8 462.75 9.4
1 5 -8 445.36 9.1
1 5 -8 452.85 8.6
-1 5 -8 450.25 8.7
-1 5 -8 454.65 9.1
-1 -5 8 436.06 8.8
-1 -5 8 456.55 7.8
2 -5 8 50.59 2.9
2 5 -8 51.49 2.9
2 -5 8 51.39 2
2 5 -8 49.4 2.2
-2 -5 8 46.5 2.6
-2 5 -8 50.59 2.4
-2 -5 8 48.9 1.9
3 5 -8 50.89 3
3 5 -8 46.5 2.3
3 -5 8 44 3.3
-3 5 -8 46.1 2.6
-3 -5 8 45.5 2.7
-3 -5 8 47.8 2.2
4 5 -8 115.19 3.8
4 -5 8 112.19 5.1
4 5 -8 109.09 4.4
-4 -5 8 110.19 3.6
-4 -5 8 114.39 3.9
-4 5 -8 113.79 4.2
5 5 -8 0.4 1.2
-5 5 8 1.9 0.6
5 -5 8 0.1 2.3
-5 5 8 1.9 0.9
5 5 -8 1.1 0.9
5 -5 8 0.9 1.1
5 -5 -8 1.2 2
-5 5 -8 1.2 1
-5 -5 8 0.4 1.3
-5 -5 8 0.4 1.1
5 -5 -8 2.1 1.5
6 -5 8 48.4 3.3
6 5 -8 51.69 3.5
6 5 -8 46.5 2.9
6 -5 8 44.7 4.3
-6 5 8 43.3 2.9
-6 5 8 46.5 2.4
-6 -5 8 41.8 3.5
-6 -5 8 45.6 3.1
-6 5 -8 50.09 3.4
6 -5 -8 46.4 3.3
6 -5 -8 48.4 4.6
7 5 -8 6.2 1.7
7 5 -8 6.2 1.5
7 -5 8 2.2 2
7 -5 8 4.6 2.9
-7 5 8 5.8 1.2
-7 5 8 6 1.5
7 -5 -8 5.7 2
-7 -5 8 5.8 2
-7 -5 8 5 1.8
-7 5 -8 5.3 1.8
7 -5 -8 3 3
0 6 -8 106.09 3.6
0 6 -8 103.29 3.8
0 -6 8 107.89 3
0 -6 8 103.69 4.3
1 6 -8 80.19 3.1
1 -6 8 80.59 2.7
1 -6 8 80.99 4.1
1 6 -8 78.69 3.4
-1 -6 8 79.19 2.6
-1 6 -8 84.99 3.4
-1 -6 8 86.39 3.8
-1 6 -8 78.89 3
2 6 -8 42.9 2.4
2 6 -8 46.7 3
2 -6 8 47.6 3.4
2 -6 8 45.1 2.3
-2 6 -8 48.5 2.7
-2 -6 8 43 2.1
-2 -6 8 42.1 3
-2 6 -8 45.8 2.5
3 -6 8 53.49 4
3 6 -8 59.59 3.4
3 6 -8 56.39 2.7
-3 -6 8 54.69 3.2
-3 -6 8 55.89 2.4
-3 6 -8 56.89 2.9
4 -6 8 4.6 2.1
4 6 -8 11.4 1.8
4 6 -8 6.5 1.3
-4 -6 8 5.6 1.5
-4 -6 8 5.5 1.7
-4 6 -8 6 1.4
5 6 -8 45.3 3.2
5 -6 8 46.8 3.1
5 -6 8 40.6 3.9
5 6 -8 40.3 2.6
-5 6 -8 48.9 3.1
-5 -6 8 44 2.9
-5 -6 8 44.6 3.2
6 6 -8 85.39 4.8
6 -6 8 96.19 5.7
6 6 -8 94.39 4.1
6 -6 8 95.39 4.5
-6 -6 8 88.99 4.4
-6 -6 8 97.69 4.1
-6 6 -8 92.89 4.5
7 6 -8 10.9 1.9
7 6 -8 8 2.3
-7 -6 8 8.4 2.2
-7 -6 8 9.7 2.1
0 -7 8 5.4 1.2
0 7 -8 4.6 1.2
0 -7 8 6.4 2.5
0 7 -8 4.9 1.2
1 -7 8 139.19 5.6
1 7 -8 135.59 4.4
1 -7 8 132.89 3.6
1 7 -8 139.69 4.9
-1 -7 8 133.49 5
-1 7 -8 136.89 4.4
-1 -7 8 139.89 3.7
-1 7 -8 136.59 4.8
2 7 -8 26 2.7
2 7 -8 29.4 2.2
2 -7 8 31.5 2.3
2 -7 8 25.2 3.1
-2 -7 8 25.6 2.1
-2 -7 8 25.6 2.6
-2 7 -8 29.9 2.3
-2 7 -8 28.3 2.1
3 -7 8 59.29 4.1
3 7 -8 57.49 3.6
3 7 -8 60.49 3.1
-3 -7 8 60.19 2.8
-3 -7 8 58.89 3.6
-3 7 -8 60.19 3.2
4 7 -8 24.1 2.1
4 7 -8 24.1 2.3
4 -7 8 19.3 3
-4 7 -8 22.4 2.2
-4 -7 8 19.7 2
-4 -7 8 19.4 2.4
5 7 -8 4 1.3
5 7 -8 1.8 1.4
5 -7 8 -0.4 2.6
5 -7 8 4.1 1.7
-5 -7 8 0.3 1.8
-5 -7 8 0.9 1.3
-5 7 -8 1.4 1.2
6 -7 8 6.3 2.2
6 -7 8 9.8 3.3
-6 7 -8 6.7 1.8
0 8 -8 8.9 1.5
0 -8 8 13.5 3
0 -8 8 6.5 1.4
1 -8 8 57.89 2.8
1 -8 8 49.99 4.4
1 8 -8 55.79 3.3
1 8 -8 48.8 3.1
-1 8 -8 58.49 3.5
-1 8 -8 54.59 2.9
-1 -8 8 54.29 2.6
-1 -8 8 52.09 4.2
2 -8 8 38.6 4.2
2 8 -8 36.7 2.8
2 8 -8 37.1 3.1
2 -8 8 39 2.7
-2 -8 8 37.7 3.4
-2 8 -8 36 2.6
-2 8 -8 39.2 2.8
-2 -8 8 39.4 2.4
3 8 -8 11.8 3
3 -8 8 11 2.8
3 8 -8 12.9 2.8
-3 8 -8 12 1.8
-3 8 -8 13.5 2.1
-3 -8 8 15.3 3.7
4 -8 8 5.4 2.6
-4 8 -8 11.4 1.9
5 -8 8 16.9 3.6
5 -8 8 19.3 2.4
-5 8 -8 18.2 2.4
0 -9 8 2.7 2.6
0 9 -8 0.1 1.2
0 -9 8 1.4 2.1
0 9 -8 1.2 1.2
1 -9 8 42.9 2.8
1 -9 8 43 4.7
-1 9 -8 39.4 2.7
-1 9 -8 33.5 2.9
2 -9 8 12.5 3.1
-2 9 -8 16.8 2.1
-2 9 -8 16 2.3
3 -9 8 -0.3 2.7
-3 9 -8 0.4 1.1
-3 9 -8 1.6 1.3
4 -9 8 24.3 4
-4 9 -8 25.8 3.1
-4 9 -8 26.5 2.7
5 -9 8 5.7 2.1
5 -9 8 4 2.8
-5 9 -8 4.5 1.4
0 0 -9 0.9 0.5
0 0 9 1.2 0.6
0 0 9 0.3 0.4
0 0 -9 1.1 0.9
1 0 -9 589.24 12.7
-1 0 9 594.74 12
-1 0 9 609.44 12.4
-1 0 -9 612.34 12.6
1 0 -9 606.44 12.7
1 0 9 602.14 13
-1 0 -9 593.04 11.2
2 0 9 364.46 8.1
-2 0 -9 361.46 9.6
2 0 -9 354.06 10.2
-2 0 9 353.16 8.9
-2 0 -9 350.16 6.3
2 0 -9 358.36 7
-2 0 9 365.96 10
-2 0 9 359.56 6.3
-2 0 9 361.86 6.3
2 0 -9 351.26 6.3
2 0 9 361.86 6.7
2 0 -9 367.66 9.5
-2 0 -9 358.46 8.1
2 0 9 357.36 9.8
-3 0 9 11.7 1.1
-3 0 -9 11.1 1.1
3 0 -9 14.3 1.3
-3 0 9 10.2 0.9
3 0 9 13.5 1.3
-3 0 -9 12.8 1
3 0 -9 12.9 1.4
4 0 -9 112.89 4
4 0 9 112.49 3
-4 0 -9 113.49 3
4 0 -9 114.99 3.4
-4 0 9 110.39 3.2
-4 0 9 114.29 3.5
-4 0 -9 113.49 3.5
4 0 9 114.89 3.8
-5 0 -9 15.8 1.6
-5 0 -9 20.5 2.1
5 0 -9 17 1.9
5 0 9 16.6 2
5 0 9 14.5 1.3
-5 0 9 16.5 1.7
-5 0 9 16.8 1.4
5 0 -9 17.6 2.3
-6 0 9 2.1 0.9
6 0 -9 3.4 1.4
6 0 9 2.8 1.4
-6 0 9 5.5 1.4
-6 0 -9 2.7 1.5
6 0 -9 3.4 1.8
6 0 9 1.6 0.7
-6 0 -9 2 1.2
-7 0 -9 74.89 3.5
-7 0 9 85.29 4.1
7 0 -9 78.69 4.1
7 0 9 75.49 3.2
-7 0 -9 76.49 4
7 0 9 77.49 4.5
7 0 -9 75.79 5
-7 0 9 77.99 3.4
8 0 -9 36.8 4.3
8 0 -9 42.7 3.5
-8 0 9 41.4 3.3
-8 0 9 42.3 2.8
0 1 -9 166.68 5.3
0 1 -9 155.38 3.9
0 -1 -9 160.38 5
0 1 -9 157.88 6
0 1 9 159.98 4.3
0 -1 9 160.08 4.8
0 -1 9 167.08 4.1
0 -1 -9 159.18 4.5
0 -1 9 164.38 5.7
0 1 9 163.98 4.1
0 -1 9 156.38 3.2
1 1 -9 191.88 4.4
1 -1 9 189.38 3.5
1 1 -9 187.38 3.8
1 -1 9 197.08 7
1 1 -9 189.08 6.6
-1 1 9 197.68 5.8
-1 -1 -9 197.68 5.3
-1 1 9 193.28 5.1
-1 -1 -9 198.98 4.7
1 1 -9 200.78 6.6
1 -1 9 200.28 4.2
1 1 9 191.88 5.5
-1 -1 9 196.48 4
-1 -1 9 192.48 6.2
1 -1 -9 202.48 6
1 -1 -9 196.18 5.7
-1 -1 9 192.28 3.7
-1 1 -9 189.28 5.5
-1 1 -9 193.48 6.6
-1 1 -9 191.88 3.9
-1 -1 9 195.08 6.2
2 -1 9 27 1.7
-2 1 9 24.7 2
-2 -1 -9 25.7 1.8
-2 -1 -9 26.6 2.3
-2 1 9 24.6 1.2
2 1 -9 25.1 1.7
2 1 -9 24.4 1.3
2 -1 9 24.2 3.2
-2 1 9 25.3 2.4
2 -1 9 26.3 1.1
-2 1 9 24.3 1.2
2 -1 -9 23.8 2.5
-2 -1 9 27 1.4
-2 1 -9 26.2 3.2
2 -1 -9 31.3 2.5
-2 -1 9 24.7 1.5
2 -1 -9 29.3 1.4
2 -1 -9 23.8 1.5
-2 1 -9 23.2 2
-2 1 -9 25.6 1.3
2 1 9 24.9 2.3
2 1 9 23.2 1.7
-3 -1 -9 12.4 2.2
-3 1 9 10 0.9
-3 -1 -9 11.2 1.2
3 1 -9 9.6 1.3
-3 -1 -9 9.6 0.9
3 1 -9 8.8 1
3 -1 9 9 1.2
-3 1 9 9.2 1
-3 -1 9 9.5 1
3 -1 -9 13.3 1.5
-3 1 -9 7.6 0.9
3 1 9 11.7 2.3
3 1 9 9.2 0.8
-3 1 -9 9.3 1
-3 -1 9 10.4 1
3 1 9 8.9 1.5
3 1 9 10.4 1.1
4 -1 9 93.59 3.6
-4 1 9 93.29 2.8
4 1 -9 90.49 3.6
-4 1 9 87.39 3.1
4 -1 9 88.49 2.7
4 1 -9 96.19 3
-4 -1 -9 93.29 2.6
-4 -1 -9 92.19 3
-4 1 -9 92.09 3.2
-4 1 -9 95.09 2.8
4 1 9 91.79 3.3
4 -1 -9 95.99 3.1
-4 -1 9 91.29 3
4 -1 -9 89.39 3.8
4 1 9 90.59 2.6
-4 -1 9 93.39 2.9
-5 1 9 23.5 1.6
-5 1 9 22.1 1.9
5 -1 9 18.3 2.2
5 1 -9 20.9 1.9
-5 -1 -9 23.8 2.3
5 1 -9 25.8 2.6
-5 -1 -9 25.8 1.8
5 -1 9 20.3 1.6
5 1 9 21.5 2.1
-5 1 -9 20.1 1.7
-5 -1 9 23 1.6
5 -1 -9 26.1 2.3
5 1 9 23.5 1.4
5 -1 -9 27.1 3
-5 1 -9 24 2.1
-5 -1 9 25.6 1.9
-6 -1 -9 1.5 1.7
6 -1 9 1 0.9
-6 -1 -9 0.9 1.6
6 1 -9 1.5 1.6
-6 1 9 2 0.9
-6 1 9 1.4 1
6 -1 9 0.3 1.3
6 1 -9 1.8 1.2
6 1 9 0.3 1.3
6 1 9 4.4 1.3
-6 1 -9 0.9 1
6 -1 -9 2.8 1.5
6 -1 -9 2 1.8
-6 -1 9 2 0.8
-6 -1 9 2.9 1.1
-6 1 -9 1.2 1.3
7 1 -9 0.1 2.1
-7 1 9 3.4 1.4
7 1 -9 3.8 1.4
7 -1 9 1.5 1.4
7 -1 9 -0.3 0.9
-7 1 9 1.7 1
-7 -1 9 1.9 1.1
7 -1 -9 1.8 1.7
-7 -1 9 1.7 1.3
-7 1 -9 -0.7 1.2
7 -1 -9 2.7 2.4
-7 1 -9 -0.1 1.6
8 -1 9 10.1 2.6
8 -1 9 16.8 1.8
-8 1 9 9.8 1.9
-8 1 9 10.2 2.1
8 1 -9 11.2 3.1
8 1 -9 10.4 2.1
-8 -1 9 8.3 1.9
8 -1 -9 6.8 2.8
-8 1 -9 8.8 2.3
-8 1 -9 9.1 1.9
-8 -1 9 10.9 2.1
8 -1 -9 6.6 2.4
0 -2 -9 302.37 6
0 2 -9 295.77 5.6
0 -2 9 290.87 5.1
0 -2 9 303.37 6.1
0 2 9 294.57 5.4
0 -2 9 297.57 7.7
0 -2 -9 298.47 6.2
0 2 -9 290.57 9.3
0 2 -9 294.97 6
0 2 9 300.67 5.5
0 2 -9 297.47 8.2
0 -2 9 290.27 8.9
1 2 -9 110.99 2.8
-1 2 9 118.69 4.2
-1 -2 -9 111.39 2.8
-1 -2 -9 115.79 3.1
1 -2 9 113.09 5.9
1 2 -9 109.59 5.4
1 -2 9 114.49 3.3
-1 2 9 115.89 3.5
1 -2 9 114.79 2.5
1 2 -9 114.79 3.4
1 2 -9 109.49 5.7
1 -2 9 117.79 4.5
1 2 9 111.79 3.2
-1 -2 9 111.79 2.6
-1 2 -9 116.19 5.6
-1 2 -9 122.69 3.3
-1 -2 9 111.39 4.8
-1 -2 9 110.09 5.1
-1 2 -9 116.59 3
1 -2 -9 110.39 4.1
-1 -2 9 115.59 3.1
-1 2 -9 116.99 4.5
1 2 9 117.79 2.7
1 -2 -9 112.99 4.2
2 -2 9 141.19 3.1
-2 2 9 145.69 3.3
-2 2 9 154.08 5.8
2 2 -9 148.59 4.4
2 2 -9 149.99 3.5
2 -2 9 149.09 4
-2 2 9 152.38 4.8
-2 2 9 151.98 3.1
-2 -2 9 153.68 3.7
2 -2 -9 150.28 5.8
-2 -2 9 150.78 3.4
2 -2 -9 146.39 3.2
2 -2 -9 152.48 5.5
2 -2 -9 151.88 3.8
-2 2 -9 149.88 3.7
3 -2 9 13.2 1.7
3 2 -9 7.6 1.2
3 2 -9 7.8 1
-3 2 9 8.9 0.8
-3 2 9 7.7 1
3 -2 -9 5 1.5
-3 2 -9 10.2 1.2
-3 -2 9 8 0.9
-3 2 -9 9.5 0.9
-3 -2 9 9 1
3 -2 -9 6.2 1.1
4 -2 9 133.59 4.5
-4 2 9 133.49 3.5
-4 2 9 130.99 3.8
4 2 -9 130.29 3.8
4 2 -9 130.79 4.4
-4 -2 9 136.19 3.7
-4 -2 9 128.79 3.6
-4 2 -9 125.49 3.9
-4 2 -9 127.79 3.3
4 -2 -9 122.49 3.7
4 -2 -9 137.79 4.6
5 -2 9 2 1.2
5 2 -9 5.9 1.1
5 -2 9 4.6 0.9
5 2 -9 6.1 1.5
-5 2 9 5 0.9
-5 2 9 5.5 1.1
5 -2 -9 6.1 2
-5 -2 9 5.8 1.1
-5 2 -9 5 1.1
-5 -2 9 6.1 1.2
5 -2 -9 4.8 1.4
-5 2 -9 6.2 1.3
6 2 -9 2.2 1
-6 2 9 3.3 1.1
6 -2 9 2.6 1.5
6 2 -9 2.2 1.7
-6 2 9 1.2 0.8
6 -2 9 4.5 0.9
-6 -2 9 2.4 1.1
6 -2 -9 2.3 2
6 -2 -9 1.7 1.6
-6 -2 9 2.5 1.1
-6 2 -9 2.7 1.1
-6 2 -9 1.8 1.2
-7 2 9 2.2 1.2
7 -2 9 -0.4 1.6
-7 2 9 0.7 0.9
7 2 -9 2.8 1.2
7 2 -9 -0.5 1.6
7 -2 9 -1.3 1.1
-7 -2 9 2.1 1.2
-7 2 -9 1.7 1.2
-7 2 -9 0.9 1.5
7 -2 -9 1.3 1.7
-7 -2 9 0.9 1.2
7 -2 -9 -1.8 2.3
8 -2 9 12.2 1.7
-8 2 9 13.7 2.6
8 -2 9 11.2 2.7
-8 2 9 16 2.6
8 -2 -9 11.4 4.9
8 -2 -9 11.4 3.6
-8 2 -9 15.8 2.1
-8 2 -9 15.4 2.7
0 3 -9 144.29 3.9
0 -3 9 142.19 4
0 3 -9 146.29 3.6
1 3 -9 23.6 1.4
1 -3 9 27.3 1.8
1 3 -9 23.7 1.7
1 -3 9 24.5 1.1
-1 3 -9 28.5 1.8
-1 3 -9 25.3 1.5
-1 -3 9 26.9 1.2
-1 -3 9 25.1 1.6
2 3 -9 55.49 2.7
2 3 -9 60.19 2.2
2 -3 9 58.99 2.7
2 -3 9 52.69 1.8
-2 3 9 52.19 3.4
-2 3 9 57.49 1.8
-2 3 9 55.39 2.8
-2 3 9 55.49 1.6
2 -3 -9 57.49 2.2
-2 -3 9 58.29 2.3
2 -3 -9 56.99 1.9
-2 3 -9 56.09 2.3
-2 -3 9 53.19 1.9
2 -3 -9 57.59 3.4
2 -3 -9 59.29 3.9
3 3 -9 105.09 3.2
3 -3 9 115.09 4
3 3 -9 109.99 4
-3 3 9 108.59 3
-3 3 9 108.69 2.7
-3 3 -9 109.89 3.4
3 -3 -9 110.79 3.7
-3 -3 9 110.09 3.1
-3 -3 9 106.19 3.2
3 -3 -9 109.39 3.1
-4 3 9 42.1 2.1
4 3 -9 36.4 2.7
4 3 -9 39.3 2.4
4 -3 9 35 2.8
-4 3 9 39.1 1.8
-4 3 -9 43.2 2.5
-4 3 -9 39.9 1.9
4 -3 -9 40.7 2.4
-4 -3 9 38.6 2.2
-4 -3 9 36.8 2
4 -3 -9 39.2 3.2
5 -3 9 41.5 3
-5 3 9 38.9 2.3
5 -3 9 36.6 2.2
5 3 -9 38.4 3
-5 3 9 39.7 2
5 3 -9 38.5 2.4
-5 3 -9 37.1 2
5 -3 -9 38.8 2.8
-5 -3 9 39.4 2.4
5 -3 -9 35.8 3.5
-5 -3 9 35.5 2.4
-5 3 -9 37.7 2.6
6 -3 9 35.4 3.3
-6 3 9 33.1 2.1
6 -3 9 34.1 2.4
-6 3 9 36.1 2.4
6 3 -9 38.3 2.6
6 3 -9 35.8 3.2
-6 -3 9 36.3 2.5
-6 3 -9 31.3 2.6
6 -3 -9 36.9 2.9
-6 3 -9 35.2 2.2
-6 -3 9 35.8 2.6
6 -3 -9 30.4 3.5
-7 3 9 13.6 2.1
7 3 -9 11.3 2
7 -3 9 13 2.7
-7 3 9 15 1.6
7 3 -9 10.7 2.6
7 -3 9 9.1 1.8
-7 -3 9 12.5 2
-7 3 -9 8.8 2
7 -3 -9 12.3 3.2
-7 3 -9 10.8 1.7
-7 -3 9 11.2 2.1
7 -3 -9 12.1 2.3
0 -4 9 0.8 0.4
0 4 -9 1.3 0.7
0 4 -9 1.4 0.7
0 -4 9 -0.1 0.8
1 -4 9 35 1.5
1 4 -9 32.7 1.7
1 -4 9 33.1 2.2
1 4 -9 34.3 2
-1 -4 9 34.8 2.1
-1 4 -9 36.9 2
-1 4 -9 35.3 1.9
-1 -4 9 34.8 1.4
2 4 -9 101.79 3.9
2 -4 9 108.79 3.8
2 -4 9 108.29 2.8
2 4 -9 111.49 3.2
-2 4 -9 108.69 3.4
-2 -4 9 110.79 3.4
-2 -4 9 104.89 2.8
3 4 -9 29 1.8
3 -4 9 32.5 2.4
3 4 -9 28.8 2.2
-3 -4 9 31.4 1.7
-3 4 -9 31.7 1.9
-3 -4 9 28.5 1.9
4 4 -9 50.59 3.2
-4 4 9 39 2.1
4 4 -9 41.2 2.4
4 -4 9 39.1 3.4
-4 4 9 41.9 1.8
-4 -4 9 37.6 2.4
4 -4 -9 43 3.3
4 -4 -9 38.9 2.6
-4 4 -9 41 2.7
-4 -4 9 40.8 2.2
5 -4 9 8.8 1.3
5 -4 9 7.6 2.2
-5 4 9 8.4 1.5
5 4 -9 10.5 1.6
5 4 -9 8.3 1.8
-5 4 9 10.6 1.2
-5 4 -9 9.9 1.3
-5 -4 9 12.2 1.8
-5 4 -9 9.3 1.6
-5 -4 9 7.3 1.5
5 -4 -9 7.5 1.7
5 -4 -9 6.8 2.5
6 4 -9 38.8 3.1
-6 4 9 37 2.1
6 -4 9 33.4 3.7
6 -4 9 39.1 2.8
6 4 -9 33.7 2.7
-6 4 9 37.9 2.6
6 -4 -9 31.8 3.8
-6 4 -9 35.6 2.3
-6 4 -9 31.7 2.8
-6 -4 9 34.8 2.8
6 -4 -9 37 3
-6 -4 9 39.4 3
7 4 -9 6.4 1.9
-7 4 9 9.1 1.7
7 4 -9 10.9 2.3
7 -4 9 5.6 1.7
7 -4 9 4.7 2.6
-7 4 9 9.3 1.4
-7 4 -9 11.1 2.1
7 -4 -9 6.9 2.1
-7 -4 9 7.2 2
7 -4 -9 6.9 3
-7 4 -9 8.8 1.7
-7 -4 9 10.4 2.2
0 -5 9 16.4 1.1
0 5 -9 17.4 1.5
0 -5 9 16.2 1.9
0 5 -9 18.1 1.6
1 -5 9 12.6 1.1
1 5 -9 15.2 1.6
1 -5 9 12.7 1.9
1 5 -9 14.7 1.4
-1 5 -9 15.9 1.5
-1 -5 9 14.2 1.1
-1 5 -9 13.7 1.5
-1 -5 9 16.3 1.9
2 -5 9 23.2 1.5
2 5 -9 22.6 1.6
2 5 -9 21.2 2.1
2 -5 9 23.7 2.4
-2 5 -9 23.3 1.7
-2 -5 9 19.9 1.4
-2 -5 9 20.8 2.1
3 -5 9 56.29 3.6
3 5 -9 53.09 2.5
3 5 -9 51.09 3.1
-3 -5 9 49.8 2.8
-3 5 -9 52.29 2.6
-3 -5 9 50.49 2.3
4 5 -9 173.68 5
4 5 -9 176.68 5.8
4 -5 9 171.88 6.2
-4 -5 9 175.18 5.2
-4 -5 9 178.38 4.8
-4 5 -9 182.88 5.4
5 -5 9 80.09 5
5 -5 9 73.09 3.3
5 5 -9 78.99 4.1
5 5 -9 71.99 3.4
-5 -5 9 71.49 3.3
-5 -5 9 76.19 3.5
-5 5 -9 76.89 3.8
-6 5 9 15.1 2.4
6 5 -9 15.8 2.1
6 -5 9 9.8 3.1
-6 5 9 13.3 1.7
6 -5 9 12.2 2
6 5 -9 12.8 2.5
-6 -5 9 14 2.2
-6 -5 9 14.3 2.1
-6 5 -9 14.3 2.2
6 -5 -9 12.5 2.1
6 -5 -9 15.7 5
7 5 -9 9.5 1.8
7 -5 9 3.1 3.2
-7 5 9 10 1.4
7 -5 9 7.7 2
7 5 -9 7.2 2.1
-7 5 9 10.6 1.8
7 -5 -9 4.4 3.2
-7 -5 9 11.9 2.2
7 -5 -9 13 2.2
-7 -5 9 9.4 1.9
-7 5 -9 9.8 2.1
0 -6 9 8.6 1.9
0 6 -9 8.1 1.3
0 -6 9 8.9 1.1
0 6 -9 9.6 1.4
1 6 -9 38.4 2.4
1 -6 9 35.8 2
1 6 -9 38.7 2.6
1 -6 9 34.2 3.1
-1 6 -9 35.6 2.2
-1 -6 9 37.2 3
-1 -6 9 34.1 2
-1 6 -9 33.7 2.4
2 6 -9 36.3 3
2 -6 9 37.8 3.3
2 -6 9 31.9 2.1
2 6 -9 43.7 2.3
-2 -6 9 34.4 2
-2 -6 9 39.2 3
-2 6 -9 39 2.4
-2 6 -9 37.6 2.5
3 6 -9 16.1 2.1
3 -6 9 20.2 2.8
3 6 -9 18.5 1.7
-3 6 -9 19.6 1.8
-3 -6 9 19 2.3
-3 -6 9 15.8 1.7
4 -6 9 2.3 2.3
4 6 -9 -0.3 1
4 6 -9 0.1 1.1
-4 -6 9 -0.7 1.5
-4 6 -9 1.9 1.1
-4 -6 9 -0.4 1.1
5 -6 9 5.3 2.6
5 6 -9 3.5 1.3
5 6 -9 6.9 1.7
-5 6 -9 3.2 1.4
-5 -6 9 3.1 1.6
-5 -6 9 4.7 1.6
6 -6 9 25.3 3.6
6 6 -9 33.4 3.3
6 6 -9 36.1 2.7
6 -6 9 33.7 3.3
-6 6 -9 35.6 3.1
-6 -6 9 34.9 3.5
-6 -6 9 35.7 3
7 6 -9 32.7 4.6
7 6 -9 44.2 3.1
-7 -6 9 24.7 3
-7 -6 9 34.2 3.5
0 -7 9 2.8 2.3
0 -7 9 3.1 1.2
0 7 -9 5.2 1.3
0 7 -9 2.6 1
1 7 -9 3.9 1.2
1 7 -9 3.9 1.2
1 -7 9 5.7 2.3
1 -7 9 3.4 1.2
-1 7 -9 3.7 1.1
-1 -7 9 2.8 2
-1 -7 9 5.4 1.2
-1 7 -9 5.3 1.4
2 -7 9 78.39 3.1
2 7 -9 78.49 4.1
2 7 -9 82.69 3.4
2 -7 9 73.79 4.8
-2 -7 9 70.99 2.9
-2 7 -9 68.89 3.6
-2 -7 9 72.69 4
-2 7 -9 73.59 3.3
3 7 -9 3.1 1.4
3 -7 9 1.9 2.1
3 7 -9 3.1 1.3
-3 -7 9 3.1 1.3
-3 7 -9 2.6 1.1
-3 -7 9 3.2 1.9
4 -7 9 41.4 4.4
4 7 -9 40.3 2.6
4 7 -9 34.5 3
-4 -7 9 41.7 3.3
-4 7 -9 40.5 2.8
-4 -7 9 37.9 2.4
5 7 -9 67.99 3.5
5 -7 9 66.49 5.5
5 7 -9 64.99 4
-5 -7 9 65.89 3.7
-5 7 -9 68.69 3.9
-5 -7 9 70.29 3.3
6 -7 9 16.2 3.7
6 -7 9 23 2.9
-6 7 -9 20.9 2.9
0 8 -9 122.39 4.7
0 -8 9 133.69 5.9
0 8 -9 123.89 4.5
0 -8 9 122.19 3.9
1 8 -9 93.79 4
1 -8 9 92.69 5.2
1 -8 9 96.49 3.3
1 8 -9 96.09 4.3
-1 8 -9 91.49 4.3
-1 -8 9 95.09 3.3
-1 -8 9 94.79 4.8
-1 8 -9 94.79 3.9
2 -8 9 9.2 2.8
2 8 -9 6.1 1.6
2 -8 9 7.7 1.6
2 8 -9 8.6 2.1
-2 -8 9 9.5 2.3
-2 -8 9 7.9 1.5
-2 8 -9 6.5 1.4
-2 8 -9 8.6 1.6
3 8 -9 12.3 1.8
3 -8 9 12.8 3.2
3 8 -9 8.8 1.9
-3 8 -9 11 1.8
-3 -8 9 12.3 2.3
-3 8 -9 15.6 2.3
-3 -8 9 13.2 1.7
4 -8 9 3.4 2.6
-4 8 -9 5.4 1.6
5 -8 9 9.6 3.4
5 -8 9 17.8 2.4
-5 8 -9 15.1 2.3
0 9 -9 60.69 3.4
0 -9 9 58.49 4.9
0 -9 9 64.19 3.1
0 9 -9 65.49 3.7
1 -9 9 33.3 2.7
1 9 -9 28.8 3.3
1 9 -9 32.3 4
1 -9 9 30.8 3.9
-1 -9 9 31 3.9
-1 9 -9 31.3 2.6
-1 -9 9 33.3 3.7
-1 9 -9 30.2 2.8
2 -9 9 47.2 4.7
2 -9 9 47 3.1
-2 9 -9 52.69 3.1
-2 9 -9 46.2 3.5
3 -9 9 12.5 3.3
-3 9 -9 14.6 2.2
-3 9 -9 12.1 2.1
4 -9 9 6.3 3.1
-4 9 -9 5.9 1.6
-4 9 -9 6.8 1.9
5 -9 9 32.2 4.8
5 -9 9 38.9 3.9
-5 9 -9 37.1 4.1
-5 9 -9 42.1 3.3
3 -10 9 3.7 2.9
-3 10 -9 5.4 1.7
-3 10 -9 3.4 1.5
4 -10 9 16.8 3.8
-4 10 -9 14.4 2.2
-4 10 -9 17.2 2.7
0 0 -10 218.18 6.1
0 0 -10 224.68 6.9
0 0 10 216.28 6.4
0 0 10 224.78 5.7
-1 0 -10 3.9 1.2
-1 0 10 4.6 1.2
-1 0 10 3.4 1.1
-1 0 -10 4.2 1.1
-1 0 10 4.2 0.6
1 0 -10 3 1.2
1 0 10 4.8 1.4
-1 0 10 4.6 0.6
1 0 -10 5.4 1.4
2 0 -10 107.69 3.2
-2 0 10 104.09 2.5
2 0 10 103.39 5.1
-2 0 -10 102.59 4.8
2 0 10 111.79 3
2 0 -10 101.99 4.9
-2 0 -10 104.79 3.9
2 0 -10 106.89 2.8
2 0 -10 104.59 5.4
-2 0 -10 102.59 2.6
-2 0 10 106.39 5.4
2 0 10 108.39 3.9
-2 0 10 106.69 2.7
-2 0 10 102.09 4.5
-3 0 10 6 0.8
-3 0 -10 6.2 0.9
3 0 10 7.5 1.1
-3 0 -10 6.2 0.8
3 0 -10 4.6 0.9
-3 0 10 8.4 0.9
3 0 -10 6.9 1.2
4 0 -10 25.4 2.1
-4 0 10 25.9 1.6
4 0 10 27.5 1.9
-4 0 -10 29.9 1.7
-4 0 -10 29 2
-4 0 10 24.4 1.6
4 0 10 25.6 1.4
4 0 -10 28.4 2
5 0 -10 7.9 2
-5 0 -10 7.6 1.5
-5 0 10 7.2 1.3
-5 0 10 7 1.2
5 0 10 5.3 1.5
5 0 -10 8.7 1.6
5 0 10 10.3 1
-5 0 -10 5.1 1.1
6 0 -10 82.99 4.7
-6 0 -10 88.89 4
-6 0 -10 87.79 3.2
6 0 -10 85.59 3.9
6 0 10 80.89 4.2
6 0 10 85.89 3.2
-6 0 10 88.29 3.4
-6 0 10 86.59 3.7
7 0 10 2.1 1.5
-7 0 10 1.1 1.3
7 0 -10 0.6 1.7
-7 0 10 -0.1 0.9
-7 0 -10 1.4 1.6
7 0 10 1.5 0.8
-7 0 -10 0.2 1.2
7 0 -10 1.3 2.2
-8 0 10 7.1 2
8 0 -10 6.4 2.6
8 0 -10 4.8 3.9
-8 0 10 7.5 2
0 -1 10 535.35 9.1
0 -1 -10 519.35 10.9
0 1 -10 513.15 12.8
0 1 -10 509.75 8.8
0 1 -10 533.25 11.6
0 1 10 519.15 9.6
0 -1 10 519.85 10.8
0 -1 -10 519.95 10.4
0 1 10 523.95 10.1
0 -1 10 491.35 8.1
0 1 -10 526.45 8.6
0 -1 10 510.35 12
1 1 -10 146.19 4
1 -1 10 151.78 3
-1 -1 -10 155.68 4.9
-1 1 10 153.88 4.7
1 -1 10 159.88 3.8
1 1 -10 154.48 6.2
1 -1 10 148.59 6.4
-1 1 10 151.48 5
1 1 -10 148.49 5.9
-1 -1 -10 149.79 4.2
1 1 -10 155.48 3.4
-1 -1 10 153.78 3.2
-1 1 -10 156.68 3.7
1 1 10 150.98 5.1
-1 1 -10 140.49 4.9
-1 -1 10 159.88 5.8
-1 1 -10 153.98 3.4
-1 -1 10 154.48 5.6
1 -1 -10 159.98 5.5
-1 -1 10 158.28 3.6
1 -1 -10 150.28 5.4
-1 1 -10 152.28 6
-2 1 10 55.99 3.5
2 1 -10 52.59 2.5
2 -1 10 56.49 2.2
-2 -1 -10 56.69 2.7
-2 1 10 52.69 1.7
2 -1 10 50.29 4
-2 1 10 54.39 1.8
2 -1 10 51.29 1.6
-2 1 10 57.29 3.1
-2 -1 -10 48.4 3.2
2 1 -10 52.89 1.9
2 -1 -10 51.79 2.1
-2 -1 10 53.29 2
-2 -1 10 54.79 1.9
2 -1 -10 49.2 3.5
2 1 10 56.79 2.5
2 -1 -10 49.1 1.8
-2 1 -10 49.6 1.9
-2 1 -10 53.39 3
2 1 10 52.49 3.5
2 -1 -10 48.9 3.5
-2 1 -10 50.29 3.7
-3 1 10 201.88 4.3
-3 1 10 192.18 4.5
3 -1 10 201.08 5.1
3 1 -10 192.68 5.1
3 1 -10 200.28 4.6
-3 -1 -10 198.48 3.9
-3 -1 -10 200.48 4.4
3 1 10 202.18 4.7
3 -1 -10 193.98 4.4
-3 1 -10 207.28 4.7
3 -1 -10 207.18 5.2
3 1 10 200.88 3.9
-3 -1 10 200.38 4.5
-3 1 -10 199.58 4.1
-3 -1 10 201.78 4.4
4 1 -10 23.5 1.7
-4 1 10 21 1.5
4 -1 10 22.3 2
-4 -1 -10 20.2 1.8
-4 1 10 23.1 1.4
-4 -1 -10 18.9 1.7
4 -1 10 23.5 1.4
4 1 -10 22.3 2.1
-4 1 -10 21.3 1.7
4 -1 -10 23.1 1.8
4 -1 -10 26.6 2.5
4 1 10 26.4 1.3
-4 1 -10 20.1 1.4
4 1 10 23.1 1.8
-4 -1 10 24.1 1.6
-4 -1 10 26 1.6
-5 -1 -10 39.3 3.1
5 1 -10 42.5 2.4
-5 1 10 40.9 2.1
-5 1 10 42 2.4
5 -1 10 38.6 2.1
5 1 -10 42.3 3.1
5 -1 10 40.9 2.8
-5 -1 -10 38.3 4
-5 1 -10 40.7 2.6
-5 -1 10 38.1 2.1
-5 -1 10 42.7 2.3
5 -1 -10 44 2.7
5 -1 -10 43.1 3.3
5 1 10 43.2 4.2
-5 1 -10 43.9 2.3
6 1 -10 11.5 1.8
6 1 -10 15.2 2.6
-6 1 10 16.5 1.4
6 -1 10 15.1 2.3
6 -1 10 11.8 1.5
-6 1 10 14.6 1.9
-6 1 -10 10.2 1.8
6 -1 -10 14.8 2.1
-6 -1 10 13.4 1.8
6 -1 -10 12.6 2.5
-6 1 -10 12 1.6
-6 -1 10 12.4 1.6
-7 1 10 21.9 2.6
-7 1 10 19.5 2.1
7 -1 10 18.4 2.9
7 -1 10 22.8 2
7 1 -10 21.2 3.4
7 1 -10 18.2 2.4
7 -1 -10 18.8 2.9
-7 -1 10 18.4 2.3
-7 1 -10 20.8 2.2
-7 -1 10 20.3 2.1
7 -1 -10 22.3 3.5
-7 1 -10 20.9 2.6
-8 1 10 56.79 5.6
8 -1 10 60.49 4.5
-8 1 10 58.29 4.5
8 -1 10 61.39 3.1
8 -1 -10 65.79 8.4
-8 1 -10 59.89 3.3
-8 1 -10 57.89 4.1
0 -2 10 470.45 7.7
0 2 -10 475.45 8.8
0 -2 10 483.65 10.9
0 2 -10 487.95 8.3
0 2 10 480.45 8.3
0 2 -10 475.45 11.5
0 -2 -10 467.65 8.9
0 -2 10 482.85 12.4
0 2 10 467.45 8.3
0 -2 -10 467.85 9.3
0 -2 10 500.65 8.9
0 2 -10 481.65 13.1
1 -2 10 58.99 2.4
1 2 -10 60.19 2.1
1 -2 10 56.59 5.3
1 -2 10 59.69 1.7
-1 2 10 62.09 2.5
1 2 -10 57.79 2.4
1 -2 10 49.99 3.4
-1 2 10 58.99 3
-1 2 -10 58.09 3.9
-1 -2 10 59.29 1.8
-1 2 -10 61.69 5.1
-1 -2 10 57.29 2.3
-1 2 -10 61.89 2.3
1 -2 -10 60.59 3.1
-1 2 -10 60.99 2.1
1 -2 -10 65.99 3.2
-2 2 10 191.08 6.7
-2 2 10 191.18 3.9
-2 2 10 186.88 5.7
2 -2 10 196.08 4.8
-2 2 10 189.48 3.7
2 -2 10 184.18 3.8
2 2 -10 184.88 4.2
2 2 -10 192.78 5.1
-2 -2 10 190.18 4.1
2 -2 -10 190.48 4.3
-2 2 -10 188.48 4.4
2 -2 -10 188.48 3.9
2 -2 -10 192.58 6.3
-2 -2 10 188.18 4.4
2 -2 -10 195.88 7.1
-3 2 10 25.6 1.5
3 2 -10 26.2 1.5
3 -2 10 27.2 2
-3 2 10 27.8 1.3
3 2 -10 27.3 2
3 -2 -10 26.4 1.8
-3 -2 10 24.6 1.4
3 -2 -10 26.7 2.2
-3 -2 10 27.6 1.6
-3 2 -10 27.2 1.7
4 -2 10 125.69 4.4
4 2 -10 121.29 4.3
-4 2 10 125.09 3.4
4 2 -10 123.89 3.8
-4 2 10 123.29 3.7
4 -2 -10 119.59 3.7
4 -2 -10 113.59 4.4
-4 2 -10 116.29 3.2
-4 2 -10 125.19 3.9
-4 -2 10 120.99 3.6
-4 -2 10 124.09 3.6
-5 2 10 11.5 1.5
5 2 -10 9.4 1.8
5 -2 10 13.4 2
-5 2 10 11 1.2
5 2 -10 11.8 1.6
5 -2 10 13.8 1.4
-5 2 -10 9.4 1.3
-5 -2 10 11.1 1.5
-5 2 -10 10.8 1.7
5 -2 -10 11.2 2.3
5 -2 -10 10.9 1.7
-5 -2 10 12.6 1.6
6 -2 10 42.9 2.4
6 -2 10 35.9 3.1
-6 2 10 35.8 2.5
6 2 -10 44.4 2.8
-6 2 10 35.2 2.2
6 2 -10 38.9 3.5
-6 2 -10 36 2.8
-6 2 -10 39.7 2.4
6 -2 -10 37.9 3.9
6 -2 -10 40.7 3.1
-6 -2 10 39.9 2.5
-6 -2 10 33.1 2.4
7 -2 10 27.9 2.5
-7 2 10 37.1 2.4
7 2 -10 37.1 3.1
7 -2 10 35.5 3.5
7 2 -10 35.3 3.9
-7 2 10 42.4 3
-7 2 -10 34.5 3.2
-7 -2 10 34.2 2.8
7 -2 -10 38.1 3.3
-7 -2 10 38.4 2.8
-7 2 -10 34.1 2.5
7 -2 -10 38.2 4.2
0 -3 10 9.7 0.8
0 3 -10 9 1.1
0 -3 10 9.2 1.3
0 3 -10 7.9 1.1
1 3 -10 19.7 1.6
1 -3 10 21 1
1 -3 10 15.7 1.7
1 3 -10 17.9 1.3
-1 3 -10 22.2 1.6
-1 -3 10 22.7 1.7
-1 -3 10 20.1 1
-1 3 -10 20.4 1.4
-2 3 10 15.7 1.5
2 -3 10 15.6 1.6
2 3 -10 13.9 1.2
-2 3 10 12.9 1.1
2 3 -10 11.8 1.6
2 -3 10 11.8 1
-2 -3 10 13.3 1.3
-2 -3 10 14.7 1.1
-2 3 -10 14.1 1.3
2 -3 -10 16.7 1.7
3 3 -10 316.57 6.6
3 3 -10 316.47 7.7
3 -3 10 314.17 7.3
-3 3 10 321.57 5.9
-3 3 10 332.47 6.3
-3 3 -10 323.67 6.9
-3 -3 10 315.57 6.3
-3 -3 10 322.77 6.7
3 -3 -10 309.97 6
3 -3 -10 329.27 6.9
-4 3 10 4 0.8
4 3 -10 3.4 1
4 3 -10 3.6 1.2
-4 3 10 3.2 0.8
4 -3 10 4.1 1.5
-4 3 -10 3.2 1
4 -3 -10 1.9 1.2
4 -3 -10 2.9 1.7
-4 -3 10 3.1 0.9
5 -3 10 31.1 2.8
5 3 -10 30.6 2.8
-5 3 10 33.4 1.9
5 -3 10 33.9 2.1
5 3 -10 30.3 2.4
-5 3 10 29 2.1
-5 -3 10 32.9 2.2
5 -3 -10 30.5 2.6
-5 3 -10 31 2
-5 3 -10 29.5 2.4
5 -3 -10 30.5 3.4
-5 -3 10 29.2 2.1
6 -3 10 44.4 2.8
-6 3 10 51.69 2.9
6 -3 10 48 3.5
-6 3 10 50.79 2.5
6 3 -10 50.29 3.2
6 3 -10 52.39 3.8
6 -3 -10 47.7 3.3
-6 3 -10 52.89 2.7
6 -3 -10 50.59 4.4
-6 3 -10 49.7 3.2
-6 -3 10 45.3 2.8
-6 -3 10 51.39 3
7 -3 10 11.7 2.5
-7 3 10 8.1 1.3
7 -3 10 5.2 1.6
-7 3 10 8.5 1.6
7 3 -10 6 2
7 3 -10 1.7 2
7 -3 -10 6.8 2.9
-7 -3 10 8.2 2
-7 -3 10 6.9 1.8
7 -3 -10 6.2 1.9
-7 3 -10 6.3 1.5
-7 3 -10 7.5 2
0 -4 10 177.88 3.8
0 4 -10 179.58 4.9
0 4 -10 183.28 4.6
0 -4 10 184.78 5
1 4 -10 18.9 1.5
1 4 -10 21.1 1.7
1 -4 10 18.5 1.7
1 -4 10 19.2 1.1
-1 4 -10 18.3 1.5
-1 -4 10 17.2 1.1
-1 4 -10 19.3 1.6
-1 -4 10 17.8 1.8
2 -4 10 163.58 3.7
2 -4 10 162.68 4.8
2 4 -10 160.48 4.2
2 4 -10 159.08 5.1
-2 -4 10 172.58 4.5
-2 4 -10 167.88 4.4
-2 -4 10 169.38 3.9
3 4 -10 31.4 1.8
3 4 -10 26.7 2.3
3 -4 10 30.9 2.5
-3 -4 10 31 1.7
-3 -4 10 29.2 1.8
-3 4 -10 29.4 1.9
4 -4 10 91.89 4.2
4 4 -10 88.19 3.3
4 4 -10 96.19 4.1
-4 4 10 89.79 3.1
-4 4 10 86.59 2.7
4 -4 -10 85.19 3.2
-4 -4 10 87.19 3.4
4 -4 -10 82.99 4.2
-4 4 -10 94.69 3.7
-4 -4 10 85.19 3
5 -4 10 32.5 3.3
-5 4 10 32.7 1.8
5 -4 10 33.8 2.1
-5 4 10 30.6 2.1
5 4 -10 29.2 2.9
5 4 -10 30.3 2.3
5 -4 -10 34.1 2.6
-5 4 -10 29.6 2.5
-5 -4 10 30.5 2.3
5 -4 -10 25 3.1
-5 -4 10 34.7 2.6
6 -4 10 60.19 4.6
6 4 -10 59.09 3.4
6 4 -10 60.79 3.8
-6 4 10 61.09 3.2
6 -4 10 63.89 3.2
-6 4 10 56.29 2.7
6 -4 -10 58.99 3.4
-6 -4 10 58.29 3.5
6 -4 -10 58.69 4.6
-6 4 -10 58.79 3.6
-6 -4 10 58.69 3.3
7 -4 10 12.2 2.1
7 -4 10 13.9 3.2
7 4 -10 14.7 2.3
-7 4 10 18.5 1.7
-7 4 10 17.6 2.4
7 4 -10 15 2.7
7 -4 -10 17.5 2.6
-7 -4 10 17.7 2.4
7 -4 -10 16.8 3.4
-7 -4 10 17.6 2.4
-7 4 -10 18.9 2.7
0 -5 10 7.9 0.9
0 5 -10 8.9 1.2
0 -5 10 9.5 1.6
0 5 -10 11.4 1.5
1 -5 10 14.2 1.9
1 5 -10 15.1 1.4
1 5 -10 16.1 1.6
1 -5 10 14.3 1.2
-1 -5 10 16 1.2
-1 -5 10 13.8 1.7
-1 5 -10 16.4 1.6
-1 5 -10 14 1.5
2 -5 10 20.7 2.3
2 -5 10 20.6 1.5
2 5 -10 20.5 1.6
2 5 -10 19.7 2.1
-2 5 -10 16.8 1.6
-2 -5 10 17.3 1.3
-2 -5 10 17.4 1.9
3 5 -10 65.69 3.7
3 5 -10 61.29 2.7
3 -5 10 67.69 3.8
-3 -5 10 58.99 2.6
-3 -5 10 70.29 3.4
-3 5 -10 65.39 3
4 5 -10 3.1 1
4 -5 10 1.6 1.9
4 5 -10 0.6 1.1
-4 -5 10 2.4 1.4
-4 -5 10 1.2 1.1
-4 5 -10 1.9 1
5 5 -10 34.9 2.9
5 -5 10 28.1 3.3
5 5 -10 27.2 2.3
-5 -5 10 29.8 2.8
-5 5 -10 32.5 2.6
-5 -5 10 31.5 2.5
6 5 -10 33.4 3.3
6 -5 10 33.4 4
6 -5 10 32.5 3
6 5 -10 30.3 2.7
-6 -5 10 33.7 3.3
-6 5 -10 35.4 3.2
-6 -5 10 35 3
7 5 -10 -1.5 1.7
7 -5 10 6.6 1.5
7 -5 10 -1 2.7
7 5 -10 2.4 1.6
-7 5 -10 2.6 1.6
-7 -5 10 4.2 1.8
-7 -5 10 4.4 1.9
0 -6 10 43.3 3.4
0 6 -10 41.9 2.5
0 -6 10 43.4 2.1
0 6 -10 40.9 2.6
1 -6 10 20.7 1.7
1 6 -10 24.8 2.1
1 -6 10 18 2.6
1 6 -10 19.1 2.1
-1 6 -10 19.2 1.9
-1 -6 10 20.3 2.4
-1 6 -10 19.4 1.9
-1 -6 10 18.5 1.6
2 -6 10 1.4 0.9
2 6 -10 2.6 1.2
2 6 -10 1.7 1.1
2 -6 10 5.7 2.2
-2 -6 10 2.3 1
-2 6 -10 2.9 1.2
-2 -6 10 1.9 1.7
-2 6 -10 1.7 1
3 -6 10 47.6 4
3 6 -10 49.1 2.6
3 6 -10 47.5 3.2
-3 -6 10 45.4 3.3
-3 6 -10 47.8 2.6
-3 -6 10 43.4 2.3
4 6 -10 82.59 3.6
4 -6 10 85.39 5.1
4 6 -10 77.59 4.2
-4 -6 10 82.19 3.3
-4 6 -10 84.19 3.9
-4 -6 10 83.99 3.8
5 -6 10 76.09 4.9
5 6 -10 75.79 3.6
5 6 -10 80.99 4.3
-5 6 -10 75.79 4
-5 -6 10 79.39 3.6
-5 -6 10 73.19 3.7
6 -6 10 39.4 3.3
6 6 -10 40.9 3.1
6 6 -10 33.9 3.5
6 -6 10 38.7 4.4
-6 -6 10 42.8 3.4
-6 -6 10 36.1 3.6
-6 6 -10 40.7 3.3
0 7 -10 24 2.2
0 -7 10 25.2 3.1
0 -7 10 24.6 2.1
0 7 -10 22.5 2
1 7 -10 2.2 1.1
1 -7 10 3 1.2
1 7 -10 3.3 1.3
1 -7 10 1.8 2.2
-1 7 -10 1.8 1.1
-1 -7 10 1.3 1.8
-1 7 -10 2.9 1.1
-1 -7 10 2.9 1.2
2 7 -10 82.69 3.6
2 -7 10 79.99 5
2 -7 10 79.89 3.2
2 7 -10 81.49 4.3
-2 7 -10 79.59 3.5
-2 -7 10 81.09 3
-2 7 -10 80.49 3.8
-2 -7 10 73.39 4.1
3 7 -10 59.59 3.8
3 -7 10 55.69 4.2
3 7 -10 63.19 3.2
-3 -7 10 59.59 2.9
-3 7 -10 62.99 3.3
-3 -7 10 59.19 3.7
-3 7 -10 58.29 3.3
4 -7 10 21.5 3.4
4 7 -10 28.1 2.3
4 7 -10 21.7 2.9
-4 7 -10 25.2 2.4
-4 -7 10 27.3 2.3
-4 -7 10 30.6 3
5 7 -10 4.2 1.6
5 7 -10 4.5 1.5
5 -7 10 1.8 2.7
-5 -7 10 4.1 1.5
-5 7 -10 4.1 1.6
-5 -7 10 4.4 1.9
6 -7 10 22.9 2.9
6 7 -10 19.5 2.5
6 7 -10 16.6 2.7
6 -7 10 18.9 3.8
-6 -7 10 17.5 2.8
-6 7 -10 22 2.9
-6 -7 10 26.7 2.8
0 -8 10 23.5 3.3
0 8 -10 21.1 2.2
0 -8 10 19.9 2.1
0 8 -10 19.9 2.2
1 -8 10 31.3 3.6
1 8 -10 38 2.8
1 8 -10 39.6 3
1 -8 10 39.4 2.5
-1 -8 10 36.5 3.8
-1 -8 10 37.3 2.4
-1 8 -10 40.7 3
-1 8 -10 42.5 2.7
2 -8 10 13.5 1.9
2 -8 10 12.6 2.9
2 8 -10 14.3 2.1
2 8 -10 15.5 2.5
-2 -8 10 14.6 2.5
-2 8 -10 12.8 1.8
-2 8 -10 13.2 2
-2 -8 10 14.5 1.7
3 -8 10 7.2 2.7
3 8 -10 5.4 1.4
3 8 -10 6.7 1.8
-3 8 -10 6.1 1.6
-3 -8 10 8.6 1.7
-3 8 -10 6.5 1.5
-3 -8 10 6.8 2.2
4 -8 10 98.29 6.1
4 8 -10 107.69 4.5
4 8 -10 98.59 5.2
-4 8 -10 105.99 4.7
-4 -8 10 104.79 4.7
-4 8 -10 101.69 4.9
-4 -8 10 102.09 3.8
5 -8 10 9.8 3
-5 8 -10 7.8 1.9
0 9 -10 10.1 1.8
0 -9 10 10 1.8
0 -9 10 8.3 2.8
0 9 -10 7.4 1.7
1 9 -10 25.8 2.5
1 9 -10 24.5 2.9
1 -9 10 24.6 3.8
1 -9 10 22 2.5
-1 -9 10 23.7 2.5
-1 -9 10 27.9 3.1
-1 9 -10 26.9 3
-1 9 -10 23.5 2.3
2 -9 10 5.4 1.7
2 -9 10 5.9 3
-2 9 -10 4.6 1.7
-2 9 -10 5.2 1.5
3 -9 10 61.29 5.4
-3 9 -10 65.49 3.9
-3 9 -10 60.39 3.6
4 -9 10 6.9 3
-4 9 -10 3 1.6
-4 9 -10 1.8 1.3
2 -10 10 11.3 3.2
-2 10 -10 5.8 1.5
-2 10 -10 7 2
3 -10 10 10.9 3.3
-3 10 -10 7.5 1.9
-3 10 -10 9.7 2.2
0 0 11 0.7 0.9
0 0 -11 2.9 1.1
0 0 -11 6.2 1.7
0 0 11 4.2 1.3
-1 0 11 16.4 2.1
-1 0 11 17 0.9
-1 0 -11 19.2 1.3
1 0 11 17.3 0.9
1 0 11 16.3 1.3
-1 0 11 17.2 1.8
-1 0 -11 18.9 1.3
1 0 -11 15.5 1.1
1 0 -11 19.4 2.5
-1 0 -11 18.5 1.7
-1 0 11 17.1 1.2
1 0 11 16 2.4
-1 0 -11 20.9 2.6
1 0 -11 19.9 2.6
1 0 -11 18.9 1.5
2 0 11 0.7 0.4
-2 0 -11 1.3 1.2
-2 0 11 1.5 0.4
2 0 11 1.8 0.9
2 0 -11 1.1 0.7
-2 0 -11 1.8 0.6
-2 0 -11 1.2 1
-2 0 11 1.9 0.5
2 0 11 0.7 0.8
2 0 11 1.7 1.3
3 0 11 27.8 2
-3 0 11 22.4 1.3
-3 0 -11 23.6 1.4
-3 0 11 21.1 1.3
3 0 -11 18.7 1.7
3 0 -11 19.5 1.6
-3 0 -11 23.4 1.6
-4 0 11 23 1.6
-4 0 -11 26 2
4 0 11 25.9 2
4 0 -11 29.1 2.6
-4 0 11 23.9 1.5
-4 0 -11 24.5 1.7
4 0 -11 26.9 2.1
5 0 -11 44.2 2.9
-5 0 -11 40.7 2.6
5 0 11 41.8 2
-5 0 11 45.5 2.5
-5 0 11 41.1 2.2
-5 0 -11 42.2 2.3
5 0 -11 47.7 3.6
5 0 11 43.5 2.8
-6 0 -11 27.9 2.2
6 0 -11 28 3.4
-6 0 11 27.2 2.3
6 0 11 24.4 1.9
6 0 -11 30 2.8
6 0 11 30.2 2.7
-6 0 -11 30.1 2.8
-6 0 11 29.2 2.1
-7 0 11 14.4 2
7 0 -11 16.1 2.3
7 0 -11 14.6 3.1
-7 0 11 15.7 1.9
0 1 -11 97.59 2.6
0 -1 11 104.19 3.1
0 -1 -11 99.09 3.9
0 1 11 105.49 3.4
0 1 11 103.79 3.7
0 1 -11 98.59 5.3
0 -1 11 95.59 4.9
0 1 -11 103.79 2.8
0 -1 -11 96.89 4.4
0 -1 11 98.79 2.3
0 1 -11 99.69 4.5
0 -1 11 101.79 4.1
1 -1 11 281.37 7.2
1 1 -11 270.97 5.9
1 1 -11 258.97 8.8
1 1 -11 265.37 5.1
1 -1 11 266.87 8.9
1 1 -11 261.57 8.3
1 -1 11 264.27 5.6
-1 -1 -11 264.57 7
1 -1 11 266.87 4.7
-1 -1 -11 265.27 6.3
-1 1 11 276.47 7.3
-1 1 11 271.87 6.8
-1 -1 11 259.47 5.3
1 1 11 263.07 7.3
1 -1 -11 268.67 7.6
-1 -1 11 253.07 4.8
-1 1 -11 274.17 5.5
-1 1 -11 266.27 7.3
-1 -1 11 261.77 8
-1 -1 11 270.27 7.8
-1 1 -11 264.97 5.2
-1 1 -11 262.77 8.5
1 -1 -11 262.37 7.6
-2 -1 -11 7.1 1.4
-2 -1 -11 5.9 1.7
2 -1 11 9 0.7
-2 1 11 9.8 0.8
-2 1 11 9.9 0.8
2 1 -11 7.5 0.9
-2 1 11 8.3 1.8
-2 1 11 11.4 1.7
2 1 -11 9 1.3
2 -1 -11 6.1 1
2 -1 -11 8.7 2.1
-2 -1 11 8 0.8
2 1 11 9.9 1.4
2 -1 -11 8.2 1.1
-2 -1 11 9.4 1
2 1 11 9.3 2.2
-2 1 -11 8.5 1.1
2 1 11 9.3 1.3
2 -1 -11 9 2.2
3 -1 11 101.89 3.5
-3 -1 -11 105.49 2.6
-3 -1 -11 99.89 3.3
3 1 -11 101.59 3.6
-3 1 11 98.49 2.8
-3 1 11 100.29 2.9
3 1 -11 104.49 3.1
3 -1 -11 101.89 3.1
3 1 11 101.89 2.7
-3 -1 11 98.39 2.8
-3 -1 11 100.79 3
3 1 11 101.89 3.4
-3 1 -11 105.09 3.2
3 -1 -11 101.79 3.5
-4 1 11 359.86 7.2
4 -1 11 367.96 8.2
4 1 -11 368.96 8.5
4 1 -11 357.06 7.5
-4 1 11 370.56 7.6
-4 1 -11 368.16 6.9
-4 1 -11 363.16 7.7
-4 -1 11 365.96 7.4
-4 -1 11 372.76 7.4
4 -1 -11 376.06 7.5
4 -1 -11 362.06 8.4
-5 1 11 36.9 2
5 1 -11 34.4 3
5 -1 11 36.5 2
5 1 -11 39.3 2.5
5 -1 11 37.4 2.7
-5 1 11 37 2.3
-5 -1 11 35.6 2.2
5 -1 -11 38.8 2.9
5 -1 -11 40 3.5
-5 -1 11 34.8 2.1
-5 1 -11 35.4 2.1
-5 1 -11 36.1 2.6
6 -1 11 9.7 1.9
6 1 -11 8.4 1.7
6 -1 11 7.6 1.4
-6 1 11 9.6 1.3
6 1 -11 9.6 2.3
-6 1 11 8.9 1.6
6 -1 -11 7.1 2.3
-6 -1 11 9.4 1.4
-6 1 -11 8.4 1.4
-6 1 -11 8.1 1.8
-6 -1 11 10.1 1.7
6 -1 -11 7.8 2.1
7 1 -11 41.3 3.2
7 -1 11 35.5 2.4
7 1 -11 32.5 3.8
7 -1 11 36.5 3.4
-7 1 11 31.9 2.7
-7 1 11 29 2.4
-7 -1 11 34.5 2.7
-7 1 -11 33.9 2.6
7 -1 -11 34.9 3.6
-7 1 -11 32.8 3.2
-7 -1 11 33.6 2.5
7 -1 -11 30.8 4.1
8 -1 11 19.6 2.7
8 -1 11 14.3 1.9
-8 1 -11 12.6 2
-8 1 -11 15.9 2.7
0 2 -11 20 1.5
0 -2 11 19.9 1.7
0 -2 11 21.6 1
0 2 -11 19.8 1.4
1 2 -11 86.19 3
-1 2 11 85.89 3.5
1 -2 11 83.69 3
1 2 -11 85.19 2.5
1 -2 11 83.69 2.2
-1 2 11 80.99 3.1
1 -2 -11 83.09 4.1
-1 2 -11 83.79 2.6
-1 2 -11 85.79 2.9
-1 -2 11 83.69 2.8
1 -2 -11 81.19 3.7
-1 -2 11 81.59 2.2
-2 2 11 131.49 4.8
2 2 -11 129.89 3.4
2 -2 11 133.19 4
-2 2 11 134.89 3
2 2 -11 137.59 4.3
-2 2 11 135.89 3.1
-2 2 11 133.99 5.5
2 -2 11 127.89 3
-2 2 -11 135.99 3.6
2 -2 -11 130.59 5.7
-2 -2 11 133.39 3.2
-2 -2 11 132.29 3.6
2 -2 -11 132.49 5.4
2 -2 -11 126.79 3.1
2 -2 -11 143.79 3.6
3 2 -11 29.6 2.2
3 2 -11 30.7 1.8
-3 2 11 29.4 1.4
-3 2 11 27 1.5
3 -2 11 31.8 2.2
3 -2 -11 30.3 2.3
-3 -2 11 29.6 1.6
-3 2 -11 30.2 1.8
3 -2 -11 27.8 1.9
-3 -2 11 29.6 1.6
-4 2 11 9.7 1.2
4 2 -11 9.8 1.6
4 2 -11 7.2 1.3
-4 2 11 12.7 1.1
4 -2 11 11.3 2
4 -2 -11 11.9 2
-4 2 -11 10.4 1.5
-4 -2 11 11.1 1.3
-4 -2 11 9.5 1.2
4 -2 -11 11.7 1.6
-4 2 -11 12.2 1.3
5 -2 11 13.4 2
-5 2 11 13.6 1.3
5 2 -11 13.1 1.7
5 -2 11 12.8 1.4
5 2 -11 11 2.1
-5 2 11 10.3 1.5
-5 -2 11 12.6 1.7
-5 2 -11 13.6 1.9
5 -2 -11 11.5 2.4
-5 2 -11 12.4 1.4
5 -2 -11 11.2 1.9
-5 -2 11 14.7 1.5
-6 2 11 18.9 1.7
6 -2 11 24.2 2.5
-6 2 11 24.1 2.1
6 2 -11 21.2 2.3
6 -2 11 22.9 1.8
6 2 -11 22.4 3
6 -2 -11 21.2 3.1
-6 2 -11 19.9 2.1
-6 -2 11 16.6 1.8
-6 -2 11 22.4 2
6 -2 -11 22.6 2.5
-6 2 -11 18.9 2.3
7 -2 11 32.9 2.5
-7 2 11 32.4 2.7
-7 2 11 30.7 2.4
7 -2 11 37.8 3.3
7 2 -11 34 3
7 2 -11 35.9 4.2
-7 2 -11 32.6 3.2
-7 -2 11 33.7 2.6
-7 2 -11 32.5 2.6
7 -2 -11 35.1 3.5
-7 -2 11 36.8 2.7
7 -2 -11 28.4 3.8
0 3 -11 6.1 1
0 -3 11 6.9 0.8
0 3 -11 4.9 0.9
0 -3 11 6.6 1
1 -3 11 243.28 4.7
1 -3 11 240.78 5.8
1 3 -11 247.38 5.9
1 3 -11 232.58 5.2
-1 -3 11 239.38 4.7
-1 3 -11 240.88 5.6
-1 3 -11 249.97 5.4
-1 -3 11 248.28 5.6
2 -3 11 59.79 1.9
2 3 -11 57.99 2.2
2 3 -11 56.39 2.9
2 -3 11 62.19 2.9
-2 -3 11 60.29 2.5
-2 -3 11 57.29 2
-2 3 -11 60.19 2.5
3 -3 11 36 2.5
-3 3 11 38 1.5
-3 3 11 35.5 1.7
3 3 -11 35.3 1.9
3 3 -11 35.7 2.4
3 -3 -11 38.4 2.1
-3 -3 11 33.8 1.9
-3 -3 11 36.5 1.8
-3 3 -11 34.7 1.9
3 -3 -11 40 2.6
4 3 -11 124.69 4.7
-4 3 11 123.69 3.7
4 -3 11 118.59 4.6
-4 3 11 117.79 3.3
4 3 -11 121.29 4
-4 3 -11 120.19 4.1
-4 -3 11 114.59 3.8
4 -3 -11 111.89 4.6
-4 -3 11 117.99 3.7
4 -3 -11 117.29 3.8
5 3 -11 11.3 1.6
5 -3 11 12.3 2.2
-5 3 11 12.7 1.3
-5 3 11 11.8 1.7
5 3 -11 12 2
5 -3 11 15.2 1.5
5 -3 -11 13.4 2
5 -3 -11 12.3 2.6
-5 -3 11 15.1 1.7
-5 3 -11 13.5 1.9
-5 -3 11 12 1.5
6 -3 11 22.5 3.1
6 3 -11 26.4 2.5
6 -3 11 25.2 2.4
-6 3 11 29.6 2
6 3 -11 28.4 3.3
-6 3 11 28.1 2.3
-6 -3 11 27.1 2.3
-6 3 -11 26.1 2.7
6 -3 -11 25.4 3.4
-6 -3 11 27.4 2.3
-6 3 -11 23.9 2.2
6 -3 -11 26.7 2.8
-7 3 11 12.9 1.6
7 3 -11 10.3 2.6
7 3 -11 15 2.4
7 -3 11 8.1 2.5
-7 3 11 15.1 2.2
7 -3 11 12.4 2
-7 3 -11 9.4 1.8
7 -3 -11 13.8 2.4
7 -3 -11 10.3 3.2
-7 -3 11 13.3 2.2
-7 3 -11 9.7 2.1
-7 -3 11 11.3 2.1
0 -4 11 62.59 3
0 -4 11 64.29 2
0 4 -11 62.09 2.7
0 4 -11 62.79 2.6
1 4 -11 53.99 2.4
1 -4 11 53.49 1.8
1 4 -11 52.69 2.6
1 -4 11 50.49 2.6
-1 -4 11 51.99 1.8
-1 4 -11 56.49 2.6
-1 4 -11 51.19 2.3
-1 -4 11 56.69 2.6
2 -4 11 131.79 3.3
2 4 -11 125.29 4.5
2 4 -11 129.89 3.8
2 -4 11 133.19 4.4
-2 -4 11 132.39 3.3
-2 4 -11 130.19 3.9
-2 -4 11 132.69 3.9
3 4 -11 12.7 1.5
3 4 -11 9.6 2
3 -4 11 10 1.7
-3 -4 11 13 1.4
-3 -4 11 10.4 1.5
-3 4 -11 9.7 1.4
4 -4 11 20.8 2.5
4 4 -11 23.1 2.3
4 4 -11 14.1 1.6
-4 4 -11 18.1 1.8
-4 -4 11 18.4 2
-4 -4 11 16.8 1.7
5 4 -11 24 2
-5 4 11 22.4 1.9
5 -4 11 19 2.8
5 4 -11 23.5 2.6
-5 4 11 24.1 1.6
-5 -4 11 26.4 2.3
5 -4 -11 19.6 2.7
5 -4 -11 24.2 2.5
-5 4 -11 20.9 2.3
-5 -4 11 23.2 2
6 -4 11 30.9 2.6
6 -4 11 26.4 3.7
-6 4 11 31.8 2
6 4 -11 31.4 3.5
6 4 -11 32.8 2.7
-6 4 11 30.3 2.4
6 -4 -11 29.7 3.6
-6 -4 11 27.6 2.8
-6 -4 11 30.3 2.7
-6 4 -11 33.1 3
6 -4 -11 29.3 3
7 4 -11 40.7 4.2
7 -4 11 33.3 4.4
-7 4 11 41.2 2.9
-7 4 11 43.3 2.5
7 -4 11 42.3 3
7 4 -11 42.3 3.2
7 -4 -11 37.5 3.6
-7 -4 11 39.1 3.2
7 -4 -11 40.5 4.3
-7 -4 11 40.3 3.3
-7 4 -11 37.3 3.5
0 -5 11 0.7 0.6
0 5 -11 0 0.6
0 5 -11 -0.1 0.7
0 -5 11 0 0.9
1 -5 11 24.8 2.3
1 5 -11 22.6 1.8
1 -5 11 23.7 1.4
1 5 -11 23.6 2
-1 -5 11 24.3 1.5
-1 5 -11 25.3 1.9
-1 5 -11 23.9 1.9
-1 -5 11 27 2.2
2 5 -11 25.7 1.9
2 -5 11 26.7 1.5
2 -5 11 25.2 2.5
-2 -5 11 23.8 1.6
-2 5 -11 27.3 1.9
-2 -5 11 26 2.2
-2 5 -11 27.6 2.3
3 5 -11 23.8 2.5
3 -5 11 22 2.7
3 5 -11 18.5 1.9
-3 5 -11 22.7 2.1
-3 -5 11 21.1 2.2
-3 -5 11 21 1.6
4 5 -11 50.89 3.3
4 5 -11 47.7 2.6
4 -5 11 52.09 3.9
-4 5 -11 54.39 3.1
-4 -5 11 46.8 2.7
-4 -5 11 47 2.9
5 5 -11 1.2 1
5 -5 11 2.3 1.7
5 5 -11 1.9 1.3
-5 -5 11 0.7 1.2
-5 -5 11 1.4 1.4
-5 5 -11 0.8 1
6 5 -11 38.6 3.6
6 -5 11 34 3.9
6 5 -11 36.2 3.1
6 -5 11 41.3 3.1
-6 -5 11 37.8 3.1
-6 5 -11 42.6 3.4
-6 -5 11 41.2 3.4
7 -5 11 9.2 3.1
7 5 -11 8.6 2.2
7 5 -11 15 3.1
7 -5 11 15.7 2.2
-7 -5 11 10.3 2.2
-7 5 -11 15.2 2.4
-7 -5 11 13.3 2.4
0 6 -11 2.9 1.3
0 -6 11 -1.4 1.7
0 -6 11 0.8 0.9
0 6 -11 0.3 0.8
1 -6 11 105.49 3.2
1 -6 11 105.69 4.6
1 6 -11 103.59 3.9
1 6 -11 114.29 4.6
-1 6 -11 107.69 3.9
-1 -6 11 109.99 3.2
-1 -6 11 96.89 4.3
-1 6 -11 102.79 4.2
2 6 -11 82.89 3.4
2 6 -11 80.19 4.1
2 -6 11 85.49 3
2 -6 11 78.79 4.4
-2 6 -11 82.39 3.5
-2 -6 11 77.99 2.8
-2 -6 11 84.69 3.9
-2 6 -11 82.59 3.7
3 -6 11 35.5 3.6
3 6 -11 36.4 2.4
3 6 -11 32 2.9
-3 -6 11 31.8 3
-3 -6 11 31.6 2.2
-3 6 -11 30.3 2.3
4 -6 11 15.9 2.8
4 6 -11 19.4 2
4 6 -11 19.3 2.6
-4 -6 11 16.3 1.8
-4 -6 11 16.5 2.2
-4 6 -11 20.6 2.4
5 6 -11 21.5 2.8
5 -6 11 21.1 3.5
5 6 -11 23.3 2.2
-5 6 -11 21.1 2.6
-5 -6 11 18.5 2.1
-5 -6 11 21.3 2.6
6 -6 11 8.8 1.9
6 6 -11 5.8 1.7
6 6 -11 10.4 2.3
6 -6 11 6.6 2.9
-6 6 -11 9.6 2.1
-6 -6 11 10.9 2.1
-6 -6 11 7 2.4
0 -7 11 1.8 1.2
0 7 -11 0.5 1
0 7 -11 1.6 0.9
0 -7 11 -0.8 2
1 -7 11 17.8 3
1 -7 11 20.1 2.1
1 7 -11 22.3 2.4
1 7 -11 18.8 2.1
-1 -7 11 19.2 1.9
-1 7 -11 18.5 2
-1 7 -11 17.9 2.4
-1 -7 11 20.7 2.9
2 -7 11 19.9 3
2 -7 11 16 1.8
2 7 -11 20.3 2.2
2 7 -11 18.3 2.6
-2 7 -11 18.9 2.1
-2 -7 11 14.7 2.4
-2 7 -11 17.9 2.2
-2 -7 11 20.7 2.1
3 7 -11 35.8 3.2
3 7 -11 35.3 2.5
3 -7 11 33.4 3.7
-3 -7 11 37.3 2.4
-3 7 -11 38.6 2.7
-3 -7 11 34.6 3.2
-3 7 -11 35.8 2.9
4 7 -11 3.7 1.7
4 -7 11 7 2.7
4 7 -11 7.9 1.5
-4 -7 11 7.3 1.8
-4 7 -11 7.5 1.7
-4 -7 11 7.5 1.5
5 7 -11 39.2 3.4
5 -7 11 29.6 3.9
5 7 -11 37.4 2.9
-5 -7 11 32.8 3.5
-5 7 -11 41.3 3.2
-5 -7 11 36.6 2.9
6 -7 11 50.29 3.7
6 -7 11 44.6 5
6 7 -11 51.69 4
6 7 -11 51.79 3.4
-6 -7 11 52.29 3.4
-6 -7 11 36.3 3.8
-6 7 -11 47 3.7
0 -8 11 3.8 1.4
0 8 -11 4.1 1.3
0 -8 11 4.4 2.5
0 8 -11 4.6 1.4
1 8 -11 31.3 2.8
1 -8 11 23.9 3.4
1 -8 11 29.9 2.3
1 8 -11 29.2 2.7
-1 -8 11 30 2.3
-1 8 -11 31.8 2.5
-1 -8 11 28.7 3.3
-1 8 -11 26.3 2.6
2 8 -11 17.6 2.3
2 -8 11 17.4 2
2 -8 11 16 3.2
2 8 -11 16.9 2.7
-2 8 -11 18.7 2.1
-2 -8 11 16.7 2.6
-2 8 -11 19.1 2.4
-2 -8 11 19.4 2.1
3 -8 11 9.5 2.9
3 8 -11 9.5 2.1
3 8 -11 9.4 1.8
-3 -8 11 10 2.4
-3 -8 11 10.7 1.8
-3 8 -11 10.7 2.1
-3 8 -11 13 2
4 -8 11 79.49 5.7
4 8 -11 72.99 3.9
4 8 -11 70.89 4.6
-4 -8 11 78.29 4.2
-4 -8 11 76.49 3.3
-4 8 -11 75.59 4.1
-4 8 -11 72.39 4.3
5 8 -11 11.9 2.4
5 -8 11 13.1 3.2
5 8 -11 17 2.8
-5 -8 11 12 2.9
-5 -8 11 16.4 4.2
-5 8 -11 14 2.3
0 9 -11 15.1 2.2
0 9 -11 18.6 2.3
0 -9 11 12.8 3
0 -9 11 16.6 1.9
1 -9 11 1.2 2.7
1 -9 11 1.4 1.4
1 9 -11 -1.1 1.4
1 9 -11 0.5 1.3
-1 9 -11 1 1.1
-1 -9 11 2.4 2.1
-1 -9 11 1.2 1.5
-1 9 -11 0.7 1.1
2 -9 11 2.7 1.6
2 9 -11 2.1 1.8
2 -9 11 3.1 2.8
2 9 -11 3.4 1.5
-2 -9 11 3.5 1.3
-2 -9 11 1.6 2.4
-2 9 -11 3.4 1.4
-2 9 -11 3.4 1.7
3 -9 11 94.89 6.2
-3 9 -11 97.69 4.9
-3 9 -11 96.99 4.6
4 -9 11 11.5 3.3
-4 9 -11 7.6 2.1
-4 9 -11 4.8 1.6
1 -10 11 12.4 3.6
1 -10 11 14.2 1.9
-1 10 -11 10.7 2
-1 10 -11 9.7 2
2 -10 11 8.6 3
-2 10 -11 3.4 1.4
-2 10 -11 -0.4 1.2
3 -10 11 13 3.6
-3 10 -11 13.3 2.2
-3 10 -11 13.1 2.6
0 0 -12 12.3 2.1
0 0 -12 8.2 1.5
0 0 12 4.9 1.1
0 0 12 8.2 1.6
-1 0 12 62.99 3.5
1 0 12 55.89 2.2
1 0 -12 61.79 2
1 0 12 60.49 1.6
1 0 -12 60.99 3.8
1 0 -12 64.49 2.5
-1 0 -12 62.69 2.1
1 0 12 65.09 4.1
-1 0 -12 64.19 2.1
-1 0 12 55.79 2
-1 0 -12 63.29 3.9
-1 0 -12 59.19 3
1 0 -12 61.29 4.2
-1 0 12 60.79 1.7
-1 0 12 50.29 3.4
-2 0 12 1.5 0.5
-2 0 12 1.2 0.5
-2 0 -12 0.6 0.9
-2 0 -12 2.2 1.4
2 0 12 2.5 1.7
2 0 -12 3.9 0.9
2 0 12 1.6 0.8
2 0 -12 1.7 0.9
2 0 12 1.5 0.4
2 0 12 1.6 0.8
-2 0 -12 3.3 0.7
3 0 -12 706.93 12.8
-3 0 12 704.93 11.7
-3 0 -12 697.73 11.9
-3 0 12 707.03 11.8
3 0 12 716.03 12.4
3 0 -12 703.13 12
4 0 -12 27.9 2.8
-4 0 12 27.1 1.8
-4 0 12 28.2 1.8
4 0 -12 29.6 2.4
4 0 12 35.9 2.4
-4 0 -12 29.9 1.8
-4 0 -12 30.9 2.2
4 0 12 27.6 1.5
5 0 -12 9.3 1.8
5 0 12 8.3 1.5
5 0 12 10.7 1.2
-5 0 -12 9.4 1.4
5 0 -12 7.8 2.2
-5 0 12 8.1 1.3
-5 0 12 8.3 1.3
-5 0 -12 9 1.7
-6 0 12 8.8 1.4
6 0 -12 6.6 2.5
-6 0 12 5.8 1.3
6 0 -12 6.5 1.8
7 0 -12 -0.8 1.7
-7 0 12 3.9 1
7 0 -12 2.8 2.5
-7 0 12 1.7 1.2
0 1 -12 76.29 4.7
0 1 12 71.79 3
0 -1 12 77.89 4.3
0 1 -12 74.49 4
0 -1 12 80.29 2.7
0 1 -12 81.29 2.5
0 1 12 78.69 3.3
0 -1 -12 73.99 3.5
0 -1 12 74.39 1.9
0 1 -12 72.69 2.3
0 -1 12 81.39 3.8
0 -1 -12 72.99 4
1 1 -12 120.29 3.1
1 1 -12 120.19 3.7
-1 -1 -12 115.79 4
1 -1 12 113.49 5.9
1 -1 12 118.49 2.6
-1 1 12 116.69 2.6
-1 1 12 123.19 2.7
-1 1 12 118.59 4.3
1 -1 12 119.69 3.4
1 -1 12 121.49 4.6
-1 1 12 116.89 4.6
-1 -1 -12 119.59 4.8
1 -1 -12 118.39 3.2
-1 -1 12 119.19 2.8
1 -1 -12 119.99 5
-1 1 -12 117.99 3.1
-1 1 -12 120.49 5.8
1 1 12 120.39 4.8
-1 -1 12 120.89 3.2
-1 1 -12 117.69 4.7
1 -1 -12 122.89 5.4
-1 1 -12 115.29 3.3
1 -1 -12 115.99 2.8
2 1 -12 11.5 1.2
2 -1 12 13.7 1.5
2 1 -12 8.7 1.3
-2 1 12 9.3 0.9
-2 1 12 8.3 0.8
2 -1 12 8.8 0.7
-2 1 -12 12.3 1.2
2 -1 -12 9.7 1.2
2 -1 -12 11.4 1.3
-2 -1 12 9.6 1.1
-2 -1 12 11 0.9
-3 1 12 52.49 2
3 1 -12 54.79 2.4
3 1 -12 48.9 2.6
3 -1 12 50.69 2.5
-3 1 12 51.79 2
-3 -1 12 49.7 2
3 -1 -12 54.89 2.8
3 -1 -12 49.1 2.3
-3 1 -12 52.59 2.3
-3 -1 12 48.3 2.1
4 1 -12 243.08 6.7
4 1 -12 237.38 5.8
-4 1 12 235.48 5.6
-4 1 12 235.18 5.3
4 -1 12 238.08 6.4
-4 -1 12 237.48 5.4
-4 1 -12 248.38 6
4 -1 -12 243.48 6.6
-4 1 -12 245.98 5.1
4 -1 -12 242.78 5.7
-4 -1 12 238.18 5.5
5 1 -12 41.4 3.4
-5 1 12 39.1 2.1
5 -1 12 37.1 2.1
-5 1 12 39 2.4
5 1 -12 40.4 2.7
5 -1 12 43.9 2.9
5 -1 -12 38.2 3.6
-5 1 -12 41.7 2.2
5 -1 -12 44.1 3.1
-5 -1 12 42.4 2.3
-5 -1 12 39.4 2.3
-5 1 -12 39.8 2.8
6 1 -12 27.1 3.3
-6 1 12 28.2 2.3
6 -1 12 25.6 2
-6 1 12 24.9 2
6 -1 12 28.1 2.6
6 1 -12 29.3 2.7
6 -1 -12 26.9 3
6 -1 -12 29.9 3.6
-6 1 -12 30.4 2.9
-6 -1 12 26.5 2.2
-6 1 -12 27.5 2.2
-6 -1 12 27.9 2.1
7 1 -12 18.6 3.3
7 1 -12 19.7 2.6
7 -1 12 25.3 2.6
-7 1 12 21.7 2.4
7 -1 12 21 1.9
-7 1 12 19.8 2.2
-7 1 -12 18 2.1
-7 1 -12 17.3 2.5
-7 -1 12 20.3 2.3
-7 -1 12 21.7 2.4
7 -1 -12 16.7 3.4
7 -1 -12 18.8 2.7
0 2 -12 0.3 0.6
0 -2 12 0.8 0.9
0 2 -12 -0.2 0.7
0 -2 12 0.5 0.4
1 2 -12 205.98 4.6
1 -2 12 201.48 5
1 -2 12 198.78 4
1 2 -12 203.28 5.1
-1 -2 12 207.58 4.1
-1 -2 12 208.98 4.8
-1 2 -12 204.98 4.6
-1 2 -12 209.28 5
2 2 -12 17.6 1.9
2 -2 12 19.8 1.8
-2 2 12 18 1
-2 2 12 19.3 1.1
2 -2 12 16.8 1
2 2 -12 17.1 1.3
-2 2 -12 18.1 1.4
2 -2 -12 22.9 1.8
-2 -2 12 17.8 1.5
-2 -2 12 15.1 1.1
2 -2 -12 15.6 1.4
-3 2 12 149.29 3.5
-3 2 12 146.09 3.7
3 2 -12 145.39 4.8
3 -2 12 153.28 4.6
3 2 -12 148.09 4
3 -2 -12 152.98 4.5
3 -2 -12 148.19 3.9
-3 -2 12 150.28 4
-3 -2 12 148.99 3.8
-3 2 -12 153.58 4.2
-4 2 12 125.39 3.8
-4 2 12 124.09 3.5
4 2 -12 128.29 4
4 2 -12 128.59 4.7
4 -2 12 118.29 4.6
-4 2 -12 121.39 4.1
-4 -2 12 123.19 3.7
4 -2 -12 129.19 4.8
-4 -2 12 126.59 3.8
4 -2 -12 127.69 4
5 -2 12 2.4 1.5
5 2 -12 4.5 1.4
-5 2 12 2.3 1
5 2 -12 4.3 1.7
5 -2 12 2.9 0.9
-5 2 12 3.9 1
-5 2 -12 4 1.5
5 -2 -12 4.2 1.6
-5 2 -12 4.8 1.3
5 -2 -12 4.8 2.3
-5 -2 12 2.7 1
-5 -2 12 3.7 1
6 -2 12 8.4 2
6 -2 12 10 1.4
6 2 -12 9.7 1.7
-6 2 12 11.6 1.5
6 2 -12 8.6 2.2
-6 2 12 13.3 1.9
-6 -2 12 9.5 1.6
-6 2 -12 11.9 1.7
-6 -2 12 13.1 1.7
-6 2 -12 14.2 2.3
6 -2 -12 12.1 2.8
6 -2 -12 11.6 2.2
-7 2 12 1.5 1.2
7 -2 12 -2 1.7
7 -2 12 -0.6 1
7 2 -12 1.2 2.2
-7 2 12 2.6 1.1
7 2 -12 0.6 1.5
7 -2 -12 1.5 2.6
7 -2 -12 0.8 2
-7 2 -12 -0.5 1.3
-7 2 -12 0.2 1.7
-7 -2 12 0.3 1.3
0 3 -12 21.4 1.7
0 -3 12 18.7 1.1
0 3 -12 20.9 1.6
0 -3 12 22.3 1.8
1 -3 12 359.86 6.5
1 -3 12 364.86 7.9
1 3 -12 376.26 7.3
-1 -3 12 365.56 7.5
-1 -3 12 366.66 6.6
-1 3 -12 363.46 7.3
-1 3 -12 377.06 7.8
2 3 -12 7.5 1.1
2 3 -12 7.9 1.5
2 -3 12 6.6 1.3
2 -3 12 7.5 0.8
-2 -3 12 5.5 1.1
-2 -3 12 7.7 0.9
-2 3 -12 6.5 1.1
3 -3 12 40.8 2.5
3 3 -12 37.5 2.1
3 3 -12 36.1 2.5
-3 -3 12 40.3 1.9
-3 3 -12 40.3 2.2
-3 -3 12 38 2.1
-4 3 12 49.5 2.3
4 -3 12 50.19 3.1
4 3 -12 53.59 3.2
-4 3 12 50.79 2.1
4 3 -12 52.39 2.7
4 -3 -12 53.09 3.4
-4 3 -12 49.4 2.7
-4 -3 12 51.39 2.5
-4 -3 12 52.79 2.4
4 -3 -12 53.49 2.7
5 -3 12 23.2 2.9
5 -3 12 28.4 1.8
-5 3 12 21.6 1.7
5 3 -12 25.9 2.9
5 3 -12 24.5 2.3
-5 3 12 25.4 2
-5 -3 12 29.1 2.2
5 -3 -12 25.7 3
-5 -3 12 25.9 2.1
5 -3 -12 27.1 2.6
-5 3 -12 22.8 2.4
6 -3 12 39.9 3.8
6 3 -12 48.3 3.8
-6 3 12 45 2.8
-6 3 12 45.5 2.5
6 3 -12 42.7 3.1
6 -3 12 48 2.8
6 -3 -12 42.7 3.2
-6 3 -12 47.3 3.4
-6 -3 12 47.5 3
6 -3 -12 38.7 4.1
-6 -3 12 44.1 2.9
7 3 -12 11.6 2.7
-7 3 12 11.4 1.9
7 -3 12 6.9 1.7
7 -3 12 7 2.5
7 3 -12 9.8 2.2
-7 3 12 11.4 1.6
-7 -3 12 9 1.8
7 -3 -12 10.9 3
-7 -3 12 7.5 1.8
-7 3 -12 8.8 2.2
7 -3 -12 9 2.3
0 4 -12 2.9 0.8
0 4 -12 2.2 0.8
0 -4 12 2 0.5
0 -4 12 3 1
1 -4 12 97.89 2.7
1 -4 12 97.89 3.7
1 4 -12 96.09 3.2
1 4 -12 91.19 3.6
-1 4 -12 100.29 3.6
-1 4 -12 97.59 3.3
-1 -4 12 93.79 2.6
-1 -4 12 100.39 3.5
2 -4 12 25.4 1.4
2 4 -12 23.3 2.2
2 4 -12 25.3 1.7
2 -4 12 25 2.1
-2 4 -12 23.2 1.9
-2 4 -12 24.5 1.8
-2 -4 12 24.7 1.8
-2 -4 12 23 1.4
3 4 -12 39.5 2.8
3 4 -12 43 2.3
3 -4 12 44.9 3.1
-3 -4 12 42.2 2
-3 4 -12 46.9 2.5
-3 -4 12 46.4 2.5
4 4 -12 5.9 1.3
4 4 -12 7.1 1.6
4 -4 12 5.8 1.7
-4 -4 12 6.8 1.4
-4 4 -12 5.8 1.3
-4 -4 12 6 1.2
5 4 -12 0 0.9
5 -4 12 0.3 1.6
5 4 -12 2.7 1.4
-5 -4 12 1.9 1
-5 4 -12 2.9 1.3
-5 -4 12 2 1.3
6 4 -12 24.8 2.4
6 4 -12 21.7 3.1
6 -4 12 17.2 3.1
6 -4 12 19.3 2.2
-6 -4 12 24.2 2.5
-6 4 -12 21.5 2.6
-6 -4 12 21.8 2.5
6 -4 -12 21.3 3.8
7 4 -12 12.2 3
-7 4 12 18.6 2.5
7 -4 12 13.5 3.3
7 -4 12 22.3 2.1
-7 4 12 19.6 1.9
7 4 -12 15.7 2.2
-7 -4 12 16.2 2.3
7 -4 -12 14.3 2.5
-7 4 -12 15.5 2.6
-7 -4 12 17.1 2.3
7 -4 -12 13.2 3.7
0 5 -12 142.59 4.2
0 -5 12 133.79 4.7
0 5 -12 135.29 4.4
0 -5 12 138.79 3.4
1 -5 12 179.08 4.1
1 -5 12 174.78 5.4
1 5 -12 178.78 4.9
1 5 -12 173.38 5.4
-1 -5 12 173.38 5.1
-1 -5 12 176.98 4.1
-1 5 -12 178.18 5.3
-1 5 -12 178.18 4.9
2 5 -12 51.69 2.7
2 5 -12 49.6 3.3
2 -5 12 51.99 3.3
2 -5 12 55.39 2.2
-2 -5 12 54.59 2.2
-2 5 -12 54.79 3
-2 5 -12 48.3 2.5
-2 -5 12 50.09 2.8
3 -5 12 23.8 2.6
3 5 -12 29.8 2
3 -5 12 33.1 1.9
3 5 -12 31.3 2.6
-3 -5 12 27.2 2.4
-3 5 -12 30.8 2.1
-3 -5 12 31.3 1.9
4 -5 12 44.5 3.8
4 5 -12 40.8 2.6
4 5 -12 39.5 3.1
-4 -5 12 39.9 2.7
-4 5 -12 42.6 2.8
-4 -5 12 38.3 2.5
5 5 -12 29.4 2.9
5 5 -12 25.8 2.2
5 -5 12 25.7 3.2
-5 -5 12 29.1 2.6
-5 5 -12 25.9 2.5
-5 -5 12 24.8 2.6
6 -5 12 7.1 1.6
6 -5 12 5.9 2.2
6 5 -12 9.7 1.8
6 5 -12 9.3 2.3
-6 -5 12 7 1.8
-6 5 -12 7.8 2
-6 -5 12 5.2 2
7 5 -12 0.9 2
-7 -5 12 2.5 2.7
0 6 -12 12.3 1.7
0 -6 12 8.9 1.3
0 6 -12 10.4 1.7
0 -6 12 13.8 2.4
1 -6 12 39.5 2.1
1 6 -12 40.5 2.8
1 6 -12 41.2 2.8
1 -6 12 36.7 3.6
-1 -6 12 32.9 3.3
-1 -6 12 41.1 2.2
-1 6 -12 37.7 2.7
-1 6 -12 34.8 2.4
2 6 -12 57.69 2.9
2 -6 12 57.99 2.6
2 -6 12 53.09 3.6
2 6 -12 55.79 3.5
-2 -6 12 61.29 3.3
-2 6 -12 52.79 3
-2 -6 12 51.59 2.4
-2 6 -12 55.39 2.9
3 -6 12 17.2 2.8
3 6 -12 19.9 2
3 6 -12 22.4 2.8
-3 -6 12 14.5 2.1
-3 6 -12 20.9 2.5
-3 6 -12 18.4 1.9
-3 -6 12 20.5 2
4 6 -12 2.7 1.5
4 -6 12 1.8 2.2
4 6 -12 1.8 1
-4 6 -12 2 1.2
-4 -6 12 4.2 1.7
-4 -6 12 2.4 1.2
5 6 -12 4.5 1.5
5 6 -12 6.1 1.9
5 -6 12 3.9 2.5
-5 6 -12 5.9 1.6
-5 -6 12 6.1 1.7
-5 -6 12 7.7 2
6 6 -12 26.6 3.4
6 -6 12 34.3 3.1
6 6 -12 29.6 2.7
6 -6 12 23.2 4
-6 6 -12 25.6 3.1
-6 -6 12 26.8 3.1
-6 -6 12 29 2.9
0 7 -12 66.89 3.3
0 -7 12 64.49 2.9
0 7 -12 74.59 3.5
0 -7 12 69.09 4.6
1 -7 12 84.89 5
1 -7 12 92.99 3.4
1 7 -12 96.99 4.4
1 7 -12 94.29 4
-1 7 -12 91.69 4.2
-1 -7 12 98.49 3.4
-1 -7 12 93.49 4.7
-1 7 -12 98.09 4
2 -7 12 10.9 1.5
2 7 -12 11.3 1.8
2 7 -12 14.3 2.5
2 -7 12 11.3 2.5
-2 -7 12 9.7 2.2
-2 -7 12 10.6 1.5
-2 7 -12 10.1 1.7
-2 7 -12 10.7 1.8
3 -7 12 41.5 4.4
3 7 -12 39.3 2.7
3 7 -12 44 3.4
-3 7 -12 43.9 2.9
-3 7 -12 44.4 3.2
-3 -7 12 42.7 3.5
-3 -7 12 43.9 2.5
4 7 -12 21.9 2.2
4 -7 12 18.5 3.2
4 7 -12 22 3.1
-4 -7 12 18.1 2.4
-4 -7 12 22.3 2.3
-4 7 -12 18.1 2.3
5 7 -12 15.4 2.2
5 7 -12 14.2 2.6
5 -7 12 10.5 3.2
-5 -7 12 12.5 2.3
-5 7 -12 10.9 2.1
-5 -7 12 11.8 1.8
6 7 -12 9.8 2
6 7 -12 8.9 2.2
-6 7 -12 9.1 3.5
-6 -7 12 8.1 2
-6 -7 12 7.2 2.4
0 8 -12 2.4 1.3
0 8 -12 3.4 1.2
0 -8 12 1.7 1.2
0 -8 12 4.8 2.5
1 -8 12 29.6 2.3
1 -8 12 25.5 3.6
1 8 -12 24.6 2.7
1 8 -12 25.2 2.7
-1 8 -12 28.9 2.5
-1 -8 12 27.7 2.3
-1 -8 12 28.6 3.3
-1 8 -12 24.4 2.6
2 -8 12 28.3 3.7
2 -8 12 28.4 2.6
2 8 -12 24.9 3.1
2 8 -12 28.3 2.7
-2 -8 12 28 2.4
-2 8 -12 27 2.7
-2 8 -12 29.8 2.5
-2 -8 12 24.4 2.9
3 8 -12 20.1 2.4
3 -8 12 24.8 3.9
3 8 -12 26.3 3.3
-3 8 -12 21.3 2.8
-3 -8 12 20.1 2.8
-3 -8 12 28.3 2.4
-3 8 -12 24 2.4
4 8 -12 119.29 4.9
4 8 -12 119.29 5.8
4 -8 12 113.89 6.6
-4 -8 12 122.39 4.2
-4 -8 12 118.79 5.1
-4 8 -12 112.79 5.4
-4 8 -12 123.09 5.2
5 8 -12 37 3.2
5 8 -12 41 3.7
5 -8 12 34.6 4.3
-5 -8 12 44.6 3.3
-5 8 -12 40.5 3.7
-5 -8 12 45.2 3.7
-5 8 -12 42.8 3.5
0 -9 12 44.2 2.9
0 9 -12 49.5 3.5
0 9 -12 47.6 3.2
0 -9 12 43.2 4.5
1 9 -12 45.3 3.9
1 -9 12 48.7 5.1
1 -9 12 49.9 3
1 9 -12 51.79 3.5
-1 -9 12 49 4.2
-1 9 -12 52.49 3.6
-1 9 -12 51.19 3.3
-1 -9 12 51.79 3.1
2 -9 12 0.5 1.5
2 -9 12 0.3 2.7
2 9 -12 1.9 1.4
2 9 -12 1.5 1.9
-2 -9 12 -1.6 2.3
-2 9 -12 -0.1 1.2
-2 -9 12 1.5 1.3
-2 9 -12 0.8 1.3
3 -9 12 17.7 3.4
3 9 -12 22.5 2.8
3 9 -12 21.9 3.2
-3 -9 12 21.9 2.9
-3 -9 12 25.7 2.7
-3 9 -12 24.2 2.6
-3 9 -12 17.5 2.6
4 -9 12 21.2 3.9
-4 9 -12 22.3 2.8
-4 9 -12 19.4 2.7
0 10 -12 -0.9 1.2
0 -10 12 1.8 2.5
0 10 -12 -1 1.1
0 -10 12 1.3 1.4
1 -10 12 2 3
1 -10 12 5.4 1.6
-1 10 -12 1.5 1.4
-1 10 -12 2 1.4
2 -10 12 1 2.9
-2 10 -12 3.1 1.4
-2 10 -12 -0.6 1.4
3 -10 12 19.6 3.8
-3 10 -12 19.4 2.7
-3 10 -12 16 2.7
0 0 13 4.7 1.2
0 0 -13 9.4 2.4
0 0 -13 6.3 1.5
0 0 13 7.3 1.5
1 0 -13 187.08 7.7
-1 0 13 198.88 6.5
-1 0 -13 195.08 4.2
1 0 13 199.38 4.5
1 0 13 195.08 3.6
1 0 13 196.98 7.6
-1 0 13 194.38 3.8
1 0 -13 203.98 7.2
-1 0 13 184.08 6.5
1 0 -13 201.28 4.2
-1 0 -13 196.98 4.4
-1 0 13 194.28 4.3
-1 0 -13 191.58 6.1
-1 0 -13 194.68 7.1
1 0 -13 202.58 4.9
2 0 13 136.99 5
2 0 13 142.49 8
-2 0 -13 143.09 3.5
-2 0 13 141.49 3.5
-2 0 -13 162.88 8.4
2 0 13 137.59 2.9
2 0 -13 137.49 4.2
2 0 -13 137.19 3.6
-2 0 13 140.99 3.3
-2 0 -13 132.99 5.1
2 0 13 136.29 3.7
-3 0 -13 19.5 1.6
-3 0 13 21.8 1.3
3 0 -13 26.5 2.2
3 0 13 29.2 1.8
3 0 -13 24.3 2.1
-3 0 13 22.6 1.4
-4 0 -13 12.5 1.7
-4 0 13 13.4 1.5
4 0 13 11.5 1.2
-4 0 13 11 1.3
4 0 -13 13.3 2.1
4 0 -13 10.4 1.5
4 0 13 12.3 1.7
5 0 -13 13 2.4
-5 0 13 16.5 1.5
-5 0 13 16 1.7
5 0 -13 15.3 2
-6 0 13 6.5 1.3
-6 0 13 7.5 1.3
6 0 -13 6.4 2.5
6 0 -13 6.8 1.8
-7 0 13 13.1 1.8
-7 0 13 12.3 1.9
7 0 -13 6 2.9
7 0 -13 8.8 2.1
0 1 13 136.19 4.4
0 -1 -13 135.29 5.2
0 1 13 134.09 4.8
0 -1 13 131.09 3.7
0 1 -13 130.39 3.4
0 -1 13 127.39 2.8
0 -1 -13 128.89 5.5
0 1 -13 132.49 3.5
1 1 -13 84.89 3.1
-1 1 13 84.39 3.9
1 -1 13 86.89 2.2
1 1 -13 85.19 2.6
-1 1 13 87.19 2.3
-1 1 13 89.89 2.1
1 -1 13 87.19 2.9
-1 1 13 88.99 3.8
-1 -1 13 83.29 2.2
1 -1 -13 88.19 4.5
-1 1 -13 84.99 2.6
1 -1 -13 87.89 4.8
-1 -1 13 89.99 2.7
1 -1 -13 89.49 2.4
1 -1 -13 89.69 2.8
-1 1 -13 86.39 2.8
2 -1 13 108.39 3.4
2 1 -13 109.49 3.1
-2 1 13 111.59 2.8
2 -1 13 108.59 2.6
2 1 -13 105.29 3.8
-2 1 13 108.69 2.7
-2 1 -13 116.59 3.3
2 -1 -13 108.39 3.4
-2 -1 13 108.09 3.2
2 -1 -13 108.09 3.1
-2 -1 13 106.79 2.8
3 1 -13 24.5 1.9
-3 1 13 18.5 1.2
3 1 -13 16.4 1.9
3 -1 13 16.4 1.7
-3 1 13 18.6 1.2
-3 -1 13 18.4 1.4
3 -1 -13 17.3 1.7
-3 1 -13 17.4 1.6
-3 -1 13 18.4 1.3
3 -1 -13 23.2 2.3
4 -1 13 2.6 1.3
4 1 -13 5.9 1.3
-4 1 13 4.2 1
4 1 -13 5.2 1.7
-4 1 13 5.2 1.1
-4 -1 13 5.3 1.1
-4 1 -13 5.1 1.3
-4 -1 13 6.1 1.2
4 -1 -13 5.2 1.9
4 -1 -13 5.2 1.5
5 -1 13 9 1.8
5 1 -13 10.1 1.8
-5 1 13 11.3 1.6
5 1 -13 8.7 2.2
-5 1 13 7.6 1.3
5 -1 13 7.4 1.1
-5 -1 13 9 1.4
5 -1 -13 8.9 2.5
-5 -1 13 10.1 1.4
-5 1 -13 10.6 1.9
5 -1 -13 7.8 1.8
-5 1 -13 11.9 1.5
6 -1 13 6.7 1.8
-6 1 13 6.9 1.4
-6 1 13 7.4 1.3
6 1 -13 7.2 1.9
6 1 -13 8 2.5
6 -1 13 7.5 1.1
-6 -1 13 8.9 1.5
-6 1 -13 5.5 1.4
6 -1 -13 6.8 1.9
-6 -1 13 7.5 1.4
-6 1 -13 4.7 1.8
6 -1 -13 8.2 2.5
7 -1 13 20.9 4.2
-7 1 13 22.2 2.1
7 -1 13 19.6 3.1
7 1 -13 18.4 2.6
7 1 -13 23 3.4
-7 1 13 27.9 2.5
7 -1 -13 25.9 2.9
-7 -1 13 27.8 2.3
-7 1 -13 25.7 3.3
-7 -1 13 23.2 2.2
7 -1 -13 26.2 3.6
0 2 -13 62.19 2.4
0 -2 13 56.19 2.5
0 -2 13 58.69 1.8
0 2 -13 63.59 2.4
1 2 -13 193.98 4.5
1 -2 13 199.78 5.1
1 2 -13 200.08 5.2
1 -2 13 195.08 4
-1 -2 13 190.08 4
-1 -2 13 201.68 4.8
-1 2 -13 198.08 4.9
-1 2 -13 192.78 4.6
2 -2 13 144.89 3.3
-2 2 13 146.79 3.3
-2 2 13 149.19 3.3
2 2 -13 144.39 3.8
2 2 -13 150.18 4.7
2 -2 13 151.48 4.4
-2 -2 13 147.89 4
-2 -2 13 141.09 3.5
2 -2 -13 150.08 3.7
-2 2 -13 139.69 3.8
2 -2 -13 145.79 4.2
-3 2 13 11.8 1
3 2 -13 12.2 1.8
3 -2 13 11.3 1.6
3 2 -13 9.6 1.2
-3 2 13 13.1 1.1
3 -2 -13 12 1.9
-3 -2 13 9.5 1.2
-3 2 -13 13.2 1.5
-3 -2 13 11.9 1.1
3 -2 -13 8.6 1.4
-4 2 13 105.49 3.2
4 2 -13 98.89 3.6
-4 2 13 102.19 3.4
4 -2 13 105.59 4.3
4 2 -13 111.19 4.6
-4 -2 13 105.89 3.5
-4 -2 13 102.89 3.4
4 -2 -13 109.79 4.6
-4 2 -13 103.69 3.8
4 -2 -13 104.19 3.8
5 -2 13 9.2 2.2
5 -2 13 10.2 1.3
5 2 -13 13.2 2.4
-5 2 13 9.1 1.2
-5 2 13 12.8 1.6
5 2 -13 11.8 1.9
5 -2 -13 10.2 2.4
5 -2 -13 10.1 1.9
-5 -2 13 12.6 1.6
-5 -2 13 12.6 1.8
-5 2 -13 12 1.9
-6 2 13 12.1 1.8
6 2 -13 12.4 2.7
6 -2 13 11.3 1.7
6 -2 13 11.8 2.3
-6 2 13 15.7 1.6
6 2 -13 12.8 2.2
-6 -2 13 12.6 1.8
-6 -2 13 11.2 1.5
6 -2 -13 11.7 2.7
-6 2 -13 12.1 2.2
6 -2 -13 11.3 2.3
7 -2 13 25 2.6
-7 2 13 30.4 2.8
7 2 -13 33 3.5
-7 2 13 33.2 2.3
7 2 -13 32.2 4.2
7 -2 13 24.7 3.3
-7 2 -13 31.5 3.3
-7 -2 13 31.8 2.6
-7 -2 13 31.7 2.9
7 -2 -13 29 3.2
7 -2 -13 39.8 4.5
0 -3 13 53.69 2.8
0 3 -13 52.59 2.4
0 3 -13 48.7 2.4
0 -3 13 47.4 1.7
1 -3 13 245.48 6.1
1 -3 13 246.08 4.9
1 3 -13 242.48 6.1
1 3 -13 243.58 5.6
-1 3 -13 252.57 6
-1 -3 13 243.68 4.9
-1 -3 13 249.78 5.9
-1 3 -13 245.58 5.6
2 -3 13 24.4 2.1
2 3 -13 23.7 1.6
2 3 -13 22 2.2
2 -3 13 24.9 1.3
-2 -3 13 23.8 1.3
-2 3 -13 26.3 1.8
-2 3 -13 25.2 1.9
-2 -3 13 21.5 1.7
3 3 -13 12.4 2.1
3 3 -13 13.4 1.5
3 -3 13 11.2 1.8
-3 3 -13 11.2 1.5
-3 -3 13 12.7 1.4
-3 -3 13 10.1 1.5
4 -3 13 24.8 2.5
-4 3 13 23.2 1.8
-4 3 13 22.8 1.4
4 3 -13 22.3 2.5
4 3 -13 21.2 1.9
-4 -3 13 25.7 1.8
4 -3 -13 19.9 2.2
4 -3 -13 22 2.5
-4 3 -13 22.6 2.1
-4 -3 13 23.4 1.9
5 3 -13 21.8 2.7
5 -3 13 24.1 2.9
5 3 -13 26.5 2.4
-5 3 13 25.7 1.8
-5 3 13 29.1 2.1
-5 3 -13 24 2.5
5 -3 -13 25.2 2.6
-5 -3 13 27.1 2.1
-5 -3 13 27.4 2.1
5 -3 -13 29.6 3.2
6 3 -13 50.19 3.3
-6 3 13 48.1 3
6 -3 13 45.6 2.8
-6 3 13 45.5 2.5
6 -3 13 45.8 3.9
6 3 -13 37.9 3.4
6 -3 -13 46.6 3.5
-6 -3 13 41.4 2.9
-6 -3 13 44.3 2.9
-6 3 -13 47 3.5
6 -3 -13 42 4.5
7 -3 13 89.69 4.2
7 -3 13 89.89 5.5
-7 3 13 88.39 3.7
7 3 -13 99.69 4.7
7 3 -13 92.59 5.8
-7 3 13 95.09 4.3
7 -3 -13 98.39 4.9
-7 -3 13 90.99 4.1
-7 -3 13 92.99 4.3
7 -3 -13 91.09 5.9
-7 3 -13 88.29 4.8
0 -4 13 7.7 0.8
0 4 -13 9.3 1.4
0 4 -13 6.6 1.1
0 -4 13 6.6 1.4
1 -4 13 6 1.3
1 -4 13 7.1 0.9
1 4 -13 5.5 1.2
1 4 -13 5.8 1.1
-1 -4 13 6.2 0.8
-1 4 -13 6.3 1.2
-1 -4 13 6.2 1.1
-1 4 -13 7.1 1.2
2 4 -13 203.48 6.4
2 -4 13 214.88 4.7
2 4 -13 218.38 5.4
2 -4 13 218.78 6.1
-2 4 -13 214.08 5.9
-2 -4 13 214.08 4.7
-2 4 -13 220.38 5.5
-2 -4 13 229.98 5.6
3 4 -13 24.7 2.8
3 4 -13 20.2 1.7
3 -4 13 26.7 2.7
3 -4 13 19.9 1.6
-3 -4 13 24.4 2.3
-3 -4 13 21.6 1.6
-3 4 -13 17.7 1.9
4 -4 13 40.3 3.3
4 4 -13 39.3 3
4 4 -13 36.7 2.4
-4 4 -13 35.1 2.6
-4 -4 13 39.2 2.4
-4 -4 13 40 2.3
5 4 -13 49.2 3.5
5 4 -13 46.1 2.9
5 -4 13 45.9 3.6
-5 -4 13 44.1 2.7
-5 -4 13 45.3 2.8
-5 4 -13 49 3.1
6 4 -13 22.4 2.6
6 4 -13 25.3 3.5
6 -4 13 22.8 3
6 -4 13 23.7 2.4
-6 -4 13 24.6 2.5
-6 4 -13 24.4 3
-6 -4 13 25.5 2.6
7 -4 13 44.7 4.4
7 4 -13 45.4 4.6
7 4 -13 46.1 3.6
7 -4 13 51.09 3.1
-7 -4 13 39.9 3.3
-7 -4 13 46.2 3.3
-7 4 -13 44.6 3.7
0 -5 13 21.4 1.6
0 -5 13 20.1 2.3
0 5 -13 18 2
0 5 -13 16.5 1.8
1 -5 13 81.29 3.8
1 -5 13 75.59 2.5
1 5 -13 75.69 3.6
1 5 -13 78.79 3.2
-1 -5 13 80.29 3.6
-1 5 -13 75.49 3.2
-1 -5 13 76.19 2.5
-1 5 -13 74.19 3.5
2 -5 13 9 1.1
2 -5 13 8.9 1.7
2 5 -13 12.3 2.2
2 5 -13 9.8 1.4
-2 -5 13 9.8 1.2
-2 -5 13 11.3 1.9
-2 5 -13 7.9 1.3
-2 5 -13 9.5 1.7
3 5 -13 9.4 1.9
3 -5 13 10.1 1.3
3 -5 13 7.3 1.7
3 5 -13 10.1 1.6
-3 5 -13 7.6 1.3
-3 -5 13 10.3 1.3
-3 -5 13 6.9 1.6
4 -5 13 26.5 3
4 5 -13 33.6 2.5
4 5 -13 27.7 3
-4 -5 13 30.4 2.3
-4 -5 13 31.2 2.4
-4 5 -13 26.6 2.5
5 -5 13 47.9 4.3
5 5 -13 52.49 3.1
5 5 -13 52.69 3.6
-5 -5 13 50.79 3.2
-5 -5 13 52.49 3
-5 5 -13 54.39 3.4
6 5 -13 100.89 5.4
6 5 -13 104.49 4.5
6 -5 13 92.59 5.6
6 -5 13 103.39 4.2
-6 -5 13 94.89 4.6
-6 5 -13 96.49 4.9
-6 -5 13 99.89 4.4
0 -6 13 8.8 2.2
0 6 -13 9.1 1.7
0 6 -13 12.1 1.7
0 -6 13 8.6 1.2
1 6 -13 45.2 2.9
1 6 -13 46.3 3
1 -6 13 42.1 3.2
1 -6 13 46.1 2.2
-1 -6 13 39.1 3.1
-1 6 -13 43.4 2.8
-1 -6 13 47.6 2.3
-1 6 -13 49.2 2.8
2 -6 13 52.29 2.5
2 -6 13 49 3.8
2 6 -13 42.5 3.4
2 6 -13 50.39 2.7
-2 6 -13 47.8 3.1
-2 -6 13 47.1 2.4
-2 6 -13 49 2.8
-2 -6 13 45.4 3.3
3 -6 13 20.9 2.8
3 6 -13 25.5 2.3
3 6 -13 24.3 3
3 -6 13 27 2.2
-3 6 -13 23.4 2.4
-3 -6 13 23.6 2.6
-3 -6 13 27.1 2.1
-3 6 -13 24.4 2.3
4 6 -13 5 1.8
4 6 -13 6.3 1.5
4 -6 13 4.8 2.2
-4 6 -13 6.8 1.5
-4 -6 13 6.4 1.8
-4 -6 13 7.3 1.6
5 -6 13 35.1 4.1
5 6 -13 32.3 2.9
5 6 -13 29.4 3.3
-5 -6 13 34.7 2.8
-5 -6 13 38.8 3.2
-5 6 -13 32 2.9
6 6 -13 0 1.8
6 -6 13 4.4 2.9
6 6 -13 3.6 1.5
6 -6 13 6.2 1.9
-6 -6 13 4.5 1.7
-6 -6 13 1.8 1.8
-6 6 -13 1.8 1.7
0 7 -13 14.6 1.9
0 -7 13 14.5 1.8
0 -7 13 10.7 2.7
0 7 -13 14.7 2.1
1 -7 13 6.4 1.4
1 -7 13 4.9 2.4
1 7 -13 4.1 1.5
1 7 -13 6.3 1.6
-1 7 -13 3.7 1.3
-1 -7 13 3.8 1.3
-1 7 -13 9 1.9
-1 -7 13 6.5 2.2
2 -7 13 22.7 3
2 -7 13 23.5 2.2
2 7 -13 27.6 2.5
2 7 -13 25.2 3.3
-2 -7 13 24.4 2.1
-2 7 -13 25.4 2.4
-2 7 -13 22.2 2.4
-2 -7 13 21.3 2.7
3 7 -13 15.2 2
3 -7 13 17.7 3.1
3 7 -13 17.8 2.7
-3 7 -13 14.9 2.3
-3 -7 13 17.5 1.9
-3 -7 13 15.8 2.4
-3 7 -13 15.6 2
4 -7 13 64.39 4.7
4 7 -13 72.79 4.5
4 7 -13 67.59 3.7
-4 -7 13 72.09 3.3
-4 7 -13 69.59 3.9
-4 7 -13 64.89 4
-4 -7 13 62.69 3.8
5 -7 13 16.9 3.4
5 7 -13 20.1 3
5 7 -13 22.5 2.5
-5 7 -13 19.7 2.5
-5 -7 13 21.8 2.7
-5 -7 13 20.7 2.2
0 -8 13 1.4 1.3
0 8 -13 0.3 1.1
0 8 -13 1 1.1
0 -8 13 -0.5 2.5
1 -8 13 49.99 2.8
1 8 -13 46.6 3.3
1 8 -13 49.8 3.6
1 -8 13 49.7 4.7
-1 8 -13 49 3.1
-1 -8 13 38.3 3.6
-1 -8 13 48.4 2.8
-1 8 -13 47.8 3.4
2 8 -13 33.7 3.5
2 -8 13 33.2 3.9
2 8 -13 34.2 2.9
2 -8 13 38.5 2.7
-2 8 -13 30 3
-2 8 -13 33.3 2.7
-2 -8 13 37.5 2.7
-2 -8 13 36.5 3.7
3 8 -13 9.5 1.9
3 8 -13 9 2.2
3 -8 13 12.3 3.1
-3 8 -13 10 1.9
-3 -8 13 10.6 1.7
-3 -8 13 8.7 2.5
-3 8 -13 11.1 2.1
4 8 -13 22.7 3.1
4 8 -13 25.6 2.6
4 -8 13 24.5 3.8
-4 8 -13 22 2.8
-4 -8 13 29.4 2.7
-4 -8 13 26.6 3
-4 8 -13 25 2.8
5 8 -13 1 1.6
5 8 -13 2.2 1.6
5 -8 13 1.7 2.7
-5 8 -13 1.1 1.7
-5 8 -13 0.5 1.3
-5 -8 13 5.1 2.1
-5 -8 13 0.7 1.5
0 -9 13 36.3 2.8
0 9 -13 34.3 3.2
0 9 -13 28.1 2.9
0 -9 13 26.6 3.8
1 9 -13 34 3.2
1 -9 13 33.5 4.3
1 9 -13 30.8 3.7
1 -9 13 33 2.7
-1 9 -13 37.4 3.1
-1 9 -13 39.5 3.1
-1 -9 13 34.5 3.6
-1 -9 13 34.3 2.9
2 9 -13 22.3 3.4
2 -9 13 23.1 4
2 9 -13 22.1 2.6
2 -9 13 25.2 2.6
-2 -9 13 17.5 3.1
-2 9 -13 23.5 3
-2 -9 13 25.7 2.6
-2 9 -13 22.7 2.7
3 9 -13 -0.8 1.4
3 -9 13 1.1 2.8
3 9 -13 -1.9 1.3
-3 -9 13 2.6 2.2
-3 9 -13 0.2 1.1
-3 9 -13 0.9 1.4
-3 -9 13 2.1 1.5
4 -9 13 51.09 5.4
4 9 -13 40 4.7
4 9 -13 38.4 5.7
-4 9 -13 40.9 3.7
-4 9 -13 42.2 3.4
0 -10 13 6.8 1.7
0 10 -13 5.4 1.8
0 -10 13 9.3 2.8
0 10 -13 3 1.6
1 -10 13 38.8 4.4
1 10 -13 51.19 3.6
1 -10 13 54.19 3.1
1 10 -13 49.2 4.1
-1 -10 13 55.69 4.4
-1 -10 13 56.59 3.2
-1 10 -13 45.3 3.4
-1 10 -13 45.8 3.7
2 -10 13 64.39 3.8
2 -10 13 59.69 6
-2 10 -13 70.49 4
-2 10 -13 61.99 4.3
3 -10 13 1.8 3
-3 10 -13 3 1.9
-3 10 -13 4.7 1.8
0 0 -14 49.9 2.1
0 0 14 53.19 3
0 0 -14 52.09 2.1
0 0 14 46.6 1.4
0 0 -14 53.49 4.2
0 0 14 54.19 2
0 0 14 45 3.4
0 0 -14 46 3.4
1 0 14 64.49 2.4
1 0 -14 62.49 2.3
-1 0 -14 70.89 3.7
1 0 14 65.29 4.2
-1 0 -14 67.19 2.6
1 0 14 68.79 1.8
-1 0 -14 66.39 2.3
1 0 -14 71.59 2.9
-1 0 14 65.89 2.3
-1 0 -14 68.79 4.4
-1 0 14 68.89 1.9
-2 0 14 59.89 2.2
-2 0 -14 63.59 2.8
2 0 14 61.99 1.8
-2 0 14 61.09 2
2 0 -14 66.89 2.5
2 0 14 56.19 2.4
-2 0 -14 67.79 2.5
2 0 -14 60.99 2.9
-3 0 14 3.8 0.7
3 0 -14 4.9 1.3
-3 0 -14 2.7 1
3 0 -14 3.4 1.4
3 0 14 4.6 1.1
-3 0 14 4 0.8
-4 0 14 57.59 2.4
-4 0 14 57.59 2.5
4 0 -14 59.29 3.1
4 0 -14 54.59 3.6
-5 0 14 8.6 1.3
5 0 -14 5.9 2.2
-5 0 14 7.4 1.3
5 0 -14 7.7 1.8
-6 0 14 0.1 0.9
-6 0 14 0 0.8
6 0 -14 -0.9 1.6
6 0 -14 0.1 2
7 0 -14 0.5 2.6
-7 0 14 0 1
7 0 -14 -1.8 1.9
-7 0 14 -0.3 0.9
0 1 -14 252.17 5.2
0 -1 14 247.18 5.6
0 -1 14 250.27 4.6
0 1 -14 237.58 5.4
-1 1 14 156.28 3.5
1 -1 14 157.58 3.3
-1 1 14 160.18 3.2
1 -1 14 160.58 4.3
1 1 -14 164.08 4.6
1 1 -14 158.48 3.9
-1 1 -14 156.08 3.9
-1 1 -14 161.48 4.3
1 -1 -14 159.38 4.1
-1 -1 14 160.48 4
1 -1 -14 157.38 3.6
-1 -1 14 158.58 3.4
-2 1 14 60.99 2
2 1 -14 53.99 2.9
2 -1 14 60.89 1.9
-2 1 14 60.39 2
2 1 -14 57.89 2.3
2 -1 14 57.69 2.6
-2 -1 14 61.19 2.1
2 -1 -14 64.39 2.5
-2 -1 14 59.29 2.3
2 -1 -14 59.09 2.7
-2 1 -14 62.39 2.5
-2 1 -14 63.09 2.7
3 -1 14 132.79 4.3
-3 1 14 134.79 3.4
3 1 -14 138.39 4.7
3 1 -14 134.09 4
-3 1 14 135.09 3.5
-3 1 -14 135.49 3.9
3 -1 -14 138.09 4.5
-3 -1 14 132.29 3.6
-3 -1 14 130.79 3.7
3 -1 -14 137.79 3.9
-4 1 14 42.1 2
4 1 -14 42.3 2.7
4 1 -14 37 2.9
4 -1 14 39.4 2.7
-4 1 14 37 2
-4 1 -14 40.2 2.6
-4 -1 14 41.3 2.2
-4 -1 14 39.3 2.1
4 -1 -14 41.2 2.7
4 -1 -14 38.6 3.2
5 1 -14 9 2.2
-5 1 14 7.9 1.3
5 -1 14 6.7 1.9
5 -1 14 7.8 1.1
5 1 -14 9.5 1.8
-5 1 14 7.2 1.2
5 -1 -14 5.8 2.2
-5 -1 14 6.4 1.2
5 -1 -14 6.6 1.7
-5 -1 14 7.9 1.5
-5 1 -14 7.6 2
6 1 -14 34.2 4
6 -1 14 28.2 3.1
6 -1 14 29.4 1.9
-6 1 14 27.8 2.3
-6 1 14 28.2 2.1
6 1 -14 28 3
-6 1 -14 28.3 3
6 -1 -14 29.9 3.3
-6 -1 14 26.4 2.2
6 -1 -14 28.1 3.5
-6 -1 14 21.5 2.2
-7 1 14 24.3 2.1
7 1 -14 25.4 3.7
7 1 -14 22.1 3
-7 1 14 24.4 2.4
7 -1 -14 23.7 3.6
7 -1 -14 24.9 2.9
-7 -1 14 24.2 2.3
-7 -1 14 23 2.4
0 2 -14 8.2 1.2
0 -2 14 4.6 0.7
0 2 -14 4.4 1
0 -2 14 10.7 1.4
1 -2 14 197.98 4
1 -2 14 192.78 5.1
1 2 -14 190.18 4.6
1 2 -14 189.58 5.2
-1 2 -14 195.08 5
-1 -2 14 193.28 4
-1 -2 14 197.88 4.8
-1 2 -14 188.48 4.6
2 2 -14 11.7 1.3
2 2 -14 15.2 1.9
2 -2 14 13.4 1
2 -2 14 15.8 1.7
-2 2 -14 13.7 1.6
-2 2 -14 13.2 1.4
-2 -2 14 13.2 1.1
-2 -2 14 14 1.3
-3 2 14 64.89 2.2
3 2 -14 62.59 2.7
3 2 -14 59.99 3.4
-3 2 14 65.19 2.3
3 -2 14 59.89 3.1
-3 -2 14 73.89 2.7
3 -2 -14 63.29 2.8
-3 2 -14 64.19 2.8
3 -2 -14 65.79 3.5
-3 -2 14 66.49 2.8
-4 2 14 36.3 1.9
4 2 -14 39.1 3.1
-4 2 14 35.3 2
4 2 -14 40.7 2.5
4 -2 14 39.7 2.7
-4 2 -14 36.8 2.5
4 -2 -14 35.4 3.3
-4 -2 14 36.5 2.2
4 -2 -14 32.5 2.6
-4 -2 14 36.4 2
5 -2 14 45.9 3.5
5 -2 14 44.8 2.3
5 2 -14 46.4 3.8
-5 2 14 43.2 2.3
-5 2 14 46.5 2.6
5 2 -14 43.4 3
-5 -2 14 45.4 2.6
5 -2 -14 45.3 3.1
-5 -2 14 46 2.5
5 -2 -14 48.5 3.8
-5 2 -14 41.9 3
-6 2 14 12.4 1.6
-6 2 14 12.7 1.8
6 -2 14 7.4 1.6
6 2 -14 10.4 2.7
6 -2 14 9.7 2.2
6 2 -14 11 2.2
-6 -2 14 10.4 1.6
6 -2 -14 10.4 2.7
-6 2 -14 12.7 2.3
6 -2 -14 13.1 2.3
-6 -2 14 9.7 1.6
7 -2 14 3.8 2.2
-7 2 14 6.5 1.5
-7 2 14 7.5 1.4
7 2 -14 3.2 1.9
7 2 -14 3.9 2.7
7 -2 14 2.5 1.5
7 -2 -14 3.6 2.1
-7 -2 14 6.9 1.7
7 -2 -14 6.8 2.9
-7 2 -14 4.2 1.9
-7 -2 14 3.2 1.4
0 -3 14 10.9 1.6
0 3 -14 12.7 1.4
0 3 -14 13.1 1.5
0 -3 14 11.9 0.9
1 3 -14 97.19 3.6
1 -3 14 91.99 3.5
1 3 -14 85.79 3
1 -3 14 87.49 2.5
-1 3 -14 93.49 3.1
-1 -3 14 84.99 2.5
-1 -3 14 86.79 3.2
-1 3 -14 87.29 3.4
2 -3 14 86.69 2.5
2 3 -14 82.39 3.7
2 -3 14 92.19 3.6
2 3 -14 84.59 3
-2 3 -14 85.99 3.1
-2 -3 14 81.89 3.2
-2 3 -14 84.99 3.5
-2 -3 14 85.09 2.6
3 3 -14 17.1 2.2
3 3 -14 16.5 1.6
3 -3 14 21.3 2.3
-3 -3 14 18.3 1.5
-3 -3 14 17.6 1.7
-3 3 -14 17.9 1.7
4 3 -14 28.1 2.1
4 3 -14 30.2 2.9
4 -3 14 23.2 2.6
-4 -3 14 26.9 1.9
-4 -3 14 28.2 2
-4 3 -14 27.7 2.3
-5 3 14 19.8 1.6
5 3 -14 20.1 2.1
-5 3 14 21.4 2.1
5 3 -14 17.9 2.6
5 -3 14 29.5 2.7
5 -3 -14 19.3 3
5 -3 -14 21.4 2.4
-5 -3 14 20.7 2
-5 3 -14 16.3 2.2
-5 -3 14 22 1.9
-6 3 14 71.99 3
6 3 -14 74.39 4
6 -3 14 72.99 4.6
6 3 -14 71.59 4.7
-6 3 14 76.69 3.6
6 -3 14 65.89 3.4
6 -3 -14 74.89 5
6 -3 -14 69.09 4.1
-6 -3 14 75.79 3.6
-6 -3 14 73.19 3.7
-6 3 -14 70.29 4.2
-7 3 14 6.5 1.4
7 3 -14 11 2.2
7 -3 14 5 1.6
7 3 -14 6.3 3
-7 3 14 12.4 2
7 -3 14 8.1 2.2
7 -3 -14 5.5 2.7
-7 -3 14 9.3 1.9
-7 -3 14 8.6 1.8
7 -3 -14 7.8 2.4
-7 3 -14 7.6 2.3
0 -4 14 40.9 2.7
0 4 -14 44.5 2.4
0 4 -14 44.7 2.4
0 -4 14 41.5 1.8
1 4 -14 252.27 6.7
1 -4 14 249.88 5.2
1 4 -14 258.97 6.1
1 -4 14 249.08 6.6
-1 4 -14 252.27 6.1
-1 4 -14 252.87 6.5
-1 -4 14 254.77 5.2
-1 -4 14 246.68 6.2
2 -4 14 64.89 3.5
2 4 -14 57.59 2.8
2 4 -14 57.69 3.4
2 -4 14 55.09 2.1
-2 4 -14 57.19 3
-2 4 -14 53.89 2.7
-2 -4 14 57.79 2.2
-2 -4 14 56.79 2.9
3 4 -14 58.99 2.8
3 -4 14 61.19 2.5
3 -4 14 58.59 3.3
3 4 -14 61.39 3.7
-3 4 -14 60.49 2.9
-3 -4 14 58.79 2.9
-3 -4 14 65.19 2.5
4 4 -14 115.89 5.1
4 -4 14 107.49 5
4 4 -14 111.69 4.1
-4 -4 14 114.69 4
-4 4 -14 122.99 4.5
-4 -4 14 115.49 3.8
5 4 -14 16.2 2.1
5 4 -14 17.9 2.7
5 -4 14 15.8 2.6
-5 4 -14 14.2 2.1
-5 -4 14 15.9 1.9
-5 -4 14 16.1 1.9
6 4 -14 21.6 3.4
6 -4 14 19.3 2.2
6 -4 14 18.3 3.1
6 4 -14 21.8 2.8
-6 4 -14 20.5 2.8
-6 -4 14 24.9 2.6
-6 -4 14 20.8 2.5
7 -4 14 28 2.7
7 4 -14 26.1 6.2
7 4 -14 20.1 3.3
7 -4 14 20.6 3.5
-7 -4 14 25.3 4.3
-7 4 -14 21.7 3.1
-7 -4 14 21.2 3
0 -5 14 107.09 4.4
0 5 -14 101.69 3.9
0 -5 14 102.29 3
0 5 -14 110.99 4
1 -5 14 11.6 1.3
1 5 -14 10.2 1.8
1 -5 14 10.4 1.9
1 5 -14 10.9 1.6
-1 -5 14 10.2 1.3
-1 -5 14 9.1 1.5
-1 5 -14 11 1.8
-1 5 -14 10 1.5
2 -5 14 32.8 1.8
2 5 -14 32.8 2.8
2 -5 14 29.8 2.8
2 5 -14 31.9 2.4
-2 -5 14 33.7 1.9
-2 -5 14 33.7 2.5
-2 5 -14 36.3 2.5
-2 5 -14 32.9 2.4
3 5 -14 28.3 3.2
3 -5 14 24.7 1.8
3 -5 14 23.8 2.6
3 5 -14 27.4 2.2
-3 -5 14 22.1 2.3
-3 5 -14 25.7 2.4
-3 5 -14 23.4 2
-3 -5 14 22.7 1.8
4 -5 14 14.1 2.4
4 5 -14 16 2.6
4 5 -14 14.7 2
-4 -5 14 16.1 1.8
-4 -5 14 17.8 2
-4 5 -14 15.1 2
5 5 -14 42.5 3
5 5 -14 43 3.6
5 -5 14 45.6 4.2
-5 -5 14 40.9 3
-5 -5 14 43.1 2.9
-5 5 -14 46.1 3.2
6 -5 14 6.3 1.7
6 5 -14 10.1 2.5
6 -5 14 3 2.5
6 5 -14 7.1 1.7
-6 5 -14 5.3 2
-6 -5 14 6.2 1.9
-6 -5 14 5.9 2.1
0 6 -14 67.79 3.4
0 -6 14 72.39 2.8
0 -6 14 73.79 4.1
0 6 -14 77.89 3.5
1 -6 14 131.89 3.7
1 6 -14 128.09 4.5
1 -6 14 122.49 5.3
1 6 -14 131.49 5.1
-1 -6 14 128.89 3.7
-1 6 -14 126.79 5
-1 -6 14 128.59 4.8
-1 6 -14 134.79 4.6
2 -6 14 5.2 1.1
2 -6 14 4.5 2
2 6 -14 4.7 1.4
2 6 -14 6.8 1.8
-2 -6 14 4 1.5
-2 6 -14 5.9 1.5
-2 -6 14 5.7 1.2
-2 6 -14 5.9 1.4
3 6 -14 118.69 4.6
3 -6 14 121.59 5.6
3 -6 14 127.49 4.1
3 6 -14 128.59 5.6
-3 6 -14 119.49 5
-3 -6 14 124.89 3.9
-3 6 -14 126.39 4.6
-3 -6 14 119.49 4.7
4 -6 14 3.3 1.8
4 6 -14 2.8 1.2
4 6 -14 2.8 1.6
-4 -6 14 1.5 1.2
-4 6 -14 1.9 1.2
-4 -6 14 1 1.5
5 6 -14 70.59 3.8
5 -6 14 65.19 5.2
5 6 -14 67.69 4.4
-5 6 -14 73.39 4.1
-5 -6 14 67.19 3.4
-5 -6 14 66.99 3.9
6 6 -14 27.2 3.8
6 6 -14 25.1 3
6 -6 14 29.9 3.1
6 -6 14 21 3.6
-6 6 -14 23.6 3.1
-6 -6 14 24.8 3
-6 -6 14 28.5 2.9
0 -7 14 256.57 6
0 7 -14 256.57 7
0 7 -14 243.38 7.3
0 -7 14 253.37 7.9
1 7 -14 1.3 1.2
1 7 -14 -0.5 1
1 -7 14 1.3 1.1
1 -7 14 0.3 2
-1 7 -14 -0.1 1.1
-1 7 -14 -0.2 1
-1 -7 14 -1.2 1.9
-1 -7 14 1.1 1.1
2 7 -14 14.9 2.4
2 -7 14 16.9 2.9
2 7 -14 17.4 2.3
2 -7 14 19.9 2
-2 7 -14 19.5 2.3
-2 -7 14 19.5 2
-2 7 -14 21.5 2.6
-2 -7 14 13 2.4
3 -7 14 19.3 3.3
3 7 -14 23 3.2
3 7 -14 16.4 2.1
-3 7 -14 18.8 2.2
-3 7 -14 16.9 2.5
-3 -7 14 18.1 2.5
-3 -7 14 23.1 2.3
4 7 -14 61.69 4.4
4 -7 14 58.59 5
4 7 -14 53.29 3.5
-4 7 -14 54.19 4
-4 -7 14 57.59 3.2
-4 7 -14 55.19 3.6
-4 -7 14 53.69 3.7
5 -7 14 26.5 3.6
5 7 -14 28 2.8
5 7 -14 25 3.4
-5 -7 14 30.6 2.8
-5 7 -14 27 2.8
-5 -7 14 26.8 3
0 -8 14 3.9 2.6
0 8 -14 2.4 1.3
0 -8 14 5.2 1.5
0 8 -14 7 1.5
1 -8 14 99.19 5.8
1 8 -14 110.29 5.3
1 -8 14 104.89 3.8
1 8 -14 102.19 4.6
-1 8 -14 107.69 4.5
-1 -8 14 96.09 4.7
-1 8 -14 106.69 4.9
-1 -8 14 115.19 4
2 -8 14 14 1.9
2 -8 14 18.2 3.5
2 8 -14 18.8 3.1
2 8 -14 16 2.3
-2 8 -14 15.8 2.2
-2 -8 14 18.1 2
-2 -8 14 16.7 2.9
-2 8 -14 17.1 2.7
3 8 -14 79.29 4.2
3 8 -14 73.19 4.8
3 -8 14 72.89 5.5
-3 8 -14 77.69 4.3
-3 -8 14 71.49 4.5
-3 8 -14 78.79 4.1
-3 -8 14 82.39 3.5
4 8 -14 15.7 2.9
4 8 -14 16.9 2.2
4 -8 14 14.6 3.3
-4 -8 14 16.8 2.1
-4 -8 14 14.1 2.5
-4 8 -14 12.3 2.4
-4 8 -14 12 2.2
5 8 -14 70.49 4.2
5 8 -14 66.49 4.7
-5 -8 14 72.69 4.3
-5 -8 14 71.69 3.8
0 -9 14 85.89 3.7
0 -9 14 74.49 5.3
0 9 -14 85.59 4.8
0 9 -14 84.59 4.3
1 9 -14 60.59 3.8
1 9 -14 53.59 4.3
1 -9 14 62.99 3.3
1 -9 14 60.29 5.3
-1 -9 14 58.09 3.4
-1 9 -14 62.59 3.7
-1 9 -14 59.39 3.7
-1 -9 14 57.99 4.6
2 -9 14 7.6 1.8
2 -9 14 7.3 2.9
2 9 -14 4.2 2
2 9 -14 6.3 1.9
-2 9 -14 7.7 1.8
-2 -9 14 8 1.7
-2 -9 14 5.7 2.8
-2 9 -14 6.6 1.8
3 -9 14 1.2 2.7
3 9 -14 0.9 1.5
3 9 -14 1.2 1.8
-3 -9 14 2.4 2.2
-3 -9 14 3.8 1.6
-3 9 -14 2.7 1.5
-3 9 -14 3 1.6
4 9 -14 143.49 6.9
4 9 -14 149.49 6
4 -9 14 155.58 11.5
-4 -9 14 150.18 5.9
-4 -9 14 146.99 5.1
-4 9 -14 165.48 9.9
-4 9 -14 145.69 7
0 -10 14 11 1.9
0 10 -14 8.3 2
0 -10 14 9 3
0 10 -14 12.5 2.4
1 10 -14 30.1 3.8
1 -10 14 29.5 2.9
1 -10 14 30.3 4.3
1 10 -14 26.9 3
-1 -10 14 25.7 3.2
-1 10 -14 26 3.3
-1 -10 14 33.4 2.7
-1 10 -14 29.6 3.2
2 10 -14 3.3 2.1
2 10 -14 0 1.7
2 -10 14 -3.5 1.6
2 -10 14 -2.1 3
-2 -10 14 -1 2.2
-2 -10 14 2.6 2.7
-2 10 -14 -0.3 1.1
-2 10 -14 -1.1 1.3
0 0 15 1.4 1.1
-1 0 15 1.2 0.7
1 0 15 3 0.9
1 0 15 1.8 0.4
-1 0 -15 -1.2 0.9
-1 0 15 1.8 0.4
1 0 -15 2.5 0.9
-1 0 -15 1.9 1.1
1 0 -15 0.8 1.4
-2 0 -15 28.3 2.1
-2 0 15 31.4 1.4
-2 0 15 35.2 1.7
2 0 -15 32.7 2.4
-2 0 -15 35.9 2.1
2 0 -15 34.1 2
2 0 15 30.9 1.3
2 0 15 33.2 2.1
3 0 -15 214.58 6
-3 0 15 210.28 4.9
-3 0 15 207.18 4.9
3 0 -15 215.78 5.3
-4 0 15 16.3 1.5
4 0 -15 16.7 2
4 0 -15 20.9 2.6
-4 0 15 15.6 1.5
-5 0 15 7.9 1.2
5 0 -15 6.5 1.8
-5 0 15 8.3 1.3
5 0 -15 8.3 2.4
-6 0 15 8 1.3
6 0 -15 8.9 2.6
-6 0 15 6.5 1.4
6 0 -15 8.6 2.1
-7 0 15 33.5 2.6
7 0 -15 35.7 3.7
-7 0 15 34.5 2.6
7 0 -15 30.2 4.1
0 1 -15 12.2 1.6
0 -1 15 9.4 1.4
0 1 -15 15.2 1.6
0 -1 15 11.8 0.9
1 1 -15 8.9 1.4
1 1 -15 10.2 1.3
-1 1 15 10.2 0.9
1 -1 15 7.9 1.3
-1 1 15 10.6 1.4
1 -1 15 11.1 0.8
-1 1 -15 10 1.3
-1 -1 15 11 0.8
-1 1 -15 9.7 1.4
1 -1 -15 11 1.8
-1 -1 15 8.1 1.1
2 1 -15 169.68 4.3
-2 1 15 168.88 3.7
2 -1 15 163.68 3.6
-2 1 15 166.48 3.8
2 -1 15 159.48 4.6
2 1 -15 163.28 5.1
2 -1 -15 164.78 4.6
-2 -1 15 164.68 4.3
-2 1 -15 168.88 4.6
2 -1 -15 170.58 4.1
-2 -1 15 160.28 3.8
-2 1 -15 165.38 4.3
3 1 -15 24.9 2
3 -1 15 21.4 2.1
-3 1 15 20.5 1.4
3 1 -15 19 2.4
-3 1 15 21.4 1.4
3 -1 -15 22.9 2.5
-3 -1 15 22.2 1.4
-3 -1 15 21.8 1.8
3 -1 -15 26.1 2.6
-3 1 -15 22.7 2
4 1 -15 59.59 3.7
-4 1 15 60.09 2.5
4 1 -15 64.99 3.1
4 -1 15 58.09 3.2
-4 1 15 63.29 2.5
-4 -1 15 58.59 2.6
-4 -1 15 60.89 2.6
-4 1 -15 59.39 3
4 -1 -15 56.49 3.6
4 -1 -15 64.19 3.3
5 1 -15 13.8 2.6
5 -1 15 14.7 1.4
-5 1 15 13.6 1.5
-5 1 15 14.5 1.7
5 -1 15 11.2 1.9
5 1 -15 12.9 2.2
5 -1 -15 12.6 2
-5 -1 15 13.6 1.7
5 -1 -15 13.9 2.7
-5 1 -15 12.7 2.2
-5 -1 15 11.4 1.5
-6 1 15 14.3 1.9
6 1 -15 17 3.2
6 1 -15 14.6 2.5
-6 1 15 15.6 1.9
-6 -1 15 14.2 1.9
6 -1 -15 17 2.5
6 -1 -15 15 2.9
-6 -1 15 15 2
7 1 -15 4.6 2.7
-7 1 15 6.9 1.6
7 1 -15 5.2 2.4
-7 1 15 6.7 1.4
-7 -1 15 8.2 1.8
7 -1 -15 6.4 2.7
7 -1 -15 7 2.3
-7 -1 15 7.2 1.6
0 2 -15 202.08 5.1
0 2 -15 194.38 4.9
0 -2 15 200.08 4.1
0 -2 15 200.38 5.3
1 -2 15 145.19 4.4
1 2 -15 137.39 3.9
1 -2 15 142.69 3.3
1 2 -15 142.29 4.6
-1 -2 15 137.29 3.3
-1 -2 15 144.49 4
-1 2 -15 142.19 4.3
-1 2 -15 142.19 3.9
2 2 -15 53.69 3
2 2 -15 64.49 2.6
2 -2 15 57.79 2
2 -2 15 54.69 2.7
-2 2 -15 56.09 2.5
-2 2 -15 52.99 2.9
-2 -2 15 61.39 2.6
-2 -2 15 57.09 2.1
3 2 -15 139.59 4.2
3 -2 15 143.29 4.7
3 2 -15 135.29 5.1
-3 -2 15 138.09 3.8
-3 -2 15 134.39 4
-3 2 -15 142.49 4.3
4 2 -15 82.49 3.5
4 2 -15 86.39 4.3
-4 2 15 82.29 2.8
4 -2 15 84.09 3.9
-4 2 15 84.59 3
4 -2 -15 82.39 3.5
-4 2 -15 78.99 3.5
4 -2 -15 79.39 4.2
-4 -2 15 82.39 3.2
-4 -2 15 84.99 3.1
5 2 -15 13.5 1.9
5 -2 15 24.7 2.4
-5 2 15 16.1 1.7
5 2 -15 17.7 2.8
5 -2 15 17.6 1.5
-5 2 15 14 1.4
5 -2 -15 15.7 2.2
-5 2 -15 17 2.3
5 -2 -15 15.6 2.6
-5 -2 15 15.1 1.6
-5 -2 15 18.3 1.8
-6 2 15 4.9 1.4
6 -2 15 4.1 1.9
6 2 -15 5.4 2.5
6 2 -15 5.3 2
6 -2 15 0.6 1.2
-6 2 15 4.5 1.2
6 -2 -15 5.3 2
-6 -2 15 5.8 1.4
-6 -2 15 4.5 1.2
6 -2 -15 4.9 2.5
-6 2 -15 3.8 1.9
7 -2 15 15.2 2.1
7 2 -15 21.6 3
-7 2 15 19.9 2
-7 2 15 18 2.2
7 2 -15 22.1 3.7
7 -2 15 17.6 2.8
7 -2 -15 24.4 3.8
-7 -2 15 19.2 2.3
7 -2 -15 20.7 2.8
-7 2 -15 20.6 2.8
-7 -2 15 18.6 2.3
0 -3 15 132.79 4.4
0 3 -15 152.78 4.3
0 -3 15 137.79 3.3
0 3 -15 131.09 4
1 3 -15 8.9 1.5
1 -3 15 6.9 1.3
1 -3 15 9.9 0.9
1 3 -15 7.8 1.2
-1 -3 15 8.5 1.4
-1 3 -15 7 1.3
-1 3 -15 7.3 1.1
-1 -3 15 8.2 0.9
2 -3 15 172.38 4
2 3 -15 177.08 4.8
2 -3 15 179.28 5.4
2 3 -15 175.08 5.9
-2 3 -15 179.78 5.4
-2 -3 15 173.58 4.2
-2 3 -15 174.48 4.8
-2 -3 15 177.68 4.9
3 3 -15 16.4 1.8
3 3 -15 19.3 2.4
3 -3 15 15.4 1.4
3 -3 15 17.8 2.4
-3 -3 15 19 1.4
-3 -3 15 19 1.9
-3 3 -15 17.4 1.9
4 3 -15 101.49 3.8
4 3 -15 99.29 4.7
4 -3 15 95.29 4.5
-4 3 -15 99.99 4
-4 -3 15 98.59 3.7
-4 -3 15 99.49 3.4
5 3 -15 67.79 3.5
5 -3 15 61.19 3.9
5 3 -15 62.89 4.3
-5 -3 15 67.59 3.2
-5 -3 15 63.79 3
-5 3 -15 66.59 3.7
6 3 -15 6.5 1.8
6 -3 15 4.3 1.4
6 3 -15 3.8 2.3
-6 -3 15 5.6 1.4
-6 -3 15 4.1 1.5
-6 3 -15 4.9 1.9
7 3 -15 0.6 2.7
7 3 -15 5.3 1.9
7 -3 15 4.2 1.3
-7 -3 15 5.8 1.7
-7 3 -15 4.4 2.1
-7 -3 15 5.8 1.5
0 -4 15 66.49 3.2
0 4 -15 65.99 2.9
0 4 -15 72.29 3.1
0 -4 15 65.29 2.4
1 -4 15 194.88 4.4
1 4 -15 197.18 5.2
1 4 -15 195.98 5.9
1 -4 15 199.58 6
-1 -4 15 191.38 5.5
-1 4 -15 197.88 5.3
-1 -4 15 194.28 4.5
-1 4 -15 200.88 5.9
2 4 -15 102.89 3.7
2 -4 15 103.19 3
2 4 -15 105.79 4.9
2 -4 15 100.09 4.2
-2 -4 15 100.79 3.1
-2 4 -15 105.99 3.7
-2 4 -15 102.79 4.2
-2 -4 15 111.49 3.9
3 4 -15 23.2 2.8
3 -4 15 20.6 2.5
3 4 -15 24.5 2
3 -4 15 21.7 1.7
-3 -4 15 21.6 1.6
-3 4 -15 21.3 2
-3 -4 15 19.5 2
4 -4 15 109.39 4.9
4 4 -15 118.29 5.3
4 4 -15 113.09 4.3
-4 -4 15 116.89 3.9
-4 -4 15 116.29 4.2
-4 4 -15 116.99 4.5
5 4 -15 12.2 1.8
5 4 -15 9.9 2.3
5 -4 15 11.4 2.4
-5 -4 15 11.1 1.6
-5 -4 15 10.7 1.5
-5 4 -15 12.8 2.1
6 4 -15 34.3 3
6 4 -15 37.9 4.2
6 -4 15 36.7 2.5
6 -4 15 27.4 3.5
-6 4 -15 30.3 3.5
-6 -4 15 30.3 2.7
-6 -4 15 30.3 3
0 5 -15 34.5 2.4
0 5 -15 31.8 2.4
0 -5 15 32.9 1.8
0 -5 15 34.6 2.9
1 -5 15 8.5 1.1
1 5 -15 7.6 1.6
1 5 -15 9.9 1.8
1 -5 15 7.1 2.1
-1 5 -15 6.9 1.6
-1 -5 15 8.4 1.2
-1 5 -15 7.5 1.6
-1 -5 15 2.5 1.5
2 -5 15 95.09 4.4
2 5 -15 95.19 4.6
2 -5 15 96.29 3.1
2 5 -15 97.99 3.8
-2 5 -15 101.19 3.9
-2 -5 15 106.19 3.9
-2 5 -15 98.39 4.2
-2 -5 15 102.49 3.2
3 5 -15 16.5 1.8
3 -5 15 14.4 1.6
3 -5 15 14.9 2.2
3 5 -15 20.6 2.8
-3 -5 15 15.1 1.9
-3 5 -15 12.1 2.1
-3 5 -15 18.1 2.1
-3 -5 15 17.8 1.7
4 -5 15 2.5 1.6
4 5 -15 6.1 1.9
4 5 -15 2.5 1.2
-4 -5 15 3 1.1
-4 5 -15 3 1.3
-4 -5 15 4.2 1.4
5 5 -15 30.3 3.6
5 5 -15 31 2.7
5 -5 15 26.4 3.4
-5 5 -15 25.5 2.7
-5 -5 15 26.8 2.6
-5 -5 15 31 2.7
6 -5 15 27.2 3.8
6 5 -15 31.2 3.1
6 5 -15 32.4 4
6 -5 15 31.8 2.8
-6 -5 15 27.4 2.9
-6 5 -15 31.8 3.4
-6 -5 15 33.4 3
0 6 -15 62.79 3.4
0 -6 15 64.89 2.7
0 6 -15 60.59 3.3
0 -6 15 63.39 4
1 6 -15 60.29 3.3
1 -6 15 57.39 2.4
1 -6 15 57.39 3.9
1 6 -15 55.39 3.5
-1 -6 15 58.29 3.6
-1 6 -15 58.79 3.5
-1 -6 15 55.69 2.6
-1 6 -15 61.19 3.1
2 6 -15 129.49 5.8
2 6 -15 132.69 4.8
2 -6 15 134.19 5.5
2 -6 15 140.19 4.1
-2 -6 15 144.09 4.1
-2 6 -15 132.69 5.3
-2 -6 15 136.59 5
-2 6 -15 136.99 4.8
3 -6 15 24.8 3
3 6 -15 27 2.5
3 -6 15 30.7 2.3
3 6 -15 30.2 3.5
-3 -6 15 24.2 2.7
-3 6 -15 22.9 2.7
-3 6 -15 29.2 2.5
-3 -6 15 30.4 2.1
4 6 -15 75.19 4.7
4 6 -15 71.89 3.7
4 -6 15 70.59 4.8
-4 6 -15 71.19 4.3
-4 6 -15 75.79 4
-4 -6 15 71.19 3.8
-4 -6 15 76.19 3.3
5 6 -15 1.3 1.3
5 -6 15 0.7 2.1
5 6 -15 2.1 1.7
-5 -6 15 3.6 1.6
-5 -6 15 3.5 1.5
-5 6 -15 2.7 1.5
6 6 -15 60.69 5
6 6 -15 66.89 4.2
6 -6 15 66.29 4.5
6 -6 15 60.89 6.1
-6 -6 15 58.59 4.1
-6 -6 15 66.79 3.8
-6 6 -15 60.69 4.8
0 -7 15 13.1 2.8
0 -7 15 13.9 1.7
0 7 -15 12.2 2
0 7 -15 11.4 1.9
1 -7 15 0 1.1
1 7 -15 0.6 1.3
1 7 -15 2.5 1.4
1 -7 15 1.1 2.1
-1 7 -15 0.1 1.1
-1 -7 15 -0.3 1.9
-1 7 -15 1 1.2
-1 -7 15 1 1.1
2 -7 15 12.1 1.8
2 7 -15 11 1.9
2 -7 15 10.3 2.7
2 7 -15 11.8 2.6
-2 7 -15 11.9 1.9
-2 -7 15 10.6 1.6
-2 7 -15 11.5 2.1
-2 -7 15 8.6 2.2
3 -7 15 52.59 4.5
3 7 -15 50.19 4
3 7 -15 48.9 3.1
-3 7 -15 44 3.4
-3 -7 15 47.5 2.7
-3 -7 15 48.1 3.6
-3 7 -15 45.2 3.1
4 -7 15 2.5 2.7
4 7 -15 2.4 1.5
4 7 -15 0.4 1.6
-4 7 -15 2.2 1.8
-4 7 -15 1.9 1.5
-4 -7 15 2.9 2
-4 -7 15 3.7 1.6
5 7 -15 39.3 3.1
5 -7 15 30.7 4.1
5 7 -15 26.9 3.4
-5 7 -15 33.8 3.7
-5 -7 15 34.5 2.8
-5 7 -15 36.5 3.2
-5 -7 15 36.4 3.6
0 8 -15 2.1 1.3
0 8 -15 3.2 1.6
0 -8 15 2.1 2.4
0 -8 15 3 1.4
1 8 -15 106.09 5.3
1 -8 15 96.09 5.6
1 -8 15 108.39 3.9
1 8 -15 106.49 4.9
-1 -8 15 109.79 4
-1 8 -15 111.59 4.9
-1 8 -15 111.39 4.7
-1 -8 15 107.49 5.2
2 -8 15 15.3 3.2
2 8 -15 17.3 2.5
2 8 -15 13.6 2.7
2 -8 15 15.7 2
-2 -8 15 12.7 2.8
-2 -8 15 22.4 2.2
-2 8 -15 16.2 2.3
-2 8 -15 15.8 2.5
3 -8 15 3.4 2.7
3 8 -15 2.3 1.7
3 8 -15 1.8 1.6
-3 8 -15 0.4 1.1
-3 8 -15 0.6 1.3
-3 -8 15 -2.8 2.2
-3 -8 15 -0.7 1.4
4 8 -15 27.3 3.6
4 -8 15 28.3 4.1
-4 -8 15 31.4 2.7
-4 8 -15 31.4 3.1
-4 8 -15 28 3.4
-4 -8 15 28.5 3.2
0 -9 15 8.7 3
0 -9 15 8.4 1.8
0 9 -15 7.4 2
0 9 -15 7.9 1.8
1 9 -15 4.3 1.8
1 9 -15 2.2 1.9
1 -9 15 3.4 3
1 -9 15 3.2 1.7
-1 9 -15 4.7 1.6
-1 -9 15 4.3 1.8
-1 9 -15 3.6 1.5
-1 -9 15 3.9 2.8
2 9 -15 5.6 1.9
2 -9 15 6.2 1.7
2 -9 15 8.6 2.9
2 9 -15 5.8 2.3
-2 -9 15 8.3 1.9
-2 -9 15 6.6 2.8
-2 9 -15 7.9 2.1
-2 9 -15 6.9 1.7
3 9 -15 7.2 2.3
3 9 -15 8.7 2.2
3 -9 15 10.2 3.4
-3 -9 15 10.8 2.6
-3 9 -15 8.3 1.9
-3 9 -15 11 2.5
-3 -9 15 9.8 1.9
0 10 -15 12.8 2.2
0 -10 15 17.1 2.1
0 10 -15 16.9 2.7
0 -10 15 14.9 3.4
1 -10 15 6.1 3.3
1 -10 15 11.4 2.1
1 10 -15 7 1.9
1 10 -15 14.8 3
-1 -10 15 9.3 2.9
-1 10 -15 7 2
-1 -10 15 12.3 1.9
-1 10 -15 6.5 2
2 10 -15 9 2.6
2 -10 15 8.3 3.7
2 -10 15 6.5 2
2 10 -15 7.6 2.1
-2 -10 15 9 2.1
-2 10 -15 8.2 2
-2 -10 15 8.6 2.8
-2 10 -15 10.9 2.4
0 0 -16 1401.56 22.3
0 0 -16 1391.06 21.7
0 0 16 1446.66 22
0 0 16 1422.16 22.1
-1 0 -16 32.6 2.1
1 0 16 31.1 1.4
-1 0 -16 27.8 2.9
-1 0 16 31.5 1.3
-1 0 16 30.9 1.6
1 0 -16 28.4 2.3
1 0 -16 31.9 2
1 0 16 34.2 2.4
-2 0 16 64.99 2.4
-2 0 16 67.09 2.2
2 0 -16 65.79 3.4
2 0 -16 58.79 2.7
3 0 -16 214.68 5.4
3 0 -16 221.08 6.2
-3 0 16 221.18 5
-3 0 16 223.58 5.2
-4 0 16 -0.8 0.6
4 0 -16 -0.3 1.7
4 0 -16 0.4 1.5
-4 0 16 0.5 0.7
-5 0 16 37.8 2.3
5 0 -16 39.8 3.8
-5 0 16 38.5 2.3
5 0 -16 36.8 3.3
-6 0 16 1.1 1
6 0 -16 -0.3 2.2
6 0 -16 2.1 2
-6 0 16 -0.5 0.9
7 0 -16 -2.3 2.1
-7 0 16 -1 0.9
7 0 -16 -1 2.4
-7 0 16 -1.3 1
0 1 -16 7.6 1.4
0 -1 16 7.5 0.9
0 -1 16 10.2 1.3
0 1 -16 11.7 1.5
1 -1 16 294.27 6.7
1 1 -16 300.07 7.2
1 -1 16 298.07 5.5
1 1 -16 299.27 6.3
-1 -1 16 308.47 5.6
-1 1 -16 292.07 6.7
-1 1 -16 296.87 6.3
-1 -1 16 313.97 6.4
2 1 -16 17.8 2.3
2 -1 16 19.1 1.7
2 1 -16 18.1 1.8
-2 1 16 17.5 1.3
-2 1 16 19.8 1.2
2 -1 16 17 1.1
2 -1 -16 21.2 2.1
-2 1 -16 20.4 2.1
2 -1 -16 19.4 2
-2 -1 16 16.1 1.5
-2 -1 16 17.7 1.2
-2 1 -16 24.1 2.3
3 1 -16 22.5 2
-3 1 16 19.1 1.5
3 1 -16 21.5 2.6
-3 1 16 23.6 1.7
3 -1 16 20.9 2.1
-3 -1 16 20.4 1.7
3 -1 -16 22.7 2.3
-3 1 -16 21.9 2.1
-3 -1 16 18.8 1.6
3 -1 -16 18.1 2.3
4 -1 16 83.49 3.9
-4 1 16 88.49 3.1
4 1 -16 83.99 4.4
4 1 -16 89.19 3.9
-4 1 16 86.09 3
-4 -1 16 88.69 3.2
4 -1 -16 76.59 4.2
-4 1 -16 84.99 3.6
-4 -1 16 84.89 3.1
4 -1 -16 90.89 3.8
5 1 -16 3.8 1.8
5 1 -16 3.8 2.2
-5 1 16 3.8 1
-5 1 16 4.4 0.9
-5 -1 16 2.7 1.2
-5 -1 16 2.2 0.9
5 -1 -16 3.6 1.8
5 -1 -16 3.1 2.2
-6 1 16 16.9 1.8
6 1 -16 17.4 2.5
-6 1 16 20 1.9
6 1 -16 19.6 3.3
6 -1 -16 18.2 2.8
6 -1 -16 16.2 3.1
-6 -1 16 18.5 2.1
-6 -1 16 19.1 2.1
-7 1 16 0.8 0.9
7 1 -16 -1.4 2.7
7 1 -16 1.3 2.1
7 -1 -16 1.4 2.5
7 -1 -16 0.9 2
-7 -1 16 0.6 1.2
-7 -1 16 1.5 1.3
0 2 -16 438.86 8.6
0 -2 16 445.46 9
0 -2 16 437.46 7.7
0 2 -16 437.06 8.9
1 -2 16 46.3 1.7
1 -2 16 47.2 2.5
1 2 -16 47.2 2.4
1 2 -16 45.8 2.9
-1 2 -16 42.7 2.7
-1 -2 16 45.7 1.8
-1 2 -16 42.9 2.3
-1 -2 16 46.6 2.3
2 2 -16 108.89 3.6
2 -2 16 114.39 4.1
2 -2 16 110.69 2.9
2 2 -16 115.79 4.7
-2 -2 16 101.39 3.5
-2 2 -16 115.89 4.2
-2 2 -16 115.09 3.7
-2 -2 16 112.29 3.1
3 -2 16 142.59 4.9
3 2 -16 140.79 5.6
3 2 -16 144.59 4.4
-3 2 -16 146.19 4.5
-3 -2 16 139.49 4.2
-3 -2 16 136.99 3.9
4 -2 16 7 1.8
-4 2 16 7.9 1.4
4 2 -16 7.3 1.5
4 2 -16 11.7 2.4
-4 2 16 8.4 1.3
4 -2 -16 6.7 2.4
-4 -2 16 7 1.1
4 -2 -16 4.8 3.4
-4 2 -16 5.7 1.6
-4 -2 16 7 1.3
5 2 -16 5.9 1.6
-5 2 16 9.2 1.3
5 -2 16 6.9 1.7
-5 2 16 8.1 1.2
5 2 -16 8 2.3
5 -2 16 11.6 1.2
-5 -2 16 6.1 1.2
5 -2 -16 10.1 2.4
-5 -2 16 10 1.5
5 -2 -16 8.2 1.9
-5 2 -16 7.2 1.8
6 -2 16 34 2.7
6 -2 16 40.3 3.5
-6 2 16 38.6 2.5
-6 2 16 43.1 2.6
6 2 -16 39.3 3.6
6 2 -16 40.8 4
6 -2 -16 37 3.4
-6 -2 16 43.2 2.8
6 -2 -16 40.6 4.3
-6 2 -16 40.8 3.7
-6 -2 16 42.4 2.8
-7 2 16 12.8 2
7 2 -16 11.8 3
-7 2 16 11.5 1.7
7 2 -16 13 2.6
7 -2 -16 13 3.2
-7 -2 16 12.6 2.1
-7 -2 16 10.3 1.9
7 -2 -16 12.7 2.6
0 3 -16 12.2 1.5
0 -3 16 9.4 1.6
0 3 -16 13.3 1.7
0 -3 16 9.3 1
1 -3 16 65.49 3.2
1 -3 16 64.89 2.2
1 3 -16 66.69 2.8
1 3 -16 67.29 3.5
-1 3 -16 62.59 3.1
-1 3 -16 61.49 2.7
-1 -3 16 70.29 3
-1 -3 16 61.79 2.2
2 -3 16 22.3 2.3
2 3 -16 21.8 1.9
2 3 -16 25.1 2.8
2 -3 16 23.4 1.4
-2 -3 16 24 1.4
-2 -3 16 20.3 2
-2 3 -16 22.1 2
-2 3 -16 21.2 2.3
3 -3 16 67.29 2.6
3 3 -16 72.39 3.1
3 -3 16 69.39 3.6
3 3 -16 73.69 4.1
-3 3 -16 69.49 3.2
-3 -3 16 67.89 2.7
-3 -3 16 70.59 3
4 -3 16 106.29 4.8
4 3 -16 115.19 4.2
4 3 -16 107.59 5
-4 -3 16 103.09 3.6
-4 -3 16 104.49 3.9
-4 3 -16 106.99 4.3
5 3 -16 10.1 2
5 -3 16 7.6 2.2
5 3 -16 8.4 2.4
-5 -3 16 10 1.6
-5 3 -16 8.2 1.9
-5 -3 16 6.8 1.5
6 3 -16 23.6 3.6
6 3 -16 27.9 3
6 -3 16 22.2 3.1
6 -3 16 20.2 2.2
-6 3 -16 22.5 2.9
-6 -3 16 24.5 2.4
-6 -3 16 23.9 2.6
7 -3 16 7.1 2.4
7 -3 16 8.8 1.4
-7 3 -16 8 2.3
0 -4 16 80.39 2.6
0 -4 16 74.39 3.7
0 4 -16 80.69 3.5
0 4 -16 80.19 3.4
1 -4 16 58.39 2.3
1 4 -16 61.59 3
1 -4 16 61.69 3.3
1 4 -16 60.79 3.5
-1 -4 16 60.79 2.4
-1 4 -16 55.59 3.3
-1 4 -16 59.59 2.8
-1 -4 16 54.19 2.9
2 -4 16 32 2.7
2 -4 16 33.4 1.7
2 4 -16 32.2 3.1
2 4 -16 35.5 2.4
-2 -4 16 32.4 1.8
-2 4 -16 33.1 2.7
-2 -4 16 30.3 2.3
-2 4 -16 30.6 2.2
3 -4 16 60.99 3.5
3 4 -16 59.09 3
3 -4 16 56.19 2.4
3 4 -16 53.69 3.9
-3 -4 16 51.59 2.8
-3 -4 16 59.99 2.5
-3 4 -16 55.99 3
-3 4 -16 55.29 3.5
4 -4 16 -0.3 1.6
4 4 -16 0.6 1.6
4 4 -16 1.6 1.1
-4 -4 16 3 1.1
-4 4 -16 0.4 1.1
-4 -4 16 1.4 0.9
5 -4 16 45.4 3.8
5 4 -16 43.4 3.1
5 4 -16 39.7 3.8
-5 -4 16 40 2.7
-5 -4 16 41.7 2.7
-5 4 -16 42.4 3.3
6 -4 16 25.7 3.4
6 4 -16 31.9 2.8
6 4 -16 34.8 3.9
6 -4 16 35.8 2.6
-6 -4 16 33.3 2.9
-6 4 -16 32.2 3.6
-6 -4 16 28.2 3
0 5 -16 91.19 3.8
0 -5 16 90.89 2.9
0 5 -16 93.99 4
0 -5 16 83.39 4.1
1 -5 16 42.7 2
1 5 -16 42 2.9
1 5 -16 42.8 2.8
1 -5 16 45.9 3.2
-1 -5 16 43.3 2.1
-1 -5 16 38.4 2.9
-1 5 -16 42.1 3
-1 5 -16 46.1 2.7
2 -5 16 60.69 3.7
2 -5 16 65.49 2.6
2 5 -16 62.09 4.1
2 5 -16 60.09 3.1
-2 -5 16 63.19 3.2
-2 5 -16 64.99 3.2
-2 -5 16 63.09 2.5
-2 5 -16 65.99 3.6
3 -5 16 74.59 4.1
3 5 -16 77.79 3.6
3 5 -16 71.89 4.2
3 -5 16 77.29 3
-3 5 -16 69.59 4
-3 5 -16 75.89 3.6
-3 -5 16 67.09 3.5
-3 -5 16 74.49 2.9
4 -5 16 71.59 4.3
4 5 -16 68.19 3.5
4 5 -16 69.39 4.5
-4 5 -16 73.39 3.8
-4 -5 16 67.79 3.4
-4 -5 16 69.59 3.1
5 -5 16 33.2 3.9
5 5 -16 38.1 3.2
5 5 -16 38.6 3.8
-5 5 -16 41 3.2
-5 -5 16 43.1 3.1
-5 -5 16 39.8 2.8
6 -5 16 37.9 3.1
6 -5 16 32.1 3.9
6 5 -16 41.6 3.3
6 5 -16 34.8 4
-6 -5 16 33.2 3.3
-6 -5 16 36.3 3.1
-6 5 -16 31.2 3.5
0 -6 16 2.4 1.5
0 6 -16 2.8 1.4
0 -6 16 1.3 1
0 6 -16 2.3 1.1
1 -6 16 27 3
1 6 -16 24.5 2.5
1 -6 16 26.3 2
1 6 -16 20.5 2.5
-1 -6 16 23.4 2.6
-1 6 -16 23.9 2.8
-1 6 -16 23.8 2.3
-1 -6 16 24.3 2
2 6 -16 11.6 1.9
2 -6 16 9.4 2.2
2 -6 16 12.8 1.5
2 6 -16 9.9 2.3
-2 -6 16 12.3 2.1
-2 6 -16 8.9 1.8
-2 6 -16 11.3 1.9
-2 -6 16 12.2 1.6
3 -6 16 16.6 1.9
3 6 -16 13.7 2.5
3 -6 16 12.8 2.5
3 6 -16 14 1.9
-3 6 -16 16.3 2.4
-3 6 -16 19.1 2.2
-3 -6 16 19 2
-3 -6 16 15.6 2.1
4 -6 16 10.7 2.7
4 6 -16 12.6 2.6
4 6 -16 9.6 1.8
-4 -6 16 10.9 1.7
-4 6 -16 7.5 2.3
-4 -6 16 10 2
-4 6 -16 9.2 1.9
5 6 -16 64.79 3.8
5 6 -16 65.89 4.6
5 -6 16 65.49 4.8
-5 -6 16 65.99 4
-5 6 -16 68.39 4
-5 -6 16 65.59 3.5
0 7 -16 108.59 4.5
0 7 -16 99.59 4.7
0 -7 16 108.19 3.8
0 -7 16 103.39 5.4
1 7 -16 32.5 2.7
1 -7 16 26.4 3.3
1 -7 16 30.4 2.4
1 7 -16 31.9 3
-1 7 -16 31.7 2.8
-1 -7 16 22.5 2.8
-1 -7 16 33.9 2.4
-1 7 -16 32.6 3
2 -7 16 33 2.6
2 -7 16 24.7 3.4
2 7 -16 31 3.8
2 7 -16 26.7 2.9
-2 7 -16 29.8 3.1
-2 -7 16 30.4 3.3
-2 -7 16 28.1 2.5
-2 7 -16 29.7 2.7
3 7 -16 8.7 2.2
3 7 -16 8.3 1.9
3 -7 16 8.2 2.4
-3 7 -16 7 1.7
-3 7 -16 9.3 1.7
-3 -7 16 10 2.3
-3 -7 16 11.8 1.8
4 -7 16 29.7 3.7
4 7 -16 37.6 3.1
4 7 -16 37.6 3.8
-4 -7 16 33.6 3.4
-4 7 -16 35.8 3.2
-4 -7 16 36.7 2.8
-4 7 -16 29.9 3.4
5 -7 16 13.2 3.2
5 7 -16 14.6 2.8
5 7 -16 17.2 2.5
-5 -7 16 14.4 2.1
-5 -7 16 9.5 2.4
-5 7 -16 13.8 2.9
-5 7 -16 15.1 2.4
0 -8 16 14.6 1.9
0 8 -16 20.5 2.5
0 8 -16 19.7 2.7
0 -8 16 17.8 3.3
1 8 -16 24.9 3.3
1 -8 16 21.7 3.6
1 8 -16 23.5 2.9
1 -8 16 27.3 2.5
-1 -8 16 25.8 2.6
-1 8 -16 27.1 2.8
-1 -8 16 26.8 3.2
-1 8 -16 28.6 2.8
2 -8 16 16.7 3.4
2 8 -16 19 3.3
2 -8 16 23.5 2.5
2 8 -16 23.7 2.9
-2 8 -16 23.6 3
-2 -8 16 23.2 2.5
-2 8 -16 22.1 2.8
-2 -8 16 14.8 2.9
3 8 -16 10.2 2.2
3 -8 16 8.9 3
3 8 -16 10.3 2.5
-3 8 -16 10.6 2
-3 8 -16 10.1 2.3
-3 -8 16 8.1 2.6
-3 -8 16 12 2
4 -8 16 5.9 2.9
4 8 -16 6.5 1.8
4 8 -16 2.4 1.9
-4 -8 16 4.1 1.7
-4 -8 16 4.3 2.3
-4 8 -16 3.2 1.7
-4 8 -16 8 2.1
0 9 -16 37.1 3.7
0 -9 16 39.1 3.1
0 9 -16 35 3.1
0 -9 16 33.2 4
1 9 -16 1.4 1.5
1 -9 16 0.2 1.5
1 -9 16 -1.5 2.7
1 9 -16 -1.4 1.6
-1 -9 16 0.4 1.6
-1 -9 16 -0.7 2.3
-1 9 -16 -0.5 1.2
-1 9 -16 -1 1.2
2 9 -16 43.2 4.2
2 9 -16 44.2 3.7
2 -9 16 46.7 5.2
2 -9 16 47.4 3.3
-2 9 -16 40.6 3.7
-2 -9 16 45.7 3.2
-2 -9 16 44.2 4.4
-2 9 -16 47.2 3.5
3 -9 16 14.4 3.4
3 9 -16 10.1 2.7
3 9 -16 17.9 2.8
-3 -9 16 17.4 2.2
-3 -9 16 21.7 3.1
-3 9 -16 11.7 2.4
-3 9 -16 15.7 2.4
0 -10 16 25.1 4
0 10 -16 24.4 3
0 -10 16 36.4 2.9
0 10 -16 39.4 3.7
1 10 -16 49.4 4.4
1 -10 16 43.1 3.2
1 10 -16 40 3.4
1 -10 16 27.6 4
-1 10 -16 34.9 3.4
-1 10 -16 47.4 4
-1 -10 16 35.1 4.1
-1 -10 16 42.9 3.1
0 0 17 1.1 0.7
0 0 17 0.6 0.4
0 0 -17 -0.2 1.1
0 0 -17 0 1.1
1 0 -17 46 2.5
-1 0 17 43.3 1.6
1 0 -17 46.2 2.9
-1 0 17 42 1.9
-2 0 17 4.2 1
2 0 -17 1.3 1.7
-2 0 17 4 0.8
2 0 -17 0.6 1.2
3 0 -17 2.4 1.6
-3 0 17 0.9 0.6
3 0 -17 1.9 1.4
-3 0 17 0.3 0.7
4 0 -17 58.39 3.5
-4 0 17 59.29 2.6
4 0 -17 62.49 4.1
-4 0 17 61.29 2.6
-5 0 17 54.89 2.7
-5 0 17 52.39 2.7
5 0 -17 53.39 4.3
5 0 -17 52.39 3.6
6 0 -17 24.4 3
-6 0 17 30.1 2.3
6 0 -17 33.8 4
-6 0 17 30.6 2.3
-7 0 17 29.8 2.5
7 0 -17 25 3.8
-7 0 17 27.1 2.4
7 0 -17 27.2 3.4
0 1 -17 1.2 1.1
0 -1 17 0.4 0.8
0 -1 17 2 0.5
0 1 -17 0.3 1.1
1 -1 17 99.99 2.6
1 1 -17 105.09 4.3
1 1 -17 98.99 3.4
1 -1 17 103.69 3.6
-1 -1 17 100.59 2.7
-1 1 -17 102.99 3.4
-1 1 -17 106.59 3.8
-1 -1 17 101.69 3.2
2 -1 17 26.5 2.2
2 1 -17 29 2.3
2 -1 17 26.4 1.4
2 1 -17 29.1 3
-2 -1 17 28.5 1.5
-2 1 -17 24.6 2.4
-2 1 -17 32.3 2.4
-2 -1 17 30.7 2.1
-3 1 17 57.39 2.3
3 1 -17 56.09 3
3 -1 17 51.59 2.9
3 1 -17 58.69 3.8
-3 1 17 58.39 2.3
-3 -1 17 56.09 2.3
-3 -1 17 54.89 2.5
3 -1 -17 54.89 2.9
3 -1 -17 57.09 3.6
-3 1 -17 60.49 3
-3 1 -17 57.69 3.4
4 1 -17 15.4 2.7
-4 1 17 15.8 1.6
4 1 -17 18.3 2.2
-4 1 17 17.9 1.6
-4 -1 17 18.4 1.6
-4 -1 17 19 1.7
4 -1 -17 12.1 2.4
4 -1 -17 14 2.1
5 1 -17 11.9 2.6
5 1 -17 14 2.3
-5 1 17 14.8 1.6
-5 1 17 11.9 1.5
-5 -1 17 11.4 1.7
5 -1 -17 12 2.7
-5 -1 17 13.3 1.6
5 -1 -17 11.6 2.3
6 1 -17 3 2.5
-6 1 17 3.8 1
-6 1 17 3.9 1.2
6 1 -17 3.1 2.1
6 -1 -17 1.4 2.1
-6 -1 17 2.5 1.3
6 -1 -17 3.7 2.4
-6 -1 17 2.8 1.1
-7 1 17 1.7 1.3
7 1 -17 -1.8 2.7
7 1 -17 0.8 2.2
-7 1 17 1.3 1.2
7 -1 -17 3.5 2.8
7 -1 -17 1.6 2.4
-7 -1 17 2.5 1.3
-7 -1 17 3.6 1.4
0 -2 17 0.8 0.9
0 -2 17 1.3 0.5
0 2 -17 1.7 1.1
0 2 -17 1.6 1.2
1 2 -17 100.89 4.3
1 -2 17 104.19 3.9
1 -2 17 105.39 2.8
1 2 -17 106.79 3.6
-1 2 -17 95.79 3.9
-1 -2 17 100.99 3.5
-1 -2 17 99.09 2.8
-1 2 -17 101.19 3.5
2 2 -17 3.1 1.2
2 -2 17 2.4 0.7
2 2 -17 3.1 1.7
2 -2 17 4.3 1.2
-2 -2 17 4.2 0.8
-2 -2 17 1.4 0.9
-2 2 -17 2.2 1.1
-2 2 -17 1.9 1.4
3 2 -17 4.8 1.8
3 -2 17 3.7 1.3
3 2 -17 5.3 1.4
-3 2 -17 3.8 1.7
-3 -2 17 4.3 1.1
-3 2 -17 2.3 1.1
-3 -2 17 4 0.9
4 2 -17 23.9 3
4 -2 17 22.1 2.6
4 2 -17 22.8 2.5
-4 -2 17 26.9 2.2
-4 -2 17 23.5 1.9
-4 2 -17 23.1 2.5
5 2 -17 10.1 2
5 2 -17 11.3 2.8
5 -2 17 11.3 2.3
-5 2 -17 9.8 2
-5 -2 17 16.1 1.8
-5 -2 17 12.8 1.6
-6 2 17 26.3 2.1
6 -2 17 16.6 4
6 2 -17 29.2 3.2
-6 2 17 20.7 2
6 -2 17 20.8 3.3
6 2 -17 24.8 3.7
-6 -2 17 22.1 2.4
6 -2 -17 18 3.2
6 -2 -17 18.9 2.8
-6 2 -17 23.9 3.5
-6 -2 17 24.2 2.2
-7 2 17 62.59 3.2
-7 2 17 70.19 3.4
7 -2 -17 64.29 5.3
7 -2 -17 65.79 4.5
0 3 -17 0.7 1.1
0 -3 17 0.8 0.6
0 3 -17 2.2 1.1
0 -3 17 1 1.1
1 -3 17 62.29 2.2
1 3 -17 64.09 3.6
1 3 -17 60.59 3
1 -3 17 58.99 3.3
-1 3 -17 57.79 2.8
-1 3 -17 57.59 3.2
-1 -3 17 64.89 3
-1 -3 17 57.99 2.2
2 3 -17 14.8 1.9
2 3 -17 15.1 2.5
2 -3 17 14.3 1.2
2 -3 17 11.4 2
-2 3 -17 15.6 2
-2 3 -17 11.9 1.8
-2 -3 17 12.5 1.7
-2 -3 17 13.7 1.2
3 -3 17 80.29 3.9
3 -3 17 68.89 2.7
3 3 -17 82.59 4.5
3 3 -17 76.59 3.4
-3 3 -17 74.79 4
-3 -3 17 73.69 3.2
-3 3 -17 71.89 3.4
-3 -3 17 74.59 2.8
4 -3 17 41 3.3
4 3 -17 45.9 3.8
4 3 -17 43.3 3
-4 -3 17 43.1 2.4
-4 3 -17 46.5 3.1
-4 -3 17 41.8 2.6
5 -3 17 27.6 3.1
5 3 -17 29.9 3.7
5 3 -17 27.6 2.7
-5 3 -17 28.6 3
-5 -3 17 22.2 2.3
-5 -3 17 25.1 2.1
6 3 -17 14.4 3.1
6 -3 17 11.3 1.7
6 3 -17 12.3 2.3
6 -3 17 14.7 2.8
-6 -3 17 12.2 1.9
-6 3 -17 14 2.6
-6 -3 17 15 2.1
0 -4 17 62.49 2.4
0 4 -17 57.19 3.3
0 4 -17 64.39 3.1
0 -4 17 63.49 3.6
1 -4 17 14.7 1.3
1 4 -17 14.2 2.2
1 -4 17 19.2 2.4
1 4 -17 16.1 2.1
-1 -4 17 13.9 1.8
-1 4 -17 17.4 2
-1 -4 17 17.7 1.4
-1 4 -17 12.9 2.1
2 4 -17 36.8 2.5
2 -4 17 34.9 2.8
2 4 -17 37.5 3.4
2 -4 17 35.4 1.8
-2 4 -17 34.1 2.9
-2 -4 17 35.3 1.9
-2 4 -17 34 2.4
-2 -4 17 30.3 2.5
3 -4 17 5.1 1.2
3 4 -17 5.4 2
3 4 -17 5.1 1.3
3 -4 17 7.4 1.9
-3 4 -17 3.5 2
-3 4 -17 5.2 1.3
-3 -4 17 6 1.4
-3 -4 17 4.7 1
4 4 -17 2.3 1.8
4 -4 17 0.1 1.2
4 4 -17 0.2 1.1
-4 -4 17 0.5 0.8
-4 4 -17 1.3 1.3
-4 -4 17 1 1
5 -4 17 27.4 3.4
5 4 -17 23.2 3
5 4 -17 25 2.7
-5 -4 17 23.1 2.3
-5 4 -17 24.3 2.9
-5 -4 17 29.7 2.5
6 -4 17 11.5 1.8
6 -4 17 12.4 2.7
6 4 -17 14 3.1
6 4 -17 9.9 2.1
-6 4 -17 10.7 2.4
-6 -4 17 13.4 2.1
-6 -4 17 9.9 2.1
0 5 -17 9.1 1.8
0 -5 17 11.3 2
0 5 -17 12.2 1.9
0 -5 17 10.3 1.3
1 -5 17 68.29 2.6
1 -5 17 67.99 3.7
1 5 -17 67.69 3.6
1 5 -17 69.79 3.9
-1 -5 17 69.89 2.7
-1 -5 17 70.49 3.5
-1 5 -17 67.09 3.3
-1 5 -17 71.69 3.8
2 5 -17 46.4 3.6
2 -5 17 43.1 2.2
2 -5 17 44 3.2
2 5 -17 42.2 2.8
-2 -5 17 43 2.2
-2 -5 17 44.3 2.8
-2 5 -17 49.9 3
-2 5 -17 41.3 3.1
3 5 -17 139.19 6
3 5 -17 134.09 4.9
3 -5 17 133.59 5.5
3 -5 17 132.39 4.1
-3 5 -17 143.39 5
-3 5 -17 127.69 5.4
-3 -5 17 139.19 4.1
-3 -5 17 128.09 4.8
4 5 -17 36.4 2.8
4 -5 17 32.8 3.3
4 5 -17 34.8 3.7
-4 5 -17 35.5 3.6
-4 -5 17 35.4 2.7
-4 5 -17 34.4 2.9
-4 -5 17 37.2 2.4
5 -5 17 24.4 3.2
5 5 -17 25.1 3.4
5 5 -17 26.9 2.9
-5 -5 17 26.3 2.6
-5 -5 17 26.5 2.5
-5 5 -17 27.9 3.1
6 5 -17 15 3.4
6 -5 17 14.2 2.1
6 -5 17 5.5 2.7
6 5 -17 11.8 2.3
-6 -5 17 14.9 2.1
-6 -5 17 13.3 2.3
-6 5 -17 17.6 2.9
0 -6 17 17.7 2.8
0 -6 17 17.6 1.8
0 6 -17 17.4 2.2
0 6 -17 13.6 2.2
1 -6 17 59.09 4.1
1 6 -17 62.29 4
1 -6 17 61.59 2.7
1 6 -17 66.09 3.6
-1 -6 17 56.19 3.6
-1 -6 17 66.49 2.8
-1 6 -17 58.69 3.7
-1 6 -17 63.79 3.5
2 -6 17 36.9 3.5
2 6 -17 37.7 3
2 -6 17 35.5 2.2
2 6 -17 35.7 3.6
-2 6 -17 36.9 2.8
-2 -6 17 37 2.3
-2 -6 17 35.9 3
-2 6 -17 32.1 3.1
3 6 -17 1.8 1.8
3 -6 17 1.7 1.8
3 6 -17 2.1 1.3
3 -6 17 -2 1
-3 -6 17 0.1 1.5
-3 -6 17 0 1.1
-3 6 -17 1.4 1.5
-3 6 -17 -0.3 1
4 6 -17 2 1.3
4 -6 17 0.1 2
4 6 -17 3.2 2
-4 6 -17 1.2 1.3
-4 -6 17 2.2 1.6
-4 6 -17 1.4 1.9
-4 -6 17 1.1 1.2
5 6 -17 8.5 1.9
5 6 -17 8.9 2.5
5 -6 17 8.4 2.6
-5 -6 17 9.5 2.3
-5 6 -17 10.2 2.6
-5 -6 17 10.1 1.7
-5 6 -17 11.7 2.3
0 7 -17 15 2.4
0 -7 17 12.6 2.7
0 7 -17 18 2.3
0 -7 17 16.9 2
1 7 -17 17.1 2.9
1 7 -17 16.2 2.1
1 -7 17 20.1 2.2
1 -7 17 11.3 2.9
-1 -7 17 18 2.1
-1 -7 17 16.8 2.6
-1 7 -17 20.6 2.7
-1 7 -17 19.2 2.5
2 7 -17 8.3 2.4
2 7 -17 8.7 2.1
2 -7 17 11.2 1.8
2 -7 17 11.5 2.7
-2 7 -17 8.6 1.8
-2 7 -17 10.6 2.3
-2 -7 17 11.1 1.9
-2 -7 17 10.2 2.4
3 7 -17 104.29 4.7
3 7 -17 104.89 5.7
3 -7 17 101.79 5.8
3 -7 17 107.69 4.2
-3 -7 17 105.89 4
-3 7 -17 94.79 5.1
-3 7 -17 102.89 4.6
-3 -7 17 103.49 4.9
4 7 -17 63.99 3.9
4 -7 17 58.09 5.1
4 7 -17 64.99 4.8
-4 -7 17 66.19 3.5
-4 -7 17 57.99 3.9
-4 7 -17 62.39 4
-4 7 -17 57.89 4.4
5 -7 17 29.6 6.1
5 7 -17 28.1 3.9
5 7 -17 24.1 3.1
-5 -7 17 23.8 3
-5 7 -17 28.4 5.6
-5 7 -17 27 4.4
-5 -7 17 27.3 3.1
0 -8 17 33.4 2.7
0 -8 17 28.9 3.7
0 8 -17 33.3 3
0 8 -17 28.2 3.4
1 8 -17 10.3 2.6
1 -8 17 11.2 3.1
1 8 -17 6.4 2
1 -8 17 10.5 1.7
-1 8 -17 10.9 2
-1 -8 17 9.8 2.6
-1 8 -17 11.8 2.1
-1 -8 17 10.6 1.8
2 8 -17 5.1 2.4
2 -8 17 5.1 1.7
2 8 -17 3.7 1.6
2 -8 17 4 2.7
-2 -8 17 1.6 2.6
-2 8 -17 2.9 1.6
-2 8 -17 3.3 1.8
-2 -8 17 5.4 1.6
3 -8 17 10.7 3.2
3 8 -17 8.6 2.3
3 8 -17 9.9 2.4
-3 8 -17 9.8 2.5
-3 -8 17 7.8 2.6
-3 8 -17 11.3 2
-3 -8 17 10.5 2
4 8 -17 7.6 2
4 8 -17 9.6 2.7
4 -8 17 10.8 3.4
-4 8 -17 8.3 2.2
-4 -8 17 8 2
-4 8 -17 9 2.5
-4 -8 17 9.4 2.5
0 9 -17 34.3 3.2
0 9 -17 36.2 3.7
0 -9 17 40.5 4.3
0 -9 17 36.2 3.2
1 9 -17 1.4 1.4
1 -9 17 1.5 1.6
1 9 -17 -1.1 1.5
1 -9 17 0.2 2.7
-1 -9 17 1.1 1.6
-1 -9 17 3.1 2.4
-1 9 -17 1.1 1.5
-1 9 -17 1.3 1.4
2 -9 17 -0.9 1.7
2 9 -17 0.8 1.8
2 9 -17 -3.1 1.6
2 -9 17 -2.6 2.5
-2 9 -17 0.6 1.2
-2 -9 17 -1.1 1.6
-2 9 -17 -0.5 1.4
-2 -9 17 2.2 2.5
3 -9 17 32.2 6.9
3 9 -17 34.3 3.7
3 9 -17 35.1 4.4
-3 9 -17 37.1 6.2
-3 -9 17 42.2 4
-3 -9 17 36.5 3.1
0 10 -17 17.3 3.8
0 -10 17 9.5 3.9
0 10 -17 15.2 2.9
0 -10 17 20.7 3.4
1 0 -18 262.77 6.8
1 0 -18 256.37 5.8
-1 0 18 252.77 5.7
-1 0 18 256.67 5
-2 0 18 7.1 1
2 0 -18 8.5 1.5
-2 0 18 7.9 1.2
2 0 -18 4.7 2
-3 0 18 4.9 0.9
3 0 -18 5.9 1.6
-3 0 18 4.4 1
3 0 -18 4.1 1.7
-4 0 18 8.4 1.3
-4 0 18 6.6 1.1
4 0 -18 6.6 1.8
4 0 -18 7.2 2.4
5 0 -18 3.3 1.9
-5 0 18 3.5 1
5 0 -18 3.2 2.4
-5 0 18 3.8 1.1
-6 0 18 91.99 3.8
6 0 -18 90.59 4.9
6 0 -18 92.59 5.7
-6 0 18 93.89 3.9
0 1 -18 5.5 1.7
0 -1 18 2.4 0.8
0 -1 18 0.9 0.7
0 1 -18 3.1 1.2
1 -1 18 2.1 0.5
1 1 -18 2.7 1.4
1 -1 18 -0.2 1.2
-1 -1 18 1.3 0.5
-1 1 -18 1.2 1.1
-1 -1 18 2.9 1
-1 1 -18 1.9 1.3
2 1 -18 63.49 3.9
2 1 -18 66.99 3.1
2 -1 18 62.09 2.1
2 -1 18 66.29 3.2
-2 -1 18 64.19 2.9
-2 1 -18 62.29 3.1
-2 -1 18 64.99 2.4
-2 1 -18 62.89 3.5
3 1 -18 1.9 1.4
3 1 -18 1.9 1.8
-3 -1 18 2 0.9
-3 -1 18 1.5 0.7
-4 1 18 3 1
4 1 -18 5.1 2.1
-4 1 18 5.1 1
4 1 -18 4.2 1.7
-4 -1 18 3 1
4 -1 -18 2.6 2.2
-4 -1 18 6.1 1.2
4 -1 -18 3.1 1.7
5 1 -18 171.78 5.7
-5 1 18 172.28 5
5 1 -18 178.68 6.9
-5 1 18 167.78 4.9
5 -1 -18 161.68 6.6
-5 -1 18 172.58 5.1
5 -1 -18 167.18 5.6
-5 -1 18 158.68 5.1
6 1 -18 3.5 2.5
6 1 -18 3.7 2.1
-6 1 18 4.3 1.2
-6 1 18 4.2 1.1
-6 -1 18 1.1 1.2
6 -1 -18 0.8 2.2
6 -1 -18 7 2.6
-6 -1 18 2.7 1.2
-7 1 18 5.5 1.5
7 -1 -18 -0.2 3.1
0 2 -18 8.5 1.5
0 -2 18 7.1 0.9
0 2 -18 3.4 1.4
0 -2 18 4.2 1.3
1 2 -18 105.99 3.7
1 -2 18 99.39 3.9
1 -2 18 104.69 2.9
1 2 -18 104.79 4.6
-1 2 -18 105.39 3.7
-1 -2 18 99.29 2.9
-1 2 -18 104.09 4.2
-1 -2 18 107.49 3.7
2 -2 18 22.8 1.4
2 -2 18 25.1 2.4
2 2 -18 22.6 2.8
2 2 -18 22.5 2.4
-2 -2 18 25 1.5
-2 2 -18 27 2.9
-2 -2 18 19.1 2
-2 2 -18 22.9 2.4
3 -2 18 28 2.5
3 2 -18 28.5 3.3
3 2 -18 26.6 2.6
-3 2 -18 25.2 2.8
-3 -2 18 27.2 1.8
-3 2 -18 22.7 2.4
-3 -2 18 21.2 2
4 2 -18 115.59 4.5
4 2 -18 116.49 5.4
4 -2 18 122.99 4.8
-4 -2 18 113.59 3.8
-4 2 -18 117.09 4.5
-4 -2 18 114.99 4.1
5 2 -18 17.3 2.5
5 -2 18 25.1 1.8
5 -2 18 15.8 2.4
5 2 -18 21.3 3.3
-5 -2 18 21.3 2
-5 -2 18 14 1.8
-5 2 -18 18.9 2.6
6 2 -18 19.8 2.8
6 2 -18 23.4 3.5
-6 -2 18 23.3 2.2
-6 -2 18 22.9 2.4
0 -3 18 31.8 1.8
0 3 -18 30.4 2.4
0 3 -18 37.5 3
0 -3 18 34.7 2.6
1 3 -18 54.89 3
1 -3 18 56.89 3.4
1 3 -18 56.29 3.7
1 -3 18 55.69 2.2
-1 -3 18 48.8 2.1
-1 3 -18 53.59 2.9
-1 3 -18 53.29 3.4
-1 -3 18 53.39 3
2 -3 18 11.2 1.1
2 3 -18 8.1 2.1
2 -3 18 7.8 1.6
2 3 -18 8.1 1.5
-2 -3 18 8.5 1.1
-2 3 -18 9 2
-2 3 -18 7.5 1.5
-2 -3 18 8.9 1.5
3 -3 18 22.5 1.8
3 3 -18 25.4 2.4
3 -3 18 31.3 2.9
3 3 -18 27.1 3.2
-3 3 -18 21.3 2.7
-3 -3 18 25.8 1.7
-3 -3 18 28.9 2.2
-3 3 -18 30.2 2.6
4 3 -18 15.1 2.6
4 3 -18 16.7 2.2
4 -3 18 12.3 2.1
-4 -3 18 15.3 1.9
-4 -3 18 15.2 1.6
-4 3 -18 12.6 2.1
5 3 -18 81.49 4.1
5 3 -18 74.39 5
5 -3 18 75.89 4.6
-5 -3 18 77.09 3.4
-5 3 -18 83.09 4.3
-5 -3 18 75.49 3.7
6 3 -18 4.3 2.7
6 3 -18 4.7 1.9
6 -3 18 3.4 1.4
6 -3 18 7.1 2.1
-6 3 -18 5.6 2.2
-6 -3 18 4.7 1.6
-6 -3 18 3.2 1.3
0 -4 18 4 0.8
0 -4 18 4.1 1.5
0 4 -18 3.6 1.5
0 4 -18 3.6 1.3
1 -4 18 75.89 3.8
1 4 -18 69.09 4.1
1 4 -18 67.49 3.2
1 -4 18 70.39 2.6
-1 4 -18 74.69 3.9
-1 4 -18 70.49 3.3
-1 -4 18 69.89 3.3
-1 -4 18 70.79 2.6
2 4 -18 13.5 1.9
2 4 -18 14 2.5
2 -4 18 18.2 2.4
2 -4 18 14.4 1.4
-2 -4 18 13.8 1.4
-2 -4 18 11.6 2
-2 4 -18 15.2 2.4
-2 4 -18 14.1 1.9
3 4 -18 41.6 2.8
3 4 -18 49.8 4.1
3 -4 18 39 2.2
3 -4 18 37.9 2.9
-3 4 -18 43.3 2.9
-3 -4 18 38.2 2.5
-3 4 -18 40.7 3.5
-3 -4 18 41 2.2
4 -4 18 86.09 4.5
4 4 -18 88.09 5.2
4 4 -18 85.89 4
-4 4 -18 87.49 4.8
-4 4 -18 83.29 4.2
-4 -4 18 86.09 3.3
-4 -4 18 84.69 3.7
5 4 -18 8 2.5
5 4 -18 12.7 2
5 -4 18 8.7 2.2
-5 -4 18 11.1 1.8
-5 -4 18 11.9 1.7
-5 4 -18 7.4 2
6 4 -18 18.1 3.5
6 -4 18 9.9 2.8
6 -4 18 14.5 2
6 4 -18 14.7 2.6
-6 4 -18 14.9 2.8
-6 -4 18 15 2.1
-6 -4 18 13.9 2.5
0 -5 18 -0.1 0.7
0 5 -18 2.1 1.4
0 -5 18 -0.9 1.2
0 5 -18 1.8 1.4
1 5 -18 13.9 2.4
1 5 -18 14.1 2.2
1 -5 18 16.1 2.4
1 -5 18 14.8 1.5
-1 -5 18 13.4 1.6
-1 -5 18 9.9 1.6
-1 5 -18 12.9 1.9
-1 5 -18 14.7 2.3
2 5 -18 21.4 3
2 -5 18 25.8 3
2 -5 18 22.5 1.8
2 5 -18 21.6 2.4
-2 -5 18 23.9 1.7
-2 5 -18 24.7 2.5
-2 5 -18 22 2.8
-2 -5 18 18.4 2.4
3 5 -18 4.2 1.5
3 5 -18 3.6 2
3 -5 18 4.3 1.7
3 -5 18 2.3 1.1
-3 -5 18 4 1.6
-3 5 -18 4.6 1.4
-3 5 -18 4 1.9
-3 -5 18 2.6 1.1
4 -5 18 14.3 2.7
4 5 -18 11.7 2.8
4 5 -18 10.1 1.8
-4 -5 18 11.5 1.7
-4 5 -18 12.3 2.1
-4 -5 18 12.6 1.6
-4 5 -18 13.5 2.8
5 -5 18 73.29 4.8
5 5 -18 74.09 4.1
5 5 -18 75.39 5.1
-5 5 -18 66.09 4.8
-5 -5 18 74.29 3.8
-5 5 -18 74.49 4.3
-5 -5 18 71.19 3.5
0 6 -18 39.9 3
0 -6 18 38.4 2.3
0 -6 18 30.8 3.3
0 6 -18 37 3.2
1 6 -18 7 2.1
1 6 -18 4.9 1.6
1 -6 18 7.6 2.2
1 -6 18 6.8 1.3
-1 -6 18 7.6 1.8
-1 -6 18 8.8 1.3
-1 6 -18 6.8 1.8
-1 6 -18 5.7 1.6
2 -6 18 1.8 1.6
2 6 -18 2.3 1.4
2 -6 18 1.9 1
2 6 -18 2 1.9
-2 6 -18 1.8 1.5
-2 -6 18 0 1.4
-2 -6 18 1.6 1.1
-2 6 -18 1.3 1.2
3 -6 18 29.7 2.4
3 -6 18 22.5 2.9
3 6 -18 30.9 3.4
3 6 -18 27.3 2.6
-3 -6 18 25.9 2.8
-3 6 -18 28.7 2.7
-3 6 -18 24 3
-3 -6 18 28.9 2.2
4 6 -18 80.09 5.2
4 6 -18 75.69 4.2
4 -6 18 80.09 5
-4 6 -18 75.99 4.9
-4 6 -18 77.99 4.3
-4 -6 18 74.19 3.5
-4 -6 18 73.89 4
5 -6 18 4.8 2.5
5 6 -18 4.8 2.2
5 6 -18 3.5 1.6
-5 -6 18 2.2 1.9
-5 6 -18 4.1 1.7
-5 -6 18 6.2 1.6
-5 6 -18 2 2.4
0 -7 18 1.2 2
0 7 -18 2.5 1.6
0 -7 18 3.8 1.4
0 7 -18 4.5 1.6
1 -7 18 17.5 3.1
1 7 -18 18.6 2.5
1 7 -18 18.7 2.9
1 -7 18 19.3 2
-1 -7 18 19.5 2.1
-1 -7 18 20.1 2.7
-1 7 -18 18.6 2.4
-1 7 -18 19.4 2.5
2 7 -18 20 2.6
2 7 -18 22.3 3.5
2 -7 18 17.8 3.2
2 -7 18 25.8 2.6
-2 -7 18 18.4 2.9
-2 -7 18 21.8 2.4
-2 7 -18 22 2.7
-2 7 -18 21.7 3.1
3 -7 18 34.9 2.9
3 7 -18 36.4 3.3
3 7 -18 35.9 4
3 -7 18 35.9 4.2
-3 7 -18 34.7 3
-3 -7 18 34.4 2.8
-3 7 -18 33.7 3.8
-3 -7 18 32.8 3.5
4 7 -18 9.1 2
4 -7 18 12.6 2.9
4 7 -18 12.6 3
-4 7 -18 10.4 2.2
-4 7 -18 11.2 2.4
-4 -7 18 12.5 1.9
-4 -7 18 11.1 2.3
0 -8 18 12.3 1.9
0 8 -18 7.2 2.2
0 8 -18 8.7 2
0 -8 18 8.3 3
1 8 -18 3.6 2.1
1 -8 18 3.5 2.7
1 8 -18 6.3 1.9
1 -8 18 6.6 1.7
-1 -8 18 6.9 1.7
-1 8 -18 8.1 1.9
-1 -8 18 5.9 2.7
-1 8 -18 4.3 1.7
2 -8 18 12.7 3.1
2 8 -18 14.5 2.3
2 8 -18 9 2.8
2 -8 18 13.6 2
-2 8 -18 13.4 2.6
-2 -8 18 7.1 2.6
-2 8 -18 13.6 2.3
-2 -8 18 12.7 2
3 -8 18 30.5 4.1
3 8 -18 30.4 4
3 8 -18 25.6 3.3
-3 8 -18 30.5 3
-3 8 -18 32.3 3.9
-3 -8 18 26.9 3.4
-3 -8 18 27.1 3
0 -9 18 2.8 2.6
0 -9 18 -0.1 1.6
0 9 -18 1 1.5
0 9 -18 -1.1 1.4
1 9 -18 12.7 2.2
1 9 -18 9 2.5
1 -9 18 7.7 3.4
1 -9 18 11 2.1
-1 9 -18 9 2.1
-1 -9 18 13.6 2.1
-1 -9 18 12 2.7
-1 9 -18 12 2.6
2 9 -18 -0.8 2.1
2 -9 18 1.6 3.3
2 -9 18 3.7 1.8
2 9 -18 5.2 2.2
-2 9 -18 3.2 1.9
-2 9 -18 5.9 1.8
-2 -9 18 4.3 1.9
-2 -9 18 6.3 2.6
2 0 -19 54.99 3.8
-2 0 19 58.09 2.1
2 0 -19 57.19 3
-2 0 19 59.39 2.5
-3 0 19 36 1.9
3 0 -19 37.1 3.3
3 0 -19 34.7 2.9
-3 0 19 34.2 2.1
-4 0 19 234.48 5.9
4 0 -19 229.78 7.3
-4 0 19 232.68 5.7
4 0 -19 233.48 6.3
5 0 -19 83.99 4.4
-5 0 19 82.79 3.5
5 0 -19 82.89 5.1
-5 0 19 79.49 3.4
6 0 -19 14.2 3.2
-6 0 19 14.5 2
-6 0 19 16.3 1.9
6 0 -19 14.2 2.6
0 1 -19 19.5 2
0 -1 19 16.4 1.3
0 1 -19 19.7 2.4
0 -1 19 17.6 1.8
1 1 -19 7.4 1.5
1 1 -19 11 2.3
1 -1 19 12.6 1.1
1 -1 19 10.3 1.7
-1 1 -19 7.9 1.6
-1 1 -19 8.2 1.8
-1 -1 19 10 1.6
-1 -1 19 8 1
2 1 -19 33.3 3.4
2 1 -19 30.8 2.6
-2 -1 19 35.7 1.7
-2 -1 19 34.4 2.1
3 1 -19 0 1.9
3 1 -19 3.8 1.7
-3 -1 19 2.8 1
-3 -1 19 5.6 1
4 1 -19 14.3 2.7
4 1 -19 12.3 2
-4 -1 19 12.2 1.4
-4 -1 19 15.7 1.6
-5 1 19 8.5 1.4
-5 1 19 6.3 1.3
5 1 -19 6.3 2
5 1 -19 9.6 2.7
-5 -1 19 3.2 1.5
5 -1 -19 5.4 2.1
5 -1 -19 7 2.7
-5 -1 19 6.7 1.3
6 1 -19 84.09 4.8
-6 1 19 85.59 3.6
-6 1 19 84.49 3.7
6 1 -19 82.89 5.6
-6 -1 19 78.59 3.8
6 -1 -19 82.19 5.5
-6 -1 19 86.99 3.7
6 -1 -19 83.69 4.7
0 -2 19 12.4 1.8
0 2 -19 10 1.8
0 2 -19 7.6 1.9
0 -2 19 7 0.9
1 2 -19 55.99 3.1
1 -2 19 45.9 3.2
1 2 -19 48.3 3.8
1 -2 19 52.19 2
-1 2 -19 52.79 3.2
-1 -2 19 50.29 2.8
-1 2 -19 50.39 3
-1 -2 19 47.5 2
2 2 -19 138.49 5.4
2 -2 19 135.79 3.5
2 -2 19 136.49 4.8
2 2 -19 138.19 4.5
-2 2 -19 136.19 4.5
-2 -2 19 134.19 3.6
-2 2 -19 130.99 5
-2 -2 19 139.99 4.4
3 -2 19 31.9 2.7
3 2 -19 24.5 3.3
3 2 -19 29 2.7
-3 2 -19 29.4 2.7
-3 -2 19 27.6 2.2
-3 2 -19 29.5 3.2
-3 -2 19 27.6 1.8
4 2 -19 57.49 3.5
4 2 -19 57.09 4.3
4 -2 19 52.99 3.5
-4 2 -19 56.79 3.8
-4 -2 19 55.59 2.7
-4 2 -19 53.29 3.4
-4 -2 19 57.89 2.9
5 2 -19 27.7 3.6
5 2 -19 22.3 2.7
-5 -2 19 30.8 2.4
-5 -2 19 25.7 2.1
6 2 -19 38.1 3.8
6 2 -19 35.3 4
-6 -2 19 33.9 2.6
-6 -2 19 29.8 2.7
0 3 -19 -0.1 1.4
0 -3 19 1.3 0.7
0 -3 19 0.2 1.1
0 3 -19 1.1 1.2
1 3 -19 28 3.1
1 -3 19 22.9 2.4
1 -3 19 23.9 1.5
1 3 -19 22.1 2.4
-1 3 -19 25.2 2.8
-1 3 -19 24.2 2.4
-1 -3 19 23.8 2.2
-1 -3 19 23.4 1.4
2 -3 19 56.79 2.3
2 -3 19 54.99 3.4
2 3 -19 55.49 3.3
2 3 -19 56.39 4.1
-2 -3 19 54.89 2.4
-2 -3 19 56.69 3
-2 3 -19 57.49 3.8
-2 3 -19 56.69 3.1
3 3 -19 3.6 2.1
3 3 -19 3.9 1.5
3 -3 19 2.8 1
3 -3 19 3.3 1.6
-3 3 -19 5.9 1.6
-3 -3 19 5.3 1
-3 3 -19 4.5 2
-3 -3 19 6.6 1.4
4 3 -19 10.9 2
4 3 -19 11.6 2.8
4 -3 19 12.6 2.1
-4 3 -19 10.3 2
-4 -3 19 15.2 2.1
-4 3 -19 10.6 2.4
-4 -3 19 11.6 1.5
5 3 -19 22.6 2.8
5 -3 19 20.6 2.8
5 3 -19 20.3 3.4
-5 -3 19 23.6 2.5
-5 3 -19 23.9 3
-5 -3 19 18.7 2
6 3 -19 32.9 4.4
6 3 -19 37.6 3.6
6 -3 19 31.4 2.6
6 -3 19 27.3 3.6
-6 3 -19 32.7 3.6
-6 -3 19 30.6 2.8
-6 -3 19 31.5 2.6
0 -4 19 7.8 1.1
0 4 -19 11.1 1.9
0 4 -19 5.9 1.8
0 -4 19 9.4 1.9
1 4 -19 31.6 3.5
1 4 -19 31.3 2.8
1 -4 19 31.7 1.8
1 -4 19 28.7 2.7
-1 -4 19 35.1 2.4
-1 4 -19 33.5 2.6
-1 4 -19 31.2 2.9
-1 -4 19 33.8 1.9
2 4 -19 22.7 3.3
2 -4 19 20.4 2.6
2 4 -19 21.2 2.4
2 -4 19 19.2 1.6
-2 4 -19 20.1 2.8
-2 4 -19 19.9 2.3
-2 -4 19 19.9 1.6
-2 -4 19 21.9 2.5
3 -4 19 17.9 1.7
3 -4 19 22.6 2.8
3 4 -19 22.7 2.4
3 4 -19 24.8 3.4
-3 -4 19 21.7 2
-3 4 -19 24.1 3
-3 4 -19 24.2 2.5
-3 -4 19 22 1.7
4 4 -19 23.8 3.4
4 4 -19 25.5 2.7
4 -4 19 21.3 2.9
-4 4 -19 20.9 2.5
-4 -4 19 23.3 2.3
-4 -4 19 21.7 1.9
-4 4 -19 24.6 3.4
5 -4 19 15.2 2.7
5 4 -19 16.2 2.6
5 4 -19 12.3 2.8
-5 4 -19 17.3 2.6
-5 -4 19 20.9 2.3
-5 4 -19 17.9 3.1
-5 -4 19 20.9 2.1
6 4 -19 16.4 3.8
6 4 -19 11.6 2.4
6 -4 19 16.8 2.8
6 -4 19 21 2.4
-6 -4 19 14.5 2.8
-6 -4 19 17.1 2.3
-6 4 -19 16.1 3
0 -5 19 6.7 2.1
0 5 -19 4.9 1.6
0 5 -19 7.6 2
0 -5 19 4.4 1.1
1 5 -19 33.8 3.5
1 -5 19 28.6 3.3
1 -5 19 27.9 1.8
1 5 -19 26 2.7
-1 5 -19 27.4 2.7
-1 -5 19 26.2 2.3
-1 -5 19 25.1 1.9
-1 5 -19 27.5 3
2 -5 19 38.2 3.4
2 5 -19 37.6 3.9
2 5 -19 41.4 3
2 -5 19 39.2 2.2
-2 5 -19 33.4 3.4
-2 -5 19 41.2 2.3
-2 -5 19 29.1 3
-2 5 -19 35.3 2.8
3 5 -19 7.7 2.3
3 -5 19 10.9 2.2
3 5 -19 8.9 1.9
3 -5 19 6.9 1.4
-3 5 -19 8.7 1.8
-3 -5 19 8.1 1.8
-3 5 -19 10.2 2.4
-3 -5 19 8.2 1.4
4 5 -19 8.5 1.8
4 -5 19 6.6 2
4 5 -19 9 2.7
-4 5 -19 4.9 2.3
-4 -5 19 9.4 1.4
-4 5 -19 10.1 2.2
-4 -5 19 10.2 1.7
5 -5 19 14.7 2.7
5 5 -19 9.7 2.7
5 5 -19 13.6 2.3
-5 -5 19 14.2 2
-5 5 -19 15.1 2.6
-5 5 -19 10.8 3
-5 -5 19 13.1 2
0 6 -19 73.39 4.2
0 -6 19 71.99 3
0 6 -19 72.49 3.8
0 -6 19 63.59 4.1
1 6 -19 28.5 3.4
1 -6 19 22.6 3.1
1 6 -19 30.2 2.6
1 -6 19 27.7 2.2
-1 6 -19 30.9 2.7
-1 -6 19 33.5 2.8
-1 6 -19 33.4 3
-1 -6 19 29.6 2
2 6 -19 2 1.8
2 -6 19 3.3 1.2
2 -6 19 3 1.9
2 6 -19 0.9 1.4
-2 -6 19 2.3 1.1
-2 6 -19 2.8 1.9
-2 6 -19 2.2 1.4
-2 -6 19 -0.9 1.7
3 6 -19 2.4 1.4
3 6 -19 2.4 2.1
3 -6 19 2.3 1.8
3 -6 19 -0.2 1.1
-3 6 -19 0 1.7
-3 6 -19 1.3 1.3
-3 -6 19 2.1 1.2
-3 -6 19 -2.1 1.5
4 -6 19 4.9 2.2
4 6 -19 7.7 2.7
4 6 -19 7.3 2
-4 6 -19 10.5 2.6
-4 -6 19 9.7 2.1
-4 6 -19 9.5 2.2
-4 -6 19 8.6 1.7
5 6 -19 2.5 1.4
5 6 -19 0.6 2.1
5 -6 19 2.7 2.2
-5 6 -19 0.7 1.7
-5 -6 19 0.2 1.7
-5 6 -19 5.3 2.6
-5 -6 19 1.2 1.4
0 -7 19 0.7 1.2
0 7 -19 -0.2 1.5
0 -7 19 -2.2 1.8
0 7 -19 0.6 1.3
1 7 -19 56.99 3.6
1 -7 19 57.39 2.9
1 -7 19 56.39 4.3
1 7 -19 58.19 4.4
-1 7 -19 59.99 3.8
-1 7 -19 55.29 3.6
-1 -7 19 58.29 3
-1 -7 19 53.19 4
2 7 -19 6.4 1.9
2 -7 19 8.2 1.7
2 -7 19 5.9 2.3
2 7 -19 4.7 2.4
-2 -7 19 4 2.2
-2 -7 19 6.1 1.5
-2 7 -19 6.7 1.9
-2 7 -19 5 2
3 7 -19 4.8 2.3
3 -7 19 1 1.6
3 -7 19 3.6 2.2
3 7 -19 1.6 1.6
-3 -7 19 2.6 1.4
-3 7 -19 2.3 1.4
-3 -7 19 -0.2 2
-3 7 -19 3.1 2
4 7 -19 2.2 2.2
4 7 -19 3 1.5
4 -7 19 -1.5 2.2
-4 7 -19 3 2.2
-4 7 -19 -0.4 1.4
-4 -7 19 1.1 1.3
-4 -7 19 0.6 1.8
0 8 -19 54.69 4.3
0 -8 19 54.09 4.5
0 8 -19 49 3.6
0 -8 19 54.19 3.2
1 8 -19 11.3 2.3
1 8 -19 9.7 2.7
1 -8 19 11.7 1.9
1 -8 19 10.8 3
-1 8 -19 10.8 2.4
-1 8 -19 6.8 1.8
-1 -8 19 8.2 2.5
-1 -8 19 8.3 2
2 -8 19 81.89 3.9
2 8 -19 80.89 4.4
2 8 -19 77.09 5.5
2 -8 19 66.19 5.5
-2 8 -19 66.79 4.6
-2 -8 19 79.89 3.7
-2 8 -19 81.79 4.5
-2 -8 19 69.99 4.9
3 8 -19 1 2.2
3 8 -19 1.1 2
3 -8 19 1.6 2.5
-3 8 -19 3.5 2
-3 -8 19 1.4 2.2
-3 8 -19 1.7 1.4
-3 -8 19 -0.2 1.6
0 -9 19 17.2 3.5
0 9 -19 28.2 3.5
0 9 -19 25.7 3
0 -9 19 31.3 3
1 -9 19 45.7 3.4
1 -9 19 46.8 5.2
1 9 -19 53.29 3.8
1 9 -19 49.6 4.6
-1 9 -19 48.4 4.2
-1 9 -19 48 3.7
-1 -9 19 49.9 4.6
-1 -9 19 54.49 3.5
2 9 -19 -1.3 2.9
-3 0 20 1.3 0.7
3 0 -20 0.3 1.8
3 0 -20 0.2 1.6
-3 0 20 1 0.8
-4 0 20 19.1 1.7
4 0 -20 16.8 2.8
4 0 -20 17.6 2.3
-4 0 20 15.9 1.5
-5 0 20 50.29 2.8
-5 0 20 54.79 2.8
5 0 -20 48.2 4.4
5 0 -20 51.69 3.9
-6 0 20 11.3 1.7
6 0 -20 13.2 2.6
6 0 -20 8.9 2.9
-6 0 20 11.8 1.9
0 1 -20 2.3 1.5
0 1 -20 0.8 1.6
0 -1 20 1.1 0.6
0 -1 20 1.6 1
1 1 -20 91.79 3.7
1 1 -20 97.79 4.7
-1 -1 20 81.99 3.4
-1 -1 20 92.09 2.7
2 1 -20 3.9 2
2 1 -20 4.5 1.6
-2 -1 20 5.4 0.8
-2 -1 20 7 1.1
3 1 -20 3.3 1.7
3 1 -20 -1.4 2
-3 -1 20 3 1.1
-3 -1 20 2.5 0.8
4 1 -20 14.2 2.8
4 1 -20 14.4 2.2
-4 -1 20 16.9 1.8
-4 -1 20 16.4 1.6
5 1 -20 21.8 3.4
5 1 -20 20.8 2.8
-5 -1 20 21.7 2
-5 -1 20 13.8 2.1
6 1 -20 4.4 2.2
6 1 -20 2.1 2.6
-6 -1 20 3.7 1.5
-6 -1 20 8.1 1.5
0 -2 20 236.68 6.2
0 2 -20 234.08 6.1
0 2 -20 233.08 6.8
0 -2 20 230.78 5
1 -2 20 2.6 1.2
1 -2 20 5 0.8
1 2 -20 2.9 1.9
1 2 -20 2.5 1.6
-1 -2 20 1.4 1.1
-1 2 -20 4 1.5
-1 2 -20 3.5 1.5
-1 -2 20 4.2 0.9
2 2 -20 20.5 3
2 2 -20 20.9 2.4
2 -2 20 15.2 1.3
2 -2 20 17.4 2.1
-2 -2 20 21.8 2
-2 2 -20 16.1 2.6
-2 -2 20 16.9 1.4
-2 2 -20 17.6 2.1
3 -2 20 15.9 2.2
3 2 -20 15.6 2.8
3 2 -20 16.8 2.2
-3 2 -20 16.5 2.7
-3 -2 20 17.2 1.5
-3 2 -20 17.1 2.2
-3 -2 20 14.1 1.7
4 2 -20 10.4 2
4 2 -20 11.8 2.7
-4 -2 20 11.1 1.4
-4 -2 20 11.7 1.7
5 2 -20 85.29 4.5
5 2 -20 78.09 5.3
-5 -2 20 81.39 3.7
-5 -2 20 84.29 3.6
6 2 -20 24.5 3
6 2 -20 21.6 3.6
-6 -2 20 22.2 2.5
-6 -2 20 21.8 2.3
0 -3 20 179.98 4.4
0 3 -20 190.08 5.5
0 -3 20 173.88 5.5
0 3 -20 178.48 6.1
1 -3 20 57.29 3.6
1 3 -20 62.39 4.3
1 3 -20 72.09 3.7
1 -3 20 65.29 2.4
-1 -3 20 69.79 3.3
-1 -3 20 70.39 2.6
-1 3 -20 68.19 3.8
-1 3 -20 69.29 3.5
2 -3 20 7.1 1.1
2 3 -20 6.6 1.7
2 3 -20 7.4 2.6
2 -3 20 6.2 1.7
-2 -3 20 6.5 1.1
-2 3 -20 7.1 1.8
-2 -3 20 6 1.3
-2 3 -20 8.8 2.4
3 3 -20 13.5 2.7
3 -3 20 8.9 1.4
3 3 -20 13.5 2.1
3 -3 20 16.2 2.3
-3 -3 20 13.9 1.4
-3 -3 20 12.3 1.7
-3 3 -20 12.4 2
-3 3 -20 14.4 2.5
4 3 -20 25.9 3.5
4 -3 20 23.2 2.9
4 3 -20 20.7 2.4
-4 -3 20 29.7 2
-4 3 -20 27.1 3
-4 3 -20 24.6 3.3
-4 -3 20 26.1 2.4
5 3 -20 26.2 3.8
5 3 -20 30.5 3.2
5 -3 20 25.4 3.2
-5 3 -20 20.2 3.1
-5 -3 20 27.8 2.3
-5 -3 20 20.5 2.4
-5 3 -20 27 3.1
6 3 -20 2.3 2.7
6 3 -20 1 1.9
-6 -3 20 4 1.3
-6 -3 20 1.5 1.4
0 4 -20 212.08 6.2
0 4 -20 195.08 6.8
0 -4 20 202.08 4.9
0 -4 20 195.58 6.3
1 -4 20 6.9 2.1
1 4 -20 8.1 2.2
1 4 -20 8.8 1.9
1 -4 20 10 1.2
-1 4 -20 8.3 1.9
-1 -4 20 8.2 1.8
-1 4 -20 11 2.3
-1 -4 20 7.7 1.2
2 -4 20 14.4 1.5
2 -4 20 15.3 2.2
2 4 -20 11.9 2.5
2 4 -20 14.4 2
-2 -4 20 17.2 1.5
-2 -4 20 13.4 2
-2 4 -20 14.4 2.1
-2 4 -20 11.5 2.3
3 -4 20 14.2 2.2
3 4 -20 21.2 2.5
3 4 -20 23.8 3.5
3 -4 20 17.5 1.7
-3 4 -20 15.2 2.6
-3 -4 20 21.4 2.1
-3 4 -20 20.2 2.4
-3 -4 20 19.3 1.7
4 4 -20 58.19 3.7
4 -4 20 54.39 3.9
4 4 -20 60.79 4.8
-4 -4 20 59.79 2.9
-4 -4 20 59.69 3.4
-4 4 -20 61.19 4.6
-4 4 -20 62.79 3.9
5 4 -20 36.7 4.2
5 -4 20 39.4 3.7
5 4 -20 38.8 3.3
-5 -4 20 36.9 2.8
-5 4 -20 34.4 4
-5 4 -20 33.3 3.4
-5 -4 20 35.4 2.5
0 5 -20 118.99 5.4
0 -5 20 116.49 3.7
0 -5 20 118.49 5.1
0 5 -20 118.49 4.8
1 -5 20 49.1 3.8
1 5 -20 56.79 4.1
1 -5 20 57.19 2.5
1 5 -20 57.99 3.6
-1 5 -20 62.89 3.8
-1 -5 20 56.79 2.6
-1 5 -20 54.89 3.2
-1 -5 20 51.39 3.2
2 -5 20 68.39 4.2
2 5 -20 73.39 3.9
2 5 -20 65.59 4.7
2 -5 20 66.99 2.8
-2 5 -20 67.39 3.7
-2 -5 20 73.89 3
-2 5 -20 68.49 4.5
-2 -5 20 64.19 3.7
3 5 -20 14.7 2.9
3 -5 20 19.3 2.7
3 5 -20 15.1 2.2
3 -5 20 15.5 1.8
-3 5 -20 20.1 3
-3 -5 20 16.3 2.2
-3 -5 20 17.8 1.8
-3 5 -20 14.8 2.2
4 5 -20 28.3 4
4 -5 20 27.5 3.4
4 5 -20 29 2.9
-4 5 -20 26.8 3.3
-4 -5 20 33.7 2.4
-4 -5 20 32.1 2.6
-4 5 -20 27.9 3.2
5 5 -20 15.2 3.4
5 -5 20 16.4 3
5 5 -20 14 2.4
-5 -5 20 17.2 2
-5 5 -20 14.3 2.6
-5 5 -20 14.8 3.2
-5 -5 20 16.3 2.2
0 6 -20 105.39 4.6
0 -6 20 92.29 4.7
0 6 -20 99.59 5.2
0 -6 20 103.89 3.7
1 6 -20 3.7 2.2
1 -6 20 6.1 1.9
1 6 -20 2.7 1.3
1 -6 20 3.2 1.2
-1 6 -20 3.9 1.6
-1 -6 20 -0.3 1.6
-1 -6 20 2.9 1.1
-1 6 -20 5.6 1.8
2 6 -20 40.7 3.5
2 -6 20 43.1 3.7
2 -6 20 43.5 2.7
2 6 -20 44.8 4.6
-2 -6 20 46.8 2.7
-2 6 -20 45.4 3.3
-2 -6 20 33.6 3.4
-2 6 -20 38.6 3.8
3 -6 20 60.59 3.2
3 -6 20 58.29 4.4
3 6 -20 59.29 5
3 6 -20 57.59 3.7
-3 6 -20 55.89 3.6
-3 6 -20 57.19 4.6
-3 -6 20 60.69 3.1
-3 -6 20 56.39 3.8
4 -6 20 14.3 2.8
4 6 -20 10.3 2.8
4 6 -20 14.5 2.3
-4 -6 20 12.9 1.9
-4 -6 20 12.8 2.2
-4 6 -20 15 2.9
-4 6 -20 15 2.5
0 -7 20 117.29 4.2
0 -7 20 111.59 5.5
0 7 -20 119.79 5.1
0 7 -20 111.09 5.7
1 -7 20 44.1 2.7
1 7 -20 39.1 4.3
1 -7 20 43.5 4.4
1 7 -20 38.8 3.6
-1 7 -20 38.3 3.3
-1 -7 20 41.2 2.8
-1 -7 20 30.1 3.3
-1 7 -20 39.4 3.6
2 7 -20 41.6 3.6
2 -7 20 41.3 2.8
2 -7 20 39.6 4.1
2 7 -20 32.2 4.1
-2 -7 20 34.6 3.8
-2 7 -20 36.5 3.3
-2 7 -20 39.7 3.9
-2 -7 20 40.8 2.8
3 7 -20 4.3 2.4
3 7 -20 9.4 2.2
3 -7 20 12.2 2.9
-3 7 -20 9.2 2.8
-3 -7 20 10.7 1.9
-3 -7 20 7.6 2.3
-3 7 -20 8.3 1.8
4 -7 20 5.7 2.6
4 7 -20 1.5 2.6
4 7 -20 1.8 1.6
-4 -7 20 1 1.4
-4 7 -20 3.3 1.9
-4 -7 20 4.1 1.9
-4 7 -20 3.1 2.2
0 8 -20 15.3 2.4
0 -8 20 14.5 2.9
0 8 -20 16 3
0 -8 20 16.8 2.1
1 -8 20 9.4 1.8
1 8 -20 8.8 2.8
1 -8 20 4.5 2.6
1 8 -20 7.5 2.1
-1 -8 20 10.2 2.6
-1 -8 20 8.4 2
-1 8 -20 8.8 2.3
-1 8 -20 7.3 1.8
2 8 -20 28.1 3.8
2 -8 20 18.4 3.7
2 -8 20 30.5 2.8
2 8 -20 30.4 3.2
-2 -8 20 35.1 3
-2 8 -20 27.9 3.4
-2 -8 20 29.7 3.5
-2 8 -20 31.6 3.1
3 8 -20 6.8 2.4
3 8 -20 8.1 3.3
3 -8 20 7.4 4.5
-3 -8 20 10.6 2.9
-3 8 -20 9 3.7
-3 -8 20 9.6 2.5
-3 8 -20 6.8 2.3
0 9 -20 -0.1 1.9
0 -9 20 -4.2 2.6
0 -9 20 -1.8 1.7
0 9 -20 -2.6 1.5
4 0 -21 152.18 6.1
-4 0 21 153.38 4.7
4 0 -21 156.78 5.3
-4 0 21 154.28 4.5
-5 0 21 164.48 5.1
-5 0 21 159.58 4.9
5 0 -21 162.98 5.9
5 0 -21 159.18 6.7
-6 0 21 30.3 2.4
-6 0 21 32.9 2.6
6 0 -21 28.9 3.9
6 0 -21 31.2 3.4
1 1 -21 52.49 3.9
1 1 -21 51.99 3.2
-1 -1 21 49.4 2.6
-1 -1 21 51.49 2
2 1 -21 24.1 2.5
2 1 -21 26.5 3.2
-2 -1 21 26.2 2
-2 -1 21 24 1.6
3 1 -21 1.4 1.5
3 1 -21 -1.4 1.9
-3 -1 21 2.6 0.7
-3 -1 21 0.7 0.9
4 1 -21 123.59 5.8
4 1 -21 125.49 4.9
-4 -1 21 127.79 4.3
-4 -1 21 125.89 4.1
5 1 -21 6.5 2.7
5 1 -21 9.9 2.3
-5 -1 21 6.9 1.5
-5 -1 21 6.3 1.7
6 1 -21 28.8 3.9
6 1 -21 22.3 3.1
-6 -1 21 21.5 2.5
-6 -1 21 24.1 2.3
0 -2 21 -1.8 0.9
0 -2 21 0.7 0.6
0 2 -21 0.9 1.5
0 2 -21 -1.6 1.6
1 -2 21 2.2 1.2
1 2 -21 2.5 1.7
1 2 -21 2.4 2.3
1 -2 21 4.2 0.8
-1 -2 21 3.6 0.8
-1 2 -21 2.7 1.7
-1 2 -21 2.2 1.5
-1 -2 21 6 1.2
2 2 -21 9.1 2.1
2 2 -21 7.2 2.6
2 -2 21 7.9 1.8
2 -2 21 7.5 1.1
-2 2 -21 8.1 1.9
-2 2 -21 5.8 2.2
-2 -2 21 9.5 1.6
-2 -2 21 10 1.2
3 2 -21 24 3.2
3 2 -21 30 2.9
-3 -2 21 30.2 1.8
-3 -2 21 32 2.3
4 2 -21 39.1 3.4
4 2 -21 40.6 4.2
-4 -2 21 35.6 2.6
-4 -2 21 39.2 2.3
5 2 -21 44.1 4
5 2 -21 48.1 4.7
-5 -2 21 46.6 2.9
-5 -2 21 47.9 2.8
6 2 -21 15 2.8
6 2 -21 16.8 3.5
-6 -2 21 14.1 2.1
-6 -2 21 17.8 2.3
0 3 -21 43.2 3.3
0 3 -21 42.9 3.7
0 -3 21 35.6 2
0 -3 21 35.7 2.7
1 -3 21 17.2 2.3
1 3 -21 19.3 2.5
1 -3 21 19.6 1.5
1 3 -21 20.2 3.2
-1 3 -21 15.7 2.2
-1 3 -21 17.4 2.6
-1 -3 21 20.5 1.7
-1 -3 21 18.5 2.2
2 3 -21 12.2 2.8
2 -3 21 12.7 2.1
2 -3 21 13.3 1.4
2 3 -21 14.9 2.2
-2 -3 21 10 1.9
-2 3 -21 11.7 2.6
-2 -3 21 15.2 1.4
-2 3 -21 12.2 2.1
3 3 -21 22.3 3.3
3 -3 21 31 2.8
3 3 -21 29.2 3
-3 3 -21 25.7 2.8
-3 -3 21 24.9 1.8
-3 3 -21 28.1 3.2
-3 -3 21 29.1 2.3
4 3 -21 13.9 3.1
4 3 -21 10.8 2.2
4 -3 21 12.4 2.2
-4 -3 21 11.3 1.9
-4 -3 21 10.5 1.5
-4 3 -21 10.4 2.2
-4 3 -21 10.1 2.6
5 3 -21 34.6 4.1
5 3 -21 36.2 3.7
-5 -3 21 35.3 2.8
-5 -3 21 44.5 2.7
0 -4 21 6.8 1.9
0 -4 21 6.3 1.1
0 4 -21 9 2.1
0 4 -21 6.8 2.2
1 -4 21 43.1 2.1
1 4 -21 47.7 4.3
1 -4 21 46.8 3.3
1 4 -21 41.1 3.3
-1 4 -21 43.5 3.3
-1 4 -21 43.2 3.3
-1 -4 21 41.7 2.2
-1 -4 21 44.4 3
2 -4 21 6.2 1.8
2 4 -21 10.9 2.1
2 4 -21 7.1 2.5
2 -4 21 7.1 1.2
-2 -4 21 8.1 1.6
-2 4 -21 7.9 1.8
-2 4 -21 7.7 2.3
-2 -4 21 9.1 1.3
3 -4 21 41.4 3.4
3 4 -21 42.8 4.5
3 4 -21 35.7 3.2
3 -4 21 40.6 2.4
-3 -4 21 39.3 2.7
-3 4 -21 37.7 3.9
-3 4 -21 38.2 3.1
-3 -4 21 40.8 2.4
4 4 -21 9.1 2.7
4 4 -21 9.6 2.2
4 -4 21 10.5 2.3
-4 4 -21 10.5 2.2
-4 4 -21 13.9 2.8
-4 -4 21 11.1 1.9
-4 -4 21 11.1 1.5
5 4 -21 23.6 3
5 4 -21 24.8 3.8
5 -4 21 21.8 3.2
-5 4 -21 25.1 3.6
-5 -4 21 22.9 2.3
-5 4 -21 19.2 2.8
-5 -4 21 24.8 2.4
0 -5 21 11 2.2
0 5 -21 17.4 2.7
0 5 -21 17.7 2.4
0 -5 21 16.9 1.8
1 -5 21 97.29 4.8
1 5 -21 92.79 4.4
1 5 -21 92.49 5.5
1 -5 21 87.39 3.3
-1 -5 21 86.99 4.2
-1 5 -21 92.09 4.3
-1 5 -21 97.39 4.7
-1 -5 21 91.89 3.3
2 5 -21 104.19 4.7
2 -5 21 105.99 3.6
2 5 -21 93.09 5.8
2 -5 21 100.99 4.9
-2 -5 21 100.69 4.6
-2 5 -21 98.99 5.3
-2 5 -21 108.09 4.6
-2 -5 21 106.79 3.6
3 -5 21 83.29 3.4
3 -5 21 74.69 4.7
3 5 -21 83.79 5.6
3 5 -21 79.89 4.2
-3 5 -21 75.69 5
-3 5 -21 81.59 4.3
-3 -5 21 78.29 3.9
-3 -5 21 83.09 3.3
4 -5 21 5.3 1.9
4 5 -21 6.5 2
4 5 -21 3.7 2.7
-4 -5 21 3.9 1.4
-4 5 -21 4 1.9
-4 5 -21 5.6 2.4
-4 -5 21 8.2 1.6
5 -5 21 14.2 2.6
5 5 -21 7.8 2.1
5 5 -21 8.8 3
-5 -5 21 10 1.9
-5 5 -21 9.4 2.9
-5 5 -21 8.4 2.3
-5 -5 21 11.1 1.7
0 -6 21 2.6 1.8
0 -6 21 1 1.1
0 6 -21 1.9 1.5
0 6 -21 1.6 2
1 6 -21 37.1 4.2
1 6 -21 35.7 3
1 -6 21 33.9 3.7
1 -6 21 31.9 2.4
-1 6 -21 29.8 3.4
-1 6 -21 35.9 3.2
-1 -6 21 37.4 2.3
-1 -6 21 32.4 3.1
2 6 -21 43.7 4.6
2 6 -21 39.5 3.7
2 -6 21 43.6 2.7
2 -6 21 48.4 4.1
-2 6 -21 44.3 3.4
-2 6 -21 39.2 4
-2 -6 21 41.9 3.5
-2 -6 21 44.2 2.9
3 -6 21 75.29 3.6
3 6 -21 71.69 5.3
3 -6 21 73.29 4.9
3 6 -21 77.29 4.3
-3 -6 21 79.69 3.6
-3 6 -21 73.99 4.2
-3 6 -21 75.49 5.2
-3 -6 21 68.69 3.9
4 6 -21 0.1 2.5
4 -6 21 4 2
4 6 -21 0.2 1.5
-4 6 -21 1.2 2.2
-4 6 -21 0.7 1.6
-4 -6 21 3.3 1.3
-4 -6 21 2.1 1.2
0 7 -21 10.1 2.1
0 -7 21 10.4 2.3
0 7 -21 8.6 2.6
0 -7 21 9.6 1.7
1 -7 21 21 2.2
1 -7 21 17.6 3.1
1 7 -21 13.6 2.6
1 7 -21 17 3.3
-1 -7 21 16.8 2.1
-1 7 -21 17.2 2.5
-1 -7 21 15.8 2.5
-1 7 -21 17.2 3
2 -7 21 41.3 4.5
2 -7 21 65.49 3.1
2 7 -21 52.59 4.1
2 7 -21 56.19 5.1
-2 -7 21 50.19 4
-2 7 -21 55.49 4.4
-2 -7 21 55.69 3.2
-2 7 -21 53.99 3.8
3 -7 21 83.59 5.6
3 7 -21 83.39 4.9
3 7 -21 86.89 6
-3 -7 21 88.69 4.7
-3 7 -21 86.99 5.6
-3 7 -21 93.89 4.7
-3 -7 21 91.89 4
0 8 -21 5.5 2.2
0 -8 21 0.8 2.3
0 8 -21 4.5 1.9
0 -8 21 4.9 1.7
1 8 -21 10.6 2.9
1 -8 21 11.5 2
1 8 -21 13.4 2.6
1 -8 21 5.8 3
-1 8 -21 10.1 2.8
-1 -8 21 11.5 2.1
-1 8 -21 11.5 2.2
-1 -8 21 9.4 2.6
2 -8 21 31.3 2.9
2 8 -21 37.5 4.7
2 8 -21 32.7 3.5
2 -8 21 26 3.9
-2 8 -21 36.3 3.3
-2 -8 21 36.4 3
-2 -8 21 38.3 4.1
-2 8 -21 38.1 3.7
5 0 -22 11.9 2.7
-5 0 22 8.6 1.7
-5 0 22 8.4 1.8
6 0 -22 40.9 3.9
-6 0 22 40.3 2.7
-6 0 22 38.7 2.8
6 0 -22 41.8 4.7
2 1 -22 63.09 4.8
2 1 -22 60.59 3.6
-2 -1 22 61.39 2.8
-2 -1 22 59.79 2.4
3 1 -22 3.5 2.2
3 1 -22 4.3 1.7
-3 -1 22 5 1
-3 -1 22 3.6 1.3
4 1 -22 10.1 2.2
4 1 -22 11.3 2.6
-4 -1 22 9.4 1.6
-4 -1 22 12.7 1.5
5 1 -22 55.19 4.1
5 1 -22 48.7 4.8
-5 -1 22 43.4 3
-5 -1 22 51.19 2.8
6 1 -22 10.7 2.5
6 1 -22 9.4 3.2
-6 -1 22 8.3 1.9
-6 -1 22 10.9 1.9
0 2 -22 4.4 2.1
0 2 -22 10.8 2.2
0 -2 22 8.8 1.7
1 2 -22 21.7 3.4
1 -2 22 19.3 2.4
1 2 -22 21.2 2.7
1 -2 22 23.3 1.5
-1 -2 22 23.9 1.7
-1 -2 22 20.4 2.2
-1 2 -22 15.9 2.5
-1 2 -22 19.8 2.5
2 2 -22 3.7 1.7
2 2 -22 1.4 2.2
-2 -2 22 2.7 1.2
-2 -2 22 4.1 0.8
3 2 -22 18.4 3.1
3 2 -22 15.2 2.4
-3 -2 22 15.2 1.4
-3 -2 22 17.5 1.9
4 2 -22 42 3.5
4 2 -22 43.9 4.4
-4 -2 22 47.2 2.5
-4 -2 22 41.8 2.8
5 2 -22 41.4 4.5
5 2 -22 42.7 3.7
-5 -2 22 42.9 2.9
-5 -2 22 46.5 2.7
0 -3 22 146.59 5.2
0 3 -22 142.69 5.9
0 -3 22 149.79 4
0 3 -22 152.78 5.3
1 -3 22 18.9 1.5
1 3 -22 16.9 2.5
1 -3 22 18.5 2.5
1 3 -22 17.7 3.1
-1 -3 22 16.1 2.2
-1 3 -22 19.9 2.8
-1 -3 22 16.5 1.7
-1 3 -22 18.3 2.4
2 3 -22 14.9 2.9
2 -3 22 17.3 1.6
2 3 -22 16.5 2.3
2 -3 22 23.2 2.4
-2 3 -22 16 2.7
-2 3 -22 14.3 2.2
-2 -3 22 14.1 2.1
-2 -3 22 16.4 1.5
3 3 -22 22.1 2.7
3 -3 22 23.5 2.8
3 3 -22 22.9 3.5
-3 -3 22 21.7 1.8
-3 3 -22 24.7 3.3
-3 3 -22 23.2 2.6
-3 -3 22 24.1 2.3
4 3 -22 22.2 3.6
4 3 -22 22.9 2.8
-4 3 -22 17 3.4
-4 -3 22 19.8 2.5
-4 -3 22 23 1.8
5 3 -22 40.6 4.6
5 3 -22 44.6 3.8
-5 -3 22 43.8 2.6
-5 -3 22 35.8 2.9
0 4 -22 67.29 4.5
0 4 -22 75.99 4
0 -4 22 74.49 3.8
0 -4 22 70.99 2.8
1 -4 22 0.5 0.7
1 -4 22 -0.8 1.4
1 4 -22 -0.1 2.1
1 4 -22 2.2 1.7
-1 4 -22 -0.7 1.4
-1 -4 22 2.4 1.1
-1 4 -22 0.8 1.7
-1 -4 22 0.6 0.8
2 -4 22 52.99 3.6
2 4 -22 46.8 3.5
2 -4 22 50.59 2.5
2 4 -22 43.9 4.7
-2 -4 22 49.99 2.5
-2 -4 22 52.89 3.2
-2 4 -22 46.9 3.4
-2 4 -22 49.7 4.2
3 -4 22 12.7 2.4
3 -4 22 10.1 1.7
3 4 -22 12.8 3
3 4 -22 16.6 2.6
-3 4 -22 13.4 2.3
-3 -4 22 15.6 1.7
-3 -4 22 14 2
-3 4 -22 13.4 2.8
4 -4 22 28.4 3.1
4 4 -22 22.7 3.6
4 4 -22 29.8 3.2
-4 4 -22 22.3 2.9
-4 -4 22 25 2.7
-4 4 -22 24.2 3.4
-4 -4 22 24.9 2.1
5 4 -22 66.89 5.4
5 4 -22 66.29 4.3
5 -4 22 72.29 4.7
-5 4 -22 69.49 4.4
-5 -4 22 67.69 3.6
-5 4 -22 61.09 4.9
-5 -4 22 70.39 3.3
0 5 -22 15.1 2.4
0 5 -22 12.1 2.7
0 -5 22 11.8 1.6
0 -5 22 13.5 2
1 -5 22 69.19 3
1 5 -22 71.79 4
1 5 -22 80.19 5.4
1 -5 22 66.59 4.3
-1 5 -22 76.49 4.1
-1 5 -22 71.69 4.6
-1 -5 22 78.69 3.1
-1 -5 22 75.39 3.9
2 5 -22 17.4 3.4
2 5 -22 18.5 2.7
2 -5 22 16.9 1.9
2 -5 22 13.9 2.5
-2 5 -22 17.3 2.9
-2 5 -22 16.2 2.4
-2 -5 22 15.5 2.4
-2 -5 22 18.2 2
3 -5 22 42.2 2.7
3 5 -22 50.19 3.7
3 -5 22 43.9 3.9
3 5 -22 44.9 4.9
-3 -5 22 51.19 2.7
-3 -5 22 49.4 3.2
-3 5 -22 51.19 3.7
-3 5 -22 43.1 4.4
4 5 -22 3.8 2
4 -5 22 6.6 2.1
4 5 -22 2 2.6
-4 -5 22 3.2 1.3
-4 5 -22 5 2.7
-4 -5 22 4.6 1.6
-4 5 -22 2 1.9
0 6 -22 74.29 4.1
0 6 -22 64.19 4.8
0 -6 22 71.89 3.2
0 -6 22 74.99 4.3
1 -6 22 30.2 3.6
1 6 -22 31.6 4.2
1 -6 22 27.4 2.4
1 6 -22 24.5 2.9
-1 -6 22 27.8 2.3
-1 6 -22 31.2 3.6
-1 6 -22 28.3 3.2
-1 -6 22 29.7 3
2 6 -22 74.49 5.7
2 6 -22 68.09 4.3
2 -6 22 62.29 3.2
2 -6 22 68.69 4.9
-2 6 -22 67.09 4.1
-2 6 -22 67.99 4.8
-2 -6 22 65.89 4.1
-2 -6 22 72.69 3.3
3 -6 22 3.4 1.9
3 -6 22 0.1 1.4
3 6 -22 2.9 2.5
3 6 -22 1.7 1.8
-3 -6 22 3.4 1.3
-3 6 -22 3.3 2.3
-3 6 -22 -0.2 1.4
-3 -6 22 4 1.6
4 -6 22 38.9 4.2
4 6 -22 39 3.6
4 6 -22 35.6 4.7
-4 -6 22 40 2.8
-4 6 -22 35.8 4.4
-4 6 -22 37.5 3.8
-4 -6 22 43.4 3.1
0 -7 22 68.79 3.3
0 7 -22 62.99 4.7
0 -7 22 45.7 4.1
0 7 -22 59.59 4
1 -7 22 76.29 5.2
1 7 -22 85.79 6
1 -7 22 87.89 3.6
1 7 -22 87.09 4.7
-1 -7 22 81.29 4.5
-1 7 -22 80.69 5.3
-1 7 -22 87.49 4.6
-1 -7 22 83.19 3.7
2 7 -22 15 3.4
2 -7 22 21.3 2.2
2 -7 22 9.9 3
2 7 -22 13.4 2.3
-2 -7 22 16.2 2
-2 7 -22 15.2 2.8
-2 -7 22 15.7 2.8
-2 7 -22 12.1 2.3
3 7 -22 5.2 2.6
3 -7 22 11.2 2.6
3 7 -22 8.2 3
-3 7 -22 6.8 1.9
-3 -7 22 11 2.2
-3 7 -22 5.8 2.6
-3 -7 22 6.8 2
0 8 -22 26.9 3.2
0 -8 22 30.3 2.9
0 8 -22 24.7 3.6
1 8 -22 18.2 2.7
1 8 -22 19.1 3.6
1 -8 22 13.6 3.2
1 -8 22 17.8 2.2
-1 8 -22 14.9 2.5
-1 -8 22 9.1 3
-1 8 -22 17.4 3
-1 -8 22 16.4 2.4
3 1 -23 129.89 5.8
3 1 -23 139.89 5.1
-3 -1 23 137.59 4.5
-3 -1 23 134.69 3.9
4 1 -23 14.3 2.9
4 1 -23 10.4 2.2
-4 -1 23 10.8 1.7
-4 -1 23 17.1 1.6
5 1 -23 79.19 5.6
5 1 -23 86.39 4.6
-5 -1 23 83.29 3.9
-5 -1 23 85.89 3.7
0 -2 23 23.6 2.1
0 2 -23 23.6 2.6
0 2 -23 20.5 3.2
0 -2 23 19.6 1.6
1 2 -23 -1 2.3
1 2 -23 3.2 1.9
-1 -2 23 0.4 0.9
-1 -2 23 -1.9 1.3
2 2 -23 2.4 1.6
2 2 -23 0.3 2.2
-2 -2 23 2.6 0.7
-2 -2 23 2.1 1.2
3 2 -23 39.2 4.3
3 2 -23 31.9 3.4
-3 -2 23 32.3 2.4
-3 -2 23 30.3 1.9
4 2 -23 18.3 3.2
4 2 -23 12.6 2.4
-4 -2 23 15.8 2
-4 -2 23 14.9 1.7
5 2 -23 36.8 3.8
5 2 -23 31.9 4
-5 -2 23 35.3 2.4
-5 -2 23 34.8 2.8
0 -3 23 0.4 1.4
0 -3 23 2.2 0.8
0 3 -23 0.2 2
0 3 -23 2.1 1.8
1 3 -23 10.6 2.3
1 -3 23 7.2 1.2
1 3 -23 7.6 2.8
1 -3 23 7.4 2
-1 -3 23 12.9 1.8
-1 -3 23 8.1 1.2
-1 3 -23 7.5 2.3
-1 3 -23 8.9 2
2 3 -23 19.2 3.3
2 -3 23 15.4 2.4
2 -3 23 15.8 1.6
2 3 -23 20 2.6
-2 3 -23 17.5 2.8
-2 -3 23 20 2.3
-2 -3 23 15.6 1.7
-2 3 -23 20.1 2.6
3 3 -23 35.4 4.2
3 3 -23 32.5 3.4
3 -3 23 32.7 4.6
-3 3 -23 34.6 4.2
-3 3 -23 34.8 3.6
-3 -3 23 35.3 2.7
-3 -3 23 35.8 2.3
4 3 -23 10.1 3
4 3 -23 9.8 2.3
-4 -3 23 7.8 1.9
-4 -3 23 9.3 1.4
5 3 -23 52.99 5.3
5 3 -23 57.19 4.2
-5 -3 23 53.79 3
-5 -3 23 50.89 3.2
0 -4 23 2.7 1
0 4 -23 4.3 2.3
0 -4 23 1.9 1.6
0 4 -23 3.4 1.8
1 4 -23 4.3 2
1 4 -23 3.6 2.6
1 -4 23 2.7 1
1 -4 23 4.5 1.8
-1 4 -23 6 2.4
-1 -4 23 4.2 1.1
-1 4 -23 7 2
-1 -4 23 2.2 1.7
2 4 -23 9 2.2
2 -4 23 4.2 1.3
2 -4 23 6 2.1
2 4 -23 9.9 3.1
-2 4 -23 6.6 2
-2 -4 23 10.8 1.4
-2 4 -23 8.2 2.5
-2 -4 23 4.3 1.8
3 4 -23 25 2.9
3 -4 23 20.5 2.2
3 -4 23 36.6 3.3
3 4 -23 31.2 4.2
-3 4 -23 28.8 3.3
-3 4 -23 29.4 3.8
-3 -4 23 34.8 2.1
-3 -4 23 31 2.7
4 -4 23 40.3 3.5
4 4 -23 31.7 4
4 4 -23 35.9 3.7
-4 4 -23 32.8 3.8
-4 4 -23 39.8 3.7
-4 -4 23 28.7 3
-4 -4 23 36.6 2.5
0 5 -23 14.4 2.5
0 5 -23 12.8 2.8
0 -5 23 6.7 2
0 -5 23 15.2 1.8
1 5 -23 1.8 2.4
1 -5 23 2.6 1.8
1 5 -23 2.1 1.8
1 -5 23 1.9 1.2
-1 -5 23 0.6 1.4
-1 -5 23 3.9 1.1
-1 5 -23 2.3 1.9
-1 5 -23 2.1 2.1
2 5 -23 1.3 2.6
2 -5 23 3.4 2.2
2 -5 23 0 1.1
2 5 -23 1.5 2.2
-2 5 -23 2.1 1.8
-2 -5 23 1.3 1.3
-2 5 -23 3.3 2.3
-2 -5 23 5.7 1.7
3 -5 23 10.4 2.5
3 5 -23 6 1.9
3 5 -23 7.3 3
3 -5 23 2 1.4
-3 -5 23 5.1 1.4
-3 5 -23 6.9 2
-3 5 -23 6.2 2.8
-3 -5 23 8.3 1.7
4 -5 23 1.5 1.9
4 5 -23 2.1 1.9
4 5 -23 2.6 2.7
-4 -5 23 1.4 1.5
-4 5 -23 -0.6 1.7
-4 -5 23 3.1 1.2
-4 5 -23 1.7 2.4
0 -6 23 -3.4 1.6
0 6 -23 3 1.7
0 6 -23 3.5 2.4
0 -6 23 2.9 1.2
1 6 -23 14.9 3.3
1 -6 23 8 2.7
1 -6 23 14.6 1.7
1 6 -23 13.6 2.6
-1 -6 23 13.1 2.3
-1 6 -23 15.1 3.1
-1 -6 23 11.3 1.7
-1 6 -23 13.9 2.6
2 -6 23 19 3.1
2 -6 23 20.4 2.1
2 6 -23 22.8 3
2 6 -23 22.3 4
-2 6 -23 15.9 2.8
-2 6 -23 18 2.7
-2 -6 23 20.2 2.2
-2 -6 23 20.8 2.7
3 6 -23 1.3 1.9
3 -6 23 6.6 2.1
3 6 -23 4.9 2.8
-3 -6 23 2.2 1.3
-3 -6 23 5 1.6
-3 6 -23 3.8 2.5
-3 6 -23 1.1 1.6
0 7 -23 49.1 4.8
0 -7 23 58.79 3.1
0 -7 23 44.4 4.2
0 7 -23 54.29 3.9
1 -7 23 6.5 2.6
1 7 -23 11.6 3.1
1 -7 23 11.2 1.7
1 7 -23 10.7 2.3
-1 -7 23 2.7 2.2
-1 7 -23 9.2 2.2
-1 -7 23 10 1.9
-1 7 -23 11.7 2.8
2 -7 23 26.7 3.6
2 7 -23 21.3 2.9
2 7 -23 18.2 3.7
2 -7 23 24.2 2.3
-2 -7 23 18.9 2.8
-2 7 -23 18.6 2.7
-2 7 -23 23.1 3.3
-2 -7 23 26 2.6
4 1 -24 71.19 6.1
-4 -1 24 69.79 4.4
-4 -1 24 70.39 4.7
5 1 -24 29.1 3.3
5 1 -24 25.5 3.7
-5 -1 24 29.8 2.6
-5 -1 24 31.1 2.3
1 2 -24 10.2 2.7
1 2 -24 10.8 2.3
-1 -2 24 12 1.4
-1 -2 24 9.9 1.8
2 2 -24 11.9 2.9
2 2 -24 16.5 2.5
-2 -2 24 12.1 1.4
-2 -2 24 16.5 1.8
3 2 -24 64.29 5.3
3 2 -24 63.99 4.4
-3 -2 24 67.09 3
-3 -2 24 69.79 3.3
4 2 -24 1.3 2
4 2 -24 -0.2 2.4
-4 -2 24 1.8 0.8
-4 -2 24 2.3 1.1
5 2 -24 109.79 5.4
5 2 -24 99.29 6.2
-5 -2 24 104.19 4
-5 -2 24 91.49 4.3
0 -3 24 52.79 2.6
0 3 -24 58.49 4.7
0 -3 24 63.99 3.4
0 3 -24 59.59 3.8
1 3 -24 1.3 2
1 3 -24 2.9 2.6
1 -3 24 -1.5 1.4
1 -3 24 -0.1 0.8
-1 -3 24 0.7 0.8
-1 -3 24 1.6 1.2
-1 3 -24 0.2 1.7
-1 3 -24 1.3 2
2 3 -24 49.2 5
2 -3 24 56.99 2.9
2 -3 24 58.39 5.7
2 3 -24 54.69 3.9
-2 -3 24 65.89 3.4
-2 3 -24 58.19 4.2
-2 3 -24 54.49 4.2
-2 -3 24 60.89 2.7
3 3 -24 64.69 5.2
3 3 -24 62.49 4.1
-3 -3 24 60.59 2.8
-3 -3 24 58.19 3.5
4 3 -24 51.79 4
4 3 -24 54.19 5
-4 -3 24 50.99 2.7
-4 -3 24 52.19 3.3
5 3 -24 20.4 5.7
5 3 -24 13 3.2
-5 -3 24 19.7 3.4
-5 -3 24 24.8 2.5
0 4 -24 0.5 2.4
0 4 -24 -2.4 1.6
0 -4 24 -0.7 0.9
0 -4 24 1 1.3
1 -4 24 11.6 2.4
1 -4 24 16.3 1.7
1 4 -24 15 3.4
1 4 -24 14.5 2.4
-1 4 -24 12.9 2.7
-1 -4 24 17.4 2.1
-1 4 -24 16.1 2.6
-1 -4 24 16.8 1.8
2 4 -24 29.4 4.1
2 -4 24 22.8 2.1
2 4 -24 20.6 2.9
2 -4 24 24.7 3.3
-2 -4 24 24.3 2.1
-2 4 -24 26.2 3.2
-2 -4 24 25.2 2.8
-2 4 -24 20.7 2.7
3 4 -24 77.19 5.8
3 4 -24 76.39 4.5
3 -4 24 70.59 4.5
-3 -4 24 80.69 3.2
-3 4 -24 76.29 4.4
-3 4 -24 68.69 5
-3 -4 24 75.49 3.8
4 -4 24 3.7 2
4 4 -24 2 2.1
4 4 -24 2.1 2.8
-4 4 -24 -0.8 2.4
-4 -4 24 1.6 1.1
-4 4 -24 -0.8 1.8
-4 -4 24 -1.4 1.4
0 -5 24 0.1 1.7
0 5 -24 0.3 1.7
0 5 -24 1 2.4
0 -5 24 3.2 1.1
1 -5 24 17.6 2.9
1 5 -24 20.4 2.9
1 5 -24 26.8 4.1
1 -5 24 18.1 2
-1 -5 24 22.1 2.9
-1 5 -24 21.1 3.3
-1 5 -24 22.9 3
-1 -5 24 25.6 2.1
2 -5 24 21.2 2.1
2 -5 24 21.9 3.2
2 5 -24 19.8 3.8
2 5 -24 22.9 3.2
-2 -5 24 24 2.9
-2 5 -24 27.6 3.4
-2 5 -24 25.5 3.1
-2 -5 24 23 2.2
3 -5 24 19.3 2.8
3 5 -24 13.7 2.7
3 5 -24 19.8 3.9
-3 -5 24 19.1 2
-3 -5 24 19.4 2.4
-3 5 -24 16 3.3
-3 5 -24 15.1 2.6
4 -5 24 29.6 3.6
4 5 -24 35 6.7
4 5 -24 32.9 4.1
-4 5 -24 26.9 3.3
-4 5 -24 28.3 4
-4 -5 24 41.2 3.3
-4 -5 24 41.8 4.6
0 6 -24 2.6 1.7
0 -6 24 2.1 1.1
0 6 -24 2 2.6
0 -6 24 1.9 1.7
1 6 -24 34.6 4.5
1 -6 24 42.3 2.5
1 6 -24 34 3.7
1 -6 24 33.6 3.7
-1 6 -24 36.1 4.1
-1 -6 24 36.3 2.7
-1 6 -24 39.1 3.6
-1 -6 24 30.7 3.4
2 -6 24 21 3.1
2 -6 24 19.9 1.9
2 6 -24 13.4 2.7
2 6 -24 13.9 3.7
-2 6 -24 14.2 2.6
-2 6 -24 16.5 2.9
-2 -6 24 14.8 2.6
-2 -6 24 14.2 1.9
3 6 -24 24.4 3.4
3 6 -24 26.4 4.1
3 -6 24 23.7 3.5
-3 -6 24 22.6 2.4
-3 6 -24 26.6 3.9
-3 6 -24 23.2 2.9
-3 -6 24 28.3 2.8
0 7 -24 -0.4 2.5
0 -7 24 2.1 1.3
0 7 -24 1.5 1.7
0 -7 24 3.4 1.8
1 -7 24 -1.4 2.2
1 7 -24 3.2 3
1 -7 24 3.4 1.4
1 7 -24 3.3 2
-1 7 -24 0.9 1.7
-1 -7 24 3.4 2
-1 7 -24 2.5 2.5
-1 -7 24 2.7 1.6
2 -7 24 21.5 5.4
-2 7 -24 28.9 5.9
2 2 -25 4.2 2.8
2 2 -25 0.6 2
-2 -2 25 5.1 1.1
3 2 -25 10.4 2.4
3 2 -25 9 3
-3 -2 25 14.3 1.6
-3 -2 25 11.3 1.8
4 2 -25 73.19 5.5
4 2 -25 76.39 4.5
-4 -2 25 78.19 3.2
-4 -2 25 77.09 3.7
5 2 -25 12.5 4.3
-5 -2 25 15.6 3.1
0 3 -25 52.19 5.2
0 -3 25 57.99 3.5
0 3 -25 53.19 4
0 -3 25 57.49 2.7
1 -3 25 0.4 1
1 3 -25 1.6 2.8
1 -3 25 -0.2 2.4
1 3 -25 1.3 1.8
-1 3 -25 1.3 2.4
-1 3 -25 5.3 2.8
-1 -3 25 -1.7 1.6
-1 -3 25 3.4 1
2 3 -25 13.5 3.3
2 3 -25 11.5 2.5
-2 -3 25 14.2 1.7
-2 -3 25 15.3 2.2
3 3 -25 8.3 3
3 3 -25 7.6 2.3
-3 -3 25 6.2 1.6
-3 -3 25 10.9 1.5
4 3 -25 -1.7 2
4 3 -25 1.7 2.4
-4 -3 25 0.1 1.2
-4 -3 25 0.5 1.1
0 -4 25 38.6 2.4
0 4 -25 36.3 3.7
0 4 -25 36.7 4.4
0 -4 25 41.4 3.1
1 4 -25 11.1 3.4
1 -4 25 5.3 1.2
1 4 -25 6.4 2.1
1 -4 25 2.9 1.9
-1 -4 25 9.5 1.9
-1 4 -25 6.8 2.6
-1 -4 25 8.1 1.3
-1 4 -25 6.7 2.3
2 -4 25 63.39 4.2
2 -4 25 63.09 2.8
2 4 -25 53.49 4.5
2 4 -25 58.79 5.5
-2 4 -25 53.69 4.2
-2 -4 25 62.99 3.6
-2 4 -25 59.59 4.1
-2 -4 25 51.69 3
3 4 -25 4.9 3.1
3 4 -25 10 2.3
-3 4 -25 7 2.7
-3 4 -25 8.1 2.2
-3 -4 25 5.5 1.4
-3 -4 25 6.5 1.7
4 4 -25 31.2 4.4
4 4 -25 22.5 3.1
-4 -4 25 31.7 2.3
-4 -4 25 21.4 2.7
0 5 -25 20.5 3.7
0 -5 25 24.5 2
0 5 -25 19.6 2.8
0 -5 25 30.7 2.9
1 5 -25 4.6 3.1
1 -5 25 2 2
1 -5 25 5.7 1.2
1 5 -25 5.8 2.3
-1 5 -25 5.1 2.1
-1 5 -25 7 2.7
-1 -5 25 3 1.3
2 -5 25 48.8 4.1
2 5 -25 52.19 5.4
2 5 -25 49 4.2
2 -5 25 56.39 2.8
-2 5 -25 53.49 4.1
-2 5 -25 54.19 4.5
-2 -5 25 47.2 3.7
-2 -5 25 51.59 2.8
3 5 -25 7.7 2.5
3 -5 25 12.1 2.7
3 5 -25 6.5 3.1
-3 -5 25 9.3 1.6
-3 -5 25 8.9 1.9
-3 5 -25 7.8 2.9
-3 5 -25 10.2 2.4
0 -6 25 10.5 2.1
0 6 -25 8.8 2.3
0 6 -25 6.5 3
0 -6 25 8.7 1.5
1 -6 25 29.1 2.2
1 -6 25 15.5 2.9
1 6 -25 26.6 4.6
1 6 -25 22.6 3
-1 -6 25 32.3 3
-1 6 -25 24.8 3.7
-1 6 -25 21.3 3
-1 -6 25 26.1 2.4
2 6 -25 57.29 4.4
2 6 -25 62.69 5.7
2 -6 25 56.59 4.7
2 -6 25 61.39 3
-2 6 -25 60.79 4.5
-2 -6 25 47.1 3.9
-2 -6 25 60.19 3.2
-2 6 -25 52.19 4.7
0 -7 25 1 1.8
0 7 -25 1.1 4.3
0 7 -25 -2.9 2.3
4 2 -26 18 3.4
4 2 -26 17.4 3
-4 -2 26 19.5 2.1
-4 -2 26 22.1 2.2
0 -3 26 76.39 4.2
1 3 -26 27.8 4.1
1 3 -26 26.5 3
-1 -3 26 32.3 2.1
-1 -3 26 27.8 2.9
2 3 -26 57.39 5.4
2 3 -26 58.09 4.6
-2 -3 26 54.39 2.9
-2 -3 26 57.39 3.5
3 3 -26 44.8 3.9
3 3 -26 37.9 4.6
-3 -3 26 47.6 3.1
-3 -3 26 39 2.5
4 3 -26 8.1 2.4
4 3 -26 5.6 3
-4 -3 26 6.9 1.3
-4 -3 26 4 1.7
0 -4 26 -0.4 1.6
0 4 -26 -0.9 2.4
0 4 -26 1.8 1.9
1 -4 26 25.1 1.9
1 4 -26 15.9 3.7
1 4 -26 17.4 2.9
1 -4 26 23.8 3
-1 -4 26 12.7 2.7
-1 4 -26 19.7 2.9
-1 4 -26 23.9 3.7
-1 -4 26 19.7 2
2 -4 26 38.5 2.1
2 4 -26 26.3 4.2
2 -4 26 34.8 3.5
2 4 -26 34.2 3.8
-2 -4 26 36 3
-2 4 -26 32.1 3.5
-2 -4 26 32.4 2.4
-2 4 -26 33.9 3.9
3 4 -26 19.9 3.1
3 4 -26 20.2 4
-3 -4 26 25.1 2.1
-3 -4 26 18.9 2.6
0 5 -26 48 5.4
0 5 -26 52.29 4.1
0 -5 26 59.69 2.9
0 -5 26 60.09 3.8
1 5 -26 20.4 3.1
1 -5 26 29.8 2.2
1 5 -26 25.3 4.4
1 -5 26 22.1 3.1
-1 5 -26 25.1 3.9
-1 5 -26 21.6 2.9
-1 -5 26 24.8 3.1
-1 -5 26 22.3 2.2
2 5 -26 19 3.1
2 -5 26 20.5 3
2 -5 26 29.8 2
2 5 -26 18.9 4.1
-2 -5 26 23.2 2.2
-2 5 -26 19.7 2.9
-2 5 -26 20 3.2
-2 -5 26 26.6 2.9
3 5 -26 20.6 3.7
3 5 -26 20.1 4.9
3 -5 26 12.7 3.2
-3 5 -26 19.5 3.3
-3 -5 26 24 3.5
-3 5 -26 16.5 2.7
-3 -5 26 21.8 2.7
0 -6 26 26.5 3.2
0 -6 26 39.1 2.5
0 6 -26 35.1 3.9
0 6 -26 27.6 4.2
1 6 -26 2.7 3.4
1 6 -26 3.4 2.3
1 -6 26 8.1 1.5
1 -6 26 10.8 2.3
-1 -6 26 4.7 1.6
-1 -6 26 6.4 2.1
-1 6 -26 6.1 2.2
-1 6 -26 2.3 2.7
2 -6 26 0 1.4
2 -6 26 1.3 3.1
-2 6 -26 -0.2 2.7
-2 6 -26 0.7 3.5
2 3 -27 52.19 4.4
2 3 -27 49.2 5.4
-2 -3 27 55.89 3.2
-2 -3 27 54.79 2.9
3 3 -27 52.39 5.3
3 3 -27 45.1 4.2
-3 -3 27 55.49 2.8
-3 -3 27 63.59 3.4
0 4 -27 3.7 2.2
0 4 -27 5.5 3
0 -4 27 6.7 1.2
1 -4 27 11.4 2.4
1 4 -27 11.8 3.5
1 -4 27 19.6 1.7
1 4 -27 10.7 2.7
-1 4 -27 12.6 3.1
-1 4 -27 13.7 2.6
-1 -4 27 14.5 1.8
-1 -4 27 11.3 2.2
2 4 -27 31.6 3.7
2 4 -27 31 4.3
-2 -4 27 33.3 3.3
-2 -4 27 33.6 2.4
3 4 -27 41.2 4.5
3 4 -27 45.9 5.2
-3 -4 27 39.4 2.7
-3 -4 27 46.2 3.4
0 -5 27 3.6 1.6
0 5 -27 2.2 2.1
0 5 -27 0.6 2.9
1 -5 27 10.7 1.5
1 5 -27 9.5 2.5
1 -5 27 10.6 2.2
1 5 -27 6 3.4
-1 -5 27 10.7 1.7
-1 5 -27 6.9 2.3
-1 5 -27 12.1 3.1
-1 -5 27 2.5 2.3
2 5 -27 37.2 3.9
2 5 -27 32.8 4.7
2 -5 27 38 2.5
2 -5 27 23 3.5
-2 5 -27 35 3.7
-2 -5 27 35.2 2.6
-2 5 -27 27.1 3.8
-2 -5 27 38 3.2
0 4 -28 54.89 5.8
0 4 -28 56.89 4.6
0 -4 28 54.79 4.5
0 -4 28 58.79 3
1 4 -28 42.2 4.8
1 4 -28 36.9 3.9
-1 -4 28 46.6 2.8
-1 -4 28 45.5 3.6
2 4 -28 71.89 6.2
2 4 -28 71.39 4.7
-2 -4 28 75.79 3.4
-2 -4 28 76.79 4.1
0 5 -28 93.39 5.2
0 5 -28 92.89 6.7
0 -5 28 97.99 5
0 -5 28 98.49 3.8
1 5 -28 86.99 5.1
1 5 -28 101.79 7.3
1 -5 28 76.19 5
-1 5 -28 88.19 5
-1 5 -28 86.29 6
-1 -5 28 85.09 3.9
-1 -5 28 82.39 4.8
loop_
_geom_angle_atom_site_label_1
_geom_angle_atom_site_label_2
_geom_angle_atom_site_label_3
_geom_angle
_geom_angle_site_symmetry_1
_geom_angle_site_symmetry_3
_geom_angle_publ_flag
H1A N1 H1B 107.8(6) . . ?
H1C N1 H1B 110.8(7) . . ?
H1C N1 H1A 111.5(7) . . ?
C2 N1 H1B 111.0(4) . . ?
C2 N1 H1A 108.4(4) . . ?
C2 N1 H1C 107.3(5) . . ?
C6 N3 H3 125.7(4) . . ?
C5 N3 H3 127.1(4) . . ?
C5 N3 C6 107.22(4) . . ?
C5 N2 C4 105.39(4) . . ?
C6 C4 N2 109.34(4) . . ?
C3 C4 N2 120.89(4) . . ?
C3 C4 C6 129.77(4) . . ?
O1 C1 O2 126.55(4) . . ?
C2 C1 O2 116.38(4) . . ?
C2 C1 O1 117.03(3) . . ?
C1 C2 N1 109.65(4) . . ?
H2 C2 N1 108.1(4) . . ?
H2 C2 C1 108.0(4) . . ?
C3 C2 N1 110.23(3) . . ?
C3 C2 C1 110.42(4) . . ?
C3 C2 H2 110.3(4) . . ?
C4 C6 N3 106.12(4) . . ?
H6 C6 N3 123.2(4) . . ?
H6 C6 C4 130.7(4) . . ?
N2 C5 N3 111.93(4) . . ?
H5 C5 N3 123.0(4) . . ?
H5 C5 N2 125.1(4) . . ?
C2 C3 C4 112.28(4) . . ?
H3B C3 C4 109.9(4) . . ?
H3B C3 C2 108.3(4) . . ?
H3A C3 C4 111.7(4) . . ?
H3A C3 C2 108.7(4) . . ?
H3A C3 H3B 105.6(6) . . ?
loop_
_geom_bond_atom_site_label_1
_geom_bond_atom_site_label_2
_geom_bond_distance
_geom_bond_site_symmetry_2
_geom_bond_publ_flag
O2 C1 1.2586(5) . ?
O1 C1 1.2550(5) . ?
N1 H1B 1.012(8) . ?
N1 H1A 1.019(8) . ?
N1 H1C 1.010(9) . ?
N1 C2 1.4927(5) . ?
N3 H3 1.017(8) . ?
N3 C6 1.3782(6) . ?
N3 C5 1.3524(6) . ?
N2 C4 1.3909(5) . ?
N2 C5 1.3252(6) . ?
C4 C6 1.3755(6) . ?
C4 C3 1.5005(6) . ?
C1 C2 1.5395(6) . ?
C2 H2 1.085(7) . ?
C2 C3 1.5413(7) . ?
C6 H6 1.065(7) . ?
C5 H5 1.060(6) . ?
C3 H3B 1.052(7) . ?
C3 H3A 1.095(7) . ?
loop_
_geom_torsion_atom_site_label_1
_geom_torsion_atom_site_label_2
_geom_torsion_atom_site_label_3
_geom_torsion_atom_site_label_4
_geom_torsion
_geom_torsion_site_symmetry_1
_geom_torsion_site_symmetry_2
_geom_torsion_site_symmetry_3
_geom_torsion_site_symmetry_4
_geom_torsion_publ_flag
C5 N2 C4 C3 -179.69(4) . . . . ?
C6 N3 C5 N2 0.58(5) . . . . ?
O1 C1 C2 C3 94.92(5) . . . . ?
N1 C2 C3 C4 -58.08(4) . . . . ?
C2 C3 C4 C6 -123.97(5) . . . . ?
H1A N1 C2 C1 162.5(5) . . . . ?
H1B N1 C2 C1 44.3(5) . . . . ?
H1C N1 C2 C1 -77.1(5) . . . . ?
C4 N2 C5 H5 179.0(5) . . . . ?
H3 N3 C5 H5 -1.0(7) . . . . ?
H3 N3 C6 H6 3.3(7) . . . . ?
C5 N2 C4 C6 0.12(5) . . . . ?
C5 N3 C6 C4 -0.47(5) . . . . ?
O2 C1 C2 N1 155.47(4) . . . . ?
C1 C2 C3 C4 -179.38(3) . . . . ?
N2 C4 C6 N3 0.22(5) . . . . ?
H1A N1 C2 C3 40.7(5) . . . . ?
H1B N1 C2 C3 -77.5(5) . . . . ?
H1C N1 C2 C3 161.2(5) . . . . ?
C6 N3 C5 H5 -178.8(4) . . . . ?
C5 N3 C6 H6 -178.8(5) . . . . ?
O1 C1 C2 H2 -144.4(4) . . . . ?
C4 N2 C5 N3 -0.43(5) . . . . ?
O1 C1 C2 N1 -26.72(6) . . . . ?
O2 C1 C2 C3 -82.89(5) . . . . ?
C2 C3 C4 N2 55.80(5) . . . . ?
C3 C4 C6 N3 -179.98(7) . . . . ?
H1A N1 C2 H2 -79.9(6) . . . . ?
H1B N1 C2 H2 161.9(6) . . . . ?
H1C N1 C2 H2 40.5(6) . . . . ?
H3 N3 C5 N2 178.4(6) . . . . ?
H3 N3 C6 C4 -178.4(6) . . . . ?
O2 C1 C2 H2 37.8(4) . . . . ?
N1 C2 C3 H3A 66.0(4) . . . . ?
C1 C2 C3 H3B 59.1(4) . . . . ?
H2 C2 C3 H3B -60.3(6) . . . . ?
H3B C3 C4 N2 176.4(4) . . . . ?
C3 C4 C6 H6 -1.8(5) . . . . ?
N1 C2 C3 H3B -179.6(4) . . . . ?
H2 C2 C3 C4 61.2(4) . . . . ?
H3A C3 C4 N2 -66.7(4) . . . . ?
H3B C3 C4 C6 -3.4(4) . . . . ?
C1 C2 C3 H3A -55.3(4) . . . . ?
H2 C2 C3 H3A -174.6(6) . . . . ?
H3A C3 C4 C6 113.6(4) . . . . ?
N2 C4 C6 H6 178.4(5) . . . . ?
loop_
_restr_rigu_atom_site_label_1
_restr_rigu_atom_site_label_2
_restr_rigu_target_weight_param
_restr_rigu_u13_diff
_restr_rigu_u23_diff
_restr_rigu_u33_diff
N1 H1B 0.004000 0.003246 -0.000167 -0.002721
N1 H1A 0.004000 0.002563 0.002702 -0.005306
N1 H1C 0.004000 -0.002219 -0.000955 -0.002017
H1B H1A 0.004000 0.001238 0.013311 0.000238
H1B H1C 0.004000 0.007320 -0.020247 0.003831
H1A H1C 0.004000 0.010988 0.003273 0.002433
N3 H3 0.004000 0.002880 0.002113 -0.000648
N3 N2 0.004000 0.001029 0.000289 -0.000349
N3 C4 0.004000 -0.000923 0.000714 0.000152
N3 C6 0.004000 -0.000997 0.000802 0.000255
N3 H6 0.004000 -0.005654 0.002375 -0.008571
N3 C5 0.004000 0.001622 -0.000772 -0.000219
N3 H5 0.004000 0.001757 -0.003828 -0.007374
H3 C6 0.004000 -0.001838 0.007264 -0.000134
H3 C5 0.004000 0.004357 -0.009181 0.004409
N2 C4 0.004000 -0.000242 -0.000812 0.000106
N2 C6 0.004000 0.000219 0.000164 0.000013
N2 C5 0.004000 0.000981 -0.000076 -0.000433
N2 H5 0.004000 0.003738 -0.001595 -0.007926
C4 C6 0.004000 -0.000665 -0.000355 0.000161
C4 H6 0.004000 -0.003344 -0.004450 -0.008330
C4 C5 0.004000 0.000289 0.000448 -0.000433
C2 H2 0.004000 0.004948 -0.004472 -0.005621
C2 C3 0.004000 -0.000804 -0.000336 0.000206
C2 H3B 0.004000 -0.007311 0.002068 -0.012351
C2 H3A 0.004000 0.003916 0.000748 -0.010945
H2 C3 0.004000 -0.001369 -0.009579 0.005577
C6 H6 0.004000 0.000639 -0.000623 -0.006506
C6 C5 0.004000 -0.000608 -0.001043 0.000208
C5 H5 0.004000 0.000498 -0.001323 -0.006675
C3 H3B 0.004000 -0.004786 -0.001187 -0.008759
C3 H3A 0.004000 0.000782 -0.000946 -0.006911
H3B H3A 0.004000 -0.014997 0.001004 0.006575

_cod_database_fobs_code 2108885
