#------------------------------------------------------------------------------
#$Date: 2018-11-17 05:34:44 +0200 (Sat, 17 Nov 2018) $
#$Revision: 212032 $
#$URL: file:///home/coder/svn-repositories/cod/cif/2/10/83/2108321.cif $
#------------------------------------------------------------------------------
#
# This file is available in the Crystallography Open Database (COD),
# http://www.crystallography.net/. The original data for this entry
# were provided by IUCr Journals, http://journals.iucr.org/.
#
# The file may be used within the scientific community so long as
# proper attribution is given to the journal article from which the
# data were obtained.
#
data_2108321
loop_
_publ_author_name
'Mondal, Pradip Kumar'
'Shukla, Rahul'
'Biswas, Subha'
'Chopra, Deepak'
_publ_section_title
;
 Role of halogen-involved intermolecular interactions and existence of
 isostructurality in the crystal packing of ---CF~3~ and halogen (Cl or Br
 or I) substituted benzamides
;
_journal_coeditor_code           AW5013
_journal_issue                   6
_journal_name_full               'Acta Crystallographica Section B'
_journal_page_first
;
;
_journal_paper_doi               10.1107/S2052520618013422
_journal_volume                  74
_journal_year                    2018
_chemical_formula_sum            'C14 H9 F3 I N O'
_chemical_formula_weight         391.12
_space_group_crystal_system      monoclinic
_space_group_IT_number           4
_space_group_name_Hall           'P 2yb'
_space_group_name_H-M_alt        'P 1 21 1'
_symmetry_space_group_name_Hall  'P 2yb'
_symmetry_space_group_name_H-M   'P 1 21 1'
_atom_sites_solution_hydrogens   mixed
_audit_creation_method           SHELXL-2016/6
_cell_angle_alpha                90
_cell_angle_beta                 92.549(2)
_cell_angle_gamma                90
_cell_formula_units_Z            2
_cell_length_a                   4.9085(3)
_cell_length_b                   4.9644(3)
_cell_length_c                   26.7593(16)
_cell_measurement_reflns_used    7377
_cell_measurement_temperature    101(2)
_cell_measurement_theta_max      29.91
_cell_measurement_theta_min      3.05
_cell_volume                     651.42(7)
_computing_cell_refinement       'Bruker SAINT'
_computing_data_collection       'Bruker APEX2'
_computing_data_reduction        'Bruker SAINT'
_computing_molecular_graphics    'Bruker SHELXTL'
_computing_publication_material  'Bruker SHELXTL'
_computing_structure_refinement  'SHELXL-2016/6 (Sheldrick, 2016)'
_computing_structure_solution    'SHELXS-97 (Sheldrick 2008)'
_diffrn_ambient_temperature      101(2)
_diffrn_measured_fraction_theta_full 0.995
_diffrn_measured_fraction_theta_max 0.996
_diffrn_measurement_device_type  'Bruker APEX-II CCD'
_diffrn_measurement_method       '\f and \w scans'
_diffrn_radiation_type           MoK\a
_diffrn_radiation_wavelength     0.71073
_diffrn_reflns_av_R_equivalents  0.0262
_diffrn_reflns_av_unetI/netI     0.0365
_diffrn_reflns_Laue_measured_fraction_full 0.995
_diffrn_reflns_Laue_measured_fraction_max 0.996
_diffrn_reflns_limit_h_max       6
_diffrn_reflns_limit_h_min       -6
_diffrn_reflns_limit_k_max       6
_diffrn_reflns_limit_k_min       -5
_diffrn_reflns_limit_l_max       31
_diffrn_reflns_limit_l_min       -36
_diffrn_reflns_number            8008
_diffrn_reflns_point_group_measured_fraction_full 0.997
_diffrn_reflns_point_group_measured_fraction_max 0.998
_diffrn_reflns_theta_full        25.242
_diffrn_reflns_theta_max         29.130
_diffrn_reflns_theta_min         3.048
_exptl_absorpt_coefficient_mu    2.488
_exptl_absorpt_correction_T_max  0.7221
_exptl_absorpt_correction_T_min  0.5123
_exptl_absorpt_correction_type   multi-scan
_exptl_absorpt_process_details   'SADABS 2014/4'
_exptl_crystal_density_diffrn    1.994
_exptl_crystal_description       Rod
_exptl_crystal_F_000             376
_exptl_crystal_size_max          0.400
_exptl_crystal_size_mid          0.400
_exptl_crystal_size_min          0.080
_refine_diff_density_max         0.500
_refine_diff_density_min         -0.667
_refine_diff_density_rms         0.092
_refine_ls_abs_structure_details
;
 Refined as an inversion twin.
;
_refine_ls_abs_structure_Flack   0.01(2)
_refine_ls_extinction_method     none
_refine_ls_goodness_of_fit_ref   1.030
_refine_ls_hydrogen_treatment    mixed
_refine_ls_matrix_type           full
_refine_ls_number_parameters     185
_refine_ls_number_reflns         3193
_refine_ls_number_restraints     1
_refine_ls_restrained_S_all      1.030
_refine_ls_R_factor_all          0.0216
_refine_ls_R_factor_gt           0.0208
_refine_ls_shift/su_max          0.003
_refine_ls_shift/su_mean         0.000
_refine_ls_structure_factor_coef Fsqd
_refine_ls_weighting_details
'w=1/[\s^2^(Fo^2^)+(0.0305P)^2^+0.0180P] where P=(Fo^2^+2Fc^2^)/3'
_refine_ls_weighting_scheme      calc
_refine_ls_wR_factor_gt          0.0528
_refine_ls_wR_factor_ref         0.0533
_reflns_Friedel_coverage         0.805
_reflns_Friedel_fraction_full    1.000
_reflns_Friedel_fraction_max     0.999
_reflns_number_gt                3117
_reflns_number_total             3193
_reflns_threshold_expression     'I > 2\s(I)'
_cod_data_source_file            aw5013sup1.cif
_cod_data_source_block           PI34
_cod_database_code               2108321
_shelx_shelxl_version_number     2016/6
_shelx_space_group_comment
;
The symmetry employed for this shelxl refinement is uniquely defined
by the following loop, which should always be used as a source of
symmetry information in preference to the above space-group names.
They are only intended as comments.
;
_shelx_estimated_absorpt_t_min   0.436
_shelx_estimated_absorpt_t_max   0.826
_shelx_res_file
;
TITL PI34 in P2(1)
    shelx.res
    created by SHELXL-2016/6 at 10:48:28 on 25-Oct-2018
CELL  0.71073    4.9085    4.9644   26.7593    90.000    92.549    90.000
ZERR        2    0.0003    0.0003    0.0016     0.000     0.002     0.000
LATT  -1
SYMM             - X ,    0.50000 + Y ,            - Z
SFAC  C  H  F  I  N  O
UNIT    28   18   6   2   2   2
TEMP  -172
SIZE    0.0800    0.4000    0.4000
L.S. 15
FMAP 2
PLAN 20
ACTA
BOND $H
CONF
TWIN
WGHT    0.030500    0.018000
BASF   0.00686
FVAR       0.22514
RESI 0
I1    4    0.637509    0.752295    0.952504    11.00000    0.03010    0.02252 =
         0.01244   -0.00242    0.00111   -0.00481
F1    3   -0.467686    0.677516    0.572788    11.00000    0.02264    0.03230 =
         0.02162   -0.00227   -0.00587    0.01206
F2    3   -0.371717    0.303403    0.536534    11.00000    0.02617    0.02912 =
         0.02363   -0.00701   -0.00940   -0.00121
F3    3   -0.111961    0.648308    0.528592    11.00000    0.02724    0.03728 =
         0.01735    0.01011   -0.00145   -0.00302
O1    6    0.504094   -0.032312    0.736899    11.00000    0.03150    0.00858 =
         0.02742    0.00148   -0.01099    0.00070
N1    5    0.522967    0.405242    0.761546    11.00000    0.01700    0.00885 =
         0.01285    0.00192   -0.00302    0.00170
H1    2    0.489785    0.575934    0.749893    11.00000   -1.20000
C1    1    0.249587    0.286846    0.687836    11.00000    0.01366    0.01333 =
         0.01547    0.00054   -0.00035   -0.00221
C2    1    0.065681    0.499413    0.692025    11.00000    0.01458    0.01574 =
         0.01237   -0.00348   -0.00030    0.00034
AFIX  43
H2    2    0.057601    0.595558    0.722619    11.00000   -1.20000
AFIX   0
C3    1   -0.106163    0.570366    0.651214    11.00000    0.01392    0.01655 =
         0.01629   -0.00014   -0.00111    0.00270
AFIX  43
H3    2   -0.232208    0.714284    0.653924    11.00000   -1.20000
AFIX   0
C4    1   -0.091830    0.429892    0.606807    11.00000    0.01258    0.01533 =
         0.01576    0.00127   -0.00019   -0.00216
C5    1    0.088264    0.215996    0.602468    11.00000    0.01976    0.01787 =
         0.01383   -0.00481   -0.00004    0.00228
AFIX  43
H5    2    0.095989    0.119750    0.571879    11.00000   -1.20000
AFIX   0
C6    1    0.256934    0.144634    0.643435    11.00000    0.01836    0.01432 =
         0.01849   -0.00252   -0.00141    0.00277
AFIX  43
H6    2    0.378448   -0.003211    0.640931    11.00000   -1.20000
AFIX   0
C7    1    0.438229    0.204233    0.730905    11.00000    0.01574    0.01320 =
         0.01429    0.00148    0.00041   -0.00142
C8    1    0.681288    0.374438    0.806724    11.00000    0.01498    0.01189 =
         0.01233    0.00383   -0.00002   -0.00324
C9    1    0.615537    0.541140    0.846532    11.00000    0.01682    0.01225 =
         0.01407    0.00120   -0.00173    0.00032
AFIX  43
H9    2    0.472031    0.668747    0.842468    11.00000   -1.20000
AFIX   0
C10   1    0.760732    0.519269    0.891929    11.00000    0.02102    0.01499 =
         0.01325    0.00101   -0.00043   -0.00378
C11   1    0.975894    0.337742    0.898160    11.00000    0.01980    0.02034 =
         0.01615    0.00543   -0.00394   -0.00125
AFIX  43
H11   2    1.076677    0.325463    0.929216    11.00000   -1.20000
AFIX   0
C12   1    1.040265    0.175608    0.858320    11.00000    0.01882    0.01858 =
         0.02619    0.00365   -0.00256    0.00100
AFIX  43
H12   2    1.187415    0.051972    0.862190    11.00000   -1.20000
AFIX   0
C13   1    0.893515    0.190181    0.812666    11.00000    0.01621    0.01591 =
         0.01670    0.00054    0.00173    0.00144
AFIX  43
H13   2    0.937988    0.075304    0.785830    11.00000   -1.20000
AFIX   0
C14   1   -0.261989    0.513700    0.561288    11.00000    0.01789    0.02009 =
         0.01371   -0.00016   -0.00157    0.00059
HKLF 4




REM  PI34 in P2(1)
REM R1 =  0.0208 for    3117 Fo > 4sig(Fo)  and  0.0216 for all    3193 data
REM    185 parameters refined using      1 restraints

END

WGHT      0.0305      0.0180

REM Highest difference peak  0.500,  deepest hole -0.667,  1-sigma level  0.092
Q1    1   0.7716  0.7446  0.9820  11.00000  0.05    0.50
Q2    1   0.4730  0.7832  0.9173  11.00000  0.05    0.48
Q3    1   0.5299  0.7551  1.0204  11.00000  0.05    0.46
Q4    1   1.0349  0.7529  0.9013  11.00000  0.05    0.46
Q5    1   0.9080  0.6811  0.9100  11.00000  0.05    0.45
Q6    1   0.9114  0.8203  0.9093  11.00000  0.05    0.45
Q7    1   0.3763  0.8156  0.9930  11.00000  0.05    0.42
Q8    1   0.3675  0.6971  0.9932  11.00000  0.05    0.41
Q9    1   0.8993  0.1371  0.9895  11.00000  0.05    0.40
Q10   1   0.9008  0.3636  0.9887  11.00000  0.05    0.39
Q11   1   0.3936  0.7469  0.9525  11.00000  0.05    0.38
Q12   1   1.1603  0.6476  0.8945  11.00000  0.05    0.38
Q13   1   1.2141 -0.1317  0.8978  11.00000  0.05    0.37
Q14   1   0.3231  0.7622  0.9097  11.00000  0.05    0.37
Q15   1   0.2784  0.7284  1.0009  11.00000  0.05    0.36
Q16   1   0.3360  0.2488  0.7063  11.00000  0.05    0.36
Q17   1   0.7726  0.6752  0.9512  11.00000  0.05    0.36
Q18   1   1.2349  0.2457  0.9753  11.00000  0.05    0.33
Q19   1   0.9207  0.2525  0.8659  11.00000  0.05    0.33
Q20   1  -0.1755  0.4555  0.5855  11.00000  0.05    0.33
;
_shelx_res_checksum              20513
_shelx_hkl_file
;
   1   0   0  182.64    8.43
   1   0   0  181.41    8.43
   1   0   0  179.49    7.94
  -1   0   0  175.97    7.94
  -1   0   0  176.67    8.43
  -1   0   0  182.01    8.43
   2   0   0   24.64    1.16
  -2   0   0   25.10    1.26
  -2   0   0   24.54    1.26
   2   0   0   24.60    1.26
   2   0   0   24.53    1.26
  -2   0   0   25.06    1.15
  -3   0   0   84.80    3.79
  -3   0   0   82.74    4.11
  -3   0   0   86.28    4.10
   4   0   0   68.50    3.37
   4   0   0   66.03    3.38
  -4   0   0   66.28    3.07
   4   0   0   70.35    3.11
  -4   0   0   66.02    3.36
   5   0   0    1.18    0.32
  -5   0   0    0.84    0.19
   5   0   0    0.17    0.34
  -6   0   0    0.24    0.23
   6   0   0    0.21    0.39
   1  -1   0  508.10   21.40
   1  -1   0  495.29   22.82
  -1  -1   0  514.09   22.76
  -1  -1   0  487.79   22.72
   1  -1   0  495.00   22.77
  -1   1   0  480.24   22.75
   1   1   0  480.81   22.74
  -1   1   0  481.27   21.30
   1   1   0  461.31   21.24
   1   1   0  458.54   22.73
  -1   1   0  463.46   22.72
   2  -1   0  156.17    7.22
   2  -1   0  154.42    7.21
  -2  -1   0  153.23    7.21
  -2  -1   0  156.34    6.70
  -2  -1   0  152.15    7.20
   2  -1   0  155.62    6.74
   2   1   0  148.93    7.20
  -2   1   0  153.10    6.74
   2   1   0  151.76    7.21
   2   1   0  152.57    6.71
  -2   1   0  146.29    7.21
  -2   1   0  146.34    7.21
  -3  -1   0   50.15    2.10
   3  -1   0   45.27    2.31
   3  -1   0   48.12    2.15
   3  -1   0   49.66    2.34
  -3  -1   0   46.63    2.31
  -3   1   0   46.07    2.14
   3   1   0   44.51    2.31
   3   1   0   46.16    2.11
  -3   1   0   42.65    2.31
   3   1   0   43.43    2.31
  -3   1   0   45.90    2.33
  -4  -1   0    3.54    0.26
  -4  -1   0    2.74    0.44
   4  -1   0    2.51    0.42
   4  -1   0    2.53    0.41
   4  -1   0    3.58    0.37
  -4   1   0    3.50    0.32
  -4   1   0    2.61    0.42
   4   1   0    3.02    0.31
   4   1   0    2.70    0.44
   4   1   0    2.61    0.40
  -5  -1   0   11.73    0.69
   5  -1   0   12.92    0.95
   5   1   0   12.01    0.99
  -5   1   0   12.42    0.77
  -5   1   0   10.89    0.99
   5   1   0   12.87    0.80
   5   1   0   12.80    0.92
  -6  -1   0   11.63    0.72
   6  -1   0    9.88    1.01
  -6   1   0   10.33    0.75
   6   1   0   11.22    1.01
   0   2   0  335.36   14.74
  -1  -2   0  118.65    5.72
   1  -2   0  112.56    5.39
   1  -2   0  117.87    5.73
  -1   2   0  129.85    5.74
   1   2   0  119.60    5.72
   1   2   0  128.16    5.73
  -1   2   0  126.11    5.41
   2  -2   0    2.60    0.22
  -2  -2   0    2.15    0.22
   2  -2   0    2.08    0.24
  -2   2   0    2.02    0.23
   2   2   0    2.21    0.23
   2   2   0    2.51    0.16
  -2   2   0    2.26    0.22
   2   2   0    2.43    0.22
   3  -2   0  121.04    5.41
   3  -2   0  118.61    5.79
   3  -2   0  116.24    5.77
  -3  -2   0  118.13    5.76
  -3   2   0  125.66    5.79
   3   2   0  124.43    5.78
   3   2   0  123.07    5.34
   3   2   0  121.40    5.77
  -3   2   0  115.67    5.40
  -4  -2   0   80.08    3.94
   4  -2   0   80.21    3.68
   4  -2   0   82.80    3.97
  -4   2   0   77.17    3.67
   4   2   0   78.28    3.61
   4   2   0   80.65    3.95
   4   2   0   80.97    3.94
  -4   2   0   77.67    3.95
   5  -2   0   10.11    0.83
  -5   2   0    7.67    0.91
   5   2   0    9.35    0.68
   5   2   0   10.72    0.81
  -5   2   0    9.60    0.69
   5   2   0    9.54    0.90
   6  -2   0    5.22    0.87
  -6   2   0    4.94    0.65
   6   2   0    6.32    0.77
   0   3   0   -0.01    0.07
   1  -3   0  107.03    4.89
   1  -3   0  104.31    4.89
  -1   3   0   99.97    4.64
   2  -3   0  133.49    6.47
   2  -3   0  139.08    6.10
   2  -3   0  137.67    6.49
   2   3   0  138.46    6.46
  -2   3   0  141.19    6.49
  -2   3   0  135.53    6.12
   2   3   0  133.80    6.45
   2   3   0  134.09    6.02
   3  -3   0   41.84    1.84
  -3  -3   0   41.59    1.92
   3  -3   0   39.52    1.93
   3  -3   0   38.51    1.94
   3   3   0   37.02    1.90
  -3   3   0   34.62    1.82
  -3   3   0   34.93    1.92
   3   3   0   36.60    1.91
   3   3   0   34.36    1.72
   4  -3   0    6.61    0.60
   4   3   0    5.75    0.43
  -4   3   0    5.49    0.61
   4   3   0    6.14    0.55
   4   3   0    4.71    0.55
  -4   3   0    5.84    0.51
   5  -3   0   12.42    1.03
   5   3   0   12.11    1.05
  -5   3   0   12.92    1.14
   5   3   0   14.52    0.86
  -5   3   0   14.12    0.91
   5   3   0   14.46    0.98
   6  -3   0    5.25    0.75
   6   3   0    6.26    0.84
  -6   3   0    5.18    0.71
   0   4   0  132.19    5.90
  -1   4   0   52.46    2.41
   1   4   0   50.71    2.35
   2  -4   0   12.75    0.74
   2   4   0   13.89    0.70
   2   4   0   14.06    0.72
  -2   4   0   15.09    0.81
   3  -4   0   44.11    2.34
   3  -4   0   42.82    2.33
   3   4   0   50.74    2.32
   3   4   0   48.47    2.29
   4  -4   0   28.90    1.67
   4   4   0   30.27    1.45
  -4   4   0   31.13    1.60
   4   4   0   29.37    1.60
   4   4   0   29.87    1.61
   5  -4   0   12.19    1.09
   5   4   0   13.30    0.96
  -5   4   0   12.69    0.94
   0   5   0    0.31    0.17
   1   5   0   45.30    2.09
  -1   5   0   44.00    2.15
   2  -5   0   65.24    2.97
   2  -5   0   65.70    2.99
  -2   5   0   59.40    2.97
   2   5   0   59.70    2.85
  -3   5   0    9.06    0.73
   3   5   0    8.44    0.49
   3   5   0    8.47    0.54
   3   5   0    9.28    0.54
   4   5   0    1.89    0.33
  -4   5   0    2.51    0.43
   0   6   0   12.68    0.82
  -1   6   0   16.64    1.04
   1   6   0   17.06    0.96
   2   6   0    0.91    0.28
  -2   6   0    1.09    0.36
  -3   6   0    9.42    0.88
  -6   0   1   13.19    0.82
   6   0  -1   13.70    1.11
   5   0  -1    2.14    0.35
  -5   0   1    2.16    0.30
   5   0  -1    2.35    0.46
  -4   0   1   34.40    1.85
   4   0  -1   35.16    1.87
   4   0  -1   35.51    1.69
  -4   0   1   33.81    1.65
   4   0  -1   35.95    1.87
  -3   0   1  302.99   13.37
  -3   0   1  305.27   14.34
   2   0  -1   83.77    4.04
   2   0  -1   83.85    4.04
  -2   0   1   82.07    4.03
  -2   0   1   82.49    4.03
   2   0  -1   86.88    3.75
  -2   0   1   86.37    3.75
   1   0  -1   12.47    0.63
   1   0  -1   11.49    0.63
  -1   0   1   11.38    0.63
   1   0  -1   12.16    0.57
  -1   0   1   12.26    0.57
  -1   0  -1  353.60   16.34
  -1   0  -1  377.94   17.51
  -1   0  -1  381.11   17.47
   1   0   1  378.24   16.35
   1   0   1  391.01   17.55
   1   0   1  348.50   17.51
   2   0   1    7.23    0.39
  -2   0  -1    7.29    0.39
   2   0   1    7.24    0.45
   2   0   1    6.94    0.44
  -2   0  -1    7.16    0.45
  -2   0  -1    7.00    0.44
  -3   0  -1   82.37    3.97
   3   0   1   86.83    4.00
  -3   0  -1   79.31    3.98
   3   0   1   82.02    3.68
   3   0   1   79.20    3.99
  -3   0  -1   81.36    3.67
  -4   0  -1   58.96    2.95
  -4   0  -1   58.02    2.97
   4   0   1   58.64    2.97
  -4   0  -1   58.10    2.69
   4   0   1   60.96    2.72
   4   0   1   56.86    2.95
   5   0   1   66.97    3.55
   5   0   1   68.56    3.66
   5   0   1   73.15    3.27
  -5   0  -1   70.04    3.21
  -6   0  -1   11.13    0.75
   6   0   1   12.44    1.04
   6  -1  -1   19.12    1.36
  -6  -1   1   19.53    1.03
   6   1  -1   17.90    1.28
  -6   1   1   17.55    1.06
   5  -1  -1   67.06    3.47
  -5  -1   1   66.74    3.10
   5   1  -1   66.29    3.16
  -5   1   1   65.49    3.47
   5   1  -1   71.22    3.49
   5   1  -1   70.62    3.48
  -5   1   1   67.36    3.16
   4  -1  -1   37.08    1.78
  -4  -1   1   37.54    1.70
   4  -1  -1   36.76    1.93
  -4  -1   1   33.54    1.91
   4  -1  -1   36.18    1.93
  -4   1   1   35.30    1.74
   4   1  -1   35.85    1.93
   4   1  -1   38.30    1.94
   4   1  -1   36.18    1.73
  -4   1   1   36.74    1.94
   3  -1  -1   23.70    1.16
  -3  -1   1   22.73    1.11
   3  -1  -1   23.31    1.26
   3  -1  -1   23.15    1.27
  -3  -1   1   22.47    1.26
   3   1  -1   24.45    1.13
   3   1  -1   24.36    1.27
  -3   1   1   24.85    1.16
  -3   1   1   24.31    1.27
   3   1  -1   22.93    1.26
   2  -1  -1  361.81   16.90
   2  -1  -1  376.37   15.81
  -2  -1   1  351.36   15.87
   2  -1  -1  373.04   16.90
  -2  -1   1  363.93   16.89
   2   1  -1  353.22   16.89
   2   1  -1  353.18   15.79
   2   1  -1  364.30   16.89
  -2   1   1  341.40   15.80
  -2   1   1  361.57   16.90
  -1  -1   1  320.82   15.41
   1  -1  -1  329.71   14.47
   1  -1  -1  327.20   15.36
   1  -1  -1  309.65   15.47
  -1   1   1  336.76   14.54
   1   1  -1  334.77   15.38
   1   1  -1  339.45   15.43
   1   1  -1  316.44   14.46
  -1   1   1  339.35   15.50
   0   1   1   98.95    4.37
  -1  -1  -1   20.77    1.06
   1  -1   1   18.74    1.06
  -1  -1  -1   18.93    1.05
   1  -1   1   20.18    1.07
   1  -1   1   21.27    1.00
   1   1   1   22.82    0.97
  -1   1  -1   23.64    1.07
   1   1   1   23.42    1.07
   1   1   1   23.28    1.06
  -1   1  -1   23.39    1.07
  -2  -1  -1  418.18   19.50
   2  -1   1  403.14   19.51
   2  -1   1  431.63   19.51
  -2  -1  -1  415.34   19.50
  -2  -1  -1  424.23   18.33
  -2   1  -1  392.06   18.25
   2   1   1  398.55   18.25
   2   1   1  414.63   19.51
   2   1   1  428.02   19.50
  -2   1  -1  412.09   19.51
  -2   1  -1  436.63   19.51
  -3  -1  -1   44.78    2.27
  -3  -1  -1   45.85    2.06
   3  -1   1   45.85    2.30
   3  -1   1   45.35    2.11
   3  -1   1   41.92    2.26
  -3  -1  -1   43.47    2.27
   3   1   1   47.02    2.29
   3   1   1   46.81    2.28
  -3   1  -1   43.60    2.28
  -3   1  -1   46.53    2.11
   3   1   1   47.09    2.08
  -3   1  -1   46.87    2.30
  -4  -1  -1    0.60    0.24
  -4  -1  -1    0.95    0.15
   4  -1   1    0.58    0.23
   4  -1   1    1.00    0.27
   4  -1   1    0.82    0.20
  -4   1  -1    0.92    0.19
   4   1   1    1.09    0.20
  -4   1  -1    0.99    0.27
   4   1   1    0.99    0.26
   4   1   1    0.63    0.22
   5  -1   1   35.05    1.89
  -5  -1  -1   35.04    1.59
   5   1   1   33.17    1.86
   5   1   1   32.26    1.64
   5   1   1   31.77    1.87
  -5   1  -1   29.44    1.86
  -6  -1  -1   46.15    2.21
   6  -1   1   49.50    2.62
   6   1   1   45.07    2.57
  -6   1  -1   45.24    2.27
   6  -2  -1   10.15    1.04
   6   2  -1   10.61    0.94
  -6   2   1    9.10    0.78
   5  -2  -1    1.74    0.39
   5   2  -1    1.14    0.43
  -5   2   1    1.61    0.29
   5   2  -1    1.87    0.37
  -5   2   1    0.69    0.45
   5   2  -1    1.87    0.34
  -4  -2   1   30.99    1.63
   4  -2  -1   31.45    1.64
   4  -2  -1   31.10    1.53
  -4   2   1   28.04    1.48
  -4   2   1   28.45    1.63
   4   2  -1   29.42    1.61
   4   2  -1   29.31    1.62
   4   2  -1   29.02    1.43
   3  -2  -1  142.72    6.71
   3  -2  -1  139.28    6.70
  -3  -2   1  140.08    6.69
   3  -2  -1  144.22    6.27
  -3   2   1  137.85    6.27
   3   2  -1  136.42    6.20
   3   2  -1  135.72    6.69
  -3   2   1  143.54    6.71
   3   2  -1  141.35    6.69
  -2  -2   1   19.65    1.03
   2  -2  -1   20.00    0.99
   2  -2  -1   19.73    1.05
   2   2  -1   20.31    0.93
  -2   2   1   20.62    1.05
   2   2  -1   19.78    1.04
   2   2  -1   20.44    1.04
  -2   2   1   19.86    0.99
   1  -2  -1   39.23    1.65
  -1  -2   1   37.73    1.72
   1  -2  -1   38.42    1.74
   1   2  -1   34.91    1.72
  -1   2   1   33.80    1.65
  -1   2   1   33.51    1.73
   1   2  -1   34.10    1.72
   0   2  -1  211.24    9.40
   0   2   1  216.49    9.39
   1  -2   1   36.67    1.66
   1  -2   1   36.14    1.74
   1   2   1   36.07    1.73
  -1   2  -1   37.97    1.75
  -1   2  -1   35.32    1.75
   1   2   1   35.81    1.72
  -1   2  -1   35.13    1.66
  -2  -2  -1   14.85    0.81
  -2  -2  -1   14.65    0.80
   2  -2   1   13.65    0.82
   2  -2   1   15.30    0.78
  -2   2  -1   16.08    0.83
   2   2   1   15.54    0.71
  -2   2  -1   16.11    0.79
   2   2   1   15.20    0.82
   2   2   1   15.46    0.81
  -2   2  -1   15.10    0.82
   3  -2   1   57.27    2.81
  -3  -2  -1   61.05    2.81
   3  -2   1   58.31    2.84
   3  -2   1   59.35    2.64
  -3   2  -1   55.27    2.81
  -3   2  -1   55.85    2.63
  -3   2  -1   57.69    2.83
   3   2   1   52.77    2.79
   3   2   1   55.32    2.56
   3   2   1   55.77    2.81
  -4  -2  -1   64.55    3.31
   4  -2   1   66.74    3.36
   4  -2   1   67.90    3.11
  -4   2  -1   66.07    3.10
  -4   2  -1   68.44    3.35
   4   2   1   68.33    3.34
   4   2   1   64.84    3.32
   4   2   1   65.75    3.03
   5  -2   1   20.78    1.27
   5   2   1   19.32    1.20
   5   2   1   17.27    1.23
  -5   2  -1   16.68    1.25
  -5   2  -1   18.37    1.07
   5   2   1   19.46    1.04
   6  -2   1    0.41    0.46
   6   2   1    0.18    0.39
  -6   2  -1    0.12    0.31
   6  -3  -1    6.57    1.03
   6   3  -1    7.47    0.86
  -6   3   1    6.88    0.79
   5  -3  -1   32.87    1.81
   5   3  -1   31.34    1.76
   5   3  -1   30.77    1.58
  -5   3   1   31.81    1.65
  -5   3   1   29.75    1.87
   5   3  -1   29.15    1.79
   4  -3  -1   13.91    0.94
  -4   3   1   13.00    0.96
   4   3  -1   14.03    0.93
   4   3  -1   14.93    0.92
  -4   3   1   14.24    0.86
   4   3  -1   14.55    0.77
   3  -3  -1    6.65    0.54
   3  -3  -1    7.48    0.54
   3  -3  -1    6.51    0.55
  -3  -3   1    7.02    0.53
   3   3  -1    7.49    0.53
   3   3  -1    7.89    0.43
   3   3  -1    7.98    0.53
  -3   3   1    8.00    0.57
  -3   3   1    8.29    0.54
   2  -3  -1  114.29    5.37
  -2  -3   1  113.56    5.34
   2  -3  -1  114.97    5.37
   2  -3  -1  109.16    5.05
   2   3  -1  112.74    5.34
  -2   3   1  113.52    5.07
  -2   3   1  115.29    5.37
   2   3  -1  111.06    4.99
   2   3  -1  110.09    5.34
   1  -3  -1  165.81    7.71
   1  -3  -1  164.70    7.71
  -1   3   1  156.81    7.28
  -1   3   1  169.78    7.72
   0   3  -1    4.71    0.30
   0   3   1    4.87    0.30
   1  -3   1   84.98    4.22
   1  -3   1   87.85    4.21
  -1   3  -1   95.33    4.03
   2  -3   1  149.19    6.82
   2  -3   1  149.17    7.25
   2  -3   1  150.06    7.27
   2   3   1  151.24    6.75
  -2   3  -1  153.71    6.85
   2   3   1  154.41    7.23
  -2   3  -1  159.20    7.27
   2   3   1  160.33    7.25
   3  -3   1   60.74    3.11
   3  -3   1   61.02    3.13
   3  -3   1   58.94    2.93
  -3   3  -1   64.23    2.96
  -3   3  -1   67.18    3.14
   3   3   1   65.31    3.12
   3   3   1   64.08    3.10
   3   3   1   65.74    2.85
   4  -3   1    7.68    0.65
  -4   3  -1    6.34    0.66
   4   3   1    6.17    0.61
   4   3   1    7.13    0.63
  -4   3  -1    6.85    0.56
   4   3   1    7.80    0.48
   5  -3   1   22.78    1.41
   5   3   1   21.09    1.37
   5   3   1   22.30    1.34
  -5   3  -1   22.36    1.25
  -5   3  -1   20.82    1.46
   5   3   1   20.66    1.16
   6  -3   1   27.23    1.75
  -6   3  -1   23.61    1.45
   6   3   1   23.08    1.59
   5  -4  -1    0.04    0.40
  -5   4   1    0.18    0.31
   5   4  -1   -0.27    0.30
   4  -4  -1   35.68    1.87
   4   4  -1   32.81    1.64
  -4   4   1   33.58    1.78
   4   4  -1   33.10    1.81
  -4   4   1   34.33    1.90
   4   4  -1   36.10    1.81
   3  -4  -1   19.74    1.18
   3  -4  -1   22.80    1.20
  -3   4   1   21.74    1.20
   3   4  -1   21.71    1.04
   3   4  -1   21.28    1.14
   3   4  -1   21.22    1.13
   2  -4  -1   19.89    1.03
   2   4  -1   18.47    0.97
  -2   4   1   20.35    1.07
   2   4  -1   20.85    0.99
  -1   4   1   18.95    0.98
   1   4  -1   18.91    0.93
   0   4   1  109.49    4.80
   0   4  -1  104.76    4.80
  -1   4  -1   69.17    3.18
   1   4   1   69.48    3.12
   2  -4   1    7.72    0.47
   2   4   1    7.92    0.45
   2   4   1    7.73    0.41
   2   4   1    7.93    0.43
  -2   4  -1    8.05    0.55
   3  -4   1   32.43    1.59
   3  -4   1   30.61    1.55
  -3   4  -1   29.30    1.58
   3   4   1   28.84    1.50
   3   4   1   28.28    1.38
   3   4   1   29.10    1.53
   4  -4   1   27.63    1.54
  -4   4  -1   27.50    1.46
   4   4   1   27.45    1.47
   4   4   1   26.04    1.30
   4   4   1   25.09    1.45
   5  -4   1    7.37    0.93
  -5   4  -1    7.98    0.75
   5   4   1    7.53    0.74
  -4   5   1    6.03    0.69
   4   5  -1    4.51    0.53
   3   5  -1    6.84    0.44
   3   5  -1    5.74    0.39
  -3   5   1    6.39    0.62
   3   5  -1    6.30    0.45
   2  -5  -1   52.24    2.59
   2   5  -1   55.88    2.49
   1   5  -1   73.27    3.37
  -1   5   1   74.54    3.42
   0   5   1   23.79    1.21
   0   5  -1   23.84    1.22
  -1   5  -1   20.60    1.15
   1   5   1   22.26    1.09
  -2   5  -1   41.80    2.10
   2   5   1   43.39    1.98
   3   5   1   27.26    1.32
  -3   5  -1   26.86    1.45
   3   5   1   25.27    1.25
   3   5   1   26.70    1.26
   3   5   1   25.17    1.29
   4   5   1    2.22    0.35
  -4   5  -1    2.68    0.45
  -3   6   1   23.90    1.44
   2   6  -1    6.50    0.56
  -2   6   1    6.19    0.68
  -1   6   1   14.60    0.93
   1   6  -1   14.08    0.87
   0   6   1   29.14    1.49
   0   6  -1   28.66    1.50
   1   6   1   37.28    1.84
  -1   6  -1   38.40    1.92
  -2   6  -1    0.98    0.35
   2   6   1    1.12    0.29
  -3   6  -1    5.08    0.78
   6   0  -2   21.51    1.46
  -6   0   2   22.00    1.17
  -5   0   2    0.22    0.16
   5   0  -2    0.14    0.26
   5   0  -2    0.11    0.33
   4   0  -2   55.67    2.61
  -4   0   2   55.62    2.84
  -4   0   2   55.17    2.57
   4   0  -2   57.25    2.85
   4   0  -2   56.71    2.84
   3   0  -2  141.24    6.47
   3   0  -2  150.62    6.99
  -3   0   2  144.69    6.95
  -3   0   2  144.78    6.45
   3   0  -2  146.35    6.95
   2   0  -2  280.80   12.78
   2   0  -2  278.34   11.93
   2   0  -2  252.44   12.76
  -2   0   2  278.63   12.77
  -2   0   2  267.78   11.92
   1   0  -2   56.99    2.55
  -1   0   2   58.04    2.74
  -1   0  -2  351.66   15.64
   1   0   2  358.96   15.65
  -2   0  -2   23.42    1.16
  -2   0  -2   21.95    1.04
   2   0   2   21.76    1.16
  -2   0  -2   22.30    1.15
   2   0   2   22.44    1.05
   3   0   2  100.71    4.67
  -3   0  -2   93.59    4.66
  -3   0  -2   98.70    4.65
   3   0   2   98.40    4.31
   3   0   2   92.47    4.64
  -3   0  -2   93.89    4.30
  -4   0  -2  154.00    7.40
  -4   0  -2  151.41    7.37
   4   0   2  156.48    7.38
   4   0   2  154.63    7.41
  -4   0  -2  147.86    6.83
   4   0   2  157.69    6.86
   5   0   2   32.76    1.66
   5   0   2   34.44    1.90
  -5   0  -2   33.33    1.61
   5   0   2   31.27    1.85
   6   0   2    2.28    0.51
  -6   0  -2    2.79    0.43
   6  -1  -2    6.07    0.82
  -6  -1   2    5.51    0.52
  -6   1   2    5.96    0.56
   6   1  -2    5.85    0.78
   5  -1  -2   52.58    2.72
  -5  -1   2   53.45    2.39
   5   1  -2   49.77    2.45
  -5   1   2   47.24    2.71
   5   1  -2   53.11    2.70
  -5   1   2   51.09    2.43
   5   1  -2   52.21    2.74
   4  -1  -2   71.79    3.54
  -4  -1   2   70.11    3.53
   4  -1  -2   69.79    3.53
   4  -1  -2   71.23    3.28
  -4  -1   2   72.39    3.21
   4   1  -2   69.35    3.52
  -4   1   2   71.92    3.54
   4   1  -2   70.53    3.24
  -4   1   2   69.24    3.25
   4   1  -2   72.43    3.54
   3  -1  -2    0.57    0.17
  -3  -1   2    0.58    0.17
   3  -1  -2    0.52    0.13
   3  -1  -2    0.52    0.16
  -3  -1   2    0.55    0.10
   3   1  -2    0.60    0.11
   3   1  -2    0.23    0.14
   3   1  -2    0.38    0.16
  -3   1   2    0.54    0.12
  -3   1   2    0.52    0.17
  -2  -1   2   35.68    1.83
   2  -1  -2   35.64    2.00
  -2  -1   2   35.07    1.99
   2  -1  -2   36.54    1.86
   2   1  -2   46.64    2.01
  -2   1   2   48.28    1.88
   2   1  -2   47.41    1.84
   1  -1  -2  554.33   24.85
   1  -1  -2  532.27   24.84
  -1  -1   2  559.04   24.77
   1  -1  -2  555.74   23.28
   1   1  -2  461.01   23.19
  -1   1   2  534.56   24.82
  -1   1   2  498.10   23.23
   1   1  -2  520.20   24.79
   0  -1  -2   95.85    4.37
   0   1   2  103.46    4.67
   0   1   2   98.39    4.37
   0   1  -2  100.66    4.69
  -1  -1  -2   10.52    0.58
   1  -1   2   10.82    0.55
   1  -1   2    9.93    0.58
  -1  -1  -2    9.57    0.58
   1  -1   2    9.81    0.59
   1   1   2   12.91    0.60
  -1   1  -2   12.88    0.60
   1   1   2   12.42    0.59
  -1   1  -2   13.20    0.60
   1   1   2   12.41    0.52
   2  -1   2  221.64    9.91
  -2  -1  -2  225.40   10.59
   2  -1   2  220.16   10.61
  -2  -1  -2  227.15   10.60
   2  -1   2  217.14   10.59
  -2  -1  -2  226.98    9.89
  -2   1  -2  223.53   10.60
   2   1   2  234.59   10.61
  -2   1  -2  230.40   10.61
  -2   1  -2  219.53    9.91
   2   1   2  220.42   10.59
   2   1   2  231.29    9.87
  -3  -1  -2  183.01    8.61
   3  -1   2  184.69    8.05
  -3  -1  -2  190.17    8.63
   3  -1   2  190.68    8.65
  -3  -1  -2  186.94    8.00
   3  -1   2  170.49    8.61
   3   1   2  180.82    8.01
   3   1   2  183.59    8.61
   3   1   2  176.58    8.63
  -3   1  -2  178.27    8.64
  -3   1  -2  170.73    8.04
  -4  -1  -2   10.81    0.78
  -4  -1  -2    9.92    0.77
   4  -1   2   11.28    0.80
   4  -1   2   11.02    0.69
   4  -1   2   10.31    0.77
  -4  -1  -2   11.21    0.61
  -4   1  -2   12.05    0.80
  -4   1  -2   12.64    0.69
   4   1   2   11.95    0.79
   4   1   2   12.19    0.80
   4   1   2   12.70    0.67
  -4   1  -2   13.06    0.82
  -5  -1  -2   17.31    0.88
   5  -1   2   15.07    1.12
   5   1   2   17.74    1.13
   5   1   2   17.28    0.97
   5   1   2   16.77    1.14
  -5   1  -2   15.13    1.13
   6  -1   2    3.61    0.57
  -6   1  -2    3.37    0.49
   6   1   2    2.43    0.50
   6  -2  -2   12.46    1.07
   6   2  -2   10.82    0.98
  -6   2   2   10.06    0.81
   5  -2  -2    7.85    0.74
   5   2  -2    7.81    0.62
   5   2  -2    6.79    0.81
  -5   2   2    7.20    0.58
   5   2  -2    7.36    0.67
  -5   2   2    6.82    0.87
   4  -2  -2   26.19    1.49
  -4  -2   2   25.19    1.48
   4   2  -2   26.58    1.31
   4   2  -2   27.71    1.48
   4   2  -2   28.12    1.50
  -4   2   2   26.42    1.36
  -4   2   2   27.26    1.51
  -3  -2   2  107.00    5.33
   3  -2  -2  107.80    5.34
   3  -2  -2  103.99    5.34
   3   2  -2  110.44    5.33
   3   2  -2  114.17    4.94
   3   2  -2  116.01    5.35
  -3   2   2  114.37    5.36
  -3   2   2  114.65    5.00
   2   2  -2    3.18    0.27
  -2   2   2    3.26    0.29
  -2   2   2    3.33    0.27
   2   2  -2    3.68    0.21
   2   2  -2    2.88    0.27
   1  -2  -2   17.65    0.88
   1  -2  -2   15.96    0.87
  -1  -2   2   18.05    0.87
   1  -2  -2   17.85    0.84
   1   2  -2   17.66    0.87
  -1   2   2   17.25    0.88
  -1   2   2   17.49    0.85
   1   2  -2   17.77    0.86
   0   2   2  379.22   16.64
   1  -2   2  372.26   16.87
   1  -2   2  357.35   16.88
   1   2   2  360.54   16.88
  -1   2  -2  359.62   15.91
   1   2   2  352.57   16.88
  -1   2  -2  360.01   16.88
   2  -2   2   49.67    2.19
  -2  -2  -2   45.88    2.31
   2  -2   2   48.82    2.34
  -2  -2  -2   51.23    2.31
  -2   2  -2   46.78    2.32
   2   2   2   45.54    2.30
   2   2   2   46.60    2.32
   2   2   2   47.06    2.11
  -2   2  -2   46.36    2.19
  -2   2  -2   46.39    2.33
   3  -2   2   22.56    1.18
   3  -2   2   21.74    1.28
  -3  -2  -2   21.86    1.26
  -3  -2  -2   23.34    1.26
   3  -2   2   22.61    1.26
   3   2   2   24.79    1.26
  -3   2  -2   25.80    1.30
   3   2   2   23.64    1.13
  -3   2  -2   24.77    1.20
   3   2   2   24.26    1.28
  -3   2  -2   25.06    1.29
   4  -2   2   97.65    4.64
   4  -2   2   99.19    5.00
  -4  -2  -2   98.75    4.96
   4   2   2  103.72    4.58
  -4   2  -2  100.53    4.65
  -4   2  -2  107.60    5.00
   4   2   2  103.67    5.00
   4   2   2  105.26    4.97
   5  -2   2   19.49    1.34
   5   2   2   21.57    1.33
  -5   2  -2   20.31    1.37
   5   2   2   20.68    1.35
  -5   2  -2   22.63    1.20
   5   2   2   22.46    1.14
   6  -2   2    4.46    0.66
   6   2   2    4.31    0.61
  -6   2  -2    3.94    0.61
   6  -3  -2    2.89    0.63
  -6   3   2    3.05    0.52
   6   3  -2    2.78    0.52
   5  -3  -2   23.37    1.44
   5   3  -2   23.95    1.39
   5   3  -2   23.00    1.48
  -5   3   2   21.87    1.52
   5   3  -2   21.27    1.24
  -5   3   2   23.51    1.30
   4  -3  -2   38.04    1.96
   4   3  -2   34.23    1.93
  -4   3   2   35.99    1.97
  -4   3   2   37.12    1.83
   4   3  -2   36.44    1.73
   4   3  -2   36.96    1.94
   3  -3  -2    0.07    0.17
  -3  -3   2    0.10    0.17
   3  -3  -2   -0.05    0.18
   3  -3  -2    0.20    0.16
   3   3  -2    0.01    0.14
  -3   3   2    0.44    0.17
   3   3  -2    0.23    0.10
   3   3  -2    0.04    0.16
  -3   3   2   -0.15    0.17
   2  -3  -2   47.59    2.41
  -2  -3   2   48.22    2.39
   2  -3  -2   47.64    2.29
   2  -3  -2   47.08    2.41
   2   3  -2   49.33    2.23
  -2   3   2   52.89    2.43
  -2   3   2   51.12    2.31
   2   3  -2   50.85    2.39
   2   3  -2   49.62    2.39
   1  -3  -2  132.17    6.25
   1  -3  -2  131.49    6.25
  -1   3   2  132.99    5.92
  -1   3   2  135.32    6.26
   0   3   2   83.24    3.69
   0   3  -2   82.03    3.70
   1  -3   2   18.93    0.87
   1   3   2   16.86    0.83
  -1   3  -2   17.07    0.89
   2  -3   2   75.34    3.66
   2  -3   2   79.21    3.64
   2   3   2   74.41    3.61
  -2   3  -2   77.72    3.67
   2   3   2   72.38    3.36
  -2   3  -2   75.35    3.47
   2   3   2   77.25    3.64
   3  -3   2   79.38    3.46
   3  -3   2   76.70    3.66
   3  -3   2   78.67    3.70
   3   3   2   71.87    3.63
  -3   3  -2   71.97    3.47
   3   3   2   76.13    3.67
   3   3   2   71.92    3.35
  -3   3  -2   74.62    3.67
   4  -3   2    3.23    0.52
  -4   3  -2    3.91    0.43
  -4   3  -2    3.28    0.53
   4   3   2    3.19    0.40
   4   3   2    3.23    0.33
   5  -3   2   23.19    1.37
   5   3   2   19.53    1.27
  -5   3  -2   20.68    1.19
   5   3   2   17.82    1.30
   5   3   2   20.33    1.10
   6  -3   2   16.75    1.40
  -6   3  -2   16.43    1.14
   6   3   2   16.50    1.27
   5  -4  -2    2.68    0.53
  -5   4   2    3.42    0.49
   5   4  -2    2.36    0.42
   4  -4  -2   10.62    0.79
  -4   4   2    8.99    0.84
   4   4  -2   10.56    0.65
   4   4  -2    9.94    0.71
   4   4  -2    9.86    0.75
  -4   4   2   10.47    0.76
   3  -4  -2   93.71    4.51
   3  -4  -2   92.56    4.51
   3   4  -2   92.85    4.47
  -3   4   2   96.52    4.53
   3   4  -2   88.30    4.16
   3   4  -2   95.47    4.47
   2  -4  -2   43.11    2.08
  -2   4   2   42.73    2.04
  -2   4   2   41.29    2.09
   2   4  -2   41.08    2.03
   2   4  -2   44.03    2.04
  -1   4   2    7.85    0.51
   0   4  -2   70.94    3.20
   0   4   2   69.58    3.18
   1   4   2  130.97    5.73
  -1   4  -2  127.31    5.80
  -2   4  -2    9.01    0.58
   2   4   2    8.25    0.44
   2   4   2    8.01    0.44
   2   4   2    8.54    0.47
   3  -4   2    6.04    0.51
   3  -4   2    6.35    0.56
   3   4   2    6.01    0.49
   3   4   2    6.01    0.44
  -3   4  -2    7.08    0.54
   3   4   2    6.47    0.38
   4  -4   2   27.97    1.58
  -4   4  -2   28.14    1.49
   4   4   2   27.28    1.50
   4   4   2   26.18    1.47
   5  -4   2   11.46    1.06
   5   4   2   10.14    0.87
  -5   4  -2    9.91    0.86
  -4   5   2   13.55    0.99
   4   5  -2   13.22    0.85
  -3   5   2    3.24    0.50
   3   5  -2    3.18    0.33
   3   5  -2    2.47    0.28
   3   5  -2    3.02    0.36
   2  -5  -2   41.85    2.00
   1   5  -2   39.08    1.87
  -1   5   2   39.34    1.91
   0   5   2   43.94    2.10
   0   5  -2   45.01    2.12
  -1   5  -2    9.45    0.66
   1   5   2   10.83    0.60
   2  -5   2   26.54    1.32
   2  -5   2   27.68    1.35
   2   5   2   27.06    1.31
  -2   5  -2   27.82    1.45
   3   5   2   27.66    1.40
  -3   5  -2   27.93    1.52
   3   5   2   27.78    1.32
   4   5   2    2.21    0.36
  -4   5  -2    3.89    0.52
  -3   6   2   17.51    1.18
   2   6  -2   18.38    1.04
  -2   6   2   18.83    1.17
  -1   6   2    1.56    0.34
   1   6  -2    1.14    0.28
   0   6   2   17.40    1.01
   1   6   2   14.41    0.86
  -1   6  -2   14.67    0.94
   2   6   2   10.15    0.68
  -2   6  -2   10.62    0.84
  -3   6  -2    8.87    0.88
  -6   0   3   10.54    0.72
   6   0  -3   11.47    0.99
   5   0  -3    6.54    0.58
   5   0  -3    5.67    0.69
   5   0  -3    4.57    0.74
  -5   0   3    6.35    0.46
   4   0  -3    3.26    0.46
  -4   0   3    3.52    0.46
   4   0  -3    3.46    0.36
   4   0  -3    3.58    0.41
  -4   0   3    3.87    0.30
   3   0  -3  141.65    6.74
  -3   0   3  137.76    6.25
  -3   0   3  147.08    6.75
   3   0  -3  140.95    6.76
   3   0  -3  137.90    6.27
   2   0  -3  312.94   13.63
  -2   0   3  321.28   14.60
   2   0  -3  314.44   14.59
   2   0  -3  308.03   14.59
  -2   0   3  296.13   13.64
  -1   0   3  161.72    7.68
   1   0  -3  176.41    7.64
  -1   0   3  180.38    8.14
   1   0   3  583.15   25.96
   1   0   3  601.31   27.83
  -1   0  -3  588.81   25.97
   2   0   3  114.18    5.67
  -2   0  -3  120.76    5.29
   2   0   3  123.97    5.29
  -2   0  -3  119.53    5.69
   3   0   3    5.01    0.32
   3   0   3    4.02    0.37
  -3   0  -3    3.87    0.38
   3   0   3    3.88    0.39
  -3   0  -3    4.55    0.30
  -3   0  -3    4.45    0.38
   4   0   3   21.28    1.26
   4   0   3   23.23    1.13
  -4   0  -3   20.95    1.25
  -4   0  -3   22.54    1.11
   4   0   3   23.33    1.30
  -4   0  -3   21.85    1.28
  -5   0  -3   17.51    0.91
   5   0   3   17.09    1.13
   5   0   3   16.50    0.97
   5   0   3   14.73    1.10
  -6   0  -3   11.01    0.74
   6   0   3   12.30    1.09
  -6  -1   3    0.02    0.24
   6  -1  -3    0.24    0.37
   6   1  -3   -0.03    0.36
  -6   1   3    0.63    0.25
  -5  -1   3   21.66    1.06
   5  -1  -3   21.64    1.30
   5   1  -3   20.49    1.14
   5   1  -3   20.06    1.37
  -5   1   3   20.89    1.10
   5   1  -3   22.25    1.29
  -5   1   3   17.46    1.31
  -4  -1   3   64.96    3.02
   4  -1  -3   64.92    3.09
  -4  -1   3   66.64    3.34
   4  -1  -3   66.71    3.35
   4  -1  -3   66.16    3.34
   4   1  -3   70.04    3.36
  -4   1   3   65.82    3.07
   4   1  -3   68.84    3.06
  -4   1   3   66.24    3.35
   4   1  -3   66.77    3.33
   3  -1  -3    2.80    0.26
  -3  -1   3    2.37    0.20
   3  -1  -3    2.39    0.30
   3  -1  -3    2.24    0.31
  -3  -1   3    2.27    0.31
  -3   1   3    2.57    0.33
  -3   1   3    3.23    0.26
   3   1  -3    2.47    0.31
   3   1  -3    2.66    0.30
   2  -1  -3  137.99    6.12
  -2  -1   3  124.65    6.10
   2  -1  -3  122.68    6.10
  -2  -1   3  125.44    5.67
   2  -1  -3  132.31    5.71
  -2   1   3  128.25    5.70
  -2   1   3  126.48    6.11
   2   1  -3  136.31    6.11
   2   1  -3  127.40    5.67
   2   1  -3  124.30    6.09
   1  -1  -3  989.19   46.39
  -1  -1   3  980.42   46.36
   1  -1  -3  987.76   43.45
  -1   1   3  984.46   43.40
   1   1  -3  984.67   46.37
  -1   1   3 1000.00   46.38
   0  -1  -3  378.96   16.49
   0   1   3  384.07   17.64
   0   1   3  368.62   16.47
   0   1  -3  369.91   17.62
   1  -1   3   24.17    1.20
  -1  -1  -3   24.51    1.20
   1  -1   3   23.85    1.19
   1  -1   3   25.04    1.12
   1   1   3   23.87    1.20
   1   1   3   23.66    1.19
  -1   1  -3   23.97    1.20
   1   1   3   24.78    1.08
   2  -1   3  200.86    9.69
   2  -1   3  208.04    9.06
  -2  -1  -3  194.48    9.69
  -2  -1  -3  209.29    9.02
  -2  -1  -3  208.09    9.69
   2  -1   3  203.15    9.71
  -2   1  -3  200.68    9.69
   2   1   3  207.18    9.02
   2   1   3  211.84    9.70
  -2   1  -3  210.66    9.71
  -2   1  -3  202.90    9.07
   2   1   3  209.93    9.69
   3  -1   3   57.13    3.02
  -3  -1  -3   60.32    2.76
  -3  -1  -3   58.90    3.03
  -3  -1  -3   60.29    3.02
   3  -1   3   61.18    2.82
   3  -1   3   56.94    3.04
  -3   1  -3   63.27    3.06
   3   1   3   65.99    2.78
   3   1   3   64.33    3.06
  -3   1  -3   62.30    2.82
   3   1   3   66.87    3.03
  -4  -1  -3   13.68    0.69
   4  -1   3   13.52    0.89
  -4  -1  -3   12.52    0.86
   4  -1   3   13.19    0.77
  -4  -1  -3   12.98    0.86
   4  -1   3   13.52    0.86
  -4   1  -3   13.24    0.75
  -4   1  -3   12.92    0.88
   4   1   3   13.24    0.88
   4   1   3   13.05    0.72
   4   1   3   13.66    0.86
  -4   1  -3   13.79    0.88
  -5  -1  -3    7.76    0.48
   5  -1   3    7.17    0.73
  -5   1  -3    5.60    0.74
   5   1   3    7.98    0.59
   5   1   3    5.04    0.71
   5   1   3    6.93    0.69
   6  -1   3   14.45    1.24
  -6  -1  -3   14.36    0.88
   6   1   3   17.08    1.23
  -6   1  -3   15.13    0.95
   6  -2  -3   10.91    1.07
  -6   2   3   11.50    0.83
   6   2  -3   11.95    1.00
   5  -2  -3    4.33    0.60
   5   2  -3    3.73    0.53
   5   2  -3    4.30    0.59
   5   2  -3    3.10    0.49
  -5   2   3    4.20    0.46
  -5   2   3    3.65    0.59
   4  -2  -3   12.05    0.80
  -4  -2   3   11.85    0.82
   4   2  -3   12.78    0.83
  -4   2   3   11.27    0.83
  -4   2   3   11.15    0.70
   4   2  -3   11.25    0.66
   4   2  -3   11.50    0.77
  -3  -2   3  145.06    6.77
   3  -2  -3  141.50    6.78
   3  -2  -3  143.22    6.78
   3  -2  -3  142.39    6.34
  -3   2   3  138.57    6.33
  -3   2   3  140.79    6.79
   3   2  -3  138.54    6.76
   3   2  -3  144.04    6.78
   2  -2  -3  443.06   19.08
   2  -2  -3  452.01   20.38
  -2  -2   3  447.94   20.37
  -2   2   3  444.07   20.38
   2   2  -3  424.89   20.39
   2   2  -3  445.40   20.37
  -2   2   3  420.32   19.08
   2   2  -3  398.18   19.07
   1  -2  -3   10.03    0.56
  -1  -2   3   10.08    0.55
   1  -2  -3    9.42    0.54
   1  -2  -3   10.12    0.57
  -1   2   3   11.97    0.56
  -1   2   3   11.82    0.58
   1   2  -3   11.83    0.55
   0  -2   3   75.08    3.43
   0  -2  -3   72.52    3.41
   0   2   3   69.99    3.42
   0   2   3   71.78    3.23
   0   2  -3   74.86    3.42
   1  -2   3  319.21   14.86
   1  -2   3  323.60   14.88
  -1   2  -3  324.16   14.86
  -1   2  -3  311.99   13.93
   1   2   3  319.56   14.84
   1   2   3  303.53   14.83
  -2  -2  -3   84.38    4.36
   2  -2   3   89.84    4.37
   2  -2   3   92.05    4.08
   2  -2   3   88.02    4.34
   2   2   3   93.53    4.36
   2   2   3   91.94    4.33
  -2   2  -3   91.74    4.10
  -2   2  -3   94.02    4.36
  -2   2  -3   91.49    4.37
   2   2   3   92.91    4.01
  -3  -2  -3    2.71    0.32
   3  -2   3    3.04    0.32
  -3  -2  -3    3.12    0.32
   3  -2   3    3.27    0.37
  -3   2  -3    2.94    0.28
  -3   2  -3    2.40    0.32
   3   2   3    2.32    0.30
  -3   2  -3    2.17    0.32
   3   2   3    2.73    0.21
   3   2   3    2.10    0.31
   4  -2   3   11.34    0.80
  -4   2  -3   13.94    0.91
  -4   2  -3   15.34    0.92
   4   2   3   14.01    0.91
   4   2   3   13.85    0.73
  -4   2  -3   14.39    0.81
   4   2   3   12.86    0.86
   5  -2   3   49.84    2.67
  -5   2  -3   47.47    2.64
   5   2   3   50.34    2.64
   5   2   3   50.37    2.62
  -5   2  -3   49.33    2.41
   5   2   3   50.57    2.35
   6  -2   3    7.66    1.00
  -6   2  -3    8.78    0.76
   6   2   3    8.77    0.90
   6  -3  -3    2.87    0.62
   6   3  -3    2.83    0.54
  -6   3   3    3.84    0.56
   5  -3  -3   21.34    1.36
   5   3  -3   21.04    1.42
  -5   3   3   22.37    1.23
   5   3  -3   22.07    1.30
   5   3  -3   20.39    1.18
  -5   3   3   19.97    1.48
   4  -3  -3   38.42    2.02
   4   3  -3   36.95    1.79
  -4   3   3   37.28    2.04
   4   3  -3   39.59    2.02
  -4   3   3   36.97    1.87
   3  -3  -3    5.31    0.48
  -3  -3   3    5.67    0.47
   3  -3  -3    5.76    0.46
   3   3  -3    5.22    0.45
  -3   3   3    5.24    0.43
   3   3  -3    5.05    0.34
  -3   3   3    4.48    0.46
   3   3  -3    5.13    0.42
   2  -3  -3   48.65    2.24
  -2  -3   3   47.48    2.22
   2  -3  -3   46.80    2.23
   2  -3  -3   47.06    2.13
   2   3  -3   43.39    2.21
   2   3  -3   43.73    2.07
  -2   3   3   43.35    2.13
   2   3  -3   45.62    2.21
  -2   3   3   43.30    2.24
   1  -3  -3  206.73    9.37
   1  -3  -3  219.08    9.97
   1  -3  -3  200.72    9.96
   1   3  -3  218.10    9.95
  -1   3   3  210.35    9.97
   1   3  -3  220.36    9.95
  -1   3   3  211.35    9.38
   0   3   3  103.77    4.62
   0   3  -3  104.27    4.64
   1  -3   3    0.88    0.10
  -1   3  -3    1.14    0.18
  -1   3  -3    1.05    0.15
   1   3   3    1.01    0.12
   1   3   3    0.96    0.09
   1   3   3    1.18    0.12
   2  -3   3   76.79    3.83
   2   3   3   81.06    3.84
  -2   3  -3   79.73    3.65
   2   3   3   78.53    3.80
   2   3   3   80.27    3.53
  -2   3  -3   84.13    3.87
   3  -3   3   79.31    4.00
   3  -3   3   81.03    4.04
  -3   3  -3   79.78    3.79
   3   3   3   85.86    4.02
   3   3   3   84.39    3.67
   3   3   3   84.81    3.98
  -3   3  -3   82.26    4.04
   4  -3   3   15.51    0.99
   4   3   3   14.61    0.75
   4   3   3   12.91    0.89
  -4   3  -3   14.13    0.86
   5  -3   3    1.29    0.44
   5   3   3    1.36    0.42
  -5   3  -3    2.36    0.39
   5  -4  -3    3.31    0.58
  -5   4   3    4.39    0.63
   5   4  -3    4.12    0.60
   4  -4  -3    6.34    0.62
   4   4  -3    4.74    0.59
  -4   4   3    6.12    0.58
  -4   4   3    5.82    0.69
   4   4  -3    6.66    0.53
   4   4  -3    5.54    0.53
   3  -4  -3   36.25    1.82
  -3  -4   3   36.92    1.77
   3  -4  -3   36.85    1.80
   3   4  -3   33.21    1.62
   3   4  -3   34.66    1.75
  -3   4   3   32.76    1.81
   3   4  -3   32.89    1.76
   2  -4  -3   63.97    3.08
   2  -4  -3   62.27    2.95
   2   4  -3   68.36    3.05
  -2   4   3   63.67    2.97
  -2   4   3   62.28    3.09
   2   4  -3   62.52    3.04
  -1   4   3   33.37    1.61
   0   4   3   68.66    3.10
   0   4  -3   67.88    3.11
   1   4   3  126.01    5.49
  -1   4  -3  121.15    5.56
   2  -4   3   77.19    3.77
   2  -4   3   77.15    3.73
   2   4   3   79.17    3.49
  -2   4  -3   78.07    3.62
   2   4   3   83.06    3.73
   2   4   3   77.87    3.69
   2   4   3   75.87    3.47
   3  -4   3    5.95    0.55
   3  -4   3    5.81    0.49
   3   4   3    6.81    0.38
   3   4   3    6.14    0.49
  -3   4  -3    6.66    0.54
   3   4   3    6.21    0.43
   4  -4   3   20.55    1.33
   4   4   3   22.93    1.09
   4   4   3   21.64    1.23
   4   4   3   21.85    1.27
  -4   4  -3   23.35    1.27
   5  -4   3    6.29    0.90
   5   4   3    3.98    0.67
  -5   4  -3    4.85    0.65
   4   5  -3   15.54    0.96
  -4   5   3   16.53    1.10
  -3   5   3    7.68    0.67
   3   5  -3    7.60    0.50
   3   5  -3    7.15    0.53
   2  -5  -3    1.09    0.17
   2  -5  -3    0.86    0.14
  -2   5   3    0.64    0.27
  -1   5   3   34.45    1.70
   1   5  -3   34.43    1.66
   0   5   3   35.29    1.68
   0   5  -3   34.44    1.71
   1   5   3   14.23    0.78
  -1   5  -3   15.23    0.86
   2  -5   3   22.29    1.16
   2  -5   3   22.85    1.13
   2   5   3   23.53    1.11
   2   5   3   22.15    1.08
  -2   5  -3   23.47    1.26
   3   5   3   60.89    2.74
   3   5   3   61.04    2.93
  -3   5  -3   60.68    2.95
  -4   5  -3    7.16    0.73
   4   5   3    5.67    0.59
  -3   6   3   18.37    1.23
   2   6  -3   14.68    0.89
  -2   6   3   14.51    0.98
  -1   6   3    2.54    0.38
   1   6  -3    2.35    0.35
   0   6  -3   27.01    1.43
   0   6   3   27.06    1.41
  -1   6  -3   18.55    1.12
   1   6   3   18.97    1.03
  -2   6  -3    9.25    0.80
  -3   6  -3    0.87    0.39
  -6   0   4   50.21    2.43
   6   0  -4   51.60    2.79
  -5   0   4   38.10    1.83
   5   0  -4   39.14    1.93
   5   0  -4   37.28    2.10
   5   0  -4   37.59    2.13
  -4   0   4    1.53    0.30
   4   0  -4    1.76    0.32
   4   0  -4    1.91    0.28
   4   0  -4    1.45    0.27
  -3   0   4   18.45    0.92
   3   0  -4   18.81    0.94
   3   0  -4   18.31    1.03
   3   0  -4   19.20    1.06
  -3   0   4   19.68    1.06
  -2   0   4   93.84    4.39
   2   0  -4   91.07    4.08
   2   0  -4   88.69    4.37
  -2   0   4   93.12    4.07
   2   0  -4   91.12    4.39
   1   0  -4  217.72   10.30
  -1   0   4  224.92    9.64
   1   0  -4  216.41    9.65
  -1   0   4  212.78   10.23
   0   0   4   12.79    0.65
  -1   0  -4  343.42   15.62
   1   0   4  355.59   15.56
   1   0   4  360.82   16.71
  -1   0  -4  350.52   16.74
   1   0   4  357.59   16.70
   2   0   4  208.53    9.25
  -2   0  -4  220.59    9.92
   2   0   4  215.41    9.93
  -2   0  -4  208.48    9.25
   2   0   4  198.82    9.91
  -3   0  -4    5.89    0.45
  -3   0  -4    6.23    0.37
   3   0   4    5.95    0.37
   3   0   4    5.56    0.47
   3   0   4    5.77    0.43
  -3   0  -4    5.55    0.45
  -4   0  -4   34.22    1.81
   4   0   4   34.20    1.63
  -4   0  -4   32.51    1.83
   4   0   4   35.60    1.86
  -4   0  -4   34.35    1.62
   4   0   4   32.99    1.79
   5   0   4   45.60    2.51
  -5   0  -4   47.74    2.52
   5   0   4   46.60    2.24
  -5   0  -4   46.67    2.21
  -6   0  -4    5.83    0.53
   6   0   4    4.89    0.70
  -6  -1   4    1.22    0.29
   6  -1  -4    0.99    0.42
  -6   1   4    1.66    0.32
   6   1  -4    1.43    0.41
  -5  -1   4   19.85    0.97
   5  -1  -4   20.43    1.19
   5   1  -4   17.65    1.04
   5   1  -4   18.32    1.27
   5   1  -4   18.01    1.15
  -5   1   4   15.68    1.21
  -5   1   4   17.02    0.98
  -4  -1   4  124.15    6.14
   4  -1  -4  123.58    6.14
   4  -1  -4  127.85    5.73
   4  -1  -4  128.91    6.16
  -4  -1   4  122.40    5.65
   4   1  -4  124.37    5.69
  -4   1   4  126.66    6.16
   4   1  -4  128.51    6.14
  -4   1   4  128.57    5.70
   4   1  -4  134.51    6.17
  -3  -1   4   93.66    4.50
   3  -1  -4   95.93    4.20
  -3  -1   4   92.52    4.14
   3  -1  -4   89.48    4.49
   3  -1  -4   98.00    4.52
  -3   1   4   93.23    4.18
   3   1  -4   90.84    4.16
   3   1  -4   93.06    4.51
   3   1  -4   89.86    4.48
  -2  -1   4    7.84    0.40
   2  -1  -4    8.09    0.46
   2  -1  -4    8.22    0.43
  -2  -1   4    8.71    0.47
   2  -1  -4    8.86    0.48
   2   1  -4    6.68    0.39
   2   1  -4    6.85    0.44
  -2   1   4    6.27    0.41
  -2   1   4    6.67    0.46
   2   1  -4    6.46    0.45
   1  -1  -4  283.95   14.07
   1  -1  -4  283.60   13.18
  -1  -1   4  276.30   14.07
  -1   1   4  315.43   13.21
  -1   1   4  322.97   14.04
   1   1  -4  314.69   14.14
   0  -1  -4  360.89   16.18
   0   1   4  357.10   17.35
   0   1   4  387.37   16.17
   1  -1   4   62.90    2.93
  -1  -1  -4   55.52    2.92
   1  -1   4   56.23    2.92
  -1   1  -4   62.25    2.93
  -1   1  -4   63.77    2.75
   1   1   4   64.20    2.93
   1   1   4   64.90    2.92
   2  -1   4   53.03    2.53
  -2  -1  -4   54.14    2.54
   2  -1   4   50.91    2.55
  -2  -1  -4   54.01    2.31
   2  -1   4   54.14    2.36
  -2   1  -4   49.12    2.36
   2   1   4   52.61    2.54
  -2   1  -4   49.67    2.54
   2   1   4   51.01    2.52
  -2   1  -4   52.89    2.54
   2   1   4   50.69    2.32
  -3  -1  -4  214.74   10.38
   3  -1   4  218.10   10.40
  -3  -1  -4  220.15    9.63
  -3  -1  -4  228.48   10.37
   3  -1   4  221.96    9.69
   3  -1   4  213.31   10.36
   3   1   4  215.80    9.65
  -3   1  -4  211.96    9.69
   3   1   4  227.88   10.37
  -3   1  -4  217.19   10.40
   3   1   4  220.32   10.40
   4  -1   4  117.67    5.44
   4  -1   4  106.58    5.37
  -4  -1  -4  114.90    4.94
  -4  -1  -4  114.38    5.39
  -4  -1  -4  107.33    5.40
   4  -1   4  109.34    5.00
  -4   1  -4  110.38    5.42
   4   1   4  115.42    5.42
   4   1   4  106.70    5.36
  -4   1  -4  108.99    5.38
  -4   1  -4  107.65    4.99
   4   1   4  109.70    4.96
   5  -1   4    0.86    0.34
  -5  -1  -4    1.81    0.23
   5   1   4    0.97    0.33
   5   1   4    1.22    0.37
   5   1   4    1.53    0.29
  -5   1  -4    1.28    0.37
  -6  -1  -4    9.80    0.70
   6  -1   4    9.49    1.04
   6   1   4   11.06    1.03
  -6   1  -4   11.63    0.79
   6  -2  -4   16.42    1.23
  -6   2   4   14.97    1.00
   6   2  -4   15.39    1.14
   5  -2  -4    9.95    0.81
  -5   2   4    6.43    0.90
  -5   2   4    9.74    0.68
   5   2  -4    8.95    0.69
   5   2  -4    9.32    0.93
   5   2  -4    9.34    0.75
   4  -2  -4    1.37    0.29
  -4  -2   4    1.57    0.33
  -4   2   4    0.98    0.20
   4   2  -4    1.66    0.32
   4   2  -4    1.48    0.27
  -4   2   4    1.40    0.33
   4   2  -4    1.83    0.24
   3  -2  -4   90.94    4.47
  -3  -2   4   93.56    4.47
   3  -2  -4   91.10    4.19
   3  -2  -4   92.60    4.49
   3   2  -4   95.16    4.46
   3   2  -4   91.26    4.13
   3   2  -4   94.70    4.48
  -3   2   4   91.13    4.18
  -3   2   4   91.01    4.49
   2  -2  -4  248.72   10.91
   2  -2  -4  243.97   11.66
   2  -2  -4  247.43   11.64
  -2  -2   4  237.90   11.65
   2   2  -4  254.76   11.65
   2   2  -4  258.96   11.64
  -2   2   4  242.62   10.91
  -2   2   4  249.51   11.66
   2   2  -4  241.93   10.86
  -1  -2   4   66.24    2.97
   1  -2  -4   65.54    2.81
   1  -2  -4   65.41    2.97
  -1   2   4   56.78    2.80
  -1   2   4   58.05    2.98
   1   2  -4   62.74    2.96
   0  -2  -4   65.18    2.99
   0  -2   4   67.13    3.19
   0  -2  -4   64.93    3.18
   0   2  -4   68.69    3.18
   0   2   4   69.87    3.19
   0   2   4   69.30    3.00
   1  -2   4  197.70    9.80
   1  -2   4  203.12    9.82
   1   2   4  216.00    9.15
   1   2   4  208.40    9.79
  -1   2  -4  210.75    9.22
   1   2   4  214.63    9.81
  -1   2  -4  212.87    9.83
   2  -2   4   50.68    2.45
   2  -2   4   53.14    2.43
   2  -2   4   52.59    2.29
   2   2   4   49.15    2.21
  -2   2  -4   48.79    2.45
   2   2   4   47.67    2.41
   2   2   4   48.54    2.43
  -2   2  -4   47.91    2.30
   3  -2   4    3.82    0.36
   3  -2   4    4.14    0.35
   3  -2   4    3.60    0.40
  -3  -2  -4    3.27    0.37
   3   2   4    4.67    0.27
   3   2   4    4.23    0.39
   3   2   4    3.92    0.36
  -3   2  -4    4.69    0.36
  -3   2  -4    4.21    0.39
  -3   2  -4    4.14    0.40
   4  -2   4   90.68    4.50
  -4  -2  -4   95.63    4.49
   4  -2   4   92.69    4.17
  -4   2  -4   93.27    4.51
   4   2   4   91.02    4.49
  -4   2  -4   88.56    4.47
   4   2   4   88.81    4.44
  -4   2  -4   87.41    4.16
   5  -2   4   45.35    2.37
   5   2   4   41.07    2.29
  -5   2  -4   40.77    2.10
   5   2   4   43.11    2.32
   5   2   4   42.40    2.03
   6  -2   4   21.96    1.55
   6   2   4   19.37    1.41
  -6   2  -4   20.51    1.24
   6  -3  -4    0.51    0.51
  -6   3   4    0.07    0.34
   6   3  -4   -0.28    0.38
   5  -3  -4   14.41    1.04
   5   3  -4   15.03    0.98
   5   3  -4   13.78    1.13
   5   3  -4   12.54    0.90
  -5   3   4   13.71    0.90
  -5   3   4   14.35    1.21
   4  -3  -4   49.07    2.63
   4   3  -4   52.33    2.66
   4   3  -4   52.86    2.40
  -4   3   4   52.23    2.48
  -4   3   4   51.45    2.67
   3  -3  -4   43.51    2.13
   3  -3  -4   45.05    2.25
  -3  -3   4   44.04    2.25
   3  -3  -4   46.15    2.28
   3   3  -4   43.44    2.05
  -3   3   4   44.00    2.27
   3   3  -4   45.55    2.25
   3   3  -4   44.59    2.23
  -3   3   4   45.89    2.14
  -2  -3   4   15.64    0.81
   2  -3  -4   15.66    0.83
   2  -3  -4   15.00    0.82
   2  -3  -4   14.68    0.80
   2   3  -4   14.31    0.81
   2   3  -4   14.96    0.79
  -2   3   4   14.66    0.80
  -2   3   4   15.36    0.84
   1  -3  -4  129.57    5.72
  -1  -3   4  125.14    6.05
   1  -3  -4  127.96    6.07
   1   3  -4  128.30    6.05
  -1   3   4  129.24    6.07
   1   3  -4  131.58    6.05
  -1   3   4  129.50    5.73
   0   3   4  140.61    6.22
  -1  -3  -4   31.47    1.65
   1  -3   4   33.94    1.65
  -1   3  -4   35.46    1.64
   1   3   4   33.34    1.65
  -1   3  -4   34.81    1.69
   1   3   4   36.07    1.56
   1   3   4   36.81    1.67
  -2  -3  -4   59.66    2.92
   2  -3   4   62.75    2.92
   2   3   4   60.53    2.89
  -2   3  -4   60.33    2.95
  -2   3  -4   60.78    2.80
   2   3   4   59.05    2.93
   2   3   4   60.29    2.67
   3  -3   4   82.51    4.07
   3  -3   4   85.64    4.03
   3   3   4   84.33    4.05
   3   3   4   83.53    4.01
  -3   3  -4   81.17    3.82
   3   3   4   80.88    3.69
  -3   3  -4   84.08    4.08
   4  -3   4   59.09    2.92
   4   3   4   54.87    2.56
  -4   3  -4   54.97    2.70
   4   3   4   56.95    2.83
   5  -3   4    2.81    0.51
   5   3   4    2.40    0.44
  -5   3  -4    2.25    0.39
   5   3   4    2.20    0.48
   5  -4  -4   14.46    1.14
   5   4  -4   13.32    0.99
  -5   4   4   14.36    1.00
   4  -4  -4    2.46    0.39
  -4   4   4    2.68    0.40
   4   4  -4    2.38    0.34
  -4   4   4    2.33    0.45
   4   4  -4    2.63    0.39
   4   4  -4    3.13    0.44
   3  -4  -4   47.60    2.45
  -3  -4   4   45.77    2.43
   3  -4  -4   44.94    2.47
   3   4  -4   51.76    2.42
  -3   4   4   52.00    2.50
   3   4  -4   51.21    2.26
  -3   4   4   48.90    2.43
   3   4  -4   50.90    2.44
   2  -4  -4   64.43    3.05
   2  -4  -4   68.21    3.20
   2  -4  -4   64.96    3.19
  -2   4   4   65.65    3.21
   2   4  -4   68.98    3.17
  -2   4   4   66.79    3.08
   2   4  -4   64.94    3.16
  -1   4   4   20.61    1.05
  -1   4   4   20.67    1.01
   0   4  -4   13.42    0.72
   0   4   4   13.15    0.70
   1  -4   4   97.58    4.31
   1  -4   4   77.32    4.30
   1   4   4   93.71    4.07
  -1   4  -4   97.31    4.17
   2  -4   4   72.04    3.34
   2  -4   4   73.86    3.29
  -2   4  -4   67.12    3.21
   2   4   4   61.72    3.05
   2   4   4   67.10    3.26
   2   4   4   70.79    3.30
   2   4   4   69.95    3.07
   3  -4   4    0.96    0.28
   3   4   4    1.48    0.23
   3   4   4    1.20    0.24
   3   4   4    1.36    0.20
  -3   4  -4    1.60    0.31
   4  -4   4    7.56    0.73
   4   4   4    7.03    0.59
  -4   4  -4    7.57    0.66
   4   4   4    6.59    0.45
   4   4   4    7.56    0.65
   5  -4   4   32.08    1.93
   5   4   4   27.31    1.67
  -5   4  -4   27.90    1.62
  -4   5   4   20.06    1.24
   4   5  -4   19.20    1.12
   3   5  -4    8.77    0.55
   3   5  -4    8.31    0.58
  -3   5   4    8.46    0.71
   2  -5  -4    8.77    0.50
   2  -5  -4    9.16    0.53
  -2   5   4    8.21    0.64
  -1   5   4   45.05    2.13
   1   5  -4   43.87    2.10
   0   5   4   64.18    2.89
   0   5  -4   61.43    2.92
   1   5   4   11.86    0.66
  -1   5  -4   11.94    0.75
   2  -5   4    7.48    0.48
   2  -5   4    7.90    0.44
  -2   5  -4    7.23    0.59
   2   5   4    6.99    0.44
   2   5   4    6.93    0.41
   3   5   4   13.18    0.76
  -3   5  -4   13.77    0.92
   4   5   4    9.63    0.71
  -4   5  -4    9.23    0.85
  -3   6   4   20.03    1.29
  -2   6   4   20.68    1.22
   2   6  -4   19.67    1.12
   1   6  -4    9.05    0.66
   0   6   4    8.92    0.66
   0   6  -4    8.47    0.67
  -1   6  -4   39.65    2.02
   1   6   4   39.70    1.90
  -2   6  -4   19.91    1.23
  -3   6  -4    2.58    0.49
  -6   0   5   19.68    1.10
   6   0  -5   20.65    1.37
   5   0  -5   41.88    2.26
   5   0  -5   42.15    2.32
   4   0  -5    0.57    0.21
   4   0  -5    0.95    0.21
  -4   0   5    0.59    0.13
   4   0  -5    0.56    0.27
  -4   0   5    0.52    0.24
   3   0  -5   33.96    1.70
  -3   0   5   31.86    1.52
   3   0  -5   32.41    1.54
  -3   0   5   32.33    1.69
   3   0  -5   32.45    1.68
  -2   0   5  281.89   12.72
  -2   0   5  292.31   13.61
   2   0  -5  302.99   12.71
   2   0  -5  279.85   13.59
   1   0  -5  288.47   13.71
   1   0  -5  289.81   12.78
  -1   0   5  291.99   13.69
   0   0   5    1.00    0.13
   0   0  -5    1.32    0.13
  -1   0  -5  545.63   23.90
  -1   0  -5  541.98   25.65
   1   0   5  543.20   25.62
  -2   0  -5  313.34   14.03
   2   0   5  314.06   14.03
   2   0   5  337.66   15.05
   2   0   5  313.98   15.02
  -3   0  -5   39.60    2.16
  -3   0  -5   44.85    2.15
  -3   0  -5   42.02    1.96
   3   0   5   41.84    2.14
   3   0   5   43.21    1.97
   3   0   5   44.54    2.18
  -4   0  -5   26.45    1.52
   4   0   5   28.25    1.54
  -4   0  -5   27.14    1.33
   4   0   5   26.86    1.49
   4   0   5   27.88    1.34
  -4   0  -5   26.88    1.49
   5   0   5    3.96    0.48
  -5   0  -5    4.12    0.40
   5   0   5    3.28    0.48
  -6   0  -5   11.78    0.76
   6   0   5   10.59    1.04
  -6  -1   5    0.52    0.25
   6  -1  -5    0.80    0.40
  -6   1   5    0.66    0.26
   6   1  -5    0.62    0.37
   5  -1  -5    3.47    0.55
  -5  -1   5    3.90    0.37
  -5   1   5    4.27    0.39
  -5   1   5    3.87    0.56
   5   1  -5    3.94    0.50
   5   1  -5    5.60    0.76
   5   1  -5    3.50    0.50
   4  -1  -5   44.45    2.13
   4  -1  -5   42.96    2.29
  -4  -1   5   43.23    2.31
   4  -1  -5   45.07    2.33
  -4  -1   5   44.67    2.06
  -4   1   5   44.36    2.33
   4   1  -5   44.39    2.10
   4   1  -5   46.93    2.34
   4   1  -5   44.67    2.29
  -4   1   5   44.73    2.10
   3  -1  -5   64.21    3.26
   3  -1  -5   63.40    3.24
  -3  -1   5   65.89    2.98
  -3  -1   5   65.19    3.26
   3  -1  -5   66.60    3.03
  -3   1   5   65.95    3.01
   3   1  -5   66.11    3.00
   3   1  -5   67.03    3.25
   3   1  -5   72.10    3.28
   2  -1  -5    1.59    0.20
   2  -1  -5    1.67    0.19
  -2  -1   5    1.57    0.20
   2  -1  -5    1.75    0.18
  -2   1   5    1.57    0.20
  -2   1   5    1.53    0.16
   2   1  -5    1.38    0.18
   2   1  -5    1.55    0.14
  -1  -1   5   25.44    1.27
   1  -1  -5   26.82    1.19
   1  -1  -5   25.56    1.27
  -1   1   5   25.00    1.27
   1   1  -5   26.46    1.26
  -1   1   5   26.04    1.19
   0  -1  -5  453.95   22.64
   0  -1  -5  516.56   21.15
   0   1   5  522.71   21.13
   0   1  -5  484.59   22.66
   0   1   5  429.67   22.60
   1  -1   5   85.88    4.10
  -1  -1  -5   81.05    4.10
   1   1   5   88.44    4.10
  -1   1  -5   89.19    3.86
  -1   1  -5   89.23    4.12
   2  -1   5   31.66    1.62
  -2  -1  -5   31.36    1.61
  -2  -1  -5   32.50    1.44
   2  -1   5   33.57    1.49
   2  -1   5   31.77    1.59
   2   1   5   31.20    1.59
  -2   1  -5   33.08    1.62
  -2   1  -5   32.18    1.50
   2   1   5   31.22    1.44
   2   1   5   30.73    1.61
   3  -1   5  106.02    5.15
   3  -1   5  109.46    5.19
  -3  -1  -5  109.33    4.75
   3  -1   5  112.93    4.81
  -3  -1  -5  106.50    5.17
  -3   1  -5  104.69    4.81
  -3   1  -5  101.13    5.18
  -3   1  -5  105.41    5.16
   3   1   5  108.52    5.15
   3   1   5  110.41    5.19
   3   1   5  104.97    4.76
   4  -1   5   53.75    2.77
  -4  -1  -5   48.79    2.74
   4  -1   5   48.55    2.70
   4  -1   5   51.22    2.51
  -4  -1  -5   51.87    2.45
  -4   1  -5   54.63    2.52
   4   1   5   58.02    2.73
  -4   1  -5   56.96    2.78
   4   1   5   57.15    2.77
  -4   1  -5   55.94    2.74
   4   1   5   55.07    2.47
  -5  -1  -5    0.63    0.33
  -5  -1  -5    0.81    0.19
   5   1   5    0.42    0.29
   5   1   5    0.71    0.27
   5   1   5   -0.14    0.33
  -5   1  -5    0.44    0.28
   6  -1   5    5.73    0.90
  -6  -1  -5    7.69    0.58
  -6   1  -5    7.39    0.68
   6   1   5    6.80    0.87
   6  -2  -5   18.21    1.31
   6   2  -5   17.52    1.24
  -6   2   5   17.02    1.06
   5  -2  -5   51.12    2.68
   5   2  -5   48.31    2.43
   5   2  -5   50.97    2.66
  -5   2   5   52.30    2.45
   5   2  -5   53.02    2.75
  -5   2   5   49.63    2.74
   4  -2  -5   11.83    0.76
  -4  -2   5   10.57    0.78
  -4   2   5   10.44    0.81
   4   2  -5   10.20    0.72
   4   2  -5   10.46    0.79
  -4   2   5   10.78    0.66
   4   2  -5   10.23    0.63
   3  -2  -5   48.16    2.29
   3  -2  -5   46.60    2.45
  -3  -2   5   47.75    2.44
   3  -2  -5   45.70    2.43
   3   2  -5   51.62    2.46
  -3   2   5   50.87    2.47
   3   2  -5   48.31    2.23
   3   2  -5   49.94    2.43
  -3   2   5   50.09    2.28
   2  -2  -5  187.01    8.85
   2  -2  -5  191.30    9.44
   2  -2  -5  193.81    9.45
   2   2  -5  209.28    9.45
  -2   2   5  202.70    8.85
   2   2  -5  202.78    8.81
  -2   2   5  212.57    9.47
   2   2  -5  200.90    9.43
   1  -2  -5  209.02    9.96
  -1  -2   5  214.73    9.96
   1  -2  -5  212.90    9.35
   1   2  -5  220.98    9.96
  -1   2   5  210.27    9.98
  -1   2   5  206.14    9.34
   0  -2   5    6.25    0.37
   0  -2  -5    6.44    0.34
   0   2  -5    7.13    0.35
   0   2   5    6.21    0.34
   0   2   5    7.16    0.36
   1  -2   5  198.89    9.46
   1  -2   5  199.97    9.48
  -1  -2  -5  197.40    9.47
   1   2   5  209.95    9.47
  -1   2  -5  205.51    8.90
  -1   2  -5  203.59    9.48
   1   2   5  196.86    9.44
  -2  -2  -5  228.42   11.32
   2  -2   5  243.13   11.35
   2  -2   5  242.86   11.32
  -2   2  -5  232.56   11.34
   2   2   5  241.21   11.30
  -2   2  -5  242.27   10.63
   2   2   5  240.64   10.53
   2   2   5  252.61   11.34
   3  -2   5   64.99    3.28
   3  -2   5   66.41    3.33
  -3  -2  -5   64.70    3.30
   3  -2   5   68.51    3.08
   3   2   5   68.46    3.32
  -3   2  -5   67.53    3.10
  -3   2  -5   67.67    3.33
   3   2   5   67.51    3.00
   3   2   5   69.31    3.28
   4  -2   5   11.93    0.87
   4  -2   5   11.83    0.76
  -4  -2  -5   12.44    0.83
   4   2   5   12.17    0.66
   4   2   5   12.18    0.84
  -4   2  -5   12.86    0.86
   4   2   5   12.08    0.81
  -4   2  -5   12.54    0.75
   5  -2   5   27.31    1.65
   5   2   5   26.69    1.36
  -5   2  -5   27.54    1.45
  -5   2  -5   26.57    1.61
   5   2   5   27.13    1.62
   5   2   5   28.51    1.60
   6  -2   5   19.69    1.51
  -6   2  -5   21.05    1.23
   6   2   5   18.84    1.40
   5  -3  -5    7.09    0.76
   5   3  -5    6.05    0.67
  -5   3   5    7.10    0.62
   5   3  -5    7.33    0.93
   5   3  -5    7.30    0.67
  -5   3   5    7.15    0.96
   4  -3  -5   67.54    3.33
   4   3  -5   65.42    3.04
   4   3  -5   65.91    3.34
  -4   3   5   66.07    3.36
  -4   3   5   66.49    3.12
   3  -3  -5   38.26    1.81
   3  -3  -5   39.42    1.93
  -3  -3   5   40.00    1.90
   3  -3  -5   38.36    1.90
   3   3  -5   34.47    1.71
   3   3  -5   36.27    1.87
  -3   3   5   35.90    1.79
  -3   3   5   34.43    1.91
   3   3  -5   35.32    1.89
  -2  -3   5   16.42    0.88
   2  -3  -5   15.77    0.86
   2  -3  -5   15.73    0.90
   2   3  -5   16.88    0.89
   2   3  -5   16.87    0.86
  -2   3   5   16.93    0.87
  -2   3   5   16.90    0.91
  -1  -3   5   95.80    4.31
   1  -3  -5   92.07    4.33
   1  -3  -5   90.65    4.08
  -1   3   5   87.31    4.09
   1   3  -5   89.71    4.31
  -1   3   5   91.87    4.33
   0  -3   5  248.21   10.68
   0  -3   5  245.53   10.68
   0   3   5  212.83   10.68
   0   3   5  217.36   10.03
   0   3  -5  217.24   10.68
  -1  -3  -5   29.50    1.45
   1  -3   5   31.14    1.44
   1   3   5   27.22    1.44
  -1   3  -5   30.49    1.48
  -1   3  -5   29.15    1.43
   1   3   5   31.78    1.46
   2  -3   5    2.11    0.28
   2  -3   5    1.89    0.23
   2   3   5    2.55    0.27
   2   3   5    2.56    0.20
  -2   3  -5    2.37    0.29
   2   3   5    2.79    0.15
  -2   3  -5    2.87    0.28
  -3  -3  -5   89.30    4.67
   3  -3   5   93.01    4.71
   3  -3   5   92.77    4.66
   3   3   5  102.56    4.65
   3   3   5  103.17    4.70
  -3   3  -5   96.13    4.43
   3   3   5  100.41    4.29
  -3   3  -5   98.03    4.72
   4  -3   5   36.67    1.88
   4   3   5   31.63    1.55
   4   3   5   34.35    1.77
   4   3   5   33.21    1.83
  -4   3  -5   32.81    1.71
  -4   3  -5   33.28    1.84
   5  -3   5    2.51    0.51
   5   3   5    2.47    0.45
  -5   3  -5    3.01    0.46
   5   4  -5   11.86    0.93
  -5   4   5   13.96    0.95
   4  -4  -5    1.21    0.33
   4   4  -5    1.42    0.28
   4   4  -5    1.88    0.30
  -4   4   5    1.45    0.34
  -4   4   5    1.57    0.42
   4   4  -5    0.98    0.35
   3  -4  -5   13.37    0.85
   3  -4  -5   13.59    0.80
  -3  -4   5   13.24    0.81
  -3   4   5   11.89    0.85
  -3   4   5   12.17    0.83
   3   4  -5   13.20    0.75
   3   4  -5   12.66    0.70
   3   4  -5   13.25    0.79
   2  -4  -5   71.37    3.42
   2  -4  -5   72.42    3.60
  -2  -4   5   74.42    3.56
   2  -4  -5   72.88    3.59
  -2   4   5   75.80    3.44
   2   4  -5   80.46    3.57
   2   4  -5   74.23    3.57
  -2   4   5   76.85    3.62
  -1   4   5   69.40    3.31
  -1   4   5   70.30    3.19
   0   4   5   12.58    0.67
   0   4  -5   13.16    0.71
   1  -4   5   36.56    1.81
   1   4   5   36.13    1.71
  -1   4  -5   39.75    1.81
   2  -4   5   86.17    4.19
   2  -4   5   89.52    4.25
  -2   4  -5   86.78    4.05
   2   4   5   89.31    4.21
   2   4   5   87.70    4.17
   2   4   5   86.69    3.89
  -2   4  -5   90.34    4.26
   2   4   5   89.56    3.91
   3  -4   5    6.65    0.59
  -3   4  -5    6.43    0.55
   3   4   5    6.53    0.43
   3   4   5    6.91    0.52
   4  -4   5   14.74    1.06
   4   4   5   15.15    0.91
  -4   4  -5   14.79    0.97
   4   4   5   15.10    0.96
  -5   4  -5   25.05    1.47
   5   4   5   24.74    1.52
  -4   5   5   17.51    1.13
   4   5  -5   16.55    1.01
   3   5  -5   17.75    0.93
  -3   5   5   16.48    1.04
   3   5  -5   16.66    0.93
   2  -5  -5    3.09    0.29
   2  -5  -5    2.70    0.32
  -2   5   5    2.94    0.41
  -1   5   5   42.39    2.02
   1   5  -5   41.46    2.00
   0   5   5   34.49    1.64
   0   5  -5   33.70    1.68
  -1   5  -5   29.17    1.52
   1   5   5   30.26    1.41
   2  -5   5    3.09    0.28
   2  -5   5    2.34    0.33
  -2   5  -5    2.03    0.33
   2   5   5    2.91    0.26
   2   5   5    1.93    0.20
  -3   5  -5   24.51    1.38
   3   5   5   23.74    1.24
   4   5   5    9.48    0.73
  -4   5  -5    9.46    0.86
  -3   6   5    7.62    0.85
   2   6  -5   23.01    1.29
  -2   6   5   24.59    1.37
   0   6  -5    5.90    0.58
   0   6   5    5.67    0.56
   1   6   5    9.53    0.61
  -1   6  -5    7.52    0.71
  -2   6  -5   39.17    2.04
   6   0  -6    4.36    0.71
  -6   0   6    4.06    0.48
   5   0  -6   28.08    1.62
   5   0  -6   28.81    1.77
   4   0  -6    4.57    0.40
   4   0  -6    4.28    0.51
  -4   0   6    4.22    0.51
   4   0  -6    4.40    0.46
  -4   0   6    4.82    0.34
   3   0  -6   82.85    3.80
  -3   0   6   84.79    3.78
   3   0  -6   86.21    4.12
   3   0  -6   84.34    4.09
  -3   0   6   83.57    4.11
   2   0  -6  365.89   15.43
  -2   0   6  349.05   15.43
   2   0  -6  347.64   16.50
  -2   0   6  342.79   16.51
   1   0  -6  491.46   22.90
  -1   0   6  482.78   22.86
   1   0  -6  491.75   21.40
  -1   0   6  472.92   21.37
   0   0   6   54.83    2.63
   1   0   6    0.62    0.08
  -1   0  -6    0.64    0.10
  -2   0  -6   26.65    1.41
   2   0   6   29.17    1.28
   2   0   6   26.94    1.42
  -2   0  -6   27.91    1.28
  -3   0  -6   27.81    1.31
   3   0   6   25.20    1.42
  -3   0  -6   29.01    1.47
   3   0   6   28.13    1.30
   3   0   6   27.53    1.47
   4   0   6   35.68    1.89
  -4   0  -6   34.87    1.66
  -4   0  -6   34.07    1.87
   4   0   6   33.83    1.83
   4   0   6   35.26    1.66
   5   0   6   26.33    1.62
   5   0   6   27.09    1.40
  -5   0  -6   28.52    1.39
  -6   0  -6   20.52    1.15
   6   0   6   21.29    1.47
   6  -1  -6    6.13    0.80
  -6  -1   6    5.52    0.53
   6   1  -6    5.27    0.72
  -6   1   6    5.07    0.54
   5  -1  -6   10.57    0.81
  -5  -1   6   10.98    0.64
  -5   1   6    9.88    0.96
   5   1  -6   10.21    0.79
  -5   1   6   10.42    0.66
   5   1  -6    8.87    0.72
   5   1  -6   10.90    0.97
   4  -1  -6   64.43    3.22
  -4  -1   6   65.68    2.93
   4  -1  -6   64.97    3.25
   4  -1  -6   64.49    3.00
  -4  -1   6   64.19    3.25
  -4   1   6   63.59    3.25
  -4   1   6   62.74    2.95
   4   1  -6   67.67    3.26
   4   1  -6   63.21    3.21
   4   1  -6   61.89    2.96
   3  -1  -6  254.72   12.81
  -3  -1   6  267.44   12.83
   3  -1  -6  273.42   11.99
  -3  -1   6  260.79   11.94
   3  -1  -6  279.28   12.85
   3   1  -6  267.18   12.81
  -3   1   6  266.13   11.97
  -3   1   6  280.61   12.86
   3   1  -6  274.58   11.96
   3   1  -6  290.85   12.85
  -2  -1   6   74.48    3.70
   2  -1  -6   73.96    3.46
   2   1  -6   79.36    3.43
   2   1  -6   79.81    3.70
  -2   1   6   78.08    3.45
  -2   1   6   76.10    3.71
   1  -1  -6  137.78    6.05
  -1  -1   6  138.21    6.47
   1   1  -6  142.43    6.46
  -1   1   6  136.20    6.05
  -1   1   6  131.22    6.47
   0  -1  -6  281.30   13.95
   0  -1  -6  313.70   12.99
   0   1  -6  292.23   13.96
   0   1   6  265.52   13.86
   0   1   6  325.20   12.99
  -1  -1  -6  264.44   12.15
   1  -1   6  263.72   12.14
   1   1   6  257.44   12.15
  -1   1  -6  256.38   12.15
  -1   1  -6  253.45   11.38
  -2  -1  -6   10.16    0.59
   2  -1   6   10.28    0.53
   2  -1   6   10.25    0.57
   2  -1   6   10.32    0.60
  -2   1  -6    9.29    0.59
  -2   1  -6    9.56    0.53
   2   1   6    9.89    0.48
   2   1   6    9.99    0.59
   2   1   6    9.40    0.56
  -3  -1  -6   89.11    4.07
   3  -1   6   93.37    4.47
   3  -1   6   90.30    4.42
  -3  -1  -6   89.61    4.45
   3  -1   6   92.66    4.12
   3   1   6   97.96    4.42
   3   1   6   90.24    4.07
   3   1   6   87.79    4.45
  -3   1  -6   97.00    4.47
  -3   1  -6   88.03    4.13
  -4  -1  -6   53.14    2.43
   4  -1   6   53.85    2.75
   4  -1   6   52.18    2.69
  -4  -1  -6   53.98    2.74
   4  -1   6   52.28    2.49
   4   1   6   54.51    2.75
  -4   1  -6   52.65    2.50
  -4   1  -6   54.01    2.75
   4   1   6   53.88    2.69
   4   1   6   52.58    2.44
  -5  -1  -6   48.97    2.69
  -5  -1  -6   50.18    2.35
   5   1   6   51.78    2.70
   5   1   6   52.31    2.39
  -5   1  -6   53.07    2.71
   5   1   6   47.20    2.63
  -6  -1  -6    7.73    0.59
   6  -1   6    7.97    0.96
   6   1   6    6.77    0.90
  -6   1  -6    7.24    0.68
   6  -2  -6    9.62    0.98
   6   2  -6    9.34    0.90
  -6   2   6    9.73    0.76
   5  -2  -6   31.92    1.73
   5   2  -6   31.44    1.83
  -5   2   6   31.56    1.55
   5   2  -6   31.19    1.70
   5   2  -6   27.93    1.54
  -5   2   6   26.21    1.80
  -4  -2   6   24.14    1.45
   4  -2  -6   26.01    1.43
   4   2  -6   25.26    1.47
  -4   2   6   25.57    1.31
  -4   2   6   27.40    1.50
   4   2  -6   27.28    1.43
   4   2  -6   24.60    1.28
   3  -2  -6    0.77    0.20
   3  -2  -6    0.46    0.15
  -3  -2   6    0.62    0.19
   3  -2  -6    0.47    0.18
   3   2  -6    0.52    0.19
  -3   2   6    0.36    0.18
   3   2  -6    0.51    0.14
  -3   2   6    0.60    0.16
   3   2  -6    0.55    0.13
  -2  -2   6  269.32   13.02
   2  -2  -6  280.34   13.04
   2  -2  -6  279.21   13.02
   2  -2  -6  277.38   12.20
   2   2  -6  281.87   12.17
  -2   2   6  275.69   12.19
  -2   2   6  269.81   13.03
   2   2  -6  280.55   13.01
   1  -2  -6  187.35    8.95
  -1  -2   6  194.09    8.95
   1  -2  -6  188.18    8.40
   1   2  -6  199.67    8.95
  -1   2   6  186.20    8.39
  -1   2   6  187.30    8.96
   0  -2  -6   21.18    1.10
   0   2  -6   25.68    1.18
   0   2   6   26.01    1.20
   1  -2   6  136.17    6.92
   1  -2   6  142.14    6.95
  -1  -2  -6  139.61    6.93
  -1   2  -6  154.08    6.54
  -1   2  -6  159.07    6.96
   1   2   6  153.19    6.91
   2  -2   6  164.13    7.44
   2  -2   6  161.87    7.40
  -2  -2  -6  158.14    7.42
  -2   2  -6  153.82    7.43
   2   2   6  151.61    7.42
  -2   2  -6  149.57    6.96
   2   2   6  156.69    7.39
   3  -2   6   28.96    1.45
   3  -2   6   29.13    1.51
  -3  -2  -6   28.78    1.48
   3  -2   6   29.26    1.36
   3   2   6   25.91    1.27
   3   2   6   27.25    1.43
   3   2   6   26.50    1.47
  -3   2  -6   27.43    1.49
  -3   2  -6   26.70    1.37
   4  -2   6    6.18    0.60
  -4  -2  -6    6.49    0.57
   4  -2   6    5.40    0.48
  -4   2  -6    5.52    0.47
   4   2   6    5.32    0.55
  -4   2  -6    5.41    0.55
   4   2   6    5.14    0.50
   4   2   6    5.72    0.38
  -5  -2  -6    7.81    0.79
   5  -2   6    8.65    0.84
  -5   2  -6    8.31    0.66
  -5   2  -6    9.84    0.80
   5   2   6    8.82    0.60
   5   2   6    8.19    0.81
   5   2   6    8.43    0.79
   6  -2   6   13.72    1.26
   6   2   6   14.20    1.18
  -6   2  -6   13.49    0.99
   5  -3  -6    1.01    0.37
   5   3  -6    1.31    0.52
   5   3  -6    1.09    0.31
  -5   3   6    0.35    0.50
  -5   3   6    0.73    0.29
   4  -3  -6   33.34    1.73
  -4   3   6   31.55    1.61
  -4   3   6   31.77    1.78
   4   3  -6   30.11    1.55
   4   3  -6   32.00    1.76
  -3  -3   6  174.34    8.13
   3  -3  -6  172.78    7.64
   3  -3  -6  172.30    8.13
   3  -3  -6  174.25    8.15
  -3   3   6  167.49    7.62
   3   3  -6  166.92    7.56
   3   3  -6  167.73    8.13
  -3   3   6  168.39    8.15
   3   3  -6  172.07    8.10
  -2  -3   6   17.18    0.87
   2  -3  -6   17.30    0.85
   2  -3  -6   17.22    0.89
  -2   3   6   14.20    0.88
  -2   3   6   15.46    0.84
   2   3  -6   15.23    0.86
   2   3  -6   15.30    0.84
   1  -3  -6   44.84    2.04
  -1  -3   6   47.35    2.14
   1  -3  -6   45.58    2.16
  -1   3   6   44.29    2.16
  -1   3   6   42.02    2.04
   1   3  -6   42.67    2.13
   0  -3  -6  324.51   15.33
   0  -3   6  356.97   15.34
   0   3   6  316.09   14.38
   0   3  -6  318.59   15.33
   0   3   6  322.71   15.33
  -1  -3  -6  182.43    8.70
   1  -3   6  181.42    8.72
   1  -3   6  192.51    8.69
   1   3   6  164.82    8.69
  -1   3  -6  188.56    8.22
  -1   3  -6  192.16    8.73
   1   3   6  193.33    8.71
   1   3   6  187.04    8.13
   2  -3   6    0.39    0.16
   2  -3   6    0.69    0.13
  -2  -3  -6    0.53    0.13
  -2   3  -6    0.83    0.18
   2   3   6    0.66    0.10
  -2   3  -6    0.63    0.15
   2   3   6    0.71    0.16
   3  -3   6   13.39    0.86
  -3  -3  -6   12.87    0.83
   3  -3   6   13.29    0.80
   3   3   6   13.44    0.77
  -3   3  -6   14.37    0.87
  -3   3  -6   14.87    0.82
   3   3   6   13.98    0.84
   4  -3   6   42.34    2.35
  -4  -3  -6   41.03    2.30
  -4   3  -6   45.00    2.19
  -4   3  -6   45.84    2.35
   4   3   6   43.50    2.01
   4   3   6   46.61    2.30
   4   3   6   45.89    2.33
   5  -3   6    5.91    0.80
  -5   3  -6    6.07    0.61
   5   3   6    4.73    0.67
  -5   4   6   13.57    0.95
   5   4  -6   12.05    0.93
   4  -4  -6    8.28    0.71
  -4   4   6    8.09    0.82
  -4   4   6    8.33    0.67
   4   4  -6    8.20    0.62
   4   4  -6    7.95    0.62
   4   4  -6    7.56    0.74
  -3  -4   6   14.47    0.84
   3  -4  -6   14.46    0.82
   3   4  -6   13.21    0.77
   3   4  -6   13.05    0.74
   3   4  -6   13.01    0.81
  -3   4   6   12.19    0.86
   2  -4  -6   41.71    1.86
   2  -4  -6   37.22    1.79
  -2  -4   6   40.64    1.82
   2  -4  -6   40.34    1.83
  -2   4   6   33.24    1.77
  -2   4   6   32.37    1.84
   2   4  -6   32.65    1.81
   2   4  -6   36.78    1.81
   1  -4  -6   76.20    3.54
  -1   4   6   74.71    3.40
  -1   4   6   73.58    3.56
   0   4   6   16.61    0.83
   0   4  -6   16.42    0.87
   1  -4   6   32.30    1.67
   1   4   6   34.65    1.57
  -1   4  -6   35.27    1.69
  -1   4  -6   35.12    1.68
   2  -4   6   75.33    3.73
   2  -4   6   77.54    3.67
  -2   4  -6   79.63    3.75
   2   4   6   76.64    3.66
   2   4   6   77.68    3.70
  -2   4  -6   76.15    3.57
   3  -4   6   29.68    1.61
  -3   4  -6   30.04    1.56
   3   4   6   30.58    1.57
   3   4   6   28.88    1.49
  -3   4  -6   30.17    1.62
   4  -4   6    0.61    0.36
   4   4   6    0.77    0.29
  -4   4  -6    1.03    0.28
  -5   4  -6   12.16    0.95
   5   4   6   10.98    0.95
  -4   5   6   18.75    1.21
   4   5  -6   18.92    1.10
   3   5  -6   17.58    1.01
   3   5  -6   19.51    1.02
  -3   5   6   19.50    1.13
   2  -5  -6    9.03    0.56
   2  -5  -6    9.41    0.57
  -2   5   6   10.29    0.69
   1   5  -6   16.69    0.92
  -1   5   6   17.05    0.93
   0   5   6   73.13    3.34
   0   5  -6   73.69    3.40
   1   5   6   34.65    1.55
  -1   5  -6   31.04    1.72
   2  -5   6    2.46    0.30
   2  -5   6    1.91    0.24
  -2   5  -6    1.73    0.31
  -3   5  -6   21.26    1.24
   3   5   6   20.60    1.11
   3   5   6   20.94    1.09
   4   5   6   24.43    1.39
  -4   5  -6   25.16    1.48
  -3   6   6    1.02    0.42
  -2   6   6   26.66    1.45
   2   6  -6   25.16    1.39
   1   6  -6   28.90    1.54
  -1   6   6   30.05    1.54
   0   6  -6    1.93    0.35
   0   6   6    2.39    0.34
   1   6   6   21.33    1.10
  -1   6  -6   21.89    1.25
  -2   6  -6   20.87    1.28
  -6   0   7    1.79    0.31
   6   0  -7    1.28    0.42
  -5   0   7   67.55    3.06
   5   0  -7   64.78    3.37
  -4   0   7   82.96    4.24
   4   0  -7   83.91    4.22
   4   0  -7   85.77    3.92
   4   0  -7   87.80    4.26
  -4   0   7   88.93    3.88
   3   0  -7   12.86    0.69
  -3   0   7   12.67    0.79
  -3   0   7   12.97    0.67
   3   0  -7   13.76    0.81
   2   0  -7   90.61    3.81
  -2   0   7   84.83    3.78
   2   0  -7   86.76    4.08
  -2   0   7   78.34    4.08
   1   0  -7  311.68   14.17
   1   0  -7  303.27   13.31
  -1   0   7  285.90   13.22
   0   0  -7   17.89    0.81
   0   0   7   13.49    0.81
  -1   0  -7  265.02   11.48
   1   0   7  257.25   12.21
  -1   0  -7  259.78   12.30
  -2   0  -7  408.67   18.63
   2   0   7  457.73   19.80
   2   0   7  434.35   18.50
   2   0   7  420.06   19.82
  -2   0  -7  390.03   19.81
   3   0   7  236.54   10.17
  -3   0  -7  227.15   10.95
  -3   0  -7  225.33   10.18
   3   0   7  235.04   10.91
   3   0   7  229.86   10.95
   4   0   7    8.57    0.52
  -4   0  -7    8.55    0.52
  -4   0  -7    7.83    0.65
   4   0   7    8.17    0.68
   4   0   7    7.43    0.60
   5   0   7   57.36    2.78
   5   0   7   61.64    3.13
  -5   0  -7   59.53    2.78
   6   0   7   14.39    1.21
  -6   0  -7   15.31    0.92
   6  -1  -7   12.14    1.03
  -6  -1   7   11.74    0.81
  -6   1   7   13.69    0.83
   6   1  -7   12.56    1.03
   5  -1  -7    6.98    0.69
  -5   1   7    6.79    0.51
   5   1  -7    5.97    0.83
   5   1  -7    7.03    0.63
   4  -1  -7   30.15    1.61
   4  -1  -7   29.10    1.64
   4  -1  -7   28.90    1.48
  -4  -1   7   30.37    1.67
  -4  -1   7   30.22    1.43
  -4   1   7   29.55    1.65
  -4   1   7   28.45    1.44
   4   1  -7   28.41    1.45
   4   1  -7   31.27    1.65
   4   1  -7   29.75    1.59
   3  -1  -7   61.36    3.03
   3  -1  -7   62.82    3.06
   3  -1  -7   61.43    2.83
  -3  -1   7   59.92    2.78
  -3  -1   7   63.21    3.05
  -3   1   7   59.40    3.05
   3   1  -7   62.62    2.80
  -3   1   7   59.91    2.80
   3   1  -7   63.28    3.06
   3   1  -7   60.96    3.02
   2  -1  -7   14.06    0.90
   2  -1  -7   13.88    0.84
   2   1  -7   19.69    0.84
  -2   1   7   18.89    0.84
   2   1  -7   18.49    0.92
  -2   1   7   18.31    0.93
   1  -1  -7    1.75    0.16
   1  -1  -7    1.64    0.14
   1   1  -7    1.16    0.14
  -1   1   7    1.25    0.13
  -1   1   7    1.07    0.15
   0  -1  -7  346.64   13.41
   0  -1   7  282.59   14.29
   0  -1  -7  331.64   14.41
   0   1   7  257.78   14.28
   0   1   7  317.77   13.39
   0   1  -7  293.04   14.37
  -1  -1  -7  121.27    5.66
   1  -1   7  123.17    5.64
  -1   1  -7  120.99    5.30
   1   1   7  116.34    5.63
  -1   1  -7  116.29    5.66
   2  -1   7   64.10    3.11
   2  -1   7   63.70    3.14
  -2  -1  -7   63.63    3.13
   2   1   7   67.30    3.11
  -2   1  -7   61.67    2.92
   2   1   7   65.84    3.14
   2   1   7   66.17    2.86
  -2   1  -7   63.91    3.14
   3  -1   7   35.29    1.86
   3  -1   7   36.57    1.68
   3  -1   7   36.41    1.81
  -3  -1  -7   36.25    1.85
  -3  -1  -7   36.78    1.64
  -3   1  -7   34.66    1.85
  -3   1  -7   35.38    1.69
   3   1   7   33.11    1.81
   3   1   7   36.06    1.64
   3   1   7   36.75    1.86
  -4  -1  -7   89.51    3.85
   4  -1   7   88.89    4.27
   4  -1   7   89.10    4.20
   4  -1   7   86.81    3.90
  -4  -1  -7   90.02    4.26
   4   1   7   80.76    4.18
  -4   1  -7   82.77    3.91
   4   1   7   84.01    3.85
   4   1   7   85.81    4.25
  -4   1  -7   79.19    4.24
  -5  -1  -7   31.69    1.50
  -5  -1  -7   30.51    1.79
   5  -1   7   30.91    1.83
   5   1   7   31.38    1.81
  -5   1  -7   31.22    1.80
   5   1   7   30.17    1.74
   5   1   7   31.50    1.54
  -6  -1  -7    1.49    0.31
   6  -1   7    0.57    0.47
  -6   1  -7    0.96    0.35
   6   1   7    0.52    0.44
   6  -2  -7    4.17    0.62
   6   2  -7    4.97    0.71
  -6   2   7    4.98    0.60
   5  -2  -7   31.80    1.89
  -5   2   7   33.30    2.00
   5   2  -7   35.74    1.89
   5   2  -7   35.82    2.03
  -5   2   7   34.80    1.73
   4  -2  -7   43.49    2.25
  -4   2   7   45.68    2.32
   4   2  -7   42.09    2.04
   4   2  -7   43.13    2.23
  -4   2   7   41.85    2.07
   4   2  -7   43.68    2.29
   3  -2  -7   16.87    0.98
  -3  -2   7   16.98    0.98
   3  -2  -7   17.98    0.92
   3  -2  -7   17.01    0.96
   3   2  -7   16.94    0.98
   3   2  -7   17.05    0.85
  -3   2   7   16.58    0.89
   3   2  -7   16.45    0.94
  -3   2   7   16.73    0.99
  -2  -2   7  113.78    5.76
   2  -2  -7  110.79    5.75
   2  -2  -7  112.86    5.40
  -2   2   7  128.94    5.41
  -2   2   7  131.24    5.79
   2   2  -7  129.33    5.76
  -1  -2   7  332.90   15.42
   1  -2  -7  329.98   15.42
   1  -2  -7  325.71   14.45
  -1   2   7  325.63   15.43
   1   2  -7  336.55   15.50
  -1   2   7  323.61   14.44
   0  -2  -7   70.64    3.33
   0  -2  -7   69.63    3.56
   0   2   7   81.16    3.59
   0   2  -7   80.03    3.56
  -1  -2  -7  110.57    5.16
   1  -2   7  107.79    5.17
   1  -2   7  116.99    5.14
  -1   2  -7  105.85    5.17
  -1   2  -7  105.28    4.86
   1   2   7  108.19    5.13
   2  -2   7  174.67    8.11
  -2  -2  -7  164.73    8.13
   2  -2   7  173.61    8.16
  -2   2  -7  175.41    7.64
   2   2   7  171.21    8.10
   2   2   7  177.94    8.15
  -2   2  -7  165.68    8.15
   3  -2   7  186.28    8.62
  -3  -2  -7  179.24    8.65
   3  -2   7  191.41    8.68
   3  -2   7  186.08    8.08
   3   2   7  184.69    8.61
   3   2   7  173.83    7.98
   3   2   7  177.27    8.66
  -3   2  -7  177.24    8.10
  -3   2  -7  179.49    8.67
  -4  -2  -7    0.68    0.14
   4  -2   7    0.85    0.27
  -4  -2  -7    1.08    0.28
   4  -2   7    1.07    0.24
   4   2   7    0.52    0.24
   4   2   7    0.65    0.15
  -4   2  -7    0.75    0.22
   4   2   7    0.46    0.23
  -4   2  -7    0.67    0.23
  -5  -2  -7   10.19    0.87
   5  -2   7    8.96    0.87
  -5   2  -7   10.48    0.74
   5   2   7    9.98    0.64
  -5   2  -7   10.52    0.87
   5   2   7   11.35    0.91
   5   2   7    9.57    0.85
   6  -2   7   14.96    1.38
  -6   2  -7   17.98    1.14
   6   2   7   17.39    1.32
   5  -3  -7    1.68    0.41
  -5   3   7    2.12    0.58
   5   3  -7    1.50    0.59
  -5   3   7    1.59    0.33
   5   3  -7    1.42    0.34
   4  -3  -7   15.81    0.98
   4   3  -7   14.95    0.86
  -4   3   7   16.07    0.91
   4   3  -7   15.70    1.05
   4   3  -7   14.94    0.94
  -4   3   7   14.63    1.06
   3  -3  -7   80.19    4.14
   3  -3  -7   83.52    4.12
   3  -3  -7   77.89    3.88
  -3  -3   7   81.32    4.13
   3   3  -7   87.20    4.14
  -3   3   7   86.65    4.17
   3   3  -7   90.93    4.11
   3   3  -7   87.86    3.83
  -3   3   7   88.11    3.89
   2  -3  -7   92.08    4.03
   2  -3  -7   95.39    4.27
  -2  -3   7   89.84    4.27
   2  -3  -7   90.66    4.29
  -2   3   7   85.52    4.01
  -2   3   7   86.22    4.28
   2   3  -7   85.32    4.27
   2   3  -7   86.58    4.24
   1  -3  -7   13.63    0.72
  -1  -3   7   14.64    0.73
   1  -3  -7   14.34    0.73
  -1   3   7   14.45    0.75
   1   3  -7   13.51    0.72
  -1   3   7   13.72    0.72
   0  -3   7   95.45    4.19
   0  -3  -7   91.77    4.16
   0   3   7   84.99    4.17
   0   3  -7   88.67    4.17
   0   3   7   81.03    3.92
   1  -3   7  147.66    6.72
   1  -3   7  153.61    6.69
  -1   3  -7  142.94    6.72
   1   3   7  143.93    6.70
  -1   3  -7  141.71    6.34
   1   3   7  122.89    6.69
  -2  -3  -7   31.50    1.69
   2  -3   7   34.79    1.67
   2  -3   7   32.76    1.73
  -2   3  -7   34.12    1.73
   2   3   7   34.05    1.65
  -2   3  -7   34.49    1.65
   2   3   7   35.59    1.71
   3  -3   7   41.26    2.00
  -3  -3  -7   41.86    2.03
   3  -3   7   39.95    2.06
  -3   3  -7   38.86    2.05
   3   3   7   37.88    1.96
  -3   3  -7   38.03    1.93
   3   3   7   39.11    2.03
  -4  -3  -7   37.19    1.94
   4  -3   7   39.15    2.00
   4   3   7   33.88    1.92
  -4   3  -7   35.92    1.82
   4   3   7   35.30    1.63
  -4   3  -7   34.41    1.95
   5  -3   7   23.99    1.52
   5   3   7   22.99    1.45
  -5   3  -7   23.12    1.34
   5   4  -7   22.64    1.38
  -5   4   7   23.43    1.37
   4  -4  -7   16.89    1.03
  -4   4   7   16.16    0.99
  -4   4   7   14.25    1.10
   4   4  -7   15.21    1.06
   4   4  -7   15.62    0.92
   4   4  -7   15.49    0.96
   3  -4  -7    4.86    0.45
  -3  -4   7    4.61    0.50
   3   4  -7    4.76    0.40
   3   4  -7    4.93    0.48
   3   4  -7    4.96    0.40
  -3   4   7    4.20    0.53
   2  -4  -7   86.86    4.20
  -2  -4   7   92.64    4.41
   2  -4  -7   91.07    4.42
   2  -4  -7   88.20    4.44
  -2   4   7   95.01    4.21
  -2   4   7   95.04    4.46
   2   4  -7   99.27    4.41
   2   4  -7   91.87    4.42
   1  -4  -7   62.92    3.06
   1  -4  -7   66.66    3.08
  -1   4   7   62.47    2.94
  -1   4   7   65.70    3.09
   0   4   7    6.25    0.39
   0   4  -7    6.45    0.44
   1  -4   7    7.66    0.45
   1  -4   7    7.93    0.46
  -1   4  -7    7.33    0.46
   1   4   7    7.32    0.40
  -1   4  -7    6.88    0.50
   2  -4   7   66.98    3.19
   2  -4   7   66.25    3.11
   2   4   7   65.52    3.15
  -2   4  -7   64.55    3.05
   2   4   7   63.13    3.10
  -2   4  -7   64.28    3.19
   3  -4   7   44.72    2.33
   3   4   7   45.30    2.28
  -3   4  -7   45.17    2.35
   3   4   7   44.74    2.20
  -3   4  -7   46.27    2.24
   4  -4   7    5.21    0.71
   4   4   7    4.14    0.57
  -4   4  -7    5.77    0.58
   5   4   7    5.15    0.74
  -5   4  -7    5.90    0.73
   4   5  -7   17.08    1.03
  -4   5   7   17.26    1.14
  -3   5   7   50.29    2.38
   3   5  -7   45.10    2.27
   3   5  -7   47.75    2.37
   3   5  -7   50.20    2.38
   2  -5  -7   15.76    0.89
   2  -5  -7   15.86    0.89
  -2   5   7   17.20    0.97
  -2   5   7   17.74    0.91
  -1   5   7    8.48    0.59
   0   5  -7   42.83    2.08
   0   5   7   43.28    2.01
   1   5   7   36.52    1.69
   2  -5   7    1.69    0.23
   2  -5   7    1.69    0.25
  -2   5  -7    1.11    0.29
  -3   5  -7    6.32    0.65
   3   5   7    6.08    0.49
  -4   5  -7   37.94    2.01
   4   5   7   36.40    1.95
  -2   6   7   24.09    1.35
   2   6  -7   23.19    1.28
  -1   6   7   25.37    1.37
   1   6  -7   25.87    1.38
   0   6  -7   18.65    1.08
   0   6   7   16.92    0.98
  -1   6  -7    3.77    0.49
   1   6   7    3.57    0.41
  -2   6  -7   12.68    0.95
   6   0  -8    2.64    0.51
  -6   0   8    2.53    0.34
   5   0  -8   32.87    1.82
  -5   0   8   32.47    1.59
  -4   0   8   53.13    2.80
   4   0  -8   54.88    2.57
  -4   0   8   54.78    2.52
   4   0  -8   56.34    2.77
   4   0  -8   54.61    2.81
  -3   0   8   79.72    3.62
   3   0  -8   78.49    3.64
  -3   0   8   82.93    3.94
   3   0  -8   78.55    3.91
   3   0  -8   83.30    3.95
  -2   0   8   68.35    3.44
   2   0  -8   73.81    3.43
  -2   0   8   70.76    3.18
   2   0  -8   71.57    3.19
  -1   0   8  133.58    6.35
   1   0  -8  149.27    6.80
  -1   0   8  146.38    6.81
   1   0  -8  147.26    6.35
   0   0   8  179.35    9.16
   0   0  -8  210.10    9.15
   1   0   8   20.98    1.02
  -1   0  -8   19.91    1.03
   2   0   8  374.20   17.66
   2   0   8  371.73   17.63
  -2   0  -8  382.04   16.49
   3   0   8   90.91    4.07
  -3   0  -8   87.88    4.43
  -3   0  -8   89.35    4.08
   3   0   8   93.47    4.44
   3   0   8   93.44    4.39
  -4   0  -8   42.03    1.95
   4   0   8   40.62    2.20
  -4   0  -8   42.05    2.20
   4   0   8   41.67    1.94
   4   0   8   40.63    2.13
  -5   0  -8    9.51    0.84
   5   0   8    9.50    0.66
  -5   0  -8    9.62    0.63
   5   0   8    9.70    0.85
  -6   0  -8   12.86    0.84
   6   0   8   12.58    1.13
  -6   0  -8   12.04    1.11
  -6  -1   8   27.52    1.50
   6  -1  -8   29.53    1.76
  -6   1   8   29.31    1.50
   6   1  -8   28.71    1.74
  -5  -1   8    1.05    0.23
  -5   1   8    0.48    0.19
   5   1  -8   -0.26    0.37
   5   1  -8    0.03    0.22
  -4  -1   8   13.76    0.72
   4  -1  -8   14.31    0.80
   4  -1  -8   13.19    0.89
   4  -1  -8   13.16    0.84
   4   1  -8   12.31    0.75
   4   1  -8   12.70    0.82
   4   1  -8   12.43    0.90
  -4   1   8   13.55    0.73
  -4   1   8   12.72    0.90
   3  -1  -8  133.71    6.78
  -3  -1   8  141.95    6.81
   3  -1  -8  147.16    6.83
   3  -1  -8  137.46    6.35
  -3  -1   8  135.48    6.31
   3   1  -8  148.95    6.83
  -3   1   8  146.62    6.83
   3   1  -8  137.58    6.78
  -3   1   8  145.38    6.33
   3   1  -8  148.24    6.33
  -2  -1   8  200.49    9.73
   2  -1  -8  203.53    9.72
   2  -1  -8  215.84    9.10
   2   1  -8  199.71    9.71
  -2   1   8  204.62    9.08
   2   1  -8  213.94    9.08
  -2   1   8  203.51    9.73
   1  -1  -8   53.71    2.54
  -1  -1   8   53.06    2.55
   1  -1  -8   50.53    2.38
   1   1  -8   51.80    2.54
  -1   1   8   55.13    2.56
  -1   1   8   52.62    2.36
   0  -1   8  173.53    9.02
   0  -1  -8  211.97    8.41
   0  -1  -8  200.22    9.01
   0   1   8  169.61    9.02
   0   1   8  197.82    8.41
   0   1  -8  197.87    9.01
   1  -1   8  477.31   23.30
  -1  -1  -8  516.21   21.72
  -1  -1  -8  493.63   23.42
   1   1   8  487.82   23.25
  -1   1  -8  505.51   23.48
   2  -1   8   91.39    4.25
  -2  -1  -8   95.39    4.25
  -2   1  -8   82.68    4.24
   2   1   8   88.81    4.24
  -2   1  -8   86.79    3.95
   2   1   8   84.31    4.20
  -3  -1  -8   39.51    2.07
   3  -1   8   41.48    2.04
   3  -1   8   40.75    2.09
  -3  -1  -8   41.64    1.84
   3  -1   8   41.57    1.89
   3   1   8   40.60    2.08
  -3   1  -8   39.88    1.90
   3   1   8   39.33    1.84
  -3   1  -8   39.19    2.08
   4  -1   8   20.95    1.16
  -4  -1  -8   21.38    1.22
   4  -1   8   20.44    1.06
   4  -1   8   19.68    1.23
  -4  -1  -8   20.97    1.00
   4   1   8   19.23    1.21
   4   1   8   20.06    1.16
  -4   1  -8   20.85    1.07
  -4   1  -8   19.13    1.21
   4   1   8   20.59    1.01
  -5  -1  -8   40.80    1.81
   5  -1   8   40.93    2.15
  -5  -1  -8   39.78    2.14
   5   1   8   35.00    2.04
   5   1   8   36.06    1.81
  -5   1  -8   37.19    2.12
   5   1   8   36.47    2.11
  -5   1  -8   36.60    1.89
   6  -1   8    0.17    0.44
   6   1   8    0.06    0.41
  -6   1  -8    0.16    0.42
  -6   1  -8    0.04    0.30
   6  -2  -8    0.30    0.44
   6   2  -8   -0.23    0.32
  -6   2   8    0.02    0.28
   5  -2  -8   18.95    1.24
   5   2  -8   20.53    1.22
  -5   2   8   20.19    1.10
  -5   2   8   18.24    1.39
   5   2  -8   20.93    1.42
   4  -2  -8   43.56    2.39
   4   2  -8   46.19    2.20
  -4   2   8   47.06    2.22
  -4   2   8   49.28    2.47
   4   2  -8   47.29    2.44
   4   2  -8   46.46    2.39
  -3  -2   8   10.61    0.74
   3  -2  -8   11.72    0.75
   3  -2  -8   12.33    0.71
   3  -2  -8   11.82    0.73
  -3   2   8   11.42    0.77
   3   2  -8   11.89    0.72
   3   2  -8   12.27    0.76
  -3   2   8   12.08    0.67
   3   2  -8   12.38    0.64
   2  -2  -8  123.75    5.25
   2  -2  -8  125.05    5.59
  -2  -2   8  124.02    5.59
  -2   2   8  107.23    5.59
   2   2  -8  115.49    5.21
   2   2  -8  115.32    5.57
  -2   2   8  109.56    5.22
   1  -2  -8  293.11   12.90
   1  -2  -8  293.93   13.78
  -1  -2   8  297.76   13.78
  -1   2   8  293.99   12.90
  -1   2   8  295.87   13.79
   1   2  -8  287.03   13.77
   0  -2  -8  236.00   10.08
   0  -2  -8  217.84   10.79
   0   2   8  243.44   10.81
   0   2  -8  233.39   10.80
   0   2   8  218.77   10.08
   1  -2   8   27.96    1.31
  -1  -2  -8   26.43    1.33
   1   2   8   27.42    1.31
  -1   2  -8   26.82    1.28
  -1   2  -8   25.38    1.34
   2  -2   8   67.41    3.28
   2  -2   8   69.27    3.24
  -2  -2  -8   66.92    3.27
   2   2   8   66.74    3.27
  -2   2  -8   69.55    3.09
  -2   2  -8   66.48    3.28
   2   2   8   65.23    3.22
   3  -2   8   41.10    2.40
   3  -2   8   42.67    2.46
  -3  -2  -8   41.25    2.44
   3   2   8   52.03    2.42
   3   2   8   53.55    2.49
   3   2   8   52.97    2.18
  -3   2  -8   54.18    2.32
  -3   2  -8   52.79    2.50
  -4  -2  -8   15.63    0.99
   4  -2   8   16.74    1.04
   4  -2   8   14.84    0.87
  -4   2  -8   15.83    0.90
   4   2   8   14.91    0.77
   4   2   8   15.01    0.99
   4   2   8   15.47    0.93
  -4   2  -8   15.13    1.01
  -5  -2  -8    5.20    0.68
   5   2   8    5.31    0.47
   5   2   8    5.12    0.66
  -5   2  -8    5.96    0.68
   5   2   8    5.27    0.71
  -5   2  -8    5.85    0.58
   6  -2   8   11.46    1.18
  -6   2  -8   10.65    0.90
   6   2   8    9.82    1.07
   5  -3  -8    8.94    0.82
   5   3  -8    8.16    0.73
  -5   3   8    9.05    0.69
  -5   3   8    6.64    1.04
   4  -3  -8   22.21    1.32
  -4   3   8   23.53    1.24
   4   3  -8   24.28    1.30
   4   3  -8   22.59    1.19
  -4   3   8   23.14    1.42
   3  -3  -8   52.15    2.73
   3  -3  -8   53.27    2.57
   3  -3  -8   52.74    2.70
  -3  -3   8   52.59    2.71
  -3   3   8   54.69    2.55
  -3   3   8   56.54    2.75
   3   3  -8   54.45    2.72
   3   3  -8   56.72    2.69
   3   3  -8   55.68    2.50
  -2  -3   8  131.59    6.12
   2  -3  -8  135.51    6.12
   2  -3  -8  128.80    5.76
   2  -3  -8  134.86    6.15
   2   3  -8  126.83    6.10
  -2   3   8  120.26    5.74
  -2   3   8  122.74    6.14
   1  -3  -8   25.34    1.24
   1  -3  -8   26.22    1.30
  -1  -3   8   25.48    1.31
   1   3  -8   26.42    1.29
  -1   3   8   26.90    1.24
  -1   3   8   25.66    1.31
   0  -3   8   85.89    4.16
   0   3   8   89.93    4.15
   0   3   8   84.61    3.88
   0   3  -8   89.94    4.14
   1  -3   8  126.78    5.47
   1  -3   8  115.35    5.50
  -1   3  -8  115.03    5.20
   1   3   8  105.18    5.47
  -1   3  -8  111.76    5.49
   1   3   8  120.62    5.48
   2  -3   8   41.05    1.97
  -2  -3  -8   40.07    2.01
   2  -3   8   39.38    2.04
   2   3   8   39.94    1.95
   2   3   8   41.76    2.02
  -2   3  -8   40.88    2.04
  -2   3  -8   40.15    1.94
  -3  -3  -8   17.27    1.05
   3  -3   8   18.15    1.02
   3  -3   8   17.51    1.09
   3   3   8   19.36    1.08
  -3   3  -8   18.84    1.10
  -3   3  -8   19.22    1.03
   3   3   8   20.33    1.00
   4  -3   8   56.31    3.05
  -4  -3  -8   53.79    3.00
  -4   3  -8   62.16    2.86
  -4   3  -8   61.07    3.06
   4   3   8   61.66    3.04
   4   3   8   61.57    2.96
   5  -3   8   20.09    1.39
  -5   3  -8   19.15    1.33
  -5   3  -8   20.31    1.21
   5   3   8   19.69    1.31
  -5   4   8   19.97    1.22
   5   4  -8   18.06    1.21
   4  -4  -8   24.69    1.35
  -4   4   8   20.03    1.41
  -4   4   8   23.41    1.27
   4   4  -8   22.97    1.27
   4   4  -8   21.31    1.21
   3  -4  -8    1.76    0.27
  -3  -4   8    1.90    0.30
   3   4  -8    1.63    0.24
   3   4  -8    1.43    0.25
  -3   4   8    1.33    0.32
   3   4  -8    1.72    0.29
   2  -4  -8   20.91    1.11
   2  -4  -8   21.24    1.11
   2  -4  -8   20.31    1.14
  -2  -4   8   20.83    1.11
  -2   4   8   21.31    1.10
   2   4  -8   22.16    1.10
   2   4  -8   20.46    1.11
  -2   4   8   21.47    1.16
   1  -4  -8   65.73    3.03
   1  -4  -8   62.22    2.88
   1  -4  -8   62.11    3.01
  -1   4   8   60.21    2.88
  -1   4   8   63.18    3.03
   1   4  -8   64.99    2.99
   0   4   8   68.59    3.16
   0   4  -8   72.26    3.34
   1  -4   8    4.98    0.39
   1  -4   8    5.79    0.41
  -1   4  -8    5.37    0.43
   1   4   8    5.38    0.31
   1   4   8    5.45    0.34
   1   4   8    5.95    0.35
  -1   4  -8    5.39    0.38
   2  -4   8   46.92    2.37
   2  -4   8   48.97    2.30
  -2   4  -8   46.84    2.29
   2   4   8   49.49    2.34
   2   4   8   45.33    2.29
  -2   4  -8   47.68    2.38
  -3  -4  -8   69.23    3.46
   3  -4   8   71.63    3.52
   3   4   8   72.72    3.48
   3   4   8   69.87    3.38
  -3   4  -8   69.69    3.34
   4  -4   8    3.38    0.51
   4   4   8    3.24    0.44
  -4   4  -8    3.22    0.47
  -4   4  -8    4.79    0.54
  -5   4  -8    4.96    0.70
   5   4   8    3.76    0.57
   4   5  -8    3.59    0.50
  -4   5   8    2.82    0.46
   3   5  -8   25.29    1.33
  -3   5   8   26.05    1.41
   2  -5  -8   21.95    1.18
   2  -5  -8   23.19    1.17
  -2   5   8   23.47    1.22
  -2   5   8   21.78    1.19
  -1   5   8    2.24    0.29
   0   5  -8   23.01    1.22
   0   5   8   22.74    1.13
   1   5   8   84.36    3.79
  -1   5  -8   86.22    3.96
   2  -5   8   18.57    1.05
   2  -5   8   21.04    1.08
  -2   5  -8   19.06    1.13
   3   5   8    1.97    0.28
  -3   5  -8    2.52    0.42
  -4   5  -8   27.15    1.56
   4   5   8   26.38    1.50
  -2   6   8    2.40    0.43
   2   6  -8    2.72    0.41
  -1   6   8   32.39    1.65
   1   6  -8   32.56    1.69
   0   6  -8    9.09    0.72
   0   6   8    8.87    0.65
  -1   6  -8    0.67    0.33
  -2   6  -8   16.77    1.13
  -6   0   9    1.06    0.26
   6   0  -9    0.68    0.39
   5   0  -9   29.49    1.65
  -5   0   9   29.05    1.45
  -4   0   9  144.61    6.43
   4   0  -9  143.03    6.94
   4   0  -9  145.45    6.98
  -4   0   9  144.92    6.98
   4   0  -9  143.28    6.47
   3   0  -9    9.65    0.65
  -3   0   9   10.51    0.68
   3   0  -9   11.22    0.60
  -3   0   9   10.54    0.56
  -2   0   9   32.74    1.55
   2   0  -9   34.60    1.58
   2   0  -9   34.59    1.70
  -1   0   9  336.59   15.22
   1   0  -9  311.88   14.31
   0   0  -9  204.41    9.22
   0   0   9  184.85    9.16
   1   0   9    4.59    0.28
  -2   0  -9   13.84    0.69
   2   0   9   13.84    0.79
   2   0   9   14.84    0.76
  -2   0  -9   13.68    0.78
   3   0   9  182.69    8.89
  -3   0  -9  191.53    8.30
   3   0   9  182.15    8.94
   3   0   9  195.19    8.28
  -3   0  -9  186.11    8.94
   4   0   9   74.36    3.38
   4   0   9   74.56    3.67
   4   0   9   76.30    3.75
  -4   0  -9   75.85    3.40
  -4   0  -9   71.04    3.72
  -5   0  -9    4.83    0.67
   5   0   9    4.22    0.48
   5   0   9    5.31    0.64
  -5   0  -9    5.54    0.46
  -6   0  -9   13.15    0.86
   6   0   9   13.47    1.18
  -6   0  -9   12.25    1.13
   6  -1  -9   17.75    1.26
   6   1  -9   16.26    1.20
  -6   1   9   17.82    1.02
  -5  -1   9   31.05    1.52
   5   1  -9   30.80    1.72
  -5   1   9   31.04    1.53
   5   1  -9   28.98    1.82
   4  -1  -9   13.06    0.88
  -4  -1   9   12.83    0.71
   4  -1  -9   12.61    0.82
  -4   1   9   12.07    0.88
   4   1  -9   12.91    0.90
   4   1  -9   12.97    0.75
  -4   1   9   13.23    0.72
   4   1  -9   12.47    0.81
   3  -1  -9  128.86    5.69
   3  -1  -9  131.11    6.09
  -3  -1   9  123.72    6.10
   3  -1  -9  130.77    6.12
  -3   1   9  127.55    6.11
  -3   1   9  125.40    5.66
   3   1  -9  123.78    5.66
   3   1  -9  124.17    6.07
   2  -1  -9  319.59   14.93
   2  -1  -9  326.16   14.00
  -2   1   9  321.77   13.96
   2   1  -9  312.05   14.93
   2   1  -9  298.26   13.96
  -2   1   9  328.11   14.95
  -1  -1   9  208.52    9.38
   1  -1  -9  190.78    9.36
   1  -1  -9  196.91    8.76
   1   1  -9  193.63    9.36
  -1   1   9  204.72    9.38
  -1   1   9  199.55    8.74
   0  -1  -9   89.16    3.69
   0  -1   9   76.28    3.98
   0  -1  -9   90.05    3.97
   0   1  -9   88.99    3.96
   0   1   9   72.96    3.98
   1  -1   9   86.72    4.56
  -1  -1  -9   95.61    4.58
  -1   1  -9  103.44    4.59
   1   1   9  100.51    4.56
   2  -1   9  116.90    5.82
   2  -1   9  121.63    5.78
  -2  -1  -9  125.17    5.82
   2   1   9  121.87    5.78
  -2   1  -9  120.59    5.43
  -2   1  -9  124.01    5.82
   2   1   9  123.24    5.82
   3  -1   9   14.06    0.79
  -3  -1  -9   14.76    0.68
   3  -1   9   13.37    0.85
  -3  -1  -9   13.69    0.84
  -3   1  -9   13.70    0.74
   3   1   9   14.43    0.79
   3   1   9   13.66    0.83
   3   1   9   13.28    0.67
  -3   1  -9   12.35    0.83
  -4  -1  -9   70.74    3.09
   4  -1   9   68.85    3.14
  -4  -1  -9   70.26    3.46
   4  -1   9   71.33    3.40
   4  -1   9   72.71    3.48
   4   1   9   65.78    3.09
  -4   1  -9   68.67    3.46
  -4   1  -9   65.05    3.16
   4   1   9   65.01    3.45
   4   1   9   66.24    3.38
  -5  -1  -9   21.62    1.36
  -5  -1  -9   22.71    1.07
   5  -1   9   22.73    1.39
   5   1   9   21.30    1.34
   5   1   9   17.78    1.26
   5   1   9   19.46    1.08
  -5   1  -9   20.33    1.15
  -5   1  -9   19.89    1.34
   6  -1   9   14.01    1.25
  -6  -1  -9   13.43    1.23
   6   1   9   14.20    1.21
  -6   1  -9   14.34    0.97
  -6   1  -9   14.01    1.19
   6  -2  -9    1.34    0.49
  -6   2   9    1.90    0.37
   6   2  -9    1.80    0.44
   5  -2  -9   28.23    1.54
   5   2  -9   26.60    1.50
   5   2  -9   24.29    1.64
  -5   2   9   26.17    1.35
  -5   2   9   23.13    1.64
   4  -2  -9   56.73    2.75
   4   2  -9   52.24    2.78
   4   2  -9   55.29    2.74
  -4   2   9   52.95    2.79
   4   2  -9   53.88    2.53
  -4   2   9   52.64    2.53
   3  -2  -9   58.35    2.98
   3  -2  -9   58.41    2.95
   3  -2  -9   60.37    2.78
  -3  -2   9   60.75    2.97
   3   2  -9   58.42    2.94
  -3   2   9   60.04    2.75
   3   2  -9   60.87    2.73
   3   2  -9   60.68    2.98
   2  -2  -9    9.96    0.61
   2  -2  -9    9.91    0.59
  -2  -2   9   10.29    0.63
  -2   2   9   10.92    0.65
   2   2  -9   11.35    0.62
   2   2  -9   11.28    0.58
  -2   2   9   11.17    0.58
   1  -2  -9  153.09    6.82
  -1  -2   9  155.50    7.29
  -1   2   9  151.26    6.81
   1   2  -9  160.12    7.29
  -1   2   9  151.66    7.29
   0  -2  -9  205.19    8.90
   0  -2  -9  202.10    9.51
   0   2   9  192.30    9.54
   0   2   9  212.48    8.89
   0   2  -9  201.33    9.52
  -1   2  -9    0.25    0.09
  -1   2  -9    0.10    0.09
   1   2   9    0.12    0.06
   2  -2   9  105.42    5.24
   2  -2   9  108.45    5.19
  -2  -2  -9  103.87    5.22
   2   2   9  112.23    5.23
  -2   2  -9  110.57    5.24
   2   2   9  110.87    5.18
  -2   2  -9  113.37    4.92
   3  -2   9   55.66    2.62
   3  -2   9   56.26    2.69
  -3  -2  -9   54.47    2.67
  -3   2  -9   48.38    2.66
  -3   2  -9   49.04    2.48
   3   2   9   52.30    2.66
   3   2   9   54.39    2.60
   4  -2   9   27.87    1.64
  -4  -2  -9   28.11    1.62
   4   2   9   29.02    1.35
  -4   2  -9   29.26    1.49
   4   2   9   30.66    1.56
  -5  -2  -9    4.03    0.64
   5   2   9    4.80    0.69
  -5   2  -9    5.11    0.54
   5   2   9    4.14    0.62
   5   2   9    3.83    0.41
  -5   2  -9    4.66    0.64
   6  -2   9    4.83    0.76
  -6   2  -9    3.60    0.62
  -6   2  -9    5.94    0.73
   6   2   9    4.29    0.66
   5  -3  -9    8.68    0.83
  -5   3   9    9.20    0.70
  -5   3   9    8.47    1.10
   5   3  -9    9.18    0.75
   4  -3  -9    5.33    0.56
  -4   3   9    6.00    0.73
   4   3  -9    4.67    0.65
   4   3  -9    5.75    0.51
  -4   3   9    5.52    0.50
   4   3  -9    6.31    0.52
   3  -3  -9   59.99    3.33
  -3  -3   9   63.87    3.32
   3  -3  -9   63.59    3.13
   3  -3  -9   65.93    3.31
   3   3  -9   72.50    3.30
   3   3  -9   69.03    3.07
  -3   3   9   68.44    3.36
  -3   3   9   71.08    3.12
   3   3  -9   71.94    3.35
   2  -3  -9  104.72    4.83
   2  -3  -9  106.27    5.15
  -2  -3   9  104.94    5.14
   2  -3  -9  106.36    5.13
   2   3  -9  113.62    5.12
  -2   3   9  106.75    4.82
  -2   3   9  109.17    5.16
   1  -3  -9   47.09    2.09
   1  -3  -9   46.65    2.21
  -1  -3   9   46.61    2.21
  -1   3   9   43.12    2.07
   1   3  -9   46.27    2.20
  -1   3   9   42.62    2.21
   0  -3  -9   14.77    0.69
   0   3   9   13.40    0.68
   0   3   9   14.09    0.75
   0   3  -9   14.46    0.73
   1  -3   9  163.02    7.55
   1  -3   9  162.27    7.51
  -1  -3  -9  156.29    7.52
   1   3   9  149.74    7.53
  -1   3  -9  160.55    7.11
  -1   3  -9  165.63    7.55
   2  -3   9   39.22    1.88
   2  -3   9   39.73    1.96
  -2  -3  -9   35.17    1.93
   2   3   9   38.78    1.86
  -2   3  -9   38.29    1.86
  -2   3  -9   39.55    1.95
   2   3   9   38.19    1.93
   3  -3   9    7.90    0.62
   3  -3   9    7.34    0.53
  -3  -3  -9    7.94    0.58
  -3   3  -9    7.50    0.60
   3   3   9    7.96    0.58
   3   3   9    7.28    0.49
  -3   3  -9    7.63    0.56
  -4  -3  -9   19.76    1.19
   4  -3   9   19.98    1.23
   4   3   9   18.92    1.10
  -4   3  -9   18.46    1.10
  -4   3  -9   18.25    1.19
   4   3   9   18.97    1.18
   5  -3   9   22.56    1.61
  -5  -3  -9   23.24    1.57
   5   3   9   28.00    1.58
  -5   3  -9   27.64    1.47
  -5   3  -9   25.69    1.59
   5   4  -9    7.02    0.72
  -5   4   9    6.98    0.75
   4  -4  -9   50.21    2.62
  -4   4   9   49.91    2.48
  -4   4   9   50.65    2.75
   4   4  -9   52.64    2.58
  -3  -4   9   15.61    0.95
   3  -4  -9   15.92    0.90
   3   4  -9   13.44    0.90
   3   4  -9   15.03    0.86
  -3   4   9   14.58    0.97
   3   4  -9   14.26    0.82
  -2  -4   9   30.10    1.48
   2  -4  -9   28.40    1.45
   2  -4  -9   30.12    1.48
   2  -4  -9   28.56    1.51
   2   4  -9   28.60    1.48
   2   4  -9   29.90    1.46
  -2   4   9   27.90    1.51
  -2   4   9   27.85    1.43
   1  -4  -9  136.45    6.14
  -1  -4   9  134.78    6.50
   1  -4  -9  135.65    6.52
   1  -4  -9  133.08    6.50
  -1   4   9  141.46    6.15
  -1   4   9  136.25    6.53
   1   4  -9  147.97    6.49
   0  -4  -9  101.86    4.64
   0  -4   9  102.26    4.66
   0  -4   9  105.92    4.66
   0   4  -9   95.78    4.66
   0   4   9   91.11    4.38
   0   4   9   94.54    4.66
  -1  -4  -9    3.46    0.26
   1  -4   9    3.46    0.33
  -1   4  -9    3.02    0.30
   1   4   9    3.43    0.28
   1   4   9    3.48    0.27
   2  -4   9   10.21    0.60
   2  -4   9    9.99    0.72
   2   4   9   10.44    0.62
   2   4   9   11.59    0.66
  -2   4  -9   11.60    0.70
  -2   4  -9   11.96    0.72
   3  -4   9   35.25    1.94
   3   4   9   35.56    1.90
  -3   4  -9   37.94    1.87
   3   4   9   37.34    1.81
  -3   4  -9   36.92    1.95
   4  -4   9    8.16    0.85
   4   4   9    8.53    0.73
  -4   4  -9    8.40    0.72
  -4   4  -9    8.03    0.76
  -5   4  -9    4.67    0.67
   5   4   9    2.66    0.53
  -4   5   9    2.20    0.44
   4   5  -9    2.03    0.35
   3   5  -9   19.90    1.09
  -3   5   9   20.40    1.17
   2  -5  -9   43.86    2.17
   2  -5  -9   45.89    2.20
  -2   5   9   42.04    2.20
  -2   5   9   45.23    2.14
  -1   5   9    3.05    0.38
   0   5   9   22.84    1.14
   0   5  -9   23.76    1.25
   1   5   9   56.84    2.58
  -1   5  -9   58.45    2.76
   2  -5   9   43.62    2.30
  -2   5  -9   49.66    2.32
  -3   5  -9    3.54    0.55
  -4   5  -9    6.48    0.73
   4   5   9    5.14    0.67
  -2   6   9    1.92    0.39
  -1   6   9   24.81    1.31
   1   6  -9   24.38    1.36
   0   6   9   32.19    1.57
   0   6  -9   32.18    1.70
  -1   6  -9    0.29    0.32
  -2   6  -9    9.36    0.87
  -6   0  10    7.68    0.61
   6   0 -10    6.69    0.82
   5   0 -10    4.46    0.55
  -5   0  10    4.75    0.40
   4   0 -10   32.00    1.58
  -4   0  10   32.50    1.53
  -4   0  10   32.72    1.76
   4   0 -10   31.30    1.76
   4   0 -10   30.71    1.70
  -3   0  10   86.60    4.29
   3   0 -10   91.38    3.99
  -3   0  10   85.47    3.94
   3   0 -10   88.74    4.27
  -2   0  10   28.17    1.44
  -2   0  10   28.09    1.30
   2   0 -10   27.56    1.42
   1   0 -10  402.52   19.45
  -1   0  10  439.25   19.41
   1   0 -10  399.49   18.25
   0   0  10  436.28   21.19
   0   0 -10  465.83   21.30
  -1   0 -10  452.95   20.82
   1   0  10  425.32   20.53
  -2   0 -10   33.81    1.53
   2   0  10   32.61    1.69
   2   0  10   33.21    1.65
   3   0  10   46.15    2.41
  -3   0 -10   47.96    2.42
   3   0  10   48.05    2.36
  -3   0 -10   47.91    2.19
  -4   0 -10  104.94    4.71
  -4   0 -10  104.52    5.15
   4   0  10  108.08    5.08
   4   0  10  103.23    4.69
   4   0  10  102.23    5.15
   5   0  10   17.12    1.17
   5   0  10   16.01    0.93
  -5   0 -10   17.19    0.95
  -5   0 -10   17.14    1.18
  -6   0 -10    3.35    0.63
   6   0  10    3.87    0.66
  -6   0 -10    3.59    0.54
   6  -1 -10   12.70    1.06
   6   1 -10   14.05    1.06
  -6   1  10   13.13    0.86
  -5  -1  10   23.48    1.21
   5  -1 -10   22.04    1.37
   5   1 -10   22.48    1.49
   5   1 -10   23.95    1.38
  -5   1  10   24.16    1.22
  -4  -1  10   12.09    0.67
   4  -1 -10   12.13    0.78
   4  -1 -10   12.12    0.84
   4   1 -10   11.97    0.72
   4   1 -10   11.27    0.85
  -4   1  10   11.57    0.67
  -4   1  10   11.07    0.85
   4   1 -10   11.91    0.78
  -3  -1  10   70.41    3.60
   3  -1 -10   70.18    3.58
   3  -1 -10   71.09    3.35
   3   1 -10   77.73    3.59
   3   1 -10   75.07    3.33
  -3   1  10   74.68    3.62
  -3   1  10   73.70    3.32
   2  -1 -10  135.55    6.31
  -2  -1  10  126.93    6.32
  -2   1  10  133.68    6.33
   2   1 -10  134.37    5.89
   2   1 -10  133.46    6.31
  -2   1  10  132.15    5.88
   1  -1 -10   58.77    2.99
  -1  -1  10   64.59    3.02
   1  -1 -10   61.56    2.80
  -1   1  10   64.20    3.02
  -1   1  10   62.96    2.78
   0  -1 -10   47.61    2.05
   0  -1 -10   47.26    2.22
   0  -1  10   42.54    2.24
   0   1 -10   46.21    2.22
   1  -1  10  480.95   21.52
  -1  -1 -10  473.68   21.77
  -1   1 -10  458.44   21.79
   1   1  10  427.13   21.62
   2  -1  10  167.27    7.21
  -2  -1 -10  152.57    7.24
  -2  -1 -10  151.11    6.69
   2  -1  10  152.29    7.24
   2   1  10  146.76    7.19
  -2   1 -10  148.84    7.24
  -2   1 -10  151.20    6.76
   2   1  10  147.55    7.23
  -3  -1 -10   34.07    1.77
  -3  -1 -10   36.43    1.55
   3  -1  10   34.29    1.72
   3  -1  10   34.75    1.78
   3   1  10   32.93    1.77
  -3   1 -10   32.51    1.61
   3   1  10   32.47    1.71
  -3   1 -10   31.66    1.76
   4  -1  10   34.98    1.91
  -4  -1 -10   35.47    1.71
   4  -1  10   34.88    1.99
  -4  -1 -10   36.36    1.99
   4   1  10   37.02    1.71
   4   1  10   38.72    1.92
   4   1  10   39.06    2.01
  -4   1 -10   35.99    1.99
  -4   1 -10   38.57    1.80
   5  -1  10   26.69    1.71
  -5  -1 -10   28.34    1.72
  -5  -1 -10   28.00    1.39
   5   1  10   28.30    1.40
   5   1  10   29.24    1.71
  -5   1 -10   29.33    1.71
  -5   1 -10   29.92    1.50
  -6  -1 -10    9.57    1.03
   6  -1  10    8.69    1.08
  -6   1 -10    9.86    1.03
  -6   1 -10   10.58    0.83
   6   1  10    9.15    1.05
   6  -2 -10    1.54    0.49
  -6   2  10    2.24    0.39
   6   2 -10    1.91    0.46
   5  -2 -10   12.39    0.91
  -5   2  10   12.56    0.77
   5   2 -10   11.55    0.87
   5   2 -10   10.77    1.11
   4  -2 -10   50.21    2.60
   4   2 -10   52.61    2.42
  -4   2  10   49.62    2.66
  -4   2  10   50.60    2.41
   4   2 -10   52.65    2.61
   4   2 -10   50.78    2.66
   3  -2 -10   56.46    2.58
   3  -2 -10   59.86    2.75
  -3  -2  10   54.31    2.75
   3  -2 -10   54.90    2.76
   3   2 -10   54.52    2.52
   3   2 -10   55.12    2.72
  -3   2  10   53.71    2.54
  -3   2  10   52.12    2.78
   3   2 -10   53.47    2.76
   2  -2 -10    5.03    0.38
   2  -2 -10    5.25    0.38
  -2  -2  10    5.63    0.41
   2   2 -10    6.08    0.36
  -2   2  10    5.05    0.34
  -2   2  10    5.13    0.41
   2   2 -10    5.67    0.38
   1  -2 -10   65.10    3.13
   1  -2 -10   68.99    3.34
  -1  -2  10   68.86    3.36
   1   2 -10   71.58    3.35
  -1   2  10   70.48    3.12
  -1   2  10   73.41    3.36
   0  -2 -10  206.14    8.94
   0  -2 -10  202.94    8.35
   0  -2  10  167.05    8.96
   0   2 -10  197.08    8.94
   0   2  10  171.32    8.96
   0   2  10  195.44    8.33
  -1  -2 -10   94.07    4.61
   1  -2  10   95.80    4.58
   1   2  10   96.16    4.58
  -1   2 -10  101.21    4.62
  -2  -2 -10   44.17    2.21
   2  -2  10   44.69    2.23
   2  -2  10   49.40    2.18
   2   2  10   42.72    2.21
  -2   2 -10   43.71    2.22
   2   2  10   41.93    2.15
  -2   2 -10   44.17    2.09
  -3  -2 -10  145.26    6.83
   3  -2  10  142.55    6.77
   3  -2  10  145.97    6.85
   3   2  10  138.19    6.76
  -3   2 -10  137.80    6.39
  -3   2 -10  140.05    6.84
   3   2  10  145.61    6.84
  -4  -2 -10   59.22    3.12
   4  -2  10   63.48    3.17
   4   2  10   60.22    3.16
  -4   2 -10   61.33    2.90
   4   2  10   63.16    3.06
  -4   2 -10   60.98    3.15
   5  -2  10    6.57    0.79
  -5  -2 -10    5.80    0.75
   5   2  10    5.42    0.69
  -5   2 -10    5.91    0.60
   5   2  10    5.21    0.72
  -5   2 -10    6.47    0.71
   6  -2  10    2.81    0.62
  -6   2 -10    3.47    0.54
   6   2  10    2.94    0.59
  -6   2 -10    3.49    0.63
   5  -3 -10   15.27    1.11
  -5   3  10   13.45    1.36
  -5   3  10   17.13    1.00
   5   3 -10   15.89    1.05
   4  -3 -10    0.52    0.25
   4   3 -10    0.45    0.32
   4   3 -10    0.76    0.24
  -4   3  10    0.42    0.37
   4   3 -10    0.88    0.26
  -4   3  10    0.90    0.24
   3  -3 -10   15.31    1.07
   3  -3 -10   18.26    1.04
  -3  -3  10   17.05    1.07
   3  -3 -10   17.15    1.02
  -3   3  10   19.40    0.99
  -3   3  10   18.81    1.10
   3   3 -10   19.65    0.96
   3   3 -10   20.91    1.04
   3   3 -10   19.03    1.08
  -2  -3  10   82.28    3.95
   2  -3 -10   81.53    3.94
   2  -3 -10   82.30    3.73
   2   3 -10   83.20    3.93
  -2   3  10   82.25    3.70
  -2   3  10   79.33    3.97
  -1  -3  10   11.46    0.64
   1  -3 -10   10.65    0.63
   1  -3 -10   11.18    0.61
  -1   3  10   11.86    0.65
  -1   3  10   11.90    0.60
   0  -3  10   17.34    0.99
   0  -3 -10   18.22    0.95
   0  -3 -10   18.77    0.90
   0   3  10   19.14    0.89
   0   3 -10   19.72    0.96
   0   3  10   21.00    0.99
   1  -3  10   92.97    4.30
  -1  -3 -10   92.04    4.27
   1  -3  10   96.64    4.27
   1   3  10   83.90    4.28
  -1   3 -10   87.65    4.06
  -1   3 -10   84.75    4.29
   2  -3  10  165.29    7.73
  -2  -3 -10  158.35    7.71
   2  -3  10  165.07    7.66
  -2   3 -10  159.32    7.73
   2   3  10  158.95    7.64
   2   3  10  165.56    7.71
  -2   3 -10  163.55    7.27
  -3  -3 -10   11.30    0.74
   3  -3  10   11.19    0.67
   3  -3  10   11.31    0.77
   3   3  10   10.11    0.63
  -3   3 -10   10.90    0.70
   3   3  10   10.26    0.72
  -3   3 -10   10.85    0.75
  -4  -3 -10    3.97    0.59
   4  -3  10    3.94    0.62
   4   3  10    6.04    0.59
  -4   3 -10    5.29    0.60
   4   3  10    5.95    0.51
  -4   3 -10    5.42    0.53
  -5  -3 -10   15.94    1.23
  -5   3 -10   17.16    1.22
  -5   3 -10   19.03    1.12
   5   3  10   17.18    1.22
   5   4 -10    8.05    0.76
  -5   4  10    7.36    0.75
   4  -4 -10   61.10    3.29
  -4   4  10   66.44    3.12
   4   4 -10   68.92    3.27
   3  -4 -10   38.50    1.96
  -3  -4  10   35.90    2.00
   3   4 -10   39.31    1.94
   3   4 -10   39.74    1.99
   3   4 -10   37.80    1.83
  -3   4  10   37.58    2.03
   2  -4 -10    6.71    0.53
   2  -4 -10    6.70    0.47
  -2  -4  10    6.69    0.50
   2  -4 -10    6.66    0.54
   2   4 -10    6.88    0.48
  -2   4  10    6.21    0.51
   2   4 -10    6.68    0.45
  -2   4  10    7.11    0.49
  -1  -4  10   91.48    4.20
   1  -4 -10   91.05    3.98
   1  -4 -10   87.12    4.22
  -1   4  10   84.08    3.97
   1   4 -10   89.90    4.18
  -1   4  10   85.70    4.22
   0  -4  10   86.74    4.01
   0  -4 -10   83.40    3.99
   0   4 -10   84.38    4.01
   0   4  10   80.92    3.76
   0   4  10   86.10    4.01
  -1  -4 -10   31.32    1.53
   1  -4  10   31.21    1.57
  -1   4 -10   30.42    1.56
  -1   4 -10   31.60    1.56
   1   4  10   32.00    1.54
   1   4  10   29.64    1.54
   2  -4  10   12.82    0.64
   2   4  10   10.81    0.68
   2   4  10   10.27    0.65
  -2   4 -10   11.33    0.73
   3  -4  10   51.37    2.69
   3   4  10   54.05    2.65
  -3   4 -10   51.65    2.68
   3   4  10   52.46    2.55
  -3   4 -10   53.25    2.57
  -4  -4 -10   31.47    1.84
   4  -4  10   30.69    1.89
  -4   4 -10   34.22    1.79
  -4   4 -10   34.04    1.88
   4   4  10   35.24    1.85
  -5   4 -10    0.96    0.43
   5   4  10    0.34    0.42
  -4   5  10    3.20    0.52
   4   5 -10    3.35    0.53
  -3   5  10   23.95    1.32
   2  -5 -10   42.28    2.14
   2  -5 -10   43.27    2.18
  -2   5  10   45.23    2.11
  -2   5  10   43.52    2.18
  -1   5  10   31.98    1.56
   0   5  10    4.69    0.38
  -1   5 -10   13.08    0.73
  -1   5 -10   13.51    0.85
   2  -5  10   26.78    1.61
  -2   5 -10   34.14    1.65
  -2   5 -10   33.35    1.68
  -3   5 -10    6.28    0.66
   3   5  10    5.67    0.56
   4   5  10    5.46    0.67
  -4   5 -10    5.61    0.76
  -2   6  10    0.57    0.35
  -1   6  10   11.70    0.82
   1   6 -10   13.48    0.88
   0   6  10   32.74    1.58
   0   6 -10   31.99    1.73
  -1   6 -10    8.18    0.75
  -2   6 -10    0.28    0.40
   6   0 -11    3.34    0.55
  -6   0  11    3.92    0.50
   5   0 -11    6.73    0.65
  -5   0  11    6.92    0.50
   4   0 -11   68.93    3.45
   4   0 -11   68.91    3.39
  -4   0  11   68.11    3.11
   4   0 -11   68.41    3.16
  -4   0  11   65.99    3.44
  -3   0  11  105.87    5.21
  -3   0  11  104.76    4.80
   3   0 -11  108.29    4.84
   3   0 -11  111.16    5.18
   2   0 -11   21.40    1.00
   2   0 -11   20.47    1.08
  -2   0  11   19.81    1.10
  -2   0  11   19.97    0.98
   1   0 -11   69.30    3.39
   1   0 -11   73.00    3.16
  -1   0  11   69.85    3.41
   0   0 -11  176.25    7.69
   0   0  11  149.69    7.71
  -1   0 -11   61.31    2.94
   1   0  11   60.79    2.91
  -2   0 -11   10.70    0.56
   3   0  11   66.19    3.16
  -3   0 -11   64.89    2.94
   3   0  11   61.65    3.21
  -3   0 -11   65.87    3.22
   4   0  11   33.37    1.71
  -4   0 -11   32.15    1.56
   4   0  11   32.32    1.79
  -4   0 -11   31.11    1.78
   5   0  11    4.18    0.65
  -5   0 -11    3.89    0.64
  -5   0 -11    4.49    0.46
   6   0  11    2.14    0.56
  -6   0 -11    2.83    0.58
  -6   0 -11    2.54    0.42
   6  -1 -11   18.79    1.32
   6   1 -11   19.31    1.30
  -6   1  11   19.45    1.11
   5  -1 -11   32.85    1.78
   5   1 -11   27.63    1.86
  -5   1  11   31.86    1.57
   5   1 -11   33.35    1.78
   4  -1 -11   30.92    1.75
   4  -1 -11   32.41    1.71
   4   1 -11   32.21    1.77
   4   1 -11   32.47    1.71
   4   1 -11   31.02    1.58
  -4   1  11   32.58    1.54
  -4   1  11   31.03    1.77
   3  -1 -11   23.16    1.23
   3  -1 -11   23.34    1.15
  -3  -1  11   22.92    1.26
   3   1 -11   22.53    1.12
  -3   1  11   21.32    1.10
   3   1 -11   22.16    1.21
  -3   1  11   22.57    1.26
  -2  -1  11  219.71   10.53
   2  -1 -11  224.30    9.85
   2  -1 -11  226.44   10.52
   2   1 -11  222.75   10.52
  -2   1  11  221.64    9.81
   2   1 -11  217.97    9.82
  -2   1  11  227.20   10.54
   1  -1 -11  357.79   15.20
   1  -1 -11  336.75   16.25
  -1  -1  11  355.13   16.27
  -1   1  11  321.71   15.19
  -1   1  11  382.16   16.28
   1   1 -11  324.61   16.24
   0  -1 -11   61.24    2.67
   0  -1  11   57.71    2.92
   0  -1 -11   63.94    2.89
   0   1  11   54.19    2.91
   0   1 -11   62.48    2.88
  -1  -1 -11  162.58    7.76
   1  -1  11  155.27    7.73
   1   1  11  168.17    7.74
  -1   1 -11  171.73    7.77
  -2  -1 -11  156.27    7.15
   2  -1  11  152.18    7.73
   2  -1  11  166.72    7.69
  -2  -1 -11  161.50    7.73
  -2   1 -11  166.49    7.23
   2   1  11  169.07    7.69
  -2   1 -11  160.71    7.74
   2   1  11  168.91    7.74
   3  -1  11   75.79    3.55
  -3  -1 -11   73.30    3.26
  -3  -1 -11   71.79    3.60
   3  -1  11   72.50    3.61
   3   1  11   74.76    3.54
  -3   1 -11   71.13    3.61
  -3   1 -11   73.21    3.33
   3   1  11   70.65    3.60
  -4  -1 -11    8.96    0.51
   4  -1  11    8.29    0.71
  -4  -1 -11    8.08    0.71
   4  -1  11    8.47    0.63
   4   1  11    9.09    0.65
   4   1  11    8.67    0.71
  -4   1 -11    9.81    0.73
  -4   1 -11    9.24    0.60
  -5  -1 -11   31.66    1.48
   5  -1  11   30.42    1.81
  -5   1 -11   31.19    1.58
   5   1  11   28.55    1.77
  -5   1 -11   30.29    1.80
   6  -1  11   21.71    1.63
  -6  -1 -11   22.04    1.60
  -6   1 -11   23.03    1.59
  -6   1 -11   23.13    1.35
   6   1  11   23.09    1.60
   6  -2 -11    6.88    0.91
  -6   2  11    6.41    0.65
   6   2 -11    6.22    0.80
  -5   2  11    2.37    0.34
   5   2 -11    1.64    0.34
   5   2 -11    2.05    0.56
   4  -2 -11   32.11    1.72
   4   2 -11   31.48    1.59
  -4   2  11   32.41    1.80
   4   2 -11   31.53    1.78
   3  -2 -11   67.02    3.06
   3  -2 -11   64.21    2.88
   3  -2 -11   66.52    3.09
  -3  -2  11   63.10    3.08
  -3   2  11   56.07    3.07
  -3   2  11   58.45    2.82
   3   2 -11   59.92    3.03
   3   2 -11   57.85    2.81
  -2  -2  11   15.85    0.88
   2  -2 -11   16.03    0.86
   2  -2 -11   16.04    0.83
  -2   2  11   15.28    0.88
  -2   2  11   15.10    0.79
   2   2 -11   15.39    0.85
  -1  -2  11   81.41    3.82
   1  -2 -11   77.54    3.56
   1  -2 -11   77.53    3.80
  -1   2  11   81.07    3.82
   1   2 -11   80.89    3.81
  -1   2  11   78.00    3.54
   0  -2  11  151.97    8.34
   0  -2 -11  190.81    7.75
   0   2  11  192.64    7.73
   0   2 -11  187.74    8.30
   0   2  11  157.56    8.33
  -1  -2 -11   98.38    4.54
   1  -2  11   97.54    4.52
   1   2  11   88.17    4.52
  -1   2 -11   97.03    4.55
   2  -2  11    9.21    0.52
  -2  -2 -11    8.69    0.57
   2  -2  11    8.34    0.58
  -2   2 -11    9.09    0.54
   2   2  11    9.00    0.58
  -2   2 -11    9.05    0.58
   2   2  11    9.06    0.51
   3  -2  11   62.96    3.16
   3  -2  11   65.03    3.09
  -3  -2 -11   61.61    3.14
  -3   2 -11   64.63    3.17
  -3   2 -11   60.48    2.94
   3   2  11   63.12    3.15
   3   2  11   63.81    3.08
  -4  -2 -11   20.79    1.21
   4  -2  11   20.14    1.24
   4   2  11   19.94    1.13
   4   2  11   18.09    1.19
  -4   2 -11   19.01    1.08
  -4   2 -11   18.05    1.19
  -5  -2 -11    3.85    0.57
   5  -2  11    3.29    0.54
   5   2  11    2.79    0.48
  -5   2 -11    3.89    0.52
  -5   2 -11    3.10    0.50
   5   2  11    2.41    0.45
  -6  -2 -11    3.96    0.73
   6  -2  11    4.19    0.75
  -6   2 -11    5.16    0.75
   6   2  11    5.80    0.93
  -6   2 -11    3.81    0.66
   5  -3 -11   18.93    1.31
  -5   3  11   21.36    1.18
   5   3 -11   21.56    1.28
   4  -3 -11    5.90    0.59
  -4   3  11    7.15    0.79
   4   3 -11    6.67    0.57
   4   3 -11    6.66    0.57
  -4   3  11    6.91    0.54
   4   3 -11    5.84    0.69
   3  -3 -11   25.56    1.39
  -3  -3  11   26.19    1.38
   3  -3 -11   26.81    1.35
   3  -3 -11   26.70    1.33
  -3   3  11   23.63    1.25
   3   3 -11   23.32    1.23
  -3   3  11   22.48    1.38
   3   3 -11   25.22    1.32
   3   3 -11   22.86    1.36
  -2  -3  11   71.31    3.49
   2  -3 -11   73.90    3.48
   2  -3 -11   70.39    3.29
  -2   3  11   70.20    3.26
   2   3 -11   73.14    3.47
  -2   3  11   71.85    3.51
  -1  -3  11  152.66    6.96
   1  -3 -11  142.34    6.52
   1  -3 -11  142.18    6.96
  -1   3  11  147.89    6.97
   1   3 -11  154.82    6.95
  -1   3  11  141.98    6.51
   0  -3  11    3.15    0.33
   0  -3 -11    3.85    0.27
   0  -3 -11    4.06    0.26
   0   3  11    4.40    0.25
   0   3 -11    4.63    0.29
   0   3  11    4.49    0.33
   1  -3  11   87.10    4.37
  -1  -3 -11   91.05    4.38
   1   3  11   91.82    4.40
  -1   3 -11   94.99    4.17
  -1   3 -11   94.08    4.40
   2  -3  11  106.59    5.21
  -2  -3 -11  105.39    5.26
   2  -3  11  103.97    5.28
   2   3  11  115.36    5.27
  -2   3 -11  109.68    5.29
   2   3  11  110.24    5.20
  -2   3 -11  117.43    5.00
  -3  -3 -11   32.93    1.83
   3  -3  11   31.93    1.85
   3   3  11   36.87    1.75
  -3   3 -11   36.71    1.77
  -3   3 -11   35.78    1.87
   3   3  11   35.67    1.85
   4  -3  11   12.58    0.94
  -4  -3 -11   12.24    0.90
   4   3  11   12.06    0.88
  -4   3 -11   11.93    0.83
   4   3  11   11.66    0.79
  -4   3 -11   12.32    0.91
  -5  -3 -11    7.76    0.88
  -5   3 -11    8.30    0.76
   5   3  11    7.96    0.84
  -5   3 -11    7.90    0.83
   5   4 -11    0.37    0.35
  -5   4  11    0.30    0.35
   4  -4 -11   17.27    1.09
  -4   4  11   16.82    1.03
   4   4 -11   16.35    1.02
   3  -4 -11   68.15    3.28
   3   4 -11   64.56    3.30
  -3   4  11   67.59    3.35
   3   4 -11   68.06    3.26
   3   4 -11   63.96    3.07
   2  -4 -11    8.79    0.62
   2  -4 -11    8.43    0.62
  -2  -4  11    9.77    0.62
  -2   4  11    8.58    0.57
  -2   4  11    9.14    0.64
   2   4 -11    9.48    0.57
   2   4 -11    9.03    0.59
   1  -4 -11    1.39    0.23
  -1  -4  11    1.85    0.28
   1   4 -11    1.92    0.19
  -1   4  11    2.30    0.29
  -1   4  11    1.89    0.26
   0  -4 -11  107.67    4.99
   0  -4  11  110.20    5.02
   0   4  11  101.56    4.68
   0   4 -11  107.89    5.01
   0   4  11  100.31    5.00
  -1  -4 -11   44.34    2.31
   1  -4  11   46.35    2.36
   1  -4  11   46.48    2.34
   1   4  11   50.67    2.33
  -1   4 -11   50.80    2.30
   1   4  11   43.58    2.33
  -1   4 -11   51.66    2.36
   2  -4  11    5.62    0.40
   2  -4  11    5.74    0.51
  -2  -4 -11    5.14    0.44
  -2   4 -11    6.44    0.53
   2   4  11    5.96    0.46
  -2   4 -11    6.03    0.49
   2   4  11    5.20    0.43
  -3  -4 -11   35.14    1.82
   3  -4  11   34.69    1.88
  -3   4 -11   33.51    1.85
   3   4  11   34.29    1.72
  -3   4 -11   34.69    1.79
   4  -4  11   48.70    2.64
   4   4  11   49.31    2.57
  -4   4 -11   49.62    2.61
  -4   4 -11   48.44    2.47
   4   5 -11    8.76    0.72
  -4   5  11    8.30    0.82
  -3   5  11    3.40    0.44
   3   5 -11    3.66    0.41
   2  -5 -11   43.11    2.19
   2  -5 -11   39.56    2.16
  -2   5  11   46.99    2.11
   2   5 -11   42.85    2.09
  -2   5  11   45.03    2.20
  -1   5  11   28.39    1.40
   0   5  11    6.95    0.45
   0   5 -11    7.06    0.57
   1  -5  11   29.16    1.47
   1  -5  11   27.94    1.48
  -1   5 -11   30.44    1.49
  -1   5 -11   29.63    1.55
  -2   5 -11   41.04    2.15
   2   5  11   42.17    2.07
  -2   5 -11   43.11    2.14
   3   5  11    4.37    0.53
  -3   5 -11    4.68    0.59
  -3   5 -11    4.84    0.63
  -2   6  11    3.93    0.60
   1   6 -11    7.85    0.72
  -1   6  11    8.18    0.66
   0   6  11   42.12    2.01
   0   6 -11   43.66    2.19
  -1   6 -11   22.28    1.34
  -2   6 -11    0.09    0.38
   6   0 -12    7.14    0.82
  -6   0  12    6.42    0.61
  -5   0  12    3.45    0.38
   5   0 -12    2.94    0.49
   4   0 -12  106.20    5.30
   4   0 -12  107.47    4.91
  -4   0  12  108.89    4.86
   4   0 -12  109.97    5.26
  -4   0  12  107.69    5.31
   3   0 -12  243.54   10.85
   3   0 -12  242.06   11.60
  -3   0  12  240.51   10.81
  -3   0  12  254.53   11.64
  -2   0  12  209.54    9.89
  -2   0  12  224.23   10.62
   2   0 -12  227.07    9.91
   2   0 -12  237.56   10.61
  -1   0  12   12.48    0.67
   1   0 -12   10.65    0.57
   0   0  12  239.15   11.59
   0   0 -12  252.77   11.60
   1   0  12   47.95    2.36
  -1   0 -12   50.11    2.39
  -2   0 -12    9.75    0.61
  -2   0 -12    9.53    0.52
   2   0  12    9.72    0.55
   3   0  12   65.57    3.11
   3   0  12   61.87    3.17
  -3   0 -12   62.39    3.17
  -3   0 -12   63.90    2.89
   4   0  12   57.30    2.93
   4   0  12   58.26    3.02
  -4   0 -12   60.24    2.72
  -4   0 -12   58.94    3.03
  -5   0 -12   47.79    2.59
  -5   0 -12   49.10    2.29
   5   0  12   45.51    2.59
   6   0  12    0.15    0.47
  -6   0 -12    0.30    0.46
  -6   0 -12   -0.08    0.33
   6  -1 -12    4.90    0.77
  -6   1  12    4.19    0.53
   6   1 -12    3.93    0.57
   5  -1 -12   35.13    1.99
   5   1 -12   35.92    1.98
  -5   1  12   37.54    1.78
   4  -1 -12   52.98    2.77
   4  -1 -12   57.37    2.73
   4   1 -12   53.11    2.77
  -4   1  12   54.64    2.49
   4   1 -12   49.86    2.51
   4   1 -12   52.59    2.71
  -4   1  12   53.43    2.77
   3  -1 -12    0.69    0.18
  -3  -1  12    0.50    0.21
   3  -1 -12    0.31    0.14
   3   1 -12    0.87    0.18
  -3   1  12    0.28    0.19
  -3   1  12    0.36    0.11
   3   1 -12    0.33    0.14
   2  -1 -12   66.76    3.02
  -2  -1  12   65.48    3.03
   2  -1 -12   66.96    2.82
  -2   1  12   57.43    2.77
  -2   1  12   57.41    3.02
   2   1 -12   58.59    2.79
   2   1 -12   59.09    3.00
   1  -1 -12  183.46    7.67
  -1  -1  12  180.21    8.23
   1  -1 -12  170.51    8.20
  -1   1  12  162.58    7.64
   1   1 -12  165.91    8.20
  -1   1  12  178.47    8.23
   0  -1  12   36.86    1.91
   0  -1 -12   40.43    1.73
   0  -1 -12   42.65    1.88
   0   1 -12   36.44    1.87
   0   1  12   34.98    1.91
  -1  -1 -12   39.78    1.92
   1  -1  12   34.46    1.89
  -1   1 -12   41.21    1.93
   1   1  12   40.10    1.89
  -2  -1 -12  142.06    6.72
  -2  -1 -12  133.70    6.20
   2  -1  12  143.80    6.67
   2   1  12  137.62    6.66
  -2   1 -12  147.60    6.28
  -2   1 -12  140.94    6.73
   3  -1  12   74.08    3.85
   3  -1  12   76.05    3.92
  -3  -1 -12   78.13    3.55
  -3  -1 -12   75.44    3.91
  -3   1 -12   82.11    3.94
  -3   1 -12   83.98    3.64
   3   1  12   81.00    3.93
   3   1  12   86.20    3.86
  -4  -1 -12    3.15    0.51
   4  -1  12    3.04    0.42
   4  -1  12    3.06    0.51
  -4  -1 -12    3.61    0.30
  -4   1 -12    3.16    0.37
   4   1  12    2.91    0.43
  -4   1 -12    3.12    0.49
   4   1  12    3.42    0.47
  -5  -1 -12   10.73    0.91
  -5  -1 -12   10.36    0.62
   5  -1  12   11.01    0.94
   5   1  12    9.44    0.87
  -5   1 -12    9.78    0.73
  -5   1 -12    9.40    0.88
  -6  -1 -12   13.18    0.90
   6  -1  12   15.68    1.37
  -6  -1 -12   15.89    1.29
   6   1  12   16.59    1.32
  -6   1 -12   15.42    1.29
  -6   1 -12   16.41    1.08
   6  -2 -12    9.25    0.98
  -6   2  12    9.84    0.75
   6   2 -12    9.08    0.91
  -5   2  12    0.72    0.25
   5   2 -12    0.52    0.28
   5   2 -12   -0.35    0.46
   4  -2 -12   48.48    2.46
   4   2 -12   47.13    2.45
   4   2 -12   48.67    2.52
  -4   2  12   49.07    2.31
  -4   2  12   46.24    2.53
   4   2 -12   46.39    2.27
  -3  -2  12   79.85    4.17
   3  -2 -12   80.51    3.90
   3  -2 -12   87.07    4.16
   3   2 -12   91.78    4.16
  -3   2  12   82.29    4.19
   3   2 -12   88.05    3.87
  -3   2  12   87.56    3.87
   2  -2 -12   51.54    2.38
  -2  -2  12   52.47    2.55
   2  -2 -12   52.42    2.53
  -2   2  12   51.25    2.35
   2   2 -12   49.62    2.36
  -2   2  12   48.90    2.55
   2   2 -12   53.29    2.53
   1  -2 -12   29.75    1.60
  -1  -2  12   33.62    1.63
   1  -2 -12   30.25    1.50
  -1   2  12   34.59    1.63
  -1   2  12   31.82    1.47
   1   2 -12   32.49    1.61
   0  -2 -12  224.94    9.68
   0  -2 -12  235.75   10.37
   0  -2  12  201.19   10.40
   0   2  12  228.78    9.66
   0   2 -12  211.46   10.36
  -1  -2 -12  224.18   10.18
   1  -2  12  219.43   10.15
   1   2  12  203.73   10.16
  -1   2 -12  216.31   10.19
  -2  -2 -12   18.11    0.99
   2  -2  12   19.27    1.02
   2   2  12   16.99    0.92
  -2   2 -12   17.62    1.00
  -2   2 -12   17.66    0.94
   2   2  12   17.45    0.99
   3  -2  12   53.39    2.65
  -3  -2 -12   51.78    2.63
  -3   2 -12   50.05    2.64
  -3   2 -12   52.98    2.46
   3   2  12   50.84    2.63
  -4  -2 -12   56.03    3.06
   4  -2  12   59.10    3.09
   4   2  12   59.92    3.08
   4   2  12   62.71    2.98
  -4   2 -12   60.69    3.09
  -5  -2 -12   14.59    1.14
   5  -2  12   15.40    1.15
   5   2  12   15.12    1.09
  -5   2 -12   14.73    1.11
   5   2  12   13.88    1.09
  -5   2 -12   14.90    0.97
   5  -3 -12   18.69    1.27
   5   3 -12   18.89    1.22
  -5   3  12   19.93    1.12
   4  -3 -12   25.37    1.39
   4   3 -12   22.74    1.44
   4   3 -12   23.90    1.35
  -4   3  12   24.37    1.26
  -4   3  12   22.79    1.49
   3  -3 -12    9.84    0.65
   3  -3 -12   10.32    0.70
  -3  -3  12    9.54    0.72
   3   3 -12    8.92    0.69
  -3   3  12    9.09    0.59
   3   3 -12    9.12    0.60
   3   3 -12    9.76    0.63
  -2  -3  12  114.83    5.70
   2  -3 -12  114.16    5.69
   2  -3 -12  115.30    5.36
   2   3 -12  125.07    5.69
  -2   3  12  121.15    5.73
  -2   3  12  124.61    5.33
   1  -3 -12  132.53    5.88
  -1  -3  12  136.60    6.28
  -1   3  12  129.24    5.85
   1   3 -12  137.02    6.26
  -1   3  12  125.04    6.28
   0  -3 -12   31.42    1.58
   0  -3 -12   32.26    1.48
   0   3  12   33.08    1.63
   0   3 -12   33.30    1.60
   0   3  12   31.50    1.46
   1  -3  12   19.12    0.98
  -1  -3 -12   20.11    0.98
  -1   3 -12   17.77    0.97
  -1   3 -12   17.56    0.98
   1   3  12   17.36    0.99
   2  -3  12   73.23    3.13
  -2  -3 -12   70.96    3.19
   2  -3  12   68.14    3.21
  -2   3 -12   59.53    3.19
  -2   3 -12   61.08    3.02
   2   3  12   58.51    3.10
   2   3  12   62.38    3.18
   3  -3  12   21.50    1.29
  -3  -3 -12   22.25    1.27
  -3   3 -12   22.50    1.28
   3   3  12   22.70    1.16
   3   3  12   21.75    1.26
  -4  -3 -12    2.00    0.38
   4  -3  12    2.20    0.44
   4   3  12    1.88    0.30
  -4   3 -12    2.73    0.40
  -4   3 -12    2.66    0.43
   4   3  12    2.11    0.39
  -5  -3 -12   20.50    1.39
   5  -3  12   18.85    1.45
  -5   3 -12   19.73    1.37
   5   3  12   20.10    1.36
  -5   3 -12   19.88    1.26
  -5   4  12    3.60    0.50
   5   4 -12    2.74    0.46
   4  -4 -12   14.30    0.96
   4   4 -12   13.60    0.88
  -4   4  12   11.68    0.84
   3  -4 -12   56.07    2.68
  -3   4  12   51.17    2.53
   3   4 -12   52.71    2.69
  -3   4  12   52.39    2.73
   2  -4 -12   36.36    1.82
   2  -4 -12   36.37    1.76
   2  -4 -12   35.53    1.84
  -2  -4  12   35.03    1.82
  -2   4  12   35.00    1.85
   2   4 -12   34.79    1.78
  -2   4  12   36.49    1.72
   1  -4 -12   30.20    1.50
  -1  -4  12   31.46    1.57
   1  -4 -12   31.41    1.54
   1   4 -12   30.22    1.53
  -1   4  12   31.34    1.58
  -1   4  12   31.84    1.48
   0  -4  12   77.93    3.72
   0   4  12   76.46    3.71
   0   4 -12   78.53    3.71
   0   4  12   76.63    3.45
   1  -4  12   39.74    2.11
   1  -4  12   40.34    2.10
   1   4  12   45.94    2.08
  -1   4 -12   45.74    2.07
  -1   4 -12   45.30    2.11
   1   4  12   35.80    2.08
   2  -4  12   22.89    1.25
  -2  -4 -12   22.16    1.20
   2  -4  12   22.58    1.16
   2   4  12   20.31    1.18
   2   4  12   23.08    1.21
  -2   4 -12   22.53    1.24
  -2   4 -12   23.03    1.23
   3  -4  12   12.47    0.89
  -3  -4 -12   12.65    0.81
  -3   4 -12   11.03    0.81
   3   4  12   11.08    0.68
   3   4  12   11.56    0.80
  -3   4 -12   11.25    0.83
   4  -4  12   19.95    1.35
  -4   4 -12   19.83    1.28
  -4   4 -12   20.58    1.23
   4   4  12   18.37    1.23
   4   5 -12   11.01    0.84
  -4   5  12   11.41    0.89
  -3   5  12    0.87    0.30
   3   5 -12    1.17    0.24
  -2  -5  12   39.81    1.92
   2   5 -12   36.00    1.87
  -2   5  12   39.27    1.99
  -2   5  12   39.02    1.88
   1  -5 -12   56.84    2.71
   1  -5 -12   55.58    2.68
  -1   5  12   55.96    2.59
   0   5  12    0.27    0.15
   0   5 -12    0.12    0.21
   1  -5  12    1.40    0.28
   1  -5  12    1.88    0.26
  -1   5 -12    1.83    0.34
  -1   5 -12    2.06    0.32
  -2   5 -12   31.39    1.72
  -2   5 -12   34.18    1.74
   2   5  12   31.64    1.63
  -3   5 -12   15.86    1.10
   3   5  12   16.50    1.02
  -3   5 -12   17.50    1.09
  -2   6  12    5.79    0.66
  -1   6  12    1.81    0.35
   1   6 -12    2.25    0.42
   0   6 -12   18.11    1.15
  -1   6 -12   32.72    1.80
  -2   6 -12    1.05    0.41
  -6   0  13   17.02    1.03
   6   0 -13   18.08    1.24
  -5   0  13   10.72    0.68
   5   0 -13   10.14    0.80
   4   0 -13    5.12    0.58
   4   0 -13    5.28    0.50
  -4   0  13    4.97    0.62
  -4   0  13    5.41    0.40
   4   0 -13    5.17    0.47
   3   0 -13   53.37    2.53
   3   0 -13   50.45    2.35
  -3   0  13   49.17    2.31
  -3   0  13   48.32    2.55
   2   0 -13  174.69    8.34
  -2   0  13  175.42    8.36
   2   0 -13  177.73    7.79
  -1   0  13   25.74    1.28
   1   0 -13   22.99    1.14
   0   0 -13  171.98    7.71
   0   0  13  154.68    7.75
  -1   0 -13  295.42   13.71
   1   0  13  287.40   13.67
   2   0  13   88.35    4.28
  -2   0 -13   91.59    4.34
  -2   0 -13   88.95    4.01
  -3   0 -13    4.52    0.45
   3   0  13    5.43    0.39
   3   0  13    3.85    0.44
  -3   0 -13    4.22    0.33
   4   0  13   13.51    0.96
   4   0  13   14.90    0.89
  -4   0 -13   12.71    0.95
  -4   0 -13   14.18    0.78
   5   0  13   18.63    1.29
  -5   0 -13   19.74    1.06
  -5   0 -13   17.76    1.28
  -6   0 -13   -0.59    0.46
  -6   0 -13   -0.11    0.36
   6   0  13    0.12    0.48
   6  -1 -13    1.58    0.45
  -6   1  13    1.51    0.32
   6   1 -13    1.84    0.46
   5  -1 -13   22.53    1.43
   5   1 -13   24.61    1.43
  -5   1  13   25.40    1.26
   4  -1 -13   22.57    1.39
   4  -1 -13   24.61    1.34
   4   1 -13   24.01    1.33
   4   1 -13   23.20    1.40
  -4   1  13   24.17    1.19
  -4   1  13   22.85    1.42
   4   1 -13   22.90    1.22
   3  -1 -13    4.65    0.39
  -3  -1  13    4.85    0.48
   3  -1 -13    5.18    0.42
   3   1 -13    4.12    0.36
  -3   1  13    4.34    0.47
   3   1 -13    4.20    0.38
  -3   1  13    4.34    0.33
   2  -1 -13  200.73    8.79
   2  -1 -13  198.61    9.39
  -2  -1  13  197.65    9.41
  -2   1  13  198.49    9.41
   2   1 -13  201.11    9.39
   2   1 -13  197.20    8.77
  -2   1  13  195.14    8.75
   1  -1 -13  270.07   11.11
   1  -1 -13  254.84   11.88
  -1  -1  13  264.45   11.93
   1   1 -13  232.94   11.87
  -1   1  13  235.81   11.08
  -1   1  13  255.14   11.91
   0  -1 -13  168.16    7.50
   0  -1  13  159.54    7.54
   0  -1 -13  150.07    6.99
   0   1 -13  167.48    7.50
   0   1  13  149.01    7.54
   1  -1  13    1.36    0.16
  -1  -1 -13    1.32    0.18
  -1   1 -13    1.68    0.19
   1   1  13    1.57    0.16
  -2  -1 -13  192.07    9.24
   2  -1  13  194.68    9.18
  -2  -1 -13  193.80    8.56
   2   1  13  204.28    9.18
  -2   1 -13  185.46    9.24
  -2   1 -13  198.23    8.63
   3  -1  13  121.40    6.07
  -3  -1 -13  123.39    6.06
  -3  -1 -13  123.53    5.56
   3  -1  13  117.79    5.98
   3   1  13  134.87    6.00
  -3   1 -13  127.12    6.08
  -3   1 -13  131.69    5.65
   3   1  13  124.00    6.07
   4  -1  13   27.99    1.65
  -4  -1 -13   29.45    1.38
  -4  -1 -13   28.35    1.65
   4   1  13   29.17    1.56
  -4   1 -13   28.33    1.69
  -4   1 -13   30.01    1.47
  -5  -1 -13    4.73    0.71
   5  -1  13    4.41    0.74
  -5  -1 -13    4.98    0.43
  -5   1 -13    5.79    0.71
  -5   1 -13    5.78    0.57
   5   1  13    4.21    0.69
   6  -1  13    9.25    1.14
  -6  -1 -13    9.25    1.09
   6   1  13    9.39    1.10
  -6   1 -13    8.93    1.09
  -6   1 -13    9.92    0.89
   6  -2 -13   10.66    1.07
   6   2 -13   10.42    1.00
  -6   2  13   12.93    0.86
   5  -2 -13    3.04    0.45
  -5   2  13    3.68    0.45
   5   2 -13    3.16    0.52
   5   2 -13    2.55    0.58
   4  -2 -13   24.82    1.39
   4   2 -13   24.18    1.38
   4   2 -13   23.26    1.28
  -4   2  13   23.97    1.49
   4   2 -13   25.83    1.48
  -4   2  13   25.07    1.25
  -3  -2  13   96.48    4.95
   3  -2 -13  102.25    4.64
   3  -2 -13  104.23    4.94
   3   2 -13  107.31    4.93
  -3   2  13  102.57    4.98
   3   2 -13  101.28    4.59
  -3   2  13   99.08    4.58
   2  -2 -13   45.59    2.22
  -2  -2  13   45.62    2.24
   2  -2 -13   45.78    2.10
  -2   2  13   42.79    2.24
   2   2 -13   44.12    2.21
  -2   2  13   44.76    2.05
   2   2 -13   43.20    2.07
   1  -2 -13    9.30    0.52
   1  -2 -13    8.74    0.56
  -1  -2  13   10.25    0.60
  -1   2  13    9.41    0.49
   1   2 -13    9.43    0.56
  -1   2  13   10.05    0.60
   0  -2 -13  106.83    4.30
   0  -2  13   93.28    4.66
   0   2 -13   91.02    4.61
   1  -2  13  169.63    8.28
  -1  -2 -13  182.66    8.31
  -1   2 -13  179.88    8.32
   1   2  13  170.06    8.29
  -2  -2 -13   76.43    3.71
   2  -2  13   74.61    3.72
   2  -2  13   78.90    3.64
   2   2  13   73.09    3.63
  -2   2 -13   74.99    3.48
  -2   2 -13   78.09    3.72
  -3  -2 -13    7.78    0.65
   3  -2  13    8.04    0.67
   3   2  13   10.00    0.68
  -3   2 -13    9.61    0.68
  -3   2 -13   10.26    0.62
   3   2  13    9.26    0.57
  -4  -2 -13   43.38    2.34
   4  -2  13   42.13    2.35
  -4   2 -13   43.79    2.35
   4   2  13   46.54    2.24
   4   2  13   42.39    2.33
  -5  -2 -13   22.46    1.52
   5  -2  13   21.92    1.55
  -5   2 -13   24.10    1.36
   5   2  13   25.87    1.54
  -5   2 -13   23.99    1.52
   5   2  13   24.03    1.51
  -5   3  13   31.41    1.66
   5   3 -13   32.73    1.81
   4  -3 -13   24.68    1.45
  -4   3  13   25.72    1.58
  -4   3  13   26.19    1.32
   4   3 -13   25.75    1.42
   4   3 -13   23.95    1.52
  -3  -3  13    2.28    0.35
   3  -3 -13    2.17    0.35
   3  -3 -13    2.15    0.36
  -3   3  13    1.69    0.34
   3   3 -13    2.25    0.29
   3   3 -13    1.87    0.32
  -3   3  13    2.09    0.30
   2  -3 -13   83.32    3.94
  -2  -3  13   84.83    3.97
   2  -3 -13   85.68    3.73
   2   3 -13   79.43    3.93
  -2   3  13   77.34    3.97
  -2   3  13   78.05    3.67
   1  -3 -13  105.48    5.46
  -1  -3  13  119.42    5.49
  -1   3  13  112.83    5.10
  -1   3  13  116.15    5.49
   1   3 -13  120.44    5.46
   0  -3 -13   76.69    3.87
   0  -3 -13   79.26    3.62
   0   3  13   81.25    3.93
   0   3  13   86.11    3.60
   0   3 -13   83.29    3.89
   1  -3  13    2.14    0.27
  -1   3 -13    2.74    0.27
   1   3  13    2.25    0.30
  -1   3 -13    2.55    0.29
  -2  -3 -13  150.24    6.91
   2  -3  13  142.72    6.93
   2  -3  13  150.95    6.85
  -2   3 -13  142.68    6.52
   2   3  13  142.33    6.91
   2   3  13  136.55    6.84
  -2   3 -13  147.26    6.93
  -3  -3 -13   66.35    3.41
   3  -3  13   63.96    3.43
  -3   3 -13   71.95    3.29
   3   3  13   70.73    3.42
   3   3  13   69.15    3.31
  -4  -3 -13   13.15    0.95
   4  -3  13   14.11    1.03
   4   3  13   11.85    0.92
  -4   3 -13   12.14    0.94
   4   3  13   11.97    0.81
  -4   3 -13   12.93    0.87
  -5  -3 -13    8.09    0.97
   5  -3  13    7.81    1.01
  -5   3 -13    8.86    0.92
   5   3  13    8.95    0.89
  -5   3 -13    8.89    0.83
   4  -4 -13    2.97    0.43
  -4   4  13    2.62    0.40
   4   4 -13    3.67    0.48
   3  -4 -13   29.29    1.56
   3   4 -13   29.48    1.55
  -3   4  13   27.32    1.62
  -3   4  13   29.39    1.46
   3   4 -13   28.82    1.59
  -2  -4  13   22.57    1.24
   2  -4 -13   22.63    1.24
   2  -4 -13   22.38    1.19
   2  -4 -13   23.38    1.21
  -2   4  13   21.73    1.25
   2   4 -13   21.49    1.17
  -2   4  13   21.93    1.13
   1  -4 -13   21.15    1.04
   1  -4 -13   21.59    1.05
  -1  -4  13   20.49    1.10
  -1   4  13   20.01    1.10
   1   4 -13   19.04    1.04
  -1   4  13   20.16    1.00
   0  -4  13   45.78    2.13
   0   4  13   41.13    2.10
   0   4 -13   42.23    2.09
   0   4  13   41.15    1.92
   1  -4  13  119.97    5.89
   1  -4  13  125.66    5.88
  -1   4 -13  125.24    5.60
  -1   4 -13  121.44    5.88
   2  -4  13   19.25    1.12
  -2  -4 -13   19.72    1.07
   2   4  13   18.64    1.07
  -2   4 -13   19.17    1.10
   2   4  13   17.45    1.05
  -2   4 -13   20.74    1.11
   3  -4  13    0.67    0.33
  -3  -4 -13    0.85    0.30
  -3   4 -13    0.44    0.27
   3   4  13    0.49    0.25
  -3   4 -13    0.50    0.26
   3   4  13    0.48    0.19
   4  -4  13   20.67    1.42
  -4   4 -13   21.37    1.36
   4   4  13   21.24    1.32
  -4   4 -13   21.19    1.30
  -3   5  13    0.17    0.29
   3   5 -13    0.28    0.19
  -2  -5  13    4.07    0.51
  -2   5  13    4.03    0.53
   2   5 -13    3.19    0.39
  -2   5  13    2.88    0.36
   2   5 -13    2.64    0.28
   1  -5 -13   39.50    2.03
   1  -5 -13   43.22    2.08
   1   5 -13   43.40    2.05
  -1   5  13   40.91    1.98
  -1   5  13   43.42    2.10
   0  -5  13   31.47    1.52
   0   5  13   30.29    1.42
   0   5 -13   30.23    1.52
   0   5 -13   30.13    1.59
   1  -5  13    3.69    0.51
   1  -5  13    4.95    0.48
  -1   5 -13    4.98    0.54
   1   5  13    5.11    0.38
  -1   5 -13    4.75    0.44
   1   5  13    5.09    0.38
   2   5  13   20.30    1.10
  -2   5 -13   20.46    1.17
  -2   5 -13   20.33    1.22
  -3   5 -13   35.72    1.95
  -3   5 -13   35.73    1.96
   3   5  13   35.85    1.89
  -2   6  13    8.65    0.76
   1   6 -13    3.30    0.48
  -1   6  13    3.14    0.37
   0   6 -13    9.37    0.81
  -1   6 -13   17.74    1.18
   6   0 -14   10.13    0.95
  -6   0  14   10.01    0.75
   5   0 -14   26.79    1.58
  -5   0  14   28.57    1.42
   4   0 -14    2.41    0.40
   4   0 -14    2.37    0.34
  -4   0  14    2.07    0.28
  -4   0  14    2.24    0.41
  -3   0  14   90.17    4.30
   3   0 -14  100.04    4.66
   3   0 -14   97.40    4.35
  -3   0  14   95.94    4.69
   2   0 -14   79.20    3.68
  -2   0  14   81.78    3.97
   2   0 -14   83.65    3.95
   1   0 -14   93.97    4.27
  -1   0  14   94.30    4.63
   1   0 -14   99.51    4.60
   0   0 -14  196.15    8.94
   0   0  14  183.08    8.98
  -1   0 -14  196.38    9.22
   1   0  14  193.76    9.19
  -2   0 -14   49.46    2.49
   2   0  14   48.73    2.43
  -2   0 -14   51.66    2.29
   3   0  14    0.01    0.14
   3   0  14    0.17    0.17
  -3   0 -14    0.15    0.18
  -3   0 -14    0.02    0.10
  -4   0 -14   85.53    4.46
   4   0  14   91.25    4.48
  -4   0 -14   90.43    4.07
   4   0  14   90.86    4.36
  -5   0 -14   28.98    1.81
  -5   0 -14   30.52    1.54
   5   0  14   30.28    1.83
   6   0  14    3.51    0.67
  -6   0 -14    4.50    0.56
  -6   0 -14    3.98    0.72
   6  -1 -14   -0.15    0.36
   6   1 -14   -0.13    0.36
  -6   1  14    0.95    0.29
   5  -1 -14   26.40    1.56
   5   1 -14   26.84    1.56
  -5   1  14   28.16    1.39
   4  -1 -14   47.74    2.47
   4  -1 -14   50.77    2.42
   4   1 -14   44.55    2.41
   4   1 -14   45.75    2.24
  -4   1  14   44.90    2.20
   4   1 -14   46.73    2.47
  -4   1  14   44.86    2.47
   3  -1 -14   34.23    1.68
   3  -1 -14   36.93    1.80
  -3  -1  14   33.70    1.83
  -3   1  14   34.05    1.63
   3   1 -14   34.75    1.79
  -3   1  14   33.53    1.83
   3   1 -14   33.81    1.66
   2  -1 -14   14.57    0.88
  -2  -1  14   14.26    0.91
   2  -1 -14   14.82    0.83
  -2   1  14   17.67    0.80
   2   1 -14   17.11    0.83
   2   1 -14   17.75    0.90
  -1  -1  14  136.29    6.44
   1  -1 -14  126.46    6.40
   1  -1 -14  135.36    5.98
  -1   1  14  148.34    6.46
  -1   1  14  127.83    5.95
   0  -1 -14  204.84    9.73
   0  -1  14  200.17    9.79
   0  -1 -14  192.49    9.08
   0   1 -14  215.10    9.74
   0   1  14  221.21    9.80
  -1  -1 -14   24.97    1.30
   1  -1  14   24.70    1.28
  -1   1 -14   27.87    1.32
   1   1  14   24.21    1.28
  -2  -1 -14   31.72    1.59
   2  -1  14   31.01    1.52
  -2  -1 -14   30.96    1.39
  -2   1 -14   29.89    1.46
  -2   1 -14   28.15    1.58
   3  -1  14   56.80    2.70
  -3  -1 -14   55.37    2.78
   3  -1  14   53.97    2.79
  -3  -1 -14   56.53    2.48
   3   1  14   55.91    2.69
  -3   1 -14   52.89    2.78
   3   1  14   52.37    2.77
  -3   1 -14   53.54    2.55
  -4  -1 -14   18.11    1.14
   4  -1  14   17.91    1.14
  -4  -1 -14   18.14    0.88
  -4   1 -14   15.00    1.17
   4   1  14   16.51    1.02
  -4   1 -14   17.29    0.97
   4   1  14   16.94    1.12
   5  -1  14    2.42    0.51
  -5  -1 -14    2.21    0.35
  -5  -1 -14    2.66    0.50
  -5   1 -14    2.81    0.41
  -5   1 -14    2.64    0.48
   5   1  14    2.32    0.47
  -6  -1 -14    9.06    1.14
   6  -1  14   10.28    1.14
   6   1  14    7.12    1.05
  -6   1 -14    9.48    0.88
  -6   1 -14    8.25    1.08
   5  -2 -14   11.39    0.91
   5   2 -14   11.90    0.89
  -5   2  14   12.64    0.77
   5   2 -14    9.88    1.15
   4  -2 -14   16.24    0.98
  -4   2  14   14.63    1.08
   4   2 -14   14.48    1.06
  -4   2  14   14.88    0.84
   4   2 -14   14.79    0.94
  -3  -2  14   62.38    3.13
   3  -2 -14   64.04    3.10
   3   2 -14   62.42    2.87
  -3   2  14   59.28    3.13
   3   2 -14   63.40    3.09
  -3   2  14   62.07    2.86
   2  -2 -14  176.52    7.63
   2  -2 -14  170.69    8.13
  -2  -2  14  168.47    8.16
  -2   2  14  174.45    8.17
   2   2 -14  167.13    7.61
  -2   2  14  173.55    7.58
   2   2 -14  168.40    8.13
  -1  -2  14   48.31    2.21
   1  -2 -14   44.51    2.02
   1  -2 -14   43.11    2.17
   1   2 -14   39.86    2.15
  -1   2  14   42.49    1.98
  -1   2  14   44.70    2.20
   0  -2 -14   95.76    4.07
   0  -2  14   86.12    4.42
   0  -2 -14   95.60    4.37
   0   2 -14  100.60    4.38
   0   2  14   79.67    4.41
  -1  -2 -14  164.83    7.81
   1  -2  14  158.99    7.79
  -1   2 -14  180.04    7.83
   1   2  14  155.65    7.80
   2  -2  14   81.98    4.14
  -2  -2 -14   80.64    4.12
   2  -2  14   81.92    4.05
   2   2  14   86.83    4.05
  -2   2 -14   90.53    3.89
  -2   2 -14   87.56    4.15
   3  -2  14   11.57    0.81
  -3  -2 -14   11.07    0.78
  -3   2 -14   11.34    0.78
   3   2  14   11.00    0.78
  -3   2 -14   12.24    0.72
   3   2  14   11.65    0.68
   4  -2  14   49.99    2.68
  -4  -2 -14   52.48    2.68
  -4   2 -14   50.21    2.46
  -4   2 -14   48.13    2.66
   4   2  14   51.91    2.55
   4   2  14   50.16    2.66
   5  -2  14   29.89    1.88
  -5   2 -14   31.61    1.86
  -5   2 -14   30.23    1.65
   5   2  14   29.56    1.82
   5  -3 -14   13.94    1.20
  -5   3  14   16.97    1.02
   5   3 -14   17.67    1.13
   4  -3 -14   49.54    2.48
   4   3 -14   48.31    2.45
  -4   3  14   49.15    2.28
   4   3 -14   46.66    2.54
  -4   3  14   43.26    2.55
   3  -3 -14   28.22    1.52
   3  -3 -14   28.84    1.55
   3   3 -14   28.82    1.44
   3   3 -14   30.12    1.54
  -3   3  14   28.77    1.42
  -3   3  14   28.34    1.62
   2  -3 -14    0.03    0.14
  -2  -3  14    0.12    0.19
   2  -3 -14    0.05    0.18
  -2   3  14    0.07    0.18
   2   3 -14    0.40    0.16
  -2   3  14    0.20    0.12
  -1  -3  14  144.23    6.43
   1  -3 -14  124.56    6.38
  -1   3  14  133.71    6.42
   1   3 -14  138.63    6.38
  -1   3  14  131.53    5.96
   0  -3 -14   66.22    2.90
   0  -3 -14   65.46    3.11
   0   3 -14   65.74    3.12
   0   3  14   61.54    3.16
   0   3  14   64.32    2.87
   1  -3  14    0.71    0.17
  -1  -3 -14    0.77    0.17
   1   3  14    0.51    0.18
  -1   3 -14    0.61    0.16
  -2  -3 -14   56.61    2.76
   2  -3  14   55.83    2.69
   2  -3  14   57.35    2.79
  -2   3 -14   54.33    2.77
   2   3  14   52.85    2.69
  -2   3 -14   55.41    2.64
   2   3  14   55.34    2.76
   3  -3  14  104.70    5.06
  -3  -3 -14  100.06    5.02
  -3   3 -14  103.80    4.74
   3   3  14  103.59    4.91
  -3   3 -14  102.05    5.05
  -4  -3 -14   13.82    1.03
   4  -3  14   12.88    1.07
  -4   3 -14   15.23    0.96
   4   3  14   14.39    0.88
   4   3  14   13.82    1.01
  -4   3 -14   14.10    1.03
  -5  -3 -14    7.63    1.02
   5  -3  14    8.35    1.03
   5   3  14    8.44    0.89
  -5   3 -14    7.38    0.81
  -5   3 -14    8.95    0.92
   4  -4 -14    1.44    0.36
   4   4 -14    1.31    0.30
  -4   4  14    1.30    0.32
   3  -4 -14   32.27    1.76
   3   4 -14   34.74    1.74
   3   4 -14   33.04    1.81
  -3   4  14   33.59    1.65
  -3   4  14   32.33    1.84
  -2  -4  14   52.81    2.62
   2  -4 -14   50.92    2.59
   2  -4 -14   51.46    2.48
  -2   4  14   51.80    2.64
  -2   4  14   51.91    2.42
   2   4 -14   53.92    2.57
   1  -4 -14    5.80    0.43
  -1   4  14    4.67    0.35
   1   4 -14    4.45    0.34
  -1   4  14    4.47    0.43
   0  -4 -14   30.12    1.54
   0  -4  14   29.51    1.60
   0   4 -14   32.35    1.57
   0   4  14   31.30    1.41
   0   4  14   31.37    1.59
  -1  -4 -14   56.99    2.94
   1  -4  14   57.97    2.99
  -1   4 -14   66.53    2.99
  -2  -4 -14   20.59    1.19
   2  -4  14   22.16    1.25
  -2   4 -14   21.31    1.23
   2   4  14   22.06    1.20
  -2   4 -14   22.91    1.23
   2   4  14   21.35    1.19
  -3  -4 -14    0.53    0.29
   3  -4  14    0.31    0.32
   3   4  14    0.17    0.24
  -3   4 -14    0.22    0.24
  -3   4 -14    0.52    0.29
   3   4  14    0.43    0.20
   4  -4  14   15.37    1.14
  -4   4 -14   11.78    0.98
   4   4  14   12.02    0.96
  -4   4 -14   12.34    0.97
   3   5 -14    9.76    0.64
  -3   5  14    8.35    0.69
  -2  -5  14    5.90    0.60
  -2   5  14    5.31    0.48
   2   5 -14    4.84    0.38
   2   5 -14    6.47    0.55
  -1  -5  14   52.32    2.51
   1  -5 -14   49.37    2.52
   1  -5 -14   47.61    2.47
  -1   5  14   49.72    2.53
   1   5 -14   56.89    2.50
  -1   5  14   51.88    2.37
   0  -5 -14   47.07    2.43
   0  -5  14   50.25    2.47
   0  -5  14   48.45    2.46
   0   5 -14   53.90    2.49
   0   5  14   52.28    2.28
   0   5 -14   51.56    2.47
   1  -5  14    2.34    0.34
   1  -5  14    1.53    0.34
  -1   5 -14    1.65    0.27
   1   5  14    2.12    0.33
  -1   5 -14    1.87    0.34
   2   5  14   15.84    0.96
  -2   5 -14   16.75    1.03
  -2   5 -14   17.53    1.08
   3   5  14   12.84    0.94
  -3   5 -14   14.83    1.02
  -3   5 -14   15.22    1.06
   1   6 -14    0.27    0.34
  -1   6  14    0.70    0.28
   0   6 -14    8.50    0.79
  -1   6 -14   34.85    1.91
   6   0 -15   14.67    1.12
  -6   0  15   13.99    0.93
  -5   0  15   10.21    0.67
   5   0 -15   10.24    0.81
  -4   0  15   25.71    1.38
  -4   0  15   27.81    1.62
   4   0 -15   30.03    1.55
   3   0 -15   33.97    1.72
  -3   0  15   31.86    1.75
   3   0 -15   34.03    1.61
  -3   0  15   30.85    1.55
   2   0 -15  239.13   10.90
   2   0 -15  247.97   11.67
  -2   0  15  253.73   11.70
   1   0 -15   60.50    2.95
   0   0  15    1.85    0.25
  -1   0 -15  238.11   11.33
   1   0  15  242.29   11.32
  -2   0 -15  128.26    5.52
  -2   0 -15  125.93    5.96
   2   0  15  117.59    5.87
   3   0  15    4.34    0.48
  -3   0 -15    4.35    0.46
  -3   0 -15    4.79    0.35
   3   0  15    4.20    0.36
   4   0  15   -0.02    0.21
  -4   0 -15    0.22    0.27
  -4   0 -15    0.41    0.18
  -5   0 -15   38.28    1.85
   5   0  15   36.69    2.15
  -5   0 -15   36.03    2.13
  -6   0 -15    9.52    1.14
   6   0  15    7.72    1.08
  -6   0 -15    6.65    0.78
   6  -1 -15    1.20    0.44
   6   1 -15    1.76    0.46
  -6   1  15    2.01    0.38
   5  -1 -15   27.25    1.60
  -5   1  15   28.21    1.42
   5   1 -15   27.85    1.60
   4  -1 -15   55.30    2.89
  -4   1  15   59.16    3.00
   3  -1 -15  109.06    4.97
  -3  -1  15  111.44    5.35
   3  -1 -15  113.69    5.32
   3   1 -15  107.02    4.95
  -3   1  15  108.53    4.92
   3   1 -15  111.53    5.31
  -3   1  15  108.01    5.36
   2  -1 -15   13.46    0.80
  -2  -1  15   14.26    0.85
   2  -1 -15   15.05    0.77
   2   1 -15   14.30    0.74
   2   1 -15   13.57    0.80
  -2   1  15   14.24    0.85
  -2   1  15   13.73    0.71
   1  -1 -15  162.29    7.63
   1  -1 -15  163.48    7.12
  -1  -1  15  156.62    7.67
  -1   1  15  168.75    7.68
   1   1 -15  153.29    7.62
   0  -1 -15  115.76    4.89
   0  -1  15  104.47    4.94
   0  -1 -15   93.43    4.54
   0   1  15   96.08    4.93
   1  -1  15   23.02    1.17
  -1  -1 -15   22.11    1.19
   1   1  15   22.90    1.18
  -1   1 -15   23.40    1.20
   2  -1  15   90.18    4.21
  -2  -1 -15   85.46    4.28
  -2  -1 -15   88.64    3.91
   2   1  15   84.19    4.20
  -2   1 -15   87.79    3.99
  -2   1 -15   92.10    4.30
   3  -1  15   70.63    3.68
   3  -1  15   75.01    3.59
  -3  -1 -15   71.35    3.68
  -3  -1 -15   68.45    3.31
   3   1  15   80.00    3.60
  -3   1 -15   76.21    3.41
  -3   1 -15   76.05    3.70
   3   1  15   73.99    3.69
   4  -1  15   31.24    1.78
  -4  -1 -15   30.08    1.47
  -4  -1 -15   30.60    1.76
   4   1  15   29.44    1.75
  -4   1 -15   30.62    1.77
   4   1  15   31.11    1.65
  -4   1 -15   32.93    1.58
   5  -1  15    2.05    0.50
  -5  -1 -15    1.70    0.46
  -5  -1 -15    1.53    0.27
  -5   1 -15    2.20    0.39
   5   1  15    1.73    0.46
  -5   1 -15    2.17    0.48
   5  -2 -15   27.71    1.64
   5   2 -15   26.64    1.86
   5   2 -15   28.54    1.63
  -5   2  15   28.81    1.46
   4  -2 -15    5.13    0.54
  -4   2  15    5.02    0.43
  -4   2  15    5.16    0.75
   4   2 -15    5.65    0.70
   4   2 -15    5.00    0.51
  -3  -2  15   64.57    3.40
   3  -2 -15   68.37    3.19
   3  -2 -15   65.56    3.37
   3   2 -15   67.29    3.14
   3   2 -15   70.66    3.37
  -3   2  15   70.25    3.12
  -3   2  15   70.94    3.44
  -2  -2  15  108.70    5.14
   2  -2 -15  108.30    5.11
   2  -2 -15  112.76    4.80
   2   2 -15   99.82    5.09
  -2   2  15  105.87    4.74
  -2   2  15  101.66    5.14
   1  -2 -15   48.23    2.62
   1  -2 -15   52.42    2.45
  -1  -2  15   51.09    2.66
  -1   2  15   60.90    2.69
  -1   2  15   56.34    2.42
   1   2 -15   53.08    2.63
   0  -2  15   -0.11    0.13
   0  -2 -15    0.37    0.10
   0  -2 -15    0.13    0.08
   0   2  15    0.07    0.15
   0   2 -15    0.16    0.08
   1  -2  15  161.48    7.44
  -1  -2 -15  164.94    7.46
  -1   2 -15  153.58    7.46
   1   2  15  147.94    7.45
   2  -2  15  126.29    6.15
  -2  -2 -15  126.99    6.22
  -2   2 -15  132.50    6.24
   2   2  15  125.83    6.14
  -2   2 -15  136.93    5.85
   3  -2  15   49.23    2.64
  -3  -2 -15   51.38    2.64
   3   2  15   51.60    2.64
   3   2  15   51.94    2.53
  -3   2 -15   53.57    2.47
  -3   2 -15   50.49    2.65
   4  -2  15    8.99    0.80
  -4  -2 -15    8.64    0.81
   4   2  15    8.76    0.77
  -4   2 -15    8.32    0.79
  -4   2 -15    9.72    0.70
   4   2  15    9.40    0.69
   5  -2  15   29.63    1.93
  -5  -2 -15   29.13    1.89
  -5   2 -15   32.94    1.92
   5   2  15   31.03    1.89
  -5   2 -15   33.46    1.73
   5  -3 -15    5.64    0.76
  -5   3  15    4.66    0.57
   5   3 -15    4.92    0.65
   4  -3 -15   47.19    2.44
  -4   3  15   44.36    2.55
  -4   3  15   46.89    2.24
   4   3 -15   45.21    2.51
   4   3 -15   48.76    2.42
   3  -3 -15   35.99    1.79
   3   3 -15   32.55    1.78
   3   3 -15   31.87    1.65
  -3   3  15   33.62    1.85
  -3   3  15   33.95    1.63
  -2  -3  15    9.08    0.65
   2  -3 -15    8.40    0.59
   2  -3 -15    8.66    0.58
  -2   3  15    8.95    0.52
  -2   3  15    7.44    0.63
   2   3 -15    9.05    0.57
  -1  -3  15   66.64    3.21
   1  -3 -15   61.77    3.16
   1  -3 -15   61.46    2.98
  -1   3  15   65.71    2.94
   1   3 -15   67.81    3.16
  -1   3  15   68.53    3.22
   0  -3 -15  126.41    5.44
   0  -3 -15  128.56    5.84
   0   3  15  110.98    5.88
   0   3 -15  121.84    5.85
   0   3  15  126.72    5.42
  -1  -3 -15   38.24    1.77
   1  -3  15   35.38    1.77
  -1   3 -15   32.62    1.76
   1   3  15   32.02    1.77
   2  -3  15    9.08    0.69
  -2  -3 -15    9.72    0.66
   2  -3  15    8.88    0.57
  -2   3 -15   10.02    0.68
   2   3  15   10.41    0.67
  -2   3 -15   10.16    0.65
   2   3  15    9.49    0.59
   3  -3  15   54.24    2.73
  -3  -3 -15   53.14    2.70
  -3   3 -15   51.86    2.55
  -3   3 -15   52.47    2.71
   3   3  15   50.54    2.68
  -4  -3 -15   52.32    2.77
   4  -3  15   50.26    2.81
   4   3  15   52.04    2.77
  -4   3 -15   54.44    2.61
   4   3  15   51.65    2.62
  -4   3 -15   53.67    2.80
   5  -3  15    0.78    0.56
  -5  -3 -15    0.44    0.52
  -5   3 -15    0.12    0.39
  -5   3 -15    0.05    0.38
   5   3  15    0.53    0.42
   4  -4 -15    1.81    0.41
   4   4 -15    1.35    0.32
  -4   4  15    1.71    0.33
   3  -4 -15   30.77    1.61
  -3   4  15   30.07    1.49
   3   4 -15   28.50    1.65
  -3   4  15   28.95    1.71
   3   4 -15   29.65    1.58
  -2  -4  15   82.68    4.08
   2  -4 -15   79.78    4.04
   2  -4 -15   83.28    3.85
  -2   4  15   83.78    4.10
   2   4 -15   87.17    4.03
  -2   4  15   83.57    3.78
   1  -4 -15   36.32    1.79
   1  -4 -15   35.14    1.73
  -1  -4  15   37.75    1.86
   1   4 -15   33.72    1.79
  -1   4  15   37.96    1.69
  -1   4  15   36.31    1.86
   0  -4  15    6.29    0.58
   0  -4 -15    7.33    0.49
   0   4  15    7.74    0.41
   0   4 -15    7.93    0.51
   0   4  15    8.72    0.58
   1  -4  15   46.57    2.27
   1  -4  15   48.83    2.30
  -1  -4 -15   46.85    2.24
  -1   4 -15   40.33    2.18
  -1   4 -15   41.52    2.25
   2  -4  15   24.52    1.47
   2   4  15   26.52    1.45
   2   4  15   27.98    1.45
  -2   4 -15   27.92    1.46
  -3  -4 -15    0.75    0.31
   3  -4  15    0.56    0.36
   3   4  15    0.60    0.28
  -3   4 -15    0.72    0.29
  -3   4 -15    0.58    0.29
   3   4  15    0.48    0.23
   4  -4  15    9.00    1.01
   4   4  15    8.49    0.82
  -4   4 -15    9.00    0.87
  -4   4 -15    8.77    0.83
   3   5 -15    9.91    0.66
  -3   5  15    9.82    0.73
  -2   5  15    1.22    0.27
   1  -5 -15   33.36    1.84
  -1  -5  15   34.27    1.83
  -1   5  15   38.06    1.71
  -1   5  15   36.41    1.85
   1   5 -15   38.32    1.80
   0  -5  15   38.49    1.84
   0  -5 -15   38.11    1.81
   0  -5  15   35.36    1.83
   0   5 -15   34.93    1.86
   0   5  15   33.26    1.80
   0   5 -15   36.62    1.81
   0   5  15   34.84    1.64
  -1   5 -15   13.31    0.89
  -1   5 -15   12.32    0.80
   1   5  15   13.20    0.78
   1   5  15   12.80    0.76
  -2   5 -15    3.38    0.52
  -2   5 -15    2.13    0.39
   3   5  15   20.26    1.23
  -3   5 -15   21.09    1.31
  -3   5 -15   20.64    1.34
   1   6 -15    2.69    0.50
   0   6 -15    0.60    0.36
  -1   6 -15   20.46    1.34
  -6   0  16    7.99    0.69
   6   0 -16    7.39    0.89
   5   0 -16    7.63    0.71
  -5   0  16    6.97    0.57
   4   0 -16    2.14    0.33
  -4   0  16    1.66    0.43
  -4   0  16    1.79    0.28
  -3   0  16   51.02    2.68
   3   0 -16   53.59    2.47
   3   0 -16   52.50    2.64
   2   0 -16   93.41    4.42
  -2   0  16  103.62    4.80
   1   0 -16  179.27    7.90
   1   0 -16  182.75    8.47
  -1   0  16  174.00    8.51
   0   0  16    0.45    0.16
   0   0 -16    0.28    0.09
   1   0  16   62.16    3.01
  -2   0 -16  153.34    7.19
   2   0  16  145.16    7.10
  -2   0 -16  151.53    6.66
   3   0  16   37.79    1.90
  -3   0 -16   38.70    1.79
  -3   0 -16   37.10    2.00
   3   0  16   36.73    2.01
   4   0  16   13.97    0.90
  -4   0 -16   14.05    0.81
  -4   0 -16   13.57    1.00
   4   0  16   14.28    1.00
  -5   0 -16   17.24    1.32
  -5   0 -16   18.87    1.06
   5   0  16   18.29    1.33
   6  -1 -16    5.71    0.84
   6   1 -16    5.24    0.82
  -6   1  16    6.58    0.65
   5  -1 -16    3.34    0.57
  -5   1  16    4.79    0.45
   5   1 -16    3.85    0.58
   4  -1 -16   89.92    4.28
   4   1 -16   86.79    4.27
  -4   1  16   82.71    4.35
  -4   1  16   86.25    3.93
   3  -1 -16   75.01    3.89
  -3  -1  16   73.58    3.93
   3  -1 -16   71.66    3.64
  -3   1  16   83.41    3.97
   3   1 -16   81.95    3.64
  -3   1  16   82.23    3.60
   3   1 -16   88.65    3.92
   2  -1 -16   14.22    0.84
   2  -1 -16   14.94    0.79
  -2  -1  16   14.61    0.90
  -2   1  16   14.02    0.89
   2   1 -16   14.51    0.84
  -2   1  16   14.69    0.74
   2   1 -16   15.08    0.77
   1  -1 -16   99.14    4.25
  -1  -1  16   95.64    4.60
   1  -1 -16   91.85    4.54
  -1   1  16   94.00    4.59
   1   1 -16   92.42    4.54
   0  -1  16  380.62   16.73
   0  -1 -16  318.33   15.56
   0  -1 -16  369.71   16.66
   0   1  16  362.99   16.73
   0   1 -16  342.84   16.76
  -1  -1 -16   81.71    3.99
   1  -1  16   83.61    3.98
  -1   1 -16   88.81    4.01
   1   1  16   77.14    3.98
  -2  -1 -16   33.04    1.55
   2  -1  16   32.80    1.68
  -2  -1 -16   32.17    1.76
   2   1  16   33.71    1.68
  -2   1 -16   35.95    1.78
  -2   1 -16   35.61    1.64
   3  -1  16   81.56    4.22
  -3  -1 -16   85.47    4.22
   3  -1  16   88.37    4.12
  -3  -1 -16   85.90    3.81
   3   1  16   83.07    4.22
   3   1  16   87.88    4.11
  -3   1 -16   84.14    4.23
  -3   1 -16   84.82    3.90
  -4  -1 -16   62.43    3.33
  -4  -1 -16   61.39    2.94
   4  -1  16   61.80    3.33
   4   1  16   65.13    3.34
  -4   1 -16   66.08    3.35
  -4   1 -16   68.67    3.06
   4   1  16   66.67    3.21
  -5  -1 -16    2.05    0.49
   5  -1  16    2.47    0.53
  -5  -1 -16    2.07    0.30
  -5   1 -16    2.64    0.52
   5   1  16    2.45    0.53
  -5   1 -16    3.37    0.45
   5  -2 -16   18.68    1.25
  -5   2  16   19.58    1.07
   5   2 -16   18.38    1.20
   4  -2 -16   12.35    0.84
  -4   2  16   12.01    0.72
   4   2 -16   11.74    0.82
  -4   2  16   10.36    0.99
   4   2 -16   12.19    0.99
   3  -2 -16   57.79    2.77
  -3  -2  16   55.83    2.83
   3  -2 -16   56.20    2.62
  -3   2  16   51.44    2.81
   3   2 -16   54.80    2.75
  -3   2  16   55.34    2.54
   3   2 -16   52.36    2.56
  -2  -2  16   96.41    4.51
   2  -2 -16   93.02    4.20
   2  -2 -16   89.52    4.46
   2   2 -16   91.50    4.46
   2   2 -16   91.19    4.17
  -2   2  16   92.75    4.14
   1  -2 -16   94.86    4.88
  -1  -2  16   99.73    4.94
   1  -2 -16  108.83    4.59
  -1   2  16  100.51    4.53
   1   2 -16   99.21    4.88
  -1   2  16  109.32    4.95
   0  -2 -16    5.74    0.38
   0  -2  16    5.63    0.46
   0  -2 -16    5.49    0.34
   0   2 -16    6.44    0.39
   0   2  16    5.07    0.47
  -1  -2 -16   67.26    3.39
   1  -2  16   69.24    3.39
  -1   2 -16   73.03    3.41
   1   2  16   69.72    3.41
   2  -2  16  115.45    5.54
  -2  -2 -16  116.40    5.63
  -2   2 -16  114.35    5.64
   2   2  16  116.09    5.54
  -2   2 -16  120.52    5.29
   3  -2  16   45.36    2.42
  -3  -2 -16   50.51    2.43
   3   2  16   45.54    2.29
  -3   2 -16   45.73    2.24
   3   2  16   45.95    2.41
  -3   2 -16   44.38    2.41
  -4  -2 -16    4.88    0.66
   4  -2  16    5.26    0.68
  -4   2 -16    5.16    0.54
  -4   2 -16    4.60    0.62
   4   2  16    4.87    0.60
   4   2  16    4.28    0.50
  -5  -2 -16    9.40    1.03
   5  -2  16    9.74    1.10
  -5   2 -16   11.59    1.02
   5   2  16    9.49    1.00
  -5   2 -16   11.90    0.90
   5  -3 -16    3.24    0.54
   5   3 -16    3.81    0.63
  -5   3  16    2.98    0.40
   4  -3 -16   25.93    1.41
  -4   3  16   22.57    1.57
  -4   3  16   22.79    1.24
   4   3 -16   21.60    1.49
   4   3 -16   24.68    1.37
   3  -3 -16   39.64    2.00
  -3   3  16   34.74    2.05
  -3   3  16   38.61    1.82
   3   3 -16   39.04    2.00
   2  -3 -16    4.56    0.47
  -2  -3  16    4.71    0.53
   2  -3 -16    4.66    0.43
  -2   3  16    5.26    0.37
  -2   3  16    5.22    0.51
   2   3 -16    5.64    0.42
   1  -3 -16   53.26    2.76
   1  -3 -16   57.56    2.61
  -1  -3  16   60.02    2.83
  -1   3  16   55.74    2.82
   1   3 -16   58.42    2.75
  -1   3  16   54.84    2.55
   0  -3 -16  155.73    6.33
   0  -3  16  123.76    6.84
   0  -3 -16  161.46    6.80
   0   3 -16  146.75    6.80
   0   3  16  127.51    6.84
  -1  -3 -16  136.24    6.63
   1  -3  16  135.40    6.64
   1   3  16  140.77    6.66
  -1   3 -16  143.95    6.66
   2  -3  16   12.88    0.72
  -2  -3 -16   11.73    0.77
   2  -3  16   11.51    0.80
  -2   3 -16   12.04    0.76
   2   3  16   10.74    0.70
   2   3  16   12.39    0.79
  -2   3 -16   11.67    0.78
   3  -3  16   28.51    1.61
  -3  -3 -16   27.13    1.56
  -3   3 -16   27.54    1.57
   3   3  16   26.58    1.42
   3   3  16   28.12    1.56
  -3   3 -16   27.82    1.48
   4  -3  16   20.11    1.42
  -4  -3 -16   21.81    1.41
   4   3  16   20.17    1.34
   4   3  16   20.18    1.20
  -4   3 -16   22.29    1.38
  -4   3 -16   22.87    1.28
   5  -3  16    5.12    0.77
  -5   3 -16    5.32    0.83
  -5   3 -16    6.17    0.79
   5   3  16    5.14    0.70
   4  -4 -16    1.87    0.42
  -4   4  16    1.75    0.35
   4   4 -16    1.43    0.33
   3  -4 -16    4.60    0.51
  -3   4  16    3.99    0.43
   3   4 -16    3.83    0.44
   3   4 -16    3.86    0.64
   2  -4 -16   61.05    2.79
   2  -4 -16   59.63    2.91
  -2   4  16   55.52    2.96
   2   4 -16   59.29    2.87
  -2   4  16   57.80    2.70
   1  -4 -16   34.57    1.66
  -1  -4  16   36.38    1.80
   1  -4 -16   36.34    1.75
  -1   4  16   32.86    1.79
  -1   4  16   34.11    1.61
   1   4 -16   32.50    1.71
   0  -4  16    3.51    0.48
   0  -4 -16    3.82    0.34
   0   4  16    3.21    0.24
   0   4  16    3.81    0.44
   0   4 -16    3.36    0.34
  -1  -4 -16   74.81    3.64
   1  -4  16   73.94    3.70
   1  -4  16   74.31    3.68
  -1   4 -16   74.89    3.53
  -1   4 -16   76.76    3.68
   2  -4  16   58.01    2.86
  -2  -4 -16   55.63    2.81
   2   4  16   54.88    2.81
  -2   4 -16   58.34    2.75
  -2   4 -16   53.22    2.83
   3  -4  16    5.10    0.72
  -3  -4 -16    5.80    0.66
   3   4  16    4.12    0.59
  -3   4 -16    4.94    0.57
  -3   4 -16    4.98    0.64
  -4   4 -16    6.65    0.76
   4   4  16    5.91    0.77
  -4   4 -16    5.35    0.77
   3   5 -16   16.26    0.95
  -3   5  16   17.02    1.00
  -2   5  16    4.08    0.43
   2   5 -16    3.51    0.35
  -1  -5  16    4.43    0.57
  -1   5  16    4.67    0.52
  -1   5  16    4.45    0.41
   1   5 -16    4.09    0.39
   0  -5  16   45.51    2.25
   0   5 -16   44.47    2.25
   0   5  16   44.35    2.01
   0   5  16   43.16    2.22
   0   5 -16   45.02    2.23
  -1   5 -16   19.10    1.16
   1   5  16   18.94    1.06
  -1   5 -16   18.75    1.10
   1   5  16   19.14    1.08
  -2   5 -16    5.20    0.64
  -2   5 -16    4.38    0.59
   2   5  16    4.67    0.54
   3   5  16   28.74    1.60
  -3   5 -16   28.38    1.67
  -3   5 -16   27.57    1.66
   1   6 -16   18.27    1.22
   0   6 -16    0.79    0.40
  -1   6 -16    8.13    0.88
   6   0 -17   20.85    1.44
   5   0 -17   12.77    0.94
  -5   0  17   12.31    0.80
   3   0 -17    5.35    0.47
  -3   0  17    5.02    0.57
   3   0 -17    5.79    0.48
  -2   0  17   79.85    3.69
   2   0 -17   70.38    3.38
   2   0 -17   72.96    3.62
  -1   0  17  141.55    7.57
   1   0 -17  165.66    7.54
   1   0 -17  168.25    7.03
   0   0  17   42.95    2.22
   0   0 -17   44.85    2.16
  -1   0 -17  111.07    5.32
   1   0  17  110.75    5.30
  -2   0 -17  153.89    6.77
  -2   0 -17  158.04    7.31
   2   0  17  145.42    7.21
   3   0  17   41.75    2.29
   3   0  17   41.53    2.17
  -3   0 -17   45.24    2.05
  -3   0 -17   45.31    2.30
   4   0  17    0.82    0.31
  -4   0 -17    1.30    0.26
  -5   0 -17   15.01    1.21
  -5   0 -17   14.70    0.92
   5   0  17   14.09    1.22
   6  -1 -17    4.99    0.70
   6   1 -17    6.32    0.84
  -6   1  17    6.17    0.65
   5  -1 -17    0.42    0.31
   5   1 -17    0.85    0.32
  -5   1  17    0.86    0.25
   4  -1 -17   23.58    1.28
   4   1 -17   22.56    1.27
  -4   1  17   21.45    1.12
  -4   1  17   18.50    1.39
   3  -1 -17   84.59    4.10
   3  -1 -17   83.90    3.85
  -3  -1  17   83.83    4.16
   3   1 -17   88.10    4.11
  -3   1  17   82.25    3.79
  -3   1  17   79.26    4.15
   2  -1 -17   41.61    1.94
  -2  -1  17   39.08    2.11
   2   1 -17   41.99    2.07
  -2   1  17   42.21    2.13
  -2   1  17   39.76    1.89
   2   1 -17   39.69    1.91
  -1  -1  17   11.10    0.78
   1  -1 -17   12.36    0.73
   1  -1 -17   12.52    0.66
   1   1 -17   13.86    0.73
   0  -1  17  151.69    6.91
   0  -1 -17  123.22    6.36
   0  -1 -17  152.71    6.83
   0   1  17  135.36    6.89
   0   1 -17  157.19    6.84
   1  -1  17   94.20    4.54
  -1  -1 -17   92.14    4.55
  -1   1 -17   97.24    4.56
   2  -1  17   13.86    0.80
  -2  -1 -17   13.63    0.88
  -2  -1 -17   14.52    0.72
  -2   1 -17   15.64    0.81
   2   1  17   15.03    0.80
  -2   1 -17   15.36    0.90
   3  -1  17   46.67    2.33
   3  -1  17   45.70    2.45
  -3  -1 -17   46.20    2.44
  -3  -1 -17   47.01    2.14
   3   1  17   46.70    2.45
   3   1  17   49.97    2.33
  -3   1 -17   44.95    2.44
  -3   1 -17   46.84    2.23
  -4  -1 -17   53.52    2.47
  -4  -1 -17   53.77    2.85
  -4   1 -17   54.63    2.59
   4   1  17   52.84    2.84
  -4   1 -17   55.08    2.86
   4   1  17   53.11    2.70
   5  -1  17   12.24    1.15
  -5  -1 -17   10.32    0.72
  -5  -1 -17   14.63    1.16
  -5   1 -17   12.56    1.09
  -5   1 -17   13.16    0.89
   5   1  17   10.83    1.06
   5  -2 -17   28.39    1.71
  -5   2  17   29.53    1.52
   5   2 -17   29.99    1.70
   4  -2 -17   22.89    1.29
  -4   2  17   19.57    1.43
  -4   2  17   21.48    1.13
   4   2 -17   22.00    1.28
   3  -2 -17    2.97    0.38
   3  -2 -17    2.88    0.40
   3   2 -17    2.86    0.38
   3   2 -17    2.80    0.35
  -3   2  17    3.25    0.31
  -3   2  17    3.10    0.45
  -2  -2  17  121.03    5.61
   2  -2 -17  109.49    5.54
   2  -2 -17  117.65    5.22
   2   2 -17  115.73    5.55
  -2   2  17  115.56    5.60
  -2   2  17  114.54    5.15
   2   2 -17  114.42    5.19
   1  -2 -17  133.78    5.82
  -1  -2  17  121.71    6.26
   1  -2 -17  118.48    6.20
   1   2 -17  131.48    6.20
  -1   2  17  135.59    5.77
  -1   2  17  140.06    6.28
   0  -2 -17   38.28    1.76
   0  -2 -17   34.39    1.62
   0  -2  17   37.33    1.84
   0   2 -17   34.53    1.75
   0   2  17   31.06    1.82
   1  -2  17   20.39    1.11
  -1  -2 -17   22.59    0.95
  -1  -2 -17   22.56    1.13
  -1   2 -17   18.54    1.11
   1   2  17   18.56    1.12
  -2  -2 -17  160.87    7.33
   2   2  17  146.12    7.24
  -2   2 -17  154.92    6.86
  -2   2 -17  148.42    7.32
   3  -2  17   27.74    1.71
  -3  -2 -17   29.33    1.70
   3   2  17   32.39    1.58
  -3   2 -17   33.25    1.60
   4  -2  17    1.26    0.40
  -4  -2 -17    0.61    0.35
  -4   2 -17    1.40    0.34
  -4   2 -17    1.12    0.37
   4   2  17    1.07    0.34
   4   2  17    0.80    0.30
   5  -2  17   24.02    1.68
  -5  -2 -17   24.84    1.66
   5   2  17   22.49    1.59
  -5   2 -17   24.48    1.61
  -5   2 -17   24.25    1.43
   5  -3 -17   -0.32    0.40
   5   3 -17    0.30    0.35
  -5   3  17    0.19    0.29
   4  -3 -17   24.15    1.41
  -4   3  17   23.89    1.62
   4   3 -17   22.55    1.54
   4   3 -17   24.33    1.37
  -4   3  17   22.90    1.24
   3  -3 -17   44.04    2.18
   3   3 -17   41.92    2.15
  -3   3  17   38.58    2.25
  -3   3  17   42.50    1.99
   2  -3 -17   32.72    1.73
   2  -3 -17   33.48    1.66
  -2  -3  17   32.60    1.79
  -2   3  17   34.32    1.80
   2   3 -17   33.15    1.72
  -2   3  17   33.92    1.58
   1  -3 -17   25.14    1.46
   1  -3 -17   26.94    1.40
  -1  -3  17   26.66    1.54
  -1   3  17   30.30    1.35
   1   3 -17   32.27    1.47
  -1   3  17   31.50    1.57
   0  -3 -17   72.94    3.08
   0  -3  17   63.50    3.39
   0  -3 -17   75.48    3.33
   0   3  17   57.86    3.37
   0   3 -17   72.84    3.34
   1  -3  17   40.83    2.11
  -1  -3 -17   38.82    2.08
  -1   3 -17   41.44    2.10
   1   3  17   43.74    2.13
  -2  -3 -17    7.71    0.59
   2  -3  17    7.03    0.61
  -2   3 -17    6.94    0.56
   2   3  17    5.57    0.50
  -2   3 -17    6.26    0.55
   3  -3  17   28.63    1.52
  -3  -3 -17   25.84    1.47
  -3   3 -17   24.71    1.38
   3   3  17   24.63    1.46
   3   3  17   23.56    1.32
  -3   3 -17   23.85    1.46
   4  -3  17   20.47    1.38
  -4  -3 -17   20.83    1.36
   4   3  17   17.63    1.27
  -4   3 -17   19.45    1.33
  -4   3 -17   20.23    1.23
   5  -3  17    7.27    1.18
  -5   3 -17    7.67    0.95
  -5   3 -17    8.52    0.89
   5   3  17    6.54    0.96
   4  -4 -17   16.72    1.18
   4   4 -17   15.05    1.02
  -4   4  17   14.84    0.95
   3  -4 -17    1.76    0.34
  -3   4  17    2.34    0.51
  -3   4  17    1.90    0.30
   3   4 -17    2.11    0.31
   2  -4 -17   44.12    2.40
   2  -4 -17   47.10    2.32
  -2   4  17   50.34    2.50
  -2   4  17   50.26    2.24
   1  -4 -17   68.93    3.19
  -1  -4  17   63.13    3.26
   1  -4 -17   63.45    3.02
  -1   4  17   66.54    3.27
  -1   4  17   68.28    2.98
   1   4 -17   64.31    3.18
   0  -4  17    1.27    0.31
   0   4  17    2.98    0.45
   0   4 -17    2.09    0.30
  -1   4 -17   40.84    1.95
   1   4  17   31.55    1.94
  -1   4 -17   39.71    1.91
  -2  -4 -17   63.96    3.21
   2  -4  17   63.88    3.25
  -2   4 -17   65.86    3.12
   2   4  17   63.68    3.21
  -2   4 -17   64.96    3.24
   2   4  17   63.49    3.21
   3  -4  17   31.47    1.84
  -3  -4 -17   29.88    1.78
   3   4  17   32.30    1.77
  -3   4 -17   32.15    1.81
  -3   4 -17   32.55    1.74
  -4   4 -17    3.42    0.53
  -4   4 -17    2.79    0.54
   4   4  17    2.42    0.50
   3   5 -17   25.34    1.35
  -3   5  17   25.53    1.36
  -2   5  17    3.62    0.44
   2   5 -17    3.48    0.36
  -1   5  17   10.81    0.63
   0   5  17   38.27    1.96
   0   5  17   37.34    1.71
  -1   5 -17   27.14    1.46
  -1   5 -17   26.03    1.51
  -2   5 -17    1.62    0.38
   2   5  17    1.50    0.32
  -2   5 -17    2.59    0.47
   3   5  17    7.84    0.78
  -3   5 -17    8.05    0.86
  -3   5 -17    8.13    0.85
   0   6 -17    7.26    0.84
   5   0 -18   37.92    2.09
   4   0 -18   27.76    1.56
   3   0 -18    5.21    0.48
  -3   0  18    5.00    0.59
   3   0 -18    5.45    0.49
  -2   0  18   74.23    3.51
   2   0 -18   66.02    3.20
   1   0 -18  162.75    6.55
  -1   0  18  132.28    7.06
   1   0 -18  146.79    7.02
   0   0  18   17.95    1.02
   0   0 -18   17.33    0.93
  -1   0 -18    2.86    0.28
   1   0  18    2.22    0.28
  -2   0 -18  123.53    6.11
  -2   0 -18  128.62    5.65
   2   0  18  127.44    6.02
  -3   0 -18   49.72    2.35
  -3   0 -18   51.99    2.62
   3   0  18   50.01    2.49
   3   0  18   49.10    2.62
   4   0  18    3.82    0.60
  -4   0 -18    3.45    0.40
  -4   0 -18    3.04    0.49
   5   0  18    0.25    0.44
  -5   0 -18    0.79    0.43
  -5   0 -18    0.82    0.34
   5  -1 -18   15.54    1.09
  -5   1  18   16.31    0.95
   5   1 -18   16.47    1.11
   4  -1 -18   25.25    1.47
  -4   1  18   22.94    1.60
  -4   1  18   25.83    1.30
   4   1 -18   28.07    1.47
  -3  -1  18   85.91    4.23
   3  -1 -18   82.31    3.86
   3  -1 -18   87.60    4.12
  -3   1  18   80.21    3.79
   3   1 -18   86.57    4.12
  -3   1  18   80.13    4.17
   2  -1 -18   90.53    4.06
   2  -1 -18   87.83    4.33
  -2  -1  18   89.72    4.39
  -2   1  18   94.62    4.41
   2   1 -18   83.71    4.03
   1  -1 -18   13.60    0.68
   1  -1 -18   13.03    0.74
  -1  -1  18   10.97    0.80
   1   1 -18   12.86    0.74
  -1   1  18   13.04    0.83
   0  -1 -18  207.55    9.52
   0  -1  18  195.63    9.59
   0   1 -18  196.78    9.52
   0   1  18  207.01    9.62
   1  -1  18  199.24    9.67
  -1  -1 -18  222.60    8.99
  -1  -1 -18  203.25    9.68
   1   1  18  200.23    9.68
  -1   1 -18  196.20    9.68
  -2  -1 -18   83.42    3.78
   2  -1  18   79.01    4.06
  -2  -1 -18   87.35    4.16
  -2   1 -18   87.08    4.17
   2   1  18   84.43    4.06
  -2   1 -18   86.28    3.86
   3  -1  18   10.02    0.77
   3  -1  18    9.73    0.62
  -3  -1 -18   10.24    0.53
  -3  -1 -18   10.53    0.77
   3   1  18    8.59    0.60
  -3   1 -18    8.03    0.72
   3   1  18    9.21    0.74
  -3   1 -18    9.09    0.62
  -4  -1 -18   47.86    2.58
   4  -1  18   49.15    2.59
  -4  -1 -18   47.39    2.21
  -4   1 -18   48.80    2.33
  -4   1 -18   48.70    2.59
   4   1  18   46.93    2.57
   4   1  18   45.20    2.41
  -5  -1 -18   20.45    1.48
   5  -1  18   18.71    1.47
   5   1  18   18.60    1.41
  -5   1 -18   20.80    1.20
  -5   1 -18   19.55    1.42
   5  -2 -18   25.58    1.56
   5   2 -18   26.19    1.53
  -5   2  18   23.86    1.33
   4  -2 -18   48.38    2.54
  -4   2  18   49.52    2.31
   4   2 -18   50.87    2.54
  -4   2  18   45.73    2.66
   3  -2 -18    2.53    0.39
   3  -2 -18    2.75    0.37
   3   2 -18    1.83    0.31
  -3   2  18    2.00    0.28
  -3   2  18    1.78    0.37
   3   2 -18    1.94    0.31
  -2  -2  18   57.27    2.73
   2  -2 -18   55.53    2.52
   2  -2 -18   52.02    2.66
  -2   2  18   53.41    2.73
  -2   2  18   50.86    2.43
   2   2 -18   49.96    2.64
   2   2 -18   53.75    2.48
   1  -2 -18  123.11    4.96
   1  -2 -18  109.82    5.28
  -1  -2  18  101.01    5.33
  -1   2  18  110.31    5.35
   1   2 -18  106.26    5.26
   0  -2 -18   28.97    1.49
   0  -2  18   28.72    1.58
   0  -2 -18   27.33    1.38
   0   2  18   29.70    1.60
   0   2 -18   33.02    1.51
  -1  -2 -18    1.86    0.17
  -1  -2 -18    2.09    0.28
   1  -2  18    1.97    0.31
   1   2  18    2.56    0.35
  -1   2 -18    2.92    0.31
   2   2  18   30.04    1.58
  -2   2 -18   31.55    1.68
  -2   2 -18   31.20    1.56
  -3  -2 -18   74.36    3.53
   3  -2  18   69.69    3.53
  -3   2 -18   71.35    3.28
   3   2  18   68.53    3.51
   3   2  18   67.05    3.37
  -3   2 -18   64.91    3.51
  -4  -2 -18    4.15    0.58
  -4   2 -18    3.78    0.63
   4   2  18    4.63    0.54
   4   2  18    4.52    0.66
  -4   2 -18    5.83    0.58
   5  -2  18    4.27    0.75
  -5  -2 -18    3.69    0.67
   5   2  18    3.85    0.63
  -5   2 -18    5.23    0.65
  -5   2 -18    5.58    0.83
   5  -3 -18    5.88    0.90
  -5   3  18    4.62    0.60
   5   3 -18    6.19    0.75
   4  -3 -18   21.51    1.28
  -4   3  18   18.21    1.48
   4   3 -18   19.95    1.43
  -4   3  18   19.89    1.10
   4   3 -18   20.02    1.22
   3  -3 -18   98.72    4.75
  -3   3  18   96.57    4.83
   3   3 -18   95.60    4.73
   2  -3 -18   27.58    1.55
   2  -3 -18   29.40    1.51
  -2   3  18   32.09    1.42
   2   3 -18   28.09    1.53
   1  -3 -18    7.62    0.53
  -1  -3  18    8.14    0.65
   1  -3 -18    8.20    0.52
   1   3 -18    8.34    0.50
  -1   3  18    7.54    0.45
  -1   3  18    8.42    0.68
   0  -3 -18   46.85    2.06
   0  -3  18   41.94    2.31
   0  -3 -18   47.47    2.23
   0   3 -18   43.46    2.24
  -1  -3 -18   62.45    3.39
   1  -3  18   64.17    3.42
   1   3  18   77.98    3.46
  -1   3 -18   73.30    3.44
   2  -3  18    7.60    0.64
  -2  -3 -18    6.67    0.57
  -2   3 -18    5.76    0.53
   2   3  18    4.89    0.51
   3  -3  18    3.51    0.51
  -3  -3 -18    3.09    0.47
  -3   3 -18    3.54    0.54
   3   3  18    3.72    0.56
  -3   3 -18    4.40    0.52
   3   3  18    4.24    0.43
  -4  -3 -18   52.34    2.95
   4  -3  18   52.60    2.98
   4   3  18   55.84    2.94
  -4   3 -18   57.02    2.98
  -4   3 -18   58.32    2.78
   4   4 -18   13.69    0.96
  -4   4  18   13.41    0.89
   3  -4 -18    0.76    0.30
   3   4 -18    0.74    0.24
  -3   4  18    0.92    0.25
   2  -4 -18   12.98    0.90
   2  -4 -18   13.31    0.84
  -2   4  18   15.38    0.78
   2   4 -18   14.15    0.80
  -2   4  18   12.83    0.96
   1  -4 -18   82.52    3.74
   1  -4 -18   76.61    3.54
  -1   4  18   77.50    3.83
   1   4 -18   74.42    3.73
  -1   4  18   76.10    3.48
   0  -4 -18   42.56    2.26
   0   4  18   46.90    2.35
   0   4 -18   47.38    2.30
  -1  -4 -18    1.72    0.31
   1   4  18    1.59    0.35
  -1   4 -18    1.66    0.30
  -2  -4 -18   55.69    2.79
   2  -4  18   52.10    2.82
  -2   4 -18   54.26    2.81
  -2   4 -18   55.39    2.71
   2   4  18   54.46    2.79
   2   4  18   56.57    2.79
   3  -4  18   33.13    1.99
  -3  -4 -18   36.82    2.04
  -3   4 -18   36.63    1.91
   3   4  18   35.09    1.94
  -3   4 -18   33.33    1.96
  -4   4 -18    1.27    0.49
  -4   4 -18    1.37    0.42
   4   4  18    1.92    0.51
  -3   5  18   25.19    1.35
   3   5 -18   24.64    1.33
   2   5 -18    8.45    0.57
  -1   5  18    4.53    0.40
   1   5 -18    3.54    0.42
   0   5 -18   38.41    1.98
  -1   5 -18   40.99    2.17
  -1   5 -18   43.43    2.18
   1   5  18   40.58    2.13
   2   5  18   11.12    0.82
  -2   5 -18   10.25    0.86
  -2   5 -18   11.42    0.91
   5   0 -19   78.73    3.99
   4   0 -19   27.30    1.54
   3   0 -19    3.12    0.41
  -3   0  19    2.94    0.46
   3   0 -19    2.55    0.37
  -2   0  19   50.58    2.52
   2   0 -19   46.50    2.27
   1   0 -19  214.76   10.06
   1   0 -19  241.54    9.40
  -1   0  19  180.88   10.10
   0   0  19  244.26   11.09
   0   0 -19  222.52   10.99
  -1   0 -19   11.96    0.73
   1   0  19   12.78    0.75
  -2   0 -19   70.13    3.55
  -2   0 -19   71.33    3.25
   2   0  19   72.41    3.45
  -3   0 -19  115.54    5.24
   3   0  19  115.90    5.58
   3   0  19  115.47    5.72
  -3   0 -19  118.76    5.72
  -4   0 -19    8.33    0.59
  -4   0 -19    7.37    0.79
   4   0  19    7.74    0.78
  -5   0 -19    3.79    0.58
   5   0  19    2.99    0.62
  -5   0 -19    3.79    0.66
   5  -1 -19    4.75    0.67
  -5   1  19    4.04    0.47
   5   1 -19    4.41    0.63
   4   1 -19   20.34    1.19
  -4   1  19   18.62    1.04
   3  -1 -19   58.37    2.86
  -3  -1  19   60.97    3.15
   3  -1 -19   61.43    3.04
  -3   1  19   57.77    2.78
  -3   1  19   61.67    3.12
   3   1 -19   61.94    3.03
   2  -1 -19  101.61    4.88
   2  -1 -19   96.89    4.56
  -2  -1  19  101.41    4.95
   2   1 -19   99.33    4.54
  -2   1  19  104.64    4.96
   1  -1 -19   29.59    1.35
  -1  -1  19   23.22    1.50
   1  -1 -19   30.34    1.46
   1   1 -19   29.12    1.45
  -1   1  19   26.26    1.52
   0  -1 -19   13.99    0.76
   0  -1 -19   15.83    0.83
   0  -1  19   16.49    0.94
   0   1  19   14.78    0.93
   0   1 -19   15.33    0.83
   1  -1  19  164.52    7.93
  -1  -1 -19  182.87    7.35
  -1  -1 -19  162.28    7.92
  -1   1 -19  155.42    7.93
   1   1  19  167.33    7.94
  -2  -1 -19   65.52    3.19
   2  -1  19   65.74    3.09
  -2  -1 -19   67.05    2.87
  -2   1 -19   62.53    3.19
  -2   1 -19   61.47    2.94
   2   1  19   58.10    3.08
   3  -1  19    2.26    0.33
  -3  -1 -19    2.88    0.42
  -3  -1 -19    2.59    0.26
   3  -1  19    2.49    0.40
  -3   1 -19    2.56    0.34
   3   1  19    1.66    0.25
  -3   1 -19    2.34    0.37
   4  -1  19   26.09    1.56
  -4  -1 -19   23.72    1.22
  -4   1 -19   23.07    1.53
  -4   1 -19   25.18    1.35
   4   1  19   25.50    1.54
  -5  -1 -19   13.66    0.93
   5  -1  19   16.11    1.36
  -5  -1 -19   18.20    1.38
  -5   1 -19   16.09    1.31
  -5   1 -19   18.65    1.11
   5   1  19   16.06    1.32
   5  -2 -19   15.07    1.16
   5   2 -19   15.74    1.11
  -5   2  19   16.03    0.95
   4  -2 -19   38.36    2.03
  -4   2  19   36.71    1.81
   4   2 -19   38.50    2.02
  -4   2  19   35.78    2.19
   3  -2 -19   12.70    0.87
  -3   2  19   13.70    0.75
   3   2 -19   14.27    0.87
  -3   2  19   13.04    1.00
   2  -2 -19   18.78    1.09
   2  -2 -19   19.77    1.06
  -2  -2  19   19.05    1.19
  -2   2  19   20.13    1.20
  -2   2  19   19.84    0.97
   2   2 -19   18.92    1.08
   1  -2 -19  152.68    7.17
  -1  -2  19  130.37    7.22
   1  -2 -19  166.81    6.73
   1   2 -19  162.64    7.17
  -1   2  19  140.51    7.26
   0  -2  19   98.24    4.70
   0  -2 -19  104.13    4.61
   0  -2 -19   92.28    4.29
   0   2  19   86.15    4.68
   0   2 -19   99.23    4.61
  -1  -2 -19    5.51    0.46
  -1  -2 -19    6.19    0.33
   1  -2  19    6.45    0.50
  -1   2 -19    5.28    0.45
  -2  -2 -19   61.56    3.12
  -2   2 -19   66.03    3.15
  -2   2 -19   62.33    2.93
   2   2  19   58.62    3.04
   3  -2  19   67.38    3.44
  -3  -2 -19   69.80    3.43
  -3   2 -19   67.87    3.43
   3   2  19   67.43    3.42
   3   2  19   62.81    3.26
  -3   2 -19   66.00    3.20
  -4  -2 -19    9.12    0.92
   4  -2  19    9.03    0.91
   4   2  19    7.92    0.68
  -4   2 -19    7.65    0.82
   4   2  19    8.53    0.84
  -4   2 -19    9.07    0.72
  -5  -2 -19    3.57    0.68
   5  -2  19    3.10    0.71
   5   2  19    2.57    0.62
  -5   2 -19    3.65    0.56
  -5   2 -19    3.70    0.66
   5  -3 -19    4.14    0.62
  -5   3  19    4.36    0.60
   5   3 -19    5.06    0.73
   4  -3 -19    1.95    0.41
  -4   3  19    2.24    0.63
   4   3 -19    1.82    0.36
  -4   3  19    1.52    0.29
   3  -3 -19   40.58    1.98
   3   3 -19   36.54    1.95
  -3   3  19   34.13    1.81
  -3   3  19   37.00    2.10
   2  -3 -19   66.26    3.34
   2  -3 -19   70.59    3.18
  -2   3  19   70.14    3.43
  -2   3  19   69.94    3.08
   2   3 -19   61.29    3.32
   1  -3 -19    2.41    0.28
  -1  -3  19    3.05    0.50
   1  -3 -19    2.25    0.34
  -1   3  19    2.52    0.25
  -1   3  19    2.54    0.39
   1   3 -19    3.37    0.28
   0  -3 -19   27.49    1.30
   0  -3 -19   25.47    1.18
   0  -3  19   23.24    1.39
   0   3  19   20.63    1.38
   0   3 -19   25.57    1.31
  -1  -3 -19   81.84    4.17
   1   3  19   91.65    4.23
  -1   3 -19   83.74    4.20
  -2  -3 -19   37.56    2.13
   2  -3  19   39.74    2.17
  -2   3 -19   41.63    2.05
  -2   3 -19   43.54    2.17
   3  -3  19    2.51    0.48
  -3  -3 -19    2.32    0.44
   3   3  19    2.62    0.42
  -3   3 -19    2.57    0.42
  -3   3 -19    2.41    0.38
   3   3  19    3.08    0.44
  -4  -3 -19    7.53    0.94
  -4   3 -19    8.68    0.77
   4   3  19    5.75    0.82
  -4   3 -19    7.07    0.83
   4   4 -19   10.49    0.87
  -4   4  19   11.51    0.80
   3  -4 -19    4.82    0.60
  -3   4  19    5.13    0.49
   3   4 -19    5.01    0.50
   2  -4 -19   11.82    0.86
   2  -4 -19   11.91    0.78
   2   4 -19   12.61    0.73
  -2   4  19   12.12    0.95
  -2   4  19   13.23    0.72
   1  -4 -19   65.94    3.16
   1  -4 -19   72.06    3.33
  -1   4  19   67.33    3.09
  -1   4  19   68.98    3.44
   0  -4 -19   52.43    2.73
   0   4  19   58.69    2.84
  -1  -4 -19   11.47    0.75
   1   4  19    9.47    0.82
  -1   4 -19   10.22    0.75
  -1   4 -19   11.04    0.76
  -2  -4 -19   26.20    1.53
   2  -4  19   26.43    1.57
   2   4  19   26.57    1.52
  -2   4 -19   27.18    1.51
   2   4  19   27.16    1.55
  -2   4 -19   27.36    1.55
   3  -4  19   31.95    2.06
   3   4  19   37.45    2.02
  -3   4 -19   36.13    2.04
  -3   4 -19   38.76    1.98
  -4   4 -19    8.78    1.00
   4   4  19    8.34    0.97
  -4   4 -19    9.33    0.94
  -3   5  19   20.97    1.19
   3   5 -19   21.73    1.18
   2   5 -19   27.86    1.45
   1   5 -19    1.19    0.28
  -1   5  19    2.18    0.26
   0   5 -19   25.77    1.42
   1   5  19   36.36    1.93
  -1   5 -19   35.09    1.97
  -1   5 -19   38.66    1.97
  -2   5 -19   22.34    1.42
   2   5  19   23.87    1.38
  -2   5 -19   24.09    1.45
   5   0 -20    2.90    0.48
   4   0 -20   60.94    3.11
   3   0 -20   79.16    3.90
  -3   0  20   78.37    3.99
  -2   0  20    0.24    0.25
   2   0 -20    0.29    0.15
   2   0 -20    0.16    0.14
  -1   0  20   66.32    3.90
   1   0 -20   90.45    3.59
   1   0 -20   80.56    3.85
   0   0 -20  240.21   11.12
   0   0  20  231.23   11.20
   1   0  20    0.08    0.16
  -2   0 -20   24.78    1.23
   2   0  20   24.63    1.30
  -2   0 -20   24.91    1.39
  -3   0 -20  100.69    4.60
   3   0  20  102.41    5.05
  -3   0 -20  101.32    5.04
   3   0  20  101.72    4.89
  -4   0 -20   26.91    1.64
   4   0  20   26.26    1.64
  -4   0 -20   26.06    1.37
   5   0  20    3.59    0.65
  -5   0 -20    3.56    0.67
  -5   0 -20    3.68    0.58
   5  -1 -20    9.91    0.88
  -5   1  20    8.34    0.67
   5   1 -20    8.68    0.81
   4  -1 -20    6.55    0.63
  -4   1  20    6.12    0.51
   4   1 -20    6.44    0.62
   3  -1 -20   43.79    2.27
  -3  -1  20   41.98    2.37
  -3   1  20   45.36    2.38
   3   1 -20   43.84    2.26
  -2  -1  20  134.76    6.48
   2  -1 -20  128.66    6.00
   2  -1 -20  133.71    6.40
   2   1 -20  133.82    6.40
   2   1 -20  133.35    5.97
  -2   1  20  135.51    6.49
   1  -1 -20   13.84    0.82
   1  -1 -20   13.09    0.76
   1   1 -20   15.85    0.78
  -1   1  20   12.65    0.91
   1   1 -20   16.13    0.83
   0  -1 -20   17.46    0.93
   0  -1 -20   15.73    0.85
   0  -1  20   18.01    1.03
   0   1  20   17.58    1.04
   0   1 -20   17.84    0.94
  -1  -1 -20  203.51    7.85
   1  -1  20  173.26    8.46
  -1  -1 -20  176.40    8.46
  -1   1 -20  154.83    8.44
   1   1  20  180.28    8.47
  -2  -1 -20   51.96    2.37
   2  -1  20   52.30    2.56
  -2  -1 -20   53.53    2.67
   2   1  20   50.95    2.56
  -2   1 -20   52.08    2.45
  -2   1 -20   50.53    2.66
  -3  -1 -20    1.40    0.33
   3  -1  20    1.15    0.33
   3   1  20    0.75    0.29
   3   1  20    0.50    0.20
  -3   1 -20    0.69    0.31
  -3   1 -20    0.53    0.21
  -4  -1 -20   14.00    0.86
  -4  -1 -20   16.07    1.19
   4  -1  20   17.00    1.21
  -4   1 -20   17.21    1.20
   4   1  20   17.88    1.21
  -4   1 -20   16.86    1.05
   5  -1  20   41.25    2.57
  -5  -1 -20   44.12    2.59
   5   1  20   42.75    2.55
  -5   1 -20   44.85    2.26
  -5   1 -20   46.76    2.60
   5  -2 -20   10.00    0.93
  -5   2  20    8.25    0.69
   5   2 -20    9.06    0.85
   4  -2 -20   23.04    1.40
   4   2 -20   22.24    1.34
  -4   2  20   22.40    1.19
   3  -2 -20   55.12    2.73
  -3   2  20   52.49    2.48
   3   2 -20   52.79    2.71
  -3   2  20   52.76    2.83
   2  -2 -20    2.76    0.36
   2  -2 -20    2.95    0.41
  -2   2  20    2.79    0.28
  -2   2  20    3.16    0.44
   2   2 -20    2.59    0.33
   1  -2 -20   58.96    2.93
   1  -2 -20   62.29    2.76
  -1   2  20   53.09    3.02
   1   2 -20   63.88    2.93
   0  -2 -20   80.58    3.83
   0  -2 -20   71.13    3.56
   0  -2  20   79.70    3.93
   0   2  20   83.72    3.94
   0   2 -20   81.81    3.84
  -1  -2 -20    8.44    0.45
  -1  -2 -20    7.88    0.58
  -1   2 -20    8.63    0.60
   1   2  20    8.92    0.65
  -2  -2 -20   32.79    1.65
  -2   2 -20   28.24    1.63
  -2   2 -20   29.78    1.52
   2   2  20   27.60    1.54
   3  -2  20   51.35    2.60
  -3  -2 -20   47.36    2.56
   3   2  20   46.93    2.55
   3   2  20   45.97    2.40
  -3   2 -20   48.73    2.57
   4  -2  20   34.74    2.01
  -4  -2 -20   34.80    1.99
   4   2  20   33.38    1.95
  -4   2 -20   33.99    1.97
  -4   2 -20   33.95    1.78
   4   2  20   28.97    1.76
  -5  -2 -20    0.54    0.62
   5  -2  20   -0.35    0.62
  -5   2 -20    1.22    0.45
   5   2  20   -0.55    0.53
  -5   2 -20    0.85    0.49
   4  -3 -20    7.20    0.76
  -4   3  20    6.83    0.58
   4   3 -20    7.51    0.67
   3  -3 -20   26.43    1.52
   3   3 -20   27.40    1.51
  -3   3  20   29.18    1.71
  -3   3  20   26.16    1.35
   2  -3 -20   40.81    2.17
   2  -3 -20   43.87    2.10
  -2   3  20   43.88    2.30
   2   3 -20   39.62    2.16
  -2   3  20   44.50    1.99
   1  -3 -20    8.89    0.63
   1  -3 -20    8.22    0.58
   1   3 -20   11.47    0.60
  -1   3  20   10.40    0.80
   0  -3 -20   31.87    1.43
   0  -3  20   28.77    1.69
   0  -3 -20   32.22    1.56
   0   3  20   27.00    1.66
   0   3 -20   30.70    1.57
  -1  -3 -20  102.63    5.24
  -1   3 -20  108.40    5.27
   1   3  20  113.91    5.29
  -2  -3 -20   52.37    2.72
   2  -3  20   52.35    2.75
  -2   3 -20   55.64    2.75
  -2   3 -20   54.05    2.59
   2   3  20   49.15    2.66
   3  -3  20    5.10    0.77
  -3  -3 -20    6.33    0.75
   3   3  20    6.20    0.60
  -3   3 -20    6.94    0.64
   3   3  20    7.16    0.70
  -3   3 -20    6.37    0.71
   4  -3  20   15.05    1.27
  -4  -3 -20   15.88    1.28
   4   3  20   14.41    1.17
  -4   3 -20   15.22    1.09
  -4   3 -20   14.35    1.17
   4   4 -20   30.36    1.76
  -4   4  20   32.13    1.63
   3  -4 -20    7.42    0.74
  -3   4  20    9.96    0.65
   3   4 -20    9.11    0.67
   2  -4 -20    0.44    0.20
   2  -4 -20   -0.09    0.36
  -2   4  20   -0.02    0.16
   2   4 -20    0.28    0.15
  -2   4  20    0.14    0.38
   1  -4 -20   31.17    1.65
   1  -4 -20   34.76    1.72
   1   4 -20   35.35    1.73
  -1   4  20   32.88    1.86
  -1   4  20   34.27    1.59
   0  -4 -20   52.43    2.75
   0  -4 -20   56.41    2.51
   0   4 -20   57.74    2.79
   0   4  20   55.84    2.86
  -1  -4 -20   13.02    0.89
  -1   4 -20   13.80    0.91
  -1   4 -20   14.37    0.92
   1   4  20   13.67    1.00
   2  -4  20    9.72    0.86
  -2  -4 -20    8.90    0.78
  -2   4 -20    8.01    0.74
   2   4  20    8.01    0.74
  -2   4 -20    6.79    0.70
   3  -4  20   29.43    1.74
  -3   4 -20   25.61    1.64
   3   4  20   26.58    1.62
  -3   4 -20   25.96    1.57
   2   5 -20   28.95    1.53
  -2   5  20   29.89    1.49
   1   5 -20   17.86    1.17
  -1   5  20   24.03    1.08
   0   5 -20    8.24    0.69
  -1   5 -20   27.13    1.60
   1   5  20   27.15    1.54
  -1   5 -20   28.58    1.58
   2   5  20   17.47    1.13
  -2   5 -20   17.04    1.18
  -2   5 -20   16.25    1.20
   5   0 -21    7.38    0.77
   4   0 -21   54.71    2.83
  -3   0  21   41.49    2.39
   3   0 -21   46.22    2.29
  -2   0  21    0.12    0.27
   2   0 -21    0.16    0.15
   2   0 -21    0.02    0.17
   1   0 -21   36.79    1.89
   1   0 -21   41.82    1.77
  -1   0  21   32.76    1.97
   0   0  21  226.69   10.62
   0   0 -21  219.17   10.52
   1   0  21   71.65    3.68
  -1   0 -21   78.24    3.68
  -2   0 -21    0.10    0.17
  -2   0 -21    0.06    0.12
   2   0  21    0.38    0.16
   3   0  21   67.64    3.42
  -3   0 -21   68.85    3.23
  -3   0 -21   73.38    3.60
  -4   0 -21   41.29    2.36
   4   0  21   41.77    2.36
  -4   0 -21   41.58    2.03
  -5   0 -21   -0.39    0.49
   5   0  21   -0.17    0.47
   5  -1 -21   36.00    2.06
  -5   1  21   34.78    1.83
   5   1 -21   37.70    2.05
   4  -1 -21    3.41    0.53
  -4   1  21    2.93    0.39
   4   1 -21    3.14    0.51
   3  -1 -21   30.24    1.63
  -3   1  21   29.24    1.76
   2  -1 -21   83.25    4.10
   2  -1 -21   88.81    4.38
  -2  -1  21   91.01    4.48
   2   1 -21   91.31    4.38
  -2   1  21   92.41    4.49
   2   1 -21   92.33    4.08
   1  -1 -21   76.62    3.73
   1  -1 -21   85.58    4.01
  -1  -1  21   67.53    4.06
   1   1 -21   90.96    4.01
   1   1 -21   91.22    3.75
   0  -1 -21   10.65    0.61
   0  -1  21   10.61    0.72
   0  -1 -21    8.70    0.55
   0   1  21   10.71    0.74
   0   1 -21   10.10    0.60
  -1  -1 -21   31.10    1.28
  -1  -1 -21   27.67    1.45
   1  -1  21   26.39    1.46
  -1   1 -21   22.42    1.42
   1   1  21   27.54    1.48
  -2  -1 -21  108.31    5.22
   2  -1  21  102.39    5.11
  -2  -1 -21  109.61    4.76
   2   1  21  106.12    5.12
  -2   1 -21  106.85    5.22
  -2   1 -21  105.43    4.84
   3  -1  21   32.30    1.82
  -3  -1 -21   31.71    1.79
  -3  -1 -21   29.76    1.48
  -3   1 -21   30.04    1.59
  -3   1 -21   31.51    1.79
   3   1  21   32.10    1.80
   3   1  21   30.74    1.63
   4  -1  21    3.04    0.55
  -4  -1 -21    2.53    0.38
  -4  -1 -21    3.08    0.54
  -4   1 -21    2.69    0.52
   4   1  21    1.95    0.46
  -5  -1 -21   15.41    1.41
   5  -1  21   13.21    1.37
  -5   1 -21   15.54    1.35
  -5   1 -21   15.37    1.10
   5   1  21   15.34    1.33
   5  -2 -21    2.41    0.51
   5   2 -21    2.92    0.49
  -5   2  21    2.40    0.39
   4  -2 -21   49.08    2.68
   4   2 -21   50.91    2.61
  -4   2  21   49.08    2.37
   3  -2 -21   32.71    1.81
   3   2 -21   34.34    1.81
  -3   2  21   34.18    1.98
   2  -2 -21    0.68    0.26
   2  -2 -21    0.61    0.19
   2   2 -21    0.55    0.18
  -2   2  21    0.57    0.33
   1  -2 -21   73.87    3.29
   1  -2 -21   72.53    3.49
   1   2 -21   77.84    3.49
  -1   2  21   61.67    3.58
   0  -2 -21  141.41    6.88
   0  -2 -21  161.68    7.38
   0   2 -21  163.78    7.39
   0   2  21  153.99    7.48
  -1  -2 -21    9.16    0.68
  -1  -2 -21   10.24    0.55
   1   2  21   12.70    0.78
  -1   2 -21   10.98    0.72
  -2  -2 -21    5.75    0.57
   2   2  21    6.38    0.55
  -2   2 -21    5.82    0.50
  -3  -2 -21   45.91    2.50
   3  -2  21   44.95    2.52
  -3   2 -21   46.08    2.52
   3   2  21   48.47    2.51
  -3   2 -21   46.37    2.31
   3   2  21   46.65    2.35
   4  -2  21   24.05    1.63
   4   2  21   24.40    1.57
  -4   2 -21   25.05    1.60
  -4   2 -21   24.95    1.43
   4  -3 -21    2.11    0.45
   4   3 -21    2.03    0.38
  -4   3  21    2.08    0.32
   3  -3 -21   12.29    0.87
  -3   3  21   12.81    1.12
   3   3 -21   12.32    0.83
  -3   3  21   12.51    0.73
   2  -3 -21   86.18    3.95
   2  -3 -21   81.96    4.15
  -2   3  21   87.51    4.28
  -2   3  21   87.67    3.85
   2   3 -21   81.62    4.13
   1  -3 -21   48.04    2.25
   1  -3 -21   48.93    2.36
  -1   3  21   44.86    2.50
   1   3 -21   47.67    2.37
   0  -3 -21    7.62    0.47
   0  -3 -21    7.32    0.52
   0   3  21    6.74    0.70
   0   3 -21    7.72    0.53
  -1  -3 -21   38.66    2.01
  -1   3 -21   37.97    2.03
   2  -3  21   75.68    3.69
  -2  -3 -21   73.79    3.66
  -2   3 -21   69.81    3.45
   2   3  21   70.28    3.60
  -2   3 -21   72.34    3.67
  -3  -3 -21   13.01    1.01
   3  -3  21   10.78    1.04
   3   3  21   11.30    0.87
  -3   3 -21   12.07    0.97
  -3   3 -21   11.79    0.88
   3   3  21   13.20    0.98
   4  -3  21    3.80    0.69
  -4  -3 -21    3.48    0.68
  -4   3 -21    2.70    0.57
   4   3  21    3.86    0.60
  -4   3 -21    4.41    0.62
   4   4 -21   25.54    1.51
  -4   4  21   25.45    1.39
   3  -4 -21   15.30    1.06
   3   4 -21   15.92    0.99
  -3   4  21   17.10    0.93
   2  -4 -21    7.46    0.77
   2  -4 -21    7.60    0.61
   2   4 -21    8.60    0.55
  -2   4  21    8.36    0.54
   1  -4 -21   17.36    0.89
   1  -4 -21   13.99    0.90
  -1   4  21   14.81    0.81
   1   4 -21   15.67    0.89
  -1   4  21   15.42    1.11
   0  -4 -21   20.71    1.10
   0  -4 -21   19.89    0.94
   0   4  21   17.18    1.22
   0   4 -21   18.13    1.10
  -1  -4 -21   28.50    1.64
  -1   4 -21   28.94    1.62
  -1   4 -21   31.80    1.67
   1   4  21   30.10    1.72
  -2  -4 -21    5.35    0.72
   2  -4  21    5.85    0.81
  -2   4 -21    7.15    0.71
   2   4  21    6.66    0.70
  -2   4 -21    5.52    0.65
   3  -4  21   40.71    2.35
   3   4  21   37.05    2.10
  -3   4 -21   35.12    2.02
  -3   4 -21   35.64    2.12
  -2   5  21   31.31    1.56
   2   5 -21   31.94    1.64
   1   5 -21   16.23    1.10
  -1   5  21   21.93    1.00
   0   5 -21    1.22    0.33
  -1   5 -21   19.65    1.31
  -1   5 -21   20.92    1.30
   1   5  21   21.53    1.27
  -2   5 -21   36.93    2.06
  -2   5 -21   34.95    2.03
   2   5  21   36.69    2.00
   5   0 -22    3.16    0.50
   4   0 -22   24.21    1.43
  -3   0  22  124.32    6.00
   3   0 -22  113.07    5.76
  -2   0  22   28.68    1.66
   2   0 -22   26.93    1.42
   2   0 -22   29.71    1.53
   1   0 -22    1.07    0.20
  -1   0  22    0.98    0.30
   1   0 -22    1.09    0.18
   0   0 -22  114.79    5.30
   0   0  22  125.44    5.79
   0   0 -22  116.83    5.68
  -1   0 -22  176.43    8.18
   1   0  22  165.96    8.18
   2   0  22    5.92    0.47
  -2   0 -22    4.80    0.52
  -2   0 -22    5.14    0.40
  -3   0 -22   21.46    1.16
   3   0  22   23.16    1.42
   4   0  22   32.47    2.02
  -4   0 -22   36.43    2.06
  -4   0 -22   32.47    1.70
   5   0  22    6.88    1.08
  -5   0 -22    6.98    1.13
   5  -1 -22   16.12    1.16
   5   1 -22   15.08    1.14
   4  -1 -22   14.30    1.00
   4   1 -22   14.43    0.99
   3  -1 -22    5.98    0.55
  -3   1  22    5.80    0.79
   3   1 -22    5.90    0.55
   2  -1 -22   72.85    3.55
   2  -1 -22   82.61    3.80
  -2  -1  22   76.29    3.89
  -2   1  22   75.20    3.90
   2   1 -22   77.50    3.53
   1  -1 -22   75.36    3.66
   1  -1 -22   87.81    3.93
  -1  -1  22   74.14    4.02
  -1   1  22   69.73    4.01
   1   1 -22   90.57    3.69
   1   1 -22   86.24    3.92
   0  -1  22   17.51    1.01
   0  -1 -22   15.03    0.81
   0  -1 -22   16.73    0.88
   0   1  22   14.37    1.00
   0   1 -22   15.60    0.88
   1  -1  22   59.12    3.14
  -1  -1 -22   57.94    3.11
  -1  -1 -22   65.09    2.84
   1   1  22   71.09    3.18
  -1   1 -22   62.10    3.14
   2  -1  22  105.89    5.13
  -2  -1 -22  107.86    5.23
  -2  -1 -22  107.04    4.76
  -2   1 -22  106.89    5.24
   2   1  22  107.13    5.14
  -2   1 -22  103.62    4.84
  -3  -1 -22   11.70    0.92
  -3  -1 -22    9.94    0.65
   3  -1  22   11.06    1.01
   3   1  22   13.29    0.97
  -3   1 -22   12.51    0.93
  -3   1 -22   12.57    0.78
   3   1  22   12.16    0.77
  -4  -1 -22    1.53    0.27
   4  -1  22    1.48    0.48
  -4  -1 -22    2.14    0.52
  -4   1 -22    2.09    0.50
   4   1  22    1.17    0.44
  -4   1 -22    2.58    0.42
  -5  -1 -22    7.07    1.17
   5  -1  22    7.52    1.16
  -5   1 -22    7.41    1.13
   5   1  22    8.64    1.13
  -5   1 -22    8.46    0.89
   5  -2 -22    0.45    0.44
  -5   2  22    0.64    0.30
   5   2 -22    0.36    0.37
   4  -2 -22   23.61    1.41
  -4   2  22   22.64    1.23
   4   2 -22   23.23    1.39
   3  -2 -22   74.67    3.62
  -3   2  22   70.51    3.31
  -3   2  22   69.01    3.73
   3   2 -22   74.06    3.61
   2  -2 -22   18.18    1.10
   2  -2 -22   19.46    1.10
  -2   2  22   20.25    1.30
   1  -2 -22    4.11    0.37
   1  -2 -22    4.16    0.41
  -1   2  22    4.07    0.64
   1   2 -22    4.91    0.36
   0  -2 -22  170.49    8.06
   0   2  22  174.81    8.18
   0   2 -22  164.22    8.06
  -1  -2 -22   69.42    3.49
  -1  -2 -22   83.17    3.86
  -1   2 -22   82.67    3.88
  -2  -2 -22    3.49    0.51
  -2   2 -22    4.33    0.50
   2   2  22    3.99    0.51
  -2   2 -22    4.06    0.45
   3  -2  22   24.09    1.50
  -3  -2 -22   23.22    1.45
   3   2  22   21.38    1.29
   3   2  22   23.68    1.45
  -3   2 -22   22.49    1.29
  -3   2 -22   22.24    1.44
  -4  -2 -22   37.48    2.23
   4  -2  22   34.95    2.22
  -4   2 -22   37.42    1.99
   4   2  22   38.85    2.20
  -4   2 -22   37.67    2.21
  -4   3  22    4.86    0.52
   4   3 -22    4.99    0.62
   3  -3 -22    7.84    0.70
  -3   3  22    7.16    1.04
  -3   3  22    8.42    0.57
   3   3 -22    7.26    0.63
   2  -3 -22   56.81    3.01
   2  -3 -22   62.04    2.90
   2   3 -22   58.62    2.99
  -2   3  22   61.25    2.78
  -2   3  22   63.35    3.18
   1  -3 -22   86.99    4.10
   1  -3 -22   81.94    3.88
  -1   3  22   73.59    4.23
   1   3 -22   96.24    4.11
   0  -3 -22   17.86    0.92
   0  -3 -22   20.88    1.03
   0   3 -22   17.46    1.04
   0   3  22   15.89    1.15
  -1  -3 -22   19.28    1.16
  -1   3 -22   17.91    1.16
   1   3  22   22.59    1.26
  -2  -3 -22   44.67    2.38
   2   3  22   43.44    2.34
  -2   3 -22   47.17    2.41
  -2   3 -22   43.08    2.25
   3  -3  22   13.60    1.17
  -3  -3 -22   14.53    1.12
  -3   3 -22   12.74    0.95
   3   3  22   12.94    1.07
  -3   3 -22   13.33    1.06
   4  -3  22    0.65    0.61
  -4  -3 -22    0.56    0.59
  -4   3 -22    1.22    0.48
  -4   3 -22    0.86    0.50
   4   3  22    1.27    0.53
   3  -4 -22   33.75    1.84
   3   4 -22   29.43    1.71
  -3   4  22   33.55    1.61
   2  -4 -22    2.91    0.42
   2   4 -22    4.06    0.36
  -2   4  22    2.75    0.39
   1  -4 -22    8.45    0.68
   1  -4 -22   10.00    0.62
  -1   4  22    8.92    0.92
   1   4 -22    9.04    0.61
   0  -4 -22   43.65    1.96
   0  -4 -22   45.71    2.19
   0   4  22   36.51    2.29
   0   4 -22   43.08    2.20
  -1  -4 -22   28.46    1.64
  -1   4 -22   30.30    1.67
  -1   4 -22   29.51    1.63
  -2  -4 -22    3.55    0.53
   2  -4  22    3.38    0.59
  -2   4 -22    3.11    0.49
   2   4  22    3.61    0.51
  -2   4 -22    3.61    0.54
   3   4  22    6.05    0.83
  -3   4 -22    4.06    0.60
  -3   4 -22    5.01    0.80
   2   5 -22   15.20    0.91
  -2   5  22   15.05    0.90
   1   5 -22   11.25    0.80
   0   5 -22    4.16    0.59
  -1   5 -22   10.47    0.94
  -1   5 -22   12.73    0.97
   5   0 -23   13.59    1.09
   4   0 -23   16.49    1.09
   3   0 -23   32.28    1.81
   2   0 -23   25.95    1.30
  -2   0  23   24.49    1.54
   1   0 -23    2.43    0.29
  -1   0  23    1.81    0.36
   1   0 -23    2.42    0.27
   0   0 -23  136.54    6.38
   0   0 -23  127.48    5.96
   0   0  23  137.56    6.50
  -1   0 -23   42.83    2.07
   1   0  23   36.78    2.08
  -2   0 -23   16.72    1.09
  -2   0 -23   17.22    0.94
   2   0  23   18.51    1.04
  -3   0 -23    9.05    0.62
   3   0  23   10.67    0.89
  -3   0 -23    8.57    0.83
  -4   0 -23   36.01    1.86
  -4   0 -23   37.78    2.21
   4   0  23   37.74    2.22
  -5   0 -23    7.34    1.15
   5   0  23    6.86    0.92
  -5   0 -23    6.58    0.78
   5  -1 -23   27.19    1.69
   5   1 -23   27.21    1.66
   4  -1 -23   37.36    2.05
   4   1 -23   36.89    2.04
   3  -1 -23    0.29    0.21
   3   1 -23    0.43    0.22
  -3   1  23    0.25    0.43
   2  -1 -23   36.92    1.92
  -2  -1  23   32.14    2.02
   2  -1 -23   33.13    1.81
   2   1 -23   40.79    1.93
  -2   1  23   39.81    2.09
   1  -1 -23  157.61    8.10
  -1  -1  23  166.23    8.77
   1  -1 -23  200.50    8.68
  -1   1  23  171.46    8.78
   1   1 -23  203.60    8.13
   1   1 -23  195.26    8.68
   0  -1 -23    4.79    0.35
   0  -1 -23    4.18    0.35
   0  -1  23    4.18    0.55
  -1  -1 -23   15.35    0.88
   1  -1  23   13.66    0.91
   1   1  23   14.80    0.93
  -1   1 -23   13.19    0.86
  -2  -1 -23   90.66    4.16
  -2  -1 -23   96.05    4.60
  -2   1 -23   92.39    4.24
   2   1  23   90.85    4.51
   3  -1  23   83.19    4.06
  -3  -1 -23   72.28    3.55
  -3  -1 -23   78.18    4.02
   3   1  23   83.04    4.05
  -3   1 -23   73.07    3.67
  -3   1 -23   82.51    4.05
   4  -1  23    6.84    0.92
  -4  -1 -23    6.22    0.89
  -4  -1 -23    4.71    0.50
  -4   1 -23    7.16    0.68
   4   1  23    5.83    0.85
  -4   1 -23    7.23    0.89
   5  -2 -23    5.53    0.84
   5   2 -23    3.25    0.54
  -5   2  23    4.02    0.51
   4  -2 -23    9.57    0.83
  -4   2  23    7.96    0.65
   4   2 -23    9.33    0.77
   3  -2 -23   52.56    2.66
  -3   2  23   50.47    2.42
  -3   2  23   51.92    2.84
   3   2 -23   50.31    2.64
   2  -2 -23   33.80    1.78
   2  -2 -23   32.30    1.71
   2   2 -23   33.29    1.76
  -2   2  23   34.67    1.98
   1  -2 -23   15.55    0.91
   1  -2 -23   17.94    0.93
   1   2 -23   17.91    0.92
  -1   2  23   12.92    1.12
   0  -2 -23   71.44    3.40
   0   2  23   67.38    3.52
   0   2 -23   69.79    3.41
  -1  -2 -23   67.92    3.59
   1   2  23   77.64    3.66
  -2  -2 -23    4.18    0.55
   2   2  23    3.16    0.52
  -2   2 -23    2.87    0.47
   3  -2  23   11.44    1.01
  -3  -2 -23   11.71    0.95
  -3   2 -23   11.74    0.93
  -3   2 -23    9.40    0.78
   3   2  23   10.33    0.94
   3   2  23   11.02    0.81
  -4  -2 -23   28.69    1.87
   4  -2  23   29.19    1.90
   4   2  23   29.82    1.84
  -4   2 -23   28.39    1.84
  -4   2 -23   27.69    1.64
   4  -3 -23   16.22    1.22
  -4   3  23   18.95    1.06
   4   3 -23   18.13    1.19
   3  -3 -23    0.47    0.30
  -3   3  23    0.17    0.21
  -3   3  23    0.74    0.56
   3   3 -23    0.32    0.24
   2  -3 -23   28.09    1.68
   2  -3 -23   28.82    1.69
   2   3 -23   33.79    1.68
  -2   3  23   35.83    1.95
  -2   3  23   33.63    1.56
   1  -3 -23   73.06    3.43
   1  -3 -23   77.98    3.62
  -1   3  23   63.17    3.76
   1   3 -23   82.20    3.63
   0  -3 -23   26.77    1.46
   0  -3 -23   30.55    1.60
   0   3 -23   34.12    1.64
   0   3  23   31.68    1.78
  -1  -3 -23    4.59    0.53
  -1   3 -23    4.84    0.53
   1   3  23    6.34    0.70
  -2  -3 -23   52.13    2.69
   2   3  23   50.68    2.66
  -2   3 -23   49.86    2.54
  -2   3 -23   50.69    2.70
  -3  -3 -23   45.00    2.50
   3  -3  23   47.48    2.56
  -3   3 -23   45.40    2.50
   3   3  23   42.72    2.46
  -3   3 -23   42.08    2.30
   4  -3  23    2.98    0.73
  -4   3 -23    3.11    0.60
  -4   3 -23    2.42    0.62
   4   3  23    2.99    0.62
  -3   4  23   23.38    1.21
   3   4 -23   21.49    1.28
   2  -4 -23   11.13    0.80
  -2   4  23   12.31    0.75
   2   4 -23   14.16    0.77
   1  -4 -23    2.62    0.36
   1   4 -23    2.42    0.34
   0  -4 -23   45.08    2.20
   0   4 -23   39.97    2.21
  -1  -4 -23   44.89    2.40
  -1   4 -23   43.77    2.32
  -1   4 -23   47.58    2.43
   2  -4  23   10.38    1.02
   2   4  23    9.46    0.90
  -2   4 -23    7.96    0.81
  -2   4 -23    9.08    0.88
  -3   4 -23   11.54    1.08
  -3   4 -23   11.91    1.03
   3   4  23   11.87    1.10
   1   5 -23   14.19    0.94
   0   5 -23   21.33    1.30
  -1   5 -23    2.41    0.48
  -1   5 -23    1.94    0.47
   5   0 -24    1.23    0.45
   4   0 -24    9.22    0.79
   3   0 -24   83.90    4.17
   2   0 -24   48.43    2.38
   2   0 -24   47.70    2.23
  -2   0  24   42.07    2.51
   1   0 -24    0.47    0.15
   1   0 -24    0.69    0.17
   0   0 -24    2.06    0.26
   0   0  24    1.53    0.34
   1   0  24  196.68    9.17
  -1   0 -24  186.57    9.14
  -2   0 -24   17.82    1.14
  -2   0 -24   17.92    0.96
   2   0  24   17.77    1.08
  -3   0 -24    0.19    0.20
  -3   0 -24   -0.20    0.27
   3   0  24    0.53    0.36
   4   0  24   35.08    2.17
  -4   0 -24   33.64    1.81
  -4   0 -24   38.71    2.19
   5  -1 -24   15.33    1.20
   5   1 -24   15.25    1.17
   4  -1 -24   38.22    2.05
   4   1 -24   35.68    2.04
   3   1 -24    1.96    0.34
   2  -1 -24   17.65    1.08
   2  -1 -24   21.17    1.13
  -2   1  24   17.52    1.32
   1  -1 -24   95.92    4.63
  -1  -1  24   84.50    4.75
   1  -1 -24   82.19    4.33
   1   1 -24  106.26    4.64
  -1   1  24   97.11    4.79
   1   1 -24  109.46    4.36
   0  -1 -24   97.41    4.70
   0  -1 -24  106.86    5.04
   0  -1  24  106.71    5.16
   0   1  24  110.20    5.18
   0   1 -24  103.72    5.04
  -1  -1 -24    6.05    0.39
   1  -1  24    5.92    0.59
  -1  -1 -24    6.26    0.51
   1   1  24    6.10    0.63
  -1   1 -24    5.25    0.49
  -2  -1 -24   26.98    1.33
  -2  -1 -24   29.32    1.60
   2   1  24   27.34    1.54
  -2   1 -24   26.78    1.41
  -2   1 -24   27.12    1.58
  -3  -1 -24   25.40    1.36
   3  -1  24   30.87    1.77
   3   1  24   29.27    1.74
  -3   1 -24   28.33    1.72
  -3   1 -24   26.82    1.48
  -4  -1 -24    7.62    0.96
   4  -1  24    6.06    0.96
  -4  -1 -24    5.57    0.55
  -4   1 -24    6.33    0.68
   4   1  24    5.50    0.76
  -4   1 -24    5.71    0.88
   4  -2 -24    6.47    0.75
   4   2 -24    6.22    0.67
  -4   2  24    6.69    0.59
   3  -2 -24   56.51    2.89
   3   2 -24   56.29    2.88
  -3   2  24   55.29    3.09
   2  -2 -24   64.23    3.31
   2  -2 -24   63.20    3.15
   2   2 -24   68.22    3.31
  -2   2  24   70.75    3.51
   1  -2 -24    5.54    0.40
   1  -2 -24    3.80    0.47
  -1   2  24    4.47    0.75
   1   2 -24    4.75    0.39
   0  -2 -24   50.72    2.64
   0   2  24   56.34    2.81
  -1  -2 -24  123.06    5.97
  -1   2 -24  113.48    5.97
   1   2  24  133.53    6.03
  -2  -2 -24   27.65    1.65
  -2   2 -24   28.20    1.52
  -2   2 -24   29.26    1.66
   2   2  24   29.05    1.63
  -3  -2 -24    1.06    0.41
   3  -2  24    1.61    0.52
  -3   2 -24    1.02    0.37
   3   2  24    0.62    0.39
  -3   2 -24    0.87    0.32
   3   2  24    0.70    0.36
  -4  -2 -24   18.75    1.55
   4  -2  24   20.63    1.57
   4   2  24   21.38    1.51
  -4   2 -24   20.90    1.50
  -4   2 -24   19.75    1.31
   4  -3 -24   22.24    1.52
   4   3 -24   24.63    1.48
  -4   3  24   24.48    1.31
   3  -3 -24   10.11    0.81
  -3   3  24    9.36    1.24
  -3   3  24    9.16    0.65
   3   3 -24    8.93    0.72
   2  -3 -24    8.03    0.61
   2  -3 -24    6.25    0.77
   2   3 -24    7.45    0.54
  -2   3  24    7.87    1.02
   1  -3 -24   51.33    2.49
   1  -3 -24   47.29    2.39
   1   3 -24   51.27    2.49
   0  -3 -24   27.42    1.44
   0  -3 -24   34.21    1.60
   0   3 -24   28.91    1.59
   0   3  24   28.88    1.75
  -1  -3 -24    0.03    0.23
  -1   3 -24    0.14    0.26
   1   3  24    0.38    0.38
  -2  -3 -24   28.41    1.66
   2   3  24   29.09    1.67
  -2   3 -24   28.08    1.66
  -2   3 -24   25.90    1.54
   3  -3  24   44.95    2.51
  -3  -3 -24   39.98    2.43
   3   3  24   42.58    2.41
  -3   3 -24   43.57    2.44
  -3   3 -24   41.45    2.24
   3   4 -24   24.35    1.39
  -3   4  24   25.99    1.35
   2  -4 -24   32.19    1.72
   2   4 -24   33.45    1.70
   1  -4 -24    0.66    0.21
   1   4 -24    0.85    0.21
   0  -4 -24   14.53    0.96
   0   4 -24   15.20    0.97
  -1  -4 -24   27.92    1.69
  -1   4 -24   31.16    1.68
  -1   4 -24   29.78    1.71
   2  -4  24   29.04    1.84
  -2   4 -24   27.29    1.71
   2   4  24   29.33    1.70
  -2   4 -24   24.95    1.59
   1   5 -24   13.77    0.95
   0   5 -24   10.47    0.88
   5   0 -25    9.60    0.98
   4   0 -25    0.42    0.30
   3   0 -25   18.18    1.14
   2   0 -25  118.77    5.42
  -2   0  25  103.31    5.57
   1   0 -25    5.04    0.41
  -1   0  25    5.18    0.66
   1   0 -25    5.71    0.43
   0   0 -25   17.07    0.97
   0   0 -25   16.58    0.90
   0   0  25   19.94    1.18
   1   0  25   59.68    3.04
  -1   0 -25   59.35    2.99
  -2   0 -25   28.82    1.44
  -3   0 -25    0.32    0.36
  -3   0 -25    0.23    0.22
   3   0  25   -0.02    0.39
  -4   0 -25    8.92    0.75
   4   0  25    9.09    1.07
  -4   0 -25    9.42    1.05
   5  -1 -25   11.33    1.07
   5   1 -25   11.24    1.02
   4  -1 -25   37.69    2.13
   4   1 -25   39.44    2.13
   3  -1 -25   28.53    1.62
   3   1 -25   28.64    1.61
   2  -1 -25    1.20    0.36
   2  -1 -25    1.24    0.26
   2   1 -25    1.17    0.24
  -2   1  25    1.34    0.49
   1  -1 -25  101.14    4.80
  -1  -1  25  115.88    5.11
   1  -1 -25   89.31    4.49
   1   1 -25   94.57    4.78
   1   1 -25  103.51    4.52
  -1   1  25   93.01    4.94
   0  -1  25  140.31    6.92
   0  -1 -25  137.52    6.80
   0  -1 -25  134.50    6.35
   0   1 -25  145.55    6.81
   0   1  25  155.60    6.96
  -1  -1 -25    3.12    0.40
  -1  -1 -25    3.45    0.30
   1   1  25    3.71    0.57
  -2  -1 -25   24.03    1.44
  -2  -1 -25   23.56    1.18
  -2   1 -25   23.56    1.43
  -2   1 -25   23.58    1.27
   2   1  25   24.17    1.40
  -3  -1 -25   64.73    3.41
  -3  -1 -25   57.76    2.94
   3   1  25   71.07    3.45
  -3   1 -25   64.93    3.41
   4  -1  25   12.20    1.29
  -4  -1 -25   14.14    1.30
  -4   1 -25   13.82    0.99
  -4   1 -25   15.39    1.29
   4   1  25   13.63    1.25
   4  -2 -25    1.05    0.37
   4   2 -25    0.67    0.32
   3  -2 -25   17.97    1.15
   3   2 -25   16.17    1.06
   2  -2 -25   73.30    3.36
   2  -2 -25   61.11    3.17
   2   2 -25   67.64    3.32
  -2   2  25   64.79    3.53
   1  -2 -25   33.20    1.60
   1   2 -25   31.20    1.58
  -1   2  25   26.54    1.80
   0  -2 -25    6.53    0.50
   0   2 -25    6.86    0.50
   0   2  25    6.73    0.76
  -1  -2 -25   84.41    4.16
   1   2  25   90.32    4.22
  -1   2 -25   77.92    4.16
  -2  -2 -25   44.90    2.44
  -2   2 -25   45.58    2.45
  -2   2 -25   42.90    2.24
   2   2  25   47.28    2.42
  -3  -2 -25    5.47    0.82
   3  -2  25    4.06    0.66
  -3   2 -25    4.89    0.74
  -3   2 -25    4.99    0.60
   3   2  25    5.10    0.78
  -4  -2 -25    7.02    0.92
   4  -2  25    7.71    1.15
  -4   2 -25    5.80    0.83
  -4   2 -25    6.86    1.00
   4   2  25    6.70    1.01
   4  -3 -25   30.27    1.80
   4   3 -25   29.76    1.72
  -4   3  25   28.14    1.55
   3  -3 -25    6.91    0.70
   3   3 -25    6.79    0.60
  -3   3  25    5.28    0.56
   2  -3 -25    2.30    0.33
   2   3 -25    2.41    0.32
  -2   3  25    2.61    0.66
   1  -3 -25   55.46    2.58
   1  -3 -25   48.72    2.48
  -1   3  25   42.92    2.79
   1   3 -25   58.87    2.59
   0  -3 -25   65.75    3.37
   0  -3 -25   77.36    3.66
   0   3 -25   78.16    3.68
   0   3  25   76.77    3.83
  -1  -3 -25    4.61    0.57
   1   3  25    5.60    0.78
  -1   3 -25    3.75    0.54
  -2  -3 -25   10.14    0.94
  -2   3 -25   10.43    0.89
   2   3  25    9.80    1.00
  -2   3 -25   10.57    0.82
  -3  -3 -25   35.11    2.23
   3  -3  25   38.19    2.29
   3   3  25   37.03    2.19
  -3   3 -25   39.42    2.23
  -3   3 -25   35.37    2.02
  -3   4  25   29.36    1.50
   3   4 -25   27.78    1.56
   2   4 -25   27.90    1.48
   1  -4 -25   18.84    1.07
   1   4 -25   18.51    1.07
   0  -4 -25    3.47    0.54
   0   4 -25    3.13    0.42
  -1   4 -25   25.61    1.54
  -1   4 -25   25.35    1.49
   2   4  25   16.12    1.23
  -2   4 -25   14.78    1.12
  -2   4 -25   15.65    1.20
   4   0 -26    0.60    0.30
   3   0 -26   36.21    1.97
  -1   0  26   19.00    1.30
   1   0 -26   18.87    1.07
   1   0 -26   20.19    1.03
   0   0 -26   32.07    1.64
   0   0  26   36.33    1.94
   0   0 -26   35.29    1.77
  -1   0 -26  109.23    5.21
   1   0  26  104.38    5.25
  -2   0 -26   72.45    3.30
  -2   0 -26   69.93    3.64
  -3   0 -26   30.96    1.85
  -3   0 -26   28.66    1.53
  -4   0 -26    8.96    0.81
  -4   0 -26   12.63    1.23
   4   0  26   11.57    1.22
   4  -1 -26   28.93    1.68
   4   1 -26   27.23    1.65
   3  -1 -26   36.60    2.04
   3   1 -26   38.42    2.03
   2  -1 -26    8.93    0.66
  -2   1  26    7.85    1.00
   2   1 -26    9.32    0.65
   1  -1 -26   28.59    1.49
   1  -1 -26   28.07    1.43
   1   1 -26   28.53    1.50
  -1   1  26   28.22    1.72
   0  -1 -26  112.68    5.17
   0  -1 -26  112.68    5.54
   0   1  26  120.77    5.69
  -1  -1 -26   22.21    1.05
  -1  -1 -26   20.17    1.22
  -1   1 -26   21.21    1.24
   1   1  26   21.25    1.33
  -2  -1 -26    0.72    0.17
  -2  -1 -26    0.63    0.20
  -2  -1 -26    0.49    0.28
  -2   1 -26    0.64    0.30
  -2   1 -26    0.90    0.24
   2   1  26    0.33    0.34
   3  -1  26   38.48    2.12
  -3  -1 -26   32.03    2.03
  -3  -1 -26   29.15    1.64
  -3   1 -26   33.69    1.79
   3   1  26   39.09    2.12
  -3   1 -26   35.46    2.07
   4  -1  26   45.98    2.67
  -4  -1 -26   46.10    2.65
  -4   1 -26   43.65    2.61
  -4   1 -26   39.12    2.23
   4   1  26   45.08    2.62
   4  -2 -26    1.10    0.41
   4   2 -26    1.17    0.37
   3  -2 -26   10.73    0.86
   3   2 -26   12.05    0.83
   2  -2 -26   87.38    4.23
  -2   2  26   76.48    4.40
   2   2 -26   92.87    4.22
   1  -2 -26   18.57    1.03
   1   2 -26   19.22    1.03
  -1   2  26   17.07    1.35
   0  -2 -26    1.23    0.22
   0  -2 -26    0.63    0.25
   0   2 -26    1.25    0.22
   0   2  26    1.92    0.45
  -1  -2 -26   65.66    3.27
  -1   2 -26   60.58    3.27
   1   2  26   68.03    3.34
  -2  -2 -26   43.09    2.41
   2   2  26   47.97    2.41
  -2   2 -26   42.21    2.21
  -2   2 -26   43.41    2.41
   3  -2  26    7.95    1.04
  -3  -2 -26    8.27    0.95
   3   2  26    5.59    0.87
  -3   2 -26    5.82    0.69
  -3   2 -26    6.47    0.85
  -4  -2 -26    1.44    0.68
   4  -2  26    1.86    0.70
   4   2  26    0.50    0.55
  -4   2 -26    1.24    0.51
  -4   2 -26    1.31    0.57
   3  -3 -26   23.31    1.48
   3   3 -26   25.97    1.43
   2  -3 -26    1.87    0.31
  -2   3  26    2.23    0.68
   2   3 -26    1.78    0.26
   1  -3 -26   40.25    1.97
   1  -3 -26   32.08    1.91
   1   3 -26   43.06    1.99
   0  -3 -26   79.79    3.91
   0   3  26   79.93    4.09
   0   3 -26   79.54    3.93
  -1  -3 -26   26.20    1.58
  -1   3 -26   24.96    1.58
   1   3  26   32.28    1.76
  -2  -3 -26    5.46    0.77
  -2   3 -26    4.39    0.67
  -2   3 -26    4.25    0.62
  -3  -3 -26   11.52    1.19
   3  -3  26   12.01    1.28
  -3   3 -26    9.85    1.07
   3   3  26    9.67    1.08
  -3   3 -26    9.65    0.93
   2   4 -26   35.90    1.86
   1   4 -26   17.74    1.05
   0   4 -26    1.28    0.35
  -1   4 -26   14.37    1.03
  -1   4 -26   13.49    1.04
   2   4  26   42.96    2.32
  -2   4 -26   39.05    2.29
  -2   4 -26   36.83    2.15
   4   0 -27    9.67    0.88
   3   0 -27    7.84    0.70
   2   0 -27   88.17    4.34
   1   0 -27   71.29    3.61
   1   0 -27   75.81    3.38
   0   0 -27   17.85    0.97
   0   0 -27   15.81    0.89
   0   0  27   17.18    1.16
  -2   0 -27   57.49    2.71
  -2   0 -27   57.78    3.03
  -3   0 -27   12.86    0.86
  -3   0 -27   14.42    1.15
  -4   0 -27    0.71    0.40
   4   0  27    1.05    0.61
  -4   0 -27    1.13    0.59
   4  -1 -27   23.36    1.47
   4   1 -27   23.07    1.45
   3  -1 -27   54.78    2.73
   3   1 -27   49.22    2.70
   2   1 -27    3.23    0.40
   1  -1 -27    5.70    0.52
   1  -1 -27    4.90    0.43
  -1   1  27    5.67    0.81
   1   1 -27    5.28    0.42
   0  -1 -27   86.30    4.03
   0  -1 -27   90.99    4.33
   0   1 -27   86.09    4.33
   0   1  27   93.52    4.49
  -1  -1 -27   39.02    2.10
  -1  -1 -27   41.40    1.86
  -1   1 -27   37.98    2.10
   1   1  27   41.04    2.20
  -2  -1 -27    1.37    0.21
  -2  -1 -27    0.80    0.22
  -2   1 -27    0.94    0.32
  -2   1 -27    0.70    0.26
   3  -1  27   40.37    2.24
  -3  -1 -27   34.19    2.14
  -3  -1 -27   29.86    1.72
   3   1  27   42.95    2.23
  -3   1 -27   34.84    1.88
  -3   1 -27   36.62    2.16
  -4  -1 -27   22.10    1.68
   4  -1  27   20.77    1.67
   4   1  27   20.54    1.64
  -4   1 -27   21.53    1.64
  -4   1 -27   18.53    1.30
   4  -2 -27    9.63    0.92
   4   2 -27    8.61    0.84
   3  -2 -27    3.64    0.50
   3   2 -27    3.10    0.50
   2  -2 -27   19.85    1.19
  -2   2  27   17.13    1.60
   2   2 -27   23.11    1.18
   1  -2 -27   98.87    4.50
   1   2 -27   92.50    4.49
  -1   2  27   86.35    4.71
   0  -2 -27   12.55    0.81
   0   2 -27   13.86    0.83
   0   2  27   14.02    1.10
  -1  -2 -27   12.81    0.88
  -1   2 -27   12.67    0.88
   1   2  27   12.17    1.02
  -2  -2 -27   37.74    2.30
  -2   2 -27   41.80    2.12
   2   2  27   47.11    2.34
  -2   2 -27   39.82    2.30
   3  -2  27   17.13    1.41
  -3  -2 -27   14.49    1.28
  -3   2 -27   16.04    1.24
  -3   2 -27   14.61    1.06
   3   2  27   15.00    1.29
   3  -3 -27   30.85    1.75
   3   3 -27   30.26    1.69
   2  -3 -27   10.87    0.74
   2   3 -27    9.20    0.66
   1  -3 -27    7.52    0.55
   1  -3 -27    5.13    0.71
  -1   3  27    6.07    0.87
   1   3 -27    8.13    0.54
   0  -3 -27   48.65    2.59
   0   3 -27   49.37    2.61
   0   3  27   56.23    2.85
  -1  -3 -27   35.12    1.90
  -1   3 -27   28.79    1.87
   1   3  27   38.52    2.06
  -2  -3 -27    3.37    0.60
  -2   3 -27    3.91    0.55
  -2   3 -27    2.74    0.51
   3  -3  27   16.66    1.54
  -3   3 -27   13.75    1.12
  -3   3 -27   14.24    1.30
   3   3  27   14.79    1.31
   2   4 -27   19.81    1.12
   1   4 -27   13.34    0.86
   0   4 -27    0.09    0.29
  -1   4 -27   11.41    0.89
  -1   4 -27    8.04    0.86
   2   4  27   26.13    1.67
  -2   4 -27   24.25    1.64
  -2   4 -27   21.04    1.49
   4   0 -28   22.58    1.45
   3   0 -28    0.22    0.25
   2   0 -28   41.20    2.15
   1   0 -28  154.32    7.37
   0   0 -28    6.31    0.50
   0   0 -28    5.93    0.47
  -1   0 -28   12.99    0.87
  -2   0 -28   49.59    2.64
  -2   0 -28   48.08    2.34
  -3   0 -28   19.69    1.38
  -3   0 -28   17.58    1.08
   4   0  28    1.51    0.67
  -4   0 -28    0.28    0.59
   4  -1 -28   13.32    1.05
   4   1 -28   11.55    1.00
   3  -1 -28   52.81    2.74
   3   1 -28   51.66    2.73
   2  -1 -28   36.58    1.87
   2   1 -28   33.44    1.84
   1  -1 -28    9.77    0.63
   1  -1 -28    9.91    0.69
   1   1 -28    8.48    0.60
  -1   1  28   10.62    0.99
   0  -1 -28   85.12    4.16
   0  -1 -28   81.90    3.87
   0   1 -28   87.31    4.17
   0   1  28   86.92    4.33
  -1  -1 -28   70.33    3.30
  -1  -1 -28   70.41    3.64
   1   1  28   81.63    3.85
  -1   1 -28   70.22    3.65
  -2  -1 -28   12.71    0.69
  -2  -1 -28   12.65    0.97
  -2  -1 -28   11.50    0.72
  -2   1 -28   12.13    0.97
  -2   1 -28   12.39    0.81
  -3  -1 -28   10.85    1.02
  -3  -1 -28    9.19    0.64
  -3   1 -28    8.03    0.97
  -3   1 -28    8.02    0.75
   4  -2 -28   11.10    1.02
   4   2 -28    9.50    0.90
   3  -2 -28    0.22    0.31
   3   2 -28    0.83    0.27
   2  -2 -28   15.39    1.04
   2   2 -28   16.64    0.96
   1  -2 -28   61.58    2.95
   1   2 -28   59.32    2.95
  -1   2  28   57.64    3.24
   0  -2 -28    8.42    0.65
   0   2 -28   10.00    0.67
   0   2  28   11.96    1.00
  -1  -2 -28    9.00    0.70
   1   2  28    8.11    0.93
  -1   2 -28    6.93    0.68
  -2   2 -28   50.56    2.43
  -2   2 -28   45.81    2.62
  -3  -2 -28   19.80    1.49
   3  -2  28   22.84    1.61
  -3   2 -28   16.13    1.17
   3   2  28   17.60    1.45
  -3   2 -28   16.87    1.39
   3  -3 -28   23.75    1.50
   3   3 -28   26.14    1.45
   2  -3 -28   34.71    1.82
   2   3 -28   34.09    1.79
   1  -3 -28    0.69    0.22
   1   3 -28    0.45    0.18
  -1   3  28    0.84    0.75
   0  -3 -28   34.60    1.86
   0   3  28   35.94    2.15
   0   3 -28   34.72    1.88
  -1  -3 -28   40.08    2.13
  -1   3 -28   36.56    2.11
  -2  -3 -28    4.73    0.68
  -2   3 -28    3.14    0.57
  -2   3 -28    4.44    0.65
   2   4 -28   27.80    1.50
   1   4 -28   33.83    1.81
   0   4 -28   11.37    0.89
  -1   4 -28    5.32    0.77
   4   0 -29   38.53    2.19
   3   0 -29    0.37    0.28
   2   0 -29   18.33    1.09
   1   0 -29   90.61    4.40
   0   0 -29   60.79    3.00
   0   0 -29   59.96    2.79
  -1   0 -29    2.24    0.37
  -2   0 -29   34.06    2.01
  -2   0 -29   36.03    1.76
  -3   0 -29   47.69    2.44
  -3   0 -29   52.68    2.86
   4  -1 -29    7.64    0.87
   4   1 -29    6.83    0.81
   3  -1 -29   41.67    2.17
   3   1 -29   36.98    2.12
   2  -1 -29   24.02    1.41
   2   1 -29   26.64    1.42
   1  -1 -29    2.00    0.30
   1   1 -29    2.29    0.30
   0  -1 -29   35.53    1.74
   0   1 -29   35.96    1.87
  -1  -1 -29   83.70    3.77
  -1  -1 -29   84.62    4.16
  -1   1 -29   82.10    4.16
  -2  -1 -29   24.27    1.47
  -2  -1 -29   21.66    1.16
  -2   1 -29   21.92    1.43
  -2   1 -29   21.77    1.24
  -3  -1 -29    1.68    0.54
   3  -1  29    1.85    0.63
  -3   1 -29    1.55    0.53
  -3   1 -29    2.06    0.44
   3  -2 -29    0.95    0.36
   3   2 -29    1.74    0.34
   2  -2 -29   29.23    1.55
   2   2 -29   26.83    1.51
   1  -2 -29   48.60    2.43
   1   2 -29   49.07    2.43
  -1   2  29   46.99    2.75
   0  -2 -29   47.37    2.40
   0   2 -29   45.30    2.40
   0   2  29   48.70    2.64
  -1  -2 -29    2.12    0.39
  -1   2 -29    1.80    0.37
   1   2  29    1.22    0.55
  -2  -2 -29   35.74    2.10
  -2   2 -29   35.14    1.88
  -2   2 -29   35.86    2.07
   3  -2  29   28.45    1.95
  -3  -2 -29   24.66    1.83
   3   2  29   27.72    1.82
  -3   2 -29   24.98    1.77
  -3   2 -29   24.39    1.53
   3  -3 -29   24.37    1.56
   3   3 -29   27.99    1.50
   2  -3 -29   14.99    0.98
   2   3 -29   13.93    0.87
   1  -3 -29    0.67    0.23
   1   3 -29    0.61    0.21
   0  -3 -29   22.99    1.36
   0   3 -29   24.46    1.37
  -1  -3 -29   43.79    2.28
  -1   3 -29   38.29    2.25
  -2  -3 -29    5.25    0.78
  -2   3 -29    4.74    0.80
  -2   3 -29    5.91    0.73
   1   4 -29   50.25    2.58
   0   4 -29   12.33    0.97
   4   0 -30   26.05    1.64
   3   0 -30   27.24    1.59
   2   0 -30    0.23    0.20
   1   0 -30   47.33    2.39
   0   0 -30   31.71    1.68
  -1   0 -30    1.80    0.28
  -1   0 -30    2.19    0.36
  -2   0 -30   26.94    1.69
  -2   0 -30   28.19    1.44
  -3   0 -30   12.69    1.21
  -3   0 -30   12.98    0.90
   3  -1 -30   21.09    1.33
   3   1 -30   21.09    1.30
   2  -1 -30   78.87    3.93
   2   1 -30   80.04    3.93
   1  -1 -30   19.63    1.08
   1   1 -30   18.57    1.07
   0  -1 -30   20.49    1.17
   0  -1 -30   21.07    1.12
   0   1 -30   20.45    1.17
  -1  -1 -30   50.82    2.64
  -1  -1 -30   50.12    2.36
  -1   1 -30   50.89    2.65
  -2  -1 -30   24.74    1.32
  -2  -1 -30   25.62    1.63
  -2   1 -30   26.85    1.42
  -2   1 -30   26.06    1.62
  -3  -1 -30    1.42    0.56
   3  -1  30    2.02    0.69
  -3   1 -30    0.73    0.52
  -3   1 -30    1.21    0.41
   3  -2 -30    4.79    0.65
   3   2 -30    3.77    0.54
   2  -2 -30    0.27    0.23
   2   2 -30    0.51    0.19
   1   2 -30   36.40    1.88
   0   2 -30   36.95    1.95
  -1   2 -30   11.76    0.90
  -2  -2 -30   13.86    1.19
  -2   2 -30   15.39    1.01
  -2   2 -30   14.09    1.12
   3  -2  30   36.54    2.27
  -3  -2 -30   29.69    2.10
  -3   2 -30   30.12    2.07
   3   2  30   33.31    2.14
  -3   2 -30   31.14    1.82
   2  -3 -30   24.77    1.41
   2   3 -30   25.30    1.38
   1  -3 -30    1.46    0.28
   1   3 -30    1.20    0.26
   0  -3 -30    5.61    0.60
   0   3 -30    5.93    0.60
  -1  -3 -30   44.34    2.46
  -1   3 -30   45.71    2.47
  -2  -3 -30   31.69    2.07
  -2   3 -30   35.82    1.88
  -2   3 -30   30.16    1.99
   3   0 -31   27.59    1.61
   2   0 -31    2.37    0.39
   1   0 -31   30.00    1.59
   0   0 -31  100.73    4.90
  -1   0 -31   18.13    1.15
  -2   0 -31    7.93    0.84
  -2   0 -31    7.34    0.62
  -3   0 -31   13.18    1.27
   3  -1 -31   15.72    1.11
   3   1 -31   16.46    1.09
   2  -1 -31   52.59    2.68
   2   1 -31   52.39    2.67
   1  -1 -31   23.36    1.28
   1   1 -31   23.54    1.28
   0  -1 -31    0.46    0.30
   0  -1 -31    0.37    0.20
   0   1 -31    0.49    0.20
  -1  -1 -31   69.12    3.51
  -1   1 -31   68.84    3.51
  -2  -1 -31   20.76    1.39
  -2  -1 -31   19.27    1.09
  -2   1 -31   22.00    1.20
  -2   1 -31   18.90    1.38
   3  -1  31   13.74    1.39
  -3  -1 -31   10.42    1.21
  -3   1 -31    8.86    1.15
  -3   1 -31   10.89    0.92
   3  -2 -31   23.94    1.43
   3   2 -31   21.49    1.35
   2  -2 -31    4.56    0.51
   2   2 -31    4.42    0.45
   1  -2 -31   40.17    2.16
   1   2 -31   44.66    2.18
   0  -2 -31   55.35    2.82
   0   2 -31   56.03    2.84
  -1  -2 -31   15.16    1.04
  -1   2 -31   12.78    1.00
  -2  -2 -31    9.54    1.03
  -2   2 -31    9.28    0.80
  -2   2 -31    7.92    0.91
   2  -3 -31   29.08    1.67
   2   3 -31   32.46    1.65
   1   3 -31   25.38    1.41
   0  -3 -31    6.27    0.66
   0   3 -31    5.76    0.62
  -1   3 -31   22.47    1.46
   3   0 -32   17.03    1.15
   2   0 -32    4.85    0.49
   1   0 -32   35.23    1.84
   0   0 -32   58.28    2.94
  -1   0 -32   36.85    2.02
  -2   0 -32    9.42    0.71
  -2   0 -32    8.89    0.94
  -3   0 -32   12.69    0.95
  -3   0 -32   10.86    1.27
   3  -1 -32    4.71    0.67
   3   1 -32    5.09    0.61
   2  -1 -32   43.80    2.24
   2   1 -32   42.01    2.22
   1  -1 -32   45.25    2.27
   1   1 -32   43.42    2.26
   0  -1 -32    0.38    0.21
   0   1 -32    0.31    0.20
  -1  -1 -32   23.79    1.50
  -1   1 -32   26.94    1.52
  -2  -1 -32   52.01    2.65
  -2  -1 -32   56.37    3.07
  -2   1 -32   57.44    3.08
  -2   1 -32   60.22    2.77
   2  -2 -32    4.40    0.52
   2   2 -32    3.78    0.44
   1  -2 -32   14.59    0.90
   1   2 -32   13.80    0.88
   0  -2 -32   45.47    2.44
   0   2 -32   48.91    2.46
  -1  -2 -32   28.17    1.68
  -1   2 -32   28.18    1.67
  -2  -2 -32    0.16    0.50
  -2   2 -32    0.91    0.38
  -2   2 -32    0.24    0.41
   1  -3 -32   27.41    1.49
   1   3 -32   25.98    1.48
   0  -3 -32    2.01    0.41
   0   3 -32    2.17    0.41
  -1  -3 -32   17.62    1.33
  -1   3 -32   18.45    1.29
   3   0 -33   33.36    1.89
   2   0 -33   18.00    1.08
   1   0 -33    3.16    0.38
   0   0 -33   50.41    2.58
  -1   0 -33   23.32    1.42
  -2   0 -33    3.85    0.52
  -2   0 -33    2.81    0.55
   3  -1 -33   -0.06    0.32
   3   1 -33    0.29    0.30
   2  -1 -33   13.32    0.90
   2   1 -33   14.62    0.90
   1  -1 -33   36.53    1.89
   1   1 -33   35.79    1.89
   0  -1 -33   16.97    1.04
   0   1 -33   16.82    1.04
  -1  -1 -33   20.49    1.25
  -1   1 -33   17.49    1.23
  -2  -1 -33   27.84    1.79
  -2   1 -33   26.31    1.77
  -2   1 -33   29.10    1.55
   2  -2 -33    7.59    0.66
   2   2 -33    7.55    0.60
   1  -2 -33    3.88    0.49
   1   2 -33    4.73    0.46
   0  -2 -33   34.72    1.83
   0   2 -33   32.16    1.82
  -1  -2 -33   28.01    1.74
  -1   2 -33   30.31    1.75
   2   0 -34   29.43    1.62
   1   0 -34    4.05    0.45
   0   0 -34   39.10    2.07
  -1   0 -34   39.18    2.17
  -2   0 -34   19.12    1.13
  -2   0 -34   18.20    1.39
   2  -1 -34   21.70    1.33
   2   1 -34   24.73    1.34
   1  -1 -34   38.74    2.05
   1   1 -34   40.11    2.06
   0  -1 -34   24.86    1.44
   0   1 -34   25.34    1.44
  -1  -1 -34    1.26    0.39
  -1   1 -34    0.24    0.33
  -2  -1 -34   30.85    1.89
  -2   1 -34   26.04    1.81
  -2   1 -34   28.75    1.58
   1  -2 -34    2.19    0.35
   1   2 -34    2.14    0.32
   0  -2 -34   36.26    2.01
   0   2 -34   38.32    2.03
  -1  -2 -34   45.81    2.42
  -1   2 -34   40.59    2.38
   2   0 -35   31.19    1.70
   1   0 -35    2.51    0.42
   0   0 -35   19.44    1.19
  -1   0 -35   40.95    2.27
   2  -1 -35   10.58    0.78
   2   1 -35    9.30    0.73
   1  -1 -35   50.39    2.63
   1   1 -35   52.80    2.64
   0  -1 -35   29.86    1.61
   0   1 -35   26.79    1.60
  -1  -1 -35    7.92    0.84
  -1   1 -35    8.14    0.84
   0  -2 -35    7.80    0.76
   0   2 -35    8.00    0.73
   1   0 -36   12.11    0.84
   0   0 -36    4.46    0.56
   1  -1 -36   16.50    1.04
   1   1 -36   17.02    1.04
   0  -1 -36   32.22    1.74
   0   1 -36   29.25    1.72
   0   0   0    0.00    0.00
;
_shelx_hkl_checksum              53546
loop_
_space_group_symop_operation_xyz
'x, y, z'
'-x, y+1/2, -z'
loop_
_atom_site_label
_atom_site_type_symbol
_atom_site_fract_x
_atom_site_fract_y
_atom_site_fract_z
_atom_site_U_iso_or_equiv
_atom_site_adp_type
_atom_site_occupancy
_atom_site_site_symmetry_order
_atom_site_calc_flag
_atom_site_refinement_flags_posn
_atom_site_refinement_flags_adp
I1 I 0.63751(3) 0.75230(9) 0.95250(2) 0.02168(7) Uani 1 1 d . .
F1 F -0.4677(4) 0.6775(4) 0.57279(8) 0.0257(5) Uani 1 1 d . .
F2 F -0.3717(4) 0.3034(4) 0.53653(8) 0.0266(5) Uani 1 1 d . .
F3 F -0.1120(4) 0.6483(5) 0.52859(8) 0.0274(5) Uani 1 1 d . .
O1 O 0.5041(5) -0.0323(5) 0.73690(10) 0.0229(5) Uani 1 1 d . .
N1 N 0.5230(5) 0.4052(5) 0.76155(10) 0.0130(5) Uani 1 1 d . .
H1 H 0.490(7) 0.576(10) 0.7499(18) 0.016 Uiso 1 1 d . U
C1 C 0.2496(5) 0.2868(8) 0.68784(11) 0.0142(6) Uani 1 1 d . .
C2 C 0.0657(5) 0.4994(6) 0.69202(12) 0.0143(6) Uani 1 1 d . .
H2 H 0.057601 0.595558 0.722619 0.017 Uiso 1 1 calc R U
C3 C -0.1062(5) 0.5704(7) 0.65121(12) 0.0156(6) Uani 1 1 d . .
H3 H -0.232208 0.714284 0.653924 0.019 Uiso 1 1 calc R U
C4 C -0.0918(5) 0.4299(6) 0.60681(12) 0.0146(6) Uani 1 1 d . .
C5 C 0.0883(5) 0.2160(8) 0.60247(12) 0.0172(7) Uani 1 1 d . .
H5 H 0.095989 0.119750 0.571879 0.021 Uiso 1 1 calc R U
C6 C 0.2569(6) 0.1446(7) 0.64344(13) 0.0171(6) Uani 1 1 d . .
H6 H 0.378448 -0.003211 0.640931 0.021 Uiso 1 1 calc R U
C7 C 0.4382(5) 0.2042(6) 0.73091(11) 0.0144(7) Uani 1 1 d . .
C8 C 0.6813(5) 0.3744(6) 0.80672(11) 0.0131(5) Uani 1 1 d . .
C9 C 0.6155(6) 0.5411(6) 0.84653(12) 0.0145(5) Uani 1 1 d . .
H9 H 0.472031 0.668747 0.842468 0.017 Uiso 1 1 calc R U
C10 C 0.7607(6) 0.5193(6) 0.89193(13) 0.0165(6) Uani 1 1 d . .
C11 C 0.9759(6) 0.3377(7) 0.89816(13) 0.0189(6) Uani 1 1 d . .
H11 H 1.076677 0.325463 0.929216 0.023 Uiso 1 1 calc R U
C12 C 1.0403(6) 0.1756(7) 0.85832(14) 0.0213(7) Uani 1 1 d . .
H12 H 1.187415 0.051972 0.862190 0.026 Uiso 1 1 calc R U
C13 C 0.8935(5) 0.1902(6) 0.81267(12) 0.0162(7) Uani 1 1 d . .
H13 H 0.937988 0.075304 0.785830 0.019 Uiso 1 1 calc R U
C14 C -0.2620(6) 0.5137(7) 0.56129(12) 0.0173(6) Uani 1 1 d . .
loop_
_atom_site_aniso_label
_atom_site_aniso_U_11
_atom_site_aniso_U_22
_atom_site_aniso_U_33
_atom_site_aniso_U_23
_atom_site_aniso_U_13
_atom_site_aniso_U_12
I1 0.03010(11) 0.02252(12) 0.01244(10) -0.00242(10) 0.00111(6) -0.00481(10)
F1 0.0226(8) 0.0323(14) 0.0216(11) -0.0023(8) -0.0059(7) 0.0121(7)
F2 0.0262(8) 0.0291(16) 0.0236(10) -0.0070(9) -0.0094(7) -0.0012(8)
F3 0.0272(9) 0.0373(12) 0.0174(10) 0.0101(9) -0.0015(7) -0.0030(8)
O1 0.0315(12) 0.0086(12) 0.0274(15) 0.0015(10) -0.0110(10) 0.0007(9)
N1 0.0170(10) 0.0088(12) 0.0128(12) 0.0019(10) -0.0030(9) 0.0017(9)
C1 0.0137(9) 0.0133(19) 0.0155(12) 0.0005(12) -0.0003(8) -0.0022(11)
C2 0.0146(11) 0.0157(15) 0.0124(14) -0.0035(11) -0.0003(10) 0.0003(10)
C3 0.0139(11) 0.0165(14) 0.0163(15) -0.0001(11) -0.0011(10) 0.0027(10)
C4 0.0126(11) 0.0153(14) 0.0158(15) 0.0013(11) -0.0002(10) -0.0022(10)
C5 0.0198(11) 0.018(2) 0.0138(12) -0.0048(12) 0.0000(9) 0.0023(12)
C6 0.0184(12) 0.0143(14) 0.0185(16) -0.0025(12) -0.0014(11) 0.0028(10)
C7 0.0157(10) 0.013(2) 0.0143(13) 0.0015(10) 0.0004(9) -0.0014(9)
C8 0.0150(12) 0.0119(13) 0.0123(14) 0.0038(11) 0.0000(10) -0.0032(10)
C9 0.0168(12) 0.0123(14) 0.0141(14) 0.0012(10) -0.0017(10) 0.0003(10)
C10 0.0210(13) 0.0150(15) 0.0133(14) 0.0010(11) -0.0004(10) -0.0038(11)
C11 0.0198(12) 0.0203(16) 0.0161(15) 0.0054(11) -0.0039(11) -0.0013(10)
C12 0.0188(12) 0.0186(17) 0.0262(17) 0.0036(12) -0.0026(12) 0.0010(10)
C13 0.0162(11) 0.0159(19) 0.0167(14) 0.0005(10) 0.0017(10) 0.0014(9)
C14 0.0179(12) 0.0201(16) 0.0137(15) -0.0002(12) -0.0016(11) 0.0006(11)
loop_
_atom_type_symbol
_atom_type_description
_atom_type_scat_dispersion_real
_atom_type_scat_dispersion_imag
_atom_type_scat_source
C C 0.0033 0.0016 'International Tables Vol C Tables 4.2.6.8 and 6.1.1.4'
H H 0.0000 0.0000 'International Tables Vol C Tables 4.2.6.8 and 6.1.1.4'
F F 0.0171 0.0103 'International Tables Vol C Tables 4.2.6.8 and 6.1.1.4'
I I -0.4742 1.8119 'International Tables Vol C Tables 4.2.6.8 and 6.1.1.4'
N N 0.0061 0.0033 'International Tables Vol C Tables 4.2.6.8 and 6.1.1.4'
O O 0.0106 0.0060 'International Tables Vol C Tables 4.2.6.8 and 6.1.1.4'
loop_
_geom_angle_atom_site_label_1
_geom_angle_atom_site_label_2
_geom_angle_atom_site_label_3
_geom_angle
C7 N1 C8 125.7(2)
C7 N1 H1 116(3)
C8 N1 H1 118(3)
C6 C1 C2 119.7(3)
C6 C1 C7 118.7(3)
C2 C1 C7 121.5(3)
C3 C2 C1 119.9(3)
C3 C2 H2 120.1
C1 C2 H2 120.1
C4 C3 C2 119.6(3)
C4 C3 H3 120.2
C2 C3 H3 120.2
C3 C4 C5 120.9(3)
C3 C4 C14 120.6(3)
C5 C4 C14 118.4(3)
C4 C5 C6 119.2(3)
C4 C5 H5 120.4
C6 C5 H5 120.4
C1 C6 C5 120.6(3)
C1 C6 H6 119.7
C5 C6 H6 119.7
O1 C7 N1 123.9(3)
O1 C7 C1 120.8(3)
N1 C7 C1 115.3(3)
C13 C8 C9 120.0(3)
C13 C8 N1 123.3(3)
C9 C8 N1 116.7(3)
C10 C9 C8 119.6(3)
C10 C9 H9 120.2
C8 C9 H9 120.2
C9 C10 C11 120.9(3)
C9 C10 I1 118.6(2)
C11 C10 I1 120.4(2)
C12 C11 C10 118.8(3)
C12 C11 H11 120.6
C10 C11 H11 120.6
C11 C12 C13 121.3(3)
C11 C12 H12 119.4
C13 C12 H12 119.4
C8 C13 C12 119.4(3)
C8 C13 H13 120.3
C12 C13 H13 120.3
F2 C14 F1 107.2(2)
F2 C14 F3 106.6(3)
F1 C14 F3 106.7(3)
F2 C14 C4 112.5(3)
F1 C14 C4 112.2(3)
F3 C14 C4 111.3(2)
loop_
_geom_bond_atom_site_label_1
_geom_bond_atom_site_label_2
_geom_bond_distance
I1 C10 2.102(3)
F1 C14 1.343(4)
F2 C14 1.337(4)
F3 C14 1.346(4)
O1 C7 1.227(4)
N1 C7 1.346(4)
N1 C8 1.416(4)
N1 H1 0.92(5)
C1 C6 1.384(5)
C1 C2 1.396(4)
C1 C7 1.503(4)
C2 C3 1.395(4)
C2 H2 0.9500
C3 C4 1.382(5)
C3 H3 0.9500
C4 C5 1.390(4)
C4 C14 1.505(4)
C5 C6 1.390(4)
C5 H5 0.9500
C6 H6 0.9500
C8 C13 1.390(4)
C8 C9 1.398(4)
C9 C10 1.385(4)
C9 H9 0.9500
C10 C11 1.393(4)
C11 C12 1.384(5)
C11 H11 0.9500
C12 C13 1.392(5)
C12 H12 0.9500
C13 H13 0.9500
loop_
_geom_torsion_atom_site_label_1
_geom_torsion_atom_site_label_2
_geom_torsion_atom_site_label_3
_geom_torsion_atom_site_label_4
_geom_torsion
C6 C1 C2 C3 -1.1(5)
C7 C1 C2 C3 180.0(3)
C1 C2 C3 C4 -0.3(5)
C2 C3 C4 C5 1.1(5)
C2 C3 C4 C14 -176.1(3)
C3 C4 C5 C6 -0.4(5)
C14 C4 C5 C6 176.8(3)
C2 C1 C6 C5 1.8(5)
C7 C1 C6 C5 -179.3(3)
C4 C5 C6 C1 -1.0(5)
C8 N1 C7 O1 -5.0(5)
C8 N1 C7 C1 174.2(3)
C6 C1 C7 O1 -32.1(4)
C2 C1 C7 O1 146.8(3)
C6 C1 C7 N1 148.6(3)
C2 C1 C7 N1 -32.5(4)
C7 N1 C8 C13 38.9(4)
C7 N1 C8 C9 -141.2(3)
C13 C8 C9 C10 -0.7(4)
N1 C8 C9 C10 179.3(3)
C8 C9 C10 C11 1.5(5)
C8 C9 C10 I1 -175.5(2)
C9 C10 C11 C12 -1.0(5)
I1 C10 C11 C12 176.0(2)
C10 C11 C12 C13 -0.4(5)
C9 C8 C13 C12 -0.6(4)
N1 C8 C13 C12 179.3(3)
C11 C12 C13 C8 1.1(5)
C3 C4 C14 F2 -138.0(3)
C5 C4 C14 F2 44.9(4)
C3 C4 C14 F1 -17.0(4)
C5 C4 C14 F1 165.8(3)
C3 C4 C14 F3 102.5(3)
C5 C4 C14 F3 -74.7(4)

_cod_database_fobs_code 2108321
