#------------------------------------------------------------------------------
#$Date: 2019-06-20 07:04:08 +0300 (Thu, 20 Jun 2019) $
#$Revision: 216135 $
#$URL: file:///home/coder/svn-repositories/cod/cif/2/10/84/2108437.cif $
#------------------------------------------------------------------------------
#
# This file is available in the Crystallography Open Database (COD),
# http://www.crystallography.net/. The original data for this entry
# were provided by IUCr Journals, http://journals.iucr.org/.
#
# The file may be used within the scientific community so long as
# proper attribution is given to the journal article from which the
# data were obtained.
#
data_2108437
loop_
_publ_author_name
'Larsen, Finn Krebs'
'Hasen Mamakhel, Aref'
'Overgaard, Jacob'
'J\/orgensen, Jens-Erik'
'Kato, Kenichi'
'Brummerstedt Iversen, Bo'
_publ_section_title
;
 Accessing the rich carbon nitride materials chemistry by heat treatments
 of ammonium thiocyanate, NH~4~SCN
;
_journal_coeditor_code           PX5012SUP1
_journal_issue                   4
_journal_name_full               'Acta Crystallographica Section B'
_journal_page_first
;
;
_journal_paper_doi               10.1107/S2052520619005791
_journal_volume                  75
_journal_year                    2019
_chemical_formula_moiety         'C6 H8 N10'
_chemical_formula_sum            'C6 H8 N10'
_chemical_formula_weight         220.22
_space_group_crystal_system      monoclinic
_space_group_IT_number           14
_space_group_name_Hall           '-P 2ybc'
_space_group_name_H-M_alt        'P 1 21/c 1'
_symmetry_space_group_name_Hall  '-P 2ybc'
_symmetry_space_group_name_H-M   'P 1 21/c 1'
_atom_sites_solution_hydrogens   geom
_cell_angle_alpha                90
_cell_angle_beta                 105.90(3)
_cell_angle_gamma                90
_cell_formula_units_Z            2
_cell_length_a                   6.0320(12)
_cell_length_b                   7.7960(16)
_cell_length_c                   10.531(2)
_cell_measurement_reflns_used    604
_cell_measurement_temperature    100(2)
_cell_measurement_theta_max      20.697
_cell_measurement_theta_min      4.025
_cell_volume                     476.28(18)
_computing_cell_refinement       'SAINT v7.23A (Bruker, 2003)'
_computing_data_reduction        'SAINT v7.23A (Bruker, 2003)'
_computing_molecular_graphics    'Olex2 (Dolomanov et al., 2009)'
_computing_publication_material  'Olex2 (Dolomanov et al., 2009)'
_computing_structure_refinement  'ShelXL (Sheldrick, 2008)'
_diffrn_ambient_temperature      100.15
_diffrn_measured_fraction_theta_full 0.991
_diffrn_measured_fraction_theta_max 0.991
_diffrn_measurement_device_type  'CCD area detector'
_diffrn_measurement_method       'phi and omega scans'
_diffrn_radiation_monochromator  graphite
_diffrn_radiation_type           MoK\a
_diffrn_radiation_wavelength     0.71073
_diffrn_reflns_av_R_equivalents  0.1151
_diffrn_reflns_av_unetI/netI     0.1013
_diffrn_reflns_Laue_measured_fraction_full 0.991
_diffrn_reflns_Laue_measured_fraction_max 0.991
_diffrn_reflns_limit_h_max       6
_diffrn_reflns_limit_h_min       -6
_diffrn_reflns_limit_k_max       8
_diffrn_reflns_limit_k_min       -8
_diffrn_reflns_limit_l_max       11
_diffrn_reflns_limit_l_min       -11
_diffrn_reflns_number            4325
_diffrn_reflns_point_group_measured_fraction_full 0.991
_diffrn_reflns_point_group_measured_fraction_max 0.991
_diffrn_reflns_theta_full        23.281
_diffrn_reflns_theta_max         23.281
_diffrn_reflns_theta_min         3.298
_exptl_absorpt_coefficient_mu    0.113
_exptl_absorpt_correction_type   none
_exptl_crystal_colour            orange
_exptl_crystal_density_diffrn    1.536
_exptl_crystal_description       block
_exptl_crystal_F_000             228
_exptl_crystal_size_max          0.2
_exptl_crystal_size_mid          0.2
_exptl_crystal_size_min          0.2
_refine_diff_density_max         0.308
_refine_diff_density_min         -0.323
_refine_diff_density_rms         0.078
_refine_ls_extinction_coef       0.13(2)
_refine_ls_extinction_expression Fc^*^=kFc[1+0.001xFc^2^\l^3^/sin(2\q)]^-1/4^
_refine_ls_extinction_method     'SHELXL-2014/7 (Sheldrick 2014'
_refine_ls_goodness_of_fit_ref   0.915
_refine_ls_hydrogen_treatment    constr
_refine_ls_matrix_type           full
_refine_ls_number_parameters     74
_refine_ls_number_reflns         677
_refine_ls_number_restraints     0
_refine_ls_restrained_S_all      0.915
_refine_ls_R_factor_all          0.1324
_refine_ls_R_factor_gt           0.0575
_refine_ls_shift/su_max          0.000
_refine_ls_shift/su_mean         0.000
_refine_ls_structure_factor_coef Fsqd
_refine_ls_weighting_details
'w=1/[\s^2^(Fo^2^)+(0.0973P)^2^] where P=(Fo^2^+2Fc^2^)/3'
_refine_ls_weighting_scheme      calc
_refine_ls_wR_factor_gt          0.1369
_refine_ls_wR_factor_ref         0.1650
_reflns_Friedel_coverage         0.000
_reflns_number_gt                367
_reflns_number_total             677
_reflns_threshold_expression     'I > 2\s(I)'
_cod_data_source_file            px5012sup1.cif
_cod_data_source_block           7
_cod_original_cell_volume        476.29(18)
_cod_database_code               2108437
_shelx_space_group_comment
;
The symmetry employed for this shelxl refinement is uniquely defined
by the following loop, which should always be used as a source of
symmetry information in preference to the above space-group names.
They are only intended as comments.
;
_olex2_refinement_description
;
1. Fixed Uiso
 At 1.2 times of:
  All N(H,H) groups
2.a X=CH2 refined with riding coordinates:
 N2(H2A,H2B), N4(H4A,H4B)
;
_shelx_shelxl_version_number     2014/7
loop_
_space_group_symop_operation_xyz
'x, y, z'
'-x, y+1/2, -z+1/2'
'-x, -y, -z'
'x, -y-1/2, z-1/2'
loop_
_atom_site_label
_atom_site_type_symbol
_atom_site_fract_x
_atom_site_fract_y
_atom_site_fract_z
_atom_site_U_iso_or_equiv
_atom_site_adp_type
_atom_site_occupancy
_atom_site_site_symmetry_order
_atom_site_calc_flag
_atom_site_refinement_flags_posn
N1 N 0.2409(6) 0.4501(4) 0.8758(3) 0.0304(11) Uani 1 1 d .
N3 N 0.1162(6) 0.1688(4) 0.9191(3) 0.0276(11) Uani 1 1 d .
N5 N 0.4522(6) 0.2936(4) 1.0647(3) 0.0288(11) Uani 1 1 d .
N2 N -0.0854(6) 0.3283(5) 0.7412(4) 0.0379(12) Uani 1 1 d .
H2A H -0.1847 0.2435 0.7181 0.045 Uiso 1 1 calc R
H2B H -0.1037 0.4226 0.6936 0.045 Uiso 1 1 calc R
N4 N 0.3279(6) 0.0250(4) 1.1024(3) 0.0297(11) Uani 1 1 d .
H4A H 0.2327 -0.0622 1.0796 0.036 Uiso 1 1 calc R
H4B H 0.4439 0.0191 1.1742 0.036 Uiso 1 1 calc R
C2 C 0.0918(7) 0.3139(6) 0.8480(4) 0.0302(13) Uani 1 1 d .
C4 C 0.2960(7) 0.1674(5) 1.0275(4) 0.0256(12) Uani 1 1 d .
C6 C 0.4118(7) 0.4286(5) 0.9834(4) 0.0245(11) Uani 1 1 d .
loop_
_atom_site_aniso_label
_atom_site_aniso_U_11
_atom_site_aniso_U_22
_atom_site_aniso_U_33
_atom_site_aniso_U_23
_atom_site_aniso_U_13
_atom_site_aniso_U_12
N1 0.024(2) 0.026(2) 0.033(2) -0.0015(18) -0.0067(19) -0.0093(19)
N3 0.023(2) 0.024(2) 0.030(2) 0.0065(18) -0.0020(18) -0.0020(17)
N5 0.025(2) 0.022(2) 0.034(2) 0.0019(19) -0.0020(17) -0.0024(19)
N2 0.028(2) 0.031(2) 0.042(2) 0.0073(19) -0.012(2) -0.0134(19)
N4 0.025(2) 0.026(2) 0.031(2) 0.0039(18) -0.0039(18) -0.0052(17)
C2 0.025(3) 0.027(3) 0.031(3) 0.006(2) -0.005(2) -0.003(2)
C4 0.027(3) 0.019(3) 0.030(3) 0.002(2) 0.006(2) -0.002(2)
C6 0.020(2) 0.019(3) 0.029(2) -0.001(2) 0.000(2) 0.0007(19)
loop_
_atom_type_symbol
_atom_type_description
_atom_type_scat_dispersion_real
_atom_type_scat_dispersion_imag
_atom_type_scat_source
C C 0.0033 0.0016 'International Tables Vol C Tables 4.2.6.8 and 6.1.1.4'
H H 0.0000 0.0000 'International Tables Vol C Tables 4.2.6.8 and 6.1.1.4'
N N 0.0061 0.0033 'International Tables Vol C Tables 4.2.6.8 and 6.1.1.4'
loop_
_geom_angle_atom_site_label_1
_geom_angle_atom_site_label_2
_geom_angle_atom_site_label_3
_geom_angle
_geom_angle_site_symmetry_3
C6 N1 C2 113.5(4) .
C4 N3 C2 114.9(4) .
C6 N5 C4 113.6(4) .
N3 C2 N1 124.6(4) .
N2 C2 N1 116.4(4) .
N2 C2 N3 118.9(4) .
N3 C4 N5 125.5(4) .
N3 C4 N4 117.2(4) .
N5 C4 N4 117.2(4) .
N1 C6 N5 127.9(4) .
N1 C6 C6 116.1(5) 3_667
N5 C6 C6 116.0(5) 3_667
loop_
_geom_bond_atom_site_label_1
_geom_bond_atom_site_label_2
_geom_bond_distance
_geom_bond_site_symmetry_2
N1 C2 1.370(5) .
N1 C6 1.318(5) .
N3 C2 1.343(5) .
N3 C4 1.342(5) .
N5 C4 1.344(5) .
N5 C6 1.336(5) .
N2 C2 1.327(5) .
N4 C4 1.345(5) .
C6 C6 1.513(8) 3_667
loop_
_geom_hbond_atom_site_label_D
_geom_hbond_atom_site_label_H
_geom_hbond_atom_site_label_A
_geom_hbond_distance_DH
_geom_hbond_distance_HA
_geom_hbond_distance_DA
_geom_hbond_angle_DHA
_geom_hbond_site_symmetry_A
N2 H2A N4 0.88 3.10 3.709(5) 128.4 3_557
loop_
_geom_torsion_atom_site_label_1
_geom_torsion_atom_site_label_2
_geom_torsion_atom_site_label_3
_geom_torsion_atom_site_label_4
_geom_torsion
_geom_torsion_site_symmetry_4
C2 N1 C6 N5 -0.2(7) .
C2 N1 C6 C6 177.6(5) 3_667
C2 N3 C4 N5 -2.8(6) .
C2 N3 C4 N4 179.9(4) .
C4 N3 C2 N1 3.3(6) .
C4 N3 C2 N2 -178.1(4) .
C4 N5 C6 N1 0.6(6) .
C4 N5 C6 C6 -177.2(5) 3_667
C6 N1 C2 N3 -1.9(6) .
C6 N1 C2 N2 179.4(4) .
C6 N5 C4 N3 1.0(6) .
C6 N5 C4 N4 178.3(4) .
loop_
_refln_index_h
_refln_index_k
_refln_index_l
_refln_F_squared_meas
_refln_F_squared_sigma
_refln_scale_group_code
-1 0 0 3.42 15.15 3
-1 0 0 14.2 14.43 3
1 0 0 2.64 13.38 1
1 0 0 5.59 14.94 3
1 0 0 12.16 14.93 3
1 0 0 25.82 15.19 5
-1 0 0 4.57 11.67 1
2 0 0 22.2 25.3 1
-2 0 0 24.73 29.04 3
2 0 0 16.73 29.03 3
2 0 0 31.54 25.47 5
-2 0 0 -12.77 23.26 3
2 0 0 -3 28.43 3
-2 0 0 30.91 21.32 1
3 0 0 74.62 33.73 3
3 0 0 39.33 30.81 5
-3 0 0 -13.24 23.19 3
3 0 0 16.64 36.59 3
-3 0 0 -22.83 29.73 3
-3 0 0 22.36 26.18 1
4 0 0 259.79 54.02 3
-4 0 0 341.81 48.9 1
-4 0 0 235.56 45.54 3
4 0 0 353.39 53.29 5
4 0 0 363.01 61.77 3
-5 0 0 686.2 71.81 1
5 0 0 620.2 80.29 3
5 0 0 669.49 81.34 5
6 0 0 265.52 63.21 5
-6 0 0 381.64 61 1
0 1 0 -5.1 8.86 2
0 -1 0 7.45 8.94 2
-1 1 0 3565.2 282.44 5
1 1 0 3545.14 285.63 3
-1 1 0 3867.3 287.26 3
1 1 0 3407.01 286.32 3
1 -1 0 3632.14 266.26 1
1 -1 0 3601.75 282.3 5
1 -1 0 3834.23 287.8 3
1 1 0 3554.83 264.95 1
-1 1 0 3863.7 288.46 3
-1 1 0 3727.27 266.55 1
2 1 0 287.74 40.32 3
2 -1 0 320.69 39.24 5
-2 1 0 437.78 51.69 3
2 -1 0 373.44 43.74 1
2 -1 0 360.91 47.45 3
-2 1 0 373.19 40.28 1
-2 1 0 469.87 46.53 3
2 1 0 341.46 39.19 1
2 1 0 369.35 46.09 3
2 -1 0 391.32 47.15 3
-2 -1 0 295.55 38.77 3
-2 -1 0 260.19 34.62 1
-2 -1 0 268.57 36.78 3
3 1 0 258.62 43.53 3
3 1 0 277.17 41.26 1
-3 1 0 375.77 56.7 3
-3 1 0 293.99 40.76 1
3 -1 0 299.24 40.44 5
3 -1 0 348.98 52.42 3
-3 -1 0 295.27 42.06 3
3 1 0 249.84 47.08 3
-3 1 0 274.15 42.07 3
3 1 0 215.6 44.99 5
3 -1 0 227.46 46.05 3
-3 -1 0 276.96 37.17 1
-4 1 0 7.25 32.89 1
4 -1 0 11.06 34.27 5
-4 -1 0 3.01 31.57 3
4 -1 0 30.58 48.61 3
4 1 0 57.96 40.8 5
4 1 0 17.67 40.39 3
-4 1 0 -29.34 43.7 3
4 1 0 -25.63 33.94 3
-4 -1 0 -23.74 29.35 1
5 1 0 -1.7 44.34 5
5 -1 0 59.41 42 5
5 1 0 95.43 54.43 3
5 -1 0 36.03 54.33 3
-5 -1 0 42.39 37.3 1
-5 1 0 40.51 44.27 1
-6 1 0 330.94 63.6 1
6 1 0 237.02 66.07 3
6 -1 0 299.83 58.76 5
-6 -1 0 229.27 53.27 1
0 -2 0 243.72 27.35 2
0 2 0 185.76 27.53 2
1 -2 0 1333.6 104.79 3
1 2 0 1214.53 99.22 2
-1 2 0 1295.34 106.8 3
-1 2 0 1208.76 100.42 1
1 -2 0 1254.01 98.1 1
1 -2 0 1426.31 106.27 3
-1 2 0 1290.97 109.4 3
-2 2 0 2119.38 168.65 3
-2 2 0 1940.53 157.72 5
2 -2 0 2006.44 158.11 5
2 2 0 1803.91 162.34 3
2 -2 0 2072.05 152.62 1
-2 2 0 2060.9 164.52 3
2 2 0 1937.19 160.39 3
2 -2 0 2101.62 166.19 3
-2 2 0 1893.72 153.11 1
2 2 0 2074.16 149.56 1
-3 2 0 563.67 67.89 3
3 -2 0 539.03 60.84 3
3 2 0 476.64 54.11 1
-3 2 0 523.84 56.87 1
3 2 0 444.9 62.99 3
-3 2 0 558.8 60.95 3
3 2 0 403.05 52.95 3
3 -2 0 511.59 53.06 5
4 2 0 26.25 39.95 3
-4 2 0 103.62 57.9 3
4 -2 0 77.05 49.31 3
-4 2 0 151.7 41.48 1
4 2 0 0.31 38.49 3
4 2 0 118.27 47.87 5
-4 -2 0 49.94 26.55 1
4 -2 0 63.27 33.14 5
5 2 0 261.51 63.91 5
5 2 0 266.72 62.36 3
-5 2 0 392.97 60.7 1
-5 -2 0 237.31 40.74 1
-6 2 0 114.57 53.09 1
6 2 0 1.42 58.32 3
0 -3 0 -22.49 18.82 2
0 3 0 24.34 21.48 2
1 3 0 739.03 67.88 2
1 -3 0 840.88 61.23 4
-1 3 0 807.27 69.14 3
-1 3 0 812.49 72.34 3
-1 3 0 844.34 67.43 1
1 -3 0 661.73 69.5 2
-2 3 0 484.86 59.06 3
2 -3 0 333.05 41.3 3
2 3 0 316.59 43.2 3
-2 3 0 452.38 47.67 1
-2 3 0 334.87 45.59 3
2 3 0 327.45 40.6 1
2 -3 0 376.56 42.22 1
3 3 0 69.46 32.15 3
3 3 0 116.08 40.55 3
3 -3 0 247.59 44.46 3
-3 3 0 211.83 54.39 3
3 3 0 150.49 36.04 1
-3 3 0 152.12 38.78 3
-3 3 0 212.84 41.29 1
4 3 0 35.59 42.56 3
-4 3 0 -31.92 53.2 3
4 3 0 13.25 36.73 3
-4 3 0 4.82 37.33 3
4 -3 0 12.56 24.24 3
4 -3 0 -32.64 33.28 5
4 3 0 43.27 48.47 5
-4 3 0 -2.33 33.46 1
-5 3 0 -60.98 40.44 1
5 3 0 -24.17 44.7 3
-5 3 0 -2.77 60.38 3
6 3 0 25.28 56.02 3
-6 3 0 82.11 53.29 1
0 4 0 48.9 26.88 2
0 4 0 32.27 27.23 4
0 -4 0 53.03 24.23 2
-1 4 0 399.31 49.76 3
-1 4 0 417.87 45.89 3
-1 4 0 459.36 45.12 1
1 4 0 467.8 53.9 2
-1 -4 0 445.42 49.95 2
1 -4 0 457.47 49.72 2
2 -4 0 26.45 29.89 2
2 -4 0 34.57 24.03 4
-2 4 0 32.46 30.07 1
-2 4 0 9.48 39.57 3
2 4 0 39.66 26.86 2
-2 4 0 -19.62 27.92 3
3 4 0 -19.35 25.73 3
-3 4 0 46.43 50.85 3
3 4 0 1.16 35.27 3
3 -4 0 19.18 29.03 3
3 4 0 4.39 29.71 1
-3 4 0 -15.05 33.64 1
-3 4 0 -12.25 30.88 3
3 -4 0 16.49 28.9 1
4 4 0 81.38 45.04 3
4 4 0 87.45 53.07 5
4 4 0 23.41 39.3 3
-4 4 0 73.44 66.57 3
-4 4 0 99.16 47.71 1
-5 4 0 47.32 48.22 1
-5 4 0 31.59 67.81 3
5 4 0 -45.73 41.7 3
0 5 0 24.17 29.56 2
0 -5 0 -2.13 27.78 2
0 5 0 -12.57 29.87 4
-1 5 0 203.96 34.02 1
-1 -5 0 101.64 34.57 2
-1 5 0 169.19 40.66 3
1 5 0 146.94 34.71 2
-1 5 0 165.31 35.21 3
1 -5 0 121.96 34.11 2
2 -5 0 255.9 47.47 2
-2 5 0 339.33 50.32 1
-2 5 0 345.21 61.73 3
-2 5 0 352.63 52.36 3
-3 5 0 -36.54 36.05 1
3 5 0 -37.71 38.03 3
3 -5 0 14.01 36.07 2
-3 5 0 -16.55 54.29 3
-3 5 0 13.13 35.54 3
3 5 0 -42.81 28 3
-4 5 0 17.67 62.53 3
-4 5 0 31.63 44.92 1
4 5 0 49.41 37.45 3
-5 5 0 271.59 83.41 3
-5 5 0 74.11 49.84 1
5 5 0 -33.35 41.03 3
0 6 0 1007.72 85.49 4
0 -6 0 980.03 92.06 2
-1 6 0 459.64 57.92 3
-1 6 0 428.55 62.87 3
-1 6 0 485.58 52.67 1
-1 -6 0 337.45 54.97 2
1 -6 0 465.08 57.02 2
-2 6 0 -25.29 38.89 1
-2 6 0 -60.59 51.12 3
2 -6 0 -2.24 35.94 2
-2 6 0 -6.81 40.49 3
-3 6 0 -41.02 37.08 1
3 -6 0 -26.52 35.94 2
3 6 0 -45.45 27.72 3
-3 6 0 -2.49 57.33 3
3 6 0 -9.08 39.03 3
-4 6 0 109.88 51.21 1
4 -6 0 74.83 46.62 2
-4 6 0 206.79 79.15 3
4 6 0 69.76 41.74 3
0 7 0 173.49 37.59 3
0 7 0 18.09 40.4 4
0 7 0 131.16 34.87 1
0 -7 0 59.6 39.01 2
0 7 0 73.97 40.04 3
-1 7 0 565.07 68.4 3
-1 7 0 597.62 64.91 1
-1 -7 0 568.22 68.98 2
-1 7 0 628.73 75.02 3
1 -7 0 640.46 71.22 2
2 -7 0 -46.73 34.5 2
-2 7 0 2.11 40.82 1
-2 7 0 -37.11 54.87 3
-3 7 0 -29.84 64.82 3
3 -7 0 -65.23 34.42 2
3 7 0 -12.06 30.51 3
-3 7 0 -79.47 44 1
0 8 0 650.29 78.37 3
0 -8 0 762.18 80.69 2
-1 8 0 4.43 49.33 3
1 -8 0 9.15 40.77 2
-1 8 0 -36.69 36.38 1
-2 8 0 14.36 58.83 3
-2 8 0 42.2 43.17 1
2 -8 0 -47.07 35.13 2
6 0 -1 19.8 44.27 5
-6 0 1 -46.51 41.43 1
-5 0 1 -25.34 43.7 3
5 0 -1 -18.89 51.93 3
-5 0 1 35.73 39.77 1
5 0 -1 -10.51 41.66 5
4 0 -1 -1.14 39.11 3
4 0 -1 -10.22 46.68 3
4 0 -1 -34.44 35.15 5
-4 0 1 7.96 30.55 1
-4 0 1 -30.63 39.5 3
3 0 -1 18.2 32.3 3
-3 0 1 33.18 25.48 1
-3 0 1 44.3 35.86 3
-3 0 1 52.07 26.32 3
3 0 -1 21.24 27.96 1
3 0 -1 48.31 34.2 3
2 0 -1 -6.71 24.85 1
2 0 -1 9.96 29.47 3
-2 0 1 -32.01 23.06 3
2 0 -1 0.55 29.13 3
-2 0 1 -10.14 21.17 1
-2 0 1 -39.51 28.99 3
1 0 -1 -10.43 14.86 1
-1 0 1 -21.21 14.9 3
-1 0 1 -1.81 12.23 1
1 0 -1 -3.39 15.05 3
-1 0 1 -9.19 14.34 3
1 0 -1 -4.08 14.88 3
0 0 -1 5.77 9.38 5
0 0 -1 8.15 8.08 4
0 0 1 2.64 6.03 3
0 0 -1 0.74 6.4 1
0 0 -1 3.73 6.43 3
0 0 1 1.33 8.15 4
0 0 1 4 6.22 1
0 0 -1 -0.31 6.53 1
0 0 1 2.51 10.01 5
0 0 -1 -3.01 1.37 3
0 0 1 4.99 7.74 1
0 0 1 3.27 6.94 3
1 0 1 -8.78 18.84 3
1 0 1 -0.5 17.98 1
-1 0 -1 -8.35 14.37 3
1 0 1 8.55 17.97 3
1 0 1 11.81 18.65 5
-1 0 -1 -5.8 3.31 3
-1 0 -1 -15.17 19.18 5
-1 0 -1 0.14 14.57 1
2 0 1 -11.35 25.92 1
-2 0 -1 0.85 4.43 3
2 0 1 -39.69 26.47 3
-2 0 -1 2.77 26.56 5
2 0 1 -24.49 27.51 3
-2 0 -1 -4.71 19.35 1
2 0 1 -4.9 26.97 5
-2 0 -1 -9.91 21.08 3
-3 0 -1 -3.94 15.3 3
3 0 1 -12.65 34.11 3
3 0 1 -31.27 30.45 5
3 0 1 19.82 31.86 3
-3 0 -1 20.27 25.18 1
4 0 1 -28.44 36.32 3
4 0 1 16.27 37.51 5
-4 0 -1 -17.38 36.14 3
-4 0 -1 0.23 33.22 1
4 0 1 -20.31 42.37 3
5 0 1 -20.02 43.1 5
-5 0 -1 -17.63 37.49 1
5 0 1 -56.55 48.58 3
6 0 1 46.69 45.16 5
-6 0 -1 21.62 43.47 1
6 1 -1 321.24 68.71 5
-6 1 1 465.28 70.83 1
6 1 -1 274.84 74.17 3
-6 -1 1 355.72 61.25 1
6 -1 -1 356.38 61.01 5
5 -1 -1 264.12 66.41 3
-5 1 1 291.47 67.44 3
5 1 -1 208.1 58.62 5
5 -1 -1 224.9 50.94 5
-5 1 1 294.91 55.01 1
5 1 -1 158.69 59.21 3
-5 -1 1 337.12 52.66 1
4 1 -1 14.55 40 3
-4 1 1 97.17 51.4 3
4 -1 -1 74.9 48.72 3
-4 1 1 50.43 34.74 1
4 -1 -1 95.83 35.3 5
4 1 -1 44.6 44.13 3
-4 -1 1 33.55 36.84 3
-4 -1 1 69.49 34.02 1
-3 -1 1 -4.66 28.02 3
3 -1 -1 -41.81 25.61 1
-3 1 1 -8.2 22.11 1
-3 1 1 -22.55 23.56 3
3 1 -1 54.77 27.87 1
3 -1 -1 -15.16 32.27 3
-3 -1 1 2.39 24.35 1
3 1 -1 -44.94 29.14 3
3 1 -1 -22.85 29.36 3
3 -1 -1 -26.78 33.02 3
-3 1 1 -19.58 34.76 3
3 -1 -1 -16.92 24.58 5
-2 1 1 1605.41 125.96 3
2 1 -1 1496.5 117.61 1
2 1 -1 1470.13 125.31 3
2 -1 -1 1655.02 129.19 3
2 -1 -1 1634.6 126.56 3
-2 1 1 1505.79 128.58 3
2 -1 -1 1629.79 118.62 1
-2 -1 1 1574.9 124.45 3
-2 -1 1 1472.91 115.89 1
-2 1 1 1437.01 117.41 1
2 1 -1 1399.61 128.35 3
-2 -1 1 1346.94 126.65 3
1 -1 -1 2135.74 160.3 1
1 -1 -1 2419.23 172.42 3
1 -1 -1 2266.6 171.74 3
1 1 -1 2226.28 172.32 3
-1 1 1 2177.03 159.96 1
-1 1 1 2260.36 172.08 3
1 1 -1 2078.46 159.71 1
-1 1 1 2314.57 173.08 3
-1 -1 1 1995.23 172.73 3
1 -1 -1 2331.59 160.2 1
-1 -1 1 2038.89 171.42 3
1 1 -1 1948.17 173.06 3
-1 -1 1 2092.97 159.56 1
0 1 -1 10.98 11.19 1
0 1 -1 12.88 13.89 3
0 -1 1 7.36 11.1 1
0 1 -1 8.43 14.87 1
0 -1 1 -1.61 2.28 3
0 -1 -1 15.94 13.26 5
0 1 1 -0.1 12.56 5
0 -1 1 9.19 13.17 3
0 1 -1 -4.44 12.13 3
0 1 1 0.67 12.34 2
0 -1 -1 1.03 12.08 2
0 1 1 16.07 14.66 4
1 -1 1 272.18 35 5
1 -1 1 364.88 40.67 3
-1 1 -1 331.85 34.5 1
-1 1 -1 263.59 35.5 3
-1 1 -1 280.06 35.15 5
1 -1 1 316.14 38.71 3
1 1 1 211.61 36.8 5
-1 1 -1 341.82 39.71 3
1 -1 1 304.59 35.3 1
1 1 1 289.01 29.72 1
-2 -1 -1 129.75 23.25 1
-2 -1 -1 86.26 19.54 3
-2 -1 -1 88.63 20.49 1
2 1 1 71.91 29.71 3
2 -1 1 48.51 28.57 1
-2 1 -1 106.81 27.97 5
-2 1 -1 163.04 35.07 3
-2 1 -1 98.09 27.83 3
2 1 1 85.91 26.53 3
2 1 1 68.83 25.13 1
2 -1 1 74.86 27.75 5
2 -1 1 89.75 32.87 3
-2 1 -1 82.63 27.74 1
2 -1 1 72.05 31.9 3
2 1 1 104.24 32.95 5
3 1 1 1381.04 123.28 5
-3 -1 -1 1460.51 107.9 1
3 -1 1 1464.67 123.83 3
-3 -1 -1 1352.14 116.38 3
3 -1 1 1357.31 125.09 3
-3 1 -1 1527.96 126.47 3
-3 1 -1 1386.38 119.27 3
3 1 1 1354.66 124.69 3
3 1 1 1335.88 119.6 3
-3 1 -1 1327.9 113.39 1
3 -1 1 1295.81 119.19 5
-4 1 -1 119.12 38.94 1
-4 -1 -1 106.9 33.67 1
-4 -1 -1 96.59 34 3
-4 1 -1 207.24 53.43 3
4 -1 1 155.64 41.86 5
4 1 1 84.36 44.29 5
4 1 1 124.3 48.98 3
4 -1 1 73.05 50.28 3
4 1 1 90.36 46.6 3
5 -1 1 388.34 62.86 5
5 -1 1 592.7 85.59 3
-5 -1 -1 421.57 55.08 1
-5 1 -1 447.82 66.34 1
5 1 1 245.99 64.97 3
5 1 1 400.88 70.96 5
6 -1 1 209.66 55.86 5
-6 1 -1 167.53 55.03 1
6 1 1 115.38 58.39 3
6 2 -1 42.39 56.02 3
-6 2 1 -30.99 44.29 1
-5 2 1 48.15 63.66 3
5 -2 -1 53.66 36.07 5
5 2 -1 80.06 52.37 5
-5 -2 1 25.5 31.48 1
5 2 -1 45.58 48.98 3
-5 2 1 9.03 43.2 1
-4 -2 1 501.69 52.38 1
4 2 -1 375.98 65.63 3
-4 2 1 757.19 87.77 3
4 -2 -1 499.74 67.59 3
4 -2 -1 537.11 58.98 5
-4 2 1 541.29 65.72 1
-4 -2 1 532.72 58.53 3
-4 2 1 526.7 62.9 3
4 2 -1 598.38 77.24 3
3 2 -1 349.41 52.47 3
-3 2 1 403.6 50.81 3
-3 2 1 496.27 52.25 1
3 2 -1 449.13 50.69 1
3 -2 -1 440.22 53.24 1
3 -2 -1 359.33 42.09 5
-3 -2 1 388.91 42.13 1
-3 -2 1 367.26 45.63 3
-3 2 1 540.79 68.38 3
3 2 -1 409.63 58.24 3
2 -2 -1 314.95 41.44 3
2 2 -1 266.9 38.54 3
-2 2 1 374.25 41.5 1
2 -2 -1 306.5 39.94 3
2 2 -1 310.31 44.56 3
2 -2 -1 386.44 39.19 1
-2 2 1 395.87 43.46 3
-2 -2 1 270.49 33.71 1
-2 2 1 384.87 48.29 3
2 2 -1 373.29 39.31 1
1 2 -1 302.27 35.36 1
-1 2 1 405.54 35.08 3
1 2 -1 282.91 31.43 2
1 2 -1 257.18 33.19 3
-1 2 1 313.03 32.11 3
1 2 -1 273.27 37.2 3
0 -2 1 1964.53 142.1 2
0 -2 1 2069.04 153.43 3
0 2 1 1840.84 143.93 2
0 2 -1 1779.18 155.32 3
0 2 -1 1949.99 154.9 3
0 -2 -1 1838.25 143.46 2
0 -2 1 2081.58 142.89 1
0 2 1 1894.92 139.14 4
0 2 -1 1955.33 143.95 1
-1 2 -1 844.33 79.06 3
-1 2 -1 844.2 71.03 1
-1 2 -1 849.84 74.62 3
1 -2 1 933.28 78.45 3
-1 2 -1 803.09 76.7 5
1 -2 1 847.84 73.61 3
1 2 1 760.65 78.88 5
1 -2 1 834.22 70.38 1
-2 2 -1 113.84 37.06 3
2 2 1 89.53 23.77 1
-2 2 -1 122.05 27.8 1
-2 2 -1 112.38 29.58 3
2 -2 1 91.72 32.26 3
2 -2 1 169.67 36.22 3
2 2 1 65.87 33.15 5
2 -2 1 119.99 31.08 1
2 -2 1 120.91 28.62 5
-2 2 -1 71.78 27.25 5
2 2 1 72.04 24.91 3
3 -2 1 108.06 51.42 3
3 2 1 36.48 30.28 1
3 2 1 -2.01 35.59 3
3 -2 1 90.93 32.24 5
3 2 1 94 39.81 5
-3 2 -1 19.73 42.66 3
-3 2 -1 138.51 33.63 5
3 2 1 11.02 28.61 3
-3 2 -1 42.56 32.63 1
-3 2 -1 49.35 32.81 3
-4 2 -1 435.63 58.85 1
4 -2 1 544.21 75.25 3
4 2 1 164.95 51.55 3
-4 2 -1 420.47 69.02 3
4 2 1 302.58 59.95 5
4 2 1 237.35 57.43 3
4 -2 1 336.91 50.99 5
5 -2 1 479.38 66.22 5
5 2 1 397.62 73.44 5
-5 2 -1 545.64 70.96 1
6 2 1 156.76 56.81 3
-6 2 -1 236.38 60.53 1
6 3 -1 -28.22 53.24 3
-6 3 1 -21.6 47.01 1
5 3 -1 8.01 45.22 3
-5 3 1 35.62 45.64 1
5 3 -1 17.25 51.11 5
-5 3 1 16.1 64.54 3
4 3 -1 6.27 43.63 3
-4 3 1 -52.48 32.28 1
-4 3 1 26.36 36.19 3
4 3 -1 40.09 38.61 3
4 -3 -1 -42.87 35.26 3
-4 3 1 94.11 59.58 3
3 -3 -1 208.42 39.6 1
-3 3 1 164.79 53.13 3
3 3 -1 169.4 45.53 3
-3 3 1 205.4 41.97 3
-3 3 1 233.12 44.63 1
3 -3 -1 231.94 42.64 3
2 3 -1 575.26 63.9 3
2 -3 -1 692.49 55.37 1
-2 3 1 636.25 61.19 1
2 3 -1 669.56 58.02 1
2 3 -1 549.99 59.26 3
2 -3 -1 718.02 56.72 1
-2 3 1 665.92 67.2 3
2 3 -1 654.21 59.92 2
-2 3 1 721.17 65.24 3
1 3 -1 43.24 20.63 3
-1 3 1 63.16 18.07 1
1 -3 -1 85.35 25.1 4
-1 -3 1 74.35 23.42 2
1 -3 -1 59.23 24.31 2
1 3 -1 45.85 22.68 3
1 3 -1 78.96 22.53 2
1 3 -1 23.36 24.99 1
0 -3 -1 52.99 24.75 2
0 -3 1 91.73 22.95 2
0 3 -1 91.47 21.94 1
0 3 -1 123.42 24.52 3
0 3 1 85.76 28.44 4
0 3 -1 74.57 23.6 3
0 3 1 103.39 26.02 2
1 -3 1 3271.33 252.44 3
1 -3 1 3247.62 253.46 3
-1 3 -1 3288.49 238.65 1
1 -3 1 3194.97 235.27 1
-1 3 -1 3286.28 257.85 3
1 3 1 2919.85 234.24 2
-1 3 -1 3173.46 255.35 3
-2 3 -1 362.99 47.5 1
-2 3 -1 383.09 47.12 3
-2 3 -1 337.13 43.3 5
2 3 1 300.27 52.19 5
2 -3 1 341.76 47.46 3
-2 3 -1 478.37 60.96 3
2 -3 1 328.28 44.67 1
3 -3 1 50.33 33.41 5
3 3 1 10.95 30.85 3
3 -3 1 2.7 13.2 3
-3 3 -1 7.61 46.92 3
3 3 1 51.95 38.49 3
3 3 1 38.27 40.13 5
-3 3 -1 85.37 35.66 1
3 3 1 41.24 28.84 1
-3 3 -1 25.78 30.93 3
-3 3 -1 51.16 29.6 5
-4 3 -1 -30.58 54.08 3
4 3 1 -17.87 34.32 3
4 -3 1 86.75 39.86 5
4 3 1 11.56 45.52 3
-4 3 -1 -34.06 34.22 1
4 3 1 39.68 46.11 5
4 -3 1 -46.21 39.86 3
5 3 1 -97.22 41.15 3
-5 3 -1 -8.01 46.86 1
-5 4 1 181.79 78.27 3
5 4 -1 33.42 46.78 3
-5 4 1 109.03 50.43 1
-4 4 1 71.42 45.3 1
4 4 -1 96.9 51.55 3
-4 4 1 162.84 70.03 3
4 4 -1 -9.95 40.86 3
3 -4 -1 156.43 34.09 1
3 -4 -1 207.61 33.23 1
3 4 -1 138.62 48.35 3
3 4 -1 112.43 33.98 3
-3 4 1 247.74 47.06 1
-3 4 1 198.65 45.11 3
3 4 -1 166.92 35.52 2
-3 4 1 203.52 57.64 3
2 -4 -1 126.93 34.17 2
2 4 -1 162.5 36.57 3
-2 4 1 157.5 35 1
2 4 -1 135.01 32.62 1
2 4 -1 113.71 30.85 2
-2 4 1 140.86 35.58 3
2 4 -1 133.88 29.52 3
-2 4 1 95.07 41.11 3
2 -4 -1 161.56 32.23 4
-1 -4 1 12.99 22.56 2
1 4 -1 -14.9 21.96 3
-1 4 1 -12.09 15.76 1
1 -4 -1 6.27 22.93 2
1 4 -1 -38.45 19.86 2
1 4 -1 1.76 24.71 1
0 4 -1 15.42 23.93 3
0 -4 -1 20.21 26.56 2
0 -4 1 27.85 24.08 2
0 4 -1 -5.89 21.47 1
0 4 1 30.27 30.23 4
0 4 -1 29.45 25.09 3
0 4 1 6 25.93 2
-1 4 -1 2482.51 194.37 3
-1 4 -1 2397.51 181.41 1
1 4 1 2330.05 179.87 2
-1 4 -1 2258.56 196.43 3
1 -4 1 2418.4 180.41 2
-2 4 -1 463.07 67.67 3
2 4 1 286.2 47.66 2
-2 4 -1 463.28 56.32 3
-2 4 -1 408.97 54.68 1
2 -4 1 453.12 47.31 3
2 -4 1 378.2 47.7 1
3 4 1 -0.92 25.96 3
3 4 1 56.38 45.14 5
-3 4 -1 130.12 58.55 3
3 4 1 11.68 37.35 3
3 4 1 9.01 28.84 1
-3 4 -1 18.26 35.74 1
3 -4 1 60.17 35.71 3
-3 4 -1 63.15 37.13 3
4 4 1 84.48 49.73 5
-4 4 -1 74.8 46.86 1
4 4 1 109.56 49.81 3
4 4 1 29.98 38.14 3
-4 4 -1 32.47 62.84 3
-5 4 -1 45.67 47.69 1
5 4 1 -3.28 45.23 3
5 5 -1 44.86 47.51 3
-5 5 1 -54.06 70.55 3
-5 5 1 -46.13 47.85 1
-4 5 1 29.25 65.98 3
-4 5 1 18.12 44.11 1
4 -5 -1 3.63 37.77 2
3 -5 -1 24.29 33.31 4
-3 5 1 108.15 40.49 3
3 -5 -1 22.83 36.02 2
-3 5 1 42.08 54.71 3
3 5 -1 60.1 33.22 3
-3 5 1 46.09 38.17 1
3 5 -1 59.2 43.32 3
-2 5 1 323.38 50.35 3
2 5 -1 244.15 42.29 3
-2 5 1 439.07 60.15 3
-2 5 1 310.14 46.72 1
2 5 -1 407.34 48.33 1
2 5 -1 294.54 42.92 2
2 -5 -1 349 50.15 2
2 -5 -1 415.17 46.62 4
2 5 -1 306.79 50.41 3
1 5 -1 20.19 26.84 1
-1 -5 1 7.57 27.77 2
1 5 -1 34.52 30 3
1 5 -1 42.02 31.21 1
1 5 -1 9.38 27.54 2
1 5 -1 26.85 27.29 3
1 -5 -1 -11.93 26.95 2
0 -5 1 110.63 30.94 2
0 -5 -1 130.41 35.12 2
0 5 -1 79.23 30.3 1
0 5 1 49.3 35.67 4
0 5 -1 81.16 32.58 3
0 5 -1 77.05 33.03 3
0 5 -1 108.96 31.07 4
-1 5 -1 13.64 36.57 3
-1 5 -1 -2.39 29.66 3
-1 5 -1 -32.59 28.08 1
1 -5 1 17.72 29.6 2
-2 5 -1 117.68 40.05 1
-2 5 -1 174.86 43.21 3
-2 5 -1 155.71 55.11 3
2 -5 1 157.77 41.14 2
3 5 1 323.52 45.57 1
-3 5 -1 339.84 59.82 1
3 5 1 352.5 66.64 5
3 5 1 271.22 53.2 3
-3 5 -1 501.88 84 3
-4 5 -1 219.42 55.65 1
4 5 1 63.77 41.25 3
-4 5 -1 234.87 72.82 3
-5 5 -1 -34.89 46.68 1
5 5 1 9.17 42.26 3
4 -6 -1 63.48 45.01 2
-4 6 1 101.31 50.71 1
4 6 -1 99.49 43.26 3
-4 6 1 173.25 78.2 3
3 -6 -1 218.59 39.32 4
-3 6 1 252.46 67.78 3
3 6 -1 109.53 49.61 3
3 -6 -1 155.2 44.1 2
-3 6 1 136.72 47.89 1
3 6 -1 44.85 36.49 3
2 -6 -1 33.54 38.46 2
-2 6 1 85.88 40.11 3
2 6 -1 118.78 42.36 3
2 6 -1 61.72 34.07 3
-2 6 1 80.3 49.87 3
-2 6 1 74.85 39.65 1
-1 6 1 228.23 36.55 1
-1 -6 1 294.06 46.28 2
1 6 -1 237.19 41.43 1
1 6 -1 174.6 43.87 3
-1 6 1 234.12 39.13 3
1 -6 -1 280.2 45.75 2
1 6 -1 265.45 46.08 1
1 6 -1 214.23 43.79 3
0 6 -1 181.76 44.69 3
0 -6 1 266.91 44.58 2
0 6 -1 281.38 43.1 1
0 -6 -1 233.91 44.88 2
0 6 -1 282.5 40.85 4
0 6 -1 210.7 45.99 3
0 6 1 181.5 45.84 4
1 -6 1 2.97 31.15 2
-1 6 -1 -46.7 32.31 3
-1 6 -1 -0.13 41.33 3
-1 6 -1 -30.71 33.6 1
-2 6 -1 36.47 43.36 1
2 -6 1 32.88 35.98 2
-2 6 -1 67.95 57.32 3
3 6 1 40.2 34.59 3
3 6 1 1.49 47.05 5
-3 6 -1 -43.09 60.17 3
3 -6 1 -24.49 37.65 2
-3 6 -1 -16.4 44.78 1
4 -6 1 111.21 49.63 2
-4 6 -1 125.47 73.3 3
-4 6 -1 244.09 58.14 1
3 -7 -1 -77.86 32.18 2
-3 7 1 -56.97 58.21 3
3 7 -1 -2.98 33.26 3
-3 7 1 -116.19 40.96 1
2 -7 -1 11.3 36.08 2
2 7 -1 53.48 41.72 3
-2 7 1 51.69 50.04 3
2 7 -1 52.8 39.65 1
2 7 -1 32.53 34.55 3
-2 7 1 35.24 37.03 1
-1 7 1 281.27 45.41 3
1 7 -1 229 50.21 3
1 7 -1 296.46 47.88 1
1 7 -1 232.81 51.82 3
-1 7 1 293.6 43.02 1
1 -7 -1 373.24 56.37 2
-1 -7 1 244.23 49.18 2
0 -7 -1 830.03 82.86 2
0 7 -1 646.35 82.72 3
0 7 -1 691.68 78.63 3
0 -7 1 871.61 81.84 2
0 7 1 777.49 77.18 4
0 7 -1 790.14 75.79 1
1 -7 1 -11.13 35.1 2
-1 7 -1 108.52 42.03 1
1 7 1 48.99 45.41 4
-1 7 -1 100.77 52.53 3
-2 7 -1 138.54 51.21 1
-2 7 -1 156.31 65.34 3
2 -7 1 72.89 42.22 2
2 7 1 64.65 50.76 5
-3 7 -1 -21.44 64.44 3
3 -7 1 -58.01 34.35 2
-3 7 -1 -38.5 45.98 1
-2 8 1 8.36 58.52 3
2 8 -1 70.1 40.91 3
2 -8 -1 -14.47 41.15 2
-2 8 1 101.85 46.02 1
-1 -8 1 171.33 47.04 2
1 -8 -1 209.19 53.29 2
1 8 -1 160.65 49.19 3
-1 8 1 261.16 58.96 3
0 -8 1 62.7 41.76 2
0 8 -1 77.12 42.54 1
0 -8 -1 175.26 48.33 2
0 8 -1 74.37 51.44 3
-1 8 -1 25.72 56.5 3
1 8 1 60.52 45.24 5
1 -8 1 147.02 46.72 2
1 8 1 153.31 54.54 4
-1 8 -1 94.72 46.35 1
-2 8 -1 46.03 65.63 3
-2 8 -1 23.76 48.66 1
2 -8 1 84.07 45.58 2
6 0 -2 -3.73 45.1 5
-6 0 2 -29.45 40.84 1
-5 0 2 323.58 69.09 3
-4 0 2 -14.72 43.13 3
4 0 -2 25.94 43.35 3
-4 0 2 -10.36 30.68 1
4 0 -2 25.24 38.94 3
3 0 -2 -46.08 23.78 1
-3 0 2 11.34 23.65 1
3 0 -2 11.94 32.48 3
-3 0 2 5.41 26 3
3 0 -2 -1.05 28.77 3
-3 0 2 -25.22 31.8 3
-2 0 2 7334.22 559.37 3
2 0 -2 7328.61 559.4 3
2 0 -2 7242.09 519.12 1
2 0 -2 7355.71 561.74 3
-2 0 2 6783.7 561.41 3
-2 0 2 6904.31 518.83 1
-1 0 2 7360.81 555.12 1
1 0 -2 7490 545.15 2
1 0 -2 7678.38 597.69 3
-1 0 2 8036 598.02 3
1 0 -2 7589.35 555.59 1
-1 0 2 7837.45 554.76 1
-1 0 2 7579.53 599.01 3
1 0 -2 7837.92 598.69 3
1 0 -2 7775.09 554.4 1
0 0 -2 2409.69 161.32 4
0 0 2 2472.06 184.72 3
0 0 -2 2331.97 184.98 3
0 0 2 2173.35 184.91 3
0 0 2 2450.18 185.28 5
0 0 -2 2368.18 184.09 3
0 0 -2 2171.65 171.32 1
0 0 2 2350.59 161.19 4
0 0 2 2149.33 172.22 1
0 0 -2 2471.89 185.27 5
0 0 -2 2424.42 171.22 1
0 0 2 2372.43 171.49 1
1 0 2 1893.13 163.43 5
1 0 2 2282.78 164.19 3
-1 0 -2 1987.33 150.41 1
-1 0 -2 2202.18 161.85 3
-1 0 -2 2037.53 150.8 1
-1 0 -2 2009.07 161.77 3
1 0 2 1987.43 151.6 1
1 0 2 1935.23 162.1 3
1 0 2 1921.47 152.77 1
-1 0 -2 1790.15 163.35 5
2 0 2 3235.95 271.75 3
-2 0 -2 3284.06 251.18 1
-2 0 -2 3778.82 272.51 3
2 0 2 3556.73 274.63 3
-2 0 -2 3370.64 252.62 1
2 0 2 3279.12 253.17 1
2 0 2 3424.76 270.86 5
-2 0 -2 3354.53 271.13 5
3 0 2 125.58 39.43 5
-3 0 -2 154.35 43.73 5
-3 0 -2 200.54 39.8 3
-3 0 -2 191.2 36.73 1
3 0 2 203.85 48.56 3
3 0 2 239.52 48.46 3
4 0 2 55.33 44.31 3
4 0 2 44.44 46 3
4 0 2 19.99 38.36 5
-4 0 -2 7.16 32.79 3
-4 0 -2 3.5 33.35 1
-5 0 -2 132.59 42.44 1
5 0 2 135.05 52.13 5
5 0 2 232.37 61.97 3
-6 0 -2 -0.69 41.66 1
6 1 -2 314.91 69.75 5
6 -1 -2 327.64 61.93 5
6 1 -2 469.74 80.56 3
-6 1 2 426.22 67.12 1
-6 -1 2 391.4 64.25 1
-5 1 2 -63.7 36.68 1
5 1 -2 34.64 50 3
-5 1 2 -45.94 53.14 3
5 -1 -2 52.37 37.64 5
-5 -1 2 -16.5 37.79 1
5 -1 -2 2.53 51.38 3
4 1 -2 94.53 45.58 3
-4 -1 2 113.56 37.2 1
-4 1 2 65.5 53.2 3
4 1 -2 111.96 45.3 3
-4 1 2 95.99 38.14 3
4 -1 -2 105.62 37.83 5
4 -1 -2 147.91 50.95 3
-4 1 2 142.86 40.5 1
-3 1 2 355.09 55.89 3
-3 -1 2 287.44 42.79 3
-3 -1 2 273.63 50.13 3
-3 1 2 328.49 45.83 3
-3 1 2 332.5 42.56 1
3 1 -2 279.72 46.84 3
-3 -1 2 287.47 42.54 1
3 -1 -2 360.99 47.64 1
3 -1 -2 303.63 48.68 3
3 -1 -2 339.24 52.3 3
3 1 -2 337.78 51.21 3
-2 -1 2 43.77 30.38 3
2 -1 -2 38.1 25.54 3
2 1 -2 45.58 26.22 1
-2 -1 2 53.75 24.38 1
-2 1 2 42.19 22.13 1
2 -1 -2 17.66 25.9 1
2 -1 -2 33.92 24.76 1
-2 -1 2 32.65 21.21 3
-2 1 2 52.97 24.26 3
-2 1 2 26.77 29.29 3
2 1 -2 22.98 29.78 3
2 1 -2 14.77 29.47 3
-1 1 2 9614.23 680.39 1
1 1 -2 8665.06 681.66 1
-1 -1 2 8234.26 734.39 3
1 -1 -2 9536.8 680.11 1
1 1 -2 9606.74 734.05 3
-1 -1 2 9176.49 681.58 1
-1 1 2 9519.18 733.79 3
-1 1 2 9998.17 733.45 3
-1 -1 2 9216.4 733.47 3
-1 1 2 9831.46 680.3 1
1 1 -2 9386.53 680.73 1
1 -1 -2 9723.04 669.48 2
1 -1 -2 9668.16 680.69 1
-1 1 2 9929.16 669.51 2
-1 -1 2 9488.41 680.9 1
1 1 -2 9423.86 735.19 3
0 1 2 295.24 33.05 4
0 1 -2 294.2 32.42 1
0 1 -2 259.48 32.47 3
0 1 -2 282.63 33.01 1
0 -1 2 258.61 30.37 1
0 -1 2 352.09 34.99 1
0 1 2 291.97 31.53 2
0 -1 2 215.29 34.46 3
0 -1 2 239.69 32.35 3
0 -1 -2 268.84 33.1 5
0 1 -2 286.12 34.18 3
0 1 2 263.7 32.54 5
0 -1 -2 280.56 34.01 4
1 1 2 145.02 24.21 1
-1 1 -2 13.82 24.87 1
-1 1 -2 -21.16 26.74 3
-1 -1 -2 220.84 36.14 5
1 1 2 85.74 31.54 5
2 -1 2 95.91 29.38 1
2 -1 2 88.26 34.26 3
-2 1 -2 107.69 33.06 5
2 1 2 59.38 32.53 3
2 1 2 81.5 27.94 3
2 1 2 69.43 32.86 5
-2 1 -2 98.79 33.89 3
-2 -1 -2 85.89 17.58 1
2 -1 2 94.97 34.71 3
2 1 2 57.68 26.09 1
-2 1 -2 27.44 23.95 3
-2 -1 -2 73.55 34.3 5
-2 1 -2 94.17 27.76 1
2 -1 2 41.46 27.83 5
-3 -1 -2 750.65 69.13 1
-3 -1 -2 759.47 66.84 1
3 1 2 844.29 86.66 3
-3 1 -2 1018.29 87.67 3
3 1 2 736.87 79.31 3
-3 1 -2 765.8 83.21 5
-3 1 -2 761.08 75.57 1
3 -1 2 750.6 82.97 3
3 -1 2 918.75 89.35 3
3 1 2 843.32 86.56 5
-3 -1 -2 797.13 69.64 3
3 -1 2 749.19 81.47 5
4 -1 2 327.39 66.24 3
-4 1 -2 263.04 59.78 3
-4 -1 -2 238.2 41.38 1
-4 1 -2 404.27 55.13 1
4 1 2 283.45 63.92 3
-4 -1 -2 295.98 42.67 1
4 1 2 252.77 58.2 5
4 -1 2 254.46 58.13 3
4 1 2 312.57 56.32 3
4 -1 2 282.49 53.85 5
5 -1 2 239.65 57.35 5
5 1 2 163.91 53.97 3
5 1 2 190.11 54.36 5
-5 1 -2 257.07 53.99 1
5 -1 2 211.49 71.06 3
-5 -1 -2 144.66 38.36 1
6 1 2 -51.76 48.7 3
-6 2 2 -0.05 43.89 1
-6 -2 2 -3.63 35.66 1
6 2 -2 28.73 55.76 3
-5 2 2 243.08 72.16 3
-5 -2 2 218.16 43.19 1
5 2 -2 111.43 53.4 3
-5 2 2 250.36 52.89 1
5 -2 -2 195.4 42.34 5
4 2 -2 223.7 52.57 3
-4 2 2 182.53 41.88 1
-4 -2 2 212.37 45.05 3
-4 2 2 176.13 43.15 3
-4 2 2 233.6 61.83 3
4 -2 -2 212.55 35.41 5
4 2 -2 181.25 48.3 3
-4 -2 2 160.73 37.13 1
-3 -2 2 646.08 64.94 3
-3 2 2 604.98 61.61 1
-3 2 2 554.51 62.05 3
-3 2 2 640.88 69.76 3
3 2 -2 535.69 62.97 3
3 2 -2 597.46 68.45 3
3 -2 -2 579.8 60.8 1
-3 -2 2 594.3 57.12 1
3 -2 -2 664.95 64.93 3
2 2 -2 149.19 30.59 3
2 -2 -2 182.77 28.08 1
-2 2 2 194.32 38.03 3
-2 -2 2 155.96 31.7 3
2 -2 -2 136.93 26.11 3
-2 -2 2 153.46 28.51 1
2 -2 -2 178.01 27.68 1
-2 2 2 175.1 32.28 1
-2 -2 2 194.98 27.65 3
2 2 -2 183.33 30.99 1
2 -2 -2 199.85 28.48 3
-2 2 2 161.95 32.53 3
2 2 -2 142.94 35.99 3
-1 -2 2 529.13 50.81 1
1 2 -2 558.71 46.29 2
1 2 -2 602.7 53.72 1
1 2 -2 528.18 54.84 3
1 -2 -2 594.56 53.66 2
1 -2 -2 541.69 52.29 4
-1 -2 2 582.2 55.75 3
-1 2 2 663.64 55.41 2
1 2 -2 520.12 57.85 3
1 2 -2 569.15 54.12 1
-1 -2 2 523.22 54.56 3
0 2 2 82.94 25.37 2
0 2 2 9.25 23.17 5
0 -2 2 83.81 27.68 3
0 -2 -2 36.92 26.85 5
0 -2 2 43.9 17.67 3
0 2 2 34.13 28.59 4
0 2 -2 -27.47 28.91 1
0 -2 -2 59.23 23.9 2
0 2 -2 59.48 29.51 3
1 2 2 21.05 28.49 5
-1 2 -2 37.89 29.37 5
1 -2 2 50.56 27.83 3
-1 2 -2 36.16 24.47 3
-1 2 -2 36.62 31.48 3
1 -2 2 51.01 25.18 1
1 -2 2 58.29 28.08 3
-1 2 -2 50.97 24.37 1
2 2 2 127.75 24.53 1
2 2 2 73.33 34.78 5
2 -2 2 110.83 37.3 3
2 2 2 113.14 31.04 3
2 2 2 82.53 23.19 3
-2 2 -2 77.65 28.32 1
-2 2 -2 113.21 40.21 3
2 -2 2 82.09 31.87 1
2 -2 2 123.08 38.32 3
-2 2 -2 96.96 31.03 3
2 -2 2 106.67 36.29 5
-2 2 -2 85.87 32.88 5
3 2 2 69.22 40.8 5
-3 2 -2 251.76 43.65 1
3 -2 2 104.15 41.98 5
-3 2 -2 111.47 50.06 3
3 -2 2 95.71 51.03 3
3 2 2 51.46 33.12 3
3 2 2 112.32 43.89 3
-3 2 -2 201 40.33 5
-4 2 -2 951.76 88.84 1
4 2 2 726.74 96.47 5
-4 2 -2 948.95 94.09 5
4 -2 2 893.32 93.14 5
4 2 2 681.17 97.47 3
4 -2 2 1074.65 104.17 3
-4 2 -2 977.39 102.86 3
5 2 2 329.4 65.28 3
-5 2 -2 441.3 65.92 1
5 -2 2 351.75 64.64 5
6 3 -2 -48.51 50.04 3
-6 3 2 56.83 47.92 1
-5 3 2 -1.33 38.86 1
-5 3 2 3.06 65.78 3
5 3 -2 46.93 48.05 3
-4 3 2 278.83 49.67 1
-4 3 2 163.7 45.86 3
-4 3 2 174.75 61.85 3
4 3 -2 121.64 46.8 3
-4 -3 2 129.66 34.47 1
4 3 -2 140.75 50.16 3
4 -3 -2 245.62 47.56 3
3 3 -2 -8.42 35.21 3
3 -3 -2 23.13 29.02 1
3 3 -2 31.28 32.95 3
3 -3 -2 -1.89 27.69 1
-3 3 2 30.28 31.77 3
-3 3 2 79.71 43.98 3
-3 3 2 33.86 32.4 1
3 -3 -2 30 27.81 3
-3 -3 2 52.83 22.61 1
2 3 -2 183.75 28.16 2
-2 3 2 190.83 32.11 1
-2 3 2 220.12 37.89 3
2 3 -2 178.07 40.1 3
-2 3 2 246 35.65 3
2 3 -2 174.49 33.19 3
2 3 -2 192.35 35.92 1
2 -3 -2 152.55 34.22 2
1 -3 -2 17.28 22.95 2
1 -3 -2 25.7 26.75 4
-1 3 2 14.67 25.33 2
1 3 -2 31.95 28.13 1
1 3 -2 36.81 22.82 3
1 3 -2 19.4 25.59 3
-1 -3 2 109.87 21.14 2
1 3 -2 43.5 24.36 1
0 -3 2 457.08 40.22 2
0 3 2 502.04 47.72 4
0 3 2 341.51 42.62 5
0 3 -2 362.89 45.21 3
0 -3 -2 313.66 42.76 2
0 -3 2 308.21 41.12 3
0 3 -2 329.87 44.83 1
0 -3 2 325.14 37.36 1
0 3 -2 319.61 46.02 3
0 3 -2 337.2 40.93 1
0 3 2 402.84 43.22 2
1 3 2 240.12 44.31 5
1 -3 2 333.52 39.36 1
1 -3 2 319.04 42.11 3
-1 3 -2 367.76 46.41 3
-1 3 -2 451.73 48.87 1
1 3 2 282.06 41.02 2
-1 3 -2 370.29 52 3
2 -3 2 -6.7 9.04 3
-2 3 -2 24.08 27.86 1
-2 3 -2 -47.7 38.2 3
-2 3 -2 52.48 29.07 3
2 3 2 -23.31 31.7 5
-2 3 -2 6.48 29.93 5
-3 3 -2 298.12 49.99 1
3 3 2 150.27 37.92 3
3 3 2 213.54 38.73 1
3 -3 2 341.93 56.06 3
3 3 2 149.94 49.05 5
-3 3 -2 325.94 49.76 3
-3 3 -2 325.32 47.83 5
-3 3 -2 364.09 66.16 3
3 3 2 248.99 49.96 3
4 3 2 134.77 57.5 5
4 -3 2 189.6 55.98 3
4 3 2 152.78 58.6 3
-4 3 -2 209.19 51.69 1
-4 3 -2 217.34 47.15 5
-4 3 -2 293.5 72.46 3
4 -3 2 232.52 55.32 5
4 3 2 18.89 40.89 3
5 3 2 32.11 49.58 3
-5 3 -2 98.92 53.84 1
-5 4 2 112.72 73.29 3
5 4 -2 5.83 48.21 3
-5 4 2 49.06 46.29 1
5 -4 -2 23.09 40.96 1
4 -4 -2 -24.33 33.02 1
-4 4 2 -35.16 60.98 3
-4 4 2 -19.59 39.15 1
4 4 -2 43.28 46.85 3
4 -4 -2 17.21 33.63 1
4 4 -2 137.21 46.21 3
3 4 -2 63.28 41.38 3
3 4 -2 103.64 30.88 2
3 -4 -2 80.17 37.64 2
-3 4 2 61.37 37.08 1
3 4 -2 46.95 31.89 3
-3 4 2 76.52 35.7 3
-3 4 2 114.72 49.21 3
2 4 -2 -4.74 29.96 1
2 4 -2 2.51 32.2 3
2 4 -2 -16.34 22.01 2
2 4 -2 -38.34 25.63 3
2 4 -2 -54.33 27.82 1
2 -4 -2 -2.65 28.6 4
-2 4 2 6.6 26.69 1
-2 4 2 -19.84 27.31 3
-2 4 2 6.25 30.91 3
2 -4 -2 -8.66 27.11 2
1 -4 -2 164.01 32.92 2
1 4 -2 110.09 28.09 2
-1 4 2 186.81 34.37 2
1 4 -2 157.06 35.87 3
1 4 -2 142.26 33.97 1
1 4 -2 121.62 34.87 1
-1 -4 2 80.12 27.11 2
1 4 -2 141.96 34.82 3
0 4 2 12.97 24.79 5
0 4 -2 8.54 25.07 1
0 4 -2 -9 31.28 3
0 -4 2 7.62 21.79 2
0 -4 -2 6.44 24.71 2
0 4 2 2.27 30.85 4
0 4 2 -27.45 22.98 2
0 4 -2 -30.85 27.68 3
-1 4 -2 138.09 42.61 3
1 4 2 66.35 30.91 2
1 -4 2 119.36 25.57 3
-1 4 -2 152.56 39.88 1
1 -4 2 148.44 33.11 2
1 -4 2 127.84 26.06 1
1 4 2 31.97 35.23 5
-1 4 -2 148.36 35.56 3
2 -4 2 201.03 38.08 3
-2 4 -2 209.85 55.99 3
2 4 2 130.87 45.21 5
-2 4 -2 160.17 41.53 5
-2 4 -2 121.55 41.03 1
-2 4 -2 184.44 46.64 3
2 -4 2 230.53 35.36 1
-3 4 -2 188.09 47.64 3
-3 4 -2 131.18 43.67 1
3 4 2 172.54 35.9 1
-3 4 -2 162.99 42.42 5
-3 4 -2 181.21 64.94 3
3 4 2 185.8 44 3
3 -4 2 216.86 46 3
3 4 2 127.76 51.33 5
4 4 2 13.17 48.8 5
-4 4 -2 26.39 66.21 3
4 4 2 -26.52 32.84 3
-4 4 -2 35.95 37.34 5
-4 4 -2 -2.05 43.27 1
5 4 2 -17.29 45.63 3
-5 4 -2 -11.03 44.34 1
-5 5 2 112.8 52.23 1
5 5 -2 -23.37 47.6 3
5 -5 -2 83.43 49.34 2
-5 5 2 121.13 79.22 3
4 -5 -2 -17.04 37.14 2
-4 5 2 -9.81 45.38 1
-4 5 2 -13.55 56.73 3
3 5 -2 13.25 30.49 2
-3 5 2 -19.96 32.94 3
-3 5 2 -13.82 46.45 3
-3 5 2 -26.88 34.44 1
3 -5 -2 86.65 34.73 4
3 5 -2 14.49 33.23 3
3 5 -2 -11.28 42.8 3
3 -5 -2 1.38 33.58 2
-2 5 2 770.58 71.16 3
2 5 -2 737.23 77.73 3
2 5 -2 727.8 72.08 1
-2 5 2 779.59 74.76 3
2 5 -2 571.48 70.5 3
2 -5 -2 733.34 68.67 4
2 5 -2 652.41 67.89 2
-2 5 2 720.57 66.84 1
2 -5 -2 770.96 73.6 2
1 5 -2 250.23 45.6 3
-1 5 2 199.99 41.02 4
1 5 -2 255.57 38.85 2
1 5 -2 233.17 41.48 1
1 5 -2 215.68 43.56 3
1 -5 -2 240.3 40.98 2
-1 -5 2 162.84 35.96 2
1 5 -2 248.38 45.38 1
0 5 2 45.6 30.17 5
0 -5 2 12.61 26.25 2
0 5 -2 36.65 37.56 3
0 -5 -2 14.46 28.91 2
0 5 -2 15.88 36.63 3
0 5 2 40.19 35.75 4
0 5 -2 20.79 31.12 1
-1 5 -2 11.48 36.11 1
1 -5 2 5.49 27.85 2
-1 5 -2 5.52 42.09 3
1 5 2 21.55 33.58 5
-1 5 -2 -41.17 29.62 3
-2 5 -2 4.53 35.68 1
-2 5 -2 17.65 35.32 3
-2 5 -2 2.42 37.56 5
2 -5 2 0.06 23.26 1
2 5 2 -2.93 39.95 5
2 -5 2 6.37 34.5 2
-2 5 -2 -13.05 49.38 3
-3 5 -2 -12.82 39.84 1
-3 5 -2 -4.13 61.12 3
-3 5 -2 33.85 31.6 5
3 5 2 -14.93 43.6 5
-4 5 -2 921.09 120.64 3
-4 5 -2 708.37 86.28 1
-4 6 2 -44.33 65.19 3
-4 6 2 -45.99 40.97 1
4 6 -2 -42.34 36.74 3
4 -6 -2 -6.3 39.1 2
3 6 -2 39.42 37.58 3
-3 6 2 84.1 43.64 1
3 6 -2 92.48 47.21 1
3 -6 -2 87.89 40.59 2
3 -6 -2 151.61 40.74 4
-3 6 2 65 57.21 3
-2 6 2 1313.37 112.26 3
2 -6 -2 1203.09 109.87 2
-2 6 2 1195.61 113.61 3
2 6 -2 1155 115.17 3
-2 6 2 1397.46 105.54 1
2 6 -2 1159.52 108.49 1
1 6 -2 -19.99 38.29 3
1 6 -2 -21.51 32.97 1
1 6 -2 41.78 39.11 3
-1 -6 2 19.66 30.47 2
1 -6 -2 -3.8 31.58 2
0 6 -2 -14.85 41.87 3
0 6 -2 -31.81 39.67 3
0 -6 -2 0.39 33.53 2
0 6 -2 -78.13 31.98 1
0 6 2 -36.56 31.66 5
0 -6 2 56.1 32.19 2
0 6 2 -16.94 39.24 4
1 -6 2 36.47 33.12 2
1 6 2 9.05 38.19 5
1 6 2 47.27 50.18 4
-1 6 -2 -35.4 38.36 3
-1 6 -2 25.98 50.07 3
-1 6 -2 8.74 41.95 1
2 -6 2 22.24 36.13 2
-2 6 -2 -11.29 40.98 5
-2 6 -2 14.87 58.84 3
2 6 2 26.88 44.46 5
-2 6 -2 54.31 45.01 1
3 -6 2 116.38 50.44 2
-3 6 -2 353.79 78.83 3
-3 6 -2 179.27 59.81 1
-4 6 -2 75.25 50.05 1
4 6 2 6.32 38.94 3
-4 6 -2 -0.63 72.72 3
-3 7 2 44.84 58.86 3
3 -7 -2 27.05 38.11 2
3 7 -2 20.48 38.64 3
-3 7 2 24.72 42.1 1
3 7 -2 42.64 47.27 1
2 7 -2 -7.49 37.42 3
-2 7 2 14.15 43.5 3
-2 7 2 -49.87 32.31 1
2 7 -2 -40.57 38.86 1
2 -7 -2 17.73 36.61 2
1 -7 -2 760.73 81.17 2
1 7 -2 580.38 79.25 3
1 7 -2 805.88 75.28 1
-1 -7 2 679.03 73.56 2
0 7 2 23.66 35.7 5
0 -7 -2 38.2 39.62 2
0 -7 2 32.68 38.27 2
0 7 2 27.34 43.85 4
0 7 -2 78 39.59 1
0 7 -2 61.49 48.56 3
1 -7 2 -19.17 33.96 2
1 7 2 -3.02 37.28 5
1 7 2 2.64 47.4 4
-1 7 -2 19.53 41.24 1
-1 7 -2 -43.11 49.18 3
2 7 2 -17.32 43.55 5
-2 7 -2 -31.65 41.93 1
-2 7 -2 12.19 63.04 3
2 -7 2 19.8 39.49 2
3 -7 2 151.83 51.37 2
-3 7 -2 176.87 76.59 3
-3 7 -2 275.75 66.88 1
2 -8 -2 44.11 45.09 2
2 8 -2 -34.61 42.37 3
-2 8 2 49.91 51.62 3
2 8 -2 44.13 47.08 1
1 8 -2 229.86 66.92 3
1 8 -2 493.71 68.29 1
-1 -8 2 453.07 62.13 2
1 -8 -2 641.71 72.64 2
0 -8 -2 45.68 42.23 2
0 8 -2 13.86 53.27 3
0 8 2 48.67 49.29 4
0 8 -2 100.46 46.13 1
0 -8 2 25.39 40.08 2
1 8 2 -32.02 39.8 5
-1 8 -2 84.74 64.86 3
-1 8 -2 -41.99 45.34 1
1 -8 2 -43.12 36.68 2
-6 0 3 -78.24 37.73 1
6 0 -3 -40.04 45.3 5
5 0 -3 -20.4 51.52 3
-5 0 3 19.73 40.4 1
-5 0 3 -20.7 54.14 3
-4 0 3 26.36 47.33 3
-4 0 3 -30.22 30.95 1
4 0 -3 -49.32 41.29 3
-3 0 3 6.26 36.18 3
-3 0 3 0.09 28.76 3
3 0 -3 24.9 32.13 3
3 0 -3 19.82 32.56 3
3 0 -3 -30.7 29.46 1
-3 0 3 1.93 23.32 1
2 0 -3 -38.47 24.08 1
2 0 -3 37.56 25.45 1
-2 0 3 22.01 22.33 1
2 0 -3 -35.22 24.12 3
-2 0 3 -29.37 25.45 3
2 0 -3 -14.82 26.56 3
-2 0 3 -7.81 29.28 3
-1 0 3 -6.06 22.15 1
-1 0 3 -10.18 25.95 3
1 0 -3 -1.94 5.02 3
1 0 -3 28.35 23.24 3
-1 0 3 14.78 16.28 2
-1 0 3 14.13 26.59 1
-1 0 3 37.79 29.51 3
1 0 -3 13.65 22.25 1
1 0 -3 -13.5 16.73 2
1 0 -3 16.85 25.12 1
0 0 -3 -56.27 33.44 5
0 0 -3 -64.65 19.67 3
0 0 3 -65.65 31.49 5
0 0 3 -68.46 25.49 1
0 0 3 -81.08 27.16 1
0 0 -3 -48.76 20.62 1
0 0 3 -40.42 24.63 3
0 0 -3 -40.38 20.07 3
0 0 -3 -72.35 26.49 4
-1 0 -3 -31 17.9 3
1 0 3 -20.78 28.57 5
1 0 3 -3.31 26.62 1
1 0 3 -10.87 26.66 3
-1 0 -3 1.87 19.21 1
-1 0 -3 -31.57 27.71 5
1 0 3 0.66 24.22 1
-1 0 -3 -3.38 16.55 3
1 0 3 -2.55 23.58 3
-1 0 -3 -1.65 20.01 1
2 0 3 -10.01 29.32 5
-2 0 -3 -39.42 23.48 1
2 0 3 -16.33 28.03 3
-2 0 -3 -4.32 21.78 3
2 0 3 -3.57 28.4 1
-2 0 -3 15.12 33.3 5
2 0 3 -73 33.76 3
-2 0 -3 4.13 22.16 1
3 0 3 -2.95 37.75 3
3 0 3 3.49 37.3 5
-3 0 -3 -32.12 29.21 1
-3 0 -3 23.85 28.12 3
-3 0 -3 2.55 28.31 1
3 0 3 -8.89 37.42 3
-3 0 -3 -19.76 37.12 5
-4 0 -3 -13.67 30.53 3
4 0 3 0.12 47.9 3
4 0 3 -17.21 45.75 3
4 0 3 80.49 46.24 5
-4 0 -3 22.8 35.54 1
5 0 3 -35.27 50.95 3
-5 0 -3 12.25 35.47 1
5 0 3 87.18 50.01 5
6 -1 -3 45.24 43 5
-6 -1 3 -19.9 42.25 1
-6 1 3 53.81 45.83 1
6 1 -3 -117.97 49.62 3
5 -1 -3 69.04 40.78 5
-5 -1 3 -10.92 30.91 3
5 -1 -3 -21.49 49.02 3
-5 1 3 3.03 59.79 3
-5 -1 3 41.64 42.98 1
-5 1 3 54.25 41.01 1
5 1 -3 -4.76 44.96 3
4 1 -3 703.43 73.34 3
-4 1 3 620.68 82.97 3
-4 1 3 655.87 71.81 3
4 1 -3 577.64 77.55 3
4 -1 -3 746.81 75.8 3
-4 -1 3 618.22 77.87 3
4 -1 -3 603.19 71.83 1
-4 -1 3 725.51 69.18 1
-4 1 3 679.05 69.8 1
-3 -1 3 174.09 38.23 3
-3 -1 3 378.65 52.93 3
3 1 -3 308.36 47.21 3
3 -1 -3 326.95 45.51 3
-3 1 3 341.58 54.57 3
-3 1 3 294.92 43.31 3
3 1 -3 233.23 47.55 3
3 1 -3 200.8 44.79 1
-3 -1 3 271.43 41.43 1
-3 1 3 319.16 41.52 1
3 -1 -3 308.23 44.47 1
3 -1 -3 233.91 40.56 1
-2 1 3 1468.69 124.22 3
-2 -1 3 1320.65 124.85 3
2 1 -3 1333.23 125.27 3
2 -1 -3 1463.32 120.32 3
2 1 -3 1431.74 122.4 3
2 1 -3 1429.11 114.59 1
-2 1 3 1491.33 115.58 1
2 -1 -3 1505.29 112.58 1
-2 1 3 1470.31 121.33 3
-2 -1 3 1450.75 113.47 1
2 -1 -3 1582 121.76 3
-2 -1 3 1449.07 121.82 3
2 1 -3 1383.42 116.01 1
-2 1 3 1460.65 113.71 1
2 -1 -3 1556.85 113.95 1
2 -1 -3 1423.15 111.82 2
-1 1 3 4449.54 365.7 2
1 -1 -3 4714.37 370.03 1
-1 1 3 4783.65 371.34 1
-1 1 3 4584.17 400.38 3
-1 -1 3 5925.51 374.13 1
-1 1 3 4873.42 399.84 3
-1 -1 3 5722.45 404.44 3
1 1 -3 5529.09 404.2 3
-1 -1 3 5556.09 375.3 1
1 1 -3 5895.84 402.54 3
1 -1 -3 4786.84 365.91 2
1 1 -3 5527.74 375.41 1
1 1 -3 5674.38 373.84 1
1 -1 -3 4421.13 397.82 5
-1 1 3 4593.68 371.62 1
0 1 3 6.68 28.01 4
0 1 -3 -77.22 24.58 3
0 -1 3 -82.53 26.27 1
0 1 -3 -69.7 22.35 3
0 -1 -3 -1.24 29.43 5
0 1 3 -47.13 22.89 2
0 -1 -3 116.22 34.65 4
0 1 -3 -68.79 26.68 1
0 1 -3 -39.21 20.6 4
0 1 3 1.95 17.48 1
0 -1 3 -71.43 20.78 1
0 1 3 -20.91 27.28 5
1 1 3 364.78 47.41 5
-1 1 -3 424.52 42.31 1
1 -1 3 448.88 53.87 5
1 1 3 311.06 38.5 1
1 -1 3 398.45 46.57 1
1 1 3 363.72 39.93 3
1 -1 3 246.97 50.91 3
-1 1 -3 402.63 45.02 3
1 1 3 358.31 38.22 3
1 1 3 274.86 37.98 1
-1 1 -3 390.54 50 5
1 -1 3 354.65 44.49 3
-1 1 -3 319.67 42.19 3
-1 -1 -3 365.14 50.22 5
-2 1 -3 -29.04 35.78 5
2 1 3 41.95 30.43 1
2 -1 3 92.73 40.72 3
2 1 3 81.54 39.35 3
-2 1 -3 66.78 27.64 1
2 -1 3 84.91 37.33 5
2 1 3 98.5 34.07 5
-2 1 -3 78.64 33.89 3
-2 1 -3 81.37 34.71 1
-2 -1 -3 54.39 37.02 5
-2 1 -3 70.34 26.24 3
2 -1 3 121.16 36.99 3
2 1 3 69.4 30.78 3
3 -1 3 75.39 45.69 3
-3 1 -3 83.01 35.17 1
-3 -1 -3 71.34 22.15 1
3 1 3 39.01 37.01 3
3 -1 3 42.34 46.49 3
-3 -1 -3 62.66 23.34 1
-3 1 -3 42.56 29.81 3
3 1 3 42.11 39.49 5
3 1 3 65.7 42.77 3
3 -1 3 59.81 39.16 5
-3 1 -3 76.61 40.9 5
-3 -1 -3 72.31 42.38 5
-4 1 -3 -101.57 34.8 3
4 -1 3 -157.05 49.29 3
4 -1 3 -107.24 38.59 5
4 1 3 5.89 40.76 3
-4 -1 -3 -18.24 26.25 1
-4 1 -3 -24.24 44.2 5
-4 1 -3 -41.18 37.9 1
4 1 3 -69.89 38.35 5
5 -1 3 82.53 51.99 5
-5 1 -3 61.89 47.4 1
5 -1 3 27.35 62.52 3
5 1 3 47.59 47.93 3
6 -2 -3 -5.46 53 1
6 2 -3 -8.16 53.05 3
-6 2 3 107.44 48.1 1
-6 -2 3 43.12 41.95 1
-5 2 3 121.84 46.77 1
5 2 -3 -75.88 43.28 3
-5 2 3 93.9 63.18 3
5 -2 -3 29.61 33.22 5
5 -2 -3 101.19 49.83 1
-5 -2 3 13.22 36.85 1
-4 -2 3 31.11 41.05 3
-4 2 3 -35.11 50.43 3
-4 -2 3 -26.89 31.53 1
-4 2 3 -26.41 31.41 3
4 -2 -3 5.53 38 1
4 2 -3 -24.86 38.84 3
4 2 -3 -37.2 39.48 3
-4 2 3 27.39 32.78 1
4 -2 -3 23.11 37.7 3
3 2 -3 873.37 91.92 3
3 -2 -3 1152.28 85.49 1
3 2 -3 858.9 89.57 1
-3 2 3 1039.73 91.61 3
-3 -2 3 989.3 93.15 3
-3 -2 3 987.35 84.76 1
3 2 -3 855.51 95.26 3
-3 2 3 994.89 86.26 1
3 -2 -3 1008.45 85.54 1
-3 2 3 1030.63 97.26 3
3 -2 -3 1084.33 90.19 3
-2 -2 3 2284 180.71 1
-2 2 3 2499.25 195.4 3
2 -2 -3 2463.21 176.72 1
-2 -2 3 2335.81 194.27 3
-2 2 3 2557.62 194.55 3
2 2 -3 2335.25 183.99 1
-2 2 3 2448.87 181.49 1
2 2 -3 2249.46 194.49 3
-2 2 3 2369.68 180.32 1
2 2 -3 2386.35 198.14 3
2 2 -3 2430.39 182.21 1
2 -2 -3 2477.7 179.31 2
-1 2 3 2133 144.95 2
-1 -2 3 1894.44 146.01 1
-1 -2 3 1885.05 147.07 1
-1 -2 3 1941.27 157.25 3
1 2 -3 1849.02 145.31 1
1 -2 -3 1982.21 144.09 2
1 2 -3 1998.8 148.01 1
1 2 -3 1909.47 158.75 3
1 -2 -3 1918.88 138.79 4
-1 -2 3 1620.79 156.09 3
-1 2 3 1862.88 153.24 5
1 -2 -3 2034.82 152.85 5
1 2 -3 1900.34 156.79 3
0 -2 3 470.88 51.02 3
0 2 3 444.83 50.56 5
0 2 -3 480.05 50.42 3
0 2 -3 441.36 49.24 1
0 -2 3 458.79 46.76 1
0 2 3 474.32 48.2 2
0 2 -3 437.59 48.85 1
0 2 -3 464.3 51.18 3
0 -2 3 441.92 52.74 1
0 -2 -3 485.98 53.66 5
0 2 3 450.33 50.49 4
1 2 3 8.47 25.26 5
-1 2 -3 90.54 35.06 5
-1 2 -3 -8.8 28.86 1
-1 -2 -3 18.07 30.03 5
-1 2 -3 24.06 23.73 1
1 -2 3 46.06 29.08 3
1 -2 3 23.48 24.02 1
1 -2 3 21.64 27.53 3
-1 2 -3 18.24 26.03 3
-1 2 -3 21.16 30.07 3
-2 -2 -3 37.57 36.06 5
2 -2 3 64 36.63 3
2 2 3 76 31.68 1
2 -2 3 63.59 38.64 3
-2 2 -3 46.86 28.7 3
2 -2 3 57.8 38.09 5
-2 2 -3 8.53 35.12 3
2 2 3 19.24 23.75 1
-2 2 -3 49.04 28.57 1
2 2 3 57.81 34.98 5
2 2 3 40.05 28.75 3
-2 2 -3 11.1 34.62 5
2 2 3 48.03 23.5 3
-3 2 -3 9.66 43.29 3
3 2 3 86.58 46.04 5
-3 2 -3 42.45 41.37 5
3 -2 3 115.87 51.27 3
3 2 3 67.32 41.79 3
3 2 3 69.55 35.88 3
3 -2 3 17.17 42.64 5
-3 2 -3 84.04 39.98 1
4 2 3 1036.84 107.43 5
-4 2 -3 773.92 87.55 1
-4 2 -3 898.5 97.42 3
4 -2 3 955.8 101.08 3
-4 2 -3 964.72 99.31 5
4 -2 3 909.64 98.52 5
4 2 3 741.97 89.8 3
5 2 3 66.85 48.78 3
5 -2 3 71.61 54.72 5
-5 2 -3 214.87 54.88 1
6 -3 -3 26.62 49.55 1
-6 3 3 -36.76 46.13 1
6 3 -3 -68.2 48 3
-5 3 3 107.35 67.84 3
5 3 -3 -26.3 45.13 3
5 -3 -3 24.03 45.12 1
-5 -3 3 20.59 34.88 1
-5 3 3 65.82 44.36 1
-4 3 3 29.48 36.4 1
4 3 -3 -75.84 37.67 3
4 -3 -3 10.53 35.24 1
4 -3 -3 -15.45 30.96 3
-4 -3 3 14.74 31.82 3
-4 -3 3 4.99 33.31 1
-4 3 3 7.59 49.93 3
-4 3 3 -4.67 32.88 3
4 3 -3 -27.81 42.13 3
-3 -3 3 98.94 33.28 1
-3 3 3 130.75 38.58 3
3 3 -3 121.83 45.13 3
3 3 -3 115.78 42.45 1
-3 3 3 170.15 49.52 3
3 3 -3 110.21 41.43 3
-3 -3 3 126.96 36.4 3
-3 3 3 139.27 37.43 1
3 -3 -3 98.5 36.5 2
3 -3 -3 187.25 30.8 1
2 3 -3 101.39 31.72 3
2 3 -3 84.96 19.84 2
2 3 -3 63.91 31.06 1
-2 3 3 96.5 28.22 1
-2 -3 3 68.71 29.49 3
2 3 -3 75.2 35.33 3
2 3 -3 108.46 33.44 1
2 -3 -3 123.54 32.9 4
-2 -3 3 87.56 27.84 1
-2 3 3 102 27.85 3
-2 3 3 134.42 31.24 3
2 -3 -3 103.57 29 2
-1 3 3 443.35 50.06 2
-1 3 3 365.51 45.17 5
1 3 -3 411.37 51.28 1
-1 -3 3 415.86 49.51 1
1 3 -3 406.31 52.63 3
-1 -3 3 465.82 49.9 3
1 -3 -3 456.49 51.34 4
1 -3 -3 462.67 45.84 5
1 -3 -3 515.49 50.09 2
1 3 -3 384.24 50.59 3
1 3 -3 515.16 51.38 1
-1 -3 3 471.49 49.92 1
-1 -3 3 448.54 40.64 2
0 3 3 559 56.49 4
0 -3 3 596.93 54.96 1
0 3 -3 524.41 56.92 1
0 3 -3 470.47 60.88 3
0 -3 -3 611.19 57.94 2
0 3 3 538.69 55.94 2
0 3 3 532.18 56.62 5
0 -3 3 657.38 58.19 3
0 -3 3 532.53 51.66 2
0 3 -3 548.32 58.72 3
-1 3 -3 540.84 59.94 3
-1 3 -3 563.4 60.34 1
-1 3 -3 532.98 63.43 3
1 3 3 469.15 56.85 2
-1 3 -3 581.83 69.77 5
1 3 3 466.52 61.94 5
1 -3 3 665.45 56.95 1
-2 3 -3 320.44 48.83 1
-2 3 -3 283.52 58.98 3
2 -3 3 312.87 53.86 3
-2 3 -3 379.1 54.12 5
-2 3 -3 314.25 51.74 3
2 3 3 195.52 49.85 5
3 3 3 87.92 42.09 3
-3 3 -3 243.63 48.1 5
-3 3 -3 115.51 43.86 1
3 3 3 41.82 30.89 3
3 3 3 98.1 46.37 5
-3 3 -3 175.22 59.18 3
3 -3 3 100.02 48.89 3
4 -3 3 359.82 68.42 5
4 3 3 347.22 71.03 5
-4 3 -3 326.36 76.12 3
-4 3 -3 475.29 67.64 5
-4 3 -3 444.81 67.76 1
5 3 3 5.2 53.55 3
-5 3 -3 184.32 58.76 1
5 -4 -3 131.79 41.96 1
5 4 -3 -6.1 48.96 3
-5 4 3 128.62 49.01 1
-5 4 3 -15.56 65.56 3
-4 4 3 3.85 38.65 1
4 4 -3 14.16 28.06 2
-4 4 3 8.08 58.95 3
4 -4 -3 6.02 38.13 2
4 4 -3 10.37 40.71 3
3 -4 -3 54.01 35.29 2
3 4 -3 119.15 47.3 3
-3 4 3 145.4 39.33 3
3 4 -3 74.36 27.71 2
3 4 -3 16.77 33.16 3
-3 4 3 83.22 49.7 3
3 -4 -3 132.24 38.58 4
3 4 -3 86.92 42.78 1
-3 4 3 119.25 41.79 1
2 4 -3 3.31 21.08 2
-2 4 3 -12.7 27.08 3
-2 4 3 2.92 25.02 3
2 -4 -3 -6.88 30.87 4
2 4 -3 42.27 37.3 3
2 -4 -3 -20.65 27.91 2
2 4 -3 30.42 31.95 3
2 4 -3 7.98 33.39 1
-2 4 3 58.43 26.93 1
1 -4 -3 276.81 47.69 4
1 4 -3 192.28 42.6 3
1 4 -3 324.92 48.73 3
1 4 -3 225.13 41.97 1
-1 4 3 269.11 41.3 2
-1 4 3 236.17 32.88 5
-1 4 3 194.98 40.44 4
1 -4 -3 295 41.5 2
-1 -4 3 243.77 32.66 2
0 -4 -3 2749.2 210.41 2
0 -4 3 2973.39 223.68 3
0 4 3 2716.6 224.29 5
0 4 -3 2849.93 212.59 1
0 4 3 2712.12 209.76 2
0 4 3 2634.68 200.9 4
0 -4 3 3000.97 209.11 1
0 4 -3 2803.41 228.15 3
0 -4 3 2609.05 205.37 2
-1 4 -3 137.16 38.56 3
-1 4 -3 245.31 46.18 1
1 4 3 132.85 39.45 5
1 -4 3 121.05 30.83 1
-1 4 -3 115.62 46.88 3
1 -4 3 152.34 34.19 3
-2 4 -3 198.76 47.54 3
2 4 3 82.83 44.25 5
2 -4 3 160.69 39.66 3
-2 4 -3 124.63 44.03 5
-2 4 -3 120.71 56.96 3
-2 4 -3 200.26 43.5 1
-3 4 -3 519.34 88.13 3
3 4 3 476.51 62.58 3
-3 4 -3 604.33 69.69 5
3 4 3 476.6 59.05 1
3 4 3 555.23 77.78 5
-3 4 -3 627.16 70.19 1
-4 4 -3 238.1 73.2 3
-4 4 -3 268.65 59.81 1
4 4 3 69.05 42.47 3
-4 4 -3 223.83 51.3 5
5 4 3 -0.8 43.24 3
-5 5 3 29.85 70.59 3
5 5 -3 90.52 56.29 3
5 -5 -3 39.73 43.89 2
-5 5 3 1.23 47.16 1
-4 5 3 198.9 49.91 1
4 -5 -3 105.94 43.5 2
4 5 -3 81.06 47.58 3
-4 5 3 152.6 65.94 3
4 5 -3 112.61 54.3 1
4 -5 -3 50.8 41.05 4
3 -5 -3 55.49 39.13 4
3 5 -3 -4.1 25.86 2
3 5 -3 63.92 48.52 1
3 5 -3 100.52 49.33 3
-3 5 3 49.39 39.5 1
-3 5 3 33.14 35.25 3
3 -5 -3 22.73 37.21 2
-3 5 3 58.85 51.25 3
3 5 -3 -4.62 37.53 3
2 5 -3 28.8 39.42 1
2 -5 -3 -35.63 35.59 4
2 5 -3 2.46 34.92 3
-2 5 3 -22.68 30.45 3
-2 5 3 -19.02 26.93 3
-2 5 3 27.87 28.02 1
2 -5 -3 4.76 28.73 2
2 5 -3 2.68 25.72 2
2 5 -3 -11.62 41.04 3
1 5 -3 151.44 44.96 3
-1 5 3 122.37 41.3 4
-1 -5 3 131.05 31.2 2
1 -5 -3 92.45 36.49 2
1 5 -3 148.66 47.51 3
1 5 -3 84.73 38.54 1
0 5 -3 143.45 39.41 1
0 5 3 110.94 43.49 4
0 -5 3 139.33 33.05 2
0 5 3 120.16 35.38 5
0 5 -3 132.88 41.62 3
0 5 -3 133.63 47.44 3
0 -5 -3 113.99 37 2
-1 5 -3 21.81 33.39 3
-1 5 -3 9.8 40.45 1
1 -5 3 -13.25 29.4 2
1 -5 3 -6.39 23.07 1
1 5 3 -13.1 33.32 5
-1 5 -3 1.3 48.93 3
1 5 3 35.21 44.23 4
2 5 3 6.43 40.67 5
-2 5 -3 -0.59 43.16 5
-2 5 -3 -25.59 54.99 3
-2 5 -3 14.32 38.34 3
2 -5 3 25.49 27.29 3
-2 5 -3 -18.43 38.6 1
-3 5 -3 50.78 38.66 5
3 5 3 0.93 46.78 5
-3 5 -3 81.07 64.8 3
-3 5 -3 -13.36 41.4 1
-4 5 -3 493.54 77.59 1
-4 6 3 -2.95 46.13 1
4 -6 -3 24.99 37.79 4
4 6 -3 67.64 55.25 1
4 6 -3 9.41 42.01 3
4 -6 -3 14.59 38.79 2
-4 6 3 -72.68 58.62 3
3 -6 -3 160.6 47.96 4
3 6 -3 192.25 54.68 1
-3 6 3 215.83 60.42 3
3 6 -3 128.64 47.16 3
-3 6 3 214.62 48.09 1
3 -6 -3 160.74 45.51 2
2 -6 -3 893 88.43 2
2 6 -3 886.05 88.33 1
2 6 -3 630.9 86.99 3
2 6 -3 826.48 92.36 3
-2 6 3 936.37 82.59 3
2 6 -3 934.28 81.69 2
-2 6 3 844.84 84.38 3
-2 6 3 998.32 78.49 1
1 6 -3 -4.92 43.44 3
-1 -6 3 -5.08 29.24 2
1 -6 -3 151.39 41.79 2
1 6 -3 2.26 43.26 3
1 6 -3 -1.18 38.72 1
0 6 -3 14.88 39.5 1
0 6 -3 -3.99 38.63 3
0 6 3 85.03 44.66 4
0 -6 3 2.09 32.82 2
0 6 3 -12.33 32.38 5
0 6 -3 -49.44 44.49 3
0 -6 -3 32.36 37.59 2
1 -6 3 67.39 36.56 2
-1 6 -3 -3.3 46 1
-1 6 -3 16.66 54.42 3
1 6 3 61.38 46.9 4
1 6 3 2.67 38.52 5
2 6 3 -75.55 36.6 5
-2 6 -3 68.41 48.28 5
2 -6 3 -5.45 36.25 2
-2 6 -3 -58.96 41.52 1
-2 6 -3 -19.42 59.72 3
-3 6 -3 4.58 49.78 1
-3 6 -3 -104.3 61.99 3
-3 7 3 18.23 52.96 3
3 -7 -3 23.9 37.71 2
-3 7 3 12.58 39.76 1
3 7 -3 36.88 48.85 1
3 7 -3 29.03 40.65 3
2 7 -3 -30.87 46.23 1
2 7 -3 11.56 42.75 3
2 -7 -3 31.32 39.17 2
-2 7 3 19.95 30.84 1
-2 7 3 -35.16 30.23 3
-1 -7 3 43.4 35.03 2
1 7 -3 84.12 49.35 3
1 -7 -3 111.26 43.97 2
1 7 -3 94.25 48.12 1
0 -7 -3 98.83 44.13 2
0 7 -3 74.76 44.07 1
0 7 3 51.21 48.28 4
0 7 3 48.48 35.85 5
0 7 -3 29.12 50.46 3
0 -7 3 23.32 34.25 2
-1 7 -3 58.15 59.88 3
-1 7 -3 98.69 55.33 1
1 -7 3 112.91 40.76 2
1 7 3 1.04 38.42 5
2 -7 3 102.76 46.18 2
-2 7 -3 -15.25 67.77 3
-2 7 -3 227.11 58.25 1
2 -8 -3 -22.24 40.25 2
2 8 -3 -38.1 46.58 1
2 8 -3 -28.27 42.43 3
-2 8 3 -15.18 43.76 3
-1 -8 3 510.81 62.66 2
1 8 -3 319.7 71.75 3
1 -8 -3 488.56 70.46 2
0 8 -3 -57.36 45.28 1
0 8 -3 -45.76 54.71 3
0 -8 3 14.35 39.59 2
0 -8 -3 30.76 40.29 2
1 -8 3 -55.61 39.09 2
-1 8 -3 85.28 54.28 1
-1 8 -3 -7.64 58.57 3
6 0 -4 78.1 54.78 1
-6 0 4 74.14 47.83 1
5 0 -4 221.14 57.43 1
-5 0 4 125.15 59.43 3
-5 0 4 158.67 46.92 1
5 0 -4 165.71 57.94 3
4 0 -4 12.98 39.68 1
-4 0 4 -9.12 30.41 1
-4 0 4 38.91 48.36 3
4 0 -4 40.86 43.6 3
3 0 -4 -3.91 30.46 1
-3 0 4 29.34 30.98 3
3 0 -4 25.75 31.24 3
3 0 -4 -3.34 30.45 3
-3 0 4 -14.86 36.54 3
-3 0 4 -27.47 26.07 1
-2 0 4 36.88 24.28 1
2 0 -4 26.34 25.51 1
-2 0 4 27.4 32.27 3
2 0 -4 46.13 16.77 2
2 0 -4 36.84 26.7 3
-2 0 4 30.18 25.69 1
2 0 -4 6.34 23.59 1
2 0 -4 1.9 27.45 3
1 0 -4 227.27 34.67 3
-1 0 4 263.25 34.84 1
-1 0 4 303.26 37.5 3
-1 0 4 260.84 34.33 1
1 0 -4 212.29 34.09 1
-1 0 4 257.32 40.68 3
1 0 -4 282.99 37.81 3
-1 0 4 246.37 27.39 2
1 0 -4 287.46 35.19 1
0 0 4 369.88 41.83 1
0 0 -4 308.46 35.56 1
0 0 4 350.59 37.88 4
0 0 -4 338.82 36.26 1
0 0 -4 290.15 35.96 3
0 0 4 312.85 41.14 3
0 0 -4 317.01 38.97 3
0 0 4 307.67 43.09 3
0 0 4 294.25 41.16 1
0 0 -4 262.81 50.06 5
0 0 -4 333.09 38.55 4
1 0 4 759.09 63.65 4
1 0 4 707.8 76.48 5
1 0 4 843.9 74.6 3
-1 0 -4 770.58 66.18 3
-1 0 -4 728.44 64.12 1
1 0 4 695.83 72.59 3
1 0 4 745.93 68.21 1
-1 0 -4 691.36 61.93 1
1 0 4 685.42 67.94 1
-1 0 -4 742.29 79.35 5
2 0 4 1643.76 146.29 3
-2 0 -4 1628.6 128.42 1
-2 0 -4 1760.55 137.39 3
2 0 4 1564.32 141.65 3
2 0 4 1580.79 144.46 5
-2 0 -4 1603.23 128.28 1
-2 0 -4 1751.11 150.44 5
-3 0 -4 4.9 26.43 1
3 0 4 -1.22 41.1 3
-3 0 -4 11.24 29.62 1
-3 0 -4 -25.66 25.27 3
-3 0 -4 0.58 42.8 5
3 0 4 -52.71 40.99 3
3 0 4 -57.76 38.93 5
4 0 4 137.21 58.23 3
4 0 4 207.06 56.92 5
-4 0 -4 179.66 41.6 1
-5 0 -4 97.93 37.08 1
5 0 4 -83.38 53.5 3
-6 -1 4 -53.41 41.05 1
6 1 -4 71.59 54.99 1
6 -1 -4 -14.8 50.85 1
-6 1 4 -6.28 42.82 1
5 1 -4 2.22 46.66 1
-5 -1 4 -61.05 38.99 1
5 -1 -4 -17.17 47.88 3
-5 -1 4 -30.1 44.93 3
-5 1 4 -1.48 56.64 3
-5 1 4 -47.94 33.87 1
5 1 -4 -28.36 48.91 3
5 -1 -4 -33.46 43.91 1
4 -1 -4 514.28 64.65 3
4 1 -4 595.52 64.51 3
-4 -1 4 546.16 77.33 3
4 1 -4 522.44 72.25 1
4 -1 -4 536.23 65.53 1
-4 -1 4 487.9 61.28 1
-4 1 4 716.79 87.11 3
-4 1 4 462.12 59.74 1
-4 1 4 505.31 64.87 3
-3 1 4 656.54 68.78 3
-3 1 4 595.96 58.09 1
3 -1 -4 628.57 57.29 1
-3 1 4 536.88 59.36 3
3 -1 -4 574.26 58.77 1
3 -1 -4 535.11 59.94 3
3 1 -4 531.32 59.72 3
-3 -1 4 522.53 57.97 1
-3 -1 4 506.46 65.51 3
3 1 -4 487.93 66.79 3
-3 -1 4 502.95 60.24 3
3 1 -4 461.7 60.64 1
-2 1 4 1998.48 150.51 1
2 1 -4 1802.46 162.27 3
2 1 -4 1773.42 151.9 1
2 1 -4 1961.17 150.01 1
2 1 -4 1894.05 160.13 3
2 -1 -4 2056.5 147.28 1
-2 -1 4 1910.84 160.88 3
-2 1 4 2075.43 159.49 3
2 -1 -4 2028.37 158.29 3
2 -1 -4 1989.58 148.43 1
2 -1 -4 2028 157.96 3
-2 -1 4 1907.67 149.84 1
-2 1 4 1956.1 162.2 3
-2 -1 4 2013.36 164.6 3
-2 1 4 1951.19 148.89 1
-2 -1 4 1834.16 151.82 1
2 -1 -4 1869.38 144.91 2
1 -1 -4 198.61 29.03 2
-1 -1 4 216.72 38.33 3
1 1 -4 169.63 33.4 1
1 -1 -4 201.37 39.18 5
-1 -1 4 248.79 34.97 1
1 1 -4 226.71 33.05 1
-1 -1 4 201.28 35.07 3
-1 1 4 196.13 29.97 1
-1 1 4 195.21 28.6 2
-1 1 4 231.47 32.34 3
-1 -1 4 204.33 32.74 1
1 1 -4 195.81 35.77 3
-1 1 4 191.57 31.05 3
1 -1 -4 212.94 36.03 4
1 1 -4 169.57 34.62 3
-1 1 4 229.04 29.57 1
0 1 4 135.25 27.6 1
0 1 -4 187.66 35.2 1
0 1 4 178.4 36.3 5
0 -1 -4 164.46 38.98 5
0 -1 4 154 29.98 1
0 1 4 166.24 30.24 2
0 1 -4 242.89 47.56 5
0 -1 4 184.44 35.19 3
0 1 -4 151.65 27.26 4
0 -1 -4 159.85 37.32 4
0 1 4 157.84 34.61 4
0 1 4 164.79 28.19 3
0 1 4 205.71 27.15 1
0 -1 4 191.19 36.35 3
0 -1 4 193.91 34.47 1
0 1 -4 152.59 30.76 3
0 1 -4 167.64 30.53 1
0 1 4 207.23 28.23 3
0 1 -4 175.81 32.44 3
-1 -1 -4 1935.31 163.79 5
1 -1 4 1944.08 150.75 1
-1 1 -4 2073.26 158.05 3
-1 1 -4 1805.31 156.81 3
1 1 4 1892.27 159.16 5
-1 1 -4 1750.6 148.87 1
1 -1 4 2044.81 151.26 1
1 1 4 1696.91 153.47 3
1 1 4 2009.54 154.71 3
-1 1 -4 1960.98 147.49 1
1 -1 4 1970.94 159.8 3
1 1 4 1620.69 143.91 1
1 1 4 1856.55 144.75 1
1 -1 4 1896.96 135.02 4
-1 1 -4 1976.27 161.87 5
1 -1 4 1962.51 161.46 3
1 -1 4 2020.43 162.02 5
2 1 4 733.54 81.65 3
2 1 4 756.21 75.04 1
2 -1 4 805.2 81.88 3
2 1 4 715.39 74.22 3
-2 1 -4 834.1 88.52 5
2 -1 4 854.76 87.88 5
-2 1 -4 805.55 74.55 1
2 1 4 722.93 83.71 5
-2 -1 -4 793.19 85.84 5
2 -1 4 941.49 87.73 3
3 1 4 269.91 57.45 3
-3 1 -4 221.01 44.27 1
-3 -1 -4 276.21 55.81 5
3 1 4 218.58 50.27 3
-3 1 -4 261.96 55.6 5
3 -1 4 237.6 56.44 5
3 -1 4 167.13 61.55 3
3 1 4 226.75 53.96 5
-3 1 -4 222.19 46.72 3
3 -1 4 183.93 58.65 3
4 1 4 -0.75 40.78 3
4 -1 4 -79.65 57.06 3
4 1 4 15.6 47.28 5
-4 1 -4 -12.47 44.79 5
-4 1 -4 -49.81 36.28 1
4 -1 4 -6.88 47.19 5
-5 1 -4 38.67 43.13 1
5 1 4 64.4 53.25 3
5 -1 4 -28.67 60.35 3
-6 2 4 -35.9 42.47 1
6 -2 -4 -36.65 48.22 1
6 2 -4 17.3 52.94 3
-6 -2 4 -51.62 38.74 1
6 2 -4 -31.02 53.97 1
-5 2 4 22.01 39.61 1
-5 -2 4 -37.67 40.64 1
5 2 -4 -63.67 45.62 3
-5 2 4 83.76 63.96 3
5 -2 -4 34.48 46.19 1
5 2 -4 13.06 54.18 1
-4 2 4 -3.91 51.87 3
-4 -2 4 -17.75 33.33 1
4 2 -4 -56.09 39.61 1
4 -2 -4 12.66 35.28 1
-4 2 4 -40.51 32.31 3
-4 -2 4 -43.01 21.95 3
4 -2 -4 -42.67 33.04 3
-4 2 4 9.54 34.58 1
4 2 -4 -96.29 37.69 3
4 2 -4 17.92 40.01 3
-3 -2 4 644.96 65.89 1
3 -2 -4 669.98 61.05 1
3 2 -4 650.73 69.26 3
-3 2 4 581.17 63.76 1
3 -2 -4 615.36 62.73 1
-3 2 4 678.5 68.47 3
3 -2 -4 620.52 62.31 3
3 2 -4 633.47 71.45 1
3 -2 -4 593.86 65.1 2
-3 -2 4 629.29 72.95 3
-3 2 4 626.64 73.57 3
3 2 -4 632.1 73.94 3
-2 -2 4 1132.61 109.36 3
2 2 -4 1143.57 103.15 1
-2 -2 4 1274.51 107.41 3
2 -2 -4 1295.36 104.47 5
2 -2 -4 1222.35 98.22 2
-2 2 4 1227.63 97.46 1
2 2 -4 1125.72 109.28 3
-2 2 4 1203.77 105.6 3
2 2 -4 1312.89 107.95 3
-2 -2 4 1160.77 99.86 1
-2 2 4 1235.5 103.55 3
-2 2 4 1248.56 98.52 1
1 2 -4 -40.15 23.51 1
-1 2 4 2.87 24.06 5
1 -2 -4 16.71 22.39 2
1 2 -4 -23.27 24.8 1
1 2 -4 -51.59 30.57 3
1 2 -4 5 26.97 3
-1 -2 4 23.83 26.77 3
1 -2 -4 -6.42 26.28 4
-1 -2 4 -7.12 22.81 3
-1 2 4 -2.63 17.38 1
-1 2 4 11.34 22.7 2
1 -2 -4 8.94 25.19 5
-1 -2 4 10.12 25.25 1
-1 2 4 -8.09 14.9 1
-1 -2 4 15.9 22.18 1
0 -2 4 678.6 70.41 1
0 -2 4 698.88 75.89 3
0 -2 -4 767.15 78.21 5
0 2 4 703.17 65.95 4
0 -2 4 753.37 73.62 3
0 2 4 842.55 66.95 2
0 2 -4 682.82 71.4 3
0 2 -4 750.94 73 3
0 -2 4 711.31 66.03 1
0 2 4 732.04 71.7 5
0 2 -4 809.33 69.25 1
0 2 -4 730.85 69.31 1
1 -2 4 2.86 31.8 3
-1 -2 -4 18.92 31.18 5
-1 2 -4 10.37 29.11 3
-1 2 -4 -15.71 22.94 1
-1 2 -4 -7.75 27.15 3
1 -2 4 23.37 37.32 3
-1 2 -4 -15 38.8 5
1 2 4 29.78 29.51 5
2 2 4 444.13 52.26 1
-2 2 -4 213.59 54.71 3
-2 -2 -4 309.58 56.78 5
2 2 4 264.97 42.18 1
2 -2 4 409 61.58 5
-2 2 -4 299.56 48.81 1
2 2 4 149.99 41.33 3
2 2 4 276.8 51.04 5
2 2 4 406.77 50.93 3
2 -2 4 274.3 59.65 3
-2 2 -4 446.67 62.15 5
2 -2 4 340.53 60.58 3
-3 2 -4 9.12 37.64 1
-3 2 -4 -41.69 43.67 5
3 2 4 9.87 35.73 3
-3 2 -4 -47.39 40.35 3
3 2 4 23.39 41.01 5
3 2 4 -27.08 43.6 3
3 -2 4 -41.93 46.47 5
3 -2 4 26.48 47.07 3
-4 2 -4 474.23 71.96 5
4 2 4 364.16 63.68 3
-4 2 -4 451.63 65.7 1
4 2 4 365.93 68.1 5
4 -2 4 349.18 71.61 5
4 -2 4 344.56 75.44 3
5 -2 4 329.42 71.58 5
-5 2 -4 386.8 65.01 1
5 2 4 263.73 66.49 3
-6 -3 4 -12.11 38.45 1
-6 3 4 54.13 47.38 1
6 -3 -4 -48.97 45.78 1
6 3 -4 -30.37 53.04 1
6 3 -4 19.99 58.11 3
5 3 -4 -51 44.58 3
5 3 -4 -78.6 47.59 1
-5 3 4 -46.43 63.86 3
-5 -3 4 -23.22 36.16 1
5 -3 -4 -8.49 38.9 1
-5 3 4 -5.36 39.57 1
-4 3 4 70.63 59.01 3
-4 -3 4 44.52 39.67 3
4 -3 -4 72.18 38.39 2
4 3 -4 22.72 46.3 3
4 -3 -4 67.22 29.99 1
4 -3 -4 50.68 35.26 1
-4 3 4 42.45 37.74 3
-4 3 4 39.48 36.41 1
4 3 -4 61.74 46.61 1
4 3 -4 17.08 46.15 3
-4 -3 4 28.72 38.2 1
-3 -3 4 203.64 44.06 3
3 3 -4 200.13 51.5 3
3 -3 -4 174.9 37.92 2
-3 3 4 167.51 42.24 1
3 3 -4 135.91 45.9 3
-3 3 4 235.58 42.79 3
-3 3 4 256.19 54.13 3
3 3 -4 132.02 26.02 2
-3 -3 4 208.86 41.97 1
3 3 -4 176.73 48.06 1
2 3 -4 100.25 38.25 3
-2 3 4 118.56 28 1
-2 3 4 116.51 30.14 3
-2 3 4 167.16 32.16 1
-2 3 4 140.71 31.09 3
2 3 -4 85.32 39.7 1
-2 -3 4 103.33 38.15 3
2 3 -4 135.46 40.76 3
2 -3 -4 154.25 32.17 2
-2 -3 4 32.48 32.7 1
2 -3 -4 131.8 37.16 4
1 -3 -4 486.09 53.1 5
1 3 -4 394.56 58.53 3
-1 3 4 466.9 53.11 5
-1 3 4 573.87 54.67 2
-1 -3 4 431.97 54.24 3
-1 -3 4 507.72 54.39 1
1 -3 -4 532.02 54.04 2
1 -3 -4 469.73 53.05 4
1 3 -4 481.67 59.69 3
1 3 -4 520.86 56.16 1
-1 -3 4 540.24 56.21 1
0 3 -4 254.89 44.86 3
0 3 4 311.22 41.41 2
0 -3 4 310.19 40.11 1
0 -3 4 276.28 43.16 3
0 3 4 283.7 45.58 4
0 -3 -4 300.57 46 5
0 3 -4 268.53 47.63 3
0 3 -4 282.34 44.94 1
0 3 4 284.98 42.28 5
1 -3 4 -31.68 28.68 3
-1 3 -4 3.73 28.71 3
1 3 4 -34.33 28.86 5
1 3 4 -33.61 26.76 2
-1 3 -4 7.58 45.36 5
-1 3 -4 -33.02 29.32 1
-1 3 -4 1.78 37.83 3
-1 -3 -4 -23.6 35.89 5
1 3 4 -14.97 38.03 4
-2 3 -4 220.93 52.89 5
-2 3 -4 168.7 43.68 1
-2 3 -4 121.45 51.09 3
2 3 4 171.45 45.09 5
2 -3 4 242.33 50.79 3
3 -3 4 699.5 81.19 3
3 3 4 712.15 90.65 5
-3 3 -4 577.98 76 1
3 3 4 647.72 80.85 3
-3 3 -4 756.22 87.32 3
-3 3 -4 901.12 92.38 5
4 -3 4 -63.92 50.52 5
4 3 4 -36.9 42.39 3
-4 3 -4 26.25 44.6 1
-4 3 -4 19.68 45.22 5
5 3 4 -39.7 40 3
-5 4 4 -25.18 40.34 1
5 4 -4 42.15 55.71 1
5 4 -4 -15.37 46.25 3
5 -4 -4 -52.01 39.43 2
-5 4 4 -6.29 62.28 3
4 4 -4 -29.24 40.17 3
-4 4 4 3.05 39.94 1
4 4 -4 64.33 51.65 1
-4 4 4 -8.9 58.14 3
4 -4 -4 -71.62 33.95 2
-4 -4 4 32.96 34.03 1
4 4 -4 15.44 25.84 2
3 -4 -4 4.35 33.1 2
3 -4 -4 -11.05 35.88 4
-3 -4 4 1.5 27.92 3
3 4 -4 -17.77 34.23 3
3 4 -4 61.75 46.17 3
3 4 -4 -2.55 20.45 2
-3 -4 4 7.04 31.43 1
3 4 -4 -46.56 39.3 1
-3 4 4 51.78 46.84 3
-3 4 4 48.1 33.01 3
-3 4 4 -37.62 34.61 1
2 4 -4 56.83 38.37 3
-2 4 4 64.87 25.94 1
-2 4 4 96.28 28.9 3
-2 -4 4 41.48 34.88 1
2 -4 -4 33.92 30.25 2
2 4 -4 50.93 22.15 2
2 -4 -4 93.34 37.97 4
2 4 -4 26.8 38.79 1
2 4 -4 42.46 40.46 3
-2 -4 4 85.97 31.79 3
-2 4 4 54.93 28.94 1
-2 4 4 39.31 26.26 3
1 4 -4 174.19 47.23 3
1 -4 -4 234.43 49.11 4
-1 -4 4 265.44 40.52 1
1 -4 -4 201.71 40.66 2
1 4 -4 214.55 48.09 1
-1 4 4 272.08 44.72 4
-1 -4 4 236.06 41.84 3
-1 -4 4 223.02 30.56 2
-1 4 4 247.75 36.76 5
1 4 -4 140.81 48.41 3
0 4 -4 459.53 59.79 3
0 -4 -4 456.71 54.04 2
0 4 4 256.09 49.93 5
0 -4 4 416.5 49.17 1
0 4 4 456.25 56.76 4
0 -4 4 438.29 51.54 3
0 4 -4 340.64 60.19 3
0 4 -4 427.76 56.27 1
0 -4 4 424.52 46.76 2
1 4 4 -18.61 39.25 4
-1 4 -4 -1.33 47.42 5
1 4 4 42.37 36.83 5
-1 4 -4 -6.61 31.63 3
-1 4 -4 -28.21 37.01 1
-1 4 -4 -11.93 43.17 3
1 -4 4 -12.94 28.01 3
-2 4 -4 115.24 42.07 3
-2 4 -4 147.37 50.95 5
-2 4 -4 92.99 40.41 1
2 4 4 82.45 45.8 5
-2 4 -4 122.34 56.61 3
3 4 4 64.9 33.12 3
-3 4 -4 211.9 50.78 1
3 4 4 83.73 46.26 3
3 4 4 78.93 51.29 5
-3 4 -4 280 53.49 5
-3 4 -4 170.24 60.05 3
-4 4 -4 -19.39 45.78 1
4 4 4 65.99 40.92 3
-5 5 4 43.57 47.47 1
5 5 -4 15.01 56.89 1
5 5 -4 -25.79 50.28 3
-5 5 4 27.09 72.13 3
5 -5 -4 -17.22 37.92 2
4 5 -4 -48.85 43.02 3
-4 5 4 -32.62 38.42 1
4 5 -4 -5.54 49.52 1
-4 5 4 -43.86 55.31 3
4 -5 -4 -2.92 41.65 4
4 -5 -4 -8.43 37.49 2
-3 5 4 1111.58 96.56 3
3 -5 -4 1103.09 91.07 4
3 5 -4 899.91 82.91 2
-3 5 4 1072.23 94.3 1
3 -5 -4 1103.24 96.04 2
3 5 -4 939.29 98.83 1
-3 5 4 1034.4 101.19 3
3 5 -4 768.18 96.04 3
2 5 -4 99.56 48.13 1
2 -5 -4 122.79 43.85 4
-2 5 4 210.21 33.4 1
2 -5 -4 101.42 38.72 2
-2 5 4 125.54 31.1 1
2 5 -4 87.89 45.27 3
2 5 -4 164.16 50.35 3
1 5 -4 207.05 51.72 3
1 -5 -4 252.45 46.38 2
-1 5 4 253.73 37.5 5
-1 5 4 233.82 48.35 4
-1 -5 4 212.65 35.09 2
1 5 -4 208.7 56.12 3
1 5 -4 147.82 47.39 1
0 5 -4 -68.05 34.79 1
0 5 -4 -24.36 44.73 3
0 5 4 13.92 28.21 5
0 5 -4 14.42 36.3 3
0 -5 4 -5.58 26.45 3
0 -5 4 25.21 27.46 2
0 -5 4 28.41 29.92 1
0 -5 -4 16.27 33.21 2
0 5 4 26.82 38.83 4
-1 5 -4 -17.16 43.05 1
1 5 4 -8.19 42.41 4
1 -5 4 3.3 27.41 3
1 5 4 27.6 36.65 5
-1 5 -4 28.62 51.28 5
-1 5 -4 62.84 51.64 3
1 -5 4 87.63 35.11 2
-1 5 -4 34.77 37.3 3
2 5 4 156.37 53.83 5
-2 5 -4 362.83 63.81 5
-2 5 -4 318.03 57.07 1
-2 5 -4 224.02 66.87 3
-3 5 -4 559.02 76.52 1
-3 5 -4 403.18 84.65 3
-3 5 -4 519.23 71.36 5
4 5 4 -12.76 36.33 3
-4 5 -4 107.3 54.9 1
4 -6 -4 271 56 2
-4 6 4 213.53 56.94 1
4 -6 -4 327.75 53.66 4
4 6 -4 187.94 62.77 1
-4 6 4 266.21 71.92 3
4 6 -4 165.78 55.4 3
3 -6 -4 11.68 40.28 4
3 6 -4 -17.19 46.49 1
-3 6 4 -27.39 34.94 1
-3 6 4 16.44 48.67 3
3 -6 -4 12.28 35.59 2
3 6 -4 25.48 42.86 3
2 -6 -4 382.95 61.75 2
2 6 -4 337.01 63.15 1
2 6 -4 227.22 61.48 3
-2 6 4 483.71 50.63 1
-1 -6 4 172.76 35.04 2
-1 6 4 193.29 36.77 5
1 6 -4 121.69 52.52 3
1 -6 -4 186.56 46.63 2
1 6 -4 44.21 45.03 1
0 -6 4 -22.6 30.04 2
0 6 4 20.8 31.54 5
0 6 -4 0.26 40.9 1
0 6 4 81.27 44.47 4
0 6 -4 -52.33 49.09 3
0 -6 -4 -24.78 34.16 2
1 6 4 41.87 47.24 4
1 6 4 -10.69 37.62 5
1 -6 4 -54.05 30.99 2
-1 6 -4 -61.19 45.77 1
-1 6 -4 -61.21 53.01 3
-2 6 -4 -17.09 42.87 1
-2 6 -4 22.78 60.19 3
-2 6 -4 28.88 52.89 5
2 -6 4 -9.52 39.48 2
2 6 4 -18.1 42.36 5
-3 6 -4 15.19 48.92 1
-3 6 -4 83.78 66.03 3
3 7 -4 69.83 57.9 1
-3 7 4 231.1 52.39 1
-3 7 4 296 67.41 3
3 7 -4 133.42 51.93 3
3 -7 -4 212.86 55.66 2
2 7 -4 15.02 49.1 3
2 7 -4 72.6 49.7 1
2 -7 -4 41.06 45.3 2
-2 7 4 70.84 31.9 3
1 -7 -4 31.5 41.11 2
1 7 -4 32.58 47.35 3
1 7 -4 -49.61 42.07 1
-1 -7 4 28.71 33.23 2
0 7 -4 -21.99 43.65 1
0 -7 4 -24.14 31.25 2
0 7 4 102.22 37.48 5
0 -7 -4 0.53 37.83 2
0 7 -4 -15.35 54 3
-1 7 -4 227.98 78.7 3
1 7 4 288.07 58.49 5
-1 7 -4 432.33 73.46 1
1 -7 4 390.78 56.82 2
-2 7 -4 181.75 56.67 1
2 -7 4 61.87 43.7 2
-2 7 -4 78.47 68.32 3
1 8 -4 -22.88 45.88 1
1 8 -4 15.89 51.83 3
1 -8 -4 33.91 44.99 2
-1 -8 4 -7.1 35.03 2
0 -8 4 -12.51 37.56 2
0 8 -4 -11.55 56.05 3
0 8 -4 51.15 51.03 1
-6 0 5 47.83 47.85 1
6 0 -5 -30.27 50.88 1
5 0 -5 -36.61 48.18 1
-5 0 5 -3.5 40.45 1
-5 0 5 -16.25 53.82 3
5 0 -5 -21.19 47.17 3
-4 0 5 30.5 50.78 3
-4 0 5 21.68 35.13 1
4 0 -5 46.39 42.69 3
4 0 -5 4.97 39.22 1
3 0 -5 40.2 35.8 3
3 0 -5 -20.03 21.3 2
-3 0 5 41.66 32.47 1
3 0 -5 -13.17 35.17 1
-3 0 5 -5.59 44.06 3
-2 0 5 -6.41 30.05 3
-2 0 5 -21.53 25.96 3
2 0 -5 -17.86 15.87 2
2 0 -5 -39.1 23.17 1
2 0 -5 -44.66 24.4 1
-2 0 5 -31.49 24.93 1
2 0 -5 13.68 16.45 3
1 0 -5 7.51 25.81 1
1 0 -5 -9.32 25.2 4
1 0 -5 -19.71 23.26 1
-1 0 5 -27.02 23.15 3
-1 0 5 -59.63 27.69 3
1 0 -5 -11.93 39.06 5
1 0 -5 10 20 3
-1 0 5 -20.2 22.56 1
-1 0 5 -33.32 22.51 1
1 0 -5 -39.79 24.4 3
-1 0 5 -20.34 17.13 2
0 0 5 4.48 26.86 3
0 0 5 -1.38 24.26 3
0 0 5 50.65 26.62 4
0 0 -5 -23.25 20.51 1
0 0 -5 -1.99 25.95 4
0 0 5 14.95 27.82 1
0 0 -5 31.59 21.71 1
0 0 -5 16.02 37.96 5
0 0 5 12.02 25.75 1
-1 0 -5 -21.12 16.98 3
1 0 5 -35.65 28.54 3
1 0 5 -48.13 30.44 1
-1 0 -5 -7.1 23.78 1
-1 0 -5 -15.48 38.57 5
1 0 5 -51.42 27.6 3
1 0 5 21.02 37.3 5
-1 0 -5 -19.35 21.56 1
1 0 5 -6.34 28.22 4
-2 0 -5 -12.39 45.8 5
2 0 5 -17.04 40.51 5
2 0 5 14.59 41.4 3
2 0 5 -11.82 47.26 3
-2 0 -5 -11.44 27.62 1
-2 0 -5 -27.53 21.08 3
-2 0 -5 -21.48 20.87 1
3 0 5 -18.21 45.42 5
3 0 5 -77.02 42.47 3
-3 0 -5 -58.91 42.44 5
-3 0 -5 -27.59 30.28 1
3 0 5 -15.12 44.48 3
-3 0 -5 -54.25 22.54 3
-3 0 -5 -9.58 26 1
4 0 5 -16.92 47.41 3
-4 0 -5 2.37 29.89 1
4 0 5 2.19 50.61 5
5 0 5 24.86 56.62 3
-6 1 5 -24.16 41.24 1
6 -1 -5 -59.99 48.17 1
-6 -1 5 9.69 43.53 1
6 1 -5 -1.88 54.44 1
5 -1 -5 110.34 49.92 1
-5 1 5 23.35 37.52 1
-5 -1 5 40.82 42.16 1
-5 -1 5 36.4 51.83 3
-5 1 5 -55.45 60.47 3
5 1 -5 17.61 51.13 1
5 1 -5 40.34 50.75 3
4 -1 -5 274.12 54.32 1
-4 1 5 265.7 48.55 1
4 1 -5 308.56 58.17 1
-4 1 5 254.91 54.74 3
-4 1 5 424.64 71.8 3
-4 -1 5 338.77 67.36 3
4 1 -5 298.81 56.02 3
-4 -1 5 199.42 48.77 1
4 -1 -5 314.89 53.3 3
-3 -1 5 160.31 39.56 3
-3 -1 5 127.5 38.29 1
3 1 -5 281.14 50.06 1
-3 1 5 162.19 38.94 1
3 1 -5 252.09 48.48 3
-3 -1 5 162.55 55.25 3
3 -1 -5 221.91 47.02 3
3 -1 -5 209.82 39.17 1
-3 1 5 268.96 45.84 3
3 -1 -5 203.16 34.14 2
3 -1 -5 212.56 40.76 1
-3 1 5 280.69 55.99 3
-2 1 5 626.56 59.83 1
-2 -1 5 597.45 68.03 3
-2 -1 5 626.28 65.56 1
2 1 -5 650.5 63.57 3
-2 1 5 604.57 60.75 1
2 1 -5 610.29 67.38 3
2 1 -5 527.47 62.41 1
2 -1 -5 510.94 55.23 3
2 -1 -5 662.9 55.49 2
2 -1 -5 604.03 56.29 1
-2 -1 5 636.88 64.2 3
2 -1 -5 636.08 55.95 1
-2 1 5 588.42 64.15 3
-2 1 5 697.46 63.18 3
-1 -1 5 17.28 22.98 1
-1 -1 5 30.63 30.59 3
1 -1 -5 0.58 34.89 5
-1 1 5 7.22 19.72 2
-1 1 5 19.05 26.08 1
-1 1 5 22.32 21.13 1
-1 -1 5 16.62 29.13 1
-1 1 5 35.53 25.9 3
1 1 -5 20.37 28.4 3
1 1 -5 33.96 25.3 1
-1 -1 5 5.52 26.26 3
1 -1 -5 -10.22 30.36 4
1 1 -5 39.31 25.47 3
-1 1 5 45.04 24.98 3
1 1 -5 23.48 27.15 1
0 1 5 196.29 35.9 1
0 1 -5 217.85 37.05 3
0 1 5 164.96 33.47 3
0 -1 5 192.2 40.99 3
0 1 -5 245.41 38.82 1
0 1 -5 165.17 35.12 3
0 1 5 201.15 39.86 4
0 -1 5 261.85 40.4 1
0 -1 -5 237.6 47.59 5
0 1 -5 287.27 56 5
0 -1 5 206.54 41.29 3
0 1 5 214.79 33.79 2
0 1 5 240.16 46.68 5
0 1 5 276.14 35.74 1
0 1 -5 248.94 36.38 1
0 1 -5 160.03 32.89 4
0 1 5 251.84 33.57 3
1 -1 5 597.71 67.74 1
1 -1 5 559.71 63.65 3
1 1 5 523.62 68.04 5
1 -1 5 599.39 72.13 3
1 1 5 418.76 56.86 3
1 1 5 545.77 59.36 1
-1 1 -5 568.44 57.76 1
1 1 5 575.29 59.14 1
1 -1 5 577.75 51.88 4
1 1 5 573.17 59.66 3
1 1 5 507.17 58.87 4
-1 1 -5 482.27 56.74 1
-1 -1 -5 638.45 75.36 5
-1 1 -5 675.3 77.13 5
-2 1 -5 180.42 39.6 3
2 -1 5 115.01 47.71 3
2 1 5 101.63 40.52 3
2 -1 5 53.77 57.61 3
-2 -1 -5 119.72 49.17 5
2 1 5 193.18 53.08 3
2 -1 5 260.11 57.58 5
-2 1 -5 227.96 53.1 5
-2 1 -5 144.34 38.36 1
2 1 5 100.07 46.81 1
2 1 5 156 46.93 5
3 1 5 -76.17 39.34 5
-3 1 -5 -12.24 31.01 3
3 1 5 -26.5 50.71 3
3 -1 5 -5.78 45.71 3
3 1 5 -20.68 41.31 3
3 -1 5 -29.4 47.21 3
3 -1 5 45.6 49.74 5
-3 1 -5 -8.76 43.88 5
-3 1 -5 28.41 36.78 1
4 -1 5 347.22 79.14 3
4 -1 5 252.51 69.92 5
-4 1 -5 284.67 53.59 1
4 1 5 257.13 60.57 3
6 2 -5 31.79 54.21 1
6 -2 -5 -21.32 46.82 1
-6 2 5 34.75 44.06 1
-6 -2 5 -59.63 44.7 1
-5 -2 5 -20.35 41.81 1
-5 2 5 40.59 39.26 1
-5 2 5 62.33 63.38 3
5 2 -5 -30.31 49.64 3
5 -2 -5 71.41 47.13 1
5 2 -5 -49.38 49.93 1
-4 2 5 2.8 55.52 3
4 -2 -5 7.3 36.06 1
4 -2 -5 -22.4 29.43 3
4 -2 -5 -34.43 29.25 2
4 2 -5 4.38 42.5 3
-4 -2 5 -53.49 38.1 1
-4 2 5 10.02 32.01 1
-4 2 5 -53.15 32.73 3
-4 -2 5 20.4 47.81 3
4 2 -5 -35.05 40.62 1
3 2 -5 1100.69 115.64 3
3 -2 -5 1259.04 103.28 3
3 -2 -5 1291.81 102.95 2
3 2 -5 1172.23 111.61 3
-3 2 5 1288.16 110.72 3
-3 -2 5 1191.49 117.09 3
-3 -2 5 1104.3 105.29 1
3 -2 -5 1273.04 98.81 1
3 -2 -5 1263.64 99.98 1
3 2 -5 1193.27 110.24 1
-3 2 5 1209.85 115.44 3
-3 2 5 1347.43 104.77 1
2 2 -5 70.18 35.86 3
-2 2 5 24.82 25.08 1
2 -2 -5 47.59 24.66 2
2 -2 -5 68.41 32.53 4
-2 -2 5 32.42 38.55 3
-2 2 5 28.43 27.27 3
-2 2 5 -36.21 25.29 1
-2 2 5 45.43 26.52 2
2 2 -5 14.32 32.61 1
-2 2 5 -5.48 27.54 3
-2 -2 5 57.69 30.28 3
2 2 -5 30.29 39.91 3
-2 -2 5 31.23 33.19 1
2 -2 -5 16.86 31.97 5
1 2 -5 -14.9 29.07 3
-1 -2 5 -5.4 28.25 1
-1 2 5 -24.91 18.71 3
-1 2 5 -0.87 18.06 3
-1 -2 5 1.44 30.23 3
1 -2 -5 -15.49 30.2 5
-1 2 5 9.88 19.65 1
-1 -2 5 -11.29 25.95 3
1 2 -5 -6.12 27.11 3
1 2 -5 -14.89 24.54 1
1 -2 -5 2.14 29.6 4
-1 2 5 -19.33 21.73 2
-1 2 5 -42.81 20.07 1
1 -2 -5 -26.18 22.95 2
0 -2 5 31.8 34.76 1
0 2 5 92.19 35.08 4
0 -2 5 19.08 32.3 3
0 2 -5 18.32 33.86 1
0 2 5 74.91 33.57 5
0 -2 5 10.28 34.86 3
0 2 5 63.61 27.72 2
0 2 -5 10.53 31.07 3
0 2 -5 13.18 27.8 3
0 -2 -5 50.61 37.56 5
0 2 -5 60.01 49.29 5
1 2 5 34.6 21.5 3
1 2 5 -8.91 33.22 5
1 2 5 54.41 25.94 1
-1 2 -5 -4.14 49.43 5
-1 2 -5 -47.03 29.57 1
-1 -2 -5 5.35 40.79 5
1 -2 5 38.36 51.55 3
1 -2 5 81.9 40.88 3
1 2 5 59.11 37.7 4
1 2 5 17.15 25.56 1
-1 2 -5 -17.88 33.86 3
2 2 5 123.7 35.81 3
2 -2 5 87.94 47.02 3
-2 2 -5 67 36.78 1
2 2 5 120.95 42.87 1
2 2 5 76.57 42.5 5
-2 2 -5 30.81 50.23 5
-2 2 -5 66.96 40.63 3
2 2 5 87.75 40.81 3
-2 -2 -5 74.78 45.87 5
2 -2 5 16.24 43.8 3
-3 2 -5 59.24 43.85 3
-3 2 -5 96.61 55.47 5
3 -2 5 54.89 57.74 5
3 2 5 55.29 49.16 5
3 -2 5 105.23 56.13 3
-3 2 -5 42.82 44.13 1
3 2 5 68.18 55.85 3
3 2 5 33.41 39.08 3
4 2 5 24.14 40.99 3
-4 2 -5 30.48 44.41 1
4 -2 5 -4.73 53.35 3
4 -2 5 15.88 58.81 5
6 3 -5 89.49 61.4 1
6 -3 -5 113.62 51.55 2
-6 3 5 133.65 77.95 3
6 3 -5 -25.16 56.47 3
6 -3 -5 124.49 51.74 1
-6 -3 5 133.29 48.08 1
-6 3 5 108.88 47.96 1
5 3 -5 -15.35 50.78 1
5 -3 -5 57.7 41.6 1
-5 -3 5 118.01 44.64 1
-5 3 5 26.65 67.86 3
-5 3 5 27.13 41.93 1
5 -3 -5 61.05 43.89 2
5 3 -5 30.49 47.59 3
-4 3 5 -44.58 36.27 1
4 3 -5 -58.81 44.82 1
4 3 -5 -35.48 46.62 3
4 -3 -5 -26.08 26.43 1
4 3 -5 -33.31 45.4 3
-4 -3 5 -3.25 41.71 1
-4 3 5 -22.98 36.9 3
4 -3 -5 -58.56 33.13 2
-4 3 5 -72.82 56.56 3
-4 -3 5 -23.78 37.43 3
3 3 -5 255.44 57.74 1
-3 3 5 341.79 52.01 3
3 -3 -5 429.78 49.37 2
-3 3 5 355.93 62.06 3
-3 -3 5 362.02 60.12 3
-3 -3 5 331.49 54.52 1
-3 3 5 389.74 51.55 1
3 3 -5 328.58 62.65 3
3 3 -5 288.21 58.39 3
2 -3 -5 830.88 74.47 2
-2 3 5 725.08 71.16 3
-2 3 5 782.93 69.32 1
2 3 -5 618.39 77.14 3
-2 3 5 749.55 67.68 1
-2 -3 5 803.08 74.2 1
-2 3 5 730.84 70.74 3
2 3 -5 649.66 80.41 3
2 -3 -5 836.75 72.72 5
2 3 -5 763.05 77.53 1
-2 3 5 694.67 74.12 2
2 -3 -5 805.3 72.64 4
1 3 -5 769.42 77.4 3
-1 3 5 782.1 77.79 5
1 -3 -5 823.76 75.28 2
1 3 -5 640.04 78 3
1 -3 -5 750.21 78.2 5
-1 -3 5 771.02 76.32 1
1 3 -5 703.15 75.15 1
-1 3 5 802.16 73.06 2
1 -3 -5 701.3 72.55 4
-1 -3 5 888.06 80.03 3
0 3 -5 123.29 43.33 3
0 3 -5 149.23 38.99 3
0 3 5 159.66 41.09 4
0 -3 5 144.51 41.04 3
0 3 5 186.09 37.92 2
0 3 5 169.22 39.68 5
0 3 -5 97.57 39.79 1
0 -3 -5 199.37 43.47 5
-1 -3 -5 236.86 51.34 5
-1 3 -5 266.73 61.43 5
1 -3 5 207.64 47.68 3
1 3 5 184.73 46.94 4
-1 3 -5 81.31 45.35 3
-1 3 -5 207.9 42.95 1
1 3 5 244.54 47.41 5
-2 3 -5 502.87 72.52 5
2 3 5 273.63 44 1
2 3 5 436.84 51.93 1
2 -3 5 457.8 66.76 3
-2 -3 -5 424.77 66.82 5
-2 3 -5 382.14 66.38 3
2 3 5 287 61.51 5
2 3 5 356.07 48.25 3
-2 3 -5 405.94 58.86 1
3 -3 5 2369.49 183.14 3
3 3 5 1761.88 176.82 3
3 3 5 1579.11 169.93 3
3 3 5 2036.31 183.79 5
-3 3 -5 2594.64 193.78 5
-3 3 -5 2254.87 169.03 1
-4 3 -5 -7.28 43.19 1
4 3 5 -38.79 34.33 3
5 4 -5 15.39 55.29 1
-5 -4 5 -6.13 39.14 1
-5 4 5 -35.76 41.24 1
5 4 -5 -47.51 48.31 3
-5 4 5 -11.12 63.27 3
5 -4 -5 -0.61 40.87 2
-4 4 5 184.01 49.69 1
4 4 -5 120.31 50.39 3
-4 -4 5 132.35 46.64 1
4 -4 -5 135.66 45.65 2
4 4 -5 127.05 58.19 1
-4 4 5 372.66 74.51 3
-3 4 5 111.27 39.93 3
3 4 -5 71.25 44.36 3
-3 -4 5 32.72 39.61 1
-3 -4 5 88.13 38.46 3
3 -4 -5 95.49 36.34 2
-3 4 5 121.79 41.28 1
3 4 -5 96.44 49.57 1
3 4 -5 76.07 44.77 3
3 -4 -5 44.51 43.63 4
-3 4 5 109.22 48.67 3
2 4 -5 57.22 41.78 1
2 4 -5 -8.76 39.1 3
-2 -4 5 -3.71 34.36 3
2 4 -5 40.35 47.33 3
-2 4 5 55.7 28.93 3
-2 4 5 112.96 28.55 3
2 -4 -5 50.85 39.16 4
-2 4 5 53.86 27.14 1
-2 -4 5 12.69 40.77 1
2 -4 -5 76.34 33.92 2
-2 4 5 92.14 32.51 1
-1 4 5 25.77 31.24 5
-1 -4 5 13.03 19.2 2
1 4 -5 28.35 39.09 3
1 -4 -5 -15.09 32.38 2
-1 -4 5 0.22 34.74 3
1 4 -5 -2.89 35.08 1
1 4 -5 41.13 40.39 3
1 -4 -5 17.46 31.24 5
0 4 5 31 37.61 4
0 -4 -5 55.1 38.2 5
0 4 -5 39.31 39.32 1
0 4 -5 15.03 41.3 3
0 4 5 9.23 32.85 5
0 -4 5 -9.48 25.41 2
0 -4 5 11.49 31.74 3
0 4 -5 18.15 35.08 3
-1 4 -5 34.75 45.71 3
1 -4 5 10.05 19.47 3
-1 4 -5 35.74 34.15 3
1 4 5 22.07 36.86 5
-1 4 -5 51.67 42.18 1
-1 4 -5 102.77 61.45 5
1 4 5 90.15 44.81 4
2 4 5 1781.39 169.94 5
-2 4 -5 2148.55 173.17 5
-2 4 -5 1896.83 158.5 1
2 -4 5 1902.93 167.57 3
-2 4 -5 1792.65 173.56 3
3 4 5 159.61 50.01 3
-3 4 -5 272.53 56.4 1
-3 4 -5 238.51 56.88 5
-4 4 -5 -14.58 49.19 1
4 4 5 -29.74 42.5 3
5 5 -5 12.65 55.38 1
-5 5 5 -46.84 40.66 1
5 -5 -5 -20.49 42.33 2
5 5 -5 -1.94 53.95 3
-5 5 5 -24.96 62.27 3
4 -5 -5 27.3 41.92 2
4 5 -5 50.44 48.75 3
-4 5 5 127.57 46.62 1
4 5 -5 24.03 54.4 1
-4 5 5 39.39 62.14 3
3 -5 -5 679.17 75.23 2
3 -5 -5 654.57 72.68 4
-3 5 5 757.13 74.49 3
3 5 -5 597.56 83.72 3
-3 5 5 701.2 76.8 3
-3 5 5 597.25 70.26 1
3 5 -5 477.55 81.96 1
2 -5 -5 32.42 42.1 4
2 5 -5 20.31 44.08 3
2 -5 -5 -20.55 35.02 2
2 5 -5 -44.52 51.8 3
-2 5 5 -7.36 22.4 1
-2 5 5 -46.78 26.97 1
2 5 -5 -38.73 43.86 1
-1 5 5 398.28 50.11 5
1 -5 -5 364.45 55.72 2
1 5 -5 277.14 61.27 3
1 5 -5 264.6 57.46 1
-1 -5 5 325.03 48.64 3
1 5 -5 309.83 61.26 3
-1 -5 5 266.48 39.14 2
0 5 -5 -7.37 41.65 1
0 5 -5 -35 46.44 3
0 -5 5 -23.26 31.58 3
0 5 5 -19.99 29.99 5
0 5 5 -31.68 39.19 4
0 -5 5 10.53 27.88 2
0 5 -5 -13.92 34.66 3
-1 5 -5 -32.83 44.38 1
-1 5 -5 -27.58 48.42 3
1 5 5 -29.84 44.87 4
-1 5 -5 -46.88 55.06 5
1 5 5 -22.14 34.69 5
-2 5 -5 261.14 63.93 5
-2 5 -5 -4.23 61.92 3
2 5 5 176.76 51.93 5
-2 5 -5 293.41 56.7 1
-3 5 -5 342.94 66.15 1
3 5 5 195.74 47.42 3
-3 5 -5 377.47 61.58 5
4 6 -5 29.24 56.6 1
4 -6 -5 -8.05 41.3 2
-4 6 5 47.52 60.52 3
-4 6 5 -16.58 44.78 1
4 6 -5 34.28 49.04 3
3 6 -5 107.96 52.2 3
3 6 -5 125.22 57.45 1
-3 6 5 225.17 51.35 1
3 -6 -5 193.15 49.33 2
-3 6 5 55.02 51.1 3
2 -6 -5 34.45 40.72 2
2 6 -5 22.38 48.33 1
2 6 -5 -62.9 42.14 3
-1 -6 5 -30.84 25.98 2
1 6 -5 -52.23 42.14 1
1 6 -5 -0.92 46.6 3
1 -6 -5 42.37 40.43 2
-1 6 5 10.13 28.81 5
0 6 5 295.03 58.46 4
0 6 -5 210.38 56.76 1
0 6 -5 205.99 62.62 3
0 6 5 232.36 47.71 5
0 -6 5 236.96 41.52 2
1 -6 5 -1.71 34.55 2
-1 6 -5 -27.26 58.92 5
-1 6 -5 33.68 48.02 1
1 6 5 12.4 38.44 5
-1 6 -5 -50.43 53.09 3
-2 6 -5 61.44 68.18 3
-2 6 -5 -27.22 42.09 1
-2 6 -5 141.93 57.75 5
-3 7 5 -62.3 47.45 3
3 7 -5 -71.88 47.07 1
3 7 -5 25.13 49.73 3
3 -7 -5 -23.01 42.57 2
2 7 -5 -8.43 47.26 3
2 7 -5 -65.91 46.71 1
2 -7 -5 -24.92 41.74 2
1 7 -5 27.88 52.94 3
1 -7 -5 -22.33 40.68 2
1 7 -5 -0.14 46.25 1
-1 -7 5 31.17 32.87 2
0 7 -5 -7.77 48.98 1
0 7 -5 -55.66 52.63 3
0 -7 5 -62.51 34.72 2
1 -7 5 6.87 38.07 2
-1 7 -5 34.96 53.53 1
1 7 5 110.26 42.02 5
-1 7 -5 31.6 64.51 3
-6 0 6 141.11 54.1 1
6 0 -6 49.08 55.54 1
-5 0 6 863.15 107.88 3
5 0 -6 584.23 82.12 1
-5 0 6 460.17 73.5 1
-4 0 6 72.19 40.32 1
4 0 -6 63.5 44.2 3
-4 0 6 49.53 56.07 3
4 0 -6 -35.98 25.28 2
4 0 -6 -12.18 43.98 1
3 0 -6 -2.28 36.31 1
3 0 -6 68.25 21.43 2
-3 0 6 -0.97 34.18 3
-3 0 6 93.68 48.7 3
3 0 -6 11.02 15.89 3
-3 0 6 43.51 34.49 1
-2 0 6 23.66 28.93 3
-2 0 6 -4 27.3 1
-2 0 6 7.95 36.9 3
2 0 -6 9.11 26.91 1
2 0 -6 0.82 28.18 1
2 0 -6 44.2 30.57 3
-1 0 6 53.09 36.79 3
-1 0 6 38.86 26.77 3
1 0 -6 31.24 26.23 1
1 0 -6 39.48 48.75 5
1 0 -6 -22.64 31.82 4
1 0 -6 27.63 27.11 3
1 0 -6 2.8 28.22 1
-1 0 6 6.49 20.01 2
-1 0 6 24.94 25.9 1
0 0 6 729.21 80.4 3
0 0 -6 1031.13 95.53 5
0 0 -6 777.59 69.88 1
0 0 -6 950.08 72.64 3
0 0 6 634.01 77.86 3
0 0 -6 818.66 77.3 1
0 0 6 738.85 77.16 1
-1 0 -6 446.67 50.27 3
1 0 6 530.58 63.43 1
1 0 6 430.36 64.51 3
-1 0 -6 410.52 46.74 1
-1 0 -6 437.31 52.26 1
-1 0 -6 440.52 75.43 5
1 0 6 450.23 73.69 5
1 0 6 502.61 55.73 4
1 0 6 563.28 68.71 3
2 0 6 60.71 49.19 5
2 0 6 70.14 37.77 4
-2 0 -6 44.11 49.58 5
2 0 6 39.69 47.63 3
-2 0 -6 46.73 29.57 1
-2 0 -6 41.8 26.02 1
2 0 6 -36.81 52.64 3
3 0 6 276.54 70.35 5
-3 0 -6 307.79 43.52 1
3 0 6 275.13 70.53 3
4 0 6 87.43 59.67 3
-6 -1 6 47.75 45.93 1
-6 1 6 22.69 45.32 1
6 1 -6 -39.61 49.15 1
6 -1 -6 -0.26 54.05 1
5 -1 -6 98.84 39.68 2
-5 1 6 64.78 42.19 1
-5 -1 6 122.4 45.81 1
5 -1 -6 129.76 51.31 1
5 1 -6 137.22 54.75 3
-5 1 6 222.19 76.5 3
5 1 -6 118.84 55.14 1
4 -1 -6 43.22 42.21 1
4 -1 -6 51.6 31.04 2
4 1 -6 81.69 47.03 3
-4 1 6 55.62 37.14 1
-4 1 6 67.83 57.78 3
-4 -1 6 26.42 53.48 3
4 1 -6 71.16 46.14 1
-4 1 6 48.19 44.31 3
-4 -1 6 53.83 38.41 1
4 -1 -6 109.13 43.77 3
-3 1 6 -25 30.08 1
-3 -1 6 -40.5 30.14 1
-3 1 6 -35.75 42.62 3
3 -1 -6 -5.97 38.15 3
3 1 -6 -9.66 38.55 3
3 -1 -6 26.3 24.66 2
3 1 -6 -71.27 33.08 1
3 -1 -6 -20.75 28.59 1
-3 1 6 -16.93 33.98 3
3 -1 -6 -10.55 31.26 1
-3 -1 6 -10.37 31.65 3
-3 -1 6 29.5 47.24 3
2 -1 -6 4.12 27.25 1
-2 1 6 34.48 37.85 3
-2 -1 6 50.58 30.39 1
-2 -1 6 47.75 43.41 3
2 -1 -6 6.33 24.84 3
2 1 -6 2.09 40.2 3
2 -1 -6 22.32 24.01 2
2 -1 -6 76.19 45.58 5
2 1 -6 83.74 35.89 1
-2 1 6 15.39 31.39 1
-2 1 6 104.62 32.3 3
2 -1 -6 -17.25 25.26 1
-2 1 6 33.18 24.92 2
-2 -1 6 65.86 34.24 3
-1 1 6 -6.16 26.7 3
1 1 -6 13.54 31.68 1
-1 1 6 8.61 28.16 1
-1 -1 6 112.93 36.82 1
1 1 -6 57.54 28.31 4
1 1 -6 50.69 32.57 3
-1 1 6 8.69 23.12 1
-1 -1 6 -6.25 33.47 3
1 -1 -6 4.47 40.39 5
-1 1 6 3.41 22.43 2
-1 -1 6 32.17 33.18 3
-1 1 6 27.8 29.11 3
1 -1 -6 18.08 31.71 4
0 1 6 715.01 83.16 5
0 1 6 651.96 71.75 3
0 1 -6 807.54 71.21 1
0 1 6 844.33 69.8 2
0 1 6 797.63 72.12 1
0 1 6 713.06 71.57 3
0 1 6 676.48 74.08 1
0 -1 -6 662.04 89.18 5
0 1 -6 731.72 70.89 3
0 -1 6 834.91 79.8 3
0 1 6 827.55 71.03 4
1 1 6 14.13 35.56 4
-1 1 -6 -11.05 29.91 1
-1 1 -6 37.72 30.07 3
1 1 6 28 37.21 1
-1 -1 -6 -27.17 41.67 5
1 1 6 -0.86 32.13 3
1 -1 6 -11.22 48.48 3
1 1 6 47.92 38.82 3
1 1 6 10.72 40.31 5
1 -1 6 64.3 31.76 4
1 -1 6 -17.34 41.41 3
-1 1 -6 41.56 48.55 5
1 -1 6 -55.74 42.39 1
-2 1 -6 -16.07 29.55 3
2 1 6 7.47 40.23 3
-2 1 -6 10.83 51.36 5
2 1 6 -41.8 43.72 3
2 -1 6 24.77 59.52 3
2 -1 6 48.8 34.73 4
2 1 6 -19.08 46.06 1
-2 -1 -6 52.58 48.7 5
2 -1 6 -27.75 52.05 5
2 -1 6 85.68 48.44 3
2 1 6 10.88 45.37 5
2 1 6 36.21 44.65 4
-2 1 -6 8.59 36.23 1
3 -1 6 -23.14 51.82 3
3 1 6 -42 42.29 3
3 -1 6 -6.29 56.58 5
-3 1 -6 -10.96 39.1 1
3 1 6 -64.21 46.12 5
-4 1 -6 268.76 51.05 1
4 -1 6 226.13 69.07 3
4 1 6 164.03 60.84 3
6 2 -6 -84.27 49.79 1
6 -2 -6 -47.99 39.85 2
-6 -2 6 -8.41 50.08 1
-6 2 6 9.72 46.04 1
6 -2 -6 -17.99 47.42 1
5 -2 -6 111.2 47.71 1
-5 2 6 43.74 40.56 1
5 2 -6 -78.38 48.71 1
5 -2 -6 32.84 38.14 2
5 2 -6 68.16 51.49 3
-5 2 6 20.94 66.11 3
-5 -2 6 -30.19 46.76 1
4 -2 -6 -16.64 32.9 2
4 -2 -6 52.41 31.08 3
4 2 -6 1.52 47.03 3
-4 2 6 -46.53 56.15 3
4 -2 -6 35.1 39.08 1
-4 2 6 20.56 36.66 1
-4 2 6 2.26 37.77 3
-4 -2 6 50.09 49.1 3
4 2 -6 -3.46 46.71 1
-4 -2 6 39.59 40.35 1
3 -2 -6 818.13 71.61 2
3 -2 -6 709.9 62.75 1
-3 -2 6 645.82 72.67 1
3 2 -6 704.92 79.63 1
-3 2 6 779.79 80.39 3
3 -2 -6 733.09 83.8 5
-3 2 6 775.73 76.6 3
-3 -2 6 666.48 82.61 3
-3 2 6 761.64 73.66 1
3 2 -6 671.44 77.67 3
-2 2 6 1274.75 113.76 3
2 2 -6 1366.84 118.35 3
-2 -2 6 1267.38 111.84 1
-2 2 6 1287.03 112.09 3
-2 -2 6 1300.91 121.79 3
2 -2 -6 1418.14 105.95 2
2 -2 -6 1167.04 118.88 5
-2 2 6 1300.65 106.07 2
-2 2 6 1334.1 106.32 1
2 2 -6 1267.02 111.7 1
2 -2 -6 1142.95 105.34 4
-1 -2 6 67.38 39.47 3
1 2 -6 31.26 34.06 1
1 -2 -6 101.08 41.02 5
-1 -2 6 71.49 36.03 1
-1 2 6 62.85 28.86 2
-1 2 6 65.81 28.45 3
1 -2 -6 79.28 38.56 4
-1 2 6 94.05 27.43 1
-1 -2 6 90.67 37.17 3
1 2 -6 50.56 36.53 3
-1 2 6 101.28 30.58 1
-1 2 6 64.77 30.34 3
0 2 6 104.28 29.96 3
0 2 6 66.63 41.6 5
0 2 -6 113.81 41.37 1
0 -2 6 12.69 38.1 1
0 -2 6 71.33 47.62 3
0 -2 -6 61.71 43.31 5
0 2 -6 74.59 61.57 5
0 2 6 88.22 28.62 3
0 2 -6 61.31 27.99 4
0 2 6 27.14 30.57 1
0 -2 6 49.36 40.96 3
0 2 -6 101.5 40.33 3
0 2 6 105.92 29.81 1
0 2 6 99.15 31.94 2
0 2 6 32.41 39.27 4
1 2 6 -23.71 25.85 3
1 2 6 -22.37 37.25 4
-1 2 -6 -14.75 32.02 1
1 -2 6 -43.86 52.68 3
-1 2 -6 -60.09 51.47 5
1 2 6 -11.69 33.37 1
-1 -2 -6 -6.41 46.08 5
1 2 6 -32.17 38.97 5
1 2 6 7.52 27.4 3
1 -2 6 -49.34 38.78 3
1 2 6 47.81 31.89 1
-1 2 -6 46.66 36.79 3
-2 -2 -6 6.64 43.53 5
2 2 6 -54.32 32.15 3
2 2 6 8.02 47.4 4
2 2 6 -29.95 40.86 1
-2 2 -6 -91.86 47.19 5
-2 2 -6 17.64 35.97 1
2 2 6 10.55 40.95 3
2 2 6 -6.56 40.4 5
-2 2 -6 13.37 34.25 3
2 -2 6 7.27 28.12 4
2 -2 6 -24.27 47.02 3
3 2 6 2.44 44.17 5
3 -2 6 -23.17 56.45 5
3 -2 6 71.6 56.68 3
-3 2 -6 -1.84 43.15 1
3 2 6 10.86 37.38 3
4 2 6 -37.91 39.54 3
-4 2 -6 10.77 48.24 1
-6 3 6 -62.15 68.73 3
6 -3 -6 -3.5 45.02 2
-6 -3 6 -32.27 44.57 1
6 3 -6 -4.11 54.31 1
5 -3 -6 42.33 37.31 1
5 3 -6 -13.13 48.73 3
-5 3 6 -6.36 39.36 1
-5 -3 6 55.07 44.74 1
-5 3 6 -29.06 66.49 3
5 -3 -6 -49.12 37.3 2
5 3 -6 1 51.21 1
4 -3 -6 497.63 62.46 2
4 3 -6 448.74 73.72 1
-4 -3 6 397.95 67.81 1
4 3 -6 428.54 76.4 3
-4 3 6 625.54 87.09 3
-4 3 6 499.72 60.74 1
-3 -3 6 -9.34 34.07 3
-3 -3 6 29.79 41.78 1
3 -3 -6 112.52 35.91 2
3 3 -6 63.82 50.77 3
3 -3 -6 64.55 31.85 5
3 3 -6 52.27 44.71 1
-3 3 6 113.29 39.85 3
3 -3 -6 31.39 40.1 4
-3 3 6 108.66 39.57 1
-3 3 6 86.46 47.92 3
2 -3 -6 52.92 36.86 4
-2 3 6 18.92 30.4 1
-2 3 6 -16.76 27.71 3
2 -3 -6 35.42 31.67 5
-2 -3 6 43.09 40.76 3
-2 3 6 -6.92 25.49 1
-2 -3 6 -11.85 38.27 1
2 3 -6 19.81 40.68 1
2 3 -6 -4.08 36.18 3
2 -3 -6 -42.24 29.56 2
2 3 -6 -38.92 44.1 3
-2 3 6 -43.51 29.42 2
-1 3 6 80.05 28.05 1
1 -3 -6 99.22 35.16 2
1 -3 -6 101.79 39.53 4
-1 3 6 85.82 40.13 5
1 3 -6 36.55 37.05 3
-1 -3 6 56.21 39.36 3
1 3 -6 126.38 41.06 1
-1 -3 6 80.45 41.98 1
1 3 -6 106.23 43.2 3
-1 3 6 85.74 32.83 2
1 -3 -6 136.1 40.75 5
0 -3 6 40.6 38.57 3
0 -3 6 35.55 46.77 1
0 3 -6 9.69 40.02 3
0 -3 -6 84.84 42.09 5
0 3 6 6.73 37.21 5
0 3 6 60.98 40.58 4
0 3 -6 30.69 42.62 1
0 3 -6 11.68 63.76 5
-1 3 -6 83.8 38.93 1
1 -3 6 107.9 46.1 3
-1 3 -6 81.36 43.78 3
-1 3 -6 85.14 60.67 5
1 3 6 72.9 43.21 5
1 3 6 123.75 46.14 4
1 3 6 148.04 30.82 1
-1 -3 -6 71.76 46.34 5
2 -3 6 442.27 73.8 3
-2 3 -6 511.2 80.96 5
2 3 6 355.75 54.82 3
-2 3 -6 524.9 66.4 1
2 3 6 476.46 60.24 1
-2 3 -6 423.37 70.13 3
2 3 6 425.76 58.01 3
2 3 6 435.97 71.64 4
2 3 6 324.01 68.19 5
-3 3 -6 -30.12 40.17 1
3 3 6 8.19 32.68 3
-4 3 -6 11 45.85 1
4 3 6 14.03 41.42 3
-5 4 6 -23.8 42.59 1
-5 4 6 13.59 71.7 3
5 4 -6 -114.13 44.47 1
5 -4 -6 -15.59 41.54 2
-5 -4 6 -43.68 44.36 1
5 4 -6 31.92 57.04 3
-4 -4 6 197.73 53.06 1
4 4 -6 62.9 53.4 1
-4 4 6 303.35 70.83 3
4 4 -6 75.72 51.72 3
4 -4 -6 224.61 49.55 2
-4 4 6 267.45 52.31 1
-3 4 6 58.99 37.53 3
3 -4 -6 24.74 39.68 4
3 4 -6 66.45 48.86 1
3 4 -6 -33.2 44.6 3
-3 4 6 -22.28 34.15 1
-3 4 6 3.25 43.68 3
-3 -4 6 48.43 42.95 1
3 -4 -6 -2.55 34.54 2
-2 -4 6 17.75 45.53 1
2 -4 -6 13.15 33.53 2
2 4 -6 -25.96 41.86 1
-2 4 6 70.69 31.02 3
2 -4 -6 79.46 43.58 4
2 4 -6 -12.6 48.16 3
-2 4 6 84.63 34.39 1
-2 4 6 12.52 27.56 1
2 -4 -6 50.45 31.59 5
-2 -4 6 61.17 41.17 3
2 4 -6 12.32 46.57 3
-1 4 6 113.61 42.27 5
1 4 -6 43.99 41.36 3
-1 -4 6 116.93 43.54 3
1 4 -6 81.35 43.46 1
1 4 -6 54.07 46.05 3
1 -4 -6 106.15 38.37 5
1 -4 -6 81.01 38.66 2
0 -4 6 95.39 38.42 3
0 4 -6 -26.21 41.88 3
0 -4 -6 41.76 41.4 5
0 4 -6 46.61 43.37 1
0 4 6 28.64 41.84 4
0 4 -6 10.42 34.54 3
0 4 6 79.04 40.83 5
-1 4 -6 174.87 58.45 3
-1 -4 -6 262.55 58.57 5
1 -4 6 304.51 58.24 3
1 4 6 282.42 56.37 4
1 4 6 172.87 52.86 5
-1 4 -6 230.18 55.73 1
-1 4 -6 351.31 75.78 5
-2 4 -6 -8.73 52.12 5
-2 4 -6 -59.86 38.63 1
-2 4 -6 6.02 47.59 3
2 4 6 55.14 46.81 5
-3 4 -6 118.18 53.09 1
3 4 6 53.42 35.66 3
5 5 -6 -72.48 51.74 3
-5 5 6 27.89 48.07 1
5 -5 -6 73.59 48.51 2
5 5 -6 -5.63 60.21 1
-5 5 6 125.31 79.36 3
4 5 -6 339.43 73.65 1
-4 -5 6 311.26 58.23 1
4 5 -6 262.1 70.29 3
-4 5 6 318.43 76.44 3
4 -5 -6 439.84 62.21 2
-4 5 6 533.38 66.7 1
3 -5 -6 216.97 49.24 2
-3 5 6 245.37 48.51 1
-3 -5 6 174.64 52.56 1
-3 5 6 191.61 53.66 3
3 5 -6 105.06 51.35 3
3 5 -6 136.93 55.9 1
2 -5 -6 126.7 47.06 4
-2 5 6 46.81 32.27 1
2 5 -6 -27.3 43.81 1
2 -5 -6 65.24 39.62 2
2 5 -6 -4.31 45.82 3
1 5 -6 42.77 47.77 3
-1 5 6 15.56 37.36 5
-1 -5 6 65.99 24.71 2
1 -5 -6 50.84 39.91 2
1 5 -6 98.01 47.95 1
0 5 6 14.14 46.22 4
0 5 6 51.1 36.75 5
0 5 -6 45.19 48.66 1
0 5 -6 22.45 49.64 3
0 -5 6 28.04 28.9 2
-1 5 -6 -86.47 48.52 3
1 5 6 -2.3 38.09 5
-1 5 -6 -35.69 42.46 1
-1 5 -6 -78.25 59.75 5
-2 5 -6 -52.45 42.56 1
-2 5 -6 -35.01 49.16 3
3 5 6 -20.73 32.73 3
-3 5 -6 26.16 47.57 1
-4 6 6 160.77 68.54 3
-4 6 6 175.24 54.27 1
4 -6 -6 86.76 46.96 2
4 6 -6 83.91 62.82 1
4 6 -6 142.64 61.91 3
3 6 -6 35.18 50.93 3
3 6 -6 -25.14 50.09 1
-3 6 6 58.61 39.8 1
3 -6 -6 -10.8 43.03 2
-3 6 6 -30.37 43.65 3
2 6 -6 19.49 47.93 3
2 6 -6 63.75 49.9 1
2 -6 -6 63.83 44.47 2
1 6 -6 -21.35 50.55 3
-1 -6 6 -53.77 26.45 2
1 -6 -6 27.4 42.26 2
1 6 -6 32.37 48.36 1
-1 6 6 16.18 34.79 5
0 6 -6 175.09 63.91 3
0 6 6 195.67 46.25 5
0 -6 6 161.92 38.94 2
0 6 -6 179.89 57.05 1
1 6 6 77.12 43.08 5
-1 6 -6 5.15 48.89 1
-1 6 -6 -3.95 56.13 3
1 -6 6 18.61 37.23 2
-2 6 -6 -5.43 45.17 1
2 7 -6 19.6 49.44 3
2 -7 -6 -7.17 41.88 2
2 7 -6 18.36 52.14 1
1 7 -6 -67.31 46.27 1
1 -7 -6 56.2 44.94 2
1 7 -6 80.33 57.91 3
0 7 -6 64.1 55.81 1
0 7 -6 118.54 66.56 3
-6 0 7 65.08 51.78 1
6 0 -7 52.58 53.23 1
-5 0 7 -7.39 41.23 1
-5 0 7 -62.37 61.02 3
5 0 -7 -37.52 46.01 1
5 0 -7 -17.6 28.08 2
4 0 -7 6.05 27.53 3
4 0 -7 -4.48 43.18 1
4 0 -7 -19.48 23.85 2
-4 0 7 -18.62 37.19 1
-4 0 7 -0.19 55.96 3
-3 0 7 -12.16 33.68 1
3 0 -7 24.37 36.37 3
-3 0 7 -69.34 45.12 3
3 0 -7 18.61 36.14 1
-3 0 7 -0.85 34.02 3
2 0 -7 26.96 32.59 1
-2 0 7 0.42 41.9 3
2 0 -7 32.36 31.24 3
-2 0 7 -23.58 20.75 2
-2 0 7 15.19 31.47 3
-2 0 7 34.2 33.01 1
1 0 -7 24.15 29.43 3
-1 0 7 -70.79 28.03 3
-1 0 7 -50.46 39.56 3
-1 0 7 -94.54 31.81 1
1 0 -7 -36.77 27.82 1
1 0 -7 -61.13 29.42 1
1 0 -7 -25.39 33.03 4
1 0 -7 16.17 50.62 5
-1 0 7 5.47 22.26 2
0 0 7 26.96 38.58 1
0 0 7 -54.08 36.57 3
0 0 7 23.27 35.53 3
0 0 -7 -16.6 25.28 1
0 0 -7 4.09 28.85 3
0 0 -7 -62.59 48.08 5
0 0 -7 -32.87 25.86 1
1 0 7 -14.47 40.63 3
1 0 7 -35.03 47.17 5
1 0 7 -90.25 38.53 1
1 0 7 15.22 36.84 4
-1 0 -7 25.14 48.51 5
-1 0 -7 -39.85 27.36 1
-1 0 -7 -8.45 24.24 1
1 0 7 -26.27 40.28 3
2 0 7 -76.78 54.02 5
2 0 7 -62.12 38.25 4
-2 0 -7 -23.58 27.63 1
2 0 7 -27.4 44.09 3
3 0 7 47.56 45.09 4
3 0 7 5.95 47.01 3
4 0 7 70.32 59.33 3
-6 -1 7 17.17 45.99 1
-6 1 7 -58.14 42.11 1
6 1 -7 -96.63 45.82 1
6 -1 -7 -67.89 48.87 1
-5 1 7 -12.14 60.39 3
-5 -1 7 -56.12 37.29 1
5 1 -7 -3.31 47.96 1
5 -1 -7 -46.56 29.13 2
5 -1 -7 51.18 45 1
-5 1 7 -37.14 39.7 1
4 1 -7 33.2 43.88 3
-4 -1 7 -29.84 36.96 1
-4 -1 7 37.17 54.35 3
-4 1 7 31.15 56.97 3
4 1 -7 20.67 44.81 1
4 -1 -7 14.4 29.02 2
4 -1 -7 -5.51 39.1 1
-4 1 7 20.32 42.51 1
-3 1 7 285.8 52.92 1
3 -1 -7 272.83 42.51 1
-3 -1 7 402.58 69.56 3
-3 -1 7 190.18 49.54 1
3 1 -7 345.69 57.51 1
3 1 -7 348.12 56.81 3
3 -1 -7 219.69 47.85 3
3 -1 -7 388.75 48.13 1
3 -1 -7 325.2 40.8 2
-3 1 7 334.29 68.42 3
-2 1 7 105 45.36 3
2 -1 -7 155.51 32.86 1
-2 -1 7 75.29 38.03 3
-2 -1 7 171.17 41.77 1
-2 -1 7 65.58 47.22 3
-2 1 7 98.39 38.84 3
-2 1 7 130.99 41.26 1
2 1 -7 113.69 39.39 1
-2 1 7 148.56 30.97 2
2 -1 -7 172.84 54.65 5
2 1 -7 88.83 40.15 3
2 -1 -7 85.45 27.09 1
2 -1 -7 97.43 39.72 4
-1 -1 7 177.5 49.54 3
-1 -1 7 211.34 47.94 3
1 -1 -7 195.85 57.3 5
1 1 -7 132.78 39.08 4
1 1 -7 147.54 63.91 5
1 1 -7 194.41 46.83 1
1 -1 -7 96.37 41.86 4
-1 1 7 185.86 41.62 1
-1 1 7 197.43 33.99 2
-1 1 7 188.65 45.83 3
-1 1 7 156.01 36.21 3
-1 -1 7 107.89 44.67 1
0 1 7 573.48 58.44 2
0 1 -7 675.83 88.16 5
0 1 7 478.19 60.6 3
0 -1 7 546.35 66.39 1
0 -1 7 524.88 73.38 3
0 -1 7 496.39 73.52 3
0 1 7 515.75 60.78 3
0 1 -7 503.27 61.55 3
0 1 -7 489.23 59.02 1
0 1 7 528.41 64.13 1
0 1 7 540.14 60.62 4
0 -1 -7 660.99 80.94 5
1 1 7 -9.52 36.65 3
-1 1 -7 -23.16 31.52 1
1 -1 7 -13.02 44.83 3
-1 1 -7 -14.06 53.77 5
1 1 7 6.09 38.22 4
1 1 7 -35.13 39.22 1
-1 1 -7 39.16 31.55 3
1 1 7 15.09 37.55 3
1 1 7 -50.05 47.29 5
1 -1 7 1.47 31.91 4
1 -1 7 16.3 46.47 1
-1 -1 -7 0.99 48.64 5
1 -1 7 27.99 53.88 3
2 -1 7 17.77 56.22 5
-2 1 -7 -14.82 38.11 1
2 1 7 39.16 53.47 5
2 1 7 -88.26 46.78 1
2 -1 7 39.9 51.92 3
2 1 7 26.95 44.47 4
2 -1 7 22.96 35.43 4
2 1 7 -9.09 46.24 3
3 -1 7 198.41 48.82 4
-3 1 -7 258.06 50.4 1
3 1 7 189.07 59.3 3
3 1 7 151.08 56.62 4
3 -1 7 203.92 64.8 3
4 1 7 9.82 51.52 3
4 -1 7 66.64 61.43 3
6 2 -7 -70.23 51.76 1
-6 -2 7 -29.6 48.5 1
-6 2 7 -4.35 44.47 1
6 -2 -7 -24.27 40.52 2
6 -2 -7 47.05 49.55 1
5 2 -7 54.17 53.02 1
-5 2 7 -81.49 62.53 3
5 -2 -7 -57.95 40.92 1
5 -2 -7 -25.15 35.93 2
-5 2 7 -56.7 38.6 1
-5 -2 7 77.3 48.96 1
4 -2 -7 58.02 34.29 1
4 2 -7 -8.88 48.17 3
4 -2 -7 40.29 31.08 2
-4 2 7 -32.95 37.85 1
-4 -2 7 -43.37 38.8 1
-4 -2 7 -10.31 50.33 3
-4 2 7 45.45 58.98 3
4 2 -7 -13.24 42.74 1
-3 -2 7 58.93 41.99 1
3 -2 -7 53.95 41.37 4
-3 2 7 71.29 50.95 3
3 -2 -7 81.01 46.24 5
3 2 -7 29.05 44.69 1
3 2 -7 84.43 51.51 3
-3 2 7 77.77 40.61 1
3 -2 -7 91.56 34.22 2
-3 -2 7 77.93 51.59 3
-3 2 7 83.72 42.85 3
-2 2 7 102.67 38.72 3
-2 -2 7 28.22 47.9 3
-2 -2 7 66.1 43.93 1
-2 2 7 83.05 38.47 1
-2 2 7 50.73 38.7 3
2 -2 -7 93.25 42.55 4
2 -2 -7 109.37 32.37 2
2 -2 -7 53.56 43.79 5
-2 2 7 88.37 33.54 2
2 2 -7 12.41 38.06 1
1 -2 -7 -2.61 39.88 5
-1 -2 7 5.12 36.49 1
1 2 -7 7.32 37.71 1
-1 -2 7 121.99 45.4 3
1 2 -7 3.02 31.28 4
-1 2 7 0.93 32.21 3
-1 2 7 16.99 28.19 2
-1 2 7 34.47 34.55 1
1 2 -7 15.02 34.52 3
1 -2 -7 18.88 38.2 4
-1 -2 7 56.17 39.27 3
0 -2 7 11.69 50.02 3
0 2 -7 -32.76 34.2 3
0 2 -7 9.85 36.68 1
0 2 7 17.55 33.4 1
0 2 -7 64.51 64.18 5
0 2 7 -24.7 42.68 5
0 -2 7 59.05 44.64 3
0 -2 7 -1.14 42.7 1
0 2 7 -16.02 26.05 3
0 2 7 -33.66 27.52 3
0 2 7 11.15 37.93 4
0 -2 -7 59.61 45.93 5
1 2 7 188.88 47.08 3
1 2 7 221.03 48.46 1
1 2 7 193.8 56.84 5
1 -2 7 155.48 56.41 3
-1 2 -7 288.98 47.48 3
-1 2 -7 196.37 49.19 1
1 2 7 173.31 50.21 4
-1 2 -7 335.94 72.54 5
-1 -2 -7 261.07 62.34 5
1 2 7 244.03 46.64 3
2 2 7 105.85 50.76 1
2 2 7 175.01 51.87 4
2 2 7 73.82 43.49 3
2 -2 7 151.73 59.17 3
-2 2 -7 64.08 44.49 1
2 -2 7 90.42 34.33 4
2 2 7 72.44 55.63 5
-3 2 -7 29.81 43.23 1
3 -2 7 52.27 56.38 3
3 2 7 70.28 46.21 3
-5 3 7 53.47 66.61 3
5 3 -7 -3.48 51.19 1
5 -3 -7 15.49 38.13 2
-5 3 7 33.21 43.9 1
-5 -3 7 109.11 50.2 1
-4 3 7 1056.96 110.54 3
-4 3 7 1084.66 96.1 1
-4 -3 7 1008.99 101.37 1
4 3 -7 890.63 105.24 3
4 -3 -7 1161.37 99.17 2
4 3 -7 1018.1 105.57 1
3 -3 -7 27.57 33.8 5
-3 3 7 -8.21 48.27 3
-3 3 7 -4.21 35.58 3
-3 -3 7 -24.62 42.7 1
3 3 -7 78.61 52.38 1
3 -3 -7 47.05 34.75 2
-3 3 7 55.24 37.21 1
-3 -3 7 95.53 49.75 3
3 -3 -7 0.74 42.56 4
-2 3 7 -30.54 31.22 1
-2 -3 7 -58.27 40.82 1
-2 3 7 -21.35 30.56 3
2 3 -7 5.55 40.44 3
2 3 -7 -6.3 38.35 1
2 -3 -7 -42.7 30.88 2
2 -3 -7 2.96 36.16 5
-2 3 7 -2.99 37.3 3
2 -3 -7 14.31 40.25 4
-2 -3 7 -54.25 43.97 3
-1 3 7 -23.05 27.17 3
-1 3 7 -2.27 28.05 3
1 -3 -7 28.58 42.11 5
-1 3 7 -37.77 28.02 1
-1 -3 7 111.22 46.83 1
1 3 -7 2.86 38.29 1
1 -3 -7 76.84 50.87 4
1 3 -7 47.11 29.09 4
1 3 -7 -15.73 40.7 3
-1 3 7 -14.92 29.27 1
-1 -3 7 24.14 41.43 3
0 3 -7 3.85 41.79 1
0 3 7 32.2 43.06 5
0 3 7 -1.51 29.4 1
0 -3 7 -7.84 47.21 1
0 3 7 15.24 42.51 4
0 3 -7 33.18 43.51 3
0 -3 -7 -33.89 44.4 5
0 -3 7 5.42 41.6 3
0 3 -7 -7.52 64.91 5
1 -3 7 2489.52 196.37 3
-1 3 -7 2028.01 190.88 3
1 3 7 2057.76 180.91 3
-1 -3 -7 2575.82 199.17 5
1 3 7 2123.03 179.9 3
1 3 7 2394.89 171.39 1
1 3 7 2162.06 196.85 5
-1 3 -7 2080.07 178.08 1
1 3 7 2177.98 171.98 4
2 -3 7 122.11 53.78 3
2 3 7 169.92 45.58 3
-2 3 -7 169.66 50 1
2 3 7 122.24 52.45 5
2 3 7 180.02 49.58 1
2 3 7 107.93 40.05 3
-3 3 -7 -38.69 42.17 1
3 3 7 8.51 40.49 3
5 4 -7 254.68 76.02 1
5 -4 -7 394.21 64.77 2
-5 -4 7 525.31 72.58 1
-5 4 7 489.74 94.72 3
-5 4 7 448.46 67.22 1
4 4 -7 157.57 57.66 3
-4 4 7 294.22 53.41 1
-4 4 7 208.35 65.63 3
4 -4 -7 253.36 52.32 2
4 4 -7 172.66 60.35 1
-4 -4 7 207.07 58.59 1
3 4 -7 119.55 56.09 3
3 -4 -7 34.83 42.16 2
-3 4 7 169.28 45.42 1
-3 4 7 157.48 53.84 3
-3 -4 7 327.67 57.51 1
3 4 -7 123.68 55.06 1
-2 4 7 -50.73 29.85 3
-2 -4 7 5.06 46.68 1
2 4 -7 -73.82 43.06 3
2 4 -7 -35.87 41 1
2 -4 -7 -22.56 33.58 2
-2 4 7 -35.69 31.35 1
2 -4 -7 42.24 35.69 5
2 -4 -7 -8.5 41.93 4
-2 4 7 -21.69 32.95 3
1 4 -7 -16.52 42.38 1
1 4 -7 -17.85 47.35 3
1 -4 -7 -6.88 39.65 5
-1 -4 7 -67.79 48.72 1
-1 -4 7 -81.76 36.53 3
-1 4 7 21.81 41.18 5
0 -4 -7 78.35 47.34 5
0 4 7 149.41 49.96 4
0 4 -7 55.79 49.66 1
0 4 -7 44.28 50.71 3
0 4 7 54.48 44.48 5
-1 4 -7 2.44 42.14 1
-1 4 -7 10.35 44.15 3
1 4 7 98.55 49.17 5
2 4 7 973.09 93.53 3
2 4 7 1096.05 96.98 3
-2 4 -7 1077.92 103.99 1
-3 4 -7 38.46 50.71 1
3 4 7 -18.68 33.03 3
4 5 -7 75.85 58.55 1
-4 5 7 168.22 67.49 3
4 -5 -7 138.85 52.88 2
-4 5 7 314.05 56.58 1
-4 -5 7 260.65 56.92 1
3 -5 -7 -25.74 39.95 2
-3 -5 7 2.74 48.71 1
3 5 -7 14.85 47.85 3
-3 5 7 -8.27 45.09 3
3 5 -7 -42.62 48.42 1
-3 5 7 -22.14 37.2 1
2 5 -7 290.95 65.23 3
2 5 -7 116.55 55.29 1
2 -5 -7 255.35 54.9 2
-2 5 7 256.84 45.17 1
-2 5 7 286.9 44.56 3
-1 5 7 302.86 58.84 5
1 5 -7 258.68 58.71 1
1 -5 -7 353.36 57.09 5
0 5 7 53.45 43.54 5
0 5 -7 -7.84 46.6 1
0 5 -7 -35.88 48.26 3
0 -5 7 -6.58 28.58 2
-1 5 -7 195.36 57.42 1
1 5 7 293.21 57.72 5
-1 5 -7 156.73 63.09 3
-2 5 -7 30.94 51.55 1
3 6 -7 31.08 56.04 1
-3 6 7 48.5 48.76 3
3 6 -7 22.42 51.56 3
3 -6 -7 19.91 44.5 2
2 6 -7 20.61 48.93 1
2 6 -7 150.43 58.85 3
2 -6 -7 120.95 48.15 2
1 6 -7 18.26 56.6 3
1 6 -7 38.63 51.15 1
0 6 -7 52.31 53.63 1
0 6 -7 39.88 56.74 3
0 6 7 68.89 42.25 5
-1 6 -7 -36.37 44.54 1
1 -6 7 -34.99 36.73 2
-5 0 8 -24.64 43.67 1
-5 0 8 -94.88 60.72 3
5 0 -8 -64.73 44.87 1
-4 0 8 -20.29 37.66 1
4 0 -8 3.53 42.5 1
-4 0 8 -46.39 60.58 3
-3 0 8 8.23 53.37 3
3 0 -8 23.15 36.54 3
-3 0 8 0.48 35.52 3
-3 0 8 5.56 38.02 1
3 0 -8 -26.01 38.3 1
-2 0 8 -0.1 44.12 3
2 0 -8 -14.1 54.82 5
2 0 -8 24.4 32.31 3
-2 0 8 26.62 36.03 3
2 0 -8 -16.68 36.9 1
-2 0 8 -22.47 32.03 1
2 0 -8 -28.9 37.75 4
1 0 -8 25.41 38.68 4
-1 0 8 20.72 38.32 1
-1 0 8 67.13 27.14 2
1 0 -8 53.49 28.77 3
1 0 -8 -35.76 56.17 5
1 0 -8 55.7 30.69 1
1 0 -8 9.1 27.16 1
-1 0 8 17.45 35.56 3
-1 0 8 -21.64 44.97 3
0 0 -8 311.56 68.53 5
0 0 8 136.5 51.47 3
0 0 -8 212.95 37.25 1
0 0 8 208.6 51.03 3
0 0 8 144.16 49.93 1
0 0 -8 97.35 31.57 1
1 0 8 47.07 48.64 3
1 0 8 61.9 50.82 1
1 0 8 65.55 42.64 4
2 0 8 579.45 64.08 4
2 0 8 274.71 69.96 3
3 0 8 173.9 61.98 3
3 0 8 220.28 56.05 4
5 -1 -8 -11.5 46.26 1
-5 1 8 -100.79 40.93 1
-5 1 8 3.27 68.41 3
-5 -1 8 -5.27 48 1
5 1 -8 16.9 47.83 1
-4 1 8 59.36 43.78 1
-4 1 8 -56.42 59.91 3
-4 -1 8 -31.26 56.23 3
-4 -1 8 12.37 42.85 1
4 -1 -8 0.17 28.28 2
4 1 -8 -39.54 44.67 1
4 -1 -8 -8.29 36.44 1
-3 1 8 278.76 66.93 3
3 -1 -8 289.87 39.64 2
3 1 -8 268.35 52.96 1
-3 -1 8 186.15 49.02 1
3 -1 -8 227.82 40.64 1
-3 -1 8 280.15 71.55 3
3 -1 -8 257.7 45.38 1
3 -1 -8 352.27 67.73 5
-3 1 8 240.56 54.6 1
-3 1 8 221.74 55.04 3
-2 -1 8 -48.03 35.34 3
-2 1 8 -27.64 44.29 3
2 -1 -8 89.02 52.58 5
-2 -1 8 -78.2 44.37 3
2 -1 -8 -12.72 37.64 4
-2 1 8 -22.03 32.99 1
2 1 -8 4.92 39.09 1
2 1 -8 41.87 38.53 3
-2 1 8 3.67 33.45 3
-2 1 8 -8.99 27.17 2
2 -1 -8 -9.38 23.49 1
-2 -1 8 26.19 39.39 1
-1 1 8 -15.44 32.29 3
1 -1 -8 -49.49 37.99 4
1 1 -8 32 36.38 4
-1 -1 8 24.52 39.15 3
1 1 -8 -38.3 33.96 3
-1 -1 8 -12.9 45.17 3
-1 1 8 23.19 27.78 2
1 1 -8 -17.18 37.03 1
1 1 -8 5.38 64.62 5
-1 -1 8 -20.76 37.58 1
-1 -1 8 19.4 22.23 2
-1 1 8 -30.45 33.89 1
1 -1 -8 12.43 48.95 5
-1 1 8 24.08 42.19 3
0 1 8 -25.5 29.41 2
0 1 8 -25.67 40.73 3
0 1 -8 1.49 32.8 3
0 1 8 7.25 36.54 3
0 -1 8 -22.41 42.11 3
0 -1 -8 41.72 53.38 5
0 1 -8 18.04 62.7 5
0 1 8 -39.35 41.49 1
0 1 -8 -62.62 34.79 1
0 -1 8 37.69 46.44 3
0 -1 8 -30.31 40.24 1
1 1 8 64.42 56.98 5
1 1 8 66.92 47.19 3
-1 1 -8 44.76 37.81 1
1 -1 8 86.49 55.59 1
1 -1 8 23.25 51.56 3
1 1 8 54.35 44.59 4
1 1 8 4.64 45.31 1
2 1 8 207.83 65.59 1
-2 1 -8 258.99 47.41 1
2 -1 8 233.02 61.85 3
2 1 8 73.06 52.91 3
2 1 8 235.01 53.45 4
2 -1 8 191.25 47.79 4
3 1 8 138.56 58.16 3
3 -1 8 181.11 65.71 3
5 -2 -8 70.77 37.67 2
5 2 -8 -43.84 45.88 1
-5 -2 8 61.94 51.63 1
-5 2 8 19.38 44.1 1
-5 2 8 36.43 68.39 3
4 -2 -8 -26.24 29.93 2
-4 -2 8 -21.97 40.69 1
-4 2 8 1.97 43.68 1
4 -2 -8 -60.32 44.43 5
-4 2 8 -49.76 57.01 3
4 2 -8 39.59 51.7 1
-3 -2 8 -42.29 50.22 3
3 -2 -8 17.2 31.25 2
-3 -2 8 5.38 45.96 1
3 2 -8 11.79 44.8 3
3 -2 -8 7.85 47.66 5
3 2 -8 19.77 43.93 1
3 -2 -8 -42.76 41.46 4
-3 2 8 46.72 49.85 3
-3 2 8 15.56 41.22 1
-2 2 8 94.93 42.55 1
2 2 -8 77.63 42.93 1
-2 2 8 42.73 33.66 2
2 -2 -8 82.09 47.37 5
-2 -2 8 72.1 51.65 3
-2 2 8 -4.89 42.95 3
-2 -2 8 23.2 44.44 1
2 -2 -8 106.97 45.11 4
-1 -2 8 607.69 78.74 3
-1 -2 8 632.17 75.27 1
1 2 -8 560.45 63.91 4
-1 2 8 674.95 69.74 3
-1 2 8 620.59 69.69 3
1 -2 -8 803.59 91.45 5
1 2 -8 600.93 101.91 5
-1 2 8 664.12 69.9 1
1 -2 -8 640.71 72.87 4
1 2 -8 637.94 74.19 3
1 2 -8 616.57 80.48 1
0 -2 -8 305.9 66.77 5
0 2 8 268.8 67.4 5
0 2 8 355.92 54.3 1
0 -2 8 333.77 69.53 3
0 2 8 356.89 55.46 3
0 2 -8 276.76 54.46 1
0 -2 8 236.53 63.41 1
0 2 8 374.93 52.23 3
0 2 8 365.46 57.59 4
-1 2 -8 -31.67 37.93 1
1 2 8 -8.09 42.76 4
1 2 8 34.35 38.77 3
1 2 8 22.71 45.79 1
1 2 8 -2.77 40.3 3
1 -2 8 41.48 51.47 3
1 2 8 -34.87 49.44 5
2 2 8 74.32 56.06 1
-2 2 -8 149.6 47.17 1
2 -2 8 91.49 56.46 3
2 2 8 111.35 51.38 3
-3 2 -8 4.35 41.29 1
3 2 8 -25.6 47.67 3
5 -3 -8 142.56 46.92 2
-5 3 8 12.53 44.94 1
-5 -3 8 135.83 59.58 1
5 3 -8 12.23 52.12 1
-5 3 8 65.28 70.23 3
4 -3 -8 15.7 38.12 2
-4 3 8 66.86 46.61 1
4 3 -8 30.65 50.96 1
-4 -3 8 34.29 52.98 1
-4 3 8 26.77 58.21 3
3 3 -8 -3.81 44.75 3
3 -3 -8 103.45 40.03 5
3 3 -8 6.17 42.36 1
-3 3 8 33.12 43.1 1
-3 -3 8 113.38 53.29 1
-3 3 8 54.12 50.49 3
3 -3 -8 73.25 38.55 2
-2 3 8 60.57 37.35 1
-2 -3 8 30.32 49.9 3
2 3 -8 68.16 42.45 1
-2 3 8 3.42 43.13 3
-2 3 8 66.81 39.67 3
2 -3 -8 -23.47 38.38 5
-2 -3 8 28.96 48.14 1
2 3 -8 -1.75 46.83 3
1 -3 -8 30.92 47.64 5
-1 -3 8 -33.1 45.91 1
-1 3 8 4.05 34.96 3
-1 -3 8 6.96 43.97 3
1 3 -8 37.82 34.05 4
-1 3 8 81.65 32.23 3
1 3 -8 24.85 45.78 3
1 3 -8 0.79 43.82 1
-1 3 8 21.77 35.89 1
0 -3 -8 103.76 53.02 5
0 -3 8 -19.8 52.68 1
0 -3 8 -5.03 46.68 3
0 3 -8 11.41 43.26 1
0 3 8 36.78 47.16 4
0 3 8 -12.73 49.26 5
0 3 -8 -18.55 40.47 3
0 3 8 -4.44 28.29 3
0 3 8 29.67 34.92 1
-1 3 -8 382.35 65.37 1
1 3 8 475.26 61.88 1
1 3 8 434.17 58.24 3
1 3 8 327.83 71.27 5
1 3 8 405.22 60.52 3
1 -3 8 359.97 72.33 3
2 3 8 20.49 39.58 3
-2 3 -8 -69.87 41.41 1
2 3 8 70.75 48.38 1
-4 -4 8 -37.74 52.27 1
4 -4 -8 34.19 42.59 2
4 4 -8 -2.68 50.99 1
-4 4 8 62.68 59.2 3
-4 4 8 14.92 40.14 1
3 4 -8 -88.6 39.39 1
3 4 -8 -49.29 50.89 3
-3 4 8 -4.03 35.71 1
3 -4 -8 6.65 36.64 2
-3 4 8 -5.78 45.37 3
-3 -4 8 -9.57 48.71 1
2 4 -8 -34.9 43.19 3
2 4 -8 12.89 42 1
-2 4 8 30.29 33.46 1
2 -4 -8 8.92 38.41 2
-2 4 8 55.5 34.5 3
-2 -4 8 12.09 50.65 1
2 -4 -8 -13.05 38.56 5
-2 4 8 -39.97 38.75 3
-1 -4 8 -37.23 54.75 1
-1 4 8 13.3 31.76 3
-1 4 8 11.74 30.47 3
1 -4 -8 53.76 45.51 5
1 4 -8 24.54 43.26 1
1 4 -8 13.29 49.23 3
-1 4 8 -5.74 32.18 1
0 4 -8 33.34 45.57 1
0 4 8 44.58 49.37 5
1 4 8 147.37 34.14 3
-1 4 -8 28.55 46.22 1
2 4 8 31.15 36.51 3
-2 4 -8 -35.41 45.05 1
-4 -5 8 -33.14 50.71 1
-4 5 8 23.25 41.39 1
-4 5 8 -17.58 55.11 3
4 -5 -8 17 43.77 2
4 5 -8 -10.26 50.45 1
-3 5 8 74.71 42.8 1
-3 5 8 58.21 51.82 3
-3 -5 8 17.65 55.25 1
3 -5 -8 55.42 43.51 2
3 5 -8 -2.2 49.71 1
3 5 -8 51.67 57 3
-2 5 8 1.22 32.42 3
2 5 -8 35.05 48.75 1
2 5 -8 -127.62 50.37 3
-2 5 8 25.68 36.81 3
2 -5 -8 -37.38 39.18 2
1 5 -8 -1.09 45.05 1
-1 5 8 -14.65 44.98 5
1 5 -8 49.99 56.86 3
1 -5 -8 1.57 43.78 5
0 5 -8 93.53 51.72 1
0 5 8 248.45 58.33 5
-1 5 -8 381.47 68.92 1
2 6 -8 -49.07 46.33 1
2 -6 -8 -67.54 43.9 2
2 6 -8 -22.08 56.07 3
1 6 -8 53.49 54.26 1
0 6 -8 35.4 51.38 1
0 6 8 118.13 51.55 5
5 0 -9 -23.62 45.27 1
-5 0 9 -55.28 38.26 1
-4 0 9 -113.77 55.16 3
4 0 -9 -9.11 40.3 1
-4 0 9 38.33 43.13 1
-3 0 9 -5.4 56.67 3
3 0 -9 -24.88 36.57 1
3 0 -9 -33.59 60.61 5
-3 0 9 31.08 40.45 1
-2 0 9 -31.34 24.33 2
2 0 -9 -52.69 58.46 5
-2 0 9 -29.68 48.81 3
2 0 -9 2.28 42.63 4
-2 0 9 -13.95 37.08 1
2 0 -9 36.66 37.37 1
1 0 -9 -53.65 30.17 1
-1 0 9 -25.78 45.49 1
-1 0 9 -7.38 49.33 3
-1 0 9 17.43 29.22 2
1 0 -9 -27.54 40.81 4
0 0 9 60.66 48.44 1
0 0 9 9.31 45.93 3
0 0 9 -18.92 30.88 2
1 0 9 16.02 49.81 1
1 0 9 9.45 50.66 3
2 0 9 0.7 51.33 3
2 0 9 29.57 44.69 4
-5 -1 9 -42.66 50.01 1
-5 1 9 -22.02 46.55 1
5 1 -9 9.59 51.81 1
-5 1 9 87.28 71.84 3
5 -1 -9 30.26 43.46 1
-4 -1 9 120.6 69.13 3
4 -1 -9 43.38 38.11 1
-4 1 9 55.34 44.58 1
4 1 -9 61.09 47.37 1
-4 -1 9 59.25 47.38 1
-4 1 9 170.21 69.79 3
-3 1 9 20.94 54.38 3
3 1 -9 7.57 42.11 1
-3 -1 9 13.95 43.48 1
-3 -1 9 2.4 60.46 3
3 -1 -9 57.03 33.94 1
3 -1 -9 41.11 56.03 5
-3 1 9 55.49 41.87 1
-2 1 9 -7.77 49.37 3
-2 -1 9 -6.95 52.76 3
2 -1 -9 -38.66 40.82 4
-2 -1 9 -5.6 43.36 1
2 -1 -9 -47.01 50.59 5
2 1 -9 -10.88 41.88 4
-2 1 9 -25.2 28.63 2
-2 1 9 22.63 42.35 1
2 1 -9 -52.42 41.3 1
-1 1 9 144.64 47.78 1
-1 -1 9 98.54 28.87 2
-1 -1 9 131.02 51.83 1
-1 1 9 138.04 54.75 3
1 1 -9 133.21 43.81 4
1 1 -9 149.99 44.9 1
-1 1 9 86.65 33.08 2
-1 -1 9 22.14 53.92 3
1 -1 -9 89.92 45.55 4
0 -1 9 44.04 52.94 3
0 1 9 -84.73 45.05 1
0 -1 9 -27.69 43.6 1
0 1 -9 -38.3 37.52 1
0 1 9 0.61 45.14 3
1 1 9 51.24 45.53 4
1 1 9 25.43 48.26 3
1 -1 9 113.93 56.36 3
1 -1 9 27.8 54.5 1
-1 1 -9 35.38 36.46 1
1 1 9 23.04 53.23 1
2 1 9 -34.17 46.36 3
2 1 9 -90.73 55.11 1
2 -1 9 -21.11 50.9 3
5 2 -9 28.41 55.34 1
-5 -2 9 -47.94 45.98 1
-5 2 9 76.84 70.73 3
-5 2 9 -11.95 49.77 1
4 2 -9 14.63 44.37 1
-4 2 9 -11.34 56.39 3
-4 -2 9 61.27 50.03 1
4 -2 -9 82.94 35.94 2
-4 2 9 1.28 49.04 1
4 -2 -9 76.25 50.35 5
-3 -2 9 40.39 57.79 3
3 2 -9 23.18 45.46 1
-3 2 9 -0.6 49.22 3
3 -2 -9 2.37 46.15 5
-3 2 9 -39.59 44.95 1
-3 -2 9 -14.38 47.49 1
2 2 -9 -37.5 37.46 4
-2 -2 9 -38.13 48.47 3
-2 -2 9 -43.13 43.56 1
-2 2 9 -77.2 41.33 3
2 2 -9 -19.25 42.58 1
-2 2 9 -14.6 40.33 1
2 -2 -9 45.89 45.21 5
-1 -2 9 31.88 51.66 1
-1 -2 9 63.29 59.78 3
1 2 -9 121.67 48.23 1
1 -2 -9 131.55 52.72 5
-1 2 9 57.23 44.27 1
-1 2 9 47.82 46.94 3
1 2 -9 175.05 44.24 4
0 2 -9 669.19 77.84 1
0 -2 9 746.07 92.69 3
0 2 9 780.87 81.37 1
0 2 9 668.9 78.35 3
0 -2 9 751.26 90.61 1
1 -2 9 -50.62 51.9 3
1 2 9 -19.71 41.13 3
-1 2 -9 -38.65 39.7 1
1 2 9 50.7 50.56 1
2 2 9 6.94 55.01 1
-2 2 -9 -10.5 44.46 1
2 2 9 -5.03 47.53 3
-4 3 9 128.71 60.2 3
-4 3 9 49.86 46.84 1
4 3 -9 81.81 50.11 1
-4 -3 9 42.29 55.44 1
4 -3 -9 118.09 41.49 2
-3 -3 9 29.17 52.04 1
-3 3 9 42.82 50.48 3
3 3 -9 35.97 44.89 1
3 -3 -9 1.21 36.91 2
3 -3 -9 56.69 40.17 5
-3 3 9 -3.83 43.36 1
-2 -3 9 -38.85 48.75 1
2 -3 -9 78.39 45.45 5
-2 3 9 -2.76 39.69 1
-2 3 9 29.47 44.66 3
2 3 -9 -36.54 40.41 1
1 3 -9 155.56 41.57 4
1 3 -9 162.78 55.34 1
1 -3 -9 195.17 59.03 5
-1 -3 9 131.9 57.94 1
-1 3 9 195.97 45.1 1
-1 3 9 147.42 48.31 3
0 3 9 70.6 41.68 3
0 -3 9 46.25 60.25 1
0 3 9 -6.69 55.59 5
0 3 9 104.88 42.01 1
0 3 -9 66.94 45.14 1
-1 3 -9 46.74 53.17 1
1 3 9 45.66 45.06 3
1 3 9 82.14 48.26 1
2 3 9 115.51 59.09 1
2 3 9 50.32 50.87 3
-2 3 -9 19.78 49.76 1
-4 4 9 45.95 59.49 3
4 4 -9 -66.49 47.44 1
-4 4 9 -2.53 45.99 1
-4 -4 9 -100.18 49.71 1
4 -4 -9 10.77 40.1 2
-3 4 9 -1.41 43.39 1
-3 4 9 -7.72 46.59 3
-3 -4 9 -49.04 50.44 1
3 -4 -9 -16.28 39.26 2
3 4 -9 -46.91 44.15 1
-2 4 9 -8.88 36.87 1
-2 -4 9 -26.16 55.03 1
-2 4 9 84.5 44.86 3
2 -4 -9 -7.63 41.89 5
2 4 -9 25.79 46.04 1
-1 4 9 22 37.15 3
-1 4 9 39.86 37.49 1
-1 -4 9 -4.67 56.96 1
1 4 -9 -58.61 44.33 1
0 4 9 210.14 65.85 5
0 4 9 180.4 44.72 3
0 4 -9 103.63 51.94 1
-1 4 -9 108.04 55.15 1
1 4 9 248.22 53.01 3
3 5 -9 53.57 47.75 1
-3 5 9 -19.82 38.23 1
3 -5 -9 18.5 43.26 2
-3 5 9 67.34 53.26 3
-3 -5 9 -79.88 54.99 1
2 5 -9 57.69 50.61 1
-2 5 9 31.22 41.64 3
1 5 -9 -39.63 49.21 1
0 5 -9 286.51 66.89 1
-4 0 10 154.87 72.7 3
-4 0 10 110.62 52.18 1
4 0 -10 100.24 46.52 1
-3 0 10 -17.49 41.29 1
3 0 -10 59.49 44.05 1
-3 0 10 -22.73 59.52 3
2 0 -10 2.67 32.27 1
-2 0 10 -14.36 42.82 1
-2 0 10 -14.36 52.93 3
-1 0 10 66.08 54.61 3
1 0 -10 120.87 48.97 4
-1 0 10 109.51 54.66 1
0 0 10 -11.1 49.29 1
0 0 10 -51.89 50.89 3
1 0 10 45.98 58.74 1
1 0 10 25.05 51.8 3
4 1 -10 57.44 47.04 1
-4 1 10 23.24 43.88 1
-4 -1 10 0.68 47.66 1
-4 1 10 -1.71 60.47 3
-3 1 10 21.22 57.01 3
-3 1 10 -49.8 40.68 1
3 1 -10 7.32 45.25 1
-3 -1 10 -35.29 43.78 1
-3 -1 10 17.03 64.77 3
2 1 -10 -2.57 41.23 1
-2 -1 10 -12.54 56.04 3
2 1 -10 19.92 43.99 4
-2 -1 10 11.71 48.81 1
-2 1 10 51.74 53.07 3
-2 1 10 88.44 45.62 1
1 1 -10 162.58 45.28 1
-1 1 10 129.5 56.1 3
-1 -1 10 88.4 52.7 1
-1 -1 10 79.1 57.81 3
-1 1 10 74.82 51.88 1
1 1 -10 73.11 47.19 4
0 1 10 62.31 51.5 3
0 -1 10 56.8 56.59 3
0 1 10 -19.5 53.2 1
0 1 -10 24.46 37.36 1
0 -1 10 0 50.1 1
1 1 10 6.99 51.17 3
1 -1 10 96.18 70.81 1
1 1 10 121.65 60.61 1
1 -1 10 64.74 61.24 3
4 2 -10 23.21 46.48 1
-4 2 10 18.53 61.77 3
-4 -2 10 -20.4 53.93 1
-4 2 10 -34.83 46.89 1
-3 2 10 -3.47 47.32 1
-3 2 10 44.98 53.79 3
3 2 -10 43.71 47.47 1
-3 -2 10 103.05 56.13 1
2 2 -10 -57.51 45.22 1
-2 -2 10 -20.85 53.59 3
-2 2 10 -58.14 46.18 3
2 2 -10 56.9 45.13 4
-2 -2 10 15.04 48.9 1
-2 2 10 12.36 43.4 1
-1 2 10 195.18 52.62 1
1 2 -10 143.58 51 1
-1 -2 10 43.78 63.28 3
-1 2 10 80.67 50.11 3
-1 -2 10 247.51 63.11 1
1 2 -10 191.83 48.3 4
0 -2 10 191.78 68.83 1
0 2 10 184.34 58.66 3
0 2 -10 247.77 59.95 1
0 2 10 258.82 63.43 1
0 -2 10 377.88 80.42 3
1 2 10 32.51 50.98 3
1 2 10 -7.15 54.03 1
-1 2 -10 -21.35 43.52 1
-4 3 10 0.64 49.71 1
-4 -3 10 10.04 56.92 1
-4 3 10 -53.58 56.82 3
4 3 -10 3.8 48.97 1
3 3 -10 -34.11 45.66 1
-3 -3 10 19.95 55.25 1
-3 3 10 -43.52 48.93 3
-3 3 10 -7.56 45.16 1
2 3 -10 9.46 50.43 1
-2 3 10 -24.22 44.86 3
-2 3 10 70.25 45.46 1
2 3 -10 86.6 46.04 4
-2 -3 10 11.97 55.73 1
-1 -3 10 -8.73 57.04 1
-1 3 10 68.82 44.17 1
1 3 -10 71.1 51.28 1
-1 3 10 13.54 44.27 3
0 3 -10 80.46 47.65 1
0 3 10 17.3 43.95 1
0 3 10 27.67 43.76 3
0 -3 10 59.29 65.14 1
-3 4 10 130.67 50.23 1
-3 4 10 -40.45 48.21 3
-3 -4 10 36.82 57.07 1
3 4 -10 59.56 49.65 1
-2 4 10 -1.68 41.76 1
2 4 -10 -13.65 45.54 1
-2 4 10 -15.27 43.61 3
-2 -4 10 49.71 60.05 1
1 4 -10 7.8 50.28 1
-1 -4 10 -101.23 56.77 1
-1 4 10 21.54 43.1 3
-3 0 11 -10.09 49.44 1
-3 0 11 -29.68 60.09 3
-2 0 11 -84.52 52.71 3
-2 0 11 -76.31 46.45 1
-1 0 11 -8.95 53.22 1
-1 0 11 -58.86 52.63 3
0 0 11 6.7 54.99 1
0 0 11 59.15 54.1 3
3 1 -11 17.05 47.5 1
-3 1 11 -23.5 51.57 3
-3 1 11 -14.99 47.59 1
-3 -1 11 10.51 65.15 3
-3 -1 11 37.97 53.93 1
-2 -1 11 72.69 56.59 1
-2 -1 11 126.96 66.93 3
2 1 -11 225.72 50.93 1
-2 1 11 27.22 58.86 3
-2 1 11 86.67 53.44 1
-1 -1 11 212.65 68.53 3
-1 1 11 77.82 58.27 3
-1 1 11 120.53 61.76 1
-1 -1 11 178.5 63.82 1
1 1 -11 141.01 47.78 1
0 1 11 25.11 57.79 1
0 1 11 -27.12 48.17 3
0 -1 11 -16.23 60.28 3
0 -1 11 50.49 60.69 1
3 2 -11 -14.21 47.27 1
-3 2 11 7.93 52.75 3
-3 2 11 0.73 46.89 1
-3 -2 11 -23.49 53 1
2 2 -11 142.26 53.1 1
-2 -2 11 143.16 63.53 1
-2 2 11 86.15 51.76 1
-2 2 11 91.79 56.87 3
-1 2 11 217.35 59.19 1
-1 2 11 182.37 60.5 3
1 2 -11 228.95 54.5 1
-1 -2 11 166.19 65.84 1

_cod_database_fobs_code 2108437
