#------------------------------------------------------------------------------
#$Date: 2019-11-22 08:26:23 +0200 (Fri, 22 Nov 2019) $
#$Revision: 231197 $
#$URL: file:///home/coder/svn-repositories/cod/cif/2/10/85/2108546.cif $
#------------------------------------------------------------------------------
#
# This file is available in the Crystallography Open Database (COD),
# http://www.crystallography.net/. The original data for this entry
# were provided by IUCr Journals, http://journals.iucr.org/.
#
# The file may be used within the scientific community so long as
# proper attribution is given to the journal article from which the
# data were obtained.
#
data_2108546
loop_
_publ_author_name
'Udovenko, Anatoly A.'
'Slobodyuk, Arseny B.'
'Emelina, Tatiana B.'
'Laptash, Natalia M.'
_publ_section_title
;
 Fluxional seven-coordinated fluorido- and oxofluoridotantalates
;
_journal_issue                   6
_journal_name_full               'Acta Crystallographica Section B'
_journal_page_first
;
;
_journal_paper_doi               10.1107/S2052520619013465
_journal_volume                  75
_journal_year                    2019
_chemical_formula_moiety         'F7 Ta, H8 N2'
_chemical_formula_sum            'F7 H8 N2 Ta'
_chemical_formula_weight         350.03
_chemical_name_common            'ammonium heptafluorotantalate'
_chemical_name_systematic        'ammonium heptafluorotantalate'
_space_group_crystal_system      tetragonal
_space_group_IT_number           129
_space_group_name_Hall           '-P 4a 2a'
_space_group_name_H-M_alt        'P 4/n m m :2'
_atom_sites_solution_hydrogens   difmap
_atom_sites_solution_primary     direct
_atom_sites_solution_secondary   difmap
_audit_creation_method           SHELXL-2014/7
_cell_angle_alpha                90
_cell_angle_beta                 90
_cell_angle_gamma                90
_cell_formula_units_Z            2
_cell_length_a                   5.8613(2)
_cell_length_b                   5.8613(2)
_cell_length_c                   10.5817(3)
_cell_measurement_reflns_used    7755
_cell_measurement_temperature    120(2)
_cell_measurement_theta_max      40.08
_cell_measurement_theta_min      3.48
_cell_volume                     363.53(2)
_computing_cell_refinement       'Bruker SAINT'
_computing_data_collection       'Bruker APEX2'
_computing_data_reduction        'Bruker SAINT'
_computing_molecular_graphics    'Bruker SHELXTL'
_computing_publication_material  'Bruker SHELXTL'
_computing_structure_refinement  'SHELXL-2014/7 (Sheldrick, 2014)'
_computing_structure_solution    'SHELXS-97 (Sheldrick, 2008)'
_diffrn_ambient_temperature      120(2)
_diffrn_detector_area_resol_mean 8.33
_diffrn_measured_fraction_theta_full 0.996
_diffrn_measured_fraction_theta_max 0.999
_diffrn_measurement_device_type  'Bruker APEX-II CCD'
_diffrn_measurement_method       '\f and \w scans'
_diffrn_radiation_type           MoK\a
_diffrn_radiation_wavelength     0.71073
_diffrn_reflns_av_R_equivalents  0.0334
_diffrn_reflns_av_unetI/netI     0.0156
_diffrn_reflns_Laue_measured_fraction_full 0.996
_diffrn_reflns_Laue_measured_fraction_max 0.999
_diffrn_reflns_limit_h_max       10
_diffrn_reflns_limit_h_min       -9
_diffrn_reflns_limit_k_max       9
_diffrn_reflns_limit_k_min       -10
_diffrn_reflns_limit_l_max       19
_diffrn_reflns_limit_l_min       -18
_diffrn_reflns_number            8074
_diffrn_reflns_point_group_measured_fraction_full 0.996
_diffrn_reflns_point_group_measured_fraction_max 0.999
_diffrn_reflns_theta_full        25.242
_diffrn_reflns_theta_max         40.077
_diffrn_reflns_theta_min         3.851
_exptl_absorpt_coefficient_mu    15.187
_exptl_absorpt_correction_T_max  0.1156
_exptl_absorpt_correction_T_min  0.1156
_exptl_absorpt_correction_type   multi-scan
_exptl_absorpt_process_details   'Bruker SADABS'
_exptl_crystal_colour            colourless
_exptl_crystal_density_diffrn    3.198
_exptl_crystal_description       sphere
_exptl_crystal_F_000             316
_exptl_crystal_size_max          0.250
_exptl_crystal_size_mid          0.250
_exptl_crystal_size_min          0.250
_refine_diff_density_max         1.398
_refine_diff_density_min         -1.262
_refine_diff_density_rms         0.143
_refine_ls_extinction_coef       0.0070(4)
_refine_ls_extinction_expression Fc^*^=kFc[1+0.001xFc^2^\l^3^/sin(2\q)]^-1/4^
_refine_ls_extinction_method     'SHELXL-2014/7 (Sheldrick 2014'
_refine_ls_goodness_of_fit_ref   1.046
_refine_ls_hydrogen_treatment    refU
_refine_ls_matrix_type           full
_refine_ls_number_parameters     30
_refine_ls_number_reflns         712
_refine_ls_number_restraints     0
_refine_ls_restrained_S_all      1.046
_refine_ls_R_factor_all          0.0122
_refine_ls_R_factor_gt           0.0122
_refine_ls_shift/su_max          0.006
_refine_ls_shift/su_mean         0.001
_refine_ls_structure_factor_coef Fsqd
_refine_ls_weighting_details
'w=1/[\s^2^(Fo^2^)+(0.0086P)^2^+0.8194P] where P=(Fo^2^+2Fc^2^)/3'
_refine_ls_weighting_scheme      calc
_refine_ls_wR_factor_gt          0.0307
_refine_ls_wR_factor_ref         0.0307
_reflns_Friedel_coverage         0.000
_reflns_number_gt                710
_reflns_number_total             712
_reflns_threshold_expression     'I > 2\s(I)'
_cod_data_source_file            wf5151sup1.cif
_cod_data_source_block           I
_cod_original_cell_volume        363.53(3)
_cod_original_sg_symbol_H-M      'P 4/n m m'
_cod_database_code               2108546
_shelx_space_group_comment
; 
The symmetry employed for this shelxl refinement is uniquely defined 
by the following loop, which should always be used as a source of 
symmetry information in preference to the above space-group names. 
They are only intended as comments. 
;
_shelx_estimated_absorpt_t_min   0.116
_shelx_estimated_absorpt_t_max   0.116
_shelx_res_file
; 
  
    x129.res created by SHELXL-2014/7 
  
TITL x129 in P4/nmm 
CELL 0.71073   5.8613   5.8613  10.5817  90.000  90.000  90.000 
ZERR    2.00   0.0002   0.0002   0.0003   0.000   0.000   0.000 
LATT 1 
SYMM 0.5-X, 0.5-Y, Z 
SYMM 0.5-Y, X, Z 
SYMM Y, 0.5-X, Z 
SYMM -X, 0.5+Y, -Z 
SYMM 0.5+X, -Y, -Z 
SYMM 0.5+Y, 0.5+X, -Z 
SYMM -Y, -X, -Z 
SFAC N  H  F  Ta 
UNIT 4 16 14 2 
L.S. 8 
ACTA 
FMAP 2 
BOND $H 
HTAB 
PLAN 3 
CONN 10 1.8 F1 F2 F3 Ta1 N1 N2 
SIZE 0.25 0.25 0.25 
DAMP 1000 
TEMP -153.000 
WGHT    0.008600    0.819400 
EXTI    0.007036 
FVAR       0.18839 
TA1   4    0.250000    0.250000    0.260303    10.12500    0.01037    0.01037 = 
         0.00586    0.00000    0.00000    0.00000 
N1    1    0.250000    0.750000    0.500000    10.12500    0.01624    0.01624 = 
         0.01014    0.00000    0.00000    0.00000 
N2    1    0.250000    0.250000    0.865787    10.12500    0.04827    0.04827 = 
         0.00833    0.00000    0.00000    0.00000 
F1    3    0.250000    0.250000    0.449134    10.12500    0.01802    0.01802 = 
         0.00772    0.00000    0.00000    0.00000 
F2    3    0.021109    0.478891    0.300149    10.50000    0.02337    0.02337 = 
         0.05550    0.00043   -0.00043    0.01325 
F3    3    0.176447    0.434140    0.113189    10.25000    0.06057    0.03696 = 
         0.00954    0.00860    0.00516    0.02446 
AFIX   3 
H1    2    0.250000    0.847798    0.538510    10.50000    0.07422 
H2    2    0.250000    0.249999    0.935692    10.12500    0.12283 
AFIX   0 
HKLF 4 
  
REM  x129 in P4/nmm 
REM R1 =  0.0122 for     710 Fo > 4sig(Fo)  and  0.0122 for all     712 data 
REM     30 parameters refined using      0 restraints 
  
END 
  
WGHT      0.0067      0.6348 
  
REM Instructions for potential hydrogen bonds 
EQIV $1 x, y+1, z 
HTAB N1 F1_$1 
EQIV $2 x+1/2, y+1/2, -z+1 
HTAB N1 F2_$2 
EQIV $3 y-1/2, -x+1, -z+1 
HTAB N1 F2_$3 
EQIV $4 x, y, z+1 
HTAB N2 F3_$4 
EQIV $5 -x+1/2, -y+1/2, z+1 
HTAB N2 F3_$5 
EQIV $6 -y+1/2, x, z+1 
HTAB N2 F3_$6 
EQIV $7 y, -x+1/2, z+1 
HTAB N2 F3_$7 
EQIV $8 x, -y+1/2, z+1 
HTAB N2 F3_$8 
EQIV $9 -x+1/2, y, z+1 
HTAB N2 F3_$9 
EQIV $10 -y+1/2, -x+1/2, z+1 
HTAB N2 F3_$10 
EQIV $11 y, x, z+1 
HTAB N2 F3_$11 
  
REM Highest difference peak  1.398,  deepest hole -1.262,  1-sigma level  0.143 
Q1    1   0.0311  0.4689  0.2438  10.50000  0.05    1.40 
Q2    1   0.2500  0.2500  0.3041  10.12500  0.05    1.14 
Q3    1   0.2500  0.1952  0.8750  10.50000  0.05    0.79 
;
_shelx_res_checksum              1364
_shelx_hkl_file
; 
   1   0   0    0.74    0.14 
  -1   0   0    0.93    0.15 
   1  -1   0  738.03   41.14 
  -1   1   0  836.09   41.22 
  -1   2   0    0.60    0.21 
   1  -2   0    0.38    0.10 
   2   1   0    0.51    0.20 
  -2  -1   0    0.51    0.09 
   0   2   0  370.06   19.62 
   2   0   0  378.12   19.85 
  -2   0   0  381.03   19.80 
   2  -1   0    0.57    0.21 
  -2   1   0    0.57    0.21 
   2   2   0 1000.00   48.77 
  -2   2   0  927.18   33.80 
   2  -2   0  919.90   37.45 
  -2   2   0  904.40   49.14 
   3   2   0    0.22    0.16 
  -2   3   0    0.31    0.10 
  -2   3   0    0.15    0.18 
   2  -3   0    0.08    0.08 
   3   2   0    0.11    0.07 
  -3  -1   0  413.55   15.56 
   3   1   0  433.26   20.30 
  -1   3   0  356.82   13.96 
  -1   3   0  373.48   20.24 
   1  -3   0  384.63   15.50 
   3   1   0  369.89   13.99 
   3   0   0    0.19    0.16 
   0   3   0    0.07    0.10 
   3   0   0    0.09    0.07 
  -3   1   0  415.93   22.09 
   3  -1   0  452.13   22.20 
  -3   1   0  436.83   15.34 
   3  -1   0  389.20   15.36 
  -3   2   0    0.20    0.18 
   3  -2   0    0.14    0.09 
  -3   2   0    0.11    0.09 
   3  -2   0    0.20    0.10 
   3   3   0  295.73   11.60 
   3   3   0  355.30   16.91 
   3  -3   0  319.87   11.66 
  -3   3   0  324.80   11.68 
  -3   3   0  295.97   17.01 
  -3  -3   0  339.83    9.21 
   3  -3   0  338.42   13.03 
  -3   4   0    0.15    0.25 
   3  -4   0    0.18    0.11 
   3  -4   0    0.31    0.10 
  -4  -3   0    0.44    0.08 
  -3   4   0    0.14    0.13 
   4   3   0    0.37    0.23 
   4   3   0    0.26    0.09 
   4   2   0  237.05    8.62 
   2  -4   0  240.54    9.57 
  -4  -2   0  233.65    9.56 
   2  -4   0  251.77   11.23 
   4   2   0  261.45   12.66 
  -2   4   0  234.50    8.65 
  -4  -2   0  238.96    9.50 
  -2   4   0  215.46   12.62 
  -4  -2   0  240.77    6.82 
  -1   4   0    0.14    0.10 
   4   1   0    0.34    0.22 
  -4  -1   0    0.26    0.09 
   4   1   0    0.26    0.10 
  -1   4   0    0.13    0.19 
  -4  -1   0    0.19    0.09 
  -4   0   0  655.35   24.60 
   4   0   0  609.27   22.35 
  -4   0   0  581.79   22.19 
   0   4   0  597.76   31.95 
   0   4   0  549.31   22.03 
   4   0   0  703.17   32.24 
  -4   1   0    0.22    0.18 
   4  -1   0    0.15    0.19 
   4  -1   0    0.43    0.11 
  -4   1   0    0.20    0.10 
  -4   2   0  246.72    9.00 
   4  -2   0  256.45    9.97 
   4  -2   0  243.84    9.01 
  -4   3   0    0.22    0.12 
   4  -3   0    0.19    0.11 
   3   4   0    0.19    0.16 
   4  -3   0    0.17    0.12 
   4   4   0  274.34   10.80 
  -4  -4   0  305.26    8.54 
   4  -4   0  302.98   10.89 
   4  -4   0  297.22   12.03 
  -4   4   0  304.05   10.92 
   4   4   0  324.74   15.82 
  -5  -4   0    0.30    0.09 
   5   4   0    0.25    0.10 
   4  -5   0    0.17    0.12 
  -4   5   0    0.22    0.17 
   5   4   0    0.28    0.30 
  -3   5   0  179.20    6.98 
   5   3   0  177.76    6.91 
   5   3   0  219.66   10.30 
  -5  -3   0  192.17    5.47 
   3  -5   0  192.26    9.00 
   3  -5   0  196.22    7.64 
  -3   5   0  180.59   10.29 
   5   2   0    0.24    0.11 
   2  -5   0    0.16    0.10 
  -2   5   0    0.19    0.13 
  -5  -2   0    0.21    0.09 
   5   2   0    0.40    0.27 
  -2   5   0    0.13    0.25 
  -1   5   0  232.32   13.34 
  -1   5   0  235.25    9.13 
  -5  -1   0  280.03   10.10 
   5   1   0  256.10    9.16 
  -5  -1   0  262.22    7.24 
   0   5   0    0.39    0.11 
  -5   0   0    0.57    0.12 
   5   0   0    0.36    0.12 
   0   5   0    0.33    0.22 
  -5   1   0  262.18    9.58 
   5  -1   0  268.31    9.61 
   5  -2   0    0.12    0.11 
  -5   2   0    0.26    0.12 
   5  -3   0  199.17    7.42 
  -5   3   0  207.95    7.43 
  -4  -5   0    0.80    0.08 
   4   5   0    0.48    0.24 
   5  -4   0    0.63    0.17 
  -5   4   0    0.25    0.17 
   5  -4   0    0.74    0.17 
   5   5   0  131.85    6.70 
   5  -5   0  121.43    5.02 
  -5   5   0  121.31    4.62 
  -5  -5   0  116.99    3.53 
   5  -6   0    0.02    0.13 
  -5   6   0    0.02    0.20 
  -4   6   0  114.01    4.09 
   6   4   0   98.86    3.94 
   4  -6   0  109.43    4.36 
   6   3   0    0.30    0.13 
  -3   6   0    0.09    0.17 
   3  -6   0    0.25    0.09 
   3  -6   0    0.28    0.15 
  -2   6   0  227.23    8.33 
   2  -6   0  234.59   10.74 
  -6  -2   0  249.75    9.12 
  -2   6   0  212.74   12.25 
   6   2   0  217.73    8.30 
  -6  -2   0  231.61    9.12 
  -1   6   0    0.28    0.29 
  -1   6   0    0.14    0.13 
   6   1   0    0.28    0.13 
   0   6   0  156.28    5.53 
   0   6   0  142.74    8.13 
   6   0   0  158.26    5.61 
   6  -1   0    0.27    0.13 
   1   6   0    0.29    0.19 
  -6   1   0    0.25    0.12 
   6  -2   0  237.11    8.61 
  -6   2   0  235.04    8.58 
  -6   3   0    0.10    0.15 
   6  -3   0    0.12    0.14 
  -6   4   0  105.73    4.11 
   6  -4   0  112.01    4.10 
   5   6   0    0.23    0.26 
  -6   5   0   -0.04    0.19 
   6  -5   0   -0.02    0.16 
   6   6   0   80.55    4.46 
   6  -6   0   76.09    3.29 
  -6   6   0   78.29    3.11 
   6  -7   0    0.27    0.18 
   6  -7   0   -0.13    0.15 
  -6   7   0   -0.23    0.24 
   5  -7   0   53.97    2.39 
  -5   7   0   61.40    2.40 
  -4   7   0    0.02    0.20 
   7   4   0    0.20    0.14 
   4  -7   0    0.14    0.09 
   7   3   0   96.78    3.73 
  -3   7   0  103.14    3.81 
  -2   7   0    0.12    0.17 
   7   2   0    0.11    0.14 
  -2   7   0   -0.18    0.33 
  -7  -2   0    0.27    0.10 
   2  -7   0    0.04    0.14 
   7   1   0  116.38    4.04 
  -1   7   0  105.70    3.98 
  -1   7   0  100.30    5.97 
   1  -7   0  107.27    5.07 
   7   0   0    0.20    0.14 
   0   7   0    0.03    0.25 
  -7   1   0  113.61    4.06 
   7  -1   0  111.77    4.09 
   1   7   0  100.86    5.84 
  -7   2   0    0.39    0.17 
   7  -2   0    0.23    0.17 
  -7   3   0   98.65    3.81 
   7  -3   0  102.69    3.83 
  -7   4   0    0.08    0.19 
   7  -4   0    0.10    0.17 
  -7   5   0   60.20    2.46 
  -7   6   0   -0.01    0.25 
   7  -6   0   -0.04    0.19 
   7  -7   0   43.67    1.97 
  -7   7   0   46.81    1.98 
   7  -7   0   43.01    1.50 
  -6   8   0   47.21    2.02 
   6  -8   0   44.11    1.53 
   5  -8   0    0.05    0.18 
  -5   8   0   -0.05    0.25 
  -4   8   0   65.98    2.66 
  -3   8   0   -0.01    0.20 
   8   3   0    0.13    0.16 
   2  -8   0   70.55    3.50 
   8   2   0   75.31    2.79 
  -2   8   0   70.56    2.78 
   8   1   0    0.17    0.17 
  -1   8   0   -0.23    0.35 
   1  -8   0    0.06    0.12 
   0   8   0   96.77    5.60 
   8   0   0  104.14    3.83 
   1   8   0   -0.05    0.25 
   8  -1   0    0.09    0.17 
   8  -2   0   78.42    3.06 
  -8   3   0    0.04    0.18 
   8  -3   0    0.07    0.18 
  -8   4   0   70.00    2.82 
   8  -4   0   71.27    2.81 
  -8   5   0    0.03    0.24 
  -8   6   0   44.17    1.94 
   5  -9   0   37.84    1.31 
  -5   9   0   36.87    1.70 
   4  -9   0    0.05    0.20 
  -4   9   0   -0.04    0.24 
   9   4   0    0.14    0.18 
  -3   9   0   38.85    1.69 
   3  -9   0   41.62    1.34 
   9   2   0   -0.01    0.17 
   2  -9   0    0.07    0.16 
   2  -9   0   -0.03    0.16 
   9   1   0   56.10    2.22 
   1  -9   0   55.43    1.68 
   1  -9   0   49.35    2.68 
  -9  -1   0   57.96    2.31 
   9   0   0    0.12    0.19 
   0  -9   0   -0.03    0.13 
   9  -1   0   54.84    2.24 
   9  -2   0    0.13    0.19 
   9  -3   0   44.59    1.90 
   9  -4   0   -0.05    0.21 
  -9   4   0   -0.01    0.22 
  -9   5   0   37.46    1.69 
  10   3   0    0.20    0.20 
   3 -10   0   -0.11    0.20 
   2 -10   0   41.37    1.35 
   1 -10   0   -0.10    0.15 
  10   1   0    0.14    0.20 
   1 -10   0   -0.04    0.16 
   0 -10   0   35.24    1.88 
  10   0   0   39.96    1.65 
  10  -1   0   -0.01    0.21 
  10  -2   0   41.54    1.80 
  10  -3   0   -0.04    0.21 
  -1   0  -1  744.68   36.14 
   0   1  -1  647.25   35.98 
   1   0  -1  768.38   36.15 
   0   1  -1  651.57   35.97 
   0   1   1  601.48   35.89 
   0  -1   1  625.56   35.89 
   1   0   1  732.14   36.14 
  -1   0   1  759.61   36.11 
   1   1  -1    4.02    0.32 
   1  -1  -1    4.15    0.35 
  -1   1  -1    3.40    0.37 
   1   1  -1    5.02    0.35 
   1  -1  -1    4.51    0.24 
   1   1   1    4.36    0.32 
  -1   1   1    4.65    0.37 
   1  -1   1    3.27    0.35 
  -1  -1   1    4.05    0.22 
  -1  -1   1    4.08    0.22 
  -1   2  -1  354.68   19.76 
   2   1  -1  390.54   19.78 
   1  -2  -1  379.61   15.12 
  -2  -1  -1  383.63   15.08 
   2   1   1  409.47   19.79 
  -2  -1   1  365.76   15.11 
  -1   2   1  367.03   19.82 
  -2  -1   1  388.76   15.08 
   1  -2   1  361.68   15.11 
  -2   0  -1    5.65    0.41 
   2   0  -1    4.58    0.41 
   0   2  -1    3.80    0.35 
  -2   0   1    4.31    0.38 
   2   0   1    4.93    0.42 
   0   2   1    5.01    0.34 
  -2   1  -1  369.31   21.04 
   2  -1  -1  413.14   21.07 
   2  -1   1  411.25   21.04 
  -2   1   1  409.25   21.08 
   2   2  -1   55.61    2.80 
   2  -2  -1   54.08    2.13 
  -2   2  -1   53.44    1.94 
   2   2  -1   50.59    2.79 
  -2   2  -1   46.51    2.86 
  -2   2   1   47.56    1.93 
   2  -2   1   51.86    2.13 
  -2   2   1   50.92    2.87 
   2   2   1   56.15    2.78 
  -2   3  -1  370.65   20.76 
   2  -3  -1  402.41   15.93 
  -2   3  -1  371.46   14.38 
   3   2  -1  425.45   20.72 
   3   2  -1  393.57   14.27 
  -3  -2  -1  409.80   11.32 
  -3  -2   1  414.00   11.34 
  -2   3   1  381.06   14.30 
  -2   3   1  377.23   20.74 
   3   2   1  441.94   20.71 
   3   2   1  371.45   14.22 
   2  -3   1  409.67   15.93 
  -1   3  -1    4.43    0.27 
   3   1  -1    4.43    0.47 
   1  -3  -1    4.77    0.23 
  -1   3  -1    4.00    0.44 
   3   1  -1    4.09    0.26 
   3   1   1    5.06    0.47 
  -1   3   1    4.15    0.42 
   3   1   1    5.04    0.28 
   1  -3   1    4.58    0.24 
   1  -3   1    5.49    0.27 
  -1   3   1    4.62    0.27 
  -3  -1   1    4.15    0.26 
   3   0  -1  271.18   13.52 
   0   3  -1  227.83   13.41 
   3   0  -1  262.33    9.33 
   3   0   1  245.25    9.29 
   3   0   1  285.70   13.54 
   0   3   1  254.01   13.39 
  -3   1  -1    5.12    0.48 
   3  -1  -1    4.67    0.29 
   3  -1  -1    4.96    0.48 
  -3   1  -1    5.07    0.29 
   3  -1   1    4.45    0.28 
  -3   1   1    4.30    0.27 
  -3   1   1    4.38    0.45 
   3  -1   1    5.05    0.48 
  -3   2  -1  408.20   14.98 
   3  -2  -1  444.55   16.61 
  -3   2  -1  391.29   21.56 
   3  -2  -1  400.05   14.95 
  -3   2   1  434.65   14.95 
   3  -2   1  390.99   14.94 
   3  -2   1  428.77   16.54 
  -3   2   1  405.70   21.56 
   3   3  -1    1.53    0.32 
   3  -3  -1    1.91    0.22 
  -3   3  -1    2.12    0.43 
   3  -3  -1    2.08    0.21 
  -3   3  -1    2.11    0.27 
   3   3  -1    1.91    0.17 
  -3   3   1    1.52    0.25 
   3   3   1    2.28    0.33 
  -3  -3   1    2.25    0.13 
  -3   3   1    1.68    0.39 
   3   3   1    1.78    0.17 
   3  -3   1    2.24    0.23 
   3  -3   1    1.97    0.21 
  -3   4  -1  169.15    6.58 
   3  -4  -1  181.71    8.50 
  -3   4  -1  168.88    9.67 
   4   3  -1  173.51    6.52 
  -4  -3  -1  185.98    5.16 
   4   3  -1  194.98    9.63 
   3  -4  -1  184.13    7.24 
  -4  -3   1  190.82    5.16 
   3  -4   1  180.12    6.55 
  -3   4   1  181.81    6.59 
   3  -4   1  183.81    7.24 
  -3   4   1  181.16    9.69 
   4   3   1  168.21    6.52 
   3  -4   1  186.26    8.51 
  -2   4  -1    1.91    0.44 
   4   2  -1    1.69    0.22 
   4   2  -1    1.71    0.42 
   2  -4  -1    2.24    0.23 
  -2   4  -1    1.77    0.26 
  -4  -2  -1    2.47    0.18 
   2  -4  -1    2.20    0.18 
  -4  -2   1    1.70    0.17 
  -2   4   1    1.49    0.26 
  -4  -2   1    1.91    0.15 
   2  -4   1    2.16    0.19 
   4   2   1    2.03    0.22 
  -4  -2   1    1.89    0.16 
   4   2   1    2.60    0.47 
   2  -4   1    2.40    0.23 
  -2   4   1    1.57    0.39 
  -4  -1  -1  334.74   12.60 
   4   1  -1  311.43   11.34 
   4   1  -1  359.79   16.62 
  -1   4  -1  279.26   16.50 
  -1   4  -1  291.02   11.33 
  -4  -1   1  327.97    9.02 
  -4  -1   1  308.62   12.53 
   4   1   1  362.39   16.62 
   4   1   1  298.55   11.34 
   1  -4   1  301.60   12.54 
  -1   4   1  304.23   16.49 
   1  -4   1  306.97   12.54 
  -1   4   1  315.17   11.33 
   0   4  -1   19.14    0.83 
   4   0  -1   20.60    0.89 
  -4   0  -1   22.41    0.86 
   4   0  -1   22.64    1.41 
   4   0   1   23.89    1.43 
  -4   0   1   21.52    0.95 
   0   4   1   22.01    1.24 
  -4   0   1   20.58    0.70 
  -4   0   1   19.14    0.85 
   4   0   1   22.22    0.89 
   4  -1  -1  319.94   11.70 
  -4   1  -1  327.54   16.91 
   1   4  -1  318.92   16.72 
  -4   1  -1  315.76   11.69 
  -4   1   1  330.41   11.65 
  -4   1   1  332.47   16.91 
   4  -1   1  310.30   11.60 
   4  -2  -1    2.28    0.26 
   4  -2  -1    2.11    0.26 
  -4   2  -1    2.43    0.25 
   4  -2   1    2.23    0.26 
  -4   2   1    1.90    0.24 
   4  -2   1    1.86    0.25 
   4  -3  -1  198.53    7.04 
   3   4  -1  183.87    6.93 
  -4   3  -1  187.30    7.03 
   3   4  -1  197.54   10.13 
   4  -3  -1  197.71    7.76 
   3   4   1  188.84   10.08 
   4  -3   1  199.21    7.78 
   4  -3   1  185.74    7.02 
  -4   3   1  200.95    7.05 
   4  -4  -1    4.80    0.34 
  -4  -4  -1    5.64    0.22 
   4  -4  -1    5.24    0.35 
  -4   4  -1    5.22    0.39 
   4   4  -1    3.69    0.54 
   4  -4   1    4.63    0.34 
   4   4   1    4.33    0.27 
  -4   4   1    3.61    0.38 
   4  -4   1    4.96    0.36 
  -4  -4   1    4.50    0.21 
   4   4   1    5.18    0.57 
   4  -5  -1  177.15    7.33 
   5   4  -1  171.11    6.60 
  -4   5  -1  175.54    6.71 
   5   4  -1  195.89    9.81 
  -4   5   1  175.39    6.70 
   5   4   1  204.17    9.81 
  -5  -4   1  182.29    5.22 
   4  -5   1  178.16    7.34 
   5   3  -1    0.37    0.11 
  -3   5  -1    0.38    0.16 
   3  -5  -1    0.37    0.13 
   3  -5  -1    0.45    0.11 
   5   3  -1    0.43    0.27 
  -3   5  -1    0.56    0.32 
  -3   5   1    0.34    0.16 
   5   3   1    0.43    0.11 
   3  -5   1    0.34    0.13 
  -3   5   1    0.20    0.28 
   3  -5   1    0.35    0.11 
   5   3   1    0.42    0.28 
  -5  -3   1    0.46    0.10 
   5   2  -1  156.01    5.72 
  -2   5  -1  148.48    5.74 
  -2   5  -1  136.52    8.44 
   5   2  -1  174.68    8.53 
  -5  -2  -1  164.72    6.25 
   2  -5  -1  155.41    6.24 
   2  -5  -1  157.70    7.38 
  -2   5   1  154.12    5.74 
   2  -5   1  158.21    6.25 
  -5  -2   1  154.54    6.26 
  -2   5   1  142.15    8.42 
   5   2   1  150.02    5.71 
  -5  -2   1  165.16    6.26 
   5   2   1  180.45    8.52 
  -5  -2   1  153.79    4.51 
   2  -5   1  159.55    7.38 
  -1   5  -1    0.44    0.27 
   5   1  -1    0.63    0.13 
  -1   5  -1    0.74    0.14 
   5   1   1    0.85    0.14 
  -1   5   1    0.40    0.13 
  -1   5   1    0.68    0.27 
  -5  -1   1    0.53    0.12 
  -5  -1   1    0.68    0.12 
   0   5  -1  287.45   10.41 
  -5   0  -1  301.15   10.44 
   0   5  -1  254.70   15.18 
   5   0  -1  296.66   10.48 
  -5   0   1  308.35    8.29 
   5   0   1  298.16   10.48 
  -5   0   1  290.85   10.44 
   0   5   1  284.85   15.15 
   0   5   1  288.10   10.41 
   1   5  -1    0.51    0.19 
   5  -1  -1    0.65    0.14 
   5  -1   1    0.68    0.14 
  -5   1   1    0.38    0.12 
   5  -2  -1  164.18    5.93 
  -5   2  -1  159.01    5.91 
  -5   2   1  161.63    5.91 
   5  -2   1  161.88    5.92 
   5  -3  -1    0.35    0.13 
  -5   3  -1    0.54    0.16 
   3   5  -1    0.42    0.16 
  -5   3   1    0.20    0.13 
   5  -3   1    0.31    0.13 
  -5   4  -1  184.38    6.74 
   5  -4  -1  178.33    7.39 
   4   5  -1  186.50    9.69 
   5  -4  -1  185.96    6.71 
  -5   4   1  178.63    6.73 
   4   5   1  192.59    9.67 
   5  -4   1  173.57    7.40 
  -4  -5   1  183.87    5.21 
   5  -4   1  184.29    6.71 
  -5   5  -1    1.29    0.24 
   5  -5  -1    0.88    0.17 
   5   5  -1    0.84    0.32 
  -5  -5   1    0.79    0.10 
   5   5   1    0.99    0.37 
  -5   5   1    0.61    0.20 
   5  -5   1    0.88    0.18 
   5  -6  -1   65.50    2.77 
  -5   6  -1   69.08    2.66 
  -5   6   1   67.29    2.64 
  -6  -5   1   64.30    1.96 
   5  -6   1   65.21    2.78 
  -4   6  -1    1.84    0.27 
   4  -6  -1    1.62    0.22 
   6   4  -1    1.11    0.17 
  -6  -4   1    1.13    0.14 
   6   4   1    1.43    0.24 
   4  -6   1    1.45    0.22 
  -4   6   1    0.98    0.24 
   3  -6  -1  146.40    7.03 
   3  -6  -1  150.70    5.93 
   6   3  -1  144.39    5.43 
  -3   6  -1  147.13    5.50 
   3  -6   1  149.25    7.04 
   6   3   1  141.91    5.42 
  -6  -3   1  148.24    4.29 
   3  -6   1  152.40    5.94 
  -3   6   1  155.56    5.51 
   6   2  -1    3.57    0.33 
   2  -6  -1    4.07    0.32 
  -2   6  -1    3.55    0.37 
  -2   6  -1    3.20    0.64 
   2  -6   1    3.54    0.33 
  -6  -2   1    3.55    0.25 
   6   2   1    3.65    0.32 
  -2   6   1    2.77    0.35 
  -6  -2   1    3.01    0.26 
  -2   6   1    2.85    0.59 
  -6  -2   1    3.12    0.24 
   6   1  -1  154.20    5.32 
  -1   6  -1  126.69    7.79 
  -1   6  -1  147.58    5.28 
  -1   6   1  139.64    7.78 
  -1   6   1  143.04    5.27 
  -6  -1   1  151.80    4.19 
   6   1   1  146.95    5.30 
   0   6  -1    1.44    0.21 
   0   6  -1    1.12    0.33 
   6   0  -1    1.84    0.28 
   6   0   1    1.76    0.27 
   0   6   1    1.39    0.23 
   0   6   1    1.43    0.32 
   6  -1  -1  147.22    5.55 
   1   6  -1  147.00    7.99 
  -6   1  -1  149.97    5.52 
  -1  -6   1  159.35    4.29 
  -6   1   1  160.17    5.53 
   1   6   1  142.66    7.93 
   6  -1   1  147.60    5.54 
   6  -2  -1    3.49    0.34 
   6  -2   1    3.83    0.37 
  -6   2   1    3.30    0.35 
  -6   3  -1  153.57    5.70 
   6  -3  -1  154.95    5.71 
   6  -3   1  155.85    5.71 
  -6   3   1  153.06    5.70 
   6  -4  -1    1.48    0.22 
   4   6  -1    1.52    0.35 
   6  -4   1    1.41    0.23 
  -6   4   1    1.17    0.23 
   5   6  -1   71.25    3.75 
   6  -5  -1   63.72    2.81 
  -6   5  -1   61.29    2.62 
   6  -5   1   64.91    2.04 
  -5  -6   1   64.63    1.92 
   6  -5   1   65.18    2.82 
   5   6   1   68.31    3.71 
  -6   5   1   69.63    2.64 
  -6   6  -1    2.21    0.34 
   6  -6  -1    1.80    0.30 
   6  -6   1    1.79    0.23 
  -6   6   1    0.94    0.28 
   6  -6   1    1.35    0.23 
   6   6   1    1.65    0.47 
  -6   7  -1   62.12    2.58 
   6  -7  -1   61.31    2.63 
   6  -7   1   61.04    2.64 
  -6   7   1   64.69    2.58 
   6  -7   1   62.47    1.99 
   5  -7  -1    0.18    0.13 
  -5   7  -1    0.62    0.26 
  -5   7   1   -0.04    0.22 
   5  -7   1    0.18    0.13 
   5  -7   1    0.50    0.18 
  -4   7  -1   62.58    2.44 
   4  -7   1   60.19    2.45 
   4  -7   1   56.94    2.44 
  -4   7   1   60.71    2.42 
   7   3  -1    0.41    0.16 
  -3   7  -1    0.58    0.22 
  -3   7   1    0.29    0.20 
   7   3   1    0.90    0.18 
  -2   7  -1  112.55    7.19 
  -7  -2  -1  143.88    5.18 
   2  -7  -1  124.90    6.13 
   7   2  -1  131.66    4.80 
  -7  -2  -1  128.99    5.18 
  -2   7  -1  127.64    4.80 
  -2   7   1  120.76    7.19 
   7   2   1  129.97    4.79 
  -7  -2   1  129.78    5.19 
   2  -7   1  131.16    6.15 
  -2   7   1  121.78    4.79 
  -7  -2   1  148.16    5.20 
   7   1  -1    0.58    0.17 
  -1   7  -1    0.81    0.39 
  -1   7  -1    0.48    0.16 
  -1   7   1    0.28    0.33 
   7   1   1    0.71    0.17 
   1  -7   1    0.64    0.13 
  -1   7   1    0.40    0.16 
   7   0  -1   86.07    3.12 
   0   7  -1   78.99    4.58 
   0   7   1   74.29    4.52 
   7   0   1   85.07    3.12 
   0  -7   1   82.93    2.38 
   1   7  -1    0.70    0.27 
   7  -1  -1    0.56    0.18 
  -1  -7   1    0.78    0.10 
   1   7   1    0.44    0.25 
   7  -1   1    0.82    0.20 
   7  -2  -1  131.72    5.00 
  -7   2  -1  132.88    4.98 
  -7   2   1  135.16    4.98 
   7  -2   1  136.81    5.01 
  -7   3  -1    0.91    0.21 
   7  -3  -1    0.45    0.19 
  -7   3   1    0.23    0.18 
   7  -3   1    0.61    0.20 
   7  -4  -1   62.64    2.51 
  -7   4  -1   62.88    2.53 
  -7   4   1   63.96    2.53 
   7  -4   1   63.72    2.52 
  -7   5  -1    0.54    0.24 
  -7   5   1    0.09    0.22 
   7  -6  -1   61.50    2.68 
  -7   6  -1   62.02    2.56 
   7  -6   1   59.97    2.69 
  -7   6   1   64.38    2.56 
  -7   7  -1    0.49    0.29 
   7  -7  -1    0.26    0.20 
  -7   7   1   -0.29    0.24 
   7  -7   1    0.09    0.18 
   6  -8  -1    0.55    0.21 
  -6   8  -1    1.25    0.33 
  -6   8   1   -0.01    0.26 
   6  -8   1    0.23    0.22 
  -5   8  -1   56.43    2.36 
  -5   8   1   55.44    2.34 
   5  -8   1   56.29    1.82 
  -4   8  -1    1.36    0.30 
   8   4  -1    0.88    0.19 
   4  -8   1    1.02    0.21 
  -4   8   1    0.55    0.27 
   8   4   1    1.27    0.22 
  -3   8  -1   55.68    2.28 
   8   3  -1   56.98    2.23 
   8   3   1   55.95    2.22 
   3  -8   1   56.60    1.78 
  -3   8   1   57.83    2.29 
  -2   8  -1    1.28    0.22 
   2  -8  -1    0.93    0.20 
   8   2  -1    0.80    0.20 
   8   2   1    1.02    0.21 
   2  -8   1    0.76    0.19 
  -2   8   1    0.68    0.21 
   2  -8   1    1.02    0.18 
  -1   8  -1   71.30    4.49 
   1  -8  -1   75.21    3.68 
   8   1  -1   79.24    2.98 
  -8  -1   1   80.12    3.20 
   1  -8   1   80.62    2.30 
   8   1   1   82.66    2.98 
  -1   8   1   71.71    4.46 
   1  -8   1   74.12    3.69 
   8   0  -1    2.40    0.35 
   0   8  -1    2.35    0.56 
   8   0   1    2.53    0.36 
   0   8   1    1.73    0.46 
   0  -8   1    2.56    0.22 
   8  -1  -1   80.44    3.15 
   8  -1   1   82.15    3.15 
   8  -2  -1    0.95    0.22 
   8  -2   1    0.94    0.23 
  -8   2   1    0.67    0.20 
  -8   3  -1   57.98    2.38 
   8  -3  -1   60.42    2.41 
   8  -3   1   59.84    2.41 
  -8   3   1   60.58    2.39 
  -8   4  -1    1.76    0.30 
   8  -4  -1    1.17    0.25 
   8  -4   1    0.99    0.25 
  -8   4   1    0.71    0.25 
  -8   5  -1   57.37    2.39 
  -8   5   1   57.68    2.39 
  -8   6  -1    1.12    0.32 
  -8   6   1    0.19    0.26 
  -5   9  -1    0.20    0.27 
   5  -9  -1    0.21    0.21 
  -5   9   1   -0.08    0.25 
   5  -9   1    0.02    0.21 
  -4   9  -1   48.04    2.02 
   4  -9   1   49.90    1.58 
  -4   9   1   44.63    1.99 
  -3   9  -1    0.29    0.21 
   9   3  -1    0.29    0.19 
   9   3   1    0.26    0.20 
   3  -9   1    0.17    0.19 
  -3   9   1   -0.09    0.20 
   9   2  -1   41.38    1.67 
   2  -9   1   36.60    2.01 
   9   2   1   40.71    1.66 
   2  -9   1   38.82    1.28 
   9   1  -1    0.30    0.19 
  -9  -1  -1    0.52    0.16 
   1  -9  -1    0.19    0.15 
   1  -9   1    0.14    0.15 
   1  -9   1    0.47    0.16 
   9   1   1    0.33    0.20 
  -9  -1   1    0.07    0.14 
   0  -9  -1   64.08    1.93 
   9   0  -1   66.44    2.60 
   0  -9   1   64.64    1.93 
   9   0   1   64.89    2.59 
   9  -1  -1    0.34    0.20 
   9  -1   1    0.27    0.21 
   9  -2  -1   39.87    1.75 
   9  -2   1   42.20    1.77 
   9  -3  -1    0.21    0.21 
   9  -3   1    0.08    0.21 
   9  -4  -1   51.26    2.14 
  -9   4  -1   50.75    2.15 
   9  -4   1   51.49    2.15 
  -9   4   1   51.19    2.15 
  -9   5  -1    0.54    0.27 
  -9   5   1    0.02    0.24 
  10   3  -1   34.44    1.50 
   3 -10  -1   34.40    1.19 
  10   3   1   34.24    1.49 
   3 -10   1   34.33    1.19 
  10   2  -1    0.46    0.22 
   2 -10  -1    0.49    0.19 
   2 -10   1    0.56    0.19 
  10   2   1    0.56    0.23 
   1 -10  -1   28.95    1.69 
  10   1  -1   35.18    1.48 
   1 -10  -1   34.46    1.08 
   1 -10   1   34.40    1.08 
  10   1   1   35.63    1.48 
   1 -10   1   29.51    1.70 
   0 -10  -1    0.38    0.13 
  10   0  -1    0.49    0.23 
   0 -10   1    0.41    0.14 
   0 -10   1    0.37    0.16 
  10   0   1    0.57    0.23 
  10  -1  -1   35.58    1.58 
  10  -1   1   35.17    1.57 
  10  -2  -1    0.50    0.23 
  10  -2   1    0.53    0.24 
  10  -3  -1   35.86    1.62 
  10  -3   1   36.39    1.62 
   0   0  -2  714.57   37.37 
   0   0  -2  732.00   37.46 
   0   0   2  696.67   37.34 
   0   1  -2   23.09    1.35 
  -1   0  -2   26.08    1.37 
   0   1  -2   21.61    1.35 
   0  -1  -2   24.15    0.99 
   1   0   2   24.92    1.37 
   0  -1   2   21.85    0.99 
   0  -1   2   23.01    1.33 
  -1   0   2   25.17    1.38 
   0   1   2   23.88    1.34 
  -1   0   2   23.94    1.34 
  -1   1  -2  515.00   27.71 
  -1  -1  -2  498.29   20.93 
   1  -1  -2  573.54   27.74 
   1   1  -2  539.40   27.67 
   1   1  -2  563.56   27.60 
   1   1   2  529.18   27.56 
  -1   1   2  562.55   27.68 
  -1  -1   2  520.31   20.95 
   1  -1   2  489.96   27.63 
  -1  -1   2  466.64   20.96 
  -1   2  -2   35.39    2.14 
   1  -2  -2   39.50    1.56 
  -2  -1  -2   39.68    1.55 
   2   1  -2   36.92    2.11 
  -2  -1   2   36.27    1.56 
  -2  -1   2   37.68    1.56 
  -1   2   2   37.08    2.10 
   1  -2   2   36.49    1.57 
   2   1   2   43.14    2.13 
  -2   0  -2  129.33    6.40 
   2   0  -2  123.37    6.39 
   0   2  -2  114.14    6.36 
   2   0   2  128.76    6.42 
   0  -2   2  110.98    4.81 
   0   2   2  120.56    6.33 
   0  -2   2  114.64    4.84 
  -2   0   2  123.14    6.38 
   2  -1  -2   40.22    1.59 
   1   2  -2   38.08    2.10 
  -2   1  -2   37.12    2.15 
   1   2  -2   36.69    2.07 
   2  -1  -2   39.75    2.14 
  -2   1   2   39.07    2.15 
   2  -1   2   36.92    2.15 
  -2   2  -2  480.21   28.04 
   2   2  -2  565.98   28.16 
  -2   2  -2  504.02   19.49 
   2  -2  -2  561.10   21.56 
   2   2  -2  543.02   28.09 
   2  -2   2  527.33   21.56 
  -2   2   2  524.36   19.48 
   2   2   2  578.75   28.08 
  -2   2   2  554.41   28.17 
   3   2  -2   39.59    2.30 
   3   2  -2   40.22    1.52 
  -2   3  -2   38.58    1.56 
  -2   3  -2   38.59    2.36 
   2  -3  -2   42.69    1.68 
   3   2   2   39.77    1.52 
  -3  -2   2   39.73    1.65 
  -3  -2   2   40.13    1.20 
   2  -3   2   41.78    1.70 
  -2   3   2   40.36    2.33 
  -3  -2   2   39.50    1.64 
   3   2   2   45.67    2.30 
  -2   3   2   41.94    1.56 
   3   1  -2  380.92   19.18 
   3   1  -2  384.78   13.29 
  -3  -1  -2  376.02   14.71 
   1  -3  -2  374.64   17.16 
  -1   3  -2  313.77   19.15 
   1  -3  -2  370.10   14.68 
  -1   3  -2  323.19   13.23 
   1  -3   2  364.60   14.66 
   3   1   2  338.37   13.19 
  -1   3   2  363.57   13.19 
  -3  -1   2  383.26   14.64 
   3   1   2  424.84   19.21 
  -3  -1   2  371.14   14.76 
  -1   3   2  352.71   19.12 
  -3  -1   2  384.95   10.53 
   1  -3   2  367.29   17.22 
   0   3  -2   17.03    1.16 
   3   0  -2   19.19    1.21 
   3   0  -2   19.14    0.79 
   3   0   2   21.84    1.25 
   0   3   2   20.17    1.12 
   3   0   2   19.29    0.79 
  -3   1  -2  370.40   13.72 
   3  -1  -2  381.31   13.79 
   1   3  -2  373.20   19.71 
   3  -1  -2  392.58   15.22 
   3  -1  -2  400.70   19.78 
  -3   1  -2  359.54   19.76 
   1   3  -2  351.56   19.66 
  -3   1   2  387.37   19.77 
   3  -1   2  397.01   19.80 
  -3   1   2  396.01   13.68 
   3  -1   2  354.04   13.65 
  -3   2  -2   45.22    2.50 
  -3   2  -2   41.94    1.63 
   2   3  -2   40.64    2.32 
   2   3  -2   46.24    2.37 
   3  -2  -2   41.93    1.64 
   3  -2  -2   43.06    1.79 
  -2  -3   2   39.91    1.24 
  -3   2   2   42.34    1.63 
  -3   2   2   40.28    2.45 
   3  -2   2   46.62    1.82 
   3  -2   2   42.08    1.63 
   3  -3  -2  280.01    9.80 
   3   3  -2  268.01    9.73 
  -3   3  -2  257.84    9.80 
   3  -3  -2  282.05   10.89 
   3   3  -2  281.23   14.20 
  -3   3  -2  258.70   14.34 
  -3  -3   2  273.44    7.73 
   3  -3   2  262.15    9.78 
   3   3   2  282.96   14.17 
   3  -3   2  264.46   10.83 
  -3   3   2  271.29    9.79 
  -3   3   2  274.15   14.32 
  -3   4  -2    3.34    0.55 
   4   3  -2    2.92    0.25 
   3  -4  -2    3.29    0.33 
   3  -4  -2    3.41    0.25 
   4   3  -2    2.60    0.49 
   4   3   2    2.94    0.24 
  -3   4   2    2.80    0.32 
   3  -4   2    3.05    0.25 
   4   3   2    3.29    0.47 
  -4  -3   2    3.04    0.19 
  -3   4   2    2.64    0.50 
   3  -4   2    2.96    0.26 
   2  -4  -2  135.88    5.45 
  -2   4  -2  114.53    7.32 
  -2   4  -2  133.54    4.99 
  -4  -2  -2  141.51    5.43 
   2  -4  -2  134.92    6.41 
   4   2  -2  145.90    7.35 
   4   2  -2  137.76    4.96 
  -4  -2   2  141.67    5.45 
  -2   4   2  125.52    7.31 
  -2   4   2  131.82    4.98 
   4   2   2  154.81    7.35 
   4   2   2  129.16    4.95 
  -4  -2   2  139.26    5.44 
  -4  -2   2  138.05    3.92 
   2  -4   2  143.01    6.43 
   2  -4   2  134.63    5.47 
  -1   4  -2   15.49    1.20 
  -4  -1  -2   21.34    0.82 
   4   1  -2   17.31    0.77 
  -1   4  -2   17.78    0.77 
   4   1  -2   18.46    1.25 
  -1   4   2   18.28    0.76 
   4   1   2   21.10    1.28 
   1  -4   2   19.11    0.78 
  -4  -1   2   17.49    0.61 
   4   1   2   18.49    0.77 
  -1   4   2   17.41    1.16 
  -4  -1   2   18.28    0.82 
   1  -4   2   17.84    0.77 
   1  -4   2   18.98    0.91 
   0   4  -2  330.95   12.81 
  -4   0  -2  383.79   14.28 
   4   0  -2  374.07   18.78 
   0   4  -2  329.32   18.67 
  -4   0  -2  346.71   12.93 
   4   0  -2  360.32   12.94 
  -4   0   2  335.11   12.83 
   4   0   2  339.89   12.86 
   4   0   2  408.74   18.82 
  -4   0   2  376.90   10.25 
   0  -4   2  353.69   10.13 
   0   4   2  354.31   12.81 
   0   4   2  356.66   18.60 
   1   4  -2   19.76    1.11 
   1   4  -2   17.52    1.12 
   1   4  -2   18.32    0.72 
   4  -1  -2   18.13    0.80 
  -4   1  -2   19.93    0.78 
  -4   1   2   18.40    0.78 
   4  -1   2   18.35    0.80 
  -4   1   2   17.09    0.63 
  -1  -4   2   18.65    0.56 
   2   4  -2  137.72    7.42 
   2   4  -2  142.43    7.39 
  -4   2  -2  137.29    5.15 
   4  -2  -2  147.49    5.70 
   4  -2  -2  140.67    5.16 
   4  -2   2  136.23    4.06 
  -4   2   2  145.30    5.15 
   4  -2   2  127.39    5.14 
   4  -2   2  152.88    5.72 
   4  -3  -2    3.36    0.29 
   4  -3  -2    3.20    0.30 
  -4   3  -2    4.34    0.34 
  -3  -4   2    3.76    0.17 
   4  -3   2    2.89    0.29 
   3   4   2    3.66    0.37 
  -4   3   2    2.86    0.31 
   4  -3   2    3.44    0.32 
   4  -4  -2  190.95    7.40 
   4   4  -2  199.59    9.79 
  -4   4  -2  161.15    6.72 
   4  -4  -2  183.34    6.71 
   4   4  -2  174.94    6.63 
   4   4   2  202.41    9.75 
   4  -4   2  178.66    6.70 
  -4  -4   2  186.97    5.24 
   4  -4   2  181.14    7.41 
  -4   4   2  180.74    6.73 
   5   4  -2    6.20    0.39 
   4  -5  -2    8.19    0.45 
   5   4  -2    7.17    0.79 
  -4   5  -2    8.27    0.53 
   5   4   2    8.29    0.80 
  -5  -4   2    7.15    0.31 
  -4   5   2    6.70    0.51 
   5   4   2    7.22    0.39 
   4  -5   2    7.51    0.46 
   5   3  -2  164.98    8.51 
  -3   5  -2  152.97    5.77 
  -3   5  -2  147.85    8.57 
   3  -5  -2  162.38    7.42 
   3  -5  -2  160.29    6.29 
   5   3  -2  147.73    5.71 
   5   3   2  181.60    8.52 
  -5  -3   2  156.20    4.51 
   3  -5   2  155.93    6.30 
   5   3   2  144.20    5.69 
  -3   5   2  164.14    5.77 
  -3   5   2  144.53    8.49 
  -2   5  -2    1.14    0.35 
   5   2  -2    0.85    0.14 
   2  -5  -2    1.71    0.23 
   2  -5  -2    1.61    0.14 
  -2   5  -2    1.05    0.18 
  -5  -2   2    1.49    0.18 
   5   2   2    1.09    0.15 
  -2   5   2    1.44    0.19 
   5   2   2    1.35    0.35 
  -2   5   2    1.02    0.31 
  -5  -2   2    1.01    0.16 
   2  -5   2    1.45    0.15 
  -5  -2   2    1.20    0.16 
  -1   5  -2  194.19    7.43 
  -1   5  -2  179.21   10.91 
  -5  -1  -2  227.24    8.21 
   5   1  -2  199.22    7.45 
  -1   5   2  212.91    7.43 
  -5  -1   2  212.96    5.89 
   1  -5   2  197.68    9.60 
  -5  -1   2  220.09    8.21 
  -1   5   2  198.99   10.85 
   5   1   2  209.14    7.44 
   0   5  -2   13.83    1.03 
   5   0  -2   13.92    0.68 
  -5   0  -2   16.14    0.64 
   0   5  -2   13.19    0.61 
   0   5   2   14.46    0.94 
   0  -5   2   14.80    0.48 
  -5   0   2   13.73    0.53 
   5   0   2   15.18    0.68 
  -5   0   2   13.50    0.64 
   1   5  -2  208.32   11.00 
   5  -1  -2  212.91    7.62 
  -5   1  -2  209.48    7.59 
  -5   1   2  216.76    6.02 
   5  -1   2  202.54    7.60 
  -1  -5   2  214.34    5.94 
   1   5   2  202.07   10.91 
  -5   1   2  207.06    7.59 
   5  -2  -2    0.95    0.16 
   5  -2   2    1.10    0.17 
  -5   2   2    0.75    0.15 
   3   5  -2  164.37    8.33 
   5  -3  -2  159.09    5.81 
  -5   3  -2  161.25    5.82 
   3   5  -2  146.70    8.34 
  -5   3   2  160.08    5.81 
   5  -3   2  157.82    5.81 
   5  -3   2  156.81    4.58 
   4   5  -2    7.29    0.70 
  -5   4  -2    9.29    0.55 
   5  -4  -2    8.04    0.50 
   5  -4  -2    8.13    0.49 
   4   5   2    7.49    0.67 
  -4  -5   2    7.91    0.30 
   5  -4   2    8.19    0.40 
   5  -4   2    8.12    0.52 
   5  -4   2    8.08    0.49 
   5   5  -2  124.69    6.44 
  -5   5  -2  107.83    4.42 
   5  -5  -2  114.49    4.80 
   5   5   2  127.84    6.41 
   5  -5   2  113.51    3.47 
   5  -5   2  116.33    4.82 
  -5   5   2  117.75    4.43 
  -5  -5   2  116.95    3.38 
   5  -6  -2    1.67    0.26 
  -5   6  -2    2.04    0.30 
  -6  -5   2    1.67    0.20 
   5  -6   2    1.57    0.21 
   5  -6   2    1.65    0.27 
  -5   6   2    0.98    0.25 
   6   4  -2   74.04    2.81 
  -4   6  -2   73.37    2.92 
  -6  -4  -2   70.08    3.55 
   4  -6  -2   76.70    3.07 
  -4   6   2   80.36    2.92 
   4  -6   2   74.86    2.26 
  -6  -4   2   72.57    2.20 
   4  -6   2   75.05    3.07 
   3  -6  -2    5.61    0.30 
  -3   6  -2    5.41    0.45 
   6   3  -2    4.79    0.38 
   3  -6  -2    5.40    0.45 
  -3   6   2    4.57    0.45 
   3  -6   2    6.18    0.33 
  -6  -3   2    4.62    0.29 
   6   3   2    5.10    0.37 
   3  -6   2    5.37    0.31 
  -6  -2  -2  156.04    5.69 
  -2   6  -2  124.73    7.81 
   2  -6  -2  142.17    6.72 
   6   2  -2  145.54    5.24 
  -2   6  -2  135.79    5.25 
  -2   6   2  135.00    7.76 
  -6  -2   2  158.48    5.71 
   2  -6   2  137.16    6.72 
  -6  -2   2  148.65    4.14 
   6   2   2  131.98    5.21 
  -2   6   2  150.52    5.25 
  -6  -2   2  141.01    5.71 
  -1   6  -2    2.84    0.57 
  -1   6  -2    3.63    0.32 
   6   1  -2    3.39    0.34 
  -1   6   2    3.27    0.33 
   1  -6   2    4.16    0.29 
   6   1   2    3.99    0.34 
  -1   6   2    3.56    0.55 
   1  -6   2    4.05    0.24 
  -6  -1   2    3.23    0.27 
   0   6  -2   95.01    5.49 
   0   6  -2   95.10    3.66 
   6   0  -2  105.61    3.76 
   0  -6   2  103.69    2.90 
   0   6   2   99.45    3.66 
  -6   0   2  101.24    2.96 
   0   6   2   99.93    5.41 
   6   0   2  100.68    3.74 
  -6   1  -2    4.56    0.33 
   6  -1  -2    3.58    0.34 
   1   6  -2    3.33    0.48 
  -1  -6   2    4.11    0.19 
   1   6   2    3.77    0.40 
   6  -1   2    3.69    0.35 
  -6   1   2    3.08    0.32 
  -6   2  -2  147.42    5.30 
   2   6  -2  139.23    7.61 
   6  -2  -2  142.08    5.32 
  -2  -6   2  139.02    4.09 
  -6   2   2  150.35    5.30 
   6  -2   2  143.38    5.31 
   6  -3  -2    5.07    0.43 
   3   6  -2    5.49    0.52 
   3   6  -2    5.73    0.51 
  -6   3  -2    6.26    0.44 
   6  -3   2    5.50    0.44 
  -6   3   2    4.27    0.42 
  -6   4  -2   81.23    3.10 
   6  -4  -2   78.83    3.07 
   4   6  -2   78.75    4.36 
  -6   4   2   81.68    3.10 
   6  -4   2   79.26    3.07 
   5   6  -2    1.44    0.36 
  -6   5  -2    2.33    0.40 
   6  -5  -2    1.82    0.30 
  -5  -6   2    1.73    0.18 
   6  -5   2    1.62    0.22 
   5   6   2    1.51    0.38 
   6  -6  -2   56.15    2.51 
  -6   6  -2   60.30    2.43 
   6  -6   2   59.71    1.87 
  -6   6   2   62.15    2.42 
   6  -6   2   56.58    2.52 
  -6  -6   2   57.66    1.74 
  -6   7  -2    3.49    0.50 
   6  -7  -2    2.42    0.30 
   6  -7   2    1.98    0.27 
   6  -7   2    2.26    0.32 
  -5   7  -2   59.19    2.38 
   5  -7  -2   57.29    2.38 
  -7  -5   2   52.87    1.72 
  -5   7   2   58.50    2.35 
   5  -7   2   58.63    1.83 
   5  -7   2   56.32    2.39 
  -4   7  -2    1.18    0.26 
   7   4  -2    0.75    0.17 
   4  -7   2    1.09    0.19 
   4  -7   2    0.98    0.16 
  -7  -4   2    0.68    0.14 
   4  -7   2    1.03    0.20 
  -4   7   2    0.53    0.23 
   7   4   2    0.99    0.18 
   7   3  -2   91.03    3.42 
  -3   7  -2   88.42    3.48 
  -7  -3   2   91.24    2.69 
   3  -7   2   91.38    2.72 
  -3   7   2   93.63    3.47 
   7   3   2   87.99    3.39 
  -2   7  -2    5.97    0.45 
  -2   7  -2    6.20    0.88 
   2  -7  -2    6.58    0.45 
   7   2  -2    5.87    0.44 
  -7  -2   2    5.89    0.35 
   2  -7   2    6.14    0.36 
   2  -7   2    5.90    0.45 
  -7  -2   2    4.78    0.33 
  -2   7   2    4.87    0.79 
  -7  -2   2    5.04    0.33 
   7   2   2    6.52    0.44 
  -2   7   2    5.05    0.46 
  -1   7  -2   96.13    5.77 
  -1   7  -2   95.59    3.80 
   7   1  -2  108.73    3.87 
   1  -7  -2  103.89    4.85 
  -1   7   2   98.63    3.80 
   1  -7   2  104.71    3.01 
  -7  -1   2  108.33    4.21 
   1  -7   2  104.97    4.87 
  -1   7   2   95.56    5.69 
   7   1   2  108.57    3.86 
   0   7  -2    1.61    0.41 
   7   0  -2    1.40    0.22 
   7   0   2    1.83    0.31 
   0   7   2    1.62    0.37 
   0  -7   2    2.06    0.20 
   7  -1  -2  104.20    3.94 
   1   7  -2   97.79    5.67 
  -7   1   2  108.42    3.90 
  -1  -7   2  105.68    3.00 
   1   7   2  101.44    5.61 
   7  -1   2  107.62    3.94 
   7  -2  -2    6.06    0.48 
   2   7  -2    6.90    0.63 
  -7   2  -2    7.98    0.49 
  -7   2   2    5.18    0.46 
   7  -2   2    6.96    0.51 
   7  -3  -2   94.04    3.66 
  -7   3  -2   94.97    3.66 
  -7   3   2   96.27    3.66 
   7  -3   2   98.57    3.67 
   7  -4  -2    0.76    0.21 
   4   7  -2    1.14    0.28 
  -7   4  -2    1.58    0.27 
  -7   4   2    0.47    0.22 
   7  -4   2    0.85    0.22 
  -7   5  -2   58.55    2.41 
  -7   5   2   58.85    2.40 
  -7   6  -2    3.32    0.49 
   7  -6  -2    2.15    0.35 
  -7   6   2    1.16    0.31 
  -7   7  -2   41.31    1.89 
  -7   7   2   43.55    1.90 
  -6   8  -2   33.52    1.58 
   6  -8   2   31.36    1.19 
  -6   8   2   34.16    1.57 
  -5   8  -2    1.96    0.34 
  -5   8   2    1.13    0.30 
   5  -8   2    1.48    0.25 
   8   4  -2   48.22    1.98 
  -4   8  -2   49.17    2.09 
   4  -8   2   50.35    1.62 
  -4   8   2   51.41    2.09 
  -3   8  -2    1.20    0.26 
   8   3  -2    0.93    0.20 
  -3   8   2    0.55    0.23 
   8   3   2    1.02    0.21 
   3  -8   2    0.86    0.20 
  -2   8  -2   51.76    2.14 
   2  -8  -2   51.52    2.67 
   8   2  -2   56.14    2.17 
   8   2   2   55.41    2.16 
   2  -8   2   53.49    1.69 
  -8  -2   2   59.60    2.21 
   2  -8   2   52.34    2.69 
  -2   8   2   53.31    2.15 
   1  -8  -2    3.14    0.30 
  -1   8  -2    3.24    0.73 
   8   1  -2    2.98    0.38 
   1  -8   2    3.10    0.33 
   8   1   2    3.21    0.39 
  -8  -1   2    2.41    0.31 
  -1   8   2    2.02    0.53 
   1  -8   2    3.19    0.28 
   0   8  -2   69.57    4.12 
   8   0  -2   74.01    2.79 
   8   0   2   73.39    2.78 
   0   8   2   65.35    4.04 
   0  -8   2   72.78    2.10 
   8  -1  -2    2.92    0.38 
   1   8  -2    3.44    0.55 
   1   8   2    2.78    0.49 
   8  -1   2    3.02    0.40 
  -1  -8   2    3.39    0.21 
   8  -2  -2   53.88    2.24 
   8  -2   2   55.58    2.25 
  -8   2   2   57.90    2.24 
   8  -3  -2    1.05    0.23 
  -8   3   2    0.54    0.22 
   8  -3   2    0.81    0.23 
   8  -4  -2   49.93    2.09 
  -8   4  -2   50.52    2.11 
   8  -4   2   51.76    2.11 
  -8   4   2   50.41    2.11 
  -8   5   2    0.91    0.28 
  -8   6  -2   31.87    1.52 
  -8   6   2   32.69    1.53 
  -5   9  -2   35.37    1.65 
  -5   9   2   36.29    1.64 
   5  -9   2   35.65    1.27 
  -4   9  -2    1.60    0.32 
  -4   9   2    0.78    0.28 
   4  -9   2    1.21    0.25 
   9   4   2    1.44    0.25 
   9   3  -2   41.23    1.69 
   9   3   2   40.63    1.68 
  -3   9   2   38.15    1.70 
   3  -9   2   41.49    1.35 
   9   2  -2    0.42    0.19 
   2  -9  -2    0.42    0.18 
   9   2   2    0.44    0.20 
   2  -9   2    0.46    0.17 
   1  -9  -2   46.12    2.49 
   9   1  -2   51.99    2.08 
   1  -9   2   46.82    2.50 
  -9  -1   2   55.27    2.17 
   9   1   2   52.86    2.08 
   1  -9   2   51.34    1.57 
   9   0  -2    2.88    0.39 
  -9   0   2    2.12    0.35 
   0  -9   2    3.04    0.25 
   9   0   2    3.07    0.40 
   9  -1  -2   52.50    2.15 
  -1  -9   2   52.14    1.56 
   9  -1   2   52.25    2.15 
   9  -2  -2    0.45    0.21 
   9  -2   2    0.29    0.21 
   9  -3  -2   41.56    1.80 
   9  -3   2   42.51    1.82 
  -9   4  -2    2.53    0.44 
   9  -4  -2    1.35    0.28 
  -9   4   2    0.78    0.26 
   9  -4   2    1.59    0.30 
  -9   5  -2   35.95    1.65 
  -9   5   2   36.31    1.65 
  10   3  -2    0.73    0.22 
   3 -10  -2    0.95    0.22 
   3 -10   2    0.69    0.21 
  10   3   2    0.67    0.24 
   2 -10  -2   29.20    1.00 
  10   2  -2   28.79    1.31 
   2 -10   2   28.12    1.00 
  10   2   2   29.22    1.31 
   1 -10  -2    0.57    0.18 
   1 -10  -2    0.81    0.17 
  10   1  -2    0.51    0.22 
  10   1   2    0.52    0.23 
   1 -10   2    0.43    0.18 
   1 -10   2    0.44    0.16 
  10   0  -2   28.78    1.30 
   0 -10   2   27.97    0.90 
  10   0   2   29.24    1.31 
   0 -10   2   25.32    1.44 
  10  -1  -2    0.78    0.24 
  10  -1   2    0.70    0.25 
  10  -2  -2   29.44    1.38 
  10  -2   2   30.01    1.39 
  10  -3  -2    0.67    0.24 
  10  -3   2    0.84    0.27 
   0   0  -3   13.96    0.87 
   0   0  -3   13.09    0.82 
   0   0   3   14.30    0.83 
   0   0   3   10.83    0.82 
   0  -1  -3  360.39   15.16 
   0   1  -3  376.94   19.98 
  -1   0  -3  396.39   19.98 
   0   1  -3  362.40   19.90 
   0  -1   3  350.61   15.16 
   0   1   3  386.61   19.85 
  -1   0   3  407.91   19.98 
   0   1   3  382.26   19.87 
   0  -1   3  372.73   19.91 
  -1   0   3  380.14   19.94 
   1   0   3  387.43   19.84 
  -1   1  -3    6.68    0.53 
   1  -1  -3    6.64    0.33 
   1   1  -3    6.45    0.54 
  -1  -1  -3    6.68    0.33 
   1   1  -3    6.54    0.49 
  -1   1   3    7.03    0.51 
   1  -1   3    6.35    0.52 
   1   1   3    6.70    0.52 
  -1  -1   3    6.65    0.34 
   1  -1   3    6.91    0.35 
   2   1  -3  394.46   14.07 
   1  -2  -3  397.44   15.60 
  -1   2  -3  360.29   14.09 
  -2  -1  -3  387.00   15.58 
   2   1  -3  401.58   20.39 
  -1   2  -3  353.55   20.32 
   2   1   3  406.50   20.41 
  -1   2   3  390.76   20.31 
   1  -2   3  369.82   15.57 
  -1   2   3  414.83   14.03 
  -2  -1   3  409.51   15.56 
  -2  -1   3  375.15   15.58 
   2   0  -3   47.31    2.37 
   0   2  -3   39.00    2.35 
  -2   0  -3   41.33    2.36 
   0  -2   3   41.18    1.72 
   0  -2   3   39.17    1.72 
   0   2   3   42.24    2.32 
   2   0   3   43.83    2.39 
  -2   0   3   44.57    2.35 
   2  -1  -3  403.94   20.07 
  -2   1  -3  353.18   19.89 
   1   2  -3  379.18   19.89 
   1   2  -3  368.81   19.88 
   2  -1  -3  402.75   15.31 
  -1  -2   3  373.49   15.13 
  -1  -2   3  348.45   15.13 
   2  -1   3  393.07   19.83 
  -2   1   3  400.72   19.89 
   1   2   3  374.02   19.78 
   2  -2  -3   43.91    1.73 
  -2   2  -3   41.46    2.40 
   2   2  -3   39.43    2.31 
   2   2  -3   42.95    2.36 
  -2   2  -3   41.15    1.59 
  -2  -2   3   38.55    1.69 
   2  -2   3   40.18    1.74 
  -2  -2   3   40.38    1.69 
  -2   2   3   43.18    1.58 
  -2   2   3   42.29    2.36 
   2   2   3   45.39    2.33 
   2  -3  -3  371.15   14.41 
   3   2  -3  380.82   12.96 
  -2   3  -3  330.99   13.02 
   3   2  -3  381.33   18.77 
  -2   3  -3  319.50   18.80 
  -3  -2   3  365.81   14.28 
  -3  -2   3  361.93   14.38 
   3   2   3  350.65   12.86 
   2  -3   3  351.74   10.20 
  -2   3   3  356.46   12.97 
  -3  -2   3  356.25   10.26 
   2  -3   3  348.94   14.38 
  -2   3   3  359.47   18.78 
   3   2   3  390.38   18.76 
  -1   3  -3   13.54    0.60 
   3   1  -3   13.36    0.94 
   1  -3  -3   14.50    0.71 
  -1   3  -3   12.05    0.95 
  -3  -1  -3   16.27    0.63 
   1  -3  -3   15.27    0.61 
   3   1  -3   12.83    0.59 
   1  -3   3   14.60    0.72 
  -1   3   3   14.28    0.59 
  -1   3   3   13.34    0.91 
   1  -3   3   12.89    0.62 
   1  -3   3   13.42    0.47 
   3   1   3   13.62    0.59 
   3   1   3   15.98    0.97 
  -3  -1   3   14.01    0.47 
  -3  -1   3   13.30    0.63 
  -3  -1   3   12.90    0.64 
   1  -3   3   14.79    0.63 
   3   0  -3  320.94   11.25 
   0   3  -3  286.16   16.11 
   3   0  -3  315.73   16.15 
   0   3  -3  284.49   11.11 
   3   0   3  355.04   16.21 
   3   0   3  302.32   11.13 
   0  -3   3  306.25    8.76 
   0  -3   3  304.08   12.31 
   0   3   3  322.81   16.07 
   0   3   3  303.40   11.06 
   0  -3   3  290.40   12.26 
   1   3  -3   13.55    0.92 
  -3   1  -3   16.33    0.63 
   1   3  -3   14.87    0.91 
   3  -1  -3   13.33    0.62 
  -3   1  -3   16.17    1.02 
   1   3  -3   13.33    0.58 
   3  -1  -3   14.26    0.97 
   3  -1  -3   14.30    0.67 
   3  -1   3   14.22    0.62 
  -3   1   3   13.89    0.62 
   3  -1   3   15.24    1.00 
  -1  -3   3   13.69    0.46 
  -3   1   3   13.36    0.96 
   2   3  -3  356.93   12.93 
   2   3  -3  372.00   18.79 
  -3   2  -3  318.14   18.84 
   2   3  -3  380.89   18.74 
   3  -2  -3  378.13   14.51 
  -3   2  -3  347.26   13.04 
   3  -2  -3  366.50   13.13 
  -3   2   3  382.11   12.99 
  -2  -3   3  340.11   10.27 
   3  -2   3  344.28   12.98 
   3  -2   3  346.16   14.35 
  -3   2   3  384.45   18.85 
   2   3   3  346.91   12.86 
   2   3   3  370.97   18.71 
  -3   3  -3    8.80    0.80 
   3  -3  -3    9.87    0.48 
  -3   3  -3    9.74    0.49 
   3  -3  -3    9.12    0.47 
   3   3  -3    9.59    0.43 
   3   3  -3    8.64    0.72 
  -3  -3   3    9.05    0.33 
   3   3   3   10.24    0.71 
  -3   3   3    8.56    0.48 
   3  -3   3    9.62    0.39 
   3  -3   3    9.19    0.46 
   3  -3   3    9.74    0.52 
  -3   3   3    9.85    0.82 
   3   3   3    9.00    0.41 
   3  -4  -3  157.78    7.47 
  -3   4  -3  149.88    5.80 
  -3   4  -3  150.71    8.57 
   4   3  -3  171.10    8.49 
   4   3  -3  158.54    5.74 
   3  -4  -3  162.77    6.35 
   3  -4   3  154.89    6.36 
   3  -4   3  149.63    5.74 
  -4  -3   3  159.25    4.53 
   3  -4   3  151.00    4.56 
  -3   4   3  161.06    5.79 
  -3   4   3  152.78    8.52 
   4   3   3  176.55    8.47 
   2  -4  -3    2.23    0.20 
   2  -4  -3    2.23    0.27 
  -2   4  -3    2.07    0.27 
  -4  -2  -3    2.00    0.17 
   4   2  -3    3.06    0.49 
   4   2  -3    2.63    0.24 
  -2   4  -3    3.35    0.51 
  -4  -2   3    2.94    0.21 
   2  -4   3    1.98    0.21 
  -2   4   3    2.41    0.26 
   2  -4   3    2.51    0.22 
   4   2   3    3.15    0.48 
   2  -4   3    2.73    0.27 
  -2   4   3    2.32    0.47 
  -4  -2   3    2.65    0.19 
   4   2   3    2.13    0.22 
  -4  -1  -3  282.04   10.66 
  -1   4  -3  231.49   14.03 
  -1   4  -3  258.51    9.61 
   1  -4  -3  284.03   12.51 
   4   1  -3  276.01   14.08 
   1  -4  -3  258.13   10.62 
   1  -4  -3  262.26   12.45 
   4   1  -3  267.39    9.61 
   1  -4   3  262.74   12.50 
  -4  -1   3  281.83   10.62 
   1  -4   3  258.62    7.59 
  -1   4   3  254.82   13.98 
   4   1   3  252.35    9.60 
   1  -4   3  262.21   10.58 
   4   1   3  299.22   14.11 
  -4  -1   3  276.13    7.60 
  -4  -1   3  255.74   10.63 
   1  -4   3  264.95   10.63 
  -1   4   3  276.99    9.60 
   4   0  -3   19.28    1.33 
   4   0  -3   18.74    0.84 
   0   4  -3   18.79    0.80 
   0   4  -3   18.95    1.29 
  -4   0  -3   22.17    0.82 
   4   0   3   19.71    0.84 
  -4   0   3   19.66    0.82 
  -4   0   3   19.36    0.67 
   0   4   3   20.25    1.21 
   0  -4   3   19.90    0.63 
   0   4   3   20.72    0.79 
   4   0   3   22.41    1.38 
   1   4  -3  272.02   13.85 
  -4   1  -3  256.74    9.54 
   4  -1  -3  278.52    9.57 
   1   4  -3  259.41   13.86 
   1   4  -3  261.80    9.49 
   1   4   3  259.85   13.78 
   4  -1   3  247.25    9.55 
  -1  -4   3  262.87    7.50 
  -4   1   3  268.49    7.56 
   1   4   3  258.59    9.47 
  -4   1   3  283.77    9.55 
   2   4  -3    2.67    0.40 
   4  -2  -3    2.72    0.29 
   4  -2  -3    2.72    0.26 
   2   4  -3    2.83    0.22 
   2   4  -3    2.61    0.36 
  -2  -4   3    3.07    0.17 
   2   4   3    2.69    0.31 
  -4   2   3    2.77    0.28 
   4  -2   3    2.31    0.25 
   2   4   3    2.58    0.18 
   4  -2   3    2.38    0.29 
  -4   3  -3  157.68    5.83 
   4  -3  -3  156.31    6.41 
   3   4  -3  167.50    8.44 
   3   4  -3  159.78    8.47 
   4  -3  -3  165.50    5.84 
   4  -3   3  156.20    4.60 
  -3  -4   3  152.92    4.54 
  -4   3   3  160.25    5.83 
   4  -3   3  153.54    5.81 
   4  -3   3  159.68    6.44 
   3   4   3  150.99    5.72 
   3   4   3  169.98    8.40 
   4   4  -3    5.82    0.35 
   4  -4  -3    6.92    0.41 
  -4   4  -3    7.81    0.47 
   4   4  -3    5.99    0.65 
   4  -4  -3    6.50    0.42 
   4  -4   3    6.74    0.35 
   4  -4   3    6.39    0.43 
  -4   4   3    5.78    0.44 
  -4  -4   3    6.37    0.27 
   4   4   3    6.33    0.33 
   4   4   3    7.34    0.63 
   4  -4   3    6.05    0.39 
   5   4  -3  136.01    5.13 
   4  -5  -3  136.86    5.68 
  -4   5  -3  132.66    5.22 
   5   4  -3  152.16    7.69 
   4  -5   3  140.12    5.70 
   4  -5   3  134.18    4.10 
  -4   5   3  142.56    5.22 
   5   4   3  150.34    7.62 
  -5  -4   3  139.74    4.05 
   3  -5  -3    4.05    0.27 
  -3   5  -3    3.98    0.38 
   3  -5  -3    4.12    0.37 
   5   3  -3    3.42    0.30 
   5   3   3    4.31    0.60 
   3  -5   3    3.97    0.28 
  -3   5   3    3.65    0.61 
   3  -5   3    3.61    0.28 
   5   3   3    3.65    0.28 
  -5  -3   3    3.52    0.23 
  -3   5   3    3.43    0.37 
  -2   5  -3  122.12    4.85 
  -2   5  -3  119.20    7.21 
  -5  -2  -3  141.42    5.27 
   5   2  -3  136.40    4.84 
   2  -5  -3  128.70    6.22 
   2  -5  -3  130.65    5.26 
   2  -5   3  133.20    5.28 
  -5  -2   3  143.32    5.29 
   2  -5   3  137.23    5.29 
   5   2   3  145.30    7.22 
  -2   5   3  123.34    7.13 
   2  -5   3  123.14    3.82 
   2  -5   3  132.58    6.23 
  -5  -2   3  136.11    5.30 
   5   2   3  120.65    4.81 
  -5  -2   3  133.72    3.82 
  -2   5   3  132.40    4.84 
  -1   5  -3    4.99    0.64 
  -1   5  -3    5.83    0.37 
   5   1  -3    5.97    0.39 
  -1   5   3    6.38    0.62 
   5   1   3    6.42    0.38 
   1  -5   3    6.28    0.30 
   1  -5   3    6.60    0.38 
  -5  -1   3    5.83    0.38 
  -1   5   3    5.66    0.37 
  -5  -1   3    6.20    0.31 
  -5   0  -3  213.82    7.91 
   0   5  -3  211.53   11.61 
   0   5  -3  204.90    7.89 
   5   0  -3  224.01    7.96 
   0   5   3  210.46   11.50 
   5   0   3  214.50    7.95 
  -5   0   3  229.67    6.29 
  -5   0   3  227.39    7.93 
   0   5   3  227.95    7.89 
   0  -5   3  225.48    6.25 
   1   5  -3    5.81    0.58 
   1   5  -3    6.48    0.34 
   5  -1  -3    6.20    0.41 
  -5   1  -3    7.32    0.40 
  -5   1   3    6.03    0.39 
   5  -1   3    6.34    0.41 
   1   5   3    6.20    0.51 
  -5   1   3    6.71    0.34 
  -1  -5   3    6.45    0.26 
  -5   2  -3  133.74    4.82 
   5  -2  -3  134.90    4.84 
   2   5  -3  127.27    6.98 
   2   5  -3  131.51    6.95 
  -5   2   3  140.86    4.83 
   2   5   3  122.97    6.85 
   5  -2   3  125.47    4.82 
  -2  -5   3  129.19    3.74 
   5  -3  -3    4.03    0.35 
  -5   3  -3    4.93    0.38 
   3   5  -3    3.88    0.47 
   3   5  -3    3.94    0.49 
   5  -3   3    3.88    0.29 
  -3  -5   3    4.02    0.20 
   5  -3   3    3.70    0.35 
   3   5   3    4.17    0.43 
  -5   3   3    3.72    0.35 
   5  -4  -3  141.65    5.17 
   5  -4  -3  138.74    5.67 
  -5   4  -3  136.28    5.19 
   4   5  -3  145.68    7.50 
   4   5   3  141.46    7.43 
  -5   4   3  142.04    5.18 
   5  -4   3  135.14    4.07 
   5  -4   3  139.40    5.70 
  -4  -5   3  137.76    3.99 
   5  -4   3  136.05    5.15 
   5   5  -3    5.39    0.71 
  -5   5  -3    6.34    0.49 
   5  -5  -3    5.40    0.41 
   5  -5   3    5.17    0.42 
   5   5   3    5.71    0.69 
  -5  -5   3    5.45    0.27 
   5  -5   3    5.76    0.38 
  -5   5   3    4.55    0.48 
   5  -6  -3   67.12    2.89 
  -5   6  -3   68.10    2.78 
   5  -6   3   69.01    2.15 
  -6  -5   3   67.39    2.06 
  -5   6   3   76.72    2.78 
   5  -6   3   68.33    2.92 
   4  -6  -3    0.72    0.14 
  -4   6  -3    0.89    0.23 
   6   4  -3    0.57    0.15 
  -4   6   3    0.34    0.20 
   6   4   3    0.63    0.14 
   4  -6   3    0.68    0.14 
  -6  -4   3    0.93    0.13 
   4  -6   3    0.51    0.16 
  -3   6  -3  107.33    4.37 
   3  -6  -3  115.72    4.67 
   6   3  -3  116.69    4.31 
  -6  -3   3  114.78    3.40 
   3  -6   3  121.83    4.70 
   3  -6   3  115.58    3.43 
  -3   6   3  125.10    4.37 
   3  -6   3  114.49    4.69 
   2  -6  -3    5.18    0.38 
  -2   6  -3    4.40    0.73 
   6   2  -3    3.95    0.35 
  -2   6  -3    5.05    0.40 
  -2   6   3    4.45    0.66 
  -2   6   3    4.23    0.40 
   6   2   3    5.06    0.37 
   2  -6   3    5.74    0.40 
   2  -6   3    4.60    0.30 
  -6  -2   3    5.05    0.31 
  -6  -2   3    4.54    0.31 
  -6  -2   3    4.40    0.29 
   6   1  -3  130.28    4.58 
  -1   6  -3  111.07    6.78 
   1  -6  -3  120.76    5.79 
  -1   6  -3  121.93    4.54 
   1  -6   3  117.39    5.81 
  -6  -1   3  124.83    5.01 
   1  -6   3  126.69    3.58 
  -1   6   3  128.92    4.53 
   6   1   3  126.38    4.56 
  -6  -1   3  127.56    3.61 
  -1   6   3  119.14    6.68 
   0   6  -3    0.48    0.11 
   6   0  -3    0.47    0.14 
   0   6  -3    0.52    0.29 
   0  -6   3    0.51    0.10 
  -6   0   3    0.46    0.13 
   6   0   3    0.33    0.14 
   0   6   3    0.58    0.12 
   0   6   3    0.61    0.24 
   1   6  -3  117.89    6.66 
   6  -1  -3  124.62    4.60 
  -6   1  -3  120.89    4.55 
   1   6   3  116.89    6.55 
  -1  -6   3  126.90    3.55 
  -6   1   3  131.06    4.58 
  -6   1   3  127.54    3.63 
   6  -1   3  122.68    4.59 
   2   6  -3    5.17    0.56 
  -6   2  -3    6.33    0.42 
   6  -2  -3    4.91    0.40 
   6  -2   3    5.10    0.41 
  -2  -6   3    5.49    0.24 
  -6   2   3    4.14    0.40 
   3   6  -3  116.34    6.37 
   3   6  -3  112.54    6.40 
   6  -3  -3  120.53    4.45 
  -6   3  -3  116.76    4.43 
  -6   3   3  126.89    4.46 
   6  -3   3  118.52    4.44 
  -6   4  -3    0.73    0.20 
   6  -4  -3    0.53    0.17 
   4   6  -3    0.93    0.28 
  -6   4   3    0.30    0.19 
   4   6   3    0.72    0.24 
   6  -4   3    0.42    0.17 
   5   6  -3   72.78    3.97 
  -6   5  -3   66.60    2.76 
   6  -5  -3   65.85    2.93 
  -6   5   3   69.68    2.75 
   5   6   3   73.41    3.90 
   6  -5   3   68.45    2.15 
  -5  -6   3   68.72    2.03 
   6  -6  -3    1.67    0.31 
  -6   6  -3    2.72    0.44 
  -6  -6   3    2.04    0.21 
   6  -6   3    1.87    0.25 
   6  -6   3    1.92    0.34 
  -6   7  -3   49.22    2.15 
   6  -7  -3   48.64    2.14 
   6  -7   3   49.40    2.16 
   6  -7   3   51.24    1.66 
  -7  -6   3   49.06    1.53 
  -6   7   3   52.69    2.14 
  -5   7  -3    2.67    0.45 
   5  -7  -3    2.11    0.24 
  -5   7   3    1.28    0.29 
   5  -7   3    1.77    0.25 
  -7  -5   3    2.17    0.24 
   5  -7   3    2.10    0.26 
   7   4  -3   58.90    2.29 
  -4   7  -3   59.78    2.40 
   4  -7   3   58.16    2.42 
  -4   7   3   61.60    2.39 
  -7  -4   3   57.11    1.80 
   4  -7   3   60.29    1.86 
   4  -7   3   56.95    2.41 
   7   3  -3    3.82    0.38 
  -3   7  -3    4.45    0.45 
   3  -7   3    4.18    0.34 
  -3   7   3    3.24    0.44 
  -7  -3   3    3.95    0.30 
   7   3   3    4.13    0.37 
  -2   7  -3  102.78    3.97 
  -7  -2  -3  114.42    4.24 
   2  -7  -3  100.40    5.03 
   7   2  -3  103.91    3.97 
  -2   7   3  108.36    3.97 
   2  -7   3   97.78    5.04 
  -7  -2   3  107.58    3.13 
  -2   7   3   95.46    5.93 
  -7  -2   3  107.42    4.28 
  -7  -2   3  119.19    4.27 
   2  -7   3  103.08    3.12 
  -1   7  -3    4.04    0.73 
  -1   7  -3    4.49    0.36 
   1  -7  -3    4.60    0.33 
   7   1  -3    3.60    0.39 
   1  -7  -3    4.52    0.32 
   7   1   3    4.41    0.38 
  -1   7   3    3.52    0.36 
  -1   7   3    3.53    0.62 
  -7  -1   3    3.26    0.30 
   1  -7   3    4.38    0.29 
  -7  -1   3    3.49    0.34 
   1  -7   3    4.39    0.36 
   7   0  -3   87.66    3.25 
   0   7  -3   81.15    4.80 
   0   7   3   82.37    4.70 
   7   0   3   86.41    3.24 
   0  -7   3   85.84    2.48 
   7  -1  -3    4.20    0.40 
   1   7  -3    4.51    0.59 
   1   7   3    4.20    0.50 
   7  -1   3    4.36    0.40 
  -7   1   3    3.43    0.36 
  -1  -7   3    4.73    0.23 
  -7   2  -3  102.83    3.90 
   2   7  -3   99.49    5.67 
   7  -2  -3  104.72    3.94 
  -2  -7   3  103.36    2.99 
  -7   2   3  108.91    3.92 
   7  -2   3  102.99    3.93 
   3   7  -3    4.75    0.58 
   7  -3  -3    4.29    0.42 
  -7   3   3    3.55    0.43 
   7  -3   3    4.14    0.41 
   4   7  -3   55.27    3.40 
  -7   4  -3   60.67    2.44 
   7  -4  -3   61.47    2.42 
   7  -4   3   63.18    2.43 
  -7   4   3   61.75    2.44 
  -7   5  -3    2.88    0.44 
  -5  -7   3    2.26    0.19 
   7  -6  -3   49.45    2.23 
  -7   6  -3   50.45    2.16 
  -7   6   3   52.10    2.15 
  -6  -7   3   50.71    1.52 
  -7   7  -3    2.95    0.51 
  -6   8  -3    0.92    0.31 
  -6   8   3    0.28    0.27 
   6  -8   3    0.57    0.23 
  -5   8  -3   42.91    1.93 
   5  -8   3   44.59    1.49 
  -5   8   3   45.26    1.92 
   8   4  -3    1.17    0.21 
  -4   8  -3    1.83    0.31 
   8   4   3    1.16    0.22 
   4  -8   3    1.19    0.23 
  -4   8   3    0.86    0.26 
  -3   8  -3   50.69    2.13 
   8   3  -3   53.09    2.11 
  -3   8   3   53.82    2.14 
   3  -8   3   52.00    1.67 
   2  -8  -3    0.72    0.18 
   8   2  -3    0.56    0.19 
  -2   8  -3    0.76    0.20 
  -2   8   3    0.43    0.20 
   2  -8   3    0.78    0.18 
  -8  -2   3    0.67    0.12 
   2  -8   3    0.65    0.19 
  -8  -2   3    0.62    0.12 
   8   2   3    0.62    0.19 
  -1   8  -3   64.80    4.12 
   1  -8  -3   64.25    3.30 
   8   1  -3   74.77    2.72 
   8   1   3   73.40    2.69 
   1  -8   3   69.66    2.07 
  -1   8   3   65.07    4.04 
   1  -8   3   66.81    3.33 
  -8  -1   3   70.95    2.88 
   8   0  -3    2.56    0.38 
   0   8  -3    3.34    0.66 
   0  -8   3    3.00    0.29 
   0   8   3    2.55    0.56 
   8   0   3    3.07    0.39 
   0  -8   3    2.89    0.25 
   8  -1  -3   69.79    2.74 
   1   8  -3   66.87    4.00 
   8  -1   3   71.87    2.74 
  -1  -8   3   69.37    2.04 
   8  -2  -3    0.68    0.21 
  -8   2   3    0.27    0.18 
   8  -2   3    0.60    0.21 
  -8   3  -3   52.15    2.16 
   8  -3  -3   52.11    2.17 
   8  -3   3   54.86    2.19 
  -8   3   3   53.86    2.17 
   8  -4  -3    1.12    0.25 
  -8   4  -3    1.83    0.29 
  -8   4   3    0.83    0.25 
   8  -4   3    1.06    0.26 
  -8   5  -3   44.05    1.94 
  -8   5   3   45.32    1.93 
  -8   6  -3    1.30    0.32 
  -8   6   3    0.24    0.26 
  -5   9  -3    2.33    0.37 
   5  -9   3    1.66    0.27 
  -5   9   3    1.26    0.32 
  -4   9  -3   36.97    1.66 
   9   4  -3   37.70    1.57 
  -4   9   3   35.87    1.63 
   4  -9   3   38.60    1.30 
  -3   9  -3    1.31    0.26 
   9   3  -3    1.11    0.23 
   3  -9   3    1.27    0.22 
   9   3   3    1.13    0.24 
  -3   9   3    0.73    0.23 
   9   2  -3   38.42    1.59 
   2  -9  -3   34.33    1.89 
   2  -9   3   36.62    1.21 
   9   2   3   36.91    1.56 
   1  -9  -3    2.52    0.32 
   9   1  -3    1.59    0.27 
   1  -9   3    2.67    0.28 
   1  -9   3    2.15    0.34 
  -9  -1   3    1.79    0.29 
   9   1   3    2.15    0.36 
   9   0  -3   54.58    2.20 
   0  -9   3   49.59    2.61 
  -9   0   3   54.75    2.33 
   0  -9   3   53.25    1.62 
   9   0   3   54.73    2.19 
   9  -1  -3    2.30    0.39 
  -1  -9   3    2.32    0.21 
   9  -1   3    2.22    0.39 
   9  -2  -3   36.90    1.61 
   9  -2   3   36.77    1.62 
   9  -3  -3    1.08    0.26 
   9  -3   3    1.02    0.26 
   9  -4  -3   39.42    1.72 
  -9   4  -3   39.06    1.73 
   9  -4   3   38.82    1.73 
  -9   4   3   40.21    1.74 
  -9   5   3    1.00    0.30 
  10   3  -3   27.98    1.26 
   3 -10   3   26.64    0.99 
  10   2  -3    0.64    0.23 
   2 -10   3    0.51    0.19 
  10   2   3    0.67    0.24 
   1 -10  -3   25.60    1.47 
  10   1  -3   29.36    1.30 
   1 -10   3   26.53    1.49 
   1 -10   3   29.14    0.94 
  10   0  -3    0.57    0.22 
   0 -10   3    0.48    0.14 
  10   0   3    0.45    0.23 
   0 -10   3    0.60    0.18 
  10  -1  -3   31.14    1.42 
  10  -1   3   30.26    1.41 
  10  -2  -3    0.49    0.23 
  10  -2   3    0.73    0.26 
  10  -3  -3   28.37    1.35 
  10  -3   3   28.85    1.37 
   0   0  -4  427.07   22.33 
   0   0  -4  409.10   22.47 
   0   0   4  418.96   22.37 
   0   0   4  441.83   22.24 
  -1   0  -4   34.76    1.98 
   1   0  -4   35.38    1.99 
   0   1  -4   33.34    1.98 
   0  -1  -4   33.34    1.41 
   1   0  -4   34.26    1.93 
   0   1  -4   34.04    1.95 
   0  -1   4   31.02    1.42 
   1   0   4   34.25    1.98 
   0   1   4   34.80    1.94 
  -1   0   4   29.93    1.42 
  -1   0   4   34.29    1.93 
   0   1   4   35.27    1.97 
  -1   0   4   37.07    1.99 
   0  -1   4   35.20    1.94 
   1  -1  -4  279.59   10.96 
  -1  -1  -4  250.36   10.86 
  -1   1  -4  265.74   14.20 
   1   1  -4  284.52   14.22 
   1   1  -4  265.25   14.21 
  -1   1   4  295.38   14.21 
  -1   1   4  283.63   14.17 
   1  -1   4  258.03   10.88 
  -1  -1   4  255.23   10.85 
   1  -1   4  262.21   14.17 
   1   1   4  278.47   14.19 
   1  -2  -4    6.72    0.34 
   2   1  -4    6.31    0.54 
   2   1  -4    6.12    0.33 
  -2  -1  -4    7.70    0.36 
  -1   2  -4    5.82    0.56 
  -1   2  -4    5.70    0.33 
  -2  -1   4    6.53    0.36 
   2   1   4    6.64    0.33 
  -2  -1   4    7.17    0.34 
   1  -2   4    6.28    0.36 
  -1   2   4    6.73    0.33 
  -1   2   4    6.30    0.55 
   2   1   4    6.76    0.58 
   2   0  -4  333.79   11.80 
   0   2  -4  315.57   11.76 
   0   2  -4  315.02   16.97 
  -2   0   4  334.88   16.93 
   0   2   4  330.11   11.67 
   0   2   4  332.66   16.93 
   0  -2   4  322.63   13.01 
   2   0   4  318.35   11.72 
  -2   0   4  303.63   12.97 
   0  -2   4  322.28   12.99 
   2   0   4  339.55   16.99 
   2  -1  -4    6.27    0.34 
   1   2  -4    6.18    0.58 
   1   2  -4    5.99    0.53 
   2  -1  -4    6.39    0.35 
   1   2  -4    6.77    0.33 
  -2   1  -4    6.87    0.58 
  -2   1  -4    7.32    0.34 
   2  -1   4    6.75    0.34 
   1   2   4    6.35    0.54 
  -2   1   4    6.45    0.33 
   1   2   4    6.95    0.32 
  -1  -2   4    6.24    0.32 
  -2   1   4    6.31    0.55 
   2  -1   4    7.25    0.59 
   2  -1   4    6.58    0.38 
  -1  -2   4    6.24    0.34 
   2   2  -4  477.99   25.18 
   2   2  -4  487.07   17.44 
   2   2  -4  506.35   25.41 
  -2   2  -4  471.58   17.55 
  -2   2  -4  425.64   25.30 
   2  -2  -4  499.15   17.51 
   2  -2  -4  511.28   19.47 
  -2  -2   4  451.93   13.79 
   2   2   4  488.23   25.14 
  -2   2   4  528.32   17.52 
  -2  -2   4  490.01   19.27 
  -2   2   4  512.97   25.18 
   2  -2   4  460.94   17.44 
   2   2   4  476.66   17.38 
   2  -2   4  482.95   19.36 
  -2  -2   4  454.22   19.29 
  -2   3  -4   22.29    0.96 
   3   2  -4   22.25    1.44 
  -2   3  -4   22.30    1.53 
   2  -3  -4   22.69    1.18 
   3   2  -4   22.74    0.93 
   2  -3  -4   23.97    1.01 
  -3  -2  -4   25.38    1.13 
  -3  -2  -4   26.12    0.97 
   2  -3   4   22.65    0.75 
  -3  -2   4   23.61    1.00 
  -3  -2   4   23.02    0.99 
  -2   3   4   21.74    1.46 
   3   2   4   23.81    0.92 
   2  -3   4   21.95    0.92 
   3   2   4   24.54    1.47 
  -3  -2   4   21.67    0.73 
  -2   3   4   23.48    0.95 
   2  -3   4   23.08    1.03 
  -1   3  -4  283.74   10.97 
   1  -3  -4  300.42   12.18 
  -3  -1  -4  303.35   12.14 
   3   1  -4  325.82   15.92 
   3   1  -4  304.82   10.96 
   1  -3  -4  296.34   14.21 
  -1   3  -4  277.09   15.93 
   3   1   4  338.72   15.96 
  -3  -1   4  311.10   12.06 
   1  -3   4  291.49    8.62 
  -3  -1   4  302.51    8.66 
  -1   3   4  316.99   10.91 
  -3  -1   4  301.70   12.13 
   1  -3   4  305.88   14.23 
   1  -3   4  280.67   12.07 
  -1   3   4  305.81   15.88 
   3   1   4  300.95   10.90 
   1  -3   4  310.66   12.15 
   3   0  -4    1.48    0.32 
   0   3  -4    1.65    0.19 
   0   3  -4    1.45    0.34 
  -3   0  -4    2.25    0.18 
   3   0  -4    1.84    0.20 
   0   3   4    2.02    0.32 
   3   0   4    2.20    0.37 
   0  -3   4    1.98    0.18 
   0  -3   4    1.82    0.16 
   0   3   4    1.96    0.18 
   0  -3   4    1.83    0.15 
  -3   0   4    1.70    0.19 
   3   0   4    1.55    0.20 
   0  -3   4    1.62    0.16 
   1   3  -4  297.88   10.94 
  -3   1  -4  293.57   11.02 
   3  -1  -4  316.04   12.28 
  -3   1  -4  310.65   15.96 
   3  -1  -4  325.70   15.94 
   1   3  -4  312.87   15.89 
   1   3  -4  289.44   15.91 
   3  -1  -4  303.06   11.09 
   1   3   4  292.84   15.84 
   1   3   4  298.59   10.89 
  -1  -3   4  285.25    8.64 
  -3   1   4  331.63   11.03 
  -1  -3   4  283.10   12.05 
   3  -1   4  297.26   11.00 
  -3   1   4  305.20   15.92 
  -1  -3   4  300.71   12.06 
   1   3   4  312.22   15.85 
   3  -1   4  310.53   15.97 
  -3   2  -4   26.30    0.98 
   3  -2  -4   22.66    1.03 
  -3   2  -4   22.24    1.51 
   2   3  -4   22.78    1.42 
   2   3  -4   23.46    1.48 
   3  -2  -4   23.63    0.97 
   2   3  -4   23.66    0.93 
  -2  -3   4   22.62    0.73 
   2   3   4   23.78    0.91 
   3  -2   4   23.76    0.96 
   3  -2   4   23.67    1.06 
  -3   2   4   21.69    1.48 
   2   3   4   24.84    1.43 
  -3   2   4   23.04    0.96 
   3   3  -4  240.28   11.41 
  -3   3  -4  197.42    7.82 
   3  -3  -4  220.07    8.62 
   3   3  -4  228.18    7.78 
   3   3  -4  212.39   11.41 
   3  -3  -4  226.09    7.83 
  -3   3  -4  187.74   11.47 
   3  -3   4  210.39    7.80 
  -3   3   4  211.91    7.81 
   3  -3   4  214.54    8.65 
  -3  -3   4  203.39    6.14 
  -3   3   4  212.13   11.45 
   3   3   4  235.83   11.39 
   3  -3   4  217.25    6.18 
   4   3  -4    3.49    0.54 
   4   3  -4    3.78    0.29 
   3  -4  -4    3.82    0.27 
  -3   4  -4    4.28    0.35 
   3  -4   4    3.88    0.31 
  -3   4   4    3.34    0.55 
  -4  -3   4    3.62    0.22 
  -3   4   4    3.16    0.33 
   3  -4   4    3.81    0.28 
   4   3   4    3.76    0.27 
   3  -4   4    3.76    0.26 
   4   3   4    4.44    0.53 
  -2   4  -4  185.85   11.06 
   2  -4  -4  203.12    8.30 
   4   2  -4  215.03    7.49 
   2  -4  -4  209.56    9.71 
  -4  -2  -4  208.25    8.24 
  -4  -2  -4  208.57    9.69 
  -2   4  -4  186.51    7.51 
   4   2  -4  233.15   11.06 
  -4  -2   4  216.19    8.25 
   2  -4   4  197.84    8.27 
   4   2   4  226.19   11.02 
  -2   4   4  226.17    7.51 
  -4  -2   4  204.21    5.92 
   2  -4   4  193.76    5.93 
   2  -4   4  207.23    9.71 
  -4  -2   4  205.03    8.26 
   4   2   4  200.54    7.48 
   2  -4   4  208.30    8.27 
  -2   4   4  195.67   10.98 
  -4  -1  -4   14.21    0.59 
   1  -4  -4   14.12    0.54 
   4   1  -4   12.00    0.57 
   4   1  -4   11.39    0.93 
  -1   4  -4   11.30    0.57 
  -1   4  -4   10.01    0.92 
   1  -4  -4   12.63    0.64 
  -4  -1   4   11.76    0.59 
  -1   4   4   12.53    0.89 
  -4  -1   4   11.11    0.54 
   4   1   4   13.40    0.99 
  -4  -1   4   11.55    0.45 
   4   1   4   11.91    0.57 
   1  -4   4   12.81    0.56 
   1  -4   4   11.50    0.56 
   1  -4   4   11.82    0.45 
  -1   4   4   12.20    0.56 
   1  -4   4   12.46    0.66 
  -4  -1   4   10.31    0.59 
   0   4  -4  309.51   16.72 
  -4   0  -4  311.92   11.53 
   0   4  -4  296.18   11.43 
   4   0  -4  314.32   11.56 
   4   0   4  313.96   11.46 
   0   4   4  324.13   11.41 
   0  -4   4  318.01    9.04 
   0  -4   4  318.07   12.63 
   0   4   4  323.25   16.64 
  -4   0   4  321.51   11.44 
  -4   0   4  341.75    9.07 
   0  -4   4  325.05   14.87 
   1   4  -4   11.63    0.53 
  -4   1  -4   14.14    0.58 
   1   4  -4   11.83    0.91 
   1   4  -4   13.18    0.90 
   4  -1  -4   11.00    0.58 
   1   4   4   12.34    0.84 
  -1  -4   4   12.21    0.42 
   4  -1   4   12.13    0.59 
   1   4   4   12.09    0.52 
  -4   1   4   11.30    0.57 
  -4   1   4   11.54    0.47 
   2   4  -4  198.51   10.83 
   4  -2  -4  205.84    8.20 
   4  -2  -4  208.52    7.44 
   2   4  -4  209.40   10.78 
  -4   2  -4  204.16    7.42 
   2   4   4  204.96    7.35 
  -4   2   4  222.59    7.43 
   2   4   4  201.00   10.73 
   4  -2   4  194.06    7.42 
  -2  -4   4  196.87    5.82 
   4  -2   4  201.96    5.86 
   3   4  -4    4.20    0.28 
   3   4  -4    4.09    0.52 
   4  -3  -4    3.73    0.30 
  -4   3  -4    4.63    0.34 
   3   4  -4    3.49    0.49 
   4  -3  -4    3.65    0.32 
  -3  -4   4    3.99    0.21 
   4  -3   4    4.64    0.27 
   3   4   4    4.08    0.25 
   4  -3   4    4.08    0.32 
   4  -3   4    4.02    0.35 
   3   4   4    4.33    0.50 
  -4   3   4    3.92    0.34 
  -4   4  -4  156.35    6.25 
   4   4  -4  188.50    9.14 
   4  -4  -4  167.33    6.84 
   4   4  -4  171.89    6.17 
  -4   4   4  168.64    6.24 
   4  -4   4  159.54    6.20 
  -4  -4   4  167.56    4.87 
   4   4   4  186.70    9.09 
   4  -4   4  168.22    6.88 
   4  -4   4  165.11    4.92 
   5   4  -4   11.96    0.61 
   4  -5  -4   13.33    0.66 
  -4   5  -4   13.79    0.72 
   5   4   4   12.56    0.59 
  -5  -4   4   12.25    0.48 
   5   4   4   14.39    1.08 
  -4   5   4   12.93    0.72 
   4  -5   4   13.33    0.55 
   4  -5   4   13.24    0.69 
  -5  -3  -4  115.92    5.72 
  -3   5  -4  111.68    4.52 
   5   3  -4  124.75    4.47 
   3  -5  -4  123.10    4.90 
   3  -5   4  123.39    3.56 
  -5  -3   4  119.00    3.52 
   3  -5   4  118.12    4.92 
  -3   5   4  122.94    4.51 
   5   3   4  134.05    6.69 
   2  -5  -4    2.89    0.31 
   2  -5  -4    2.85    0.19 
  -2   5  -4    2.54    0.58 
   5   2  -4    2.07    0.27 
  -2   5  -4    2.42    0.29 
  -2   5   4    2.48    0.52 
   2  -5   4    2.26    0.21 
   5   2   4    2.23    0.26 
  -5  -2   4    2.48    0.23 
  -2   5   4    2.13    0.30 
  -5  -2   4    2.12    0.21 
   2  -5   4    2.68    0.23 
   2  -5   4    2.73    0.30 
   2  -5   4    2.94    0.23 
  -5  -2   4    2.14    0.23 
  -5  -1  -4  158.13    6.21 
   1  -5  -4  154.39    7.25 
   5   1  -4  160.68    5.67 
  -1   5  -4  143.02    8.38 
  -1   5  -4  149.42    5.64 
   1  -5  -4  161.28    7.25 
  -1   5   4  159.87    5.63 
  -5  -1   4  156.79    6.24 
  -5  -1   4  163.59    4.48 
   1  -5   4  152.61    6.14 
  -1   5   4  146.88    8.26 
   1  -5   4  152.70    4.45 
   1  -5   4  153.40    7.27 
   5   1   4  151.34    5.65 
   1  -5   4  154.24    6.14 
   0   5  -4   18.58    0.83 
  -5   0  -4   23.18    0.86 
   0   5  -4   18.96    1.38 
   5   0  -4   19.54    0.88 
   0  -5   4   21.16    0.66 
   0   5   4   20.93    0.83 
   5   0   4   20.23    0.89 
  -5   0   4   20.22    0.70 
  -5   0   4   19.91    0.86 
   0   5   4   19.34    1.28 
   1   5  -4  155.54    8.32 
   5  -1  -4  156.01    5.69 
  -5   1  -4  153.43    5.66 
   1   5  -4  153.10    5.62 
   1   5   4  151.83    5.59 
   1   5   4  151.06    8.20 
  -5   1   4  159.42    5.67 
  -5   1   4  163.36    4.51 
   5  -1   4  151.52    5.69 
  -1  -5   4  154.76    4.44 
   2   5  -4    2.77    0.44 
   2   5  -4    2.63    0.25 
   5  -2  -4    2.17    0.28 
   2   5  -4    2.94    0.46 
  -5   2  -4    3.28    0.30 
   2   5   4    2.53    0.37 
   2   5   4    2.71    0.37 
  -5   2   4    2.12    0.30 
   5  -2   4    2.46    0.30 
  -2  -5   4    2.98    0.18 
   3   5  -4  121.35    6.66 
   3   5  -4  123.69    6.60 
  -5   3  -4  121.24    4.56 
   5  -3  -4  121.49    4.57 
   5  -3   4  119.71    4.55 
  -3  -5   4  115.66    3.52 
   3   5   4  125.68    6.56 
  -5   3   4  132.34    4.58 
  -5   4  -4   14.55    0.73 
   4   5  -4   13.67    1.05 
   5  -4  -4   12.74    0.70 
   5  -4  -4   13.55    0.69 
   4   5   4   14.49    1.00 
   5  -4   4   13.06    0.56 
   5  -4   4   13.31    0.68 
  -5   4   4   12.19    0.70 
  -4  -5   4   13.06    0.47 
   5  -5  -4   93.73    3.87 
  -5   5  -4   88.74    3.60 
   5   5  -4   92.11    3.47 
   5  -5   4   93.09    2.82 
  -5   5   4   95.20    3.60 
  -5  -5   4   94.90    2.74 
   5  -5   4   92.62    3.90 
   5   5   4   99.80    5.21 
   6   5  -4    0.92    0.17 
   5  -6  -4    1.05    0.18 
  -5   6  -4    1.43    0.28 
  -5   6   4    0.55    0.24 
  -6  -5   4    1.60    0.22 
   5  -6   4    1.17    0.21 
   5  -6   4    1.01    0.20 
  -4   6  -4   96.46    3.73 
   4  -6  -4   95.49    3.94 
   6   4  -4   97.72    3.63 
   4  -6   4   92.96    3.96 
  -6  -4   4   95.17    2.85 
  -4   6   4  104.54    3.72 
   4  -6   4   95.83    2.91 
   6   3  -4    9.28    0.54 
   3  -6  -4   10.03    0.46 
  -3   6  -4    9.98    0.61 
   6   3   4    9.50    0.52 
  -3   6   4    8.23    0.57 
   3  -6   4   10.42    0.51 
   3  -6   4    9.73    0.49 
   3  -6   4    9.19    0.45 
  -6  -3   4    8.64    0.41 
   2  -6  -4  140.62    6.54 
  -2   6  -4  125.17    7.67 
  -6  -2  -4  147.62    5.52 
   6   2  -4  141.53    5.10 
  -2   6  -4  128.45    5.09 
   6   2   4  135.47    5.07 
   2  -6   4  132.98    4.02 
  -2   6   4  133.19    7.54 
  -6  -2   4  139.15    4.02 
  -6  -2   4  142.25    5.57 
  -6  -2   4  151.42    5.55 
   2  -6   4  132.26    6.53 
  -2   6   4  140.78    5.10 
   1  -6  -4    5.99    0.37 
   1  -6  -4    6.17    0.38 
  -1   6  -4    5.41    0.38 
   6   1  -4    5.39    0.40 
  -1   6  -4    4.70    0.71 
  -6  -1   4    5.42    0.33 
   1  -6   4    5.74    0.40 
  -1   6   4    4.71    0.38 
  -1   6   4    4.79    0.64 
   1  -6   4    5.44    0.31 
   6   1   4    5.93    0.40 
  -6  -1   4    5.44    0.39 
   0   6  -4  127.91    7.25 
   6   0  -4  132.89    4.91 
   0   6  -4  130.45    4.84 
   0  -6   4  131.58    6.22 
  -6   0   4  140.13    3.89 
   0   6   4  124.52    7.11 
   6   0   4  130.59    4.90 
   0   6   4  135.74    4.83 
   0  -6   4  137.60    3.83 
   1   6  -4    5.27    0.64 
   6  -1  -4    5.09    0.40 
  -1  -6   4    5.51    0.26 
   6  -1   4    5.21    0.41 
  -6   1   4    5.78    0.35 
  -6   1   4    4.90    0.39 
   1   6   4    5.17    0.53 
   6  -2  -4  137.37    4.96 
  -6   2  -4  133.61    4.93 
   2   6  -4  130.75    7.21 
  -6   2   4  140.97    4.94 
   6  -2   4  136.78    4.95 
   2   6   4  129.60    7.05 
   2   6   4  122.66    7.04 
  -2  -6   4  131.48    3.82 
   3   6  -4    9.79    0.83 
   6  -3  -4    9.05    0.57 
  -6   3  -4   11.04    0.59 
   3   6  -4    9.61    0.85 
   3   6   4    9.75    0.74 
   6  -3   4    9.93    0.59 
   3   6   4    8.83    0.70 
  -6   3   4    8.69    0.58 
   6  -4  -4   97.69    3.75 
  -6   4  -4   98.79    3.77 
   4   6  -4   98.88    5.43 
  -4  -6   4   95.06    2.85 
   6  -4   4   96.95    3.74 
   4   6   4  102.09    5.34 
  -6   4   4  100.18    3.77 
   6  -5  -4    1.49    0.29 
  -6   5  -4    1.77    0.29 
   5   6   4    1.33    0.35 
  -5  -6   4    1.76    0.20 
  -6   5   4    0.92    0.25 
   6  -6  -4   64.06    2.82 
  -6   6  -4   66.57    2.71 
   6  -6   4   68.02    2.10 
   6  -6   4   64.96    2.85 
  -6   6   4   68.59    2.69 
  -6  -6   4   66.59    1.98 
   6  -7  -4    4.39    0.37 
  -6   7   4    3.68    0.50 
  -7  -6   4    4.25    0.29 
   6  -7   4    4.42    0.42 
   6  -7   4    4.15    0.39 
   5  -7  -4   49.22    2.17 
  -5   7  -4   53.63    2.22 
   5  -7   4   52.09    1.69 
   5  -7   4   51.74    2.21 
  -5   7   4   55.81    2.19 
  -7  -5   4   50.18    1.60 
  -4   7  -4    1.39    0.28 
   7   4  -4    0.71    0.18 
   4  -7   4    1.14    0.18 
  -7  -4   4    0.67    0.15 
  -4   7   4    0.58    0.24 
   7   4   4    0.95    0.18 
   4  -7   4    1.04    0.21 
   7   3  -4   74.61    2.88 
  -3   7  -4   72.91    2.92 
  -3   7   4   77.15    2.92 
   3  -7   4   75.27    2.29 
  -7  -3   4   75.48    2.26 
   7   3   4   73.40    2.84 
   7   2  -4    9.65    0.59 
   2  -7  -4   10.74    0.66 
  -2   7  -4   10.80    0.62 
  -7  -2   4    8.98    0.46 
   7   2   4   10.38    0.58 
   2  -7   4   10.51    0.47 
  -7  -2   4    9.03    0.52 
  -7  -2   4   10.19    0.52 
  -2   7   4    8.98    0.59 
   2  -7   4    9.77    0.64 
  -2   7   4    8.36    0.99 
  -1   7  -4   85.23    3.29 
   7   1  -4   92.71    3.36 
  -1   7  -4   82.19    5.08 
   1  -7  -4   83.29    4.16 
  -7  -1   4   90.44    2.64 
   7   1   4   92.88    3.33 
  -7  -1   4   89.41    3.62 
  -1   7   4   85.02    4.94 
   1  -7   4   87.28    2.59 
  -1   7   4   89.31    3.29 
   1  -7   4   83.39    4.18 
   0   7  -4    1.61    0.44 
   7   0  -4    1.07    0.21 
   0   7  -4    1.62    0.26 
   0   7   4    1.37    0.35 
   0  -7   4    1.77    0.21 
  -7   0   4    1.03    0.18 
   7   0   4    1.13    0.21 
  -7   0   4    0.90    0.20 
   7  -1  -4   91.84    3.44 
   1   7  -4   84.74    5.03 
  -7   1   4   93.79    3.40 
   1   7   4   85.32    4.88 
   7  -1   4   92.44    3.43 
  -1  -7   4   88.37    2.61 
   2   7  -4   10.44    0.93 
   7  -2  -4   10.25    0.62 
  -7   2  -4   11.39    0.60 
   7  -2   4   10.06    0.63 
  -2  -7   4   10.61    0.39 
   2   7   4    9.61    0.74 
   2   7   4    9.49    0.77 
  -7   2   4    9.23    0.61 
   3   7  -4   72.91    4.31 
   7  -3  -4   76.48    2.97 
  -7   3  -4   73.08    2.95 
   7  -3   4   76.84    2.98 
  -7   3   4   81.60    2.99 
  -7   4  -4    1.61    0.26 
   4   7  -4    1.11    0.34 
   7  -4  -4    0.87    0.22 
  -4  -7   4    1.39    0.17 
  -7   4   4    0.51    0.22 
   7  -4   4    0.88    0.23 
  -7   5  -4   53.39    2.23 
  -7   5   4   53.62    2.22 
   7  -6  -4    4.58    0.44 
  -7   6  -4    5.72    0.56 
  -7   6   4    3.42    0.52 
  -6  -7   4    4.47    0.27 
  -7   7  -4   32.53    1.57 
  -7   7   4   33.93    1.56 
  -7  -7   4   32.59    1.05 
  -6   8  -4   33.60    1.65 
   6  -8   4   36.17    1.28 
  -6   8   4   37.08    1.65 
  -5   8  -4    3.92    0.50 
  -5   8   4    2.08    0.36 
  -8  -5   4    2.83    0.28 
   5  -8   4    3.67    0.40 
   8   4  -4   54.23    2.15 
  -4   8  -4   52.05    2.24 
  -8  -4   4   52.58    1.68 
   4  -8   4   54.69    1.75 
  -4   8   4   54.92    2.22 
  -3   8  -4    1.55    0.28 
   8   3  -4    1.16    0.23 
   3  -8   4    1.46    0.22 
  -3   8   4    0.98    0.25 
   8   3   4    1.42    0.23 
  -8  -3   4    1.25    0.19 
   8   2  -4   69.29    2.67 
   2  -8  -4   64.83    3.31 
  -2   8  -4   63.68    2.62 
   2  -8   4   65.78    2.07 
  -8  -2   4   68.22    2.76 
  -2   8   4   66.94    2.63 
  -8  -2   4   75.42    2.76 
  -8  -2   4   64.06    2.07 
  -1   8  -4    4.61    0.82 
  -1   8  -4    4.59    0.39 
   8   1  -4    3.44    0.41 
   1  -8  -4    4.22    0.36 
   1  -8   4    3.86    0.40 
   1  -8   4    4.13    0.30 
  -8  -1   4    3.28    0.35 
  -8  -1   4    3.25    0.32 
  -1   8   4    3.04    0.65 
   8   1   4    3.99    0.40 
   0   8  -4   76.90    4.57 
   8   0  -4   80.28    3.05 
   8   0   4   79.67    3.03 
   0   8   4   72.52    4.42 
   0  -8   4   74.45    3.73 
  -8   0   4   81.12    3.30 
   0  -8   4   79.49    2.31 
   8  -1  -4    4.08    0.43 
  -1  -8   4    4.33    0.26 
   8  -1   4    4.67    0.45 
   8  -2  -4   64.77    2.69 
   8  -2   4   69.48    2.71 
  -8   2   4   69.68    2.68 
   8  -3  -4    1.48    0.26 
  -8   3   4    1.21    0.25 
   8  -3   4    1.33    0.26 
  -8   4  -4   53.79    2.28 
   8  -4  -4   55.08    2.28 
  -8   4   4   57.39    2.31 
   8  -4   4   56.67    2.30 
  -8   5   4    2.91    0.47 
  -8   6  -4   34.85    1.64 
  -8   6   4   36.36    1.65 
  -5   9  -4   25.59    1.32 
   5  -9   4   28.00    1.04 
  -5   9   4   27.62    1.33 
   9   4  -4    3.64    0.41 
  -4   9  -4    3.76    0.48 
   9   4   4    4.19    0.43 
   4  -9   4    3.88    0.39 
  -4   9   4    2.77    0.45 
   9   3  -4   34.87    1.48 
  -3   9  -4   32.84    1.49 
  -3   9   4   31.91    1.46 
   3  -9   4   35.16    1.18 
   9   2  -4    0.59    0.21 
   2  -9  -4    0.89    0.23 
  -2   9  -4    0.98    0.22 
   9   2   4    0.88    0.23 
   2  -9   4    0.85    0.19 
   1  -9  -4   39.91    2.12 
   9   1  -4   45.30    1.81 
  -9  -1   4   45.11    1.85 
   1  -9   4   42.54    1.35 
   1  -9   4   37.75    2.13 
   9   0  -4    4.53    0.46 
   0  -9   4    4.54    0.42 
   0  -9   4    4.97    0.30 
  -9   0   4    4.06    0.43 
   9   0   4    4.99    0.48 
   9  -1  -4   43.51    1.84 
  -1  -9   4   42.04    1.31 
   9  -1   4   42.89    1.82 
   9  -2  -4    0.68    0.22 
   9  -2   4    1.01    0.26 
   9  -3  -4   35.83    1.60 
   9  -3   4   36.54    1.62 
  -9   4  -4    4.64    0.48 
   9  -4   4    4.01    0.49 
  -9   4   4    3.22    0.49 
  -9   5  -4   26.48    1.32 
  -9   5   4   28.70    1.36 
  10   2  -4   31.92    1.42 
   2 -10   4   30.75    1.08 
  10   1  -4    1.30    0.27 
   1 -10  -4    1.73    0.36 
  10   1   4    1.16    0.27 
   1 -10   4    1.33    0.20 
  10   0  -4   33.18    1.41 
   0 -10  -4   27.98    1.54 
   0 -10   4   28.23    1.58 
   0 -10   4   31.01    0.98 
  10  -1  -4    1.22    0.26 
  -1 -10   4    1.42    0.29 
  10  -1   4    1.29    0.28 
  -1 -10   4    1.82    0.22 
  10  -2  -4   30.75    1.45 
  10  -2   4   32.33    1.47 
   0   0  -5  387.68   16.00 
   0   0  -5  402.05   20.84 
   0   0   5  386.85   20.92 
   0   0   5  417.81   20.84 
  -1   0  -5  465.81   24.54 
   1   0  -5  476.87   24.43 
   1   0  -5  464.40   24.41 
   1   0  -5  475.06   16.80 
   0  -1  -5  466.86   18.64 
   0   1  -5  463.17   24.31 
   0   1  -5  442.02   16.78 
   0  -1   5  429.00   18.58 
  -1   0   5  425.94   18.55 
   1   0   5  459.20   16.76 
  -1   0   5  523.21   24.23 
   0   1   5  462.65   16.75 
   0  -1   5  459.16   24.24 
  -1   0   5  481.69   16.76 
   1   0   5  464.55   16.76 
   0   1   5  465.10   24.22 
   0   1   5  468.80   24.18 
  -1   0   5  447.89   24.13 
  -1   1  -5   48.79    2.75 
  -1  -1  -5   46.70    1.98 
   1  -1  -5   49.81    1.98 
   1   1  -5   46.81    2.75 
   1   1  -5   48.25    2.69 
  -1   1  -5   46.91    1.80 
   1   1  -5   45.34    1.80 
   1  -1   5   48.41    1.80 
  -1   1   5   50.02    1.80 
   1  -1   5   46.33    2.00 
   1  -1   5   47.84    2.70 
   1   1   5   49.17    1.80 
   1   1   5   49.01    2.73 
   1  -1   5   48.22    1.80 
  -1  -1   5   44.89    1.99 
  -1   1   5   51.28    2.75 
   1   1   5   48.66    1.80 
  -1   1   5   49.05    2.71 
   2   1  -5  452.54   22.86 
   1  -2  -5  439.52   17.39 
   2   1  -5  435.54   15.66 
  -1   2  -5  420.65   22.58 
  -1   2  -5  402.17   15.65 
   2   1  -5  438.12   22.59 
  -2  -1  -5  435.03   17.35 
  -1   2   5  438.22   15.59 
  -2  -1   5  415.26   17.29 
  -2  -1   5  439.77   17.24 
  -1   2   5  432.40   22.52 
  -2  -1   5  415.45   12.30 
   2   1   5  440.39   15.62 
   2   1   5  443.71   22.56 
   1  -2   5  425.57   17.29 
   0   2  -5    3.97    0.26 
   2   0  -5    4.18    0.42 
   2   0  -5    4.69    0.29 
   0   2  -5    4.46    0.50 
  -2   0   5    4.19    0.29 
   0   2   5    4.86    0.48 
   0  -2   5    5.00    0.28 
   0  -2   5    4.14    0.28 
  -2   0   5    4.60    0.27 
   0   2   5    5.14    0.27 
   0  -2   5    4.71    0.22 
   0   2   5    4.93    0.50 
   2   0   5    4.60    0.28 
  -2   0   5    4.59    0.45 
  -2   1  -5  445.38   22.84 
   1   2  -5  427.90   15.81 
   1   2  -5  418.17   22.97 
   2  -1  -5  447.55   17.57 
   2  -1  -5  435.80   15.84 
   1   2  -5  433.72   22.84 
  -2   1  -5  425.91   15.81 
   2  -1   5  441.26   17.36 
  -1  -2   5  431.76   17.48 
  -2   1   5  469.28   22.87 
   1   2   5  442.85   22.76 
  -2   1   5  442.57   22.78 
   1   2   5  439.87   15.70 
   1   2   5  429.54   22.78 
  -1  -2   5  404.09   17.46 
   2  -1   5  430.48   22.82 
  -1  -2   5  421.50   12.45 
  -2   1   5  470.76   15.84 
  -2   2  -5  100.16    3.90 
   2   2  -5  106.27    3.89 
   2   2  -5  104.81    5.79 
  -2   2  -5  106.20    5.81 
   2  -2  -5  110.74    3.90 
  -2  -2  -5  111.04    4.99 
   2   2  -5  107.40    5.72 
   2  -2  -5  109.28    4.29 
   2   2   5  109.29    3.88 
  -2   2   5  107.08    3.90 
  -2  -2   5  103.23    3.07 
   2  -2   5  104.50    3.89 
  -2  -2   5  107.10    4.27 
  -2   2   5  106.57    5.75 
   2  -2   5  106.08    3.08 
   2   2   5  109.47    5.75 
  -2  -2   5  100.56    4.28 
   2  -2   5  104.15    4.32 
  -3  -2  -5  314.49   12.71 
   2  -3  -5  323.89   12.79 
   3   2  -5  338.31   11.45 
   2  -3  -5  329.70   11.45 
   2  -3  -5  305.45   14.87 
   3   2  -5  334.91   16.72 
  -3  -2  -5  309.62   14.88 
  -2   3  -5  286.34   16.76 
  -2   3  -5  280.06   11.45 
  -3  -2   5  337.31   12.65 
   3   2   5  339.82   16.72 
  -3  -2   5  313.33    9.07 
   2  -3   5  318.89   12.68 
  -2   3   5  330.71   16.73 
   3   2   5  315.39   11.42 
   2  -3   5  315.27    9.06 
  -2   3   5  322.16   11.45 
   2  -3   5  298.00   11.42 
  -3  -2   5  325.70   12.75 
   3   1  -5   15.91    1.12 
  -3  -1  -5   19.01    0.77 
   1  -3  -5   15.92    0.86 
  -1   3  -5   15.36    0.71 
   3   1  -5   16.27    0.71 
   1  -3  -5   17.74    0.74 
  -1   3  -5   15.14    1.17 
   3   1   5   17.98    1.17 
  -1   3   5   16.83    1.13 
  -3  -1   5   16.65    0.56 
   1  -3   5   17.02    0.87 
  -3  -1   5   15.53    0.68 
   1  -3   5   15.72    0.76 
   1  -3   5   17.21    0.75 
  -1   3   5   16.79    0.70 
   3   1   5   16.34    0.70 
  -3  -1   5   15.82    0.77 
  -3  -1   5   16.13    0.75 
   1  -3   5   16.89    0.57 
   3   0  -5  354.44   12.91 
  -3   0  -5  356.00   12.87 
   0  -3  -5  350.31   16.62 
   0  -3  -5  365.32   16.67 
   3   0  -5  334.65   18.60 
   0   3  -5  338.93   12.81 
   0   3  -5  340.42   18.64 
   0   3   5  368.37   12.77 
   0  -3   5  348.50   14.17 
   0   3   5  354.67   18.58 
   3   0   5  344.52   12.88 
  -3   0   5  375.84   12.84 
   3   0   5  373.79   18.66 
  -3   0   5  351.18   14.18 
  -3   0   5  365.03   10.10 
   0  -3   5  355.36   14.21 
   0  -3   5  363.70   16.66 
   0  -3   5  352.41   10.11 
  -3   1  -5   17.03    0.70 
   3  -1  -5   16.96    0.77 
   1   3  -5   15.59    0.69 
   1   3  -5   15.80    1.15 
   3  -1  -5   15.76    0.71 
   1   3  -5   16.54    1.11 
   1   3   5   16.53    0.68 
   1   3   5   15.90    1.08 
   3  -1   5   17.53    0.81 
   3  -1   5   16.16    0.71 
  -1  -3   5   15.94    0.72 
  -1  -3   5   16.09    0.55 
  -1  -3   5   16.39    0.71 
  -1  -3   5   16.43    0.82 
  -3   1   5   15.01    1.10 
  -3   1   5   17.40    0.71 
   1   3   5   16.96    1.09 
   3  -2  -5  324.47   11.53 
   2   3  -5  326.56   16.76 
  -3   2  -5  304.03   11.58 
   2   3  -5  325.58   11.53 
   3  -2  -5  323.53   12.91 
   2   3  -5  325.43   16.85 
  -3   2   5  336.35   11.53 
  -2  -3   5  317.46   12.70 
   3  -2   5  315.37    9.11 
   2   3   5  321.34   16.76 
   2   3   5  312.54   11.48 
  -2  -3   5  304.20    9.15 
   3  -2   5  321.15   12.78 
   3  -2   5  311.94   11.52 
   2   3   5  317.00   11.48 
  -3   2   5  316.65   16.82 
  -2  -3   5  333.49   12.69 
   3   3  -5   19.75    1.39 
   3   3  -5   20.32    0.85 
   3  -3  -5   20.75    0.92 
  -3   3  -5   20.10    0.89 
   3  -3  -5   21.37    0.89 
   3   3  -5   20.50    1.36 
  -3   3   5   20.67    0.88 
   3   3   5   20.45    0.83 
   3  -3   5   19.58    0.86 
  -3  -3   5   19.12    0.85 
   3   3   5   21.26    1.36 
   3  -3   5   20.97    0.70 
   3  -3   5   20.05    0.96 
  -3  -3   5   19.27    0.66 
  -3  -3   5   20.73    0.85 
   3  -4  -5  197.80    7.91 
   4   3  -5  208.43   10.59 
  -3   4  -5  179.51    7.21 
  -4  -3  -5  198.31    9.25 
   4   3  -5  202.40    7.17 
   3  -4   5  185.98    5.69 
   3  -4   5  182.31    7.16 
  -4  -3   5  205.34    7.84 
   4   3   5  219.02   10.58 
   3  -4   5  197.28    7.95 
  -3   4   5  204.07    7.21 
  -4  -3   5  190.20    5.66 
   2  -4  -5   11.03    0.65 
   4   2  -5   10.11    0.53 
  -2   4  -5   10.60    0.56 
   2  -4  -5   11.47    0.53 
  -2   4  -5   10.81    0.98 
  -2   4   5   10.40    0.90 
   2  -4   5   11.29    0.64 
   2  -4   5   10.00    0.55 
  -2   4   5   10.98    0.55 
   4   2   5   10.86    0.52 
   4   2   5   12.32    0.94 
  -4  -2   5   10.55    0.52 
  -4  -2   5    9.96    0.41 
  -4  -2   5   10.24    0.54 
   2  -4   5   10.68    0.44 
  -1   4  -5  261.83    9.50 
   1  -4  -5  287.57   12.34 
  -4  -1  -5  267.67   10.49 
   1  -4  -5  256.22   12.29 
  -1   4  -5  242.84   13.94 
   4   1  -5  263.19    9.50 
  -1   4   5  273.11   13.88 
   1  -4   5  250.56   10.47 
  -4  -1   5  263.08   10.52 
  -4  -1   5  264.92    9.47 
   1  -4   5  263.25   12.30 
  -1   4   5  259.48    9.48 
   4   1   5  261.00    9.50 
  -4  -1   5  270.05    7.51 
   1  -4   5  262.61   10.47 
   1  -4   5  259.26    7.51 
   0   4  -5   70.35    4.10 
   4   0  -5   72.12    2.74 
  -4   0  -5   76.34    2.71 
   0   4  -5   70.93    2.71 
  -4   0   5   69.54    3.02 
   0   4   5   73.29    2.69 
  -4   0   5   74.09    2.72 
   0  -4   5   73.47    3.45 
  -4   0   5   75.04    2.17 
   0  -4   5   73.97    2.14 
   4   0   5   72.80    2.74 
   0   4   5   72.95    4.02 
   0  -4   5   73.70    2.93 
   0  -4   5   71.57    2.94 
   1   4  -5  253.59   13.84 
   1   4  -5  272.54   13.80 
   1   4  -5  263.15    9.43 
  -4   1  -5  247.34    9.44 
   4  -1  -5  266.91    9.47 
   1   4   5  266.24    9.41 
   1   4   5  253.47   13.73 
   1   4   5  264.67   13.75 
  -4   1   5  279.01    9.46 
   4  -1   5  253.78    9.47 
  -1  -4   5  248.74    7.45 
  -4   1   5  271.82    7.49 
  -1  -4   5  259.69   12.20 
   2   4  -5   10.78    0.52 
   2   4  -5   10.86    0.86 
   4  -2  -5   10.73    0.58 
  -4   2  -5   11.91    0.56 
   4  -2  -5   10.30    0.55 
   2   4  -5   10.55    0.91 
   2   4   5   10.77    0.83 
   2   4   5   10.96    0.49 
  -2  -4   5   11.25    0.40 
  -4   2   5   10.12    0.55 
   4  -2   5   10.82    0.43 
   4  -2   5   10.48    0.55 
   3   4  -5  194.10   10.54 
   3   4  -5  208.07    7.15 
   4  -3  -5  199.40    7.93 
   4  -3  -5  194.78    7.20 
  -4   3  -5  188.18    7.20 
   3   4  -5  202.54   10.49 
   4  -3   5  202.99    7.97 
   4  -3   5  193.31    5.68 
  -4   3   5  212.10    7.21 
  -3  -4   5  184.53    5.63 
   3   4   5  205.36   10.48 
   4  -3   5  190.00    7.18 
   3   4   5  192.14    7.11 
   3   4   5  192.61    7.11 
   4   4  -5   40.90    2.47 
   4  -4  -5   42.26    1.75 
   4   4  -5   40.46    1.58 
  -4   4  -5   41.40    1.67 
   4  -4   5   38.63    1.61 
  -4   4   5   40.89    1.65 
  -4  -4   5   38.94    1.24 
   4   4   5   42.37    2.43 
   4  -4   5   41.68    1.79 
   4   4   5   39.18    1.55 
   4  -4   5   39.42    1.29 
   5   4  -5  133.13    4.58 
   4  -5  -5  123.94    5.04 
  -4   5  -5  115.71    4.66 
  -5  -4  -5  118.83    5.84 
  -4   5   5  133.47    4.66 
   5   4   5  120.70    4.53 
  -5  -4   5  123.65    3.60 
   4  -5   5  121.86    3.66 
   4  -5   5  124.27    5.07 
   3  -5  -5   14.72    0.67 
   5   3  -5   13.52    0.67 
  -3   5  -5   14.11    0.73 
   3  -5   5   14.01    0.56 
   3  -5   5   13.35    0.69 
  -3   5   5   14.14    0.72 
   5   3   5   14.28    0.65 
  -5  -3   5   13.20    0.51 
  -2   5  -5  160.76    6.25 
   2  -5  -5  168.19    6.80 
   5   2  -5  177.77    6.24 
   2  -5  -5  170.73    8.05 
  -5  -2  -5  180.81    6.81 
  -2   5  -5  155.28    9.30 
   2  -5   5  166.23    4.93 
  -5  -2   5  185.30    6.84 
  -2   5   5  177.57    6.24 
  -5  -2   5  173.90    4.92 
   2  -5   5  171.20    6.83 
   2  -5   5  169.24    6.83 
   2  -5   5  167.06    8.04 
  -2   5   5  159.94    9.17 
  -5  -2   5  171.78    6.85 
   5   1  -5   17.49    0.83 
  -1   5  -5   17.77    1.40 
  -1   5  -5   18.81    0.83 
   1  -5  -5   20.64    0.98 
   1  -5  -5   19.63    0.97 
   1  -5   5   18.48    0.65 
   1  -5   5   18.44    0.80 
   1  -5   5   18.57    0.98 
  -5  -1   5   18.54    0.66 
   5   1   5   18.72    0.83 
  -5  -1   5   17.46    0.88 
  -1   5   5   18.80    0.81 
   1  -5   5   18.64    0.80 
  -1   5   5   18.25    1.30 
   5   0  -5  201.78    7.16 
  -5   0  -5  183.19    7.10 
   0   5  -5  189.62   10.52 
   0   5  -5  190.41    7.11 
   0  -5   5  198.21    9.18 
   0   5   5  192.34   10.40 
   0  -5   5  192.31    5.62 
  -5   0   5  210.69    5.67 
   5   0   5  193.58    7.15 
  -5   0   5  200.15    7.91 
   0   5   5  199.20    7.09 
  -5   0   5  200.27    7.12 
   5  -1  -5   17.37    0.82 
  -5   1  -5   19.67    0.80 
   1   5  -5   17.29    1.29 
  -1  -5   5   18.39    0.60 
   1   5   5   18.20    0.74 
   5  -1   5   17.74    0.82 
  -5   1   5   17.94    0.81 
  -5   1   5   17.71    0.65 
   1   5   5   17.74    1.19 
   1   5   5   17.42    1.18 
  -5   2  -5  168.31    6.17 
   2   5  -5  168.39    9.08 
   2   5  -5  167.89    6.12 
   2   5  -5  170.33    9.01 
   5  -2  -5  169.82    6.19 
  -2  -5   5  165.97    4.83 
   2   5   5  166.92    8.94 
   5  -2   5  165.93    6.18 
  -5   2   5  179.64    6.18 
   2   5   5  160.18    8.93 
   3   5  -5   14.57    1.11 
   3   5  -5   14.41    1.13 
   5  -3  -5   14.49    0.74 
  -5   3  -5   16.27    0.75 
   5  -3   5   13.75    0.71 
   3   5   5   14.70    1.05 
  -3  -5   5   14.64    0.51 
  -5   3   5   13.35    0.73 
   4   5  -5  129.88    4.62 
   5  -4  -5  123.45    5.14 
   4   5  -5  133.00    6.90 
  -5   4  -5  119.84    4.71 
   5  -4   5  125.15    3.71 
  -5   4   5  126.08    4.71 
   4   5   5  133.54    6.84 
  -4  -5   5  121.34    3.64 
   5  -4   5  120.55    4.68 
   5  -5  -5    8.94    0.54 
  -5   5  -5    9.30    0.61 
   5   5  -5    7.67    0.48 
  -5  -5   5    8.40    0.37 
   5  -5   5    8.68    0.46 
   5   5   5    9.31    0.88 
   5  -5   5    8.27    0.56 
  -5   5   5    7.76    0.59 
  -5   6  -5   79.17    3.07 
   6   5  -5   77.32    2.92 
   5  -6  -5   74.15    3.19 
   5  -6   5   76.46    2.38 
  -5   6   5   79.32    3.03 
   5  -6   5   76.64    3.23 
  -6  -5   5   74.53    2.29 
  -4   6  -5    8.18    0.58 
   6   4  -5    6.79    0.47 
   4  -6  -5    8.29    0.45 
   4  -6   5    7.32    0.43 
   4  -6   5    7.49    0.48 
   6   4   5    7.93    0.46 
  -6  -4   5    7.21    0.37 
  -4   6   5    6.81    0.54 
  -3   6  -5  114.46    4.31 
   6   3  -5  119.89    4.26 
   3  -6  -5  109.69    4.57 
  -3   6   5  118.84    4.28 
   3  -6   5  112.83    4.61 
  -6  -3   5  112.57    3.34 
   3  -6   5  108.21    3.37 
   6   2  -5   29.24    1.25 
   2  -6  -5   31.53    1.55 
  -2   6  -5   30.51    1.28 
  -2   6   5   25.76    1.94 
  -6  -2   5   29.59    0.99 
   2  -6   5   29.69    1.23 
   2  -6   5   30.85    1.23 
   2  -6   5   29.79    0.99 
  -2   6   5   29.89    1.26 
   2  -6   5   29.12    1.53 
  -6  -2   5   28.30    1.30 
   6   2   5   30.37    1.24 
  -1   6  -5  134.24    7.57 
   1  -6  -5  138.55    6.42 
   6   1  -5  140.59    5.05 
  -1   6  -5  132.34    5.01 
   1  -6   5  137.55    3.95 
  -1   6   5  130.47    7.38 
  -6  -1   5  139.98    3.98 
   1  -6   5  128.90    6.42 
  -6  -1   5  137.46    5.53 
  -1   6   5  138.41    5.00 
   0   6  -5    9.98    0.96 
   0   6  -5    9.94    0.52 
   6   0  -5    9.05    0.56 
  -6   0   5    9.35    0.58 
   0  -6   5   10.30    0.57 
   6   0   5    9.80    0.56 
  -6   0   5    8.64    0.44 
   0   6   5    9.20    0.82 
   0  -6   5   10.35    0.40 
   0   6   5    9.79    0.50 
  -6   1  -5  133.97    5.06 
   1   6  -5  133.45    7.52 
   1   6  -5  138.31    5.03 
   6  -1  -5  139.58    5.12 
  -6   1   5  146.33    5.09 
   6  -1   5  137.32    5.11 
  -1  -6   5  134.59    3.96 
  -6   1   5  146.48    4.05 
   1   6   5  126.82    7.35 
   6  -2  -5   29.04    1.27 
   2   6  -5   27.99    1.93 
  -6   2  -5   32.40    1.26 
  -2  -6   5   29.67    0.93 
   6  -2   5   30.62    1.28 
  -6   2   5   27.93    1.25 
   2   6   5   29.39    1.79 
   2   6   5   27.58    1.77 
  -6   3  -5  113.35    4.22 
   3   6  -5  109.73    6.13 
   6  -3  -5  111.03    4.22 
   3   6  -5  110.61    6.20 
   3   6   5  107.16    6.02 
   6  -3   5  110.95    4.21 
  -3  -6   5  112.62    3.24 
  -6   3   5  116.58    4.22 
   3   6   5  113.09    6.05 
  -6   4  -5    8.99    0.58 
   6  -4  -5    7.86    0.54 
   6  -4   5    8.09    0.54 
  -6   4   5    6.93    0.55 
  -4  -6   5    7.61    0.34 
   4   6   5    7.63    0.73 
   6  -5  -5   75.51    3.28 
  -6   5  -5   77.76    3.09 
  -5  -6   5   74.75    2.29 
   5   6   5   82.04    4.41 
  -6   5   5   78.85    3.07 
  -6   6  -5    8.45    0.63 
   6  -6  -5    7.44    0.52 
  -6  -6   5    7.29    0.36 
   6  -6   5    7.60    0.55 
  -6   6   5    6.52    0.62 
   6  -6   5    7.39    0.47 
   6  -7  -5   41.26    1.87 
  -6   7  -5   42.97    1.93 
  -6   7   5   45.91    1.91 
  -7  -6   5   43.12    1.36 
   6  -7   5   43.15    1.91 
   6  -7   5   42.95    1.47 
   5  -7  -5    3.13    0.28 
  -5   7  -5    3.96    0.51 
   7   5  -5    2.93    0.35 
   5  -7   5    3.04    0.30 
   5  -7   5    3.09    0.37 
  -5   7   5    2.86    0.48 
  -7  -5   5    2.89    0.28 
  -4   7  -5   67.36    2.75 
   7   4  -5   68.99    2.65 
   4  -7   5   65.10    2.79 
  -4   7   5   68.26    2.71 
   4  -7   5   70.34    2.14 
  -7  -4   5   68.24    2.08 
  -3   7  -5    7.74    0.56 
   7   3  -5    6.84    0.50 
  -7  -3   5    6.72    0.39 
   3  -7   5    7.43    0.43 
  -3   7   5    6.77    0.55 
   7   3   5    7.62    0.48 
  -7  -2  -5   97.43    3.75 
   2  -7  -5   95.48    4.51 
   7   2  -5   94.92    3.56 
  -2   7  -5   89.64    3.56 
   7   2   5   89.63    3.52 
  -2   7   5   90.12    3.54 
  -7  -2   5   94.41    2.80 
   2  -7   5   93.39    2.80 
  -7  -2   5   95.27    3.82 
  -1   7  -5    7.28    0.47 
   7   1  -5    6.46    0.49 
   1  -7  -5    7.76    0.50 
  -1   7  -5    7.19    0.95 
   1  -7   5    7.21    0.38 
  -1   7   5    6.90    0.48 
   7   1   5    6.82    0.49 
  -1   7   5    6.40    0.82 
   1  -7   5    7.47    0.51 
  -7  -1   5    6.83    0.40 
  -7  -1   5    6.56    0.47 
   0   7  -5   97.74    3.72 
   7   0  -5  102.20    3.82 
   0   7  -5   98.84    5.70 
  -7   0   5  106.05    3.01 
   0  -7   5   94.45    4.74 
  -7   0   5  100.91    4.16 
   0  -7   5   99.89    2.93 
   0   7   5   95.74    5.51 
   7   0   5  102.87    3.79 
   1   7  -5    7.02    0.80 
   7  -1  -5    7.14    0.52 
  -7   1   5    6.78    0.49 
   1   7   5    6.27    0.70 
   1   7   5    6.89    0.69 
   7  -1   5    7.07    0.52 
  -1  -7   5    7.27    0.33 
   7  -2  -5   92.61    3.49 
  -7   2  -5   86.35    3.43 
   2   7  -5   89.41    5.15 
  -7   2   5   96.87    3.48 
   2   7   5   89.74    4.95 
  -2  -7   5   92.53    2.65 
   7  -2   5   91.98    3.48 
   2   7   5   84.21    4.92 
   3   7  -5    8.43    0.87 
   7  -3  -5    7.58    0.55 
   3   7   5    7.47    0.72 
  -3  -7   5    8.11    0.34 
  -7   3   5    6.78    0.56 
   7  -3   5    7.47    0.55 
   3   7   5    7.12    0.66 
   7  -4  -5   70.13    2.81 
  -7   4  -5   69.74    2.82 
  -7   4   5   72.92    2.84 
   7  -4   5   71.38    2.81 
  -7   5  -5    3.61    0.45 
  -5  -7   5    2.94    0.22 
  -7   5   5    1.92    0.33 
   7  -6  -5   41.50    1.95 
  -7   6  -5   43.25    1.92 
  -6  -7   5   43.49    1.35 
  -7   6   5   46.42    1.93 
  -7   7  -5    5.07    0.57 
  -7   7   5    3.10    0.52 
  -7  -7   5    3.91    0.29 
  -6   8  -5    5.50    0.58 
   6  -8   5    4.56    0.43 
  -6   8   5    3.77    0.53 
  -8  -6   5    3.87    0.31 
  -5   8  -5   36.49    1.76 
  -8  -5   5   39.91    1.29 
   5  -8   5   40.68    1.38 
  -5   8   5   41.83    1.78 
   8   4  -5    6.45    0.51 
  -4   8  -5    7.70    0.61 
  -4   8   5    5.26    0.55 
   8   4   5    7.57    0.50 
  -8  -4   5    6.50    0.39 
   4  -8   5    7.44    0.46 
   8   3  -5   57.49    2.29 
  -3   8  -5   55.36    2.32 
  -8  -3   5   56.64    1.78 
   3  -8   5   55.18    1.81 
  -3   8   5   58.76    2.31 
  -2   8  -5    6.40    0.50 
   2  -8  -5    6.20    0.54 
   8   2  -5    5.54    0.48 
  -8  -2   5    5.70    0.36 
  -2   8   5    4.79    0.47 
  -8  -2   5    5.15    0.38 
   2  -8   5    5.91    0.38 
   8   2   5    5.99    0.47 
  -8  -2   5    5.43    0.36 
   1  -8  -5   64.47    3.26 
   8   1  -5   70.29    2.68 
  -1   8  -5   62.86    2.58 
  -1   8   5   64.43    3.99 
   1  -8   5   63.99    3.28 
  -8  -1   5   69.11    2.85 
   1  -8   5   67.67    2.05 
   8   1   5   71.23    2.65 
  -8  -1   5   69.61    2.10 
   0   8  -5   10.76    1.14 
   8   0  -5   10.43    0.66 
   0  -8   5   10.58    0.66 
  -8   0   5    9.78    0.66 
   0  -8   5   10.63    0.46 
   8   0   5   11.33    0.67 
   8  -1  -5   66.76    2.68 
  -1  -8   5   65.90    2.00 
   8  -1   5   70.71    2.67 
  -1  -8   5   65.19    3.23 
   8  -2  -5    5.67    0.51 
   8  -2   5    6.24    0.53 
  -2  -8   5    6.77    0.32 
  -8   3  -5   55.85    2.29 
   8  -3  -5   54.99    2.31 
  -8   3   5   58.58    2.31 
   8  -3   5   56.74    2.31 
  -8   4  -5    8.58    0.61 
   8  -4   5    7.75    0.61 
  -8   5  -5   38.93    1.78 
  -8   5   5   42.18    1.81 
  -8   6   5    3.62    0.52 
   9   4  -5   35.33    1.48 
  -4   9  -5   30.93    1.52 
   4  -9   5   33.99    1.20 
  -4   9   5   32.99    1.50 
  -3   9  -5    3.12    0.44 
   9   3  -5    2.56    0.40 
  -3   9   5    2.38    0.41 
   3  -9   5    3.39    0.35 
   9   3   5    2.93    0.41 
   9   2  -5   44.16    1.81 
   9   2   5   41.62    1.76 
   2  -9   5   40.44    1.38 
   9   1  -5    3.94    0.45 
   1  -9  -5    3.91    0.42 
   1  -9   5    3.94    0.32 
   9   1   5    3.97    0.44 
   1  -9   5    3.63    0.42 
  -9  -1   5    3.43    0.37 
   9   0  -5   46.98    1.94 
   0  -9  -5   40.00    2.22 
   0  -9   5   45.43    1.42 
   0  -9   5   43.73    2.28 
  -9   0   5   49.30    2.04 
   9   0   5   46.40    1.91 
   9  -1  -5    3.76    0.43 
   9  -1   5    3.77    0.45 
  -1  -9   5    4.23    0.28 
  -1  -9   5    3.68    0.37 
   9  -2  -5   42.24    1.83 
   9  -2   5   42.27    1.82 
   9  -3  -5    2.28    0.40 
   9  -3   5    3.12    0.45 
  -9   4  -5   31.88    1.52 
  -9   4   5   34.95    1.56 
   9  -4   5   35.15    1.56 
  10   2  -5    4.30    0.47 
  10   2   5    4.74    0.50 
   2 -10   5    4.50    0.37 
   1 -10  -5   27.01    1.56 
  10   1  -5   30.61    1.38 
  10   1   5   29.30    1.34 
   1 -10   5   30.11    1.00 
   0 -10  -5    3.45    0.39 
  10   0  -5    3.50    0.45 
  10   0   5    3.97    0.46 
   0 -10   5    3.83    0.30 
   0 -10   5    3.17    0.41 
  10  -1  -5   30.13    1.36 
  -1 -10   5   26.90    1.49 
  10  -2  -5    4.02    0.49 
  10  -2   5    4.95    0.52 
   0   0  -6  300.99   11.12 
   0   0  -6  305.71   16.07 
   0   0   6  299.19   16.01 
   0   0   6  315.41   16.07 
   0   0   6  306.07   11.07 
   1   0  -6  116.54    4.65 
  -1   0  -6  117.33    6.26 
   0   1  -6  112.48    4.21 
   1   0  -6  116.04    6.18 
   1   0  -6  115.71    6.26 
  -1   0  -6  111.23    4.20 
   0   1  -6  113.91    6.27 
   1   0  -6  115.49    4.21 
   1   0   6  115.00    4.20 
  -1   0   6  113.34    6.18 
  -1   0   6  117.49    4.20 
   0  -1   6  112.47    6.18 
   0  -1   6  118.06    4.20 
  -1   0   6  123.71    6.28 
   1   0   6  115.60    6.21 
   0   1   6  120.44    6.26 
   0   1   6  117.66    6.21 
  -1   0   6  106.72    4.65 
   0   1   6  115.56    4.20 
   0  -1   6  110.12    4.66 
  -1   1  -6  367.48   19.02 
   1   1  -6  342.31   13.11 
  -1  -1  -6  337.96   14.55 
   1   1  -6  379.60   19.05 
   1   1  -6  366.83   19.05 
   1  -1  -6  369.49   14.64 
   1  -1  -6  369.17   13.21 
  -1   1  -6  347.07   13.18 
   1  -1   6  358.54   13.16 
   1  -1   6  347.24   14.45 
  -1   1   6  367.43   18.96 
   1   1   6  367.05   13.11 
  -1   1   6  373.62   13.13 
   1   1   6  365.67   18.96 
  -1  -1   6  366.68   13.11 
   1  -1   6  353.35   13.15 
   1   1   6  381.82   19.01 
  -1  -1   6  357.86   14.46 
   1  -1   6  361.41   18.96 
  -1   2  -6   38.77    2.41 
   2   1  -6   40.18    1.55 
   1  -2  -6   41.04    1.68 
  -2  -1  -6   41.07    1.69 
  -1   2  -6   40.34    1.55 
   2   1  -6   39.78    2.33 
   1  -2  -6   42.51    1.55 
   2   1  -6   38.93    2.41 
  -1   2   6   41.84    2.40 
   1  -2   6   39.73    1.53 
   2   1   6   41.40    2.40 
  -1   2   6   40.23    1.55 
  -2  -1   6   39.60    1.22 
  -2  -1   6   40.02    1.68 
   1  -2   6   39.65    1.53 
   1  -2   6   38.46    1.71 
  -2  -1   6   40.75    1.53 
   1  -2   6   41.13    1.23 
  -1   2   6   41.06    2.37 
  -2  -1   6   38.40    1.71 
   2   1   6   40.36    1.54 
   2   0  -6  314.96   15.59 
   0   2  -6  276.68   10.73 
  -2   0  -6  284.52   10.81 
   0   2  -6  279.28   15.65 
   2   0  -6  313.60   10.79 
  -2   0   6  306.58   15.58 
   0  -2   6  310.09   11.85 
   0   2   6  309.82   15.63 
   2   0   6  299.33   15.64 
   0  -2   6  296.10   10.67 
  -2   0   6  277.37   11.83 
   0   2   6  307.72   15.60 
   0  -2   6  293.17    8.45 
  -2   0   6  314.61   10.71 
   0  -2   6  273.35   11.85 
   2   0   6  292.95   10.79 
   0   2   6  297.27   10.68 
  -2   1  -6   40.59    2.42 
   1   2  -6   37.60    1.56 
   1   2  -6   41.06    2.38 
   2  -1  -6   41.03    1.72 
  -2   1  -6   42.83    1.57 
   2  -1  -6   43.28    1.58 
   1   2  -6   37.74    2.42 
   2  -1   6   41.39    1.57 
   2  -1   6   42.27    2.43 
  -1  -2   6   40.60    1.24 
  -1  -2   6   37.49    1.71 
  -2   1   6   43.23    1.57 
   1   2   6   42.28    1.56 
  -2   1   6   40.47    2.37 
   2  -1   6   39.64    1.74 
  -1  -2   6   40.21    1.69 
  -2   1   6   35.91    1.72 
   1   2   6   41.61    2.38 
   1   2   6   42.06    2.40 
  -2   1   6   43.82    2.48 
  -2   2  -6  179.09   10.35 
  -2   2  -6  180.33    7.02 
   2   2  -6  196.81    7.02 
   2   2  -6  197.23   10.37 
   2   2  -6  191.90   10.27 
   2  -2  -6  196.84    7.75 
   2  -2  -6  199.77    7.03 
  -2   2   6  197.21    7.02 
  -2  -2   6  193.21    5.55 
  -2  -2   6  198.41    7.73 
   2  -2   6  196.80    5.56 
  -2  -2   6  197.79    9.07 
   2   2   6  197.23    7.00 
   2  -2   6  187.84    7.01 
   2   2   6  197.08   10.31 
   2  -2   6  192.22    7.78 
   2   2   6  197.86    7.00 
  -2  -2   6  186.17    7.75 
  -2   2   6  195.28   10.30 
  -3  -2  -6   54.94    2.45 
   2  -3  -6   49.77    2.10 
   3   2  -6   50.57    1.94 
  -3  -2  -6   54.36    2.09 
   3   2  -6   49.43    2.94 
  -2   3  -6   51.19    1.96 
  -2   3  -6   48.63    3.02 
   2  -3  -6   52.60    1.94 
   2  -3   6   47.92    1.92 
  -2   3   6   47.37    2.93 
   3   2   6   50.34    1.92 
   3   2   6   51.58    2.96 
  -2   3   6   49.65    1.94 
   2  -3   6   50.32    1.54 
   2  -3   6   49.78    2.14 
  -3  -2   6   53.02    2.12 
  -3  -2   6   51.38    2.09 
  -3  -2   6   48.45    1.53 
  -1   3  -6  231.47    9.08 
   3   1  -6  252.91    9.09 
   1  -3  -6  254.95   10.13 
  -3  -1  -6  253.21   10.04 
  -1   3  -6  251.49   13.39 
   3   1   6  251.17    9.08 
   1  -3   6  234.67   10.04 
   1  -3   6  239.59    9.05 
  -1   3   6  262.39    9.08 
   1  -3   6  253.56   10.04 
  -3  -1   6  256.51    7.19 
   3   1   6  265.81   13.35 
  -3  -1   6  259.57    9.06 
  -1   3   6  255.47   13.29 
  -3  -1   6  249.99   10.06 
   1  -3   6  250.18    7.18 
  -3   0  -6   23.88    0.92 
   0   3  -6   20.58    0.92 
   3   0  -6   21.71    0.93 
   0   3  -6   21.68    1.51 
   3   0   6   22.20    0.93 
   0   3   6   22.26    1.46 
   0  -3   6   24.20    1.14 
   0  -3   6   23.23    0.98 
   0   3   6   23.14    1.45 
  -3   0   6   22.89    0.92 
  -3   0   6   20.85    1.02 
  -3   0   6   22.78    0.74 
   0   3   6   22.39    0.92 
   0  -3   6   22.10    0.73 
   0  -3   6   22.21    0.99 
   3  -1  -6  260.58   10.08 
   1   3  -6  245.40    9.10 
   3  -1  -6  255.65    9.19 
  -3   1  -6  248.72    9.10 
   1   3  -6  254.56   13.31 
   1   3  -6  243.96   13.39 
  -1  -3  -6  266.47   11.81 
  -1  -3   6  242.31   10.04 
  -1  -3   6  252.83   10.02 
  -1  -3   6  241.37    7.19 
   1   3   6  256.74    9.09 
   1   3   6  245.15   13.28 
  -1  -3   6  257.95   11.78 
  -3   1   6  267.01    9.11 
   1   3   6  260.08   13.30 
  -3   1   6  239.33   10.09 
   3  -1   6  246.47    9.11 
   2   3  -6   50.53    1.91 
   2   3  -6   49.17    2.88 
   3  -2  -6   49.89    2.09 
   3  -2  -6   49.36    1.92 
  -3   2  -6   50.69    1.93 
   2   3  -6   49.30    2.96 
  -2  -3   6   50.42    2.40 
  -2  -3   6   48.45    2.05 
   2   3   6   50.49    2.88 
  -2  -3   6   51.57    2.04 
  -2  -3   6   48.82    1.50 
   3  -2   6   49.35    1.52 
   2   3   6   49.46    1.88 
   3  -2   6   50.90    2.13 
   3  -2   6   48.76    1.91 
  -3   2   6   50.69    1.92 
   3   3  -6  204.38   10.90 
   3   3  -6  210.94    7.38 
  -3   3  -6  200.07    7.41 
  -3  -3  -6  200.35    9.51 
   3  -3  -6  204.91    7.40 
   3   3  -6  208.11   10.83 
   3  -3  -6  203.91    8.15 
   3  -3   6  193.64    7.37 
  -3  -3   6  188.14    5.82 
   3   3   6  210.01   10.84 
   3   3   6  196.70    7.35 
  -3  -3   6  220.39    8.10 
  -3  -3   6  198.36    8.10 
  -3   3   6  209.63    7.40 
   3  -3   6  206.69    8.19 
   3  -3   6  195.31    5.85 
  -4  -3  -6   27.27    1.23 
   4   3  -6   23.80    1.01 
   3  -4  -6   23.42    1.07 
  -3   4  -6   24.58    1.06 
  -3   4   6   22.67    1.03 
   4   3   6   23.40    0.99 
  -4  -3   6   22.25    0.79 
  -4  -3   6   24.71    1.02 
  -4  -3   6   22.67    1.02 
   4   3   6   25.70    1.64 
   3  -4   6   24.47    1.12 
   3  -4   6   22.94    0.82 
   2  -4  -6  180.16    8.51 
   2  -4  -6  180.55    7.22 
   4   2  -6  185.68    6.57 
  -4  -2  -6  178.24    7.20 
  -2   4  -6  163.39    6.58 
  -4  -2   6  185.94    7.22 
  -2   4   6  187.27    6.58 
  -4  -2   6  183.61    7.25 
  -4  -2   6  180.88    5.19 
  -2   4   6  182.95    9.69 
   2  -4   6  177.43    7.25 
   4   2   6  180.61    6.55 
   2  -4   6  176.36    5.20 
  -1   4  -6   40.00    2.55 
  -1   4  -6   40.10    1.61 
   4   1  -6   39.64    1.61 
   1  -4  -6   42.94    2.02 
   1  -4   6   42.21    1.72 
  -4  -1   6   38.92    1.76 
  -4  -1   6   41.12    1.27 
   1  -4   6   41.77    2.01 
  -1   4   6   43.32    1.60 
  -1   4   6   40.21    2.44 
  -4  -1   6   41.32    1.58 
   4   1   6   40.62    1.60 
   1  -4   6   39.59    1.72 
   1  -4   6   40.59    1.27 
   0   4  -6  150.72    8.54 
   0   4  -6  160.35    5.75 
   0  -4  -6  162.79    7.38 
   4   0  -6  163.74    5.77 
  -4   0  -6  145.98    5.72 
   0  -4  -6  150.36    7.39 
   0  -4   6  153.98    4.53 
   0   4   6  155.73    8.44 
  -4   0   6  166.95    5.75 
   0  -4   6  159.16    6.30 
   0  -4   6  158.04    7.40 
  -4   0   6  158.97    6.38 
   0   4   6  160.67    5.73 
   0   4   6  152.45    8.43 
  -4   0   6  169.30    4.56 
   0  -4   6  154.94    6.29 
   4   0   6  152.12    5.75 
  -4   1  -6   44.03    1.62 
   4  -1  -6   40.12    1.63 
   1   4  -6   40.29    2.53 
   1   4  -6   39.90    1.60 
   1   4   6   42.76    2.45 
  -4   1   6   42.96    1.62 
  -4   1   6   41.02    1.29 
  -1  -4   6   41.30    1.99 
   1   4   6   41.35    1.58 
  -1  -4   6   41.93    1.67 
  -1  -4   6   40.28    1.26 
  -1  -4   6   41.03    1.68 
   4  -1   6   40.27    1.63 
   1   4   6   39.77    2.41 
   2   4  -6  171.64    9.61 
   4  -2  -6  177.30    6.52 
   2   4  -6  180.76    6.48 
  -4   2  -6  171.96    6.50 
   2   4  -6  181.32    9.53 
   2   4   6  179.88    6.46 
   4  -2   6  172.18    6.51 
   2   4   6  179.88    9.51 
  -2  -4   6  179.16    8.35 
  -4   2   6  191.89    6.52 
   2   4   6  180.66    9.49 
  -2  -4   6  171.50    5.11 
   4  -3  -6   23.52    1.09 
   3   4  -6   22.18    1.62 
   3   4  -6   23.57    1.00 
   4  -3  -6   24.47    1.03 
  -4   3  -6   26.31    1.06 
   3   4  -6   22.74    1.57 
   4  -3   6   22.85    0.81 
  -4   3   6   22.73    1.03 
   3   4   6   23.18    0.96 
   4  -3   6   23.53    1.02 
  -3  -4   6   23.07    0.77 
   3   4   6   24.79    1.58 
  -4   4  -6   99.56    4.17 
   4   4  -6  118.72    4.13 
   4  -4  -6  109.87    4.54 
   4   4   6  110.77    4.08 
   4  -4   6  112.73    4.59 
   4   4   6  121.56    6.16 
   4  -4   6  106.65    3.28 
   4  -4   6  108.66    4.13 
  -4  -4   6  106.57    3.24 
  -4   4   6  116.90    4.18 
  -4   5  -6   29.03    1.28 
   5   4  -6   27.32    1.18 
   4  -5  -6   28.53    1.26 
  -5  -4   6   27.64    0.92 
  -4   5   6   27.09    1.24 
   4  -5   6   28.37    1.31 
   4  -5   6   27.86    0.98 
   5   4   6   28.73    1.15 
   3  -5  -6  134.54    5.45 
   5   3  -6  143.62    4.99 
  -3   5  -6  126.96    5.03 
  -5  -3   6  143.10    5.39 
   3  -5   6  132.22    3.96 
   3  -5   6  133.75    5.48 
   5   3   6  130.01    4.95 
  -5  -3   6  133.86    3.92 
  -5  -3   6  130.08    5.39 
  -3   5   6  141.07    5.02 
   2  -5  -6   20.44    1.07 
   5   2  -6   19.34    0.87 
  -2   5  -6   19.19    0.89 
   2  -5  -6   20.08    0.84 
  -2   5   6   16.48    1.36 
  -5  -2   6   18.18    0.89 
  -5  -2   6   18.85    0.68 
   2  -5   6   19.02    0.88 
  -2   5   6   18.78    0.87 
   5   2   6   19.10    0.85 
   2  -5   6   19.64    0.69 
   5   1  -6  166.42    6.05 
  -1   5  -6  163.45    6.04 
  -1   5  -6  163.55    9.04 
   1  -5  -6  166.34    7.77 
   1  -5   6  155.84    7.76 
  -5  -1   6  164.78    6.67 
  -1   5   6  175.59    6.03 
   1  -5   6  167.97    6.59 
   5   1   6  163.73    6.04 
   1  -5   6  161.41    4.76 
  -1   5   6  159.41    8.86 
   1  -5   6  162.23    6.58 
  -5  -1   6  170.88    4.78 
   0  -5  -6   46.47    2.24 
   0   5  -6   46.77    1.81 
   5   0  -6   45.15    1.84 
   0  -5  -6   52.27    2.24 
   0   5  -6   47.17    2.89 
   0  -5   6   47.73    2.26 
  -5   0   6   46.14    1.46 
  -5   0   6   44.43    2.01 
  -5   0   6   44.82    1.80 
   0   5   6   46.48    1.78 
   5   0   6   44.39    1.83 
   0  -5   6   46.90    1.42 
   0   5   6   44.60    2.72 
   5  -1  -6  169.11    5.97 
  -5   1  -6  154.79    5.91 
   1   5  -6  161.50    5.91 
   1   5  -6  159.63    8.80 
  -5   1   6  170.93    4.71 
  -1  -5   6  157.28    4.66 
   1   5   6  154.28    8.64 
   1   5   6  157.12    8.66 
   1   5   6  168.10    5.88 
  -1  -5   6  160.25    7.59 
   5  -1   6  156.75    5.95 
  -5   1   6  171.20    5.94 
   2   5  -6   18.80    1.37 
   2   5  -6   19.01    0.84 
  -5   2  -6   22.01    0.89 
   5  -2  -6   19.27    0.90 
   2   5  -6   18.10    1.42 
  -2  -5   6   19.08    0.97 
  -2  -5   6   19.16    0.65 
   2   5   6   17.96    1.30 
   2   5   6   19.43    0.80 
   2   5   6   19.16    1.31 
   5  -2   6   18.89    0.89 
  -5   2   6   18.46    0.88 
   5  -3  -6  135.17    4.96 
   3   5  -6  130.83    7.32 
  -5   3  -6  126.94    4.94 
   3   5   6  135.68    7.21 
  -5   3   6  146.38    4.96 
  -3  -5   6  128.41    3.84 
   5  -3   6  126.59    4.93 
   4   5  -6   29.06    1.20 
  -5   4  -6   29.85    1.29 
   5  -4  -6   28.88    1.33 
  -4  -5   6   27.31    0.93 
   4   5   6   31.35    1.90 
  -5   4   6   27.96    1.28 
   5  -4   6   29.24    1.00 
   5  -4   6   28.38    1.25 
  -5   5  -6   83.15    3.31 
   5   5  -6   87.61    3.19 
   5  -5  -6   85.17    3.52 
   5  -5   6   82.07    2.57 
  -5   5   6   87.17    3.29 
   5  -5   6   84.70    3.57 
  -5  -5   6   81.80    2.50 
   5  -6  -6    6.54    0.45 
  -5   6  -6    7.81    0.60 
   6   5  -6    6.39    0.46 
   5  -6   6    6.56    0.49 
  -5   6   6    6.83    0.57 
  -6  -5   6    6.23    0.35 
   5  -6   6    6.71    0.44 
   6   4  -6   76.68    2.83 
   4  -6  -6   72.27    3.03 
  -4   6  -6   68.03    2.90 
   6   4   6   73.21    2.78 
  -6  -4   6   73.24    2.22 
   4  -6   6   72.63    3.08 
  -4   6   6   77.25    2.90 
   4  -6   6   74.80    2.28 
   6   3  -6   23.64    1.06 
  -3   6  -6   24.83    1.13 
   3  -6  -6   24.50    1.02 
   3  -6   6   23.84    0.87 
   3  -6   6   23.28    1.07 
  -6  -3   6   23.08    0.83 
  -3   6   6   22.89    1.08 
   6   3   6   23.66    1.03 
  -6  -2  -6   94.73    3.76 
   2  -6  -6   91.63    4.49 
   6   2  -6   97.28    3.53 
  -2   6  -6   92.82    3.54 
  -2   6   6   92.38    3.51 
  -6  -2   6   93.93    3.82 
   2  -6   6   89.44    3.75 
   2  -6   6   90.42    3.75 
   2  -6   6   92.32    2.78 
   6   2   6   91.96    3.50 
  -6  -2   6   96.13    2.78 
  -1   6  -6   20.08    1.62 
   1  -6  -6   20.84    1.07 
   6   1  -6   20.33    0.94 
  -1   6  -6   20.03    0.92 
  -6  -1   6   19.84    0.73 
   1  -6   6   20.90    0.72 
   6   1   6   19.92    0.92 
  -1   6   6   19.00    1.45 
  -1   6   6   18.88    0.88 
  -6  -1   6   18.85    0.97 
   1  -6   6   19.68    1.06 
   0   6  -6  109.52    4.11 
   6   0  -6  112.33    4.17 
   0  -6  -6  102.88    5.22 
   0   6  -6  112.33    6.28 
   0  -6   6  109.67    3.24 
  -6   0   6  118.42    3.30 
   6   0   6  109.46    4.15 
   0   6   6  112.89    4.09 
   0  -6   6  108.24    5.25 
  -6   0   6  115.55    4.59 
   0   6   6  106.43    6.07 
   1   6  -6   18.97    1.49 
   1   6  -6   19.78    0.87 
  -6   1  -6   21.90    0.90 
   6  -1  -6   20.03    0.94 
  -1  -6   6   19.47    0.67 
  -1  -6   6   19.65    1.02 
   1   6   6   19.12    1.35 
   6  -1   6   19.99    0.93 
   1   6   6   19.10    1.35 
  -6   1   6   18.93    0.90 
  -6   1   6   19.36    0.74 
   2   6  -6   92.00    3.32 
   6  -2  -6   91.23    3.41 
  -6   2  -6   86.39    3.36 
   2   6  -6   88.59    5.09 
  -6   2   6   95.80    3.40 
  -2  -6   6   86.91    2.61 
  -2  -6   6   86.57    4.20 
   2   6   6   84.91    4.89 
   6  -2   6   88.93    3.40 
   2   6   6   86.49    4.91 
   6  -3  -6   22.71    1.10 
   3   6  -6   24.18    1.73 
  -6   3  -6   26.86    1.12 
   6  -3   6   24.15    1.11 
  -3  -6   6   24.41    0.79 
  -6   3   6   23.19    1.11 
   3   6   6   22.83    1.56 
   3   6   6   23.35    1.59 
  -6   4  -6   73.40    2.89 
   6  -4   6   71.75    2.85 
  -6   4   6   77.37    2.89 
   4   6   6   77.47    4.17 
  -4  -6   6   70.01    2.17 
   4   6   6   68.69    4.10 
  -6   5  -6    7.78    0.59 
   6  -5  -6    6.62    0.50 
  -5  -6   6    6.75    0.34 
  -6   5   6    6.21    0.55 
   6  -6  -6   40.57    1.86 
  -6   6  -6   39.70    1.84 
  -6  -6   6   42.19    1.32 
   6  -6   6   42.52    1.92 
  -6   6   6   44.43    1.85 
   6  -7  -6   10.36    0.59 
  -6   7  -6   10.83    0.76 
   6  -7   6    9.80    0.62 
   6  -7   6   10.41    0.57 
  -7  -6   6    9.93    0.46 
  -6   7   6    9.88    0.74 
   7   5  -6   51.74    1.97 
   5  -7  -6   46.03    2.02 
  -5   7  -6   45.68    2.07 
  -7  -5   6   48.29    1.53 
  -5   7   6   51.27    2.08 
   5  -7   6   48.03    2.08 
   5  -7   6   48.25    1.61 
   7   4  -6    6.20    0.48 
  -4   7  -6    6.96    0.57 
   4  -7   6    6.21    0.42 
   4  -7   6    6.13    0.38 
   7   4   6    7.03    0.47 
  -7  -4   6    5.79    0.37 
  -4   7   6    5.44    0.54 
  -3   7  -6   70.39    2.84 
   7   3  -6   73.66    2.80 
  -7  -3   6   71.39    2.18 
   3  -7   6   69.89    2.21 
  -3   7   6   71.66    2.81 
  -2   7  -6   20.38    1.00 
   7   2  -6   20.39    1.00 
   2  -7  -6   22.74    1.19 
  -7  -2   6   19.85    0.96 
   7   2   6   21.31    0.97 
  -7  -2   6   19.58    0.77 
  -2   7   6   19.67    0.98 
   2  -7   6   21.31    0.78 
   1  -7  -6   81.57    4.09 
   7   1  -6   88.28    3.29 
  -1   7  -6   84.40    3.24 
  -1   7   6   87.84    3.23 
  -7  -1   6   85.79    2.58 
  -1   7   6   82.17    4.87 
  -7  -1   6   87.10    3.56 
   1  -7   6   82.35    4.11 
   1  -7   6   85.66    2.55 
   7   1   6   85.07    3.25 
   0   7  -6    8.53    1.00 
   0  -7  -6    8.65    0.52 
   0  -7  -6    9.79    0.53 
   0   7  -6    7.94    0.51 
   7   0  -6    7.73    0.55 
   0  -7   6    8.62    0.40 
   0  -7   6    8.26    0.55 
   7   0   6    8.85    0.56 
   0   7   6    7.85    0.86 
  -7   0   6    7.59    0.45 
  -7   0   6    7.09    0.55 
   1   7  -6   82.54    3.16 
   7  -1  -6   88.03    3.27 
   1   7  -6   85.22    4.90 
   1   7   6   83.62    4.70 
  -1  -7   6   82.28    4.01 
   1   7   6   81.37    4.68 
   7  -1   6   84.27    3.24 
  -1  -7   6   83.19    2.48 
  -7   2  -6   23.47    0.99 
   7  -2  -6   20.44    1.00 
   2   7  -6   21.20    1.62 
   2   7   6   19.88    1.43 
  -2  -7   6   21.09    0.71 
  -2  -7   6   20.48    1.07 
   7  -2   6   21.65    1.02 
   2   7   6   17.89    1.36 
  -7   2   6   19.55    0.98 
  -7   3  -6   68.77    2.77 
   3   7  -6   67.32    4.16 
   7  -3  -6   72.12    2.80 
   7  -3   6   73.10    2.81 
  -3  -7   6   69.47    2.09 
  -3  -7   6   70.92    3.38 
  -7   3   6   72.36    2.80 
   3   7   6   70.74    4.00 
  -7   4  -6    8.02    0.56 
  -4  -7   6    6.37    0.32 
  -7   4   6    5.21    0.54 
   7  -4   6    6.76    0.54 
  -7   5  -6   49.26    2.12 
  -7   5   6   51.29    2.13 
  -5  -7   6   49.68    1.53 
  -7   6  -6   11.94    0.77 
   7  -6  -6   10.12    0.66 
  -7   6   6    9.31    0.72 
  -6  -7   6   10.28    0.44 
  -7   7  -6   28.75    1.46 
  -7  -7   6   29.70    0.98 
  -7   7   6   30.89    1.46 
  -6   8  -6   23.49    1.31 
  -6   8   6   27.64    1.32 
   6  -8   6   26.67    1.02 
  -8  -6   6   25.07    0.89 
   8   5  -6    8.33    0.57 
  -5   8  -6   10.11    0.73 
  -5   8   6    7.59    0.65 
   5  -8   6    9.01    0.53 
  -8  -5   6    7.94    0.44 
   8   4  -6   38.75    1.60 
  -4   8  -6   36.85    1.68 
  -8  -4   6   35.16    1.23 
  -4   8   6   38.32    1.66 
   4  -8   6   35.78    1.29 
   8   3  -6    7.37    0.54 
  -3   8  -6    7.51    0.59 
  -8  -3   6    6.92    0.42 
   8   3   6    6.72    0.50 
   3  -8   6    7.60    0.45 
  -3   8   6    6.18    0.53 
  -2   8  -6   48.31    2.06 
   8   2  -6   51.59    2.09 
  -8  -2   6   52.34    2.11 
   8   2   6   49.26    2.03 
   2  -8   6   50.26    1.61 
  -8  -2   6   50.82    1.63 
  -2   8   6   49.48    2.04 
   8   1  -6   10.81    0.68 
  -1   8  -6   10.52    0.63 
   1  -8  -6   11.67    0.72 
  -8  -1   6    9.87    0.64 
   8   1   6   10.75    0.66 
   1  -8   6   10.69    0.49 
  -8  -1   6   10.06    0.53 
   1  -8   6   10.99    0.72 
   0  -8  -6   44.27    2.34 
   8   0  -6   49.54    2.01 
  -8   0   6   51.11    2.15 
  -8   0   6   51.27    1.57 
   0  -8   6   45.17    2.37 
   0  -8   6   46.63    1.49 
   8   0   6   47.23    1.97 
   8  -1  -6   10.00    0.67 
  -1  -8   6   10.59    0.45 
  -1  -8   6   10.37    0.65 
   8  -1   6   10.53    0.67 
   8  -2  -6   48.73    2.03 
  -2  -8   6   49.43    1.48 
   8  -2   6   50.18    2.03 
  -2  -8   6   44.98    2.36 
  -8   3  -6    8.10    0.55 
   8  -3  -6    7.34    0.56 
  -8   3   6    6.38    0.57 
  -3  -8   6    7.54    0.35 
  -3  -8   6    7.10    0.50 
   8  -3   6    7.12    0.58 
  -8   4  -6   33.60    1.57 
   8  -4   6   37.87    1.62 
  -4  -8   6   35.22    1.12 
  -8   4   6   37.21    1.62 
  -8   5  -6    9.91    0.68 
  -8   5   6    7.90    0.67 
  -5  -8   6    8.77    0.62 
  -5  -8   6    9.29    0.39 
  -8   6  -6   24.93    1.32 
  -6  -8   6   25.94    0.87 
  -6  -8   6   26.71    1.45 
  -8   6   6   28.99    1.36 
   9   4  -6    8.24    0.59 
  -4   9  -6    8.55    0.66 
  -4   9   6    6.92    0.60 
   9   4   6    8.42    0.57 
  -9  -4   6    6.84    0.43 
   4  -9   6    8.36    0.51 
   9   3  -6   37.04    1.57 
  -3   9  -6   33.66    1.57 
   3  -9   6   35.09    1.23 
  -9  -3   6   34.33    1.20 
  -3   9   6   35.54    1.54 
   9   2  -6    4.49    0.48 
  -2   9  -6    4.81    0.46 
  -9  -2   6    3.88    0.36 
   9   2   6    5.65    0.48 
   2  -9   6    4.70    0.37 
   1  -9  -6   37.29    2.07 
   9   1  -6   41.02    1.76 
   1  -9   6   39.97    1.32 
  -9  -1   6   43.75    1.81 
   9   0  -6   10.37    0.69 
   0  -9  -6   10.28    0.66 
   0  -9   6   10.82    0.47 
   9   0   6   10.90    0.68 
  -9   0   6    9.82    0.67 
   0  -9   6   10.49    0.71 
   9  -1  -6   39.97    1.75 
  -1  -9   6   37.70    2.01 
  -1  -9   6   39.32    1.26 
   9  -1   6   42.08    1.74 
   9  -2  -6    4.69    0.48 
  -2  -9   6    4.69    0.44 
   9  -2   6    4.90    0.51 
  -2  -9   6    5.56    0.31 
   9  -3  -6   35.89    1.61 
  -3  -9   6   34.62    1.11 
   9  -3   6   37.36    1.63 
  -9   4   6    7.24    0.64 
   9  -4   6    8.77    0.66 
  10   1  -6    5.13    0.51 
  10   1   6    5.08    0.51 
   1 -10   6    5.07    0.36 
   0 -10  -6   21.09    1.26 
  10   0  -6   24.77    1.19 
  10   0   6   24.65    1.16 
   0 -10   6   24.19    0.83 
  10  -1  -6    4.75    0.51 
  -1 -10   6    5.25    0.32 
  10  -1   6    5.32    0.53 
  -1 -10   6    4.91    0.48 
   0   0  -7  178.12    6.54 
   0   0  -7  186.20    9.67 
   0   0   7  159.97    7.23 
   0   0   7  180.88    9.60 
   0   0   7  192.01    9.67 
   0   0   7  185.68    6.54 
   0   1  -7  268.43    9.54 
   1   0  -7  264.59    9.49 
  -1   0  -7  262.57   13.92 
   0   1  -7  259.15   13.94 
   1   0  -7  258.27   13.92 
   1   0  -7  260.04   13.84 
   0  -1  -7  268.63    9.57 
  -1   0  -7  263.10    9.53 
   1   0  -7  262.70   10.57 
   0   1   7  268.80   13.88 
   1   0   7  257.57   13.87 
  -1   0   7  271.14    9.48 
   0  -1   7  256.90   10.51 
  -1   0   7  244.12   10.50 
  -1   0   7  253.07   13.84 
   0   1   7  269.85    9.48 
   0   1   7  278.09   13.94 
   0  -1   7  260.21   13.84 
   0  -1   7  274.82    9.48 
   1   0   7  258.05   13.91 
   1   0   7  260.24    9.48 
   1  -1  -7  109.53    4.49 
  -1  -1  -7  107.59    4.49 
   1   1  -7  113.42    6.12 
   1   1  -7  103.40    6.00 
  -1   1  -7  116.46    6.13 
   1   1  -7  110.71    4.09 
  -1  -1  -7  112.96    4.07 
   1  -1  -7  115.23    4.09 
  -1   1  -7  111.17    4.08 
   1  -1   7  114.23    4.08 
  -1  -1   7  109.88    3.22 
   1   1   7  112.74    4.08 
   1   1   7  113.53    6.05 
  -1  -1   7  107.47    4.51 
  -1  -1   7  115.71    4.07 
   1   1   7  114.68    6.08 
  -1   1   7  109.45    4.08 
   1  -1   7  108.40    6.03 
  -1   1   7  111.22    6.04 
   1  -1   7  104.34    4.51 
  -2  -1  -7  179.98    6.73 
   2   1  -7  190.58    6.77 
  -2  -1  -7  180.58    7.46 
   1  -2  -7  200.68    6.76 
   2   1  -7  179.49    9.99 
  -1   2  -7  178.12    6.76 
   1  -2  -7  193.85    7.56 
  -1   2  -7  182.91   10.00 
   1  -2   7  183.57    5.35 
   2   1   7  182.00    6.75 
  -1   2   7  187.91    6.76 
   1  -2   7  180.21    7.48 
  -1   2   7  188.14    9.94 
  -2  -1   7  183.29    5.34 
  -1   2   7  197.79    9.99 
  -2  -1   7  190.74    6.74 
  -2  -1   7  188.18    7.49 
   2   1   7  186.23    9.96 
   1  -2   7  182.11    6.74 
   2   1   7  184.90    6.75 
   0   2  -7   26.17    1.15 
  -2   0  -7   29.81    1.15 
   0   2  -7   28.65    1.88 
   2   0  -7   29.90    1.17 
   0  -2   7   26.68    1.26 
   2   0   7   29.38    1.16 
  -2   0   7   30.02    1.15 
   0   2   7   29.35    1.16 
   0   2   7   28.78    1.82 
  -2   0   7   28.68    0.92 
   0  -2   7   28.55    0.92 
   2   0   7   29.00    1.16 
   0  -2   7   29.92    1.14 
   0   2   7   29.66    1.81 
  -2   0   7   27.34    1.27 
   1   2  -7  188.00   10.01 
   1   2  -7  184.57    9.91 
   2  -1  -7  190.77    6.77 
  -2   1  -7  186.19    6.76 
   1   2  -7  185.41    6.76 
   2  -1  -7  183.51    7.46 
   2  -1   7  184.73    7.49 
   2  -1   7  185.21    6.75 
  -1  -2   7  188.29    5.34 
   1   2   7  191.28    9.93 
  -2   1   7  192.86    6.76 
  -1  -2   7  183.02    6.73 
   1   2   7  186.33    6.75 
   1   2   7  184.48    9.95 
  -1  -2   7  176.01    7.46 
   2   2  -7   93.01    3.47 
   2  -2  -7   93.59    3.81 
   2  -2  -7   99.49    3.48 
   2   2  -7   93.80    5.25 
  -2   2  -7   87.81    3.47 
   2   2   7   96.03    5.19 
   2   2   7   94.82    3.46 
   2  -2   7   91.29    3.84 
  -2   2   7   93.05    5.17 
  -2  -2   7   91.55    3.43 
  -2   2   7   93.36    3.47 
   2  -2   7   91.59    3.46 
  -2  -2   7   96.01    4.44 
  -2  -2   7   94.12    3.82 
  -2  -2   7   93.88    3.79 
   2  -2   7   90.93    3.45 
   2  -2   7   94.08    2.75 
  -2  -2   7   94.04    2.74 
   2  -3  -7  127.48    5.13 
  -3  -2  -7  122.91    5.10 
   3   2  -7  131.32    4.68 
  -2   3  -7  125.49    4.69 
   2  -3  -7  136.03    4.67 
  -3  -2   7  128.67    6.00 
   2  -3   7  126.49    3.70 
   2  -3   7  119.53    4.64 
   3   2   7  131.68    4.66 
  -2   3   7  126.32    6.92 
  -2   3   7  129.76    4.67 
   2  -3   7  124.70    5.16 
   2  -3   7  120.83    4.65 
  -3  -2   7  126.22    5.14 
  -3  -2   7  125.66    3.69 
   1  -3  -7   71.60    2.92 
  -1   3  -7   66.31    2.69 
  -1   3  -7   67.28    4.11 
   3   1  -7   71.50    2.70 
  -3  -1  -7   74.67    2.67 
   1  -3   7   70.81    2.96 
  -3  -1   7   74.66    2.67 
   1  -3   7   73.08    2.13 
   1  -3   7   71.99    2.66 
   3   1   7   70.98    2.68 
  -3  -1   7   71.01    2.97 
  -1   3   7   72.46    2.69 
  -1   3   7   70.98    4.04 
  -3  -1   7   72.71    2.13 
   0   3  -7  162.82    6.19 
   3   0  -7  178.56    6.21 
   0   3  -7  168.63    9.21 
  -3   0  -7  162.58    6.17 
   0  -3   7  166.62    4.89 
   0  -3   7  172.68    7.99 
   0  -3   7  163.61    6.83 
   3   0   7  167.34    6.19 
   0   3   7  177.12    9.13 
   0  -3   7  169.72    6.81 
  -3   0   7  175.76    6.18 
  -3   0   7  166.91    6.86 
   0   3   7  169.55    9.12 
  -3   0   7  177.97    4.91 
   0  -3   7  168.99    6.16 
   0   3   7  170.00    6.18 
  -1  -3  -7   77.87    3.49 
  -3   1  -7   75.24    2.76 
   1   3  -7   70.31    4.21 
   1   3  -7   70.03    2.75 
   3  -1  -7   74.08    2.77 
  -1  -3   7   69.96    3.00 
   1   3   7   73.21    4.13 
   1   3   7   74.82    4.12 
   3  -1   7   72.89    2.76 
  -3   1   7   76.74    2.76 
  -3   1   7   72.66    2.18 
   1   3   7   74.75    2.74 
  -1  -3   7   73.15    3.50 
  -1  -3   7   71.14    2.98 
  -1  -3   7   71.78    2.17 
   2   3  -7  134.25    4.79 
  -3   2  -7  121.52    4.79 
  -2  -3  -7  138.38    6.14 
   3  -2  -7  131.37    5.28 
   2   3  -7  134.43    7.19 
   3  -2  -7  132.57    4.80 
  -3   2   7  134.23    4.80 
   3  -2   7  126.66    4.79 
   2   3   7  132.25    7.09 
  -2  -3   7  130.82    5.23 
  -2  -3   7  130.07    6.14 
  -2  -3   7  124.20    5.24 
  -2  -3   7  125.20    3.77 
   2   3   7  127.94    4.77 
   3  -2   7  130.24    3.79 
   2   3   7  130.01    7.06 
   3  -3  -7   56.20    2.36 
   3   3  -7   54.01    3.35 
   3  -3  -7   59.05    2.19 
   3   3  -7   56.54    2.17 
  -3   3  -7   57.98    2.21 
   3   3   7   55.58    2.14 
   3   3   7   57.46    3.30 
  -3  -3   7   56.67    2.73 
  -3  -3   7   55.50    1.70 
   3  -3   7   54.63    2.16 
  -3  -3   7   58.55    2.31 
   3  -3   7   56.19    1.73 
   3   3   7   56.80    2.14 
   3  -3   7   56.80    2.41 
  -3   3   7   55.38    2.18 
  -3  -3   7   54.56    2.32 
  -3   4  -7  118.94    4.83 
   4   3  -7  137.02    4.81 
   3  -4  -7  126.13    5.26 
  -4  -3   7  127.74    5.22 
  -4  -3   7  126.10    3.78 
   4   3   7  128.48    4.77 
  -3   4   7  132.10    4.82 
  -4  -3   7  143.53    5.22 
   3  -4   7  129.28    5.31 
   3  -4   7  128.72    3.81 
   4   2  -7   24.05    1.06 
  -4  -2  -7   28.23    1.09 
   2  -4  -7   25.27    1.10 
  -2   4  -7   25.39    1.09 
   4   2   7   23.95    1.04 
   2  -4   7   24.66    0.85 
  -2   4   7   24.01    1.06 
  -4  -2   7   24.70    1.13 
  -4  -2   7   24.64    0.84 
   2  -4   7   24.30    1.14 
   4   1  -7  131.32    4.83 
  -1   4  -7  128.44    7.27 
  -1   4  -7  123.80    4.82 
  -4  -1   7  131.91    4.79 
   1  -4   7  131.48    3.81 
   1  -4   7  129.34    5.29 
   4   1   7  128.89    4.82 
  -4  -1   7  130.76    5.33 
  -1   4   7  130.99    7.14 
  -1   4   7  137.67    4.82 
  -4  -1   7  133.48    3.82 
  -4   0  -7   70.25    2.59 
   0   4  -7   68.94    2.60 
   4   0  -7   67.96    2.62 
   0   4  -7   67.82    4.03 
   0  -4   7   69.78    2.05 
   0   4   7   68.71    3.91 
   0  -4   7   68.63    2.82 
   0   4   7   67.29    3.90 
  -4   0   7   70.19    2.07 
   0  -4   7   70.46    3.30 
  -4   0   7   69.65    2.59 
   0  -4   7   70.26    2.80 
  -4   0   7   63.93    2.87 
   0   4   7   69.73    2.59 
   4   0   7   67.02    2.61 
   4  -1  -7  132.50    4.81 
   1   4  -7  128.87    7.19 
   1   4  -7  133.12    4.78 
  -1  -4  -7  135.43    6.11 
  -4   1  -7  122.75    4.77 
  -1  -4   7  127.16    6.12 
  -4   1   7  137.07    4.79 
   1   4   7  128.49    7.04 
   1   4   7  130.31    7.05 
  -1  -4   7  121.49    3.76 
   1   4   7  128.08    4.75 
  -1  -4   7  130.69    5.19 
  -4   1   7  135.43    3.80 
  -1  -4   7  129.00    5.21 
   4  -1   7  127.31    4.80 
   4  -2  -7   24.83    1.08 
  -2  -4  -7   28.61    1.24 
  -4   2  -7   26.20    1.08 
   2   4  -7   24.64    1.06 
   2   4  -7   22.11    1.70 
   2   4   7   25.33    1.65 
   4  -2   7   25.55    1.07 
   2   4   7   24.78    1.02 
   2   4   7   23.54    1.63 
  -2  -4   7   24.77    1.26 
  -4   2   7   23.72    1.06 
  -2  -4   7   23.86    1.03 
  -2  -4   7   23.78    0.81 
  -2  -4   7   25.26    1.03 
   4  -3  -7  128.79    5.25 
  -4   3  -7  123.12    4.80 
  -3  -4  -7  128.66    6.07 
   4  -3  -7  129.66    4.79 
   3   4  -7  136.04    4.77 
   3   4  -7  130.93    7.16 
  -3  -4   7  128.07    6.09 
  -4   3   7  135.11    4.80 
   4  -3   7  126.68    4.77 
  -3  -4   7  124.31    3.74 
   3   4   7  126.27    4.72 
   3   4   7  132.72    7.07 
   4  -3   7  124.89    3.78 
   4   4  -7   36.40    1.49 
  -4   4  -7   39.12    1.57 
   4  -4  -7   37.05    1.62 
  -4   4   7   35.16    1.53 
   4  -4   7   36.62    1.21 
   4  -4   7   39.42    1.69 
   4   4   7   35.97    1.45 
  -4  -4   7   35.15    1.16 
   4  -4   7   36.61    1.50 
   4   4   7   36.04    1.46 
   4  -5  -7   67.67    2.97 
   5   4  -7   76.25    2.75 
  -4   5  -7   69.14    2.82 
  -4   5   7   74.93    2.81 
  -5  -4   7   71.66    2.15 
   4  -5   7   73.14    3.04 
   4  -5   7   67.48    2.20 
   5   4   7   71.03    2.70 
   5   3  -7   34.80    1.46 
   3  -5  -7   36.43    1.53 
  -3   5  -7   37.84    1.54 
   3  -5   7   34.48    1.18 
  -5  -3   7   34.23    1.49 
  -3   5   7   33.70    1.48 
  -5  -3   7   34.81    1.15 
   5   3   7   35.17    1.43 
   3  -5   7   34.88    1.57 
  -5  -3   7   37.87    1.49 
   5   2  -7  126.49    4.65 
  -5  -2  -7  126.81    5.03 
  -2   5  -7  123.65    4.67 
  -2   5   7  126.45    4.64 
  -5  -2   7  128.00    5.09 
   2  -5   7  121.97    5.07 
   2  -5   7  120.60    3.67 
  -5  -2   7  124.37    3.66 
   5   2   7  125.32    4.62 
   1  -5  -7   48.37    2.32 
  -1   5  -7   46.83    1.86 
   5   1  -7   45.29    1.86 
   1  -5   7   49.10    1.46 
  -5  -1   7   46.54    1.47 
   1  -5   7   46.12    1.95 
   1  -5   7   47.85    1.94 
   5   1   7   45.68    1.85 
  -5  -1   7   43.97    2.02 
  -1   5   7   47.28    1.84 
  -1   5   7   45.62    2.83 
   0   5  -7  107.74    5.95 
   5   0  -7  102.98    3.91 
   0  -5  -7  100.86    4.95 
   0   5  -7  105.08    3.89 
  -5   0   7  108.85    3.88 
   5   0   7   99.56    3.90 
   0  -5   7  102.94    4.17 
   0   5   7  105.13    3.86 
   0  -5   7  102.99    4.96 
  -5   0   7  107.74    4.32 
  -5   0   7  112.21    3.10 
   0  -5   7  101.90    4.18 
   0  -5   7  101.54    3.06 
   0   5   7   99.95    5.76 
  -5   1  -7   48.98    1.82 
   1   5  -7   45.13    1.81 
   5  -1  -7   45.72    1.85 
  -1  -5  -7   49.90    2.22 
  -1  -5  -7   49.35    2.23 
   1   5  -7   44.40    2.88 
  -5   1   7   46.29    1.83 
   1   5   7   44.41    2.74 
   1   5   7   46.56    1.78 
   1   5   7   44.18    2.75 
  -1  -5   7   43.84    2.24 
  -1  -5   7   44.98    1.42 
   5  -1   7   45.31    1.85 
   5  -2  -7  119.40    4.53 
   2   5  -7  119.43    6.78 
  -5   2  -7  117.63    4.51 
   2   5  -7  125.98    4.49 
   2   5   7  120.79    6.64 
   5  -2   7  117.99    4.52 
   2   5   7  121.88    6.62 
  -5   2   7  130.18    4.53 
  -2  -5   7  122.84    5.73 
   2   5   7  118.94    4.44 
  -2  -5   7  116.99    3.52 
   3   5  -7   33.50    2.32 
  -5   3  -7   37.17    1.49 
   3   5  -7   35.21    1.43 
   5  -3  -7   35.35    1.48 
   3   5   7   34.73    2.19 
  -5   3   7   34.12    1.48 
   5  -3   7   34.75    1.47 
  -3  -5   7   34.71    1.75 
  -3  -5   7   34.56    1.11 
   3   5   7   36.06    2.23 
   3   5   7   35.57    1.39 
   4   5  -7   73.30    2.70 
  -5   4  -7   67.90    2.77 
   5  -4  -7   69.52    2.97 
  -4  -5   7   66.89    2.11 
   5  -4   7   70.05    2.74 
  -5   4   7   75.41    2.78 
   5   5  -7   23.64    1.03 
  -5   5  -7   24.95    1.14 
   5  -5  -7   22.10    1.09 
   5  -5   7   23.35    1.16 
   5  -5   7   22.56    0.87 
  -5  -5   7   21.99    0.79 
  -5   5   7   21.70    1.10 
   6   5  -7   51.99    2.01 
  -5   6  -7   47.52    2.12 
   5  -6  -7   48.85    2.15 
   5  -6   7   49.40    2.20 
  -6  -5   7   49.49    1.56 
   5  -6   7   48.78    1.64 
  -5   6   7   53.79    2.12 
  -4   6  -7   13.89    0.81 
   4  -6  -7   13.25    0.65 
   6   4  -7   12.71    0.70 
   4  -6   7   12.60    0.70 
   4  -6   7   13.38    0.61 
  -6  -4   7   12.15    0.54 
   6   4   7   12.65    0.66 
  -4   6   7   11.89    0.75 
  -3   6  -7   65.58    2.78 
   6   3  -7   73.01    2.74 
  -6  -3   7   70.36    2.14 
   3  -6   7   67.65    2.91 
  -3   6   7   75.11    2.76 
   3  -6   7   67.31    2.17 
   6   3   7   68.42    2.69 
  -6  -3   7   73.55    2.83 
   6   2  -7   27.68    1.24 
  -2   6  -7   29.23    1.27 
  -6  -2   7   27.51    1.29 
   6   2   7   28.78    1.22 
   2  -6   7   29.61    1.22 
  -2   6   7   28.07    1.23 
   2  -6   7   28.68    0.98 
  -6  -2   7   27.23    0.97 
   2  -6   7   28.11    1.22 
   1  -6  -7   89.45    4.29 
  -1   6  -7   88.55    3.38 
   6   1  -7   90.95    3.41 
   6   1   7   85.92    3.37 
  -1   6   7   84.69    5.05 
  -1   6   7   91.95    3.36 
  -6  -1   7   88.41    3.72 
   1  -6   7   88.61    2.66 
  -6  -1   7   91.68    2.69 
   6   0  -7   15.29    0.82 
   0  -6  -7   17.83    0.90 
   0   6  -7   16.56    1.43 
   0   6  -7   16.25    0.79 
   6   0   7   16.75    0.82 
  -6   0   7   15.93    0.65 
   0   6   7   16.39    0.76 
   0   6   7   15.97    1.27 
  -6   0   7   15.32    0.87 
   0  -6   7   16.97    0.62 
   0  -6   7   16.39    0.90 
  -6   1  -7   84.72    3.27 
   1   6  -7   87.52    3.26 
   6  -1  -7   88.99    3.33 
   1   6  -7   86.84    5.05 
   1   6   7   86.46    3.22 
  -1  -6   7   84.90    4.13 
   1   6   7   83.93    4.86 
  -6   1   7   93.64    3.31 
   6  -1   7   84.55    3.31 
  -1  -6   7   82.48    2.56 
  -6   2  -7   31.26    1.23 
   2   6  -7   27.15    1.99 
   6  -2  -7   27.12    1.24 
   2   6  -7   28.76    1.19 
  -2  -6   7   26.80    1.41 
  -6   2   7   28.03    1.23 
  -2  -6   7   28.71    0.92 
   2   6   7   26.39    1.83 
   2   6   7   25.70    1.80 
   6  -2   7   28.04    1.25 
   6  -3  -7   68.71    2.65 
   3   6  -7   67.21    4.02 
  -6   3  -7   63.83    2.61 
  -3  -6   7   64.32    1.99 
  -3  -6   7   65.54    3.21 
   3   6   7   66.60    3.85 
   3   6   7   65.17    3.82 
  -6   3   7   70.02    2.64 
   6  -3   7   67.91    2.63 
   4   6  -7   12.67    0.66 
  -6   4  -7   14.24    0.76 
  -4  -6   7   12.48    0.51 
  -6   4   7   11.88    0.75 
  -4  -6   7   12.70    0.76 
   6  -4   7   13.66    0.74 
   4   6   7   11.67    1.07 
   6  -5  -7   46.72    2.12 
  -6   5  -7   46.91    2.04 
  -6   5   7   50.69    2.05 
  -5  -6   7   48.28    1.49 
   6  -6  -7   10.33    0.64 
  -6   6  -7   12.30    0.79 
  -6  -6   7   10.28    0.47 
   6  -6   7   10.84    0.71 
  -6   6   7    9.03    0.71 
  -6   7  -7   25.30    1.36 
  -6   7   7   28.63    1.36 
  -7  -6   7   26.47    0.92 
   6  -7   7   26.41    1.04 
   7   5  -7   11.26    0.68 
  -5   7  -7   13.12    0.83 
   5  -7  -7   11.55    0.58 
   5  -7   7   11.28    0.59 
  -5   7   7   11.19    0.76 
  -7  -5   7   10.83    0.51 
   5  -7   7   11.60    0.65 
   7   4  -7   49.17    1.97 
  -4   7  -7   45.20    2.05 
   4  -7   7   46.79    2.02 
   7   4   7   46.91    1.91 
  -4   7   7   49.99    2.03 
  -7  -4   7   48.66    1.54 
   4  -7   7   48.25    1.59 
   7   3  -7   19.41    0.95 
  -3   7  -7   20.16    1.01 
  -7  -3   7   18.10    0.73 
   3  -7   7   18.59    0.82 
  -3   7   7   17.94    0.95 
   7   3   7   18.97    0.90 
   3  -7   7   20.00    0.77 
  -2   7  -7   48.80    2.13 
   7   2  -7   54.67    2.15 
  -7  -2   7   53.91    2.24 
   2  -7   7   51.57    1.67 
  -7  -2   7   52.79    1.68 
   7   2   7   52.31    2.10 
  -2   7   7   53.61    2.13 
   7   1  -7   21.41    1.05 
   1  -7  -7   22.99    1.19 
  -1   7  -7   21.22    1.01 
   1  -7   7   22.09    0.79 
  -7  -1   7   20.45    0.81 
  -1   7   7   20.47    1.62 
  -1   7   7   21.63    0.99 
   7   1   7   21.28    1.01 
  -7  -1   7   20.99    1.07 
   0   7  -7   65.15    2.55 
   7   0  -7   67.46    2.62 
   0  -7  -7   61.69    3.17 
  -7   0   7   71.65    2.07 
   0  -7   7   62.46    3.19 
  -7   0   7   68.51    2.84 
   7   0   7   65.88    2.59 
   0  -7   7   63.27    1.99 
   0   7   7   64.19    3.86 
   1   7  -7   21.66    1.72 
   1   7  -7   20.94    0.96 
   7  -1  -7   20.62    1.03 
   7  -1   7   21.19    1.02 
  -1  -7   7   21.16    0.74 
  -1  -7   7   21.16    1.13 
   1   7   7   19.98    1.51 
   2   7  -7   49.21    3.20 
  -7   2  -7   49.86    2.02 
   7  -2  -7   50.70    2.08 
  -7   2   7   54.52    2.06 
   7  -2   7   51.89    2.07 
  -2  -7   7   48.08    2.45 
   2   7   7   45.40    2.95 
  -2  -7   7   50.70    1.54 
  -7   3  -7   21.63    0.99 
   7  -3  -7   19.21    0.99 
   7  -3   7   19.08    0.99 
  -3  -7   7   19.73    0.69 
   3   7   7   18.68    1.44 
  -3  -7   7   19.18    1.06 
  -7   3   7   19.18    1.00 
  -7   4  -7   45.92    1.99 
  -4  -7   7   45.26    1.46 
   7  -4   7   48.05    1.99 
  -4  -7   7   47.42    2.35 
  -7   4   7   50.30    2.02 
  -7   5  -7   13.53    0.79 
  -5  -7   7   11.34    0.48 
  -5  -7   7   11.63    0.76 
  -7   5   7   11.09    0.78 
  -7   6  -7   25.22    1.34 
  -7   6   7   29.34    1.38 
  -6  -7   7   27.71    1.49 
  -6  -7   7   25.98    0.91 
   8   5  -7   25.72    1.19 
  -5   8  -7   24.73    1.32 
  -5   8   7   27.95    1.32 
  -8  -5   7   24.72    0.91 
   5  -8   7   25.41    1.00 
   8   4  -7    8.09    0.60 
  -4   8  -7    9.45    0.70 
  -4   8   7    7.88    0.63 
  -8  -4   7    7.95    0.45 
   8   4   7    9.74    0.58 
   4  -8   7    8.66    0.52 
  -3   8  -7   39.01    1.75 
   8   3  -7   41.87    1.74 
   3  -8   7   38.39    1.36 
   8   3   7   40.47    1.67 
  -3   8   7   40.46    1.73 
  -8  -3   7   39.52    1.34 
   8   2  -7    8.56    0.62 
  -2   8  -7    9.52    0.63 
   2  -8   7    9.34    0.49 
  -8  -2   7    8.29    0.48 
  -2   8   7    8.56    0.60 
  -8  -2   7    9.10    0.51 
   8   2   7    9.94    0.61 
   8   1  -7   41.57    1.79 
  -1   8  -7   39.43    1.72 
   1  -8  -7   39.17    2.11 
   1  -8   7   41.38    1.35 
  -8  -1   7   42.43    1.40 
   8   1   7   41.26    1.74 
  -8  -1   7   43.74    1.87 
   0   8  -7   13.57    0.72 
   0  -8  -7   12.96    0.77 
   8   0  -7   12.38    0.76 
   8   0   7   13.63    0.76 
  -8   0   7   11.85    0.77 
   0  -8   7   13.23    0.55 
   0  -8   7   13.02    0.79 
  -8   0   7   12.60    0.62 
   8  -1  -7   39.48    1.71 
  -1  -8   7   40.02    1.26 
   8  -1   7   40.77    1.70 
  -1  -8   7   36.74    1.97 
   8  -2  -7    8.48    0.63 
  -2  -8   7    9.23    0.62 
  -2  -8   7    9.46    0.42 
   8  -2   7    9.83    0.66 
   8  -3  -7   39.48    1.73 
  -8   3   7   42.28    1.75 
  -3  -8   7   38.88    1.24 
   8  -3   7   39.95    1.73 
  -3  -8   7   36.86    1.98 
  -8   4  -7   10.62    0.67 
  -8   4   7    7.72    0.66 
  -4  -8   7    9.00    0.63 
  -4  -8   7    8.51    0.40 
   8  -4   7    9.43    0.68 
  -8   5  -7   23.08    1.22 
  -8   5   7   26.12    1.26 
  -5  -8   7   24.70    1.34 
  -5  -8   7   23.90    0.81 
  -4   9  -7   21.66    1.16 
   9   4  -7   21.67    1.08 
   9   4   7   21.90    1.03 
  -4   9   7   21.04    1.09 
  -9  -4   7   21.30    0.83 
   4  -9   7   20.91    0.88 
   9   3  -7    8.54    0.63 
  -3   9  -7    9.00    0.64 
  -3   9   7    7.37    0.60 
   3  -9   7    8.51    0.50 
   9   3   7    9.57    0.62 
  -9  -3   7    7.95    0.48 
   9   2  -7   33.82    1.49 
  -2   9  -7   30.34    1.43 
  -9  -2   7   32.67    1.14 
   2  -9   7   32.33    1.13 
   9   2   7   32.20    1.43 
   1  -9  -7   10.93    0.73 
   9   1  -7   10.07    0.70 
  -9  -1   7    9.58    0.54 
   1  -9   7   10.15    0.50 
   9   1   7   11.01    0.69 
   9   0  -7   27.91    1.31 
   0  -9  -7   23.87    1.42 
  -9   0   7   28.95    1.34 
   0  -9   7   27.31    0.94 
   9  -1  -7   10.79    0.72 
  -1  -9  -7   10.48    0.66 
  -1  -9   7   10.54    0.70 
   9  -1   7   10.69    0.70 
  -1  -9   7   10.83    0.48 
   9  -2  -7   31.15    1.46 
  -2  -9   7   30.47    1.64 
   9  -2   7   32.06    1.46 
  -2  -9   7   31.91    1.02 
   9  -3  -7    8.18    0.64 
  -3  -9   7    9.07    0.40 
  -3  -9   7    8.59    0.63 
   9  -3   7    8.68    0.66 
  -4  -9   7   21.19    0.72 
   9  -4   7   21.82    1.12 
  -4  -9   7   20.23    1.18 
  -9   4   7   22.14    1.13 
   0   0  -8  221.33    8.01 
   0   0   8  220.70    8.00 
   0  -1  -8   47.28    1.72 
  -1   0  -8   45.61    1.71 
   1   0  -8   43.63    1.72 
   1   0  -8   42.15    1.87 
   0   1  -8   42.96    1.71 
   0  -1   8   45.91    1.70 
  -1   0   8   45.54    1.71 
   0   1   8   43.98    1.71 
   1   0   8   44.20    1.71 
   0  -1   8   42.64    1.88 
   0  -1   8   44.05    1.35 
  -1   0   8   41.14    1.88 
   0   1   8   43.67    2.61 
  -1   1  -8  177.28    6.95 
   1  -1  -8  203.56    6.97 
  -1  -1  -8  191.60    6.95 
   1   1  -8  200.35    6.98 
   1  -1  -8  198.41    7.69 
   1  -1   8  186.38    5.50 
  -1   1   8  190.28    6.96 
  -1  -1   8  199.04    5.51 
   1   1   8  192.82   10.24 
  -1  -1   8  199.25    6.95 
   1  -1   8  190.29    6.96 
  -1  -1   8  178.40    7.69 
   1  -1   8  177.81    7.70 
   1   1   8  194.80    6.96 
  -1   2  -8   43.98    1.86 
   1  -2  -8   53.03    1.87 
  -2  -1  -8   51.67    1.85 
   2   1  -8   47.78    1.88 
   1  -2  -8   48.10    2.03 
   2   1   8   48.30    2.87 
  -2  -1   8   47.93    1.85 
  -2  -1   8   49.24    2.07 
   2   1   8   46.19    1.86 
   1  -2   8   48.03    1.85 
  -1   2   8   48.44    2.87 
  -1   2   8   47.45    1.87 
   1  -2   8   48.11    1.48 
   1  -2   8   45.34    2.06 
  -2  -1   8   49.22    1.48 
  -2   0  -8  262.33    9.53 
   2   0  -8  279.32    9.64 
   0   2  -8  264.07   14.08 
   0  -2  -8  278.10    9.53 
   0   2  -8  262.69    9.55 
   0  -2   8  263.25    7.55 
  -2   0   8  248.34   10.56 
  -2   0   8  259.06    7.54 
  -2   0   8  272.33    9.53 
   0   2   8  266.05    9.54 
   2   0   8  253.90    9.53 
   0   2   8  276.21   14.00 
   0  -2   8  249.38   10.55 
   0  -2   8  262.43    9.52 
   2   0   8  257.37    9.53 
  -2   1  -8   47.31    1.87 
   1   2  -8   46.54    2.94 
   1   2  -8   46.72    1.88 
   2  -1  -8   47.97    2.05 
   2  -1  -8   49.00    1.89 
  -1  -2   8   47.41    2.06 
  -1  -2   8   49.82    1.85 
   2  -1   8   48.53    1.87 
  -1  -2   8   49.37    1.49 
  -2   1   8   48.07    1.88 
   1   2   8   48.32    1.87 
   2  -1   8   48.73    1.87 
   1   2   8   52.44    2.90 
   2   2  -8  118.75    4.34 
  -2   2  -8  111.50    4.33 
   2   2  -8  118.29    6.52 
   2  -2  -8  119.67    4.76 
   2  -2  -8  122.07    4.33 
  -2  -2   8  116.17    4.28 
   2   2   8  119.59    6.44 
  -2  -2   8  116.83    4.77 
  -2   2   8  120.59    4.33 
   2  -2   8  113.52    4.31 
   2  -2   8  113.13    4.31 
   2  -2   8  114.57    4.79 
  -2  -2   8  117.43    3.42 
   2   2   8  116.30    4.31 
   2  -2   8  116.62    3.42 
  -2   3  -8   50.09    1.94 
   3   2  -8   47.77    1.92 
   2  -3  -8   49.81    2.07 
  -3  -2  -8   52.54    2.05 
   3   2   8   49.83    1.91 
  -2   3   8   48.12    1.92 
   2  -3   8   47.48    1.89 
   2  -3   8   48.94    1.52 
  -3  -2   8   50.12    1.52 
   2  -3   8   47.85    1.89 
  -3  -2   8   48.90    2.09 
   3   2   8   48.72    1.91 
   2  -3   8   47.64    2.11 
  -1   3  -8  121.35    4.62 
   3   1  -8  129.87    4.63 
   1  -3  -8  125.49    5.05 
   1  -3   8  124.59    5.09 
  -3  -1   8  124.53    5.10 
   3   1   8  121.78    4.61 
   1  -3   8  121.28    4.58 
  -3  -1   8  128.55    4.59 
  -3  -1   8  126.33    3.65 
  -1   3   8  124.77    4.61 
  -1   3   8  126.96    6.86 
   1  -3   8  124.35    3.65 
   0   3  -8   42.57    1.72 
   0   3  -8   44.54    2.76 
  -3   0  -8   43.68    1.69 
   3   0  -8   43.57    1.73 
  -3   0   8   44.89    1.70 
   0   3   8   45.13    2.65 
   0  -3   8   43.21    1.35 
   0  -3   8   42.64    1.86 
   0   3   8   42.53    1.70 
  -3   0   8   44.50    1.36 
   3   0   8   43.57    1.71 
  -3   0   8   41.69    1.89 
  -3   1  -8  122.22    4.73 
   1   3  -8  126.36    4.74 
   3  -1  -8  132.57    4.76 
   1   3  -8  126.43    7.14 
   1   3   8  134.80    4.74 
  -1  -3   8  128.94    3.74 
  -3   1   8  134.36    4.75 
   3  -1   8  126.50    4.75 
   1   3   8  133.02    7.04 
  -1  -3   8  121.40    5.21 
   2   3  -8   50.81    1.97 
   2   3  -8   47.90    3.08 
   3  -2  -8   48.30    2.13 
   3  -2  -8   51.82    1.98 
  -3   2  -8   54.32    1.99 
  -2  -3   8   48.29    2.11 
  -2  -3   8   49.71    2.45 
   3  -2   8   51.08    1.56 
  -3   2   8   50.27    1.97 
  -2  -3   8   49.34    2.09 
  -2  -3   8   51.10    1.54 
   2   3   8   51.19    1.95 
   3  -2   8   48.81    1.96 
   2   3   8   51.32    3.00 
   3   3  -8  112.43    4.05 
   3  -3  -8  106.75    4.43 
  -3   3  -8  102.93    4.06 
   3  -3  -8  113.43    4.05 
   3  -3   8  107.35    4.48 
   3  -3   8  105.44    4.03 
   3   3   8  108.26    4.02 
   3  -3   8  107.78    3.20 
  -3  -3   8  112.54    4.38 
  -3   3   8  110.42    4.06 
  -3  -3   8  107.23    3.18 
  -3  -3   8  105.50    4.39 
   4   3  -8   23.69    1.07 
  -3   4  -8   25.73    1.13 
   3  -4  -8   23.55    1.11 
   4   3   8   23.19    1.04 
  -4  -3   8   25.40    1.08 
   3  -4   8   25.11    0.87 
   4   3   8   23.34    1.04 
   3  -4   8   24.75    1.18 
  -4  -3   8   25.82    1.10 
  -3   4   8   23.95    1.09 
  -4  -3   8   24.02    0.84 
   2  -4  -8  158.38    6.44 
  -2   4  -8  155.62    5.91 
   4   2  -8  161.98    5.90 
  -4  -2  -8  164.45    6.43 
  -4  -2   8  161.20    6.48 
   2  -4   8  159.33    4.66 
  -4  -2   8  158.45    4.65 
   2  -4   8  156.85    6.49 
  -2   4   8  164.27    5.89 
   4   2   8  159.03    5.87 
   4   1  -8   37.98    1.59 
  -1   4  -8   40.00    1.61 
  -4  -1   8   37.96    1.74 
  -4  -1   8   40.10    1.26 
  -4  -1   8   40.18    1.56 
   1  -4   8   40.62    1.72 
  -1   4   8   37.96    2.46 
  -1   4   8   39.99    1.58 
   4   1   8   38.89    1.59 
   1  -4   8   40.85    1.26 
  -4   0  -8  103.48    4.08 
   0   4  -8  108.18    4.11 
   4   0  -8  114.24    4.13 
   0   4   8  110.69    6.12 
   4   0   8  109.03    4.12 
  -4   0   8  116.68    4.10 
  -4   0   8  112.37    3.26 
   0  -4   8  108.57    4.48 
  -4   0   8  108.77    4.55 
   0  -4   8  112.18    3.25 
   0   4   8  110.22    4.09 
   1   4  -8   37.80    2.58 
   4  -1  -8   41.06    1.64 
  -4   1  -8   41.69    1.61 
   1   4  -8   38.30    1.60 
  -1  -4   8   39.98    1.99 
   1   4   8   40.06    2.48 
  -1  -4   8   40.05    1.67 
  -1  -4   8   41.38    1.27 
   1   4   8   39.98    1.59 
   4  -1   8   39.96    1.62 
  -1  -4   8   40.36    1.70 
  -4   1   8   40.99    1.61 
   2   4  -8  164.19    5.86 
  -4   2  -8  153.87    5.87 
   4  -2  -8  160.84    5.88 
   2   4  -8  158.40    8.77 
  -2  -4   8  157.47    4.61 
  -4   2   8  162.20    5.87 
   4  -2   8  157.29    5.87 
  -2  -4   8  155.11    7.51 
  -2  -4   8  163.32    6.36 
  -2  -4   8  155.03    6.37 
   2   4   8  160.50    8.64 
   2   4   8  162.91    5.83 
   4  -3  -8   24.19    1.15 
   3   4  -8   22.96    1.78 
   3   4  -8   24.02    1.07 
  -4   3  -8   26.90    1.13 
   4  -3  -8   24.86    1.10 
   3   4   8   24.40    1.04 
   3   4   8   24.38    1.71 
  -3  -4   8   23.93    1.28 
  -4   3   8   23.35    1.10 
  -3  -4   8   26.55    0.84 
  -3  -4   8   24.99    1.02 
   4  -3   8   23.89    1.08 
   4   4  -8   86.49    3.15 
   4  -4  -8   80.26    3.43 
  -4   4  -8   80.48    3.20 
  -4  -4   8   82.40    3.98 
   4  -4   8   79.65    3.14 
   4   4   8   81.98    3.10 
   4  -4   8   83.57    2.51 
  -4   4   8   84.31    3.19 
  -4  -4   8   82.95    2.47 
   5   4  -8   23.19    1.07 
   4  -5  -8   23.44    1.10 
  -4   5  -8   24.03    1.15 
  -5  -4   8   22.74    0.82 
   4  -5   8   23.38    1.16 
   5   4   8   23.62    1.02 
   5   4   8   24.20    1.03 
   4  -5   8   23.41    0.87 
  -4   5   8   21.62    1.09 
   5   3  -8   83.61    3.16 
   3  -5  -8   81.05    3.39 
  -3   5  -8   80.80    3.21 
   3  -5   8   79.21    2.51 
   3  -5   8   80.62    3.45 
  -5  -3   8   80.11    3.36 
   5   3   8   81.34    3.12 
  -5  -3   8   87.76    3.36 
  -5  -3   8   83.21    2.48 
  -3   5   8   86.13    3.18 
  -2   5  -8   21.63    1.02 
  -5  -2  -8   24.77    0.97 
   5   2  -8   20.28    0.99 
  -2   5   8   20.80    0.99 
   2  -5   8   21.56    1.02 
  -5  -2   8   20.68    1.02 
   5   2   8   21.67    0.98 
   2  -5   8   20.82    0.79 
  -5  -2   8   20.80    0.77 
  -1   5  -8   94.80    3.65 
   5   1  -8   95.73    3.66 
  -1   5   8   98.07    3.63 
   1  -5   8   95.47    2.87 
   1  -5   8   95.72    3.94 
  -1   5   8   95.17    5.46 
  -5  -1   8   99.31    4.03 
  -5  -1   8   97.14    2.89 
   5   1   8   96.90    3.64 
   0   5  -8   34.41    1.41 
   5   0  -8   32.74    1.42 
  -5   0   8   33.85    1.13 
  -5   0   8   33.61    1.39 
   0  -5   8   34.47    1.41 
   0  -5   8   34.69    1.11 
   0   5   8   34.42    1.38 
   0   5   8   31.97    2.17 
  -5   0   8   33.18    1.56 
   0  -5   8   33.33    1.70 
   0  -5   8   34.95    1.43 
   5   0   8   33.29    1.42 
   1   5  -8   93.69    5.50 
   1   5  -8   93.38    3.57 
  -5   1  -8   93.29    3.57 
   5  -1  -8   98.39    3.61 
   1   5   8   97.35    3.54 
   1   5   8   93.84    5.33 
   5  -1   8   94.41    3.60 
  -1  -5   8   92.91    4.53 
  -1  -5   8   92.15    2.81 
  -5   1   8   98.27    3.58 
   2   5  -8   21.21    0.96 
   5  -2  -8   20.76    0.98 
   2   5  -8   19.57    1.61 
  -5   2  -8   22.44    0.97 
   2   5   8   20.34    1.51 
   2   5   8   21.34    0.91 
   5  -2   8   20.43    0.98 
  -2  -5   8   21.38    0.73 
  -2  -5   8   20.00    1.10 
  -5   2   8   19.98    0.97 
   5  -3  -8   81.31    3.10 
   3   5  -8   79.04    4.73 
   3   5  -8   82.62    3.05 
  -5   3  -8   73.99    3.08 
   3   5   8   78.47    3.00 
  -3  -5   8   79.83    2.39 
   5  -3   8   78.80    3.08 
  -5   3   8   84.77    3.11 
  -3  -5   8   80.40    3.85 
   3   5   8   79.55    4.58 
   4   5  -8   21.96    1.04 
  -5   4  -8   25.56    1.14 
   4   5   8   22.96    1.00 
  -5   4   8   22.31    1.10 
   4   5   8   23.61    1.69 
  -4  -5   8   22.29    0.80 
   5  -4   8   24.09    1.09 
  -4  -5   8   22.58    1.24 
   5  -5  -8   42.61    2.00 
   5   5  -8   49.68    1.88 
  -5   5  -8   43.39    1.95 
   5  -5   8   45.79    1.52 
  -5   5   8   48.07    1.95 
  -5  -5   8   45.66    1.45 
  -5   6  -8   13.64    0.83 
   5  -6  -8   12.65    0.68 
   6   5  -8   11.92    0.69 
   5  -6   8   11.95    0.73 
  -6  -5   8   12.08    0.53 
  -5   6   8   11.24    0.77 
   5  -6   8   12.38    0.61 
   6   4  -8   65.87    2.47 
   4  -6  -8   61.28    2.59 
  -4   6  -8   61.78    2.56 
   4  -6   8   61.62    2.65 
   6   4   8   61.25    2.41 
   4  -6   8   58.63    1.97 
  -4   6   8   63.14    2.51 
  -6  -4   8   62.71    1.93 
   6   3  -8   18.78    0.96 
  -3   6  -8   21.34    1.05 
  -6  -3   8   19.75    0.76 
   6   3   8   20.01    0.93 
  -6  -3   8   19.89    0.88 
  -6  -3   8   20.15    0.88 
   3  -6   8   19.99    0.96 
  -3   6   8   19.81    0.99 
   3  -6   8   20.28    0.79 
  -6  -2  -8   71.24    2.89 
  -2   6  -8   67.34    2.78 
   6   2  -8   74.85    2.78 
   2  -6   8   68.71    2.91 
  -6  -2   8   72.60    2.18 
   2  -6   8   69.25    2.18 
   6   2   8   68.92    2.73 
  -2   6   8   71.63    2.75 
  -6  -2   8   71.16    2.97 
   6   1  -8   19.66    0.97 
  -1   6  -8   20.52    0.97 
  -6  -1   8   18.98    0.76 
   6   1   8   20.73    0.96 
   1  -6   8   21.49    0.76 
   1  -6   8   20.02    0.85 
  -1   6   8   19.49    0.93 
  -6  -1   8   19.54    1.03 
   6   0  -8   97.08    3.70 
   0   6  -8   95.77    3.66 
   0   6   8   93.08    5.45 
   0  -6   8   88.58    4.62 
  -6   0   8  103.25    2.93 
   0   6   8   99.31    3.62 
   6   0   8   93.05    3.67 
   0  -6   8   95.97    2.87 
  -6   0   8  102.25    4.07 
   1   6  -8   19.93    0.93 
   6  -1  -8   19.04    0.96 
  -1  -6   8   20.32    0.72 
   6  -1   8   20.02    0.97 
  -6   1   8   19.80    0.94 
   1   6   8   20.10    0.89 
  -1  -6   8   19.81    1.08 
   1   6   8   19.10    1.49 
   2   6  -8   70.11    4.24 
   2   6  -8   76.15    2.71 
  -6   2  -8   67.18    2.71 
   6  -2  -8   70.12    2.75 
  -6   2   8   73.32    2.74 
   6  -2   8   68.52    2.74 
  -2  -6   8   66.45    3.37 
   2   6   8   68.23    4.05 
  -2  -6   8   67.11    2.10 
  -6   3  -8   22.12    1.01 
   6  -3  -8   20.27    1.01 
   3   6  -8   19.25    1.64 
   3   6  -8   20.34    0.95 
  -3  -6   8   20.51    0.72 
   3   6   8   19.76    1.51 
  -3  -6   8   20.14    1.10 
   6  -3   8   20.25    1.00 
  -6   3   8   19.22    1.00 
  -6   4  -8   59.02    2.50 
   4   6  -8   64.07    2.42 
  -4  -6   8   62.14    3.04 
  -4  -6   8   59.22    1.88 
  -6   4   8   64.20    2.52 
   6  -4   8   62.34    2.49 
  -6   5  -8   13.96    0.82 
   5   6  -8   12.25    0.68 
  -5  -6   8   12.38    0.80 
  -5  -6   8   12.19    0.52 
  -6   5   8   11.57    0.79 
   6  -6  -8   31.94    1.52 
  -6   6  -8   32.01    1.57 
  -6  -6   8   31.62    1.10 
  -6   6   8   35.49    1.57 
   6  -6   8   34.26    1.60 
  -6   7  -8   10.98    0.80 
  -6   7   8    9.39    0.75 
  -7  -6   8    9.86    0.49 
   7   5  -8   31.16    1.36 
  -5   7  -8   29.38    1.48 
  -7  -5   8   30.23    1.05 
   5  -7   8   30.29    1.13 
   5  -7   8   29.93    1.40 
  -5   7   8   31.12    1.45 
  -4   7  -8   11.42    0.76 
   7   4  -8   10.24    0.66 
  -7  -4   8   10.34    0.51 
   7   4   8   11.55    0.63 
  -4   7   8    9.45    0.70 
   4  -7   8   10.88    0.57 
   4  -7   8   10.50    0.58 
   7   3  -8   43.45    1.77 
  -3   7  -8   41.15    1.81 
   3  -7   8   38.34    1.70 
  -7  -3   8   41.83    1.37 
   3  -7   8   40.55    1.39 
   7   3   8   41.72    1.70 
  -3   7   8   40.59    1.75 
   7   2  -8   17.81    0.93 
  -2   7  -8   18.29    0.95 
  -2   7   8   17.46    0.92 
  -7  -2   8   17.76    0.73 
   2  -7   8   18.82    0.74 
  -7  -2   8   18.36    0.89 
   7   2   8   18.11    0.90 
  -1   7  -8   47.23    2.02 
   7   1  -8   50.24    2.07 
   7   1   8   49.49    2.03 
  -7  -1   8   50.42    1.63 
   1  -7   8   49.14    1.59 
  -7  -1   8   50.37    2.21 
  -1   7   8   51.14    2.00 
   0   7  -8   14.51    0.77 
   7   0  -8   14.03    0.81 
   0   7   8   14.34    0.73 
  -7   0   8   14.54    0.64 
   0  -7   8   14.82    0.59 
  -7   0   8   13.66    0.83 
   7   0   8   15.02    0.80 
   0   7   8   13.44    1.25 
   1   7  -8   48.07    1.93 
   7  -1  -8   49.05    2.01 
  -1  -7   8   47.75    2.38 
  -1  -7   8   45.84    1.50 
   1   7   8   46.43    2.94 
   7  -1   8   49.32    2.00 
   7  -2  -8   17.71    0.95 
   2   7  -8   18.55    0.88 
  -7   2   8   17.43    0.93 
  -2  -7   8   18.54    0.67 
  -2  -7   8   17.03    1.01 
   7  -2   8   19.01    0.96 
   7  -3  -8   39.24    1.73 
  -7   3  -8   37.70    1.70 
  -3  -7   8   39.48    2.02 
   7  -3   8   39.62    1.73 
  -7   3   8   42.63    1.75 
  -3  -7   8   40.98    1.28 
  -7   4  -8   13.16    0.76 
  -7   4   8    9.66    0.72 
   7  -4   8   11.79    0.73 
  -4  -7   8   10.97    0.48 
  -4  -7   8   10.65    0.73 
  -7   5  -8   27.23    1.39 
  -5  -7   8   28.30    0.97 
  -5  -7   8   29.75    1.57 
  -7   5   8   30.61    1.41 
  -7   6  -8   11.86    0.80 
  -7   6   8    8.89    0.73 
  -6  -7   8    9.81    0.46 
  -5   8  -8   10.28    0.77 
   8   5  -8    8.86    0.62 
  -5   8   8    7.79    0.68 
   5  -8   8    8.92    0.55 
  -8  -5   8    8.05    0.46 
   8   4  -8   30.84    1.37 
  -4   8  -8   28.94    1.45 
  -4   8   8   30.48    1.40 
  -8  -4   8   29.40    1.05 
   4  -8   8   28.44    1.10 
   8   4   8   28.88    1.30 
   8   3  -8    8.57    0.64 
  -3   8  -8   10.12    0.71 
   3  -8   8    9.35    0.53 
  -8  -3   8    9.29    0.50 
  -3   8   8    8.65    0.64 
   8   3   8    9.79    0.63 
  -2   8  -8   42.70    1.86 
   8   2  -8   44.95    1.88 
  -8  -2   8   43.93    1.46 
  -2   8   8   42.95    1.82 
   2  -8   8   42.23    1.45 
   8   2   8   42.92    1.82 
  -8  -2   8   44.70    1.86 
  -1   8  -8   12.21    0.73 
   8   1  -8   12.67    0.78 
   1  -8   8   13.14    0.57 
  -8  -1   8   13.08    0.63 
   8   1   8   13.22    0.75 
  -8  -1   8   12.37    0.74 
   0   8  -8   34.49    1.54 
   8   0  -8   37.26    1.64 
  -8   0   8   38.50    1.73 
   0  -8   8   35.49    1.21 
   8   0   8   36.51    1.60 
   8  -1  -8   12.33    0.78 
  -1  -8   8   12.30    0.79 
  -1  -8   8   13.09    0.55 
   8  -1   8   13.28    0.77 
   8  -2  -8   41.10    1.81 
  -2  -8   8   41.95    1.32 
   8  -2   8   42.89    1.81 
  -2  -8   8   39.79    2.10 
   8  -3  -8    9.67    0.67 
   8  -3   8    9.55    0.68 
  -3  -8   8   10.35    0.44 
  -8   3   8    8.98    0.68 
  -3  -8   8    9.01    0.65 
  -8   4  -8   27.62    1.37 
   8  -4   8   31.02    1.42 
  -4  -8   8   29.11    1.58 
  -8   4   8   32.70    1.45 
  -4  -8   8   28.11    0.97 
  -8   5  -8   10.53    0.71 
  -5  -8   8    8.63    0.41 
  -8   5   8    8.19    0.70 
  -5  -8   8    8.46    0.67 
   9   3  -8   24.17    1.16 
  -3   9  -8   21.60    1.15 
   3  -9   8   21.71    0.89 
   9   3   8   23.23    1.10 
  -3   9   8   22.30    1.12 
  -9  -3   8   22.36    0.88 
   9   2  -8    7.11    0.60 
  -2   9  -8    7.19    0.58 
   9   2   8    7.13    0.57 
   2  -9   8    7.45    0.46 
  -9  -2   8    7.01    0.47 
   9   1  -8   24.02    1.20 
  -1   9  -8   22.12    1.12 
   1  -9   8   23.67    0.88 
   9   1   8   23.63    1.15 
  -9  -1   8   25.57    0.94 
   9   0  -8    9.19    0.69 
   9   0   8   10.11    0.68 
   0  -9   8   10.53    0.49 
   9  -1  -8   23.15    1.20 
   9  -1   8   25.31    1.20 
  -1  -9   8   23.94    0.85 
   9  -2  -8    6.76    0.59 
  -2  -9   8    7.55    0.39 
   9  -2   8    7.67    0.63 
  -2  -9   8    7.20    0.57 
   9  -3  -8   21.99    1.13 
  -3  -9   8   21.28    1.23 
  -3  -9   8   21.44    0.76 
   9  -3   8   22.83    1.15 
   0   0  -9   46.68    1.84 
   0   0   9   47.36    1.83 
   0  -1  -9  164.43    5.78 
   1   0  -9  160.36    5.78 
  -1   0  -9  148.90    5.76 
   0   1  -9  161.01    5.78 
   0   1   9  161.53    5.77 
   1   0   9  158.53    5.77 
  -1   0   9  155.44    4.56 
   0  -1   9  159.34    4.56 
  -1   0   9  161.09    5.77 
   0  -1   9  140.19    6.36 
   0  -1   9  162.85    5.76 
   1   1  -9   35.04    1.46 
  -1   1  -9   33.91    1.45 
  -1  -1  -9   40.61    1.46 
   1  -1  -9   35.29    1.58 
   1  -1  -9   37.98    1.47 
  -1   1   9   36.51    1.46 
  -1  -1   9   36.92    1.44 
   1  -1   9   36.64    1.46 
   1   1   9   37.10    1.46 
  -1  -1   9   33.10    1.58 
   1  -1   9   35.64    1.15 
  -1  -1   9   37.98    1.16 
   2   1  -9  151.34    5.43 
   1  -2  -9  144.72    5.95 
   1  -2  -9  154.83    5.42 
  -2  -1  -9  144.89    5.39 
  -1   2  -9  152.33    5.43 
   1  -2   9  142.96    4.28 
   1  -2   9  139.70    5.99 
   2   1   9  145.07    5.41 
  -2  -1   9  150.13    5.40 
  -2  -1   9  144.18    5.98 
  -2  -1   9  151.86    4.28 
  -1   2   9  147.07    5.42 
   1  -2   9  145.95    5.40 
   0   2  -9   51.69    2.12 
   0  -2  -9   60.00    2.11 
   2   0  -9   52.77    2.12 
  -2   0  -9   55.75    2.11 
   0   2   9   54.12    2.12 
   0  -2   9   56.00    2.10 
  -2   0   9   53.82    2.11 
   0  -2   9   54.57    1.67 
  -2   0   9   53.89    1.68 
   0  -2   9   54.55    2.33 
   2   0   9   55.07    2.12 
  -2   1  -9  143.33    5.45 
   1   2  -9  147.16    5.46 
   2  -1  -9  148.81    5.46 
   1   2   9  150.55    8.09 
  -1  -2   9  145.67    6.02 
  -1  -2   9  151.19    4.31 
   2  -1   9  148.99    5.45 
  -2   1   9  150.94    5.45 
   1   2   9  147.43    5.44 
  -1  -2   9  148.98    5.42 
  -2   2  -9   74.76    2.80 
   2  -2  -9   75.54    2.79 
   2   2  -9   71.36    2.80 
   2  -2  -9   68.95    3.03 
  -2   2   9   71.78    2.79 
  -2  -2   9   71.68    2.75 
   2  -2   9   73.83    2.21 
  -2  -2   9   74.79    3.07 
   2   2   9   75.58    4.25 
  -2  -2   9   75.81    2.21 
   2   2   9   73.67    2.78 
   2  -2   9   72.09    2.78 
  -2   3  -9   97.86    3.82 
   3   2  -9  104.92    3.83 
   2  -3  -9  100.19    4.16 
   3   2   9  104.89    3.81 
   2  -3   9  101.25    4.21 
  -3  -2   9  100.49    4.18 
   2  -3   9  102.17    3.02 
  -3  -2   9  103.55    3.01 
  -2   3   9  102.17    3.81 
   2  -3   9   98.57    3.78 
  -1   3  -9   43.48    1.79 
   3   1  -9   44.49    1.80 
  -1   3   9   43.32    1.78 
   3   1   9   46.09    1.78 
   1  -3   9   45.84    1.42 
   1  -3   9   44.51    1.95 
  -3  -1   9   45.18    1.96 
   1  -3   9   44.96    1.75 
  -3  -1   9   44.98    1.75 
  -3  -1   9   44.57    1.41 
   3   1   9   45.38    1.78 
   0   3  -9  140.92    5.36 
   3   0  -9  150.67    5.37 
  -3   0  -9  139.43    5.33 
  -3   0   9  149.05    5.34 
   0  -3   9  138.57    5.89 
  -3   0   9  145.67    4.24 
   0  -3   9  143.67    4.23 
   3   0   9  145.96    5.36 
   3   0   9  144.32    5.35 
   0   3   9  146.11    5.34 
   0   3   9  152.87    7.97 
   3  -1  -9   45.08    1.83 
  -3   1  -9   47.15    1.82 
   1   3  -9   45.31    1.84 
  -1  -3   9   43.96    1.97 
   3  -1   9   45.87    1.83 
   1   3   9   46.80    2.83 
   1   3   9   48.00    1.82 
  -3   1   9   45.84    1.82 
  -1  -3   9   46.96    1.44 
   3  -1   9   45.95    1.83 
   2   3  -9  104.71    3.90 
   3  -2  -9  105.28    3.90 
  -3   2  -9   95.47    3.89 
  -2  -3   9  103.58    4.26 
   3  -2   9  103.69    3.89 
   2   3   9  105.68    5.84 
  -2  -3   9  105.11    3.07 
   2   3   9  106.23    3.88 
  -3   2   9  107.12    3.90 
   3  -2   9  102.86    3.89 
   3  -3  -9   33.65    1.37 
   3   3  -9   31.50    1.36 
  -3   3  -9   33.00    1.39 
   3  -3  -9   31.70    1.45 
  -3  -3   9   33.65    1.07 
   3   3   9   33.47    2.18 
   3  -3   9   31.36    1.34 
   3   3   9   32.34    1.34 
  -3   3   9   30.67    1.36 
   3  -3   9   31.43    1.34 
   3  -3   9   33.16    1.09 
  -3  -3   9   32.54    1.43 
   3  -4  -9   91.35    3.91 
   4   3  -9   97.74    3.62 
  -3   4  -9   88.33    3.63 
   3  -4   9   99.30    4.00 
   4   3   9   93.87    3.57 
  -4  -3   9   94.39    2.84 
  -3   4   9   97.87    3.63 
  -4  -3   9   98.53    3.90 
   4   3   9   95.65    3.58 
   3  -4   9   93.40    2.86 
  -2   4  -9   37.97    1.55 
   2  -4  -9   36.95    1.58 
   4   2  -9   35.57    1.52 
   2  -4   9   37.04    1.21 
   4   2   9   35.99    1.49 
   2  -4   9   36.67    1.64 
  -2   4   9   36.02    1.51 
   4   2   9   36.41    1.50 
  -4  -2   9   35.34    1.61 
  -4  -2   9   35.65    1.19 
  -1   4  -9  102.93    3.92 
   4   1  -9  103.20    3.92 
  -1   4   9  104.25    3.90 
  -4  -1   9  104.73    4.31 
   1  -4   9  103.52    3.09 
  -4  -1   9  104.38    3.09 
   1  -4   9  106.08    4.28 
   4   1   9  102.12    3.90 
  -4   0  -9   52.70    1.99 
   0   4  -9   49.80    2.02 
   4   0  -9   51.37    2.04 
   0  -4   9   49.71    2.17 
  -4   0   9   52.52    2.01 
   0   4   9   51.40    2.01 
   4   0   9   50.67    2.03 
   0  -4   9   51.38    1.59 
   0   4   9   50.97    3.12 
  -4   0   9   50.51    1.60 
   1   4  -9  105.15    3.95 
   4  -1  -9  108.12    3.97 
  -4   1  -9  100.87    3.93 
   4  -1   9  104.27    3.95 
  -4   1   9  108.82    3.95 
  -1  -4   9  100.74    4.28 
   1   4   9  106.77    3.92 
  -1  -4   9  103.72    3.10 
   1   4   9  107.35    5.90 
  -4   2  -9   38.62    1.55 
   4  -2  -9   35.91    1.54 
   2   4  -9   36.35    1.54 
   2   4   9   37.01    1.50 
  -2  -4   9   38.07    1.56 
   2   4   9   36.90    2.40 
  -4   2   9   37.15    1.54 
  -2  -4   9   38.63    1.19 
  -2  -4   9   35.48    1.57 
   4  -2   9   36.61    1.54 
   4  -3  -9  101.00    3.69 
   3   4  -9  101.12    3.67 
  -4   3  -9   88.97    3.67 
  -4   3   9   98.62    3.68 
   4  -3   9   94.64    3.66 
   3   4   9   95.40    3.62 
  -3  -4   9   91.38    3.89 
   3   4   9   97.28    5.49 
  -3  -4   9  101.18    3.89 
  -3  -4   9   96.00    2.87 
  -4   4  -9   31.32    1.37 
   4  -4  -9   29.55    1.37 
   4   4  -9   28.56    1.29 
   4   4   9   28.49    1.26 
  -4  -4   9   31.02    1.01 
   4  -4   9   29.85    1.05 
  -4   4   9   28.20    1.32 
   4   4   9   31.15    2.11 
   4  -5  -9   51.06    2.25 
  -4   5  -9   50.80    2.20 
   5   4  -9   56.71    2.14 
  -4   5   9   55.14    2.18 
   4  -5   9   50.76    1.70 
  -5  -4   9   51.91    1.66 
   4  -5   9   53.14    2.34 
   5   4   9   51.35    2.08 
  -3   5  -9   19.36    0.99 
   5   3  -9   17.99    0.93 
   3  -5  -9   19.67    0.91 
   3  -5   9   19.24    0.76 
   3  -5   9   19.85    0.99 
  -3   5   9   18.57    0.95 
  -5  -3   9   18.81    0.73 
   5   3   9   18.60    0.90 
   5   3   9   18.91    0.90 
  -5  -3   9   19.33    0.89 
  -2   5  -9   96.55    3.59 
   5   2  -9   94.83    3.55 
   5   2   9   90.94    3.51 
   2  -5   9   91.20    3.84 
  -5  -2   9   91.87    2.79 
  -2   5   9   93.21    3.54 
  -5  -2   9   92.11    3.85 
   2  -5   9   90.54    2.80 
  -1   5  -9   22.90    1.06 
   5   1  -9   21.89    1.05 
  -5  -1   9   22.56    0.84 
   1  -5   9   23.81    0.84 
  -5  -1   9   21.86    1.12 
   1  -5   9   23.25    1.06 
  -1   5   9   23.27    1.04 
   5   1   9   22.65    1.05 
   0   5  -9   76.51    2.96 
   5   0  -9   78.00    2.99 
   0   5   9   73.86    4.46 
   0  -5   9   75.41    2.32 
   0  -5   9   75.16    3.13 
  -5   0   9   78.82    2.35 
   5   0   9   75.92    2.97 
  -5   0   9   79.57    2.94 
   0   5   9   76.75    2.93 
   0  -5   9   77.74    3.15 
   5  -1  -9   22.10    1.07 
  -5   1  -9   25.32    1.04 
   1   5  -9   22.15    1.05 
   1   5   9   23.29    1.02 
  -1  -5   9   23.17    0.81 
  -1  -5   9   22.73    0.98 
  -1  -5   9   23.40    0.98 
   5  -1   9   22.84    1.07 
  -5   1   9   23.04    1.05 
   1   5   9   22.44    1.69 
  -5   2  -9   87.86    3.44 
   2   5  -9   92.68    3.44 
   5  -2  -9   94.06    3.48 
   2   5   9   90.40    3.39 
   2   5   9   89.17    5.14 
   5  -2   9   89.92    3.46 
  -2  -5   9   88.76    2.69 
  -5   2   9   94.30    3.46 
  -2  -5   9   84.18    4.33 
  -5   3  -9   20.59    0.97 
   5  -3  -9   19.16    0.96 
   3   5  -9   18.56    0.93 
   5  -3   9   19.38    0.95 
  -3  -5   9   20.17    0.72 
  -5   3   9   18.93    0.96 
   3   5   9   19.02    0.88 
   3   5   9   18.32    1.50 
  -5   4  -9   51.01    2.17 
   4   5  -9   55.30    2.13 
   4   5   9   52.90    3.27 
   5  -4   9   50.82    2.13 
  -5   4   9   52.88    2.18 
  -4  -5   9   52.88    1.65 
   4   5   9   52.40    2.06 
   5  -5  -9   16.91    0.88 
   5   5  -9   15.30    0.84 
  -5   5  -9   18.50    0.97 
  -5   5   9   15.02    0.90 
   5   5   9   16.80    0.81 
  -5  -5   9   16.19    0.65 
  -5   6  -9   42.39    1.97 
   5  -6  -9   42.67    1.94 
   6   5  -9   47.18    1.87 
   5  -6   9   44.99    1.52 
   5  -6   9   45.75    2.03 
  -6  -5   9   43.68    1.44 
  -5   6   9   44.77    1.93 
  -4   6  -9   20.43    1.09 
   6   4  -9   19.59    0.99 
   4  -6  -9   19.80    0.95 
  -6  -4   9   20.27    0.77 
  -4   6   9   19.38    1.04 
   6   4   9   20.82    0.96 
   6   4   9   21.03    0.96 
   4  -6   9   20.38    0.83 
   4  -6   9   19.80    1.02 
   6   3  -9   51.63    2.10 
  -3   6  -9   49.82    2.15 
   6   3   9   50.62    2.05 
  -3   6   9   51.96    2.11 
  -6  -3   9   50.17    2.12 
  -6  -3   9   54.07    2.13 
   3  -6   9   49.20    2.20 
  -6  -3   9   51.61    1.64 
   3  -6   9   50.43    1.67 
  -2   6  -9   25.86    1.20 
   6   2  -9   23.35    1.15 
   2  -6   9   24.90    1.12 
   6   2   9   25.24    1.14 
  -6  -2   9   24.09    1.17 
   2  -6   9   25.52    0.92 
  -6  -2   9   24.82    0.91 
  -2   6   9   23.98    1.14 
   6   1  -9   67.19    2.65 
  -1   6  -9   64.91    2.63 
   1  -6   9   63.28    2.70 
   1  -6   9   68.26    2.07 
  -6  -1   9   68.38    2.09 
  -6  -1   9   67.85    2.88 
   6   1   9   66.74    2.63 
  -1   6   9   68.18    2.61 
   1  -6   9   65.35    2.71 
   0   6  -9   24.96    1.16 
   6   0  -9   24.21    1.18 
   0  -6   9   25.69    0.90 
   6   0   9   25.90    1.18 
   0   6   9   26.30    1.13 
  -6   0   9   25.20    0.94 
   6  -1  -9   67.90    2.67 
   1   6  -9   65.49    2.60 
   1   6   9   66.78    2.56 
   6  -1   9   66.98    2.65 
   1   6   9   64.07    3.96 
  -1  -6   9   65.49    2.04 
  -6   1   9   69.19    2.63 
   6  -2  -9   24.24    1.18 
  -6   2  -9   27.77    1.17 
   2   6  -9   24.30    1.13 
  -6   2   9   24.38    1.17 
   2   6   9   23.75    1.79 
  -2  -6   9   25.40    0.86 
  -2  -6   9   24.40    1.34 
   2   6   9   24.52    1.08 
   6  -2   9   25.25    1.18 
  -6   3  -9   46.22    2.04 
   6  -3  -9   51.09    2.08 
   3   6  -9   53.10    2.03 
  -3  -6   9   48.79    1.56 
   3   6   9   48.25    3.07 
  -6   3   9   51.32    2.07 
   6  -3   9   50.92    2.07 
  -3  -6   9   47.84    2.48 
  -6   4  -9   21.89    1.06 
   4   6  -9   18.80    0.96 
   6  -4   9   20.56    1.03 
  -4  -6   9   20.29    0.74 
  -6   4   9   18.72    1.04 
  -6   5  -9   40.90    1.90 
   5   6  -9   46.22    1.82 
  -5  -6   9   42.48    1.40 
  -6   5   9   44.86    1.91 
  -6   6  -9   16.57    0.96 
   6  -6  -9   14.06    0.81 
  -6  -6   9   14.18    0.60 
  -6   6   9   13.68    0.89 
  -6   7  -9   20.60    1.20 
  -6   7   9   21.72    1.15 
  -7  -6   9   20.57    0.79 
   7   5  -9    9.93    0.66 
  -5   7  -9   10.82    0.81 
   5  -7   9   10.32    0.59 
  -5   7   9    9.65    0.73 
  -7  -5   9    9.92    0.51 
  -4   7  -9   41.05    1.87 
   7   4  -9   43.28    1.80 
   7   4   9   40.93    1.72 
   4  -7   9   41.34    1.44 
   7   4   9   41.28    1.72 
  -7  -4   9   42.23    1.39 
   4  -7   9   40.66    1.80 
  -4   7   9   41.87    1.82 
  -3   7  -9   13.35    0.82 
   7   3  -9   12.19    0.76 
   3  -7   9   12.65    0.62 
   3  -7   9   13.84    0.63 
   7   3   9   13.36    0.74 
  -3   7   9   13.01    0.79 
  -7  -3   9   12.71    0.60 
  -2   7  -9   39.54    1.76 
   7   2  -9   41.17    1.76 
  -2   7   9   40.93    1.72 
   2  -7   9   39.06    1.36 
  -7  -2   9   41.39    1.37 
  -7  -2   9   41.12    1.77 
   7   2   9   38.58    1.70 
   7   1  -9   14.97    0.86 
  -1   7  -9   15.75    0.86 
  -7  -1   9   15.37    0.88 
  -7  -1   9   15.85    0.69 
   1  -7   9   16.64    0.67 
   7   1   9   16.22    0.85 
  -1   7   9   15.58    0.82 
   7   0  -9   53.94    2.24 
   0   7  -9   52.50    2.19 
   0  -7   9   54.11    1.71 
   7   0   9   53.88    2.22 
   0   7   9   56.05    2.16 
   1   7  -9   15.23    0.83 
   7  -1  -9   15.80    0.88 
   7  -1   9   16.40    0.89 
  -1  -7   9   16.19    0.64 
   7  -2  -9   39.07    1.72 
   2   7  -9   39.73    1.65 
  -7   2   9   42.15    1.71 
  -2  -7   9   37.79    1.26 
  -2  -7   9   37.10    2.00 
   7  -2   9   38.96    1.71 
   7  -3  -9   12.63    0.79 
   3   7  -9   12.94    0.73 
  -7   3  -9   15.13    0.80 
   7  -3   9   13.57    0.81 
  -3  -7   9   12.86    0.83 
  -3  -7   9   13.82    0.55 
  -7   3   9   12.35    0.80 
  -7   4  -9   37.99    1.76 
  -4  -7   9   40.42    1.31 
  -7   4   9   43.18    1.81 
   7  -4   9   40.56    1.78 
  -7   5  -9   11.99    0.77 
  -7   5   9    9.56    0.74 
  -5  -7   9   10.37    0.48 
  -7   6  -9   20.63    1.18 
  -7   6   9   23.53    1.20 
  -6  -7   9   20.98    0.79 
   8   4  -9   10.58    0.74 
  -4   8  -9   12.04    0.83 
  -8  -4   9   11.12    0.57 
   8   4   9   13.12    0.72 
  -4   8   9   10.63    0.77 
   4  -8   9   12.17    0.63 
   8   4   9   12.44    0.71 
   8   3  -9   34.74    1.54 
  -3   8  -9   32.51    1.56 
  -3   8   9   34.06    1.52 
   8   3   9   33.64    1.47 
   3  -8   9   32.05    1.19 
  -8  -3   9   33.61    1.19 
   8   2  -9   13.33    0.83 
  -2   8  -9   13.84    0.84 
   2  -8   9   14.45    0.65 
   8   2   9   14.47    0.81 
  -2   8   9   13.39    0.80 
  -8  -2   9   14.32    0.71 
  -8  -2   9   13.10    0.64 
   8   1  -9   34.84    1.57 
  -1   8  -9   31.32    1.51 
  -8  -1   9   36.07    1.23 
   8   1   9   34.70    1.53 
  -8  -1   9   35.27    1.61 
   1  -8   9   33.95    1.19 
   0   8  -9   16.63    0.89 
   8   0  -9   16.46    0.94 
  -8   0   9   16.85    0.97 
   0  -8   9   16.71    0.68 
   8   0   9   17.83    0.94 
   8  -1  -9   32.84    1.53 
   1   8  -9   32.69    1.44 
  -1  -8   9   31.97    1.10 
   8  -1   9   34.68    1.52 
   8  -2  -9   13.83    0.85 
  -2  -8   9   14.52    0.59 
   8  -2   9   14.89    0.86 
   8  -3  -9   32.90    1.53 
  -8   3   9   34.01    1.52 
   8  -3   9   32.58    1.52 
  -3  -8   9   32.34    1.09 
  -8   4  -9   12.91    0.78 
  -8   4   9   10.57    0.78 
  -4  -8   9   12.17    0.51 
  -2   9  -9   24.78    1.27 
   9   2  -9   27.70    1.34 
  -9  -2   9   28.94    1.05 
   9   2   9   27.31    1.27 
   2  -9   9   26.12    1.00 
  -1   9  -9    8.18    0.61 
   9   1  -9    7.69    0.64 
   9   1   9    8.19    0.63 
  -9  -1   9    8.31    0.52 
   1  -9   9    7.94    0.47 
   9   0  -9   22.04    1.15 
   0  -9   9   21.24    0.82 
   9   0   9   22.47    1.12 
   9  -1  -9    7.54    0.65 
   9  -1   9    8.90    0.67 
  -1  -9   9    8.85    0.45 
   9  -2  -9   27.01    1.34 
   9  -2   9   27.45    1.34 
  -2  -9   9   27.53    0.94 
   0   0 -10   92.31    3.47 
   0   0  10   92.46    3.46 
   0   1 -10   73.04    2.80 
   1   0 -10   73.50    2.81 
   0  -1 -10   77.22    2.80 
  -1   0 -10   71.99    2.79 
   0  -1  10   74.01    2.78 
   1   0  10   72.59    2.79 
   0  -1  10   72.82    2.20 
   0   1  10   71.95    2.79 
  -1   0  10   73.02    2.79 
  -1  -1 -10  165.81    6.07 
  -1   1 -10  156.63    6.08 
   1  -1 -10  163.76    6.70 
   1   1 -10  169.58    6.10 
   1  -1 -10  171.27    6.10 
  -1   1  10  168.88    6.09 
  -1  -1  10  167.81    4.82 
   1  -1  10  163.62    6.08 
   1   1  10  163.37    6.08 
  -1  -1  10  161.87    6.72 
  -1  -1  10  170.78    6.07 
  -1   2 -10   83.92    3.17 
   2   1 -10   83.41    3.17 
  -2  -1 -10   88.37    3.13 
   1  -2 -10   90.16    3.16 
   1  -2  10   82.46    3.13 
  -1   2  10   81.62    3.15 
  -2  -1  10   83.39    3.13 
   1  -2  10   79.95    2.49 
   2   1  10   81.57    3.15 
  -2  -1  10   83.93    2.49 
  -2  -1  10   75.34    3.45 
   2   0 -10  180.51    6.54 
  -2   0 -10  176.51    6.51 
   0   2 -10  177.06    6.53 
  -2   0  10  179.18    6.51 
   0  -2  10  175.80    7.21 
   0  -2  10  177.38    5.15 
   2   0  10  176.28    6.52 
   0  -2  10  179.03    6.49 
   0   2  10  178.18    6.52 
   2  -1 -10   84.57    3.15 
   1   2 -10   78.83    3.14 
  -2   1 -10   81.57    3.13 
  -1  -2  10   82.56    2.47 
   2  -1  10   81.84    3.13 
   1   2  10   82.82    3.13 
  -1  -2  10   85.08    3.46 
  -1  -2  10   85.12    3.10 
  -2   1  10   80.83    3.13 
  -2   2 -10   99.33    3.90 
   2  -2 -10  102.34    4.27 
   2  -2 -10  107.66    3.90 
   2   2 -10  105.33    3.92 
   2  -2  10  100.75    3.88 
  -2  -2  10  105.87    4.29 
   2   2  10  105.80    3.90 
  -2   2  10  101.90    3.90 
  -2  -2  10  105.49    3.08 
   3   2 -10   61.97    2.52 
  -2   3 -10   60.42    2.51 
   2  -3 -10   64.96    2.71 
   3   2  10   65.10    2.50 
   2  -3  10   65.39    1.99 
  -3  -2  10   67.47    1.99 
   2  -3  10   63.68    2.48 
  -2   3  10   61.77    2.51 
   2  -3  10   64.67    2.77 
  -3  -2  10   67.99    2.74 
  -1   3 -10  149.34    5.46 
   3   1 -10  148.24    5.46 
  -1   3  10  144.79    5.44 
  -3  -1  10  147.41    5.41 
  -3  -1  10  149.53    4.30 
   1  -3  10  142.28    4.30 
  -3  -1  10  149.46    6.01 
   1  -3  10  144.48    5.40 
   3   1  10  146.69    5.44 
   1  -3  10  146.03    6.00 
  -3   0 -10   78.27    2.84 
   0   3 -10   71.34    2.86 
   3   0 -10   74.08    2.87 
   3   0  10   74.22    2.86 
  -3   0  10   73.10    2.26 
   0  -3  10   76.51    2.26 
   0  -3  10   74.25    3.13 
   3   0  10   73.90    2.86 
   0   3  10   74.83    2.85 
  -3   0  10   74.02    2.84 
  -3   1 -10  148.59    5.53 
   3  -1 -10  154.61    5.56 
   1   3 -10  146.76    5.55 
   3  -1  10  150.38    5.55 
  -3   1  10  152.51    5.54 
   1   3  10  154.54    5.53 
  -1  -3  10  147.40    4.37 
   3  -1  10  146.19    5.54 
  -1  -3  10  147.24    6.09 
   2   3 -10   64.41    2.57 
   3  -2 -10   67.12    2.57 
  -3   2 -10   68.73    2.57 
   3  -2  10   63.78    2.55 
   2   3  10   66.20    2.54 
  -2  -3  10   68.03    2.01 
  -2  -3  10   65.82    2.77 
   3  -2  10   64.28    2.55 
  -3   2  10   63.15    2.56 
   3   3 -10  113.45    4.22 
  -3   3 -10  112.69    4.24 
   3  -3 -10  105.34    4.58 
  -3  -3  10  113.45    4.58 
   3   3  10  113.60    4.19 
  -3   3  10  112.53    4.22 
  -3  -3  10  112.93    3.31 
   3  -3  10  109.52    4.19 
   4   3 -10   42.05    1.78 
   3  -4 -10   41.95    1.87 
  -3   4 -10   45.04    1.84 
  -4  -3  10   43.30    1.39 
   3  -4  10   42.88    1.41 
  -3   4  10   41.09    1.78 
   4   3  10   42.26    1.74 
  -4  -3  10   43.55    1.86 
   3  -4  10   43.40    1.95 
   4   2 -10  103.48    3.95 
  -2   4 -10  102.36    3.96 
  -4  -2  10  102.04    4.29 
  -4  -2  10  102.39    3.10 
   4   2  10  107.00    3.93 
  -2   4  10  103.27    3.94 
   4   2  10  106.74    3.92 
   2  -4  10  103.62    4.32 
   2  -4  10  103.22    3.12 
   4   1 -10   51.41    2.14 
  -1   4 -10   53.93    2.16 
   1  -4  10   52.28    2.30 
  -1   4  10   54.24    2.13 
  -4  -1  10   53.63    1.69 
   4   1  10   53.23    2.13 
   1  -4  10   54.43    1.69 
   4   1  10   53.24    2.13 
  -4  -1  10   53.70    2.34 
   4   0 -10   86.01    3.25 
   0   4 -10   86.90    3.24 
  -4   0  10   86.58    3.21 
   4   0  10   82.82    3.23 
   4   0  10   83.65    3.23 
   0  -4  10   83.73    2.55 
  -4   0  10   84.90    2.56 
   0  -4  10   80.87    3.50 
   0   4  10   83.02    3.21 
  -4   1 -10   56.73    2.17 
   1   4 -10   54.63    2.20 
   4  -1 -10   54.63    2.20 
   1   4  10   54.94    2.16 
  -1  -4  10   53.31    2.33 
   4  -1  10   55.96    2.20 
  -4   1  10   54.42    2.18 
  -1  -4  10   55.97    1.71 
   4  -1  10   54.44    2.20 
   4  -2 -10  107.93    4.00 
   2   4 -10  107.91    4.00 
  -4   2 -10  102.97    3.99 
   2   4  10  106.97    3.95 
   4  -2  10  105.86    3.99 
   4  -2  10  104.33    3.98 
  -4   2  10  106.01    3.99 
  -2  -4  10  104.64    3.13 
  -2  -4  10  100.86    4.29 
  -4   3 -10   44.70    1.82 
   3   4 -10   41.94    1.80 
   4  -3 -10   45.40    1.82 
  -4   3  10   41.42    1.80 
  -3  -4  10   45.14    1.40 
   4  -3  10   43.04    1.79 
   4  -3  10   43.48    1.80 
   3   4  10   43.67    1.76 
  -3  -4  10   41.80    1.83 
  -3  -4  10   43.60    1.82 
   4  -4 -10   49.74    2.28 
  -4   4 -10   52.35    2.19 
   4   4 -10   53.82    2.16 
   4   4  10   53.70    2.10 
  -4  -4  10   51.23    2.16 
  -4  -4  10   54.36    2.16 
  -4  -4  10   54.38    1.68 
  -4   4  10   52.76    2.17 
  -4   5 -10   30.15    1.38 
   5   4 -10   27.48    1.29 
   4  -5 -10   28.75    1.33 
   5   4  10   29.57    1.26 
  -4   5  10   27.48    1.32 
   4  -5  10   28.24    1.40 
  -5  -4  10   27.71    1.00 
   4  -5  10   28.85    1.05 
   5   3 -10   73.36    2.83 
  -3   5 -10   72.79    2.88 
   3  -5 -10   68.55    2.98 
   3  -5  10   72.10    3.07 
  -3   5  10   70.44    2.83 
   5   3  10   72.34    2.78 
   5   3  10   72.35    2.78 
  -5  -3  10   74.10    2.98 
   3  -5  10   69.20    2.24 
  -5  -3  10   69.55    2.21 
  -2   5 -10   40.70    1.69 
   5   2 -10   37.01    1.64 
   5   2  10   39.09    1.63 
  -5  -2  10   37.50    1.72 
   5   2  10   39.70    1.63 
  -2   5  10   37.84    1.64 
  -5  -2  10   38.23    1.29 
   2  -5  10   38.76    1.30 
   2  -5  10   38.32    1.73 
  -1   5 -10   87.12    3.38 
   5   1 -10   85.83    3.37 
   1  -5  10   84.33    3.61 
  -1   5  10   87.07    3.34 
  -5  -1  10   88.59    2.66 
   5   1  10   91.74    3.37 
   1  -5  10   87.44    2.66 
  -5  -1  10   85.75    3.69 
   0   5 -10   40.22    1.69 
   5   0 -10   40.01    1.71 
   0  -5  10   40.29    1.73 
   5   0  10   39.80    1.69 
  -5   0  10   39.88    1.65 
   0  -5  10   40.72    1.32 
   0   5  10   39.60    1.65 
   5  -1 -10   88.22    3.37 
  -5   1 -10   86.42    3.32 
   1   5 -10   87.53    3.35 
  -1  -5  10   86.83    2.62 
   5  -1  10   89.80    3.37 
  -1  -5  10   85.47    3.53 
  -1  -5  10   83.11    3.51 
  -5   1  10   89.05    3.34 
   1   5  10   85.57    3.30 
  -5   2 -10   40.35    1.63 
   5  -2 -10   38.11    1.65 
   2   5 -10   37.58    1.63 
   2   5  10   38.28    1.58 
   5  -2  10   38.24    1.65 
  -5   2  10   37.64    1.64 
  -2  -5  10   39.71    1.26 
  -5   3 -10   67.26    2.81 
   3   5 -10   74.15    2.81 
   5  -3 -10   71.20    2.82 
  -3  -5  10   70.53    2.17 
   5  -3  10   70.14    2.81 
   3   5  10   73.39    2.74 
  -5   3  10   71.45    2.83 
  -5   4 -10   31.58    1.39 
   4   5 -10   26.77    1.30 
  -5   4  10   28.28    1.35 
  -4  -5  10   30.57    1.01 
   4   5  10   28.29    1.25 
  -5   5 -10   49.64    2.16 
   5   5 -10   51.05    2.08 
   5  -5 -10   46.31    2.20 
  -5  -5  10   51.81    1.62 
   5   5  10   51.52    2.02 
  -5   5  10   52.24    2.16 
   6   5 -10   18.80    1.01 
  -5   6 -10   22.52    1.17 
   5  -6 -10   20.75    1.01 
  -6  -5  10   19.68    0.78 
   5  -6  10   21.43    1.10 
  -5   6  10   18.61    1.08 
   6   4 -10   46.68    1.93 
  -4   6 -10   44.86    2.00 
   6   4  10   45.35    1.86 
   4  -6  10   44.29    1.54 
  -6  -4  10   44.32    1.49 
   4  -6  10   45.05    2.04 
  -4   6  10   46.38    1.96 
  -3   6 -10   27.85    1.32 
   6   3 -10   25.32    1.24 
   3  -6  10   27.39    1.00 
  -6  -3  10   25.27    1.15 
   6   3  10   26.10    1.19 
   6   3  10   26.54    1.20 
  -3   6  10   24.73    1.23 
  -6  -3  10   25.94    0.96 
   3  -6  10   26.21    1.24 
   6   2 -10   44.87    1.90 
  -2   6 -10   45.26    1.92 
   2  -6  10   44.79    1.49 
  -6  -2  10   43.71    1.96 
  -6  -2  10   44.90    1.49 
   2  -6  10   43.75    1.92 
  -2   6  10   44.59    1.87 
   6   2  10   45.65    1.87 
   6   1 -10   30.07    1.42 
  -1   6 -10   32.36    1.43 
  -6  -1  10   32.17    1.13 
   6   1  10   32.53    1.42 
   1  -6  10   30.88    1.35 
   1  -6  10   31.69    1.34 
  -6  -1  10   30.48    1.50 
   1  -6  10   33.24    1.12 
  -1   6  10   30.81    1.38 
   6   0 -10   64.83    2.61 
   0   6 -10   64.26    2.58 
   0   6  10   65.55    2.54 
   0  -6  10   64.03    2.01 
   6   0  10   64.63    2.59 
   1   6 -10   30.77    1.41 
   6  -1 -10   31.46    1.45 
  -6   1  10   32.73    1.42 
  -1  -6  10   32.79    1.09 
   6  -1  10   32.62    1.45 
   1   6  10   32.61    1.38 
  -6   2 -10   41.41    1.82 
   6  -2 -10   44.22    1.88 
   2   6 -10   44.96    1.84 
  -6   2  10   46.23    1.87 
  -2  -6  10   42.66    1.41 
   6  -2  10   44.62    1.88 
   2   6  10   44.06    1.78 
   3   6 -10   25.03    1.20 
   6  -3 -10   27.01    1.26 
  -6   3 -10   27.32    1.25 
  -3  -6  10   26.86    0.92 
  -6   3  10   25.46    1.26 
   6  -3  10   25.42    1.24 
   4   6 -10   44.89    1.86 
  -6   4 -10   41.85    1.91 
   6  -4  10   45.23    1.91 
  -4  -6  10   45.17    1.44 
  -6   4  10   44.60    1.92 
  -6   5 -10   22.10    1.12 
   5   6 -10   19.13    0.99 
  -6   5  10   18.71    1.07 
  -5  -6  10   20.17    0.76 
   6   6 -10   27.16    1.24 
  -6   6 -10   26.25    1.37 
  -6   6  10   27.91    1.36 
  -6  -6  10   25.33    0.95 
  -5   7 -10   29.56    1.55 
   7   5 -10   33.03    1.46 
  -7  -5  10   31.27    1.11 
  -5   7  10   33.41    1.55 
   5  -7  10   31.47    1.19 
  -4   7 -10   19.83    1.09 
   7   4 -10   15.92    0.96 
  -4   7  10   18.15    1.02 
   4  -7  10   18.32    0.90 
   7   4  10   18.85    0.93 
  -7  -4  10   17.54    0.75 
   4  -7  10   18.70    0.81 
   7   4  10   19.06    0.93 
   7   3 -10   42.25    1.81 
  -3   7 -10   40.91    1.85 
   7   3  10   41.49    1.74 
  -7  -3  10   41.77    1.41 
   7   3  10   41.44    1.74 
   3  -7  10   39.10    1.74 
  -3   7  10   42.01    1.80 
   3  -7  10   41.58    1.43 
  -2   7 -10   21.97    1.12 
   7   2 -10   20.32    1.09 
  -7  -2  10   21.20    1.04 
  -7  -2  10   22.00    0.87 
   2  -7  10   22.21    0.86 
   7   2  10   22.61    1.07 
  -2   7  10   20.89    1.07 
  -1   7 -10   49.95    2.13 
   7   1 -10   51.60    2.16 
  -7  -1  10   52.23    2.29 
  -7  -1  10   52.44    1.70 
   1  -7  10   49.80    1.66 
  -1   7  10   50.49    2.09 
   7   1  10   50.34    2.11 
   7   0 -10   25.24    1.26 
   0   7 -10   25.73    1.23 
   7   0  10   26.70    1.26 
   0  -7  10   27.24    0.96 
   0   7  10   27.03    1.20 
   1   7 -10   47.96    2.00 
   7  -1 -10   48.38    2.07 
   7  -1  10   48.94    2.05 
  -1  -7  10   48.34    1.55 
   7  -2 -10   21.23    1.10 
   2   7 -10   21.19    1.05 
   7  -2  10   22.75    1.12 
  -7   2  10   21.19    1.08 
  -2  -7  10   21.84    0.79 
   7  -3 -10   42.51    1.82 
  -7   3 -10   37.19    1.75 
  -7   3  10   43.42    1.82 
   7  -3  10   42.19    1.81 
  -3  -7  10   39.69    1.33 
  -7   4 -10   20.58    1.04 
  -7   4  10   17.36    1.04 
  -4  -7  10   18.73    0.72 
  -7   5 -10   30.22    1.50 
  -7   5  10   32.94    1.53 
  -5  -7  10   30.40    1.06 
   8   4 -10   23.88    1.16 
  -4   8 -10   21.29    1.21 
  -8  -4  10   21.27    0.87 
   8   4  10   22.06    1.07 
   8   4  10   22.10    1.07 
   4  -8  10   21.11    0.91 
  -4   8  10   22.56    1.16 
  -3   8 -10   14.96    0.91 
   8   3 -10   13.60    0.86 
  -3   8  10   12.83    0.83 
   8   3  10   14.72    0.82 
  -8  -3  10   14.00    0.67 
   8   3  10   14.91    0.82 
   3  -8  10   14.76    0.69 
   8   2 -10   31.68    1.48 
  -2   8 -10   30.58    1.47 
  -8  -2  10   32.05    1.15 
  -2   8  10   30.66    1.41 
   8   2  10   31.46    1.42 
   2  -8  10   30.63    1.13 
  -1   8 -10   16.91    0.95 
   8   1 -10   16.79    0.98 
  -1   8  10   16.94    0.90 
   8   1  10   17.22    0.95 
  -8  -1  10   18.07    0.96 
  -8  -1  10   17.80    0.77 
   1  -8  10   18.02    0.73 
   0   8 -10   26.86    1.28 
   8   0 -10   28.89    1.36 
   0  -8  10   27.47    1.00 
   8   0  10   27.12    1.31 
   8  -1 -10   17.01    0.98 
   1   8 -10   16.29    0.90 
  -1  -8  10   18.15    0.70 
   8  -1  10   17.84    0.97 
   8  -2 -10   30.52    1.47 
  -2  -8  10   30.01    1.04 
   8  -2  10   31.35    1.45 
   8  -3 -10   14.86    0.90 
  -3  -8  10   15.15    0.61 
  -8   3  10   13.98    0.88 
   8  -3  10   15.41    0.92 
  -8   4  10   22.26    1.17 
  -4  -8  10   21.39    0.79 
   9   1 -10   24.45    1.26 
  -1   9 -10   23.25    1.18 
   9   1  10   25.38    1.21 
   9   0 -10   11.24    0.79 
   9   0  10   11.59    0.76 
   0  -9  10   11.65    0.55 
   9  -1 -10   25.37    1.29 
   9  -1  10   25.28    1.26 
   0   0 -11   69.09    2.62 
   0   0  11   66.46    2.60 
  -1   0 -11   90.23    3.50 
   0   1 -11   93.78    3.52 
   0  -1 -11   95.62    3.52 
   1   0 -11   95.08    3.53 
   0   1  11   92.36    3.51 
   1   0  11   90.71    3.50 
   0  -1  11   92.45    3.49 
  -1   0  11   93.04    3.51 
   1  -1 -11   95.67    3.61 
   1   1 -11   91.69    3.62 
  -1   1 -11   98.20    3.62 
  -1  -1 -11   99.91    3.60 
  -1  -1  11   92.59    2.85 
   1   1  11   92.26    3.60 
   1  -1  11   96.35    3.60 
  -1   1  11   97.03    3.62 
  -1  -1  11   96.84    3.60 
   2   1 -11  111.56    4.19 
   1  -2 -11  114.25    4.17 
  -1   2 -11  111.89    4.19 
  -1   2  11  110.06    4.18 
  -2  -1  11  111.76    4.15 
   1  -2  11  109.54    4.14 
  -2  -1  11  112.41    3.30 
   1  -2  11  109.71    3.29 
   2   1  11  108.34    4.17 
   2   0 -11   81.54    3.09 
   0   2 -11   78.59    3.08 
  -2   0 -11   83.09    3.06 
   0  -2  11   77.26    3.37 
   0  -2  11   82.05    3.04 
   0  -2  11   82.56    2.43 
  -2   0  11   80.32    3.06 
   0   2  11   78.34    3.06 
   2   0  11   78.22    3.07 
  -2   1 -11  104.40    4.13 
   2  -1 -11  113.96    4.16 
   1   2 -11  109.65    4.16 
   1   2  11  111.00    4.14 
  -2   1  11  110.09    4.14 
   2  -1  11  110.75    4.14 
  -1  -2  11  109.20    3.27 
  -1  -2  11  109.58    4.56 
  -1  -2  11  113.78    4.11 
   2  -2 -11   57.64    2.17 
  -2   2 -11   53.94    2.17 
   2   2 -11   52.96    2.18 
   2  -2 -11   52.04    2.33 
  -2  -2  11   54.84    2.36 
  -2   2  11   51.87    2.17 
  -2  -2  11   57.82    1.72 
   2   2  11   54.96    2.17 
   2  -2  11   54.46    2.16 
   3   2 -11   83.15    3.25 
  -2   3 -11   86.51    3.27 
   2  -3 -11   82.99    3.50 
  -3  -2  11   84.38    3.54 
   2  -3  11   80.32    2.55 
   3   2  11   86.18    3.23 
   2  -3  11   82.68    3.20 
  -3  -2  11   88.00    2.56 
  -2   3  11   81.90    3.24 
   3   1 -11   70.04    2.82 
  -1   3 -11   73.82    2.83 
  -3  -1  11   71.05    2.76 
  -1   3  11   70.46    2.80 
   1  -3  11   74.10    2.23 
   3   1  11   71.92    2.80 
   1  -3  11   72.21    2.76 
  -3  -1  11   72.96    2.22 
   1  -3  11   72.81    3.09 
  -3   0 -11  106.91    3.98 
   0   3 -11  105.54    4.03 
   3   0 -11  106.76    4.03 
   0  -3  11  107.46    4.41 
  -3   0  11  105.48    3.99 
   0   3  11  107.76    4.01 
   3   0  11  104.52    4.01 
   0  -3  11  105.18    3.16 
   3  -1 -11   71.79    2.86 
   1   3 -11   69.49    2.86 
  -3   1 -11   76.10    2.86 
   1   3  11   76.25    2.86 
  -1  -3  11   74.50    2.25 
   3  -1  11   75.14    2.87 
  -1  -3  11   75.61    3.12 
  -3   1  11   71.22    2.85 
  -3   2 -11   86.75    3.35 
   3  -2 -11   89.45    3.35 
   2   3 -11   89.01    3.36 
  -2  -3  11   87.76    2.63 
  -3   2  11   83.33    3.34 
  -2  -3  11   87.26    3.64 
   2   3  11   89.86    3.33 
   3  -2  11   83.30    3.33 
   3   3 -11   59.61    2.44 
   3  -3 -11   59.92    2.61 
  -3   3 -11   65.01    2.47 
  -3  -3  11   64.01    2.61 
   3  -3  11   59.78    2.41 
  -3  -3  11   61.62    1.90 
  -3   3  11   57.42    2.43 
   3   3  11   60.64    2.41 
  -3   4 -11   61.84    2.52 
   4   3 -11   62.70    2.49 
   3  -4 -11   59.84    2.63 
  -4  -3  11   62.04    1.94 
   4   3  11   62.13    2.45 
  -4  -3  11   60.95    2.62 
   3  -4  11   62.39    1.97 
  -3   4  11   63.31    2.51 
  -2   4 -11   52.93    2.14 
   4   2 -11   48.50    2.10 
  -4  -2  11   51.70    2.26 
  -4  -2  11   52.42    1.65 
   2  -4  11   51.11    2.29 
  -2   4  11   50.77    2.10 
   4   2  11   52.82    2.09 
   2  -4  11   51.24    1.67 
  -1   4 -11   74.00    2.91 
   4   1 -11   73.83    2.90 
   1  -4  11   73.11    2.28 
  -4  -1  11   75.50    2.29 
  -1   4  11   72.23    2.88 
  -4  -1  11   76.53    3.17 
   1  -4  11   70.97    3.13 
   4   1  11   74.42    2.89 
   4   0 -11   42.61    1.76 
   0   4 -11   39.70    1.75 
   4   0  11   42.58    1.76 
   0   4  11   42.97    1.75 
   4   0  11   42.69    1.76 
  -4   0  11   42.05    1.73 
   0  -4  11   41.64    1.37 
   0  -4  11   41.28    1.86 
   4  -1 -11   76.03    2.93 
   1   4 -11   76.67    2.93 
  -4   1 -11   70.42    2.88 
   1   4  11   75.61    2.89 
   4  -1  11   75.61    2.93 
  -4   1  11   75.77    2.91 
   4  -1  11   76.02    2.93 
  -1  -4  11   72.91    2.28 
  -1  -4  11   72.67    3.13 
   2   4 -11   49.38    2.10 
  -4   2 -11   54.36    2.11 
   4  -2 -11   51.57    2.11 
  -2  -4  11   51.29    2.20 
  -2  -4  11   51.87    1.64 
   2   4  11   52.29    2.07 
   4  -2  11   51.65    2.11 
  -4   2  11   49.82    2.10 
   4  -2  11   52.13    2.11 
   3   4 -11   65.05    2.52 
  -4   3 -11   61.64    2.53 
   4  -3  11   60.92    2.49 
  -4   3  11   63.37    2.53 
  -3  -4  11   60.79    2.61 
   3   4  11   63.01    2.46 
  -3  -4  11   63.60    1.95 
   4  -3  11   62.64    2.50 
   4  -4 -11   31.75    1.52 
  -4   4 -11   35.10    1.54 
   4   4 -11   31.87    1.47 
  -4   4  11   31.24    1.49 
  -4  -4  11   34.60    1.14 
  -4  -4  11   33.55    1.41 
   4   4  11   33.98    1.43 
  -4  -4  11   32.71    1.41 
   5   4 -11   37.92    1.64 
   4  -5 -11   36.19    1.67 
  -4   5 -11   37.79    1.72 
  -4   5  11   37.14    1.67 
   5   4  11   37.56    1.59 
  -5  -4  11   37.06    1.26 
   5   3 -11   41.94    1.83 
  -3   5 -11   42.35    1.88 
   3  -5  11   44.16    1.96 
  -5  -3  11   41.96    1.85 
  -3   5  11   41.84    1.83 
   5   3  11   43.50    1.79 
  -5  -3  11   42.82    1.43 
   3  -5  11   43.76    1.46 
  -2   5 -11   58.05    2.36 
   5   2 -11   57.05    2.33 
  -5  -2  11   54.37    2.45 
   2  -5  11   54.36    2.46 
   5   2  11   57.49    2.29 
   5   2  11   59.22    2.30 
  -5  -2  11   56.16    1.81 
  -2   5  11   57.80    2.31 
   2  -5  11   55.71    1.83 
  -1   5 -11   48.68    2.02 
   5   1 -11   45.44    2.00 
  -5  -1  11   49.16    1.58 
   5   1  11   49.35    2.00 
   5   1  11   48.24    2.00 
  -5  -1  11   47.26    2.17 
   1  -5  11   48.88    2.11 
   1  -5  11   49.42    1.58 
  -1   5  11   47.08    1.98 
   0   5 -11   55.03    2.23 
   5   0 -11   57.18    2.26 
   0   5  11   53.09    2.19 
   5   0  11   54.69    2.23 
  -5   0  11   55.58    2.19 
   5   0  11   53.69    2.22 
   0  -5  11   53.86    1.74 
   0  -5  11   52.69    2.31 
   5  -1 -11   48.35    2.02 
   1   5 -11   45.38    1.99 
   5  -1  11   49.17    2.02 
  -5   1  11   48.40    1.99 
   5  -1  11   49.08    2.02 
  -1  -5  11   50.28    1.55 
  -1  -5  11   47.23    2.03 
   1   5  11   48.42    1.97 
   5  -2 -11   57.38    2.30 
   2   5 -11   56.80    2.29 
  -5   2 -11   53.75    2.26 
  -2  -5  11   52.91    2.27 
   5  -2  11   56.50    2.30 
   5  -2  11   55.96    2.29 
   2   5  11   56.32    2.23 
  -5   2  11   56.62    2.28 
  -2  -5  11   57.63    1.77 
   3   5 -11   41.26    1.84 
  -5   3 -11   45.89    1.89 
  -5   3  11   42.86    1.87 
   3   5  11   43.01    1.78 
  -3  -5  11   45.12    1.43 
   5  -3  11   44.29    1.87 
   5  -3  11   43.48    1.86 
   4   5 -11   37.73    1.65 
  -5   4 -11   35.81    1.69 
  -5   4  11   38.51    1.70 
   4   5  11   38.30    1.59 
  -4  -5  11   38.87    1.28 
   5  -5 -11   29.03    1.38 
   5   5 -11   27.54    1.33 
  -5   5 -11   30.85    1.44 
  -5   5  11   26.84    1.37 
  -5  -5  11   29.27    1.03 
   5   5  11   29.05    1.27 
   6   5 -11   33.48    1.50 
  -5   6 -11   32.01    1.60 
  -6  -5  11   31.52    1.13 
  -5   6  11   32.16    1.54 
   5  -6  11   32.02    1.58 
   6   5  11   33.18    1.42 
   6   4 -11   22.74    1.19 
  -4   6 -11   27.16    1.32 
   6   4  11   25.09    1.15 
   4  -6  11   24.69    1.23 
  -4   6  11   22.62    1.22 
  -6  -4  11   24.58    0.92 
   4  -6  11   24.09    0.97 
  -3   6 -11   34.66    1.64 
   6   3 -11   36.78    1.61 
  -6  -3  11   36.44    1.54 
   3  -6  11   33.33    1.25 
   3  -6  11   35.10    1.62 
  -6  -3  11   34.56    1.23 
   6   3  11   35.25    1.54 
  -3   6  11   36.44    1.60 
   6   2 -11   26.08    1.32 
  -2   6 -11   30.32    1.39 
  -6  -2  11   28.23    1.04 
  -2   6  11   27.64    1.31 
   2  -6  11   28.57    1.05 
   6   2  11   28.82    1.30 
   6   2  11   28.68    1.30 
   2  -6  11   28.55    1.30 
  -6  -2  11   27.00    1.32 
   6   1 -11   45.47    1.94 
  -1   6 -11   44.58    1.93 
  -6  -1  11   45.73    1.53 
   1  -6  11   44.99    1.50 
   6   1  11   44.52    1.90 
   6   1  11   45.32    1.91 
  -1   6  11   46.98    1.90 
  -6  -1  11   45.20    2.07 
   1  -6  11   43.97    1.91 
   6   0 -11   34.13    1.55 
   0   6 -11   33.26    1.52 
   0   6  11   34.67    1.49 
   6   0  11   34.29    1.55 
   0  -6  11   35.46    1.19 
   6  -1 -11   46.34    1.96 
   1   6 -11   44.35    1.91 
   1   6  11   45.28    1.87 
   6  -1  11   45.51    1.95 
  -1  -6  11   45.10    1.48 
  -6   1  11   46.54    1.92 
   6  -2 -11   28.06    1.34 
  -6   2 -11   29.85    1.31 
   2   6 -11   27.55    1.30 
   6  -2  11   29.07    1.35 
   2   6  11   27.28    1.25 
  -2  -6  11   29.50    1.00 
  -6   2  11   26.91    1.32 
   3   6 -11   34.76    1.53 
  -6   3 -11   33.53    1.55 
  -3  -6  11   34.34    1.16 
   3   6  11   34.49    1.46 
  -6   3  11   34.66    1.57 
   6  -3  11   34.91    1.57 
   6  -3  11   34.28    1.56 
  -6   4 -11   26.70    1.24 
   4   6 -11   21.64    1.14 
  -6   4  11   23.13    1.21 
  -4  -6  11   24.59    0.89 
   5   6 -11   32.14    1.45 
  -6   5 -11   30.48    1.53 
  -6   5  11   33.26    1.55 
  -5  -6  11   31.62    1.11 
   6   6 -11   13.36    0.82 
  -6   6 -11   16.47    0.99 
  -6   6  11   13.96    0.94 
  -6  -6  11   14.90    0.64 
  -5   7 -11   19.99    1.14 
   7   5 -11   16.90    0.98 
  -5   7  11   17.45    1.04 
  -7  -5  11   18.26    0.75 
  -4   7 -11   29.45    1.48 
   7   4 -11   29.19    1.39 
   7   4  11   29.36    1.33 
  -4   7  11   28.98    1.41 
   4  -7  11   28.38    1.11 
  -7  -4  11   28.88    1.06 
   7   3 -11   22.70    1.21 
  -3   7 -11   26.46    1.30 
   7   3  11   23.85    1.17 
   3  -7  11   26.00    0.99 
   7   3  11   24.76    1.17 
   3  -7  11   24.07    1.09 
  -3   7  11   23.50    1.22 
  -7  -3  11   24.49    0.95 
   7   2 -11   30.13    1.45 
  -2   7 -11   29.88    1.46 
  -7  -2  11   31.59    1.41 
  -2   7  11   30.95    1.41 
  -7  -2  11   30.72    1.13 
   7   2  11   30.46    1.40 
   2  -7  11   30.14    1.13 
   7   2  11   30.05    1.40 
  -1   7 -11   30.40    1.41 
   7   1 -11   28.43    1.41 
  -7  -1  11   29.74    1.11 
   1  -7  11   30.72    1.08 
   7   1  11   29.06    1.38 
  -1   7  11   29.11    1.35 
  -7  -1  11   30.44    1.46 
   7   0 -11   40.51    1.77 
   0   7 -11   37.74    1.71 
   7   0  11   39.39    1.74 
   0  -7  11   39.29    1.33 
   0   7  11   40.03    1.68 
   1   7 -11   27.38    1.33 
   7  -1 -11   28.49    1.39 
  -1  -7  11   29.84    1.03 
   7  -1  11   30.00    1.39 
   7  -2 -11   30.55    1.44 
   2   7 -11   28.90    1.37 
  -2  -7  11   30.24    1.05 
   7  -2  11   30.28    1.44 
  -7   2  11   30.76    1.42 
   3   7 -11   23.38    1.15 
  -7   3  11   22.85    1.21 
  -3  -7  11   24.76    0.88 
   7  -3  11   24.94    1.23 
  -7   4 -11   25.96    1.33 
   4   7 -11   27.98    1.28 
  -4  -7  11   27.72    0.98 
  -7   4  11   29.00    1.39 
  -7   5 -11   20.25    1.09 
  -7   5  11   17.42    1.07 
  -5  -7  11   18.88    0.74 
  -3   8 -11   23.26    1.24 
   8   3 -11   23.65    1.21 
  -8  -3  11   23.46    0.94 
   3  -8  11   22.82    0.95 
   8   3  11   22.77    1.14 
  -3   8  11   23.46    1.19 
   8   3  11   23.51    1.15 
  -2   8 -11   17.23    0.98 
   8   2 -11   15.18    0.96 
  -8  -2  11   16.72    0.76 
   8   2  11   16.84    0.93 
   2  -8  11   17.60    0.76 
   8   2  11   16.56    0.92 
  -2   8  11   16.25    0.93 
  -1   8 -11   23.94    1.23 
   8   1 -11   26.32    1.29 
   1  -8  11   24.79    0.95 
   8   1  11   25.01    1.23 
  -1   8  11   25.18    1.19 
   0   8 -11   15.96    0.91 
   8   0 -11   15.10    0.94 
   8   0  11   17.07    0.94 
   0  -8  11   16.78    0.69 
   8  -1 -11   25.77    1.28 
   1   8 -11   24.36    1.19 
  -1  -8  11   23.78    0.90 
   8  -1  11   25.63    1.26 
   8  -2 -11   16.19    0.98 
   8  -2  11   17.61    1.00 
  -2  -8  11   17.23    0.69 
  -8   3  11   24.00    1.21 
   8  -3  11   23.44    1.21 
  -3  -8  11   21.84    0.84 
   0   0 -12   52.65    2.11 
   0   0  12   52.99    2.10 
   1   0 -12  108.21    4.07 
  -1   0 -12  109.68    4.06 
   0   1 -12  105.03    4.06 
   0  -1 -12  110.00    4.06 
   0  -1  12  107.78    4.04 
   1   0  12  106.88    4.05 
   0   1  12  105.14    4.06 
  -1   0  12  108.21    4.05 
  -1  -1 -12   59.37    2.12 
   1   1 -12   54.15    2.14 
  -1   1 -12   49.89    2.11 
   1  -1 -12   52.49    2.12 
  -1   1  12   53.57    2.13 
   1  -1  12   51.77    2.10 
  -1  -1  12   51.40    2.09 
   1   1  12   51.45    2.12 
   2   1 -12   81.80    3.20 
  -1   2 -12   84.24    3.20 
  -2  -1  12   83.70    3.16 
  -1   2  12   81.03    3.19 
   2   1  12   81.91    3.18 
   1  -2  12   82.67    3.16 
   2   0 -12   77.58    2.96 
  -2   0 -12   77.66    2.93 
   0   2 -12   76.44    2.96 
   0  -2  12   74.60    2.31 
   0   2  12   73.67    2.94 
   2   0  12   74.32    2.94 
  -2   0  12   76.44    2.93 
   0  -2  12   76.55    2.91 
   2  -1 -12   82.27    3.21 
   1   2 -12   78.43    3.21 
  -2   1 -12   85.46    3.21 
  -1  -2  12   84.44    2.53 
  -2   1  12   83.38    3.21 
  -1  -2  12   82.91    3.52 
   2  -1  12   83.48    3.21 
  -1  -2  12   85.79    3.17 
   1   2  12   83.16    3.20 
  -2   2 -12   60.53    2.47 
   2  -2 -12   63.72    2.46 
   2   2 -12   61.41    2.48 
   2  -2  12   62.62    2.45 
  -2   2  12   61.54    2.47 
   2   2  12   60.95    2.46 
  -2  -2  12   62.99    1.94 
  -2  -2  12   63.14    2.69 
  -2   3 -12   61.52    2.42 
   3   2 -12   56.02    2.39 
  -3  -2  12   59.31    2.58 
  -2   3  12   56.12    2.38 
  -3  -2  12   62.08    1.89 
   2  -3  12   59.24    2.34 
   3   2  12   60.91    2.38 
  -1   3 -12   48.66    2.05 
   3   1 -12   49.44    2.05 
  -3  -1  12   48.72    1.99 
   1  -3  12   51.14    1.61 
   3   1  12   50.14    2.04 
  -1   3  12   49.42    2.03 
  -3  -1  12   49.91    1.60 
   3   0 -12   71.55    2.87 
  -3   0 -12   73.06    2.82 
   0   3 -12   73.73    2.88 
   0   3  12   74.11    2.85 
   0  -3  12   73.95    3.12 
  -3   0  12   71.90    2.83 
   0  -3  12   73.42    2.25 
   3   0  12   71.71    2.86 
  -3   1 -12   50.20    2.03 
   3  -1 -12   50.78    2.05 
   1   3 -12   47.94    2.05 
  -1  -3  12   50.97    2.22 
  -1  -3  12   50.80    1.61 
   1   3  12   50.75    2.04 
  -3   1  12   48.83    2.03 
   3  -1  12   50.23    2.05 
   2   3 -12   56.97    2.44 
  -3   2 -12   64.38    2.46 
   3  -2 -12   62.94    2.45 
   2   3  12   60.49    2.42 
  -3   2  12   56.92    2.43 
  -2  -3  12   62.27    1.91 
  -2  -3  12   62.85    2.64 
   3  -2  12   60.73    2.44 
  -3   3 -12   41.13    1.79 
   3   3 -12   42.54    1.79 
  -3   3  12   41.44    1.79 
  -3  -3  12   42.63    1.87 
   3  -3  12   40.95    1.75 
   3   3  12   41.92    1.74 
  -3  -3  12   41.12    1.38 
  -3   4 -12   60.31    2.36 
   4   3 -12   52.83    2.28 
   4   3  12   55.00    2.26 
  -3   4  12   52.10    2.29 
  -4  -3  12   56.76    2.41 
  -4  -3  12   57.20    1.79 
   4   2 -12   48.88    2.12 
  -2   4 -12   51.45    2.16 
   4   2  12   50.38    2.10 
   2  -4  12   54.53    2.32 
  -2   4  12   50.06    2.12 
   2  -4  12   51.22    1.68 
  -4  -2  12   51.55    2.27 
  -4  -2  12   51.18    1.66 
   4   1 -12   54.34    2.31 
  -1   4 -12   56.09    2.32 
   4   1  12   56.08    2.30 
  -4  -1  12   59.80    1.83 
   1  -4  12   57.39    1.82 
   1  -4  12   56.87    2.49 
  -1   4  12   55.88    2.30 
   0   4 -12   45.82    1.97 
   4   0 -12   50.18    1.98 
   4   0  12   46.32    1.96 
   0  -4  12   46.40    2.08 
  -4   0  12   45.83    1.92 
   0   4  12   48.30    1.95 
   0  -4  12   46.05    1.53 
   4  -1 -12   57.37    2.36 
  -4   1 -12   61.14    2.33 
   1   4 -12   54.78    2.35 
   1   4  12   58.11    2.32 
  -1  -4  12   58.93    1.83 
  -4   1  12   56.22    2.33 
   4  -1  12   58.73    2.36 
  -1  -4  12   58.30    2.50 
   4  -2 -12   52.50    2.13 
   2   4 -12   52.14    2.13 
  -4   2 -12   49.56    2.11 
  -2  -4  12   51.47    1.65 
   4  -2  12   51.43    2.13 
   2   4  12   52.65    2.09 
  -4   2  12   49.65    2.12 
  -2  -4  12   50.80    2.21 
   3   4 -12   54.45    2.30 
  -4   3 -12   57.73    2.32 
   3   4  12   56.73    2.26 
  -3  -4  12   57.38    1.79 
  -3  -4  12   57.27    2.39 
   4  -3  12   55.01    2.29 
  -4   3  12   54.65    2.32 
   4  -4 -12   31.14    1.55 
  -4   4 -12   33.04    1.54 
   4   4 -12   34.41    1.52 
  -4   4  12   33.87    1.53 
   4   4  12   34.32    1.46 
  -4  -4  12   33.70    1.17 
  -4  -4  12   33.13    1.44 
  -4   5 -12   33.60    1.55 
   5   4 -12   29.37    1.45 
  -4   5  12   30.46    1.49 
  -5  -4  12   33.66    1.14 
   5   4  12   32.04    1.42 
  -3   5 -12   25.90    1.33 
   5   3 -12   27.51    1.30 
  -5  -3  12   26.78    1.00 
   3  -5  12   26.81    1.04 
   5   3  12   26.66    1.25 
   3  -5  12   25.93    1.34 
  -5  -3  12   27.51    1.26 
  -3   5  12   27.30    1.30 
  -2   5 -12   52.78    2.22 
   5   2 -12   49.38    2.17 
  -2   5  12   51.00    2.16 
   2  -5  12   51.11    2.30 
  -5  -2  12   51.83    1.70 
  -5  -2  12   52.14    2.29 
   2  -5  12   53.32    1.72 
   5   2  12   53.39    2.15 
   5   1 -12   32.33    1.46 
  -1   5 -12   32.52    1.48 
  -1   5  12   31.13    1.42 
   1  -5  12   31.06    1.14 
  -5  -1  12   32.88    1.15 
   1  -5  12   30.82    1.47 
   5   1  12   31.62    1.45 
   0   5 -12   46.03    1.95 
   5   0 -12   44.48    1.95 
   0  -5  12   48.21    1.52 
   0  -5  12   46.32    2.01 
   5   0  12   45.88    1.95 
   0   5  12   45.37    1.91 
   5   0  12   45.25    1.95 
   5  -1 -12   31.10    1.44 
   1   5 -12   33.61    1.45 
   5  -1  12   32.73    1.46 
  -1  -5  12   28.85    1.39 
   5  -1  12   32.56    1.45 
  -5   1  12   31.68    1.42 
   1   5  12   31.93    1.40 
  -1  -5  12   30.21    1.09 
   5  -2 -12   54.72    2.19 
  -5   2 -12   54.07    2.15 
   2   5 -12   49.40    2.14 
   2   5  12   53.21    2.11 
   5  -2  12   52.75    2.18 
   5  -2  12   52.35    2.17 
  -5   2  12   49.46    2.15 
  -2  -5  12   49.29    2.14 
  -2  -5  12   53.01    1.66 
  -2  -5  12   50.30    2.13 
  -5   3 -12   24.06    1.25 
   3   5 -12   28.60    1.29 
  -5   3  12   26.34    1.29 
   5  -3  12   26.74    1.28 
   5  -3  12   26.98    1.28 
  -3  -5  12   25.92    0.96 
   3   5  12   28.23    1.22 
   4   5 -12   29.72    1.45 
  -5   4 -12   34.17    1.54 
   4   5  12   32.70    1.41 
  -4  -5  12   33.68    1.13 
  -5   4  12   30.51    1.50 
  -5   5 -12   21.67    1.19 
   5  -5 -12   20.25    1.09 
   5   5 -12   21.70    1.10 
  -5  -5  12   21.51    0.84 
  -5   5  12   20.95    1.15 
   5   5  12   22.05    1.03 
  -5   6 -12   23.50    1.25 
   6   5 -12   20.87    1.13 
   6   5  12   21.76    1.05 
  -5   6  12   20.26    1.17 
  -6  -5  12   22.46    0.86 
   6   4 -12   26.92    1.31 
  -4   6 -12   25.78    1.36 
   6   4  12   26.89    1.24 
   4  -6  12   25.51    1.31 
  -4   6  12   26.71    1.33 
  -6  -4  12   25.76    0.99 
  -3   6 -12   31.94    1.53 
   6   3 -12   29.22    1.45 
   3  -6  12   31.75    1.48 
   3  -6  12   31.37    1.17 
  -3   6  12   29.54    1.46 
  -6  -3  12   30.85    1.13 
   6   3  12   31.14    1.42 
  -6  -3  12   32.11    1.38 
  -2   6 -12   29.89    1.43 
   6   2 -12   29.10    1.39 
  -6  -2  12   29.55    1.38 
   6   2  12   28.64    1.35 
  -6  -2  12   29.29    1.09 
   2  -6  12   28.18    1.08 
   2  -6  12   27.65    1.34 
  -2   6  12   28.81    1.37 
  -1   6 -12   38.65    1.74 
   6   1 -12   37.79    1.74 
   1  -6  12   39.12    1.69 
  -1   6  12   38.51    1.70 
   1  -6  12   42.27    1.37 
  -6  -1  12   38.17    1.82 
   6   1  12   38.27    1.72 
   6   1  12   39.22    1.72 
   0   6 -12   35.85    1.62 
   6   0 -12   38.16    1.65 
   6   0  12   35.15    1.62 
   0   6  12   36.75    1.58 
   6   0  12   35.64    1.62 
   0  -6  12   34.72    1.24 
   6  -1 -12   38.63    1.73 
   1   6 -12   37.02    1.70 
   6  -1  12   38.89    1.73 
   1   6  12   37.34    1.64 
  -1  -6  12   39.85    1.31 
   6  -1  12   40.43    1.74 
  -6   1  12   38.66    1.69 
   2   6 -12   27.60    1.33 
   6  -2 -12   29.80    1.38 
  -6   2  12   28.81    1.36 
   6  -2  12   28.92    1.38 
   2   6  12   28.03    1.28 
  -2  -6  12   27.34    1.01 
   6  -2  12   28.85    1.37 
  -6   3 -12   33.12    1.45 
   3   6 -12   27.27    1.39 
  -3  -6  12   31.79    1.08 
  -6   3  12   29.39    1.45 
   6  -3  12   30.87    1.46 
   6  -3  12   31.19    1.46 
   3   6  12   30.79    1.35 
   4   6 -12   26.29    1.25 
  -6   4 -12   25.11    1.30 
  -4  -6  12   26.09    0.95 
  -6   4  12   26.08    1.32 
   5   6 -12   20.64    1.12 
  -6   5 -12   24.37    1.26 
  -6   5  12   22.19    1.23 
  -5  -6  12   23.70    0.88 
   7   4 -12   19.72    1.11 
  -4   7 -12   22.78    1.23 
   4  -7  12   20.91    0.92 
  -4   7  12   20.30    1.14 
   7   4  12   22.40    1.08 
  -7  -4  12   20.18    0.85 
  -3   7 -12   18.44    1.08 
   7   3 -12   18.54    1.03 
   7   3  12   18.27    0.99 
  -3   7  12   18.05    1.03 
   3  -7  12   18.27    0.83 
  -7  -3  12   17.97    0.79 
  -2   7 -12   24.40    1.24 
   7   2 -12   20.82    1.19 
  -7  -2  12   24.05    0.95 
   7   2  12   23.99    1.17 
   2  -7  12   24.15    0.95 
   7   2  12   23.69    1.17 
  -2   7  12   23.02    1.18 
   7   1 -12   21.49    1.15 
  -1   7 -12   21.15    1.13 
  -7  -1  12   22.15    1.13 
   1  -7  12   20.93    0.87 
   7   1  12   20.62    1.10 
  -1   7  12   21.09    1.07 
   7   1  12   21.44    1.10 
   0   7 -12   29.11    1.41 
   7   0 -12   29.78    1.45 
   0   7  12   28.60    1.35 
   0  -7  12   31.05    1.09 
   7   0  12   30.27    1.43 
   7   0  12   30.33    1.43 
   7  -1 -12   21.52    1.13 
   1   7 -12   20.58    1.08 
   7  -1  12   20.81    1.12 
   7  -1  12   20.62    1.11 
   1   7  12   21.19    1.02 
  -1  -7  12   21.02    0.82 
   2   7 -12   22.40    1.17 
   7  -2 -12   24.09    1.24 
   7  -2  12   24.20    1.25 
  -2  -7  12   24.56    0.89 
   7  -2  12   24.88    1.25 
   3   7 -12   17.92    0.97 
  -3  -7  12   17.57    0.72 
  -7   3  12   18.80    1.04 
   7  -3  12   18.24    1.04 
   7  -3  12   18.39    1.05 
  -7   4 -12   23.96    1.18 
   4   7 -12   19.12    1.06 
  -4  -7  12   21.84    0.82 
  -7   4  12   20.20    1.16 
  -2   8 -12   18.47    1.07 
   8   2 -12   18.50    1.06 
   2  -8  12   18.51    0.81 
  -2   8  12   18.02    1.00 
  -8  -2  12   18.74    0.83 
   8   2  12   18.07    1.00 
   8   2  12   18.17    1.00 
  -1   8 -12   17.43    1.01 
   8   1 -12   17.58    1.05 
   1  -8  12   19.31    0.79 
   8   1  12   18.63    1.02 
  -1   8  12   17.72    0.96 
   8   1  12   18.55    1.02 
   0   8 -12   18.55    1.02 
   8   0 -12   19.28    1.08 
   8   0  12   19.23    1.05 
   0  -8  12   18.87    0.78 
   8   0  12   18.77    1.05 
   8  -1 -12   17.20    1.04 
   1   8 -12   17.63    0.99 
   8  -1  12   18.58    1.05 
  -1  -8  12   19.43    0.75 
   8  -1  12   19.41    1.06 
   8  -2 -12   18.12    1.05 
   8  -2  12   18.63    1.05 
   8  -2  12   19.14    1.06 
  -2  -8  12   17.61    0.73 
   0   0 -13   92.85    3.55 
   0   0  13   92.35    3.54 
  -1   0 -13   61.05    2.47 
   0  -1 -13   65.08    2.49 
   0   1 -13   62.51    2.50 
   1   0 -13   61.70    2.49 
   0   1  13   62.04    2.49 
   0  -1  13   62.37    2.47 
  -1   0  13   63.69    2.48 
   1   0  13   62.67    2.48 
  -1   1 -13   71.15    2.77 
   1   1 -13   69.73    2.78 
   1  -1 -13   72.25    2.77 
  -1   1  13   70.32    2.76 
  -1  -1  13   72.05    2.74 
   1  -1  13   69.96    2.75 
   1   1  13   66.19    2.75 
  -1   2 -13   56.13    2.23 
   2   1 -13   53.81    2.22 
  -1   2  13   53.62    2.21 
   2   1  13   55.19    2.21 
  -2  -1  13   53.98    2.18 
   1  -2  13   53.34    2.17 
   2   0 -13   85.91    3.33 
   0   2 -13   85.43    3.33 
  -2   0 -13   88.49    3.30 
   0   2  13   82.91    3.31 
  -2   0  13   84.23    3.29 
   2   0  13   85.67    3.31 
   0  -2  13   85.89    3.27 
  -2   1 -13   52.35    2.18 
   1   2 -13   55.56    2.22 
   2  -1 -13   56.42    2.20 
  -1  -2  13   52.60    1.72 
  -1  -2  13   52.80    2.14 
   1   2  13   53.74    2.19 
  -2   1  13   53.11    2.19 
   2  -1  13   54.68    2.19 
  -2   2 -13   53.93    2.13 
   2   2 -13   48.43    2.12 
   2   2  13   51.37    2.11 
   2  -2  13   51.53    2.09 
  -2   2  13   50.12    2.11 
  -2  -2  13   52.99    1.66 
  -2   3 -13   45.86    1.89 
   3   2 -13   44.03    1.87 
  -3  -2  13   43.78    1.45 
   2  -3  13   42.46    1.80 
  -2   3  13   42.44    1.85 
  -3  -2  13   42.39    1.98 
   3   2  13   44.30    1.85 
   3   1 -13   45.83    1.95 
  -1   3 -13   47.10    1.96 
   3   1  13   45.38    1.93 
  -1   3  13   45.67    1.93 
   3   0 -13   45.30    1.91 
   0   3 -13   44.63    1.91 
   3   0  13   45.32    1.90 
   0   3  13   45.38    1.89 
  -3   0  13   45.51    1.87 
   0  -3  13   44.00    1.48 
   0  -3  13   45.20    2.04 
   3  -1 -13   47.14    1.96 
  -3   1 -13   46.47    1.93 
   1   3 -13   44.88    1.96 
   1   3  13   46.97    1.94 
   3  -1  13   46.88    1.96 
  -1  -3  13   47.36    1.53 
  -1  -3  13   48.29    2.11 
  -3   1  13   46.08    1.95 
   3  -2 -13   45.30    1.89 
   2   3 -13   43.02    1.89 
  -3   2 -13   44.34    1.89 
   3  -2  13   42.40    1.87 
  -2  -3  13   44.97    2.01 
   2   3  13   45.97    1.87 
  -2  -3  13   44.08    1.47 
  -3   2  13   45.92    1.90 
  -3   3 -13   43.18    1.83 
   3   3 -13   39.14    1.80 
  -3   3  13   39.56    1.81 
  -3  -3  13   43.12    1.90 
   3  -3  13   42.81    1.79 
  -3  -3  13   43.49    1.42 
   3   3  13   41.93    1.78 
  -3   4 -13   33.36    1.58 
   4   3 -13   33.45    1.54 
  -4  -3  13   33.59    1.19 
  -3   4  13   33.55    1.56 
   4   3  13   34.15    1.51 
  -4  -3  13   34.38    1.56 
   4   2 -13   53.54    2.36 
  -2   4 -13   60.21    2.41 
   4   2  13   58.38    2.35 
  -4  -2  13   57.74    2.52 
  -4  -2  13   59.00    1.86 
  -2   4  13   54.23    2.35 
   4   1 -13   37.34    1.65 
  -1   4 -13   36.09    1.66 
   1  -4  13   37.46    1.75 
   4   1  13   37.44    1.65 
   1  -4  13   37.31    1.29 
  -1   4  13   37.87    1.64 
   0   4 -13   45.74    2.00 
   4   0 -13   46.37    2.00 
  -4   0  13   46.32    1.96 
   0  -4  13   48.28    1.56 
   4   0  13   48.04    2.01 
   0  -4  13   47.29    2.12 
   0   4  13   48.31    1.99 
   4  -1 -13   38.97    1.70 
   1   4 -13   39.01    1.71 
  -4   1 -13   36.31    1.65 
  -4   1  13   38.85    1.69 
   4  -1  13   39.62    1.71 
   1   4  13   40.05    1.68 
  -1  -4  13   37.36    1.31 
  -1  -4  13   40.00    1.77 
   4  -2 -13   59.85    2.40 
   2   4 -13   56.39    2.40 
  -4   2 -13   59.83    2.39 
   4  -2  13   59.30    2.40 
  -4   2  13   54.45    2.38 
  -2  -4  13   58.13    1.85 
   2   4  13   59.27    2.36 
  -2  -4  13   57.93    2.50 
  -4   3 -13   34.34    1.56 
   3   4 -13   33.71    1.54 
  -3  -4  13   33.62    1.18 
  -4   3  13   32.90    1.55 
   4  -3  13   33.70    1.53 
  -3  -4  13   34.19    1.52 
   3   4  13   34.25    1.49 
  -4   4 -13   40.92    1.74 
   4   4 -13   34.25    1.64 
   4  -4 -13   34.98    1.70 
   4   4  13   36.98    1.60 
  -4   4  13   35.06    1.67 
  -4  -4  13   37.87    1.60 
  -4  -4  13   38.81    1.29 
  -4   5 -13   23.54    1.27 
   5   4 -13   24.40    1.22 
  -4   5  13   22.56    1.23 
  -5  -4  13   23.40    0.92 
   5   4  13   23.93    1.15 
  -3   5 -13   34.62    1.61 
   5   3 -13   30.17    1.51 
   3  -5  13   32.97    1.61 
  -3   5  13   31.69    1.53 
  -5  -3  13   33.68    1.19 
  -5  -3  13   34.42    1.51 
   5   3  13   33.41    1.50 
   5   2 -13   30.37    1.45 
  -2   5 -13   29.52    1.47 
  -2   5  13   29.04    1.42 
   2  -5  13   31.02    1.14 
  -5  -2  13   31.07    1.48 
   5   2  13   30.01    1.41 
   2  -5  13   29.67    1.48 
  -5  -2  13   32.83    1.13 
  -1   5 -13   38.88    1.71 
   5   1 -13   36.37    1.68 
  -1   5  13   36.72    1.65 
   5   1  13   36.47    1.67 
   1  -5  13   37.76    1.73 
   1  -5  13   38.38    1.31 
   5   0 -13   33.13    1.52 
   0   5 -13   34.11    1.53 
   0  -5  13   32.01    1.51 
   0  -5  13   31.67    1.16 
   5   0  13   33.20    1.52 
   0   5  13   33.81    1.49 
   5  -1 -13   36.98    1.68 
   1   5 -13   35.78    1.66 
  -5   1  13   36.87    1.65 
   1   5  13   37.53    1.64 
  -1  -5  13   37.94    1.29 
   5  -1  13   38.90    1.70 
  -1  -5  13   38.74    1.66 
   5  -2 -13   31.76    1.44 
   2   5 -13   30.36    1.42 
  -5   2 -13   29.40    1.39 
   2   5  13   31.26    1.37 
   5  -2  13   30.48    1.44 
  -2  -5  13   29.88    1.08 
  -2  -5  13   28.82    1.31 
  -5   2  13   30.48    1.43 
   3   5 -13   30.77    1.49 
  -5   3 -13   34.93    1.54 
  -5   3  13   31.31    1.53 
   3   5  13   32.38    1.44 
  -3  -5  13   32.57    1.14 
   5  -3  13   33.91    1.53 
   4   5 -13   22.40    1.17 
  -5   4 -13   22.13    1.21 
  -5   4  13   24.06    1.23 
  -4  -5  13   23.30    0.90 
   4   5  13   23.91    1.12 
   5   5 -13   19.57    1.08 
  -5   5 -13   22.24    1.18 
  -5   5  13   19.22    1.13 
   5   5  13   19.76    1.01 
  -5  -5  13   21.59    0.84 
  -4   6 -13   29.27    1.43 
   6   4 -13   24.18    1.29 
  -4   6  13   23.85    1.31 
  -6  -4  13   26.57    1.01 
   6   4  13   26.31    1.24 
  -3   6 -13   21.54    1.21 
   6   3 -13   21.75    1.16 
   3  -6  13   21.03    1.11 
  -3   6  13   21.97    1.16 
   3  -6  13   21.23    0.91 
   6   3  13   21.22    1.10 
  -6  -3  13   22.09    0.89 
  -2   6 -13   32.06    1.55 
   6   2 -13   28.97    1.49 
  -2   6  13   31.08    1.49 
   2  -6  13   32.02    1.47 
   6   2  13   32.43    1.48 
  -6  -2  13   31.68    1.50 
  -6  -2  13   32.07    1.18 
   2  -6  13   33.24    1.20 
  -1   6 -13   25.27    1.28 
   6   1 -13   25.95    1.28 
   1  -6  13   24.73    0.98 
   1  -6  13   25.32    1.16 
  -1   6  13   25.15    1.24 
   6   1  13   25.28    1.27 
   6   0 -13   36.63    1.71 
   0   6 -13   36.77    1.69 
   0  -6  13   37.31    1.56 
   0  -6  13   38.59    1.31 
   0   6  13   37.06    1.65 
   6   0  13   39.07    1.72 
   6  -1 -13   26.87    1.30 
   1   6 -13   27.30    1.28 
   6  -1  13   25.50    1.29 
  -1  -6  13   24.08    0.95 
   1   6  13   25.14    1.21 
   6  -1  13   24.95    1.28 
   6  -2 -13   31.71    1.50 
   2   6 -13   30.30    1.47 
   6  -2  13   31.93    1.50 
   2   6  13   31.34    1.40 
  -6   2  13   30.13    1.47 
   6  -2  13   31.57    1.49 
  -2  -6  13   32.31    1.12 
  -6   3 -13   19.57    1.10 
   3   6 -13   21.17    1.10 
  -6   3  13   22.10    1.15 
  -3  -6  13   20.01    0.81 
   6  -3  13   21.06    1.14 
   3   6  13   21.96    1.04 
   4   6 -13   23.81    1.25 
  -6   4 -13   26.97    1.32 
  -4  -6  13   27.05    0.97 
  -6   4  13   24.25    1.32 
  -3   7 -13   18.37    1.09 
   7   3 -13   16.39    1.01 
  -7  -3  13   17.29    0.79 
  -3   7  13   17.44    1.02 
   3  -7  13   18.21    0.82 
   7   3  13   18.47    0.99 
  -2   7 -13   19.41    1.09 
   7   2 -13   18.45    1.06 
  -2   7  13   18.14    1.03 
   2  -7  13   18.31    0.83 
  -7  -2  13   18.69    0.83 
   7   2  13   18.13    1.02 
   7   1 -13   19.43    1.11 
  -1   7 -13   20.07    1.11 
   1  -7  13   20.33    0.84 
  -1   7  13   19.87    1.05 
   7   1  13   20.22    1.09 
   7   0 -13   20.15    1.10 
   0   7 -13   19.01    1.06 
   7   0  13   18.97    1.07 
   7   0  13   19.38    1.07 
   0  -7  13   18.70    0.79 
   0   7  13   19.42    1.01 
   1   7 -13   19.27    1.07 
   7  -1 -13   19.83    1.11 
   7  -1  13   20.65    1.12 
   1   7  13   19.06    1.00 
  -1  -7  13   20.74    0.81 
   7  -1  13   20.65    1.11 
   7  -2 -13   18.67    1.06 
   2   7 -13   17.47    0.99 
   7  -2  13   19.18    1.06 
   7  -2  13   18.08    1.05 
  -2  -7  13   17.59    0.74 
   3   7 -13   15.49    0.94 
  -7   3  13   16.51    1.01 
   7  -3  13   18.25    1.03 
   7  -3  13   17.91    1.02 
  -3  -7  13   17.62    0.72 
   0   0 -14   56.88    2.27 
   0   0  14   54.33    2.25 
   1   0 -14   62.33    2.55 
   0   1 -14   64.10    2.57 
  -1   0 -14   65.06    2.55 
   1   0  14   63.05    2.54 
  -1   0  14   64.95    2.55 
   0   1  14   62.24    2.54 
   0  -1  14   63.39    2.52 
  -1   1 -14   50.26    2.17 
   1   1 -14   55.58    2.20 
   1  -1 -14   54.58    2.18 
  -1   1  14   52.58    2.18 
  -1  -1  14   52.81    2.15 
   1  -1  14   53.52    2.16 
   1   1  14   52.36    2.18 
  -1   2 -14   53.74    2.21 
   2   1 -14   51.46    2.20 
   1  -2  14   53.23    2.15 
  -1   2  14   53.21    2.20 
   2   1  14   51.73    2.18 
  -2  -1  14   54.98    2.16 
   2   0 -14   32.98    1.45 
  -2   0 -14   30.02    1.39 
   0   2 -14   32.61    1.45 
  -2   0  14   31.99    1.42 
   2   0  14   31.85    1.43 
   0   2  14   30.70    1.42 
   0  -2  14   32.45    1.39 
  -2   1 -14   53.69    2.19 
   1   2 -14   52.00    2.21 
   2  -1 -14   54.90    2.20 
  -2   1  14   53.32    2.19 
   2  -1  14   52.84    2.18 
   1   2  14   52.27    2.19 
  -2   2 -14   30.93    1.41 
   2   2 -14   30.50    1.41 
  -2   2  14   30.03    1.39 
   2   2  14   29.34    1.38 
   2  -2  14   30.68    1.37 
   3   2 -14   38.63    1.78 
  -2   3 -14   43.63    1.82 
   3   2  14   40.94    1.76 
  -2   3  14   39.38    1.77 
  -1   3 -14   35.12    1.59 
   3   1 -14   36.44    1.59 
   3   1  14   35.22    1.57 
  -1   3  14   33.04    1.55 
   0   3 -14   50.25    2.13 
   3   0 -14   49.30    2.11 
   0   3  14   49.92    2.10 
  -3   0  14   50.12    2.08 
   3   0  14   51.39    2.12 
   1   3 -14   35.01    1.59 
   3  -1 -14   35.78    1.57 
  -3   1 -14   33.10    1.53 
  -3   1  14   35.09    1.56 
   1   3  14   35.60    1.55 
   3  -1  14   34.44    1.57 
  -1  -3  14   35.84    1.67 
  -1  -3  14   35.71    1.23 
  -3   2 -14   43.93    1.82 
   2   3 -14   38.36    1.80 
  -3   2  14   40.17    1.80 
   2   3  14   41.40    1.79 
  -2  -3  14   42.71    1.41 
   3  -2  14   41.97    1.80 
  -2  -3  14   42.35    1.92 
   3   3 -14   33.33    1.55 
  -3   3 -14   33.93    1.55 
  -3  -3  14   34.48    1.20 
  -3   3  14   33.31    1.55 
   3   3  14   33.66    1.51 
   3  -3  14   31.90    1.49 
  -3  -3  14   33.29    1.59 
   4   3 -14   34.16    1.69 
  -3   4 -14   39.41    1.76 
  -4  -3  14   39.27    1.73 
  -4  -3  14   39.69    1.33 
  -3   4  14   35.29    1.70 
   4   3  14   37.65    1.66 
  -2   4 -14   24.61    1.25 
   4   2 -14   23.99    1.21 
  -4  -2  14   24.56    0.95 
   4   2  14   24.11    1.20 
  -2   4  14   23.63    1.21 
  -4  -2  14   23.36    1.23 
   4   1 -14   38.66    1.80 
  -1   4 -14   42.22    1.85 
   1  -4  14   42.85    1.93 
   4   1  14   39.86    1.80 
   1  -4  14   42.24    1.42 
  -1   4  14   40.99    1.80 
   4   0 -14   27.72    1.31 
   0   4 -14   27.76    1.32 
  -4   0  14   26.36    1.27 
   0   4  14   26.85    1.29 
   4   0  14   26.67    1.31 
   0  -4  14   26.36    1.34 
   0  -4  14   26.46    1.00 
   1   4 -14   39.69    1.85 
   4  -1 -14   41.69    1.84 
  -1  -4  14   43.58    1.93 
   4  -1  14   42.79    1.86 
  -1  -4  14   43.12    1.43 
  -4   1  14   41.58    1.83 
   1   4  14   42.89    1.83 
  -4   2 -14   23.01    1.16 
   4  -2 -14   24.91    1.19 
   2   4 -14   22.27    1.18 
   2   4  14   23.05    1.15 
  -4   2  14   24.11    1.20 
  -2  -4  14   23.59    1.16 
  -2  -4  14   23.08    0.91 
   4  -2  14   23.64    1.19 
   3   4 -14   34.35    1.69 
  -4   3 -14   41.17    1.75 
  -4   3  14   35.32    1.71 
   3   4  14   37.98    1.66 
  -3  -4  14   40.18    1.33 
  -3  -4  14   39.29    1.70 
   4  -3  14   38.03    1.71 
  -4   4 -14   20.78    1.17 
   4   4 -14   21.01    1.14 
  -4   4  14   22.48    1.17 
  -4  -4  14   21.85    1.01 
   4   4  14   21.69    1.09 
  -4  -4  14   22.43    0.88 
  -4   5 -14   26.23    1.34 
   5   4 -14   22.16    1.23 
  -5  -4  14   25.86    0.96 
   5   4  14   24.19    1.18 
  -4   5  14   22.42    1.26 
   5   3 -14   26.18    1.30 
  -3   5 -14   25.62    1.35 
  -5  -3  14   24.78    1.21 
   5   3  14   25.45    1.24 
  -5  -3  14   25.35    0.99 
  -3   5  14   23.94    1.28 
  -2   5 -14   37.50    1.71 
   5   2 -14   34.03    1.65 
   2  -5  14   37.77    1.73 
  -5  -2  14   36.82    1.70 
  -2   5  14   33.94    1.63 
   5   2  14   34.82    1.62 
   5   1 -14   28.89    1.40 
  -1   5 -14   28.42    1.42 
   1  -5  14   28.72    1.09 
   5   1  14   28.48    1.39 
  -1   5  14   28.60    1.38 
   1  -5  14   29.78    1.41 
   5   0 -14   33.87    1.61 
   0   5 -14   32.47    1.59 
   0  -5  14   36.36    1.61 
   0  -5  14   36.01    1.24 
   0   5  14   34.45    1.57 
   5   0  14   34.58    1.61 
   1   5 -14   29.22    1.42 
   5  -1 -14   30.34    1.42 
   5  -1  14   28.86    1.42 
  -5   1  14   30.11    1.39 
   1   5  14   30.67    1.38 
  -1  -5  14   27.99    1.07 
  -1  -5  14   28.62    1.35 
   5  -2 -14   36.67    1.66 
   2   5 -14   33.31    1.62 
   2   5  14   36.68    1.60 
  -5   2  14   34.85    1.64 
  -2  -5  14   36.07    1.55 
   5  -2  14   36.88    1.67 
  -2  -5  14   36.46    1.26 
  -5   3 -14   22.86    1.24 
   3   5 -14   25.14    1.26 
  -5   3  14   24.24    1.27 
   3   5  14   25.04    1.18 
  -3  -5  14   24.48    0.94 
   5  -3  14   25.87    1.27 
  -5   4 -14   27.35    1.32 
   4   5 -14   21.55    1.21 
  -4  -5  14   25.00    0.94 
  -5   4  14   23.37    1.27 
   4   5  14   24.09    1.17 
   5   5 -14   18.40    1.01 
  -5   5 -14   16.69    1.06 
  -5  -5  14   16.48    0.74 
  -5   5  14   16.80    1.05 
   5   5  14   16.71    0.90 
   6   4 -14   13.47    0.88 
  -4   6 -14   12.88    0.93 
   6   4  14   12.71    0.80 
  -4   6  14   13.33    0.89 
  -6  -4  14   12.43    0.65 
  -3   6 -14   24.92    1.30 
   6   3 -14   20.85    1.20 
  -3   6  14   22.04    1.21 
   6   3  14   22.44    1.16 
  -6  -3  14   23.51    0.94 
  -2   6 -14   18.52    1.11 
   6   2 -14   19.62    1.08 
   2  -6  14   18.15    0.83 
  -2   6  14   18.55    1.06 
   6   2  14   18.89    1.04 
   6   1 -14   26.37    1.36 
  -1   6 -14   27.61    1.39 
   1  -6  14   28.13    1.06 
  -1   6  14   26.26    1.33 
   6   1  14   28.04    1.36 
   0   6 -14   18.70    1.04 
   6   0 -14   18.89    1.05 
   0   6  14   16.87    0.97 
   0  -6  14   17.18    0.77 
   6   0  14   18.32    1.04 
   1   6 -14   27.77    1.38 
   6  -1 -14   27.62    1.40 
   1   6  14   27.22    1.32 
  -1  -6  14   29.42    1.06 
   6  -1  14   28.61    1.41 
   2   6 -14   18.65    1.04 
   6  -2 -14   19.66    1.07 
  -6   2  14   18.73    1.05 
   2   6  14   18.41    0.98 
   6  -2  14   18.64    1.08 
  -2  -6  14   17.84    0.77 
   3   6 -14   21.16    1.17 
  -6   3  14   21.73    1.21 
   6  -3  14   23.95    1.23 
   3   6  14   22.93    1.11 
  -3  -6  14   23.91    0.90 
   4   6 -14   13.13    0.83 
  -6   4 -14   11.41    0.85 
  -6   4  14   12.76    0.89 
  -4  -6  14   12.89    0.62 
   7   1 -14   17.77    1.03 
  -1   7 -14   16.83    1.02 
   7   1  14   16.56    0.99 
  -1   7  14   16.65    0.96 
   1  -7  14   16.35    0.77 
   7   0 -14   21.22    1.19 
   0   7 -14   21.58    1.16 
   7   0  14   21.51    1.17 
   0  -7  14   21.78    0.88 
   0   7  14   20.16    1.09 
   1   7 -14   15.96    0.97 
   7  -1 -14   17.35    1.01 
   7  -1  14   17.07    1.02 
  -1  -7  14   16.11    0.72 
   1   7  14   15.93    0.90 
   0   0 -15   60.86    2.44 
   0   0  15   58.78    2.42 
   1   0 -15   47.96    1.98 
   0   1 -15   47.70    1.99 
  -1   0 -15   45.03    1.95 
  -1   0  15   46.06    1.96 
   1   0  15   46.14    1.96 
   0  -1  15   45.52    1.94 
   0   1  15   47.24    1.97 
  -1   1 -15   77.93    3.08 
   1  -1 -15   81.06    3.08 
   1   1 -15   76.37    3.09 
  -1   1  15   77.22    3.08 
   1  -1  15   75.64    3.05 
   1   1  15   77.10    3.08 
  -1  -1  15   77.30    3.05 
   2   1 -15   31.64    1.48 
  -1   2 -15   30.52    1.46 
   2   1  15   31.94    1.46 
  -1   2  15   31.81    1.47 
   1  -2  15   31.17    1.41 
  -2  -1  15   33.02    1.43 
   2   0 -15   67.80    2.76 
   0   2 -15   67.75    2.77 
   2   0  15   70.32    2.76 
  -2   0  15   67.39    2.73 
   0   2  15   67.26    2.75 
   2  -1 -15   33.43    1.48 
  -2   1 -15   30.98    1.44 
   1   2 -15   31.25    1.48 
   2  -1  15   32.18    1.46 
  -2   1  15   31.72    1.46 
   1   2  15   31.08    1.45 
   2   2 -15   52.97    2.29 
  -2   2 -15   56.36    2.30 
   2  -2  15   55.86    2.26 
  -2   2  15   54.81    2.29 
   2   2  15   52.95    2.26 
   3   2 -15   27.81    1.35 
  -2   3 -15   28.85    1.37 
   3   2  15   25.87    1.31 
  -2   3  15   26.94    1.33 
  -1   3 -15   69.36    2.75 
   3   1 -15   65.23    2.72 
  -1   3  15   66.66    2.71 
   3   1  15   64.82    2.71 
   0   3 -15   26.45    1.33 
   3   0 -15   28.11    1.32 
  -3   0  15   26.48    1.28 
   3   0  15   27.76    1.32 
   0   3  15   26.87    1.31 
  -3   1 -15   68.38    2.71 
   1   3 -15   64.72    2.75 
   3  -1 -15   68.25    2.75 
  -3   1  15   68.25    2.74 
   3  -1  15   68.26    2.74 
   1   3  15   65.91    2.72 
   2   3 -15   28.26    1.36 
  -3   2 -15   26.84    1.32 
   2   3  15   27.41    1.31 
  -2  -3  15   27.33    1.03 
   3  -2  15   27.60    1.32 
  -2  -3  15   27.60    1.38 
  -3   2  15   27.60    1.34 
   3   3 -15   50.46    2.30 
  -3   3 -15   55.64    2.33 
   3   3  15   53.02    2.26 
  -3  -3  15   56.97    2.44 
  -3  -3  15   56.21    1.80 
  -3   3  15   53.76    2.32 
  -3   4 -15   23.08    1.22 
   4   3 -15   21.99    1.18 
   4   3  15   21.97    1.14 
  -3   4  15   21.63    1.19 
  -4  -3  15   21.80    1.13 
  -4  -3  15   22.12    0.91 
   4   2 -15   42.92    1.99 
  -2   4 -15   48.41    2.05 
   4   2  15   45.22    1.98 
  -2   4  15   44.28    2.00 
  -4  -2  15   46.63    2.11 
  -1   4 -15   26.65    1.33 
   4   1 -15   26.57    1.31 
  -1   4  15   25.03    1.29 
   4   1  15   26.45    1.31 
   4   0 -15   46.77    2.08 
   0   4 -15   46.06    2.08 
   4   0  15   48.36    2.08 
   0  -4  15   50.38    2.20 
   0   4  15   47.72    2.06 
   1   4 -15   26.54    1.33 
   4  -1 -15   27.78    1.33 
   4  -1  15   25.85    1.32 
  -1  -4  15   26.32    1.02 
  -4   1  15   26.98    1.32 
   1   4  15   27.22    1.31 
  -1  -4  15   26.93    1.34 
  -4   2 -15   46.90    1.99 
   2   4 -15   41.99    1.99 
   2   4  15   45.49    1.96 
  -4   2  15   44.34    2.00 
   4  -2  15   45.79    2.00 
  -2  -4  15   47.23    1.55 
  -2  -4  15   47.95    2.07 
   3   4 -15   22.42    1.18 
  -4   3 -15   21.62    1.17 
  -3  -4  15   22.31    0.90 
  -3  -4  15   21.65    1.09 
  -4   3  15   21.95    1.18 
   3   4  15   22.12    1.12 
   4   4 -15   28.03    1.47 
  -4   4 -15   33.36    1.55 
  -4   4  15   29.53    1.50 
   4   4  15   30.21    1.41 
  -4  -4  15   32.02    1.15 
   5   4 -15   18.39    1.05 
  -4   5 -15   17.31    1.10 
  -5  -4  15   16.83    0.78 
  -4   5  15   17.76    1.07 
   5   4  15   16.99    0.96 
   5   3 -15   33.50    1.67 
  -3   5 -15   39.14    1.77 
  -5  -3  15   38.06    1.31 
   5   3  15   34.91    1.62 
  -3   5  15   33.07    1.67 
   5   2 -15   20.17    1.14 
  -2   5 -15   22.34    1.20 
   2  -5  15   21.09    1.15 
  -2   5  15   21.25    1.15 
   5   2  15   20.50    1.11 
  -5  -2  15   20.83    1.13 
  -1   5 -15   44.08    2.00 
   5   1 -15   42.12    1.97 
   5   1  15   43.43    1.97 
   1  -5  15   46.66    2.05 
   1  -5  15   45.87    1.55 
  -1   5  15   44.37    1.96 
   5   0 -15   26.70    1.33 
   0   5 -15   25.32    1.31 
   0  -5  15   25.72    1.27 
   0  -5  15   24.37    0.99 
   5   0  15   25.83    1.32 
   0   5  15   26.06    1.28 
   1   5 -15   42.67    1.98 
   5  -1 -15   45.03    1.99 
  -5   1  15   44.40    1.96 
   5  -1  15   45.34    2.01 
  -1  -5  15   47.97    1.99 
   1   5  15   43.28    1.94 
  -1  -5  15   45.55    1.54 
   2   5 -15   20.37    1.13 
  -2  -5  15   20.08    0.84 
  -5   2  15   20.18    1.12 
   5  -2  15   20.43    1.14 
   2   5  15   21.22    1.08 
   3   5 -15   33.44    1.67 
  -5   3 -15   39.15    1.72 
   3   5  15   36.34    1.62 
   5  -3  15   36.60    1.70 
  -5   3  15   34.56    1.71 
  -3  -5  15   38.22    1.30 
   4   5 -15   17.92    1.02 
  -5   4 -15   16.06    1.03 
  -4  -5  15   17.03    0.76 
   4   5  15   17.61    0.95 
  -5   4  15   17.74    1.06 
   6   2 -15   24.26    1.32 
  -2   6 -15   26.76    1.38 
   6   2  15   25.87    1.30 
  -2   6  15   24.89    1.31 
   6   1 -15   17.81    1.04 
  -1   6 -15   17.51    1.06 
   1  -6  15   16.85    0.79 
   6   1  15   17.01    1.02 
  -1   6  15   17.72    1.01 
   6   0 -15   30.18    1.50 
   0   6 -15   30.72    1.50 
   6   0  15   30.31    1.50 
   0  -6  15   31.48    1.14 
   0   6  15   29.04    1.43 
   1   6 -15   17.16    1.01 
   6  -1 -15   17.81    1.03 
  -1  -6  15   16.06    0.75 
   1   6  15   16.89    0.96 
   6  -1  15   17.28    1.04 
   2   6 -15   23.01    1.26 
   2   6  15   24.85    1.21 
  -2  -6  15   25.97    0.97 
  -6   2  15   25.02    1.29 
   6  -2  15   25.24    1.32 
   0   0 -16   39.78    1.73 
   0   0  16   38.85    1.72 
   1   0 -16   57.88    2.39 
   0   1 -16   58.40    2.40 
   0   1  16   55.72    2.38 
   1   0  16   58.05    2.38 
   0  -1  16   57.16    2.36 
  -1   0  16   57.67    2.38 
  -1   1 -16   23.04    1.17 
   1   1 -16   23.22    1.18 
   1   1  16   23.05    1.17 
   1  -1  16   22.94    1.15 
  -1  -1  16   22.47    1.14 
  -1   1  16   23.79    1.18 
   2   1 -16   60.97    2.57 
  -1   2 -16   62.84    2.58 
   2   1  16   61.16    2.55 
  -1   2  16   63.07    2.57 
   1  -2  16   61.51    2.52 
   2   0 -16   23.84    1.19 
   0   2 -16   24.31    1.21 
  -2   0  16   22.99    1.16 
   0   2  16   23.02    1.18 
   2   0  16   22.09    1.16 
  -2   1 -16   63.18    2.55 
   1   2 -16   60.27    2.57 
   1   2  16   60.01    2.54 
  -2   1  16   62.33    2.55 
   2  -1  16   62.79    2.54 
   2   2 -16   27.50    1.35 
  -2   2 -16   26.92    1.33 
   2  -2  16   26.08    1.29 
  -2   2  16   27.45    1.33 
   2   2  16   26.02    1.31 
  -2   3 -16   55.30    2.34 
   3   2 -16   53.24    2.31 
  -2   3  16   53.63    2.31 
   3   2  16   53.63    2.28 
  -1   3 -16   18.78    1.05 
   3   1 -16   17.36    1.01 
  -1   3  16   18.70    1.03 
   3   1  16   17.48    1.01 
   3   0 -16   58.33    2.47 
   0   3 -16   57.81    2.50 
  -3   0  16   60.75    2.45 
   0   3  16   59.42    2.47 
   3   0  16   58.89    2.47 
   1   3 -16   18.83    1.05 
   3  -1 -16   18.74    1.02 
   3  -1  16   17.04    1.00 
   1   3  16   17.47    1.00 
  -3   1  16   17.96    1.00 
  -3   2 -16   55.36    2.30 
   2   3 -16   51.33    2.30 
  -2  -3  16   56.19    2.45 
  -3   2  16   52.91    2.30 
   2   3  16   52.20    2.26 
   3  -2  16   54.93    2.28 
  -3   3 -16   15.51    0.96 
   3   3 -16   15.33    0.95 
  -3   3  16   15.75    0.96 
  -3  -3  16   15.66    0.92 
   3   3  16   14.88    0.91 
  -3   4 -16   42.03    1.84 
   4   3 -16   34.85    1.74 
   4   3  16   37.23    1.71 
  -3   4  16   37.89    1.78 
   4   2 -16   17.74    1.02 
  -2   4 -16   17.86    1.06 
   4   2  16   16.57    0.99 
  -2   4  16   17.08    1.02 
   4   1 -16   46.52    2.09 
  -1   4 -16   48.52    2.13 
   4   1  16   47.50    2.08 
  -1   4  16   47.20    2.07 
   4   0 -16   25.39    1.29 
   0   4 -16   27.02    1.34 
   0   4  16   24.49    1.26 
   0  -4  16   25.22    1.32 
   4   0  16   24.67    1.30 
   4  -1 -16   47.97    2.12 
   1   4 -16   48.47    2.16 
   4  -1  16   47.70    2.13 
   1   4  16   48.27    2.10 
  -4   1  16   49.76    2.12 
  -1  -4  16   50.38    2.22 
   2   4 -16   17.76    1.03 
  -2  -4  16   17.75    0.78 
  -4   2  16   17.37    1.03 
   4  -2  16   17.88    1.03 
   2   4  16   17.66    1.00 
   3   4 -16   35.05    1.76 
  -4   3 -16   41.29    1.81 
  -3  -4  16   39.72    1.37 
  -4   3  16   38.12    1.79 
   3   4  16   37.42    1.71 
  -4   4 -16   15.44    1.00 
   4   4 -16   15.71    0.97 
  -4  -4  16   15.17    0.74 
   4   4  16   16.62    0.94 
  -4   4  16   16.29    1.02 
   5   3 -16   11.32    0.81 
  -3   5 -16   11.02    0.88 
   5   3  16   10.55    0.77 
  -3   5  16   11.53    0.84 
  -2   5 -16   35.39    1.66 
   5   2 -16   31.36    1.58 
  -2   5  16   32.65    1.59 
   5   2  16   32.14    1.56 
   5   1 -16   14.65    0.93 
  -1   5 -16   14.51    0.97 
   5   1  16   13.76    0.93 
  -1   5  16   15.10    0.93 
   5   0 -16   38.50    1.82 
   0   5 -16   37.75    1.82 
   0   5  16   39.28    1.78 
   0  -5  16   40.99    1.41 
   5   0  16   38.97    1.81 
   5  -1 -16   14.13    0.90 
   1   5 -16   14.51    0.93 
  -1  -5  16   13.63    0.69 
   5  -1  16   13.66    0.92 
   1   5  16   13.94    0.87 
   2   5 -16   31.39    1.59 
  -5   2  16   33.53    1.61 
  -2  -5  16   34.13    1.23 
   2   5  16   34.71    1.57 
   5  -2  16   35.16    1.64 
   3   5 -16   10.86    0.80 
  -5   3  16   11.15    0.83 
  -3  -5  16   10.86    0.60 
   3   5  16   10.72    0.75 
   0   0  17   61.59    2.55 
   1   0 -17    8.98    0.68 
   0   1 -17    9.36    0.70 
  -1   0  17    9.03    0.68 
   1   0  17    9.27    0.70 
   0  -1  17    8.64    0.68 
   0   1  17    9.77    0.71 
   1   1 -17   53.09    2.27 
  -1   1 -17   54.23    2.27 
   1   1  17   51.83    2.26 
   1  -1  17   52.37    2.23 
  -1  -1  17   54.22    2.23 
  -1   1  17   52.77    2.26 
  -1   2 -17    9.84    0.74 
   2   1 -17    9.05    0.71 
  -1   2  17    9.10    0.71 
   2   1  17    8.85    0.71 
   0   2 -17   61.27    2.57 
   2   0 -17   60.37    2.55 
   0   2  17   60.57    2.55 
  -2   0  17   60.29    2.52 
   2   0  17   61.69    2.55 
   1   2 -17    9.44    0.73 
  -2   1  17    9.68    0.72 
   2  -1  17   10.06    0.72 
   1   2  17    9.06    0.71 
  -2   2 -17   64.84    2.67 
   2   2 -17   62.68    2.67 
   2   2  17   62.61    2.64 
  -2   2  17   63.07    2.65 
   2  -2  17   64.56    2.62 
   3   2 -17   10.29    0.76 
  -2   3 -17    8.96    0.76 
   3   2  17    8.63    0.73 
  -2   3  17   10.94    0.79 
  -1   3 -17   49.97    2.19 
   3   1 -17   47.76    2.15 
   3   1  17   49.77    2.15 
  -1   3  17   49.15    2.14 
   0   3 -17    9.13    0.74 
   3   0 -17    9.80    0.71 
   3   0  17    8.59    0.72 
   0   3  17    9.61    0.74 
   1   3 -17   48.97    2.18 
  -3   1  17   50.29    2.15 
   3  -1  17   50.73    2.16 
   1   3  17   47.71    2.13 
  -3   2 -17    9.42    0.73 
   2   3 -17    9.92    0.76 
  -3   2  17    9.43    0.76 
   2   3  17    9.35    0.73 
   3  -2  17   10.35    0.76 
  -3   3 -17   43.71    1.92 
   3   3 -17   40.01    1.88 
  -3   3  17   40.66    1.88 
   3   3  17   39.82    1.83 
  -2   4 -17   45.01    2.01 
   4   2 -17   40.56    1.93 
   4   2  17   42.56    1.92 
  -2   4  17   42.70    1.96 
  -1   4 -17    8.95    0.76 
   4   1 -17    9.07    0.73 
   4   1  17    8.41    0.73 
  -1   4  17    8.89    0.73 
   0   4 -17   49.28    2.22 
   4   0 -17   50.43    2.20 
   0   4  17   49.67    2.18 
   4   0  17   50.77    2.20 
   1   4 -17    9.24    0.75 
   4  -1  17    8.18    0.72 
  -4   1  17    9.14    0.72 
   1   4  17    8.40    0.71 
   2   4 -17   39.50    1.92 
  -4   2  17   43.04    1.93 
   2   4  17   42.45    1.89 
   4  -2  17   44.45    1.93 
   0   0  18    5.22    0.58 
   0   1 -18   50.60    2.19 
   0   1  18   50.81    2.19 
   0  -1  18   50.31    2.16 
  -1   0  18   50.68    2.17 
   1   0  18   49.87    2.18 
   1   1 -18    9.31    0.71 
   1   1  18    7.86    0.71 
  -1   1  18    8.78    0.71 
   1  -1  18    9.15    0.70 
  -1   2 -18   48.04    2.09 
   2   1 -18   44.85    2.05 
   2   1  18   45.79    2.05 
  -1   2  18   46.64    2.06 
   2   0 -18    6.26    0.60 
   0   2 -18    5.59    0.61 
  -2   0  18    5.70    0.59 
   0   2  18    5.69    0.63 
   2   0  18    5.63    0.61 
   1   2 -18   44.43    2.05 
   1   2  18   46.40    2.05 
   2  -1  18   47.22    2.04 
  -2   1  18   46.35    2.03 
   2   2 -18    8.90    0.72 
  -2   2 -18    8.12    0.71 
   2   2  18    7.58    0.69 
  -2   2  18    8.97    0.73 
   3   2 -18   40.34    1.93 
  -2   3 -18   44.52    1.97 
  -2   3  18   42.05    1.92 
   3   2  18   41.08    1.90 
   3   1 -18   10.20    0.77 
  -1   3 -18    9.79    0.79 
   3   1  18    9.93    0.79 
  -1   3  18   10.24    0.79 
   0   3 -18   41.68    1.90 
   3   0 -18   38.87    1.83 
   0   3  18   39.81    1.84 
   3   0  18   40.93    1.86 
   1   3 -18   10.78    0.81 
  -3   1  18   10.10    0.77 
   1   3  18    9.37    0.76 
   3  -1  18    9.59    0.76 
   2   3 -18   41.29    1.93 
  -3   2  18   42.12    1.91 
   3  -2  18   42.14    1.88 
   2   3  18   40.49    1.88 
   0   0  19   43.35    1.95 
   0   1  19    4.41    0.58 
   1   0  19    4.04    0.56 
  -1   0  19    4.25    0.57 
   1   1  19   40.83    1.89 
  -1   1  19   41.75    1.89 
   1  -1  19   41.88    1.88 
   0   0   0    0.00    0.00 
;
_shelx_hkl_checksum              58756
loop_
_space_group_symop_operation_xyz
'x, y, z'
'-x+1/2, -y+1/2, z'
'-y+1/2, x, z'
'y, -x+1/2, z'
'-x, y+1/2, -z'
'x+1/2, -y, -z'
'y+1/2, x+1/2, -z'
'-y, -x, -z'
'-x, -y, -z'
'x-1/2, y-1/2, -z'
'y-1/2, -x, -z'
'-y, x-1/2, -z'
'x, -y-1/2, z'
'-x-1/2, y, z'
'-y-1/2, -x-1/2, z'
'y, x, z'
loop_
_atom_site_label
_atom_site_type_symbol
_atom_site_fract_x
_atom_site_fract_y
_atom_site_fract_z
_atom_site_U_iso_or_equiv
_atom_site_adp_type
_atom_site_occupancy
_atom_site_site_symmetry_order
_atom_site_calc_flag
_atom_site_refinement_flags_posn
_atom_site_refinement_flags_adp
_atom_site_refinement_flags_occupancy
Ta1 Ta 0.2500 0.2500 0.26030(2) 0.00887(2) Uani 1 8 d S T P
N1 N 0.2500 0.7500 0.5000 0.0142(3) Uani 1 8 d S T P
N2 N 0.2500 0.2500 0.8658(3) 0.0350(8) Uani 1 8 d S T P
F1 F 0.2500 0.2500 0.44913(14) 0.0146(3) Uani 1 8 d S T P
F2 F 0.02111(13) 0.47889(13) 0.30015(14) 0.0341(3) Uani 1 2 d S T P
F3 F 0.1764(6) 0.4341(5) 0.1132(2) 0.0357(8) Uani 0.25 1 d . . P
H1 H 0.2500 0.8478 0.5385 0.074(14) Uiso 1 2 d R . P
H2 H 0.2500 0.2500 0.9357 0.12(4) Uiso 1 8 d R . P
loop_
_atom_site_aniso_label
_atom_site_aniso_U_11
_atom_site_aniso_U_22
_atom_site_aniso_U_33
_atom_site_aniso_U_23
_atom_site_aniso_U_13
_atom_site_aniso_U_12
Ta1 0.01037(2) 0.01037(2) 0.00586(3) 0.000 0.000 0.000
N1 0.0162(5) 0.0162(5) 0.0101(6) 0.000 0.000 0.000
N2 0.0483(12) 0.0483(12) 0.0083(8) 0.000 0.000 0.000
F1 0.0180(4) 0.0180(4) 0.0077(5) 0.000 0.000 0.000
F2 0.0234(3) 0.0234(3) 0.0555(7) 0.0004(3) -0.0004(3) 0.0132(4)
F3 0.061(2) 0.0370(13) 0.0095(7) 0.0086(8) 0.0052(9) 0.0245(12)
loop_
_atom_type_symbol
_atom_type_description
_atom_type_scat_dispersion_real
_atom_type_scat_dispersion_imag
_atom_type_scat_source
N N 0.0061 0.0033 'International Tables Vol C Tables 4.2.6.8 and 6.1.1.4'
H H 0.0000 0.0000 'International Tables Vol C Tables 4.2.6.8 and 6.1.1.4'
F F 0.0171 0.0103 'International Tables Vol C Tables 4.2.6.8 and 6.1.1.4'
Ta Ta -0.7052 6.5227 'International Tables Vol C Tables 4.2.6.8 and 6.1.1.4'
loop_
_geom_angle_atom_site_label_1
_geom_angle_atom_site_label_2
_geom_angle_atom_site_label_3
_geom_angle
_geom_angle_site_symmetry_1
_geom_angle_site_symmetry_3
F3 Ta1 F3 67.50(18) . 13_565
F3 Ta1 F3 73.49(17) . 2
F3 Ta1 F3 73.49(17) 13_565 14_655
F3 Ta1 F3 66.70(17) 3 14_655
F3 Ta1 F3 73.49(17) 3 4
F3 Ta1 F3 67.50(18) 15_665 4
F3 Ta1 F2 86.76(11) . 4
F3 Ta1 F2 86.76(11) 16 4
F3 Ta1 F2 68.73(9) 14_655 4
F3 Ta1 F2 68.73(9) 4 4
F3 Ta1 F2 68.73(9) 13_565 3
F3 Ta1 F2 68.73(9) 3 3
F3 Ta1 F2 86.76(11) 15_665 3
F3 Ta1 F2 86.76(11) 2 3
F2 N1 F2 91.36(4) 12_666 4
F2 N1 F2 64.79(4) 10_666 11_566
F2 N1 F2 89.04(4) 12_666 11_566
F2 N1 F2 89.04(4) 4 3_565
F2 N1 F2 91.36(4) 11_566 3_565
F2 N1 F2 89.04(4) . 2_565
F2 N1 F2 91.36(4) 10_666 2_565
F2 N1 F2 120.56(2) 12_666 2_565
F2 N1 F2 64.79(4) 4 2_565
F2 N1 F2 91.36(4) . 9_566
F2 N1 F2 89.04(4) 10_666 9_566
F2 N1 F2 64.79(4) 12_666 9_566
F2 N1 F1 71.57(3) 4 9_666
F2 N1 F1 71.57(3) 2_565 9_666
F1 N1 F1 91.870(10) 9_666 1_565
F2 N1 H1 87.5 12_666 .
F2 N1 H1 88.7 3_565 .
F2 N1 H1 88.7 2_565 .
F2 N1 H1 87.5 9_566 .
F1 N1 H1 84.0 9_666 .
F1 N1 H1 45.8 1_565 .
loop_
_geom_bond_atom_site_label_1
_geom_bond_atom_site_label_2
_geom_bond_distance
_geom_bond_site_symmetry_2
Ta1 F3 1.943(2) .
Ta1 F3 1.943(2) 13_565
Ta1 F3 1.943(2) 3
Ta1 F3 1.943(2) 15_665
Ta1 F3 1.943(2) 2
Ta1 F3 1.943(2) 16
Ta1 F3 1.943(2) 14_655
Ta1 F3 1.943(2) 4
Ta1 F2 1.9436(11) 4
Ta1 F2 1.9436(11) 3
N1 F2 2.9660(11) .
N1 F2 2.9660(11) 10_666
N1 F2 2.9660(11) 12_666
N1 F2 2.9660(11) 4
N1 F2 2.9660(11) 11_566
N1 F2 2.9660(11) 3_565
N1 F2 2.9660(11) 2_565
N1 F2 2.9660(11) 9_566
N1 F1 2.9797(3) 9_666
N1 F1 2.9797(3) 1_565
N1 H1 0.7033 .
N2 F2 2.852(2) 11_556
N2 F2 2.852(2) 12_666
N2 F2 2.852(2) 10_656
N2 F2 2.852(2) 9_566
N2 F3 2.864(3) 14_656
N2 F3 2.864(3) 4_556
N2 F3 2.864(3) 16_556
N2 F3 2.864(3) 1_556
N2 F3 2.864(3) 15_666
N2 F3 2.864(3) 2_556
N2 H2 0.7397 .
F1 F2 2.4668(16) 3
F1 F2 2.4668(16) 2
F1 F2 2.4668(16) 4
F1 F2 2.4668(16) .
F1 N1 2.9797(3) 9_666
F1 N1 2.9797(3) 9_566
F1 N1 2.9797(3) 1_545
F2 F3 2.194(3) 15_665
F2 F3 2.194(3) .
F2 F3 2.669(3) 3
F2 F3 2.669(3) 14_655
F2 F2 2.6832(15) 4
F2 F2 2.6832(15) 3
F2 N2 2.852(2) 9_566
F3 F3 2.324(6) 2
F3 F2 2.669(3) 4

_cod_database_fobs_code 2108546
