#------------------------------------------------------------------------------
#$Date: 2021-07-28 08:23:42 +0300 (Wed, 28 Jul 2021) $
#$Revision: 267783 $
#$URL: file:///home/coder/svn-repositories/cod/cif/2/10/88/2108854.cif $
#------------------------------------------------------------------------------
#
# This file is available in the Crystallography Open Database (COD),
# http://www.crystallography.net/. The original data for this entry
# were provided by IUCr Journals, http://journals.iucr.org/.
#
# The file may be used within the scientific community so long as
# proper attribution is given to the journal article from which the
# data were obtained.
#
data_2108854
loop_
_publ_author_name
'Bujak, Maciej'
'Podsiad\/lo, Marcin'
'Katrusiak, Andrzej'
_publ_section_title
;
 Properties and interactions -- melting point of tribromobenzene isomers
;
_journal_coeditor_code           LO5092
_journal_issue                   4
_journal_name_full               'Acta Crystallographica Section B'
_journal_page_first
;
;
_journal_paper_doi               10.1107/S2052520621006399
_journal_volume                  77
_journal_year                    2021
_chemical_formula_moiety         'C6 H3 Br3'
_chemical_formula_sum            'C6 H3 Br3'
_chemical_formula_weight         314.78
_space_group_crystal_system      orthorhombic
_space_group_IT_number           19
_space_group_name_Hall           'P 2ac 2ab'
_space_group_name_H-M_alt        'P 21 21 21'
_atom_sites_solution_hydrogens   difmap
_atom_sites_solution_primary     direct
_atom_sites_solution_secondary   difmap
_audit_creation_method           SHELXL-2014/7
_cell_angle_alpha                90
_cell_angle_beta                 90
_cell_angle_gamma                90
_cell_formula_units_Z            4
_cell_length_a                   4.03673(14)
_cell_length_b                   13.4739(4)
_cell_length_c                   14.1499(5)
_cell_measurement_reflns_used    2709
_cell_measurement_temperature    200.0(1)
_cell_measurement_theta_max      27.65
_cell_measurement_theta_min      4.16
_cell_volume                     769.62(4)
_computing_cell_refinement
'CrysAlisPro 1.171.39.46 (Rigaku Oxford Diffraction, 2018)'
_computing_data_collection
'CrysAlisPro 1.171.39.46 (Rigaku Oxford Diffraction, 2018)'
_computing_data_reduction
'CrysAlisPro 1.171.39.46 (Rigaku Oxford Diffraction, 2018)'
_computing_molecular_graphics    'Mercury (Macrae at al., 2020)'
_computing_publication_material  'SHELXL-2014/7 (Sheldrick, 2014)'
_computing_structure_refinement  'SHELXL-2014/7 (Sheldrick, 2014)'
_computing_structure_solution    'SHELXS-97 (Sheldrick, 2008)'
_diffrn_ambient_temperature      200.0(1)
_diffrn_detector_area_resol_mean 16.1544
_diffrn_measured_fraction_theta_full 0.999
_diffrn_measured_fraction_theta_max 0.999
_diffrn_measurement_device_type  'Xcalibur, Eos'
_diffrn_measurement_method       '\w scans'
_diffrn_radiation_type           MoK\a
_diffrn_radiation_wavelength     0.71073
_diffrn_reflns_av_R_equivalents  0.0554
_diffrn_reflns_av_unetI/netI     0.0316
_diffrn_reflns_Laue_measured_fraction_full 0.999
_diffrn_reflns_Laue_measured_fraction_max 0.999
_diffrn_reflns_limit_h_max       4
_diffrn_reflns_limit_h_min       -4
_diffrn_reflns_limit_k_max       16
_diffrn_reflns_limit_k_min       -16
_diffrn_reflns_limit_l_max       17
_diffrn_reflns_limit_l_min       -17
_diffrn_reflns_number            10781
_diffrn_reflns_point_group_measured_fraction_full 0.999
_diffrn_reflns_point_group_measured_fraction_max 0.999
_diffrn_reflns_theta_full        25.242
_diffrn_reflns_theta_max         25.951
_diffrn_reflns_theta_min         2.879
_diffrn_source                   'fine-focus sealed X-ray tube'
_exptl_absorpt_coefficient_mu    15.629
_exptl_absorpt_correction_T_max  0.274
_exptl_absorpt_correction_T_min  0.073
_exptl_absorpt_correction_type   analytical
_exptl_absorpt_process_details
;
CrysAlisPro 1.171.39.46 (Rigaku Oxford Diffraction, 2018)
Analytical numeric absorption correction using a multifaceted crystal
model based on expressions derived by R.C. Clark & J.S. Reid.
(Clark, R. C. & Reid, J. S. (1995). Acta Cryst. A51, 887-897)
Empirical absorption correction using spherical harmonics,
implemented in SCALE3 ABSPACK scaling algorithm.
;
_exptl_crystal_colour            yellow
_exptl_crystal_density_diffrn    2.717
_exptl_crystal_density_method    'not measured'
_exptl_crystal_description       needle
_exptl_crystal_F_000             576
_exptl_crystal_size_max          0.35
_exptl_crystal_size_mid          0.16
_exptl_crystal_size_min          0.10
_refine_diff_density_max         0.350
_refine_diff_density_min         -0.302
_refine_diff_density_rms         0.081
_refine_ls_abs_structure_details
;
 Refined as an inversion twin.
;
_refine_ls_abs_structure_Flack   0.49(3)
_refine_ls_extinction_coef       0.0022(2)
_refine_ls_extinction_expression Fc^*^=kFc[1+0.001xFc^2^\l^3^/sin(2\q)]^-1/4^
_refine_ls_extinction_method     'SHELXL-2014/7 (Sheldrick 2014)'
_refine_ls_goodness_of_fit_ref   0.995
_refine_ls_hydrogen_treatment    constr
_refine_ls_matrix_type           full
_refine_ls_number_parameters     84
_refine_ls_number_reflns         1496
_refine_ls_number_restraints     0
_refine_ls_restrained_S_all      0.995
_refine_ls_R_factor_all          0.0264
_refine_ls_R_factor_gt           0.0216
_refine_ls_shift/su_max          0.000
_refine_ls_shift/su_mean         0.000
_refine_ls_structure_factor_coef Fsqd
_refine_ls_weighting_details
'w=1/[\s^2^(Fo^2^)+(0.0113P)^2^] where P=(Fo^2^+2Fc^2^)/3'
_refine_ls_weighting_scheme      calc
_refine_ls_wR_factor_gt          0.0360
_refine_ls_wR_factor_ref         0.0370
_reflns_Friedel_coverage         0.633
_reflns_Friedel_fraction_full    1.000
_reflns_Friedel_fraction_max     1.000
_reflns_number_gt                1370
_reflns_number_total             1496
_reflns_threshold_expression     'I > 2\s(I)'
_cod_data_source_file            lo5092sup1.cif
_cod_data_source_block           135TBB_200K
_cod_database_code               2108854
_shelx_shelxl_version_number     2014/7
_shelx_space_group_comment
;
The symmetry employed for this shelxl refinement is uniquely defined
by the following loop, which should always be used as a source of
symmetry information in preference to the above space-group names.
They are only intended as comments.
;
_shelx_estimated_absorpt_t_min   0.073
_shelx_estimated_absorpt_t_max   0.304
_shelx_res_file
;

    135tbb_200k.res created by SHELXL-2014/7


TITL 135TBB_200K in P2(1)2(1)2(1)
CELL 0.71073   4.036734  13.473879  14.149875  90.0000  90.0000  90.0000
ZERR    4.00   0.000142   0.000416   0.000480   0.0000   0.0000   0.0000
LATT -1
SYMM 0.5-X, -Y, 0.5+Z
SYMM -X, 0.5+Y, 0.5-Z
SYMM 0.5+X, 0.5-Y, -Z
SFAC C H BR
UNIT 24 12 12
OMIT 0 52
HTAB
ACTA
SIZE 0.10 0.16 0.35
REM TEMP -73
L.S. 100
BOND $H
FMAP 2
PLAN 150
CONF
TWIN
WGHT    0.011300
EXTI    0.002249
BASF   0.48850
FVAR       0.12655
C11   1    0.297940    0.228015    0.336015    11.00000    0.02220    0.02329 =
         0.02868    0.00216    0.00654   -0.00023
BR11  3    0.438259    0.107232    0.391490    11.00000    0.04051    0.02696 =
         0.03739    0.00413   -0.00261    0.00451
C12   1    0.135370    0.224908    0.250141    11.00000    0.02614    0.02306 =
         0.02499   -0.00383    0.00416   -0.00192
AFIX  43
H12   2    0.092921    0.164985    0.219854    11.00000   -1.20000
AFIX   0
C13   1    0.038157    0.314328    0.210931    11.00000    0.02104    0.03318 =
         0.02046   -0.00198    0.00173   -0.00284
BR13  3   -0.180395    0.312418    0.092529    11.00000    0.03645    0.04341 =
         0.02264    0.00214   -0.00170   -0.00254
C14   1    0.096828    0.403818    0.254297    11.00000    0.02608    0.02629 =
         0.02512    0.00023    0.00350   -0.00325
AFIX  43
H14   2    0.028091    0.463080    0.226896    11.00000   -1.20000
AFIX   0
C15   1    0.261966    0.402970    0.340313    11.00000    0.02518    0.02151 =
         0.03362   -0.00236    0.00433   -0.00509
BR15  3    0.353176    0.524532    0.401508    11.00000    0.04517    0.02545 =
         0.04402   -0.00626   -0.00582   -0.00494
C16   1    0.365479    0.315460    0.382431    11.00000    0.02800    0.03359 =
         0.02137    0.00189    0.00075   -0.00258
AFIX  43
H16   2    0.476610    0.315808    0.440003    11.00000   -1.20000
AFIX   0
HKLF 4

REM  135TBB_200K in P2(1)2(1)2(1)
REM R1 =  0.0216 for    1370 Fo > 4sig(Fo)  and  0.0264 for all    1496 data
REM     84 parameters refined using      0 restraints

END

WGHT      0.0113      0.0000

REM Instructions for potential hydrogen bonds
HTAB C12 Br15_$7

REM Highest difference peak  0.350,  deepest hole -0.302,  1-sigma level  0.081
Q1    1   0.0423  0.5266  0.4024  11.00000  0.05    0.35
Q2    1   0.6652  0.5273  0.4077  11.00000  0.05    0.33
Q3    1   0.7463  0.1078  0.3974  11.00000  0.05    0.31
Q4    1   0.2038  0.1346  0.3986  11.00000  0.05    0.31
Q5    1   0.0706  0.3253  0.0962  11.00000  0.05    0.30
Q6    1   0.1896  0.3544  0.2248  11.00000  0.05    0.28
Q7    1  -0.0180  0.3407  0.2450  11.00000  0.05    0.28
Q8    1   0.8445  0.1787  0.3959  11.00000  0.05    0.27
Q9    1  -0.3412  0.3742  0.0837  11.00000  0.05    0.27
Q10   1   0.0071  0.2850  0.2446  11.00000  0.05    0.26
Q11   1   0.5772  0.4657  0.3966  11.00000  0.05    0.26
Q12   1   0.2970  0.5047  0.2093  11.00000  0.05    0.26
Q13   1   0.4277  0.2423  0.2062  11.00000  0.05    0.26
Q14   1  -0.4721  0.3187  0.0883  11.00000  0.05    0.25
Q15   1   0.3411  0.2286  0.2752  11.00000  0.05    0.24
Q16   1   0.2586  0.5748  0.2417  11.00000  0.05    0.23
Q17   1  -0.0772  0.2345  0.3447  11.00000  0.05    0.23
Q18   1   0.1558  0.2765  0.2150  11.00000  0.05    0.23
Q19   1   0.5470  0.4636  0.4753  11.00000  0.05    0.23
Q20   1   0.3026  0.3120  0.1474  11.00000  0.05    0.22
...
;
_shelx_res_checksum              45429
_shelx_hkl_file
;
   0   0   2   27.84    1.26
   0   0  -2   26.21    1.35
   0   0   2   25.08    1.46
   0   0  -2   26.66    1.28
   0   0   2   28.51    1.53
   0   0   3    3.02    0.78
   0   0  -3    3.82    0.72
   0   0  -3    4.30    1.15
   0   0   3    2.46    0.64
   0   0  -3    2.43    0.73
   0   0   3    4.65    0.76
   0   0  -3    4.19    0.68
   0   0   3    3.97    0.95
   0   0  -3    3.78    0.93
   0   0   4  985.16   19.04
   0   0  -4 1000.00   19.82
   0   0  -4  884.90   18.20
   0   0   4  897.40   18.01
   0   0   5    1.53    0.74
   0   0   5    0.43    0.94
   0   0  -5    1.47    0.95
   0   0  -6  891.18   19.71
   0   0   6  840.48   17.51
   0   0  -6  831.23   17.87
   0   0   7    0.18    0.83
   0   0  -7    0.24    1.63
   0   0   7    1.40    1.25
   0   0  -7    1.08    1.03
   0   0  -8  111.65    5.19
   0   0   8  117.90    5.53
   0   0   8  110.30    4.76
   0   0  -8  115.48    6.19
   0   0  -9    0.00    1.85
   0   0   9   -0.29    0.96
   0   0   9    1.77    1.38
   0   0 -10  432.75   13.80
   0   0  10  400.52   12.24
   0   0  10  394.64   11.19
   0   0  11   -0.38    1.12
   0   0  11   -1.73    1.62
   0   0 -11    1.59    2.44
   0   0  12   44.37    3.43
   0   0  12   51.88    4.26
   0   0 -12   52.61    4.88
   0   0  13    1.19    1.14
   0   0  13   -1.70    1.40
   0   0 -13   -0.75    2.05
   0   0  14  104.26    5.50
   0   0  14   99.43    6.07
   0   0 -14  117.80    7.43
   0   0  15   -1.57    1.61
   0   0  15    0.58    1.23
   0   0 -15    2.32    2.38
   0   0 -16   64.06    5.76
   0   0  16   53.83    4.16
   0   0  16   56.29    4.83
   0   0 -17   -1.78    2.18
   0   0  17    0.53    1.24
   0   0  17    0.32    1.51
   0   0  18   -0.32    1.22
   0   0  18    1.66    1.52
   0   0 -18    0.11    1.90
   0   0  19   -0.08    1.31
   0   0 -19    2.30    2.02
   0   0 -19   -0.69    1.79
   0   0  19   -1.47    1.44
   0   0 -20   18.61    3.05
   0   0  20   16.57    2.83
   0   0 -20   19.73    3.76
   0   1   2    0.77    0.34
   0   1   2    0.71    0.38
   0  -1  -2    0.18    0.25
   0  -1  -2    0.69    0.18
   0  -1  -2    0.97    0.35
   0   1  -2   -0.50    0.58
   0  -1   2    1.02    0.24
   0   1  -2    0.42    0.42
   0  -1   2    0.62    0.40
   0   1  -2    0.93    0.43
   0   1   2    0.64    0.23
   0   1  -2    0.36    0.30
   0  -1   2   -0.07    0.52
   0  -1   2    0.15    0.40
   0  -1  -2    0.11    0.24
   0   1   2    0.31    0.22
   0   1  -2    0.99    0.27
   0   1   2    0.94    0.30
   0   1   3   21.51    1.44
   0  -1  -3   21.37    1.51
   0  -1  -3   21.25    1.24
   0  -1  -3   21.39    1.56
   0   1  -3   20.41    1.16
   0   1   3   21.92    1.44
   0   1   3   21.34    1.23
   0  -1   3   20.90    1.15
   0   1  -3   20.35    1.65
   0  -1   3   21.68    1.71
   0   1  -3   19.90    1.74
   0  -1   3   19.42    1.73
   0   1   3   21.57    1.25
   0   1  -3   17.27    1.63
   0  -1  -3   20.75    1.15
   0  -1   4   -0.06    0.53
   0  -1   4   -0.30    1.01
   0  -1  -4   -0.49    0.74
   0   1   4   -0.03    0.67
   0  -1  -4    0.96    1.03
   0   1  -4    1.02    1.35
   0   1  -4    0.11    0.47
   0   1   4    0.87    0.80
   0  -1   4    1.34    1.10
   0  -1  -5   16.32    1.51
   0  -1   5   16.36    2.01
   0  -1   5   14.94    1.30
   0  -1   5   15.26    2.05
   0   1   5   19.04    1.61
   0   1   5   17.59    1.60
   0  -1  -5   18.44    1.92
   0   1  -5   15.68    2.12
   0  -1  -6    1.12    1.14
   0  -1   6    2.36    0.83
   0   1   6    1.54    0.89
   0  -1   6    1.88    1.04
   0  -1  -6    1.73    0.84
   0   1   6    2.02    0.87
   0  -1   6    4.08    1.61
   0   1  -6    1.68    1.33
   0  -1   7  121.27    5.73
   0  -1   7  108.92    4.29
   0   1   7  107.57    4.57
   0   1  -7  116.83    6.06
   0   1   7  107.15    4.76
   0  -1  -7  106.53    5.40
   0  -1  -7  112.06    4.74
   0  -1   8    2.30    0.90
   0  -1  -8    2.95    1.21
   0   1   8    1.51    0.97
   0   1  -8    4.23    2.15
   0  -1   8    2.28    1.59
   0  -1  -8    2.21    1.41
   0   1   8    1.79    1.11
   0  -1   9    1.33    1.00
   0   1   9    3.67    1.33
   0   1   9    3.71    1.32
   0   1  -9    2.65    2.17
   0  -1   9    3.62    1.76
   0  -1  -9    3.00    1.22
   0  -1  -9    2.11    1.95
   0   1 -10    7.90    2.61
   0  -1 -10    7.76    2.24
   0  -1  10    4.87    1.96
   0  -1 -10    4.91    1.57
   0  -1  10    6.18    1.44
   0   1  10    4.17    1.43
   0   1  10    6.92    1.77
   0   1  11   41.91    3.58
   0  -1 -11   35.97    3.44
   0   1  11   42.71    3.37
   0  -1  11   40.08    3.85
   0  -1  11   41.04    3.18
   0  -1 -11   42.38    4.34
   0   1 -11   50.16    4.80
   0   1  12    1.20    1.13
   0  -1  12    4.01    1.46
   0  -1 -12    3.95    2.15
   0   1  12    2.18    1.55
   0   1 -12    3.51    2.49
   0  -1  12    4.98    2.12
   0  -1  13   14.68    2.06
   0   1 -13   22.53    3.55
   0  -1  13   17.80    2.80
   0   1  13   15.74    2.24
   0   1  13   17.75    2.57
   0  -1 -13   17.85    3.18
   0   1  14    2.58    1.44
   0   1  14    2.18    1.34
   0   1 -14    0.24    2.43
   0  -1 -14    3.48    2.19
   0  -1  14    0.32    1.16
   0  -1  14    4.58    2.03
   0   1  15    1.47    1.30
   0  -1  15    3.77    1.49
   0  -1 -15   -0.75    2.24
   0   1 -15   -1.01    2.57
   0  -1  15    1.38    1.45
   0   1  15    2.39    1.30
   0  -1  16    0.91    1.06
   0  -1  16   -0.73    1.82
   0   1  16    4.07    1.62
   0  -1 -16   -0.66    2.20
   0   1  16   -0.55    1.37
   0   1 -16    2.38    1.69
   0   1 -16    0.65    1.90
   0  -1 -17   34.99    4.49
   0  -1  17   29.94    3.14
   0   1  17   24.11    2.95
   0  -1  17   28.43    3.68
   0   1 -17   33.62    4.45
   0   1 -17   25.16    3.38
   0   1  17   30.78    3.66
   0   1 -18    0.00    1.51
   0   1  18    0.53    1.48
   0   1 -18   -2.10    2.18
   0  -1  18   -1.29    1.29
   0  -1  18    1.39    1.60
   0  -1 -18   -5.59    2.47
   0   1  18   -0.44    1.28
   0   1  19    0.04    1.24
   0   1  19   -3.34    1.83
   0  -1  19   -0.96    1.48
   0   1 -19    4.34    2.21
   0  -1 -19   -0.42    1.77
   0   1 -19    0.17    2.03
   0  -1 -20   -0.78    2.05
   0   1 -20   -0.40    1.58
   0  -1  20   -3.68    2.04
   0   1 -20   -1.41    2.30
   0  -1 -20   -2.19    1.78
   0   1  20    2.10    1.29
   0   1  20   -0.38    1.60
   0  -1  21    4.50    1.85
   0   1  21    7.84    2.60
   0   2   0    0.86    0.21
   0  -2   0    1.33    0.26
   0  -2   0    0.79    0.18
   0   2   0    1.08    0.21
   0   2   0    1.13    0.22
   0   2   1    0.70    0.22
   0  -2   1    0.24    0.33
   0   2  -1    0.40    0.17
   0  -2   1    0.71    0.34
   0   2  -1    0.70    0.25
   0   2   1    0.17    0.28
   0  -2   1    0.27    0.16
   0  -2  -1    0.75    0.22
   0   2  -1    0.83    0.37
   0   2  -1    0.00    0.29
   0  -2   1    0.05    0.20
   0  -2  -1    0.58    0.24
   0  -2   2   23.03    1.47
   0   2   2   18.51    0.84
   0  -2   2   19.40    1.38
   0   2   2   17.20    0.90
   0   2  -2   18.06    1.32
   0   2  -2   19.72    1.42
   0  -2   2   23.33    1.52
   0   2  -2   19.72    0.91
   0   2  -2   19.85    1.30
   0  -2  -2   19.80    1.20
   0  -2   2   19.67    1.04
   0   2  -2   19.69    1.03
   0  -2  -2   18.79    0.88
   0   2   2   20.93    1.23
   0  -2  -2   18.04    0.91
   0  -2   3   59.59    3.00
   0   2  -3   54.10    2.16
   0  -2   3   62.25    2.94
   0  -2   3   57.10    1.94
   0  -2  -3   54.01    1.98
   0   2  -3   59.98    2.90
   0   2   3   53.74    1.93
   0  -2  -3   57.70    2.08
   0   2   3   55.50    2.44
   0   2   3   54.45    1.81
   0   2  -3   59.50    1.99
   0  -2   4   34.47    2.53
   0  -2  -4   37.10    1.83
   0  -2   4   36.28    2.64
   0   2   4   38.40    1.73
   0   2  -4   37.09    2.60
   0  -2   4   37.88    1.73
   0   2   4   38.80    2.14
   0   2  -4   36.35    1.94
   0  -2  -4   37.44    2.05
   0  -2   5   23.57    2.33
   0   2  -5   25.10    1.79
   0  -2   5   29.30    2.60
   0   2   5   27.53    1.74
   0   2   5   31.35    2.13
   0  -2  -5   26.43    1.75
   0  -2  -5   29.79    2.18
   0  -2   5   29.64    1.72
   0   2  -5   32.40    2.67
   0  -2   6    3.25    0.78
   0   2   6    4.06    0.94
   0  -2  -6    5.07    1.17
   0   2  -6    3.21    0.93
   0   2   6    5.13    1.18
   0   2   6    4.25    0.68
   0  -2   6    4.78    1.68
   0  -2  -6    3.77    0.93
   0   2  -6    5.00    1.75
   0  -2   6    2.80    1.29
   0  -2   7   32.54    2.17
   0  -2   7   34.72    3.19
   0   2   7   34.33    2.48
   0   2  -7   34.53    3.36
   0  -2   7   33.36    3.30
   0  -2  -7   32.25    2.82
   0   2   7   34.47    2.61
   0   2  -7   33.24    1.67
   0  -2  -7   36.88    2.53
   0   2   7   35.28    1.43
   0   2  -8   10.72    2.58
   0  -2   8   12.44    2.51
   0  -2   8   12.64    2.32
   0   2  -8   11.83    0.80
   0  -2   8   11.57    1.48
   0  -2   8   13.02    0.75
   0   2   8   10.46    1.67
   0  -2  -8   11.30    0.62
   0  -2  -8    8.67    1.57
   0  -2  -8    9.41    1.92
   0   2   8   10.65    1.66
   0  -2  -9    5.51    1.50
   0  -2  -9    3.73    1.63
   0  -2   9    3.89    1.06
   0   2   9    4.41    1.40
   0  -2   9   10.21    2.44
   0   2  -9    3.33    1.99
   0   2   9    6.92    1.60
   0  -2 -10    4.08    2.03
   0   2  10    8.82    1.74
   0   2  10    6.93    1.56
   0  -2  10    7.44    1.47
   0  -2 -10    7.68    1.81
   0  -2  10   10.15    2.34
   0   2 -10    9.26    2.79
   0   2  11   42.77    3.37
   0  -2  11   38.04    4.03
   0   2  11   41.90    3.50
   0   2 -11   49.35    4.86
   0  -2 -11   35.46    3.33
   0  -2 -11   41.20    4.19
   0  -2  11   43.34    3.19
   0  -2  12    5.53    2.04
   0   2 -12    6.19    1.99
   0   2  12    3.46    1.51
   0  -2 -12    3.93    2.05
   0   2  12    5.12    1.53
   0  -2 -12    3.95    1.95
   0  -2  12    6.14    1.60
   0   2 -12    4.24    2.42
   0   2 -13   -0.02    1.52
   0   2 -13   -0.23    2.00
   0   2  13    1.24    1.09
   0  -2  13    0.44    1.33
   0   2  13   -2.65    1.48
   0  -2 -13   -0.04    1.73
   0  -2 -13   -1.40    1.39
   0  -2  13   -0.25    1.14
   0   2  14    4.59    1.77
   0   2 -14    4.76    2.53
   0   2  14    6.30    1.66
   0   2 -14    4.87    1.73
   0  -2 -14    8.93    2.43
   0  -2  14    6.34    2.17
   0  -2  14    5.75    1.53
   0  -2  15   23.52    3.19
   0  -2 -15   29.29    3.90
   0   2 -15   27.69    3.33
   0  -2  15   21.41    2.65
   0   2  15   25.62    3.00
   0   2  15   26.41    3.18
   0   2 -15   24.05    3.90
   0   2  16    1.60    1.36
   0  -2 -16   -0.80    1.96
   0   2 -16    1.05    1.49
   0  -2  16    0.47    1.42
   0   2  16    1.70    1.40
   0  -2  16    1.46    1.26
   0   2 -16   -2.82    2.54
   0   2  17    2.58    1.52
   0  -2  17    3.51    1.54
   0   2  17    3.47    1.55
   0   2 -17    3.24    2.06
   0   2 -17    1.30    1.84
   0  -2  17    2.69    1.88
   0  -2 -17    4.58    2.34
   0   2  18    3.28    1.40
   0   2 -18    1.32    1.86
   0  -2  18    4.21    1.51
   0  -2 -18    4.25    2.34
   0   2 -18    3.01    2.61
   0   2  18    0.29    1.53
   0  -2  18    4.88    2.09
   0  -2  19    6.91    2.18
   0   2  19    7.13    1.97
   0   2 -19    8.88    2.22
   0   2  19    9.24    2.15
   0  -2 -19    3.81    2.12
   0   2 -19   10.15    2.94
   0   2 -20   -2.17    2.45
   0  -2 -20   -1.05    1.87
   0  -2  20   -0.50    1.91
   0   2  20    0.06    1.20
   0   2 -20   -1.00    1.84
   0   3   0    0.28    0.35
   0   3   0   -0.23    0.37
   0  -3   0    0.11    0.31
   0   3   0    0.52    0.30
   0  -3   0    0.06    0.26
   0  -3   0    0.49    0.25
   0  -3   1   92.22    2.42
   0   3   1   94.75    2.77
   0   3  -1   97.32    2.59
   0  -3  -1   90.81    2.67
   0   3  -1   88.92    2.61
   0   3  -1   95.84    2.47
   0  -3   1   94.44    2.61
   0  -3  -1   91.33    2.48
   0   3   1   98.06    2.53
   0   3  -1  101.69    3.14
   0  -3   1   97.33    2.82
   0   3  -2  872.15   15.69
   0   3  -2  882.76   16.07
   0   3   2  844.18   16.48
   0  -3   2  845.73   17.03
   0  -3   2  895.64   16.88
   0  -3  -2  881.39   15.60
   0  -3  -2  882.72   15.79
   0   3  -3   24.71    1.46
   0  -3   3   27.60    2.04
   0   3   3   25.52    1.70
   0   3  -3   26.03    1.30
   0  -3  -3   26.38    1.35
   0  -3  -3   23.88    1.24
   0  -3   3   24.71    2.00
   0  -3   4  283.19    8.14
   0  -3  -4  286.04    6.59
   0  -3   4  291.52    8.20
   0   3  -4  276.46    7.86
   0   3   4  278.20    6.07
   0   3   4  277.84    7.35
   0   3  -4  286.76    6.82
   0  -3   4  278.24    6.31
   0  -3  -4  277.11    6.43
   0   3  -5   78.10    4.04
   0  -3  -5   81.18    3.28
   0  -3  -5   73.98    2.94
   0   3   5   78.28    2.78
   0  -3   5   78.70    2.85
   0   3   5   82.06    3.56
   0  -3   5   82.15    4.20
   0   3  -5   77.51    3.19
   0  -3   5   83.67    4.30
   0  -3  -6  113.24    4.05
   0   3   6  110.36    3.87
   0   3   6  119.42    4.72
   0   3  -6  114.82    4.31
   0  -3   6  108.56    5.44
   0  -3   6  113.39    3.87
   0  -3   6  114.48    5.38
   0  -3  -6  109.05    4.50
   0   3  -6  106.19    5.28
   0  -3   7    1.03    0.70
   0  -3   7    1.07    1.51
   0   3  -7    1.87    0.93
   0  -3  -7    2.59    0.98
   0   3  -7   -0.89    1.43
   0   3   7    1.29    0.83
   0  -3  -7    0.51    1.14
   0   3   7    1.73    1.04
   0  -3   7   -0.32    1.74
   0   3   7    1.61    0.71
   0   3  -8  410.56    9.54
   0   3  -8  387.43   12.46
   0  -3  -8  409.85   11.67
   0   3  -8  381.88   10.55
   0  -3   8  401.41   12.62
   0   3   8  415.27   11.38
   0   3   8  406.08    8.81
   0  -3   8  390.35    9.93
   0   3   8  404.47   10.50
   0  -3  -8  400.27   10.59
   0  -3   8  394.50   12.68
   0   3   9   42.13    1.72
   0  -3   9   37.00    2.63
   0   3   9   38.38    2.92
   0   3  -9   44.20    2.08
   0  -3   9   44.53    4.13
   0  -3   9   44.64    4.26
   0   3  -9   41.88    4.20
   0  -3  -9   40.58    3.63
   0   3  -9   38.09    3.06
   0  -3  -9   40.53    3.09
   0   3   9   39.58    3.17
   0  -3  10   11.83    2.92
   0  -3 -10   12.53    2.09
   0  -3  10   10.26    1.62
   0  -3 -10   11.48    2.42
   0   3  10   10.32    0.60
   0  -3  10   10.21    0.74
   0   3  10   10.52    1.97
   0   3 -10    9.83    1.94
   0   3  10    5.68    1.49
   0   3 -10    7.76    2.67
   0  -3  10    9.66    2.57
   0   3 -11    5.75    1.75
   0  -3 -11    7.03    1.98
   0  -3  11    5.03    2.61
   0  -3 -11    4.27    1.90
   0   3  11    5.48    1.58
   0   3 -11    8.41    2.86
   0  -3  11    5.38    1.40
   0   3  11    5.96    1.76
   0   3 -12  111.81    5.97
   0  -3  12  110.67    6.96
   0  -3 -12  112.75    5.99
   0  -3 -12  107.66    6.60
   0  -3  12  108.01    5.28
   0   3  12  120.89    6.07
   0   3 -12  125.62    7.65
   0   3  12  114.78    5.88
   0  -3 -13    1.11    1.87
   0   3  13    1.90    1.37
   0  -3  13    4.11    1.31
   0   3 -13    4.82    1.69
   0  -3  13    5.15    1.93
   0  -3 -13    4.09    1.62
   0   3 -13    1.53    2.30
   0   3  13    2.59    1.42
   0  -3  14   52.54    4.79
   0   3 -14   62.11    4.81
   0  -3  14   64.32    4.30
   0  -3 -14   59.89    4.76
   0   3  14   61.10    4.48
   0  -3 -14   62.49    5.30
   0   3  14   58.06    4.40
   0   3 -14   69.48    5.87
   0  -3  15    4.83    2.04
   0  -3  15    4.42    1.41
   0  -3 -15    5.54    2.00
   0   3  15    6.43    1.84
   0   3 -15    8.03    2.80
   0  -3 -15    6.08    2.18
   0   3 -15    8.11    2.32
   0   3  15    4.62    1.63
   0  -3 -16    2.42    2.26
   0   3 -16    1.47    2.22
   0   3 -16    1.96    1.71
   0   3  16    3.74    1.63
   0  -3  16   -0.81    1.87
   0   3  16    0.78    1.20
   0  -3  16    0.32    1.15
   0   3 -17    0.24    1.59
   0  -3  17   -1.59    1.75
   0   3 -17   -0.91    2.41
   0  -3  17   -1.34    1.40
   0   3  17    1.14    1.49
   0  -3 -17    0.09    2.31
   0   3  17   -2.55    1.69
   0   3  18   22.51    3.00
   0  -3  18   31.26    3.90
   0  -3 -18   38.53    4.70
   0   3 -18   27.04    3.55
   0   3  18   31.37    3.57
   0   3 -18   38.44    4.72
   0  -3  19    4.92    2.08
   0  -3 -19    4.70    2.62
   0   3  19   -1.28    1.58
   0   3 -19    3.01    2.09
   0   3 -19    1.50    1.76
   0   3  20    4.13    1.63
   0   3 -20    1.97    2.02
   0  -3  20    4.78    2.13
   0  -3 -20   -0.13    2.19
   0   4   0    1.11    0.39
   0   4   0    0.91    0.48
   0  -4   0    0.95    0.41
   0   4   0    1.59    0.37
   0  -4   1  211.67    5.11
   0   4  -1  211.64    4.82
   0  -4  -1  208.78    4.82
   0   4  -1  211.20    4.90
   0   4   1  207.67    5.17
   0  -4  -1  213.52    4.59
   0   4   2    0.76    0.66
   0   4  -2    0.74    0.51
   0   4  -2    0.79    0.35
   0  -4  -2    0.11    0.43
   0  -4   2    2.18    0.77
   0   4   3  675.11   14.51
   0   4  -3  697.27   13.42
   0  -4  -3  722.45   13.63
   0  -4   3  683.07   15.26
   0  -4  -3  734.05   13.37
   0  -4   3  764.27   15.24
   0   4  -3  699.89   13.94
   0   4  -4    6.80    0.99
   0  -4   4    7.05    1.48
   0  -4  -4    8.41    0.89
   0  -4   4    6.85    1.39
   0   4   4    6.47    1.12
   0  -4  -4    6.35    0.82
   0   4   5    0.01    0.37
   0  -4   5    0.57    1.20
   0   4  -5    0.35    1.15
   0  -4   5    1.35    1.51
   0  -4  -5    0.13    0.54
   0   4   5    0.52    0.95
   0   4  -5    0.35    0.62
   0  -4  -5   -0.20    0.51
   0   4   6    2.45    0.67
   0  -4  -6    1.87    0.82
   0   4  -6    1.71    1.29
   0  -4   6    1.74    0.64
   0   4   6    1.87    0.88
   0  -4  -6    2.76    0.91
   0  -4   6    3.06    1.50
   0  -4   6    1.79    1.43
   0   4  -6    1.64    0.91
   0  -4   7  308.30    7.83
   0   4   7  307.17    7.92
   0   4  -7  307.27   10.07
   0  -4  -7  319.35    8.96
   0   4  -7  303.19    8.52
   0  -4   7  310.91   10.37
   0  -4  -7  302.46    8.19
   0  -4   7  326.76   10.71
   0   4   7  313.86    9.29
   0   4   8   15.37    1.62
   0  -4   8   15.45    1.57
   0   4  -8   17.72    2.81
   0  -4   8   18.61    3.04
   0  -4   8   13.66    2.43
   0   4  -8   16.84    1.97
   0  -4  -8   15.18    1.78
   0   4   8   16.52    2.16
   0  -4  -8   17.26    2.23
   0   4   8   20.63    1.92
   0  -4   9  140.33    5.17
   0  -4   9  142.83    7.35
   0   4   9  141.32    6.29
   0   4   9  149.74    4.72
   0   4  -9  139.99    5.82
   0   4  -9  146.30    5.25
   0  -4  -9  139.87    6.47
   0  -4  -9  135.16    5.69
   0   4  -9  148.86    7.49
   0  -4   9  156.28    7.68
   0   4   9  141.77    5.61
   0  -4  10   -1.00    1.00
   0   4  10    0.42    1.01
   0   4 -10    1.47    1.44
   0  -4  10    0.67    2.05
   0  -4 -10   -1.33    1.44
   0  -4  10   -1.41    2.24
   0  -4 -10    2.94    1.55
   0   4 -10    0.75    0.64
   0   4  10   -0.10    1.44
   0   4  10    0.02    0.46
   0   4 -10    2.54    2.25
   0   4 -11   56.75    4.05
   0   4  11   63.16    4.07
   0  -4  11   67.75    5.59
   0   4 -11   69.98    5.63
   0   4  11   63.57    4.43
   0  -4  11   65.19    5.41
   0  -4 -11   64.55    4.76
   0  -4  11   64.73    3.73
   0  -4 -11   67.82    4.42
   0   4 -12   15.45    2.35
   0  -4 -12   12.48    2.10
   0   4 -12   12.20    2.95
   0  -4  12   14.96    1.99
   0   4  12   12.05    2.29
   0   4  12   13.20    2.13
   0  -4  12   20.55    3.45
   0  -4 -12   10.11    2.34
   0  -4 -13   56.23    4.40
   0   4  13   49.00    3.94
   0  -4 -13   51.53    4.68
   0  -4  13   60.93    5.21
   0   4 -13   53.07    4.17
   0   4 -13   55.98    5.42
   0  -4  13   55.65    3.75
   0   4  13   53.66    4.26
   0   4 -14    2.46    1.59
   0  -4 -14   -1.36    2.09
   0   4  14    0.82    1.07
   0  -4  14    1.47    1.61
   0  -4  14    4.16    1.40
   0   4 -14    5.03    2.53
   0   4  14    2.05    1.28
   0  -4 -14    2.65    1.62
   0  -4 -15    5.95    2.25
   0   4 -15    5.57    2.17
   0   4  15    4.40    1.43
   0   4  15    6.16    1.99
   0  -4  15    6.86    2.30
   0  -4  15    4.84    1.50
   0   4 -15    1.12    1.65
   0  -4 -15    4.75    2.13
   0   4 -16    0.76    1.62
   0  -4 -16    2.47    1.58
   0  -4  16    3.53    1.80
   0   4 -16    2.99    1.89
   0   4  16    4.20    1.56
   0  -4  16    2.54    1.23
   0   4  16    1.03    1.29
   0  -4 -16    0.90    1.94
   0   4  17   14.02    2.42
   0   4  17   17.37    2.85
   0   4 -17   15.99    2.78
   0  -4 -17   18.20    3.49
   0  -4  17   14.09    2.81
   0   4 -17   13.11    3.07
   0   4  18    3.09    1.54
   0  -4 -18    0.48    1.96
   0  -4  18    1.60    1.91
   0   4 -18    2.06    1.73
   0   4 -18    1.48    2.04
   0  -4 -19    8.86    2.55
   0   4 -19    4.94    1.98
   0   4  19    2.36    1.61
   0  -4  19    9.76    2.65
   0  -4 -20   -0.74    1.81
   0  -4  20   -1.95    1.98
   0   4  20    1.17    1.22
   0   5   0   -0.11    0.45
   0  -5   0    0.62    0.46
   0   5   0    0.19    0.47
   0  -5   0    0.40    0.42
   0   5   1   32.32    1.79
   0  -5   1   31.26    1.72
   0  -5  -1   30.37    1.54
   0   5   1   29.11    1.57
   0   5  -1   28.94    1.52
   0   5  -1   30.28    1.59
   0  -5  -1   31.89    1.43
   0  -5   2   81.61    3.22
   0  -5  -2   77.24    2.64
   0   5  -2   74.92    2.75
   0   5   2   75.33    3.08
   0   5  -2   73.09    2.57
   0  -5   3    1.38    0.95
   0   5  -3    2.66    0.72
   0  -5  -3    2.21    0.50
   0  -5  -3    2.26    0.61
   0   5   3    1.36    0.82
   0   5  -3    1.48    0.51
   0   5   4   36.57    2.40
   0   5  -4   35.14    2.07
   0  -5   4   33.87    2.61
   0  -5  -4   32.75    1.86
   0   5  -4   35.75    1.78
   0   5   4   37.00    1.17
   0  -5   4   35.15    2.63
   0  -5  -4   35.27    1.74
   0   5   5   57.30    3.26
   0  -5  -5   56.16    2.60
   0  -5   5   59.28    3.81
   0  -5  -5   58.41    2.56
   0   5  -5   56.70    2.80
   0  -5   5   56.39    3.61
   0  -5  -6  103.38    3.93
   0   5  -6  105.33    4.22
   0  -5  -6  103.60    4.01
   0  -5   6  114.78    5.69
   0   5   6  110.38    3.57
   0  -5   6  100.58    5.31
   0   5   6  105.97    4.85
   0   5  -7   -1.10    0.92
   0  -5   7    1.68    1.78
   0   5   7    0.13    1.11
   0  -5  -7   -0.26    0.86
   0   5   7   -0.27    0.55
   0  -5  -7   -0.32    0.81
   0  -5   7   -0.23    1.45
   0   5   8   17.95    2.30
   0   5  -8   18.03    2.79
   0   5   8   17.83    1.69
   0  -5   8   16.56    2.61
   0  -5  -8   16.90    2.10
   0   5  -8   17.70    2.09
   0  -5   8   16.15    2.90
   0  -5  -8   17.24    1.86
   0  -5   8   18.25    1.65
   0  -5   9   20.23    3.07
   0  -5   9   20.51    3.37
   0   5   9   19.62    1.99
   0   5  -9   17.61    2.99
   0  -5   9   18.10    1.79
   0   5  -9   23.35    2.36
   0   5   9   21.76    2.58
   0   5   9   23.50    2.18
   0   5  -9   21.88    2.36
   0  -5  -9   20.71    2.51
   0  -5  -9   21.65    2.27
   0  -5 -10   41.84    3.32
   0  -5 -10   37.47    3.49
   0  -5  10   40.82    4.31
   0  -5  10   40.19    4.20
   0   5  10   45.87    3.76
   0   5 -10   40.79    3.31
   0   5 -10   42.82    4.32
   0  -5  10   39.36    2.72
   0   5 -10   44.77    2.93
   0   5  10   44.63    2.62
   0   5  10   42.98    3.06
   0   5 -11    1.16    1.37
   0  -5  11   -2.91    2.27
   0  -5  11    1.13    2.25
   0   5 -11    2.68    0.96
   0  -5  11    2.61    1.11
   0   5 -11    3.88    2.46
   0  -5 -11    1.98    1.33
   0  -5 -11    2.18    1.75
   0   5  11    1.80    0.64
   0   5  11    3.21    1.68
   0   5  11    1.44    1.04
   0   5  12   27.18    2.78
   0  -5 -12   24.56    3.22
   0   5 -12   24.57    3.74
   0   5 -12   24.81    2.76
   0  -5  12   24.60    3.58
   0  -5 -12   26.04    2.99
   0   5  12   31.03    3.36
   0  -5  12   22.41    2.30
   0  -5  12   28.92    4.01
   0  -5  13    7.39    2.34
   0  -5 -13    6.33    1.81
   0   5  13    5.70    1.66
   0  -5 -13    6.55    2.16
   0   5  13    7.22    1.91
   0   5 -13    4.24    1.70
   0  -5  13    5.98    1.50
   0   5 -13    6.89    2.58
   0   5 -14   22.27    3.74
   0  -5 -14   22.23    3.00
   0   5 -14   16.88    2.73
   0  -5 -14   18.77    3.16
   0   5  14   17.90    2.68
   0   5  14   15.43    2.33
   0  -5  14   15.14    2.08
   0  -5  14   18.16    3.41
   0  -5 -15    0.51    1.63
   0  -5  15    3.07    1.33
   0  -5  15    1.40    2.06
   0   5 -15    4.83    2.30
   0  -5 -15    2.49    1.81
   0   5 -15   -1.17    1.47
   0   5  15   -0.68    1.23
   0   5  15    1.09    1.40
   0   5  16   17.44    2.82
   0   5 -16   15.58    2.74
   0  -5 -16   15.34    2.86
   0   5  16   13.98    2.32
   0  -5 -16   20.41    3.50
   0  -5  16   18.13    3.26
   0   5 -16   18.57    3.49
   0  -5  17    3.73    2.34
   0   5  17    0.31    1.20
   0  -5 -17    4.27    2.21
   0  -5 -17    0.44    1.85
   0   5 -17    2.54    1.70
   0   5 -18    0.01    1.75
   0   5  18    1.57    1.55
   0  -5  18   -1.95    2.26
   0  -5 -18   -1.05    2.06
   0   5 -19    0.61    1.79
   0  -5 -19    1.66    2.16
   0   5  19   -1.56    1.38
   0  -5  19    2.80    1.97
   0  -5 -20    6.30    2.25
   0   5  20    5.36    1.98
   0   6   0   35.25    1.95
   0  -6   0   33.17    1.77
   0   6   0   32.85    1.79
   0  -6   0   34.34    1.74
   0  -6   1    9.13    1.07
   0  -6  -1    8.45    0.85
   0   6  -1    9.35    1.03
   0   6  -1    8.79    0.99
   0   6   1    9.60    1.06
   0   6   1    8.41    1.09
   0  -6  -1    9.09    0.55
   0  -6  -1    9.22    0.99
   0  -6  -2   40.51    1.98
   0   6   2   43.84    2.42
   0  -6   2   41.36    2.35
   0   6  -2   37.71    2.02
   0  -6  -2   41.07    1.75
   0   6  -2   40.63    2.00
   0  -6  -3   67.91    2.72
   0   6  -3   70.77    2.73
   0  -6   3   75.02    3.60
   0   6  -3   68.54    2.91
   0   6   3   71.16    3.37
   0  -6  -4   20.31    1.37
   0   6   4   24.47    2.09
   0   6  -4   21.03    1.70
   0  -6  -4   25.13    1.67
   0  -6   4   22.10    2.22
   0   6  -4   21.06    1.45
   0   6  -5    0.31    0.76
   0  -6   5   -0.70    1.27
   0   6   5    0.60    1.01
   0   6   5    0.47    0.22
   0   6  -5   -0.05    0.54
   0  -6  -5    0.76    0.59
   0  -6   5   -0.27    1.33
   0  -6  -5   -0.14    0.48
   0  -6  -6   69.87    3.14
   0   6   6   73.54    4.06
   0  -6  -6   68.26    3.11
   0   6   6   70.27    2.49
   0  -6   6   69.15    4.47
   0   6  -6   67.71    3.41
   0  -6   6   70.90    4.49
   0  -6   7   21.85    2.86
   0   6  -7   30.95    2.48
   0  -6   7   29.59    3.30
   0   6   7   29.80    1.90
   0  -6  -7   29.32    2.24
   0  -6  -7   27.25    2.17
   0   6   7   27.76    2.64
   0  -6   8   15.30    2.79
   0   6   8   12.49    1.42
   0  -6  -8   11.86    1.73
   0   6  -8   14.26    1.93
   0  -6  -8   13.46    1.84
   0  -6   8   13.17    2.51
   0   6   8   12.91    2.11
   0   6   9   13.36    1.64
   0   6   9   12.22    2.15
   0  -6  -9   11.02    1.77
   0  -6   9   14.13    2.83
   0  -6   9   11.10    2.59
   0   6  -9   12.55    2.00
   0  -6  -9   10.03    1.87
   0   6   9   14.23    2.12
   0   6  -9   11.42    1.97
   0   6  10   50.86    3.36
   0   6 -10   47.56    3.57
   0   6  10   61.17    4.41
   0  -6 -10   51.45    3.48
   0  -6  10   52.34    4.69
   0   6 -10   47.88    3.43
   0  -6  10   53.20    5.10
   0   6  10   52.61    3.29
   0  -6 -10   46.42    3.76
   0   6  11   17.21    2.54
   0   6  11   20.24    2.21
   0  -6 -11   16.10    2.58
   0  -6  11   21.36    3.66
   0  -6  11   15.11    3.16
   0   6 -11   18.41    2.03
   0   6 -11   17.55    2.39
   0   6  11   22.21    1.98
   0  -6 -11   19.54    2.51
   0   6  12   10.66    2.19
   0  -6 -12   14.66    2.30
   0   6 -12    9.46    2.01
   0  -6 -12    9.25    2.34
   0   6  12   12.11    1.92
   0  -6  12   19.23    3.46
   0  -6  12   10.34    1.61
   0  -6  12   11.51    2.83
   0   6  13    1.08    1.05
   0  -6  13    2.38    2.15
   0   6  13    2.28    1.79
   0  -6 -13    0.71    1.43
   0  -6  13    2.60    1.17
   0  -6 -13    1.09    1.63
   0   6 -13   -1.01    1.52
   0  -6  13    1.59    1.81
   0   6 -14    0.12    1.40
   0  -6 -14    1.92    1.63
   0  -6  14    0.32    0.84
   0  -6 -14    0.72    1.64
   0   6  14   -0.36    1.66
   0  -6  14   -1.39    2.33
   0   6  14    1.05    1.19
   0  -6 -15    0.81    1.63
   0   6 -15    1.34    1.45
   0   6  15    2.22    1.75
   0  -6  15    2.07    1.88
   0  -6 -15    0.22    1.75
   0   6 -16   17.11    2.94
   0   6  16   19.60    2.96
   0  -6 -16   15.24    2.92
   0  -6  16   15.82    3.11
   0  -6 -16   12.97    2.62
   0  -6 -17    4.95    2.49
   0   6  17    3.40    1.93
   0   6 -17    1.72    1.69
   0  -6  17    2.08    1.87
   0  -6 -17    1.64    1.66
   0  -6 -18    3.91    1.92
   0  -6  18    5.39    2.16
   0   6  18    9.26    2.46
   0  -6 -18    7.12    2.42
   0   6 -18    3.19    2.07
   0  -6  19    0.74    1.46
   0   6  19   -0.29    1.50
   0   6 -19    1.92    1.71
   0  -6 -19    0.04    1.89
   0  -6 -20    1.80    1.75
   0  -7   0    1.13    0.69
   0   7   0    0.64    0.67
   0  -7   0   -0.23    0.63
   0   7   0    1.16    0.77
   0  -7  -1  591.59   10.51
   0   7   1  574.36   12.21
   0  -7  -1  574.73   11.74
   0   7  -1  555.37   12.16
   0   7  -1  573.96   12.28
   0  -7   1  582.93   12.40
   0  -7  -1  577.49   12.10
   0   7   1  575.55   12.73
   0   7   2   68.59    3.34
   0  -7   2   70.56    3.31
   0   7  -2   74.14    3.06
   0  -7  -2   70.24    2.60
   0  -7  -2   71.39    2.91
   0   7  -2   69.45    2.90
   0  -7  -3  123.21    4.10
   0   7  -3  132.64    4.41
   0   7   3  123.31    4.89
   0  -7  -3  122.49    3.66
   0  -7   3  123.39    4.91
   0   7  -3  127.53    4.12
   0  -7  -4   20.89    1.44
   0   7  -4   25.50    1.94
   0   7   4   25.52    2.32
   0  -7  -4   21.36    1.64
   0   7  -4   20.57    1.57
   0  -7   4   23.00    2.32
   0   7   5  504.90   12.72
   0  -7   5  517.08   13.49
   0   7  -5  491.34   11.57
   0  -7  -5  493.60   10.75
   0   7  -5  469.65   10.72
   0  -7  -5  500.64   11.20
   0   7  -6    5.97    1.26
   0   7   6    5.85    0.39
   0  -7  -6    6.08    1.03
   0   7   6    5.61    1.55
   0  -7  -6    5.54    1.17
   0   7  -6    6.19    1.01
   0   7   7   45.14    3.53
   0  -7   7   45.11    3.89
   0  -7  -7   46.93    2.80
   0   7  -7   48.60    3.10
   0   7   7   51.29    2.48
   0  -7  -7   45.18    2.79
   0   7  -7   42.51    2.46
   0  -7   7   42.15    4.08
   0   7   7   43.96    1.78
   0   7   8   36.59    3.26
   0  -7  -8   32.07    2.57
   0   7  -8   35.17    2.84
   0   7   8   32.11    2.14
   0  -7  -8   35.88    2.70
   0  -7   8   35.04    3.94
   0   7   8   33.72    2.01
   0  -7   8   35.02    3.73
   0  -7  -9  180.97    6.67
   0  -7   9  190.37    9.09
   0   7  -9  175.51    6.89
   0  -7  -9  181.03    6.98
   0   7   9  193.38    6.18
   0   7   9  186.20    7.76
   0   7   9  192.87    6.18
   0  -7   9  176.35    8.52
   0   7   9  184.99    7.81
   0   7 -10    4.88    1.49
   0   7  10    3.79    1.14
   0  -7 -10    3.80    1.36
   0  -7 -10    4.19    1.58
   0   7 -10    4.02    1.48
   0  -7  10    1.53    1.74
   0   7  10    3.41    1.17
   0  -7  10    3.04    2.34
   0   7  10    6.46    2.06
   0   7  10    5.07    1.55
   0  -7 -11  119.28    6.33
   0   7  11  126.74    5.58
   0  -7 -11  120.02    5.80
   0   7  11  103.75    4.95
   0   7  11  120.59    6.63
   0   7  11  124.23    5.38
   0   7 -11  117.72    5.86
   0  -7  11  111.74    7.21
   0  -7  11  116.73    7.54
   0   7 -11  115.50    5.52
   0  -7 -12    7.17    1.85
   0   7  12    9.36    2.27
   0  -7  12    8.02    2.59
   0   7  12    7.45    1.54
   0   7 -12    5.70    1.71
   0  -7  12    5.82    2.63
   0  -7 -12    5.81    1.91
   0  -7  13    2.17    1.97
   0  -7  13    2.04    1.93
   0  -7 -13    1.68    1.55
   0   7  13    3.77    1.88
   0  -7 -13    4.01    1.73
   0   7  13    4.32    1.36
   0   7 -13    4.72    1.68
   0  -7  14    9.58    2.80
   0  -7 -14    7.00    2.18
   0   7  14   10.28    2.52
   0   7 -14    5.85    2.00
   0  -7 -14    7.69    2.07
   0   7  15   63.06    5.25
   0  -7 -15   58.70    4.92
   0   7 -15   57.15    4.74
   0  -7  15   76.59    6.41
   0  -7 -15   59.23    5.23
   0   7 -16    0.75    1.70
   0  -7 -16   -0.25    1.28
   0   7  16    0.98    1.50
   0  -7 -16    4.20    2.29
   0  -7  16   -1.02    2.41
   0   7 -17    5.99    2.10
   0  -7  17    3.20    2.06
   0  -7 -17    5.93    2.22
   0  -7 -17    7.76    2.51
   0   7  17    6.35    2.21
   0  -7 -18   -0.27    1.76
   0  -7 -18    0.91    1.85
   0  -7  18    6.30    2.29
   0   7 -18    5.40    1.93
   0   7  18    4.74    2.06
   0   7 -19    8.04    2.47
   0   7  19    8.10    2.21
   0  -7 -19    5.32    2.52
   0  -7 -19    8.70    2.74
   0  -8   0   -0.50    0.71
   0  -8   0   -0.27    0.64
   0   8   0    0.81    0.75
   0   8   0    0.57    0.77
   0   8   1    0.20    0.82
   0  -8  -1    0.13    0.25
   0  -8   1   -0.06    0.75
   0   8  -1    1.21    0.77
   0  -8  -1   -0.11    0.71
   0   8  -1   -0.89    0.74
   0  -8  -1    0.76    0.66
   0   8  -2    0.29    0.63
   0  -8   2    0.51    0.86
   0   8  -2    0.41    0.67
   0  -8  -2    0.71    0.49
   0  -8  -2    1.08    0.73
   0   8   2    0.76    0.92
   0   8  -3    5.07    1.01
   0  -8  -3    4.21    0.74
   0  -8   3    5.39    1.39
   0   8   3    5.28    1.32
   0  -8  -3    4.66    0.97
   0   8  -3    6.09    0.98
   0   8  -4    1.87    0.76
   0  -8  -4    1.90    0.69
   0   8   4    0.39    1.16
   0  -8  -4    1.08    0.70
   0   8  -4    3.57    1.15
   0  -8   4    0.63    1.32
   0   8   5    5.07    1.47
   0  -8  -5    5.40    0.97
   0   8  -5    3.62    1.19
   0  -8  -5    4.56    1.10
   0   8  -5    3.21    0.88
   0  -8   5    4.53    1.62
   0   8   6    5.80    1.78
   0   8  -6    4.74    1.32
   0  -8  -6    5.42    1.05
   0   8  -6    2.96    0.88
   0  -8  -6    4.23    1.17
   0  -8   6    8.18    2.30
   0   8  -7    0.15    1.10
   0   8   7    0.06    1.48
   0  -8  -7   -0.32    0.79
   0  -8  -7    1.23    0.95
   0  -8   7   -2.30    2.29
   0   8  -7    0.20    0.63
   0  -8   8    9.21    2.54
   0  -8  -8   10.32    1.67
   0   8   8    9.41    0.71
   0   8  -8    9.88    1.77
   0  -8  -8    6.91    1.37
   0   8  -8    8.38    1.31
   0   8   8    9.84    1.27
   0   8   8    9.40    2.14
   0  -8  -9    9.89    1.74
   0   8  -9    8.55    1.32
   0  -8  -9    7.82    1.54
   0   8   9   10.86    2.30
   0  -8   9    8.47    2.56
   0  -8   9    6.56    2.18
   0   8  -9    8.78    1.79
   0   8   9    9.11    1.29
   0   8  10    2.14    1.56
   0  -8  10   -2.79    2.36
   0   8  10    3.79    1.48
   0   8  10    1.61    0.89
   0   8 -10    0.05    1.18
   0  -8 -10    1.10    1.21
   0   8 -10    2.65    1.25
   0  -8 -10    2.57    1.23
   0  -8  10    3.56    2.06
   0   8 -10    1.39    0.74
   0   8 -11    4.15    1.60
   0  -8 -11    2.37    1.40
   0  -8  11    1.29    2.20
   0   8  11    1.85    0.94
   0  -8  11    2.83    1.78
   0  -8 -11    3.47    1.56
   0   8 -11    1.26    1.09
   0   8  11    4.26    1.85
   0   8  11    3.52    1.32
   0  -8  12    3.06    2.21
   0  -8 -12    7.56    2.07
   0   8  12    5.46    1.98
   0  -8  12    6.58    2.54
   0   8 -12    4.93    1.76
   0  -8 -12    3.58    1.60
   0   8  12    5.39    1.37
   0  -8  13    0.87    2.43
   0   8  13    3.91    1.72
   0   8 -13    1.27    1.44
   0  -8 -13    2.98    1.46
   0  -8 -13    3.55    1.53
   0  -8  13    2.05    1.96
   0  -8 -14    2.31    1.69
   0  -8  14    1.20    2.32
   0  -8  14    2.44    1.92
   0  -8 -14    0.79    1.54
   0   8  14    5.63    2.13
   0   8 -14    1.84    1.34
   0   8  15    4.97    2.01
   0   8 -15    4.86    1.98
   0  -8 -15    3.17    1.71
   0  -8 -15    6.64    2.16
   0  -8  15    3.80    2.56
   0  -8 -16    5.21    2.13
   0   8 -16    7.15    2.29
   0   8  16    4.21    1.85
   0  -8  16    3.36    1.96
   0  -8 -16    6.14    2.15
   0  -8 -17    0.28    1.43
   0  -8  17   -0.25    2.13
   0  -8 -17    0.37    1.78
   0   8 -17    0.44    1.76
   0   8  17    3.06    1.79
   0   8 -18   -1.17    1.89
   0  -8 -18   -0.87    1.98
   0   8  18    2.96    2.16
   0   9   0    0.04    0.91
   0  -9   0   -0.16    0.74
   0   9   0   -0.72    0.81
   0  -9   0   -0.19    0.73
   0  -9   0    0.54    0.55
   0  -9  -1   11.06    1.30
   0   9  -1   11.01    1.40
   0  -9  -1   11.73    0.70
   0  -9  -1   12.54    1.46
   0  -9   1   13.36    1.54
   0   9  -1   10.89    1.47
   0  -9   1   12.24    1.52
   0   9   1   10.95    1.62
   0  -9  -2   23.90    1.94
   0  -9  -2   21.28    1.59
   0  -9   2   19.75    2.03
   0   9  -2   21.71    1.92
   0   9   2   24.41    2.29
   0   9  -2   22.51    1.91
   0  -9  -3    5.81    0.91
   0   9  -3    6.70    1.21
   0   9   3    6.61    1.56
   0  -9  -3    6.81    1.23
   0   9  -3    6.33    1.27
   0  -9   3    6.36    1.59
   0  -9  -4   -0.54    0.64
   0  -9   4    1.37    1.27
   0   9  -4    0.04    0.99
   0   9  -4    0.10    0.80
   0   9   4    0.42    1.22
   0  -9  -4    0.61    0.85
   0  -9  -4    0.29    0.61
   0  -9  -5   13.94    1.65
   0   9  -5   14.75    1.60
   0   9  -5   16.37    1.89
   0  -9  -5   13.40    1.37
   0  -9   5   12.82    2.23
   0   9   5   13.30    2.13
   0   9   6   22.25    2.62
   0  -9  -6   26.36    2.24
   0   9  -6   27.41    2.41
   0  -9  -6   26.65    1.98
   0  -9   6   32.43    3.46
   0   9  -6   23.91    1.96
   0   9  -7    6.30    1.61
   0   9  -7    4.83    1.05
   0  -9  -7    5.78    1.33
   0  -9  -7    5.20    1.16
   0  -9   7    8.31    2.60
   0   9   7    2.64    1.59
   0  -9  -8    0.47    0.86
   0   9  -8    1.04    0.79
   0  -9   8    0.87    1.86
   0   9   8    0.64    0.63
   0  -9  -8    1.14    0.94
   0   9  -8    2.03    1.33
   0  -9  -9    8.81    1.62
   0  -9   9   10.02    2.57
   0   9  -9   10.43    1.83
   0   9  -9    7.90    1.30
   0   9   9   10.15    1.35
   0   9   9   11.49    2.28
   0  -9  -9    7.04    1.53
   0   9 -10   12.04    1.62
   0  -9 -10   14.71    2.11
   0   9  10   14.22    1.69
   0   9 -10   12.47    2.30
   0   9  10   13.16    2.53
   0   9 -10   14.18    2.09
   0  -9  10   15.13    2.99
   0   9  10   14.98    2.73
   0  -9 -10   15.86    2.24
   0   9 -11    0.15    0.80
   0   9  11    0.01    1.17
   0   9  11    1.19    0.87
   0  -9 -11    0.90    1.09
   0  -9  11    1.82    1.97
   0   9 -11    2.95    1.54
   0  -9 -11    0.63    1.19
   0   9 -11    0.81    1.25
   0   9  11   -0.81    1.84
   0   9 -12    7.08    1.79
   0  -9 -12    4.72    1.61
   0   9 -12    5.17    1.20
   0  -9 -12    7.38    1.95
   0   9  12    9.09    2.56
   0  -9  12    6.46    2.77
   0  -9  13    8.13    2.97
   0  -9 -13    6.54    1.91
   0   9 -13    5.91    1.63
   0  -9 -13    4.50    1.64
   0   9  13    7.28    2.39
   0  -9  14    4.87    2.34
   0   9 -14    2.91    1.67
   0  -9 -14    2.85    1.93
   0  -9 -14    5.99    1.89
   0   9  14    4.92    2.18
   0   9  15    0.27    1.34
   0   9 -15    0.24    1.60
   0  -9 -15   -1.28    1.79
   0  -9 -15    0.07    1.49
   0   9  16    5.19    2.09
   0   9 -16    6.66    2.21
   0  -9 -16    6.46    2.23
   0  -9 -17    3.37    1.97
   0   9 -17    4.34    1.94
   0   9  17    6.66    2.46
   0   9 -18    1.99    1.95
   0  -9 -18   -1.37    1.76
   0  10   0  227.91    7.28
   0  10   0  209.66    6.62
   0 -10   0  215.92    6.57
   0 -10   0  216.78    5.46
   0 -10   0  213.48    6.55
   0 -10  -1  151.36    5.22
   0  10  -1  144.88    5.28
   0  10  -1  155.24    5.68
   0 -10   1  145.44    5.42
   0 -10  -1  151.20    3.31
   0 -10  -1  150.04    5.07
   0  10   1  145.10    5.88
   0 -10   1  144.19    5.24
   0  10  -2    5.16    1.20
   0  10   2    6.60    1.63
   0 -10   2    7.11    1.48
   0  10  -2    6.81    1.27
   0 -10  -2    4.63    1.01
   0 -10  -2    6.67    1.37
   0  10  -3  197.73    6.67
   0 -10  -3  211.00    6.52
   0 -10  -3  202.31    5.89
   0  10   3  225.80    7.85
   0  10  -3  206.32    6.65
   0 -10   3  201.83    7.28
   0  10   4   82.91    4.71
   0 -10  -4   76.59    3.25
   0 -10  -4   81.72    3.41
   0 -10   4   80.66    4.59
   0 -10  -4   83.45    3.85
   0  10  -4   83.11    4.07
   0  10  -4   79.36    3.78
   0  10  -5    0.31    0.87
   0 -10  -5    1.15    0.99
   0  10   5   -0.38    1.34
   0  10  -5    0.00    1.02
   0 -10  -5   -0.32    0.67
   0 -10  -5    0.10    0.67
   0 -10   5   -1.07    1.69
   0  10   6   70.71    4.65
   0  10  -6   60.55    3.24
   0 -10  -6   63.04    3.18
   0  10  -6   58.45    3.58
   0 -10  -6   65.59    3.57
   0 -10   6   62.06    4.61
   0  10  -7  140.01    5.90
   0  10   7  140.74    6.90
   0 -10   7  148.38    7.46
   0 -10  -7  141.16    5.29
   0 -10  -7  152.01    5.82
   0  10  -7  137.66    5.22
   0 -10  -8   10.59    1.72
   0 -10  -8   11.52    1.66
   0  10  -8    7.38    1.62
   0  10  -8    9.00    1.40
   0 -10   8    9.76    2.60
   0  10   8    8.95    2.12
   0 -10  -9   42.04    3.21
   0 -10  -9   42.00    3.15
   0  10   9   43.48    2.69
   0 -10   9   40.57    4.36
   0  10  -9   37.52    3.24
   0  10  -9   30.83    2.48
   0  10   9   38.13    4.41
   0  10   9   38.17    3.80
   0 -10  10   37.78    4.47
   0  10 -10   33.58    3.14
   0  10 -10   34.17    2.62
   0 -10 -10   38.49    3.28
   0  10  10   33.83    3.88
   0 -10 -10   37.16    3.25
   0  10 -10   32.54    3.70
   0  10  10   39.67    3.87
   0 -10 -11   13.03    2.21
   0  10 -11   11.69    2.16
   0  10  11   11.79    2.58
   0 -10  11   13.80    3.42
   0  10  11   17.98    2.74
   0 -10 -11   12.11    2.15
   0  10 -11   11.27    2.06
   0 -10 -12    1.10    1.33
   0  10 -12    1.86    1.36
   0 -10 -12    2.44    1.53
   0  10  12   -0.93    2.10
   0 -10  12    3.43    2.06
   0 -10 -13   47.98    4.12
   0 -10 -13   42.25    4.14
   0  10  13   48.38    4.84
   0 -10  13   49.90    5.49
   0  10 -13   41.18    3.89
   0 -10 -14    5.86    1.79
   0  10  14   12.82    2.77
   0  10 -14    8.13    2.23
   0 -10 -14    7.24    2.31
   0 -10  14   10.09    3.08
   0 -10  15   -1.09    2.32
   0  10  15    0.13    1.80
   0 -10 -15    3.74    1.93
   0  10 -15   -2.02    1.74
   0  10 -16    2.55    1.88
   0  10  16   -2.73    2.15
   0 -10 -16   -0.51    1.47
   0  10  17    9.05    2.59
   0  10 -17    5.22    2.00
   0 -10 -17    9.21    2.60
   0 -11   0   -0.97    0.99
   0  11   0   -0.17    1.19
   0 -11   0    0.90    1.04
   0 -11   0    0.24    0.44
   0  11   0   -0.62    1.15
   0 -11   1    8.08    1.51
   0 -11   1    7.82    1.40
   0 -11   1    5.99    1.17
   0  11  -1    5.49    1.27
   0 -11  -1    6.32    1.36
   0  11  -1    9.39    1.66
   0  11   1    7.85    1.75
   0 -11  -1    8.45    1.37
   0 -11  -2   53.06    3.15
   0  11   2   55.10    3.75
   0  11  -2   55.90    3.42
   0  11  -2   56.35    3.31
   0 -11  -2   51.61    2.85
   0 -11   2   52.44    3.25
   0 -11   2   52.59    3.46
   0 -11  -3    0.00    0.77
   0 -11   3    1.79    1.32
   0  11  -3    0.72    1.02
   0  11  -3   -0.03    0.98
   0  11   3    0.55    1.35
   0 -11  -3    0.44    1.08
   0 -11  -4   26.89    2.30
   0 -11   4   28.96    2.97
   0 -11  -4   26.47    1.96
   0  11  -4   26.16    2.48
   0  11   4   28.95    2.99
   0 -11  -4   26.83    1.98
   0  11  -4   25.51    2.23
   0 -11  -5    7.86    1.16
   0  11   5    5.91    1.86
   0 -11   5    7.60    1.92
   0 -11  -5    7.76    1.42
   0  11  -5    6.78    1.27
   0  11  -5    9.19    1.58
   0 -11  -5    7.61    1.14
   0 -11  -6   10.57    1.60
   0 -11  -6   14.48    1.60
   0  11  -6   12.99    1.68
   0  11   6   16.35    2.56
   0  11  -6   13.56    1.97
   0 -11  -6   13.69    1.42
   0 -11   6   12.03    2.32
   0  11  -7   13.26    1.98
   0 -11  -7   15.36    1.97
   0 -11  -7   14.19    1.69
   0 -11   7   14.20    2.76
   0  11  -7   13.80    1.71
   0 -11  -7   12.04    1.39
   0  11   7   13.32    2.40
   0 -11  -8   54.11    3.61
   0  11   8   45.54    4.12
   0  11  -8   46.07    3.56
   0 -11   8   51.03    4.64
   0 -11  -8   48.47    3.20
   0  11  -8   42.83    2.91
   0 -11  -9   -0.25    1.19
   0  11   9    0.57    1.26
   0  11  -9   -2.20    1.40
   0  11  -9    0.44    0.82
   0  11   9   -2.21    2.17
   0 -11   9   -2.56    1.92
   0 -11  -9    0.13    0.93
   0 -11  10    1.04    1.69
   0  11  10    1.19    1.45
   0  11  10    2.85    1.98
   0  11 -10    0.73    1.65
   0 -11 -10    3.59    1.57
   0  11 -10    0.79    1.36
   0 -11 -10    0.27    0.92
   0 -11  11   10.38    2.78
   0 -11 -11   11.99    2.15
   0  11  11   12.44    2.55
   0 -11 -11   11.93    2.26
   0  11 -11   12.37    2.17
   0  11 -11    7.78    1.93
   0 -11  12   19.64    3.85
   0  11  12   17.60    3.25
   0 -11 -12   15.09    2.51
   0  11 -12   17.86    2.65
   0 -11  13    8.43    2.62
   0  11  13    7.38    2.56
   0 -11 -13    5.38    1.92
   0  11 -13    4.96    1.88
   0  11  14    4.71    2.09
   0 -11  14    4.27    2.59
   0  11 -14    4.12    1.84
   0 -11 -14   -0.35    1.48
   0  11 -15    2.18    1.76
   0 -11 -15    1.06    1.69
   0  11  15   -1.72    1.78
   0 -11  15    0.15    2.17
   0 -11 -16    2.67    2.19
   0  11 -16   -0.06    1.34
   0  11  16   -1.93    1.97
   0 -11 -17    6.18    2.32
   0  11 -17    2.77    1.75
   0 -12   0    5.38    1.31
   0  12   0    7.94    1.81
   0 -12   0    7.58    1.36
   0 -12  -1    3.50    1.20
   0 -12   1    0.38    1.03
   0 -12   1    3.59    1.26
   0  12  -1    4.37    1.42
   0  12  -1    2.34    1.28
   0 -12   1    3.57    0.87
   0  12   1    4.42    1.46
   0 -12  -1    6.13    1.35
   0 -12  -2    1.46    1.05
   0 -12   2    0.79    1.13
   0 -12   2    2.38    0.99
   0  12  -2    3.31    1.22
   0  12   2    1.14    1.33
   0 -12  -2    0.76    0.79
   0 -12   2    1.63    1.16
   0  12  -2    1.63    1.14
   0 -12  -3   53.90    3.30
   0 -12  -3   54.36    3.02
   0  12  -3   56.34    3.59
   0 -12   3   47.02    3.58
   0  12   3   56.11    4.13
   0  12  -3   52.79    3.42
   0 -12  -4    6.24    1.14
   0 -12  -4    6.96    1.42
   0  12  -4    7.21    1.48
   0 -12  -4    6.61    1.13
   0 -12   4    4.75    1.72
   0  12   4    5.29    1.78
   0  12  -4    6.55    1.55
   0 -12  -5    4.67    1.00
   0 -12  -5    5.29    1.10
   0  12  -5    3.49    1.38
   0 -12  -5    4.87    1.26
   0 -12   5    5.25    1.68
   0  12   5    3.55    1.71
   0  12  -5    3.63    1.10
   0 -12  -6    4.76    1.12
   0  12  -6    5.80    1.46
   0 -12  -6    6.61    1.58
   0 -12   6    4.21    1.98
   0  12   6    4.42    1.79
   0  12  -6    4.05    1.14
   0 -12  -6    3.47    0.96
   0  12   7   32.90    3.54
   0 -12  -7   27.24    2.32
   0  12  -7   24.94    2.34
   0 -12  -7   31.74    2.82
   0  12  -7   31.81    2.90
   0 -12   7   29.28    3.62
   0 -12  -7   29.15    2.19
   0  12  -8    1.73    0.95
   0 -12   8    0.23    1.68
   0  12  -8    2.06    1.35
   0  12   8    2.26    1.62
   0 -12  -8    0.03    0.62
   0 -12  -8    0.62    1.03
   0 -12  -8    0.90    0.95
   0 -12   9    1.48    1.98
   0 -12  -9    2.56    1.33
   0 -12  -9    0.93    0.96
   0  12  -9   -0.86    1.90
   0  12   9   -0.38    2.04
   0  12  -9    0.61    1.29
   0  12   9    0.49    1.49
   0  12  10    5.22    1.93
   0  12  10    3.29    1.81
   0  12 -10    4.59    1.67
   0  12 -10    4.66    1.80
   0 -12 -10    2.19    1.27
   0 -12  10    4.27    2.37
   0 -12  11   25.77    3.95
   0  12 -11   20.71    2.78
   0  12 -11   26.63    3.57
   0  12  11   24.70    3.51
   0 -12 -11   26.81    3.05
   0 -12 -12    0.36    1.44
   0  12 -12   -0.41    1.53
   0 -12  12    1.22    2.08
   0  12  12    0.56    1.72
   0  12 -13    0.76    1.30
   0 -12 -13   -0.87    1.20
   0  12  13   -1.04    1.60
   0 -12  13    0.18    2.38
   0  12 -14   -1.31    1.56
   0  12  14   -1.84    2.11
   0 -12 -14   -1.70    1.91
   0 -12 -15    4.10    1.83
   0 -12  15    5.86    2.91
   0  12  15    8.61    2.67
   0  12 -15    5.97    2.22
   0  12 -16    0.43    1.45
   0 -12 -16    0.41    1.62
   0 -13   0   -0.55    1.01
   0 -13   0   -1.04    1.19
   0  13   0    1.82    1.39
   0 -13  -1    8.30    1.46
   0 -13   1    6.49    1.47
   0  13   1    5.74    1.64
   0 -13  -1    4.40    1.30
   0 -13   1    4.02    1.29
   0  13  -1    6.86    1.65
   0  13  -1    5.51    1.55
   0 -13  -2   21.20    2.04
   0 -13   2   22.46    2.33
   0 -13  -2   23.91    2.30
   0  13  -2   22.06    2.53
   0  13   2   22.32    2.81
   0 -13   2   21.52    2.48
   0  13  -2   22.73    2.44
   0 -13  -3    2.56    1.26
   0  13   3    1.00    1.39
   0  13  -3    0.76    1.19
   0  13  -3    1.14    1.11
   0 -13   3   -0.06    1.14
   0 -13  -3    0.07    0.77
   0 -13   3    1.18    1.34
   0  13  -4   11.05    1.77
   0 -13  -4   10.60    1.39
   0 -13   4   11.77    2.26
   0 -13  -4   12.82    1.62
   0  13   4    8.75    2.04
   0  13  -4   10.93    1.82
   0 -13  -4   10.48    1.72
   0  13   5    8.13    2.14
   0 -13  -5    9.64    1.35
   0 -13  -5    6.31    1.23
   0  13  -5    9.99    1.68
   0  13  -5    8.50    1.86
   0 -13  -5    7.34    1.62
   0 -13   5    9.07    2.11
   0 -13  -6    4.70    1.08
   0  13  -6    4.82    1.48
   0 -13  -6    3.02    0.94
   0 -13  -6    4.08    1.35
   0  13  -6    4.27    1.24
   0  13   6    2.94    1.67
   0 -13   6    3.05    1.59
   0 -13   7   10.58    2.35
   0  13   7   14.41    2.77
   0  13  -7    9.58    2.02
   0  13  -7    9.23    1.56
   0 -13  -7   10.15    1.82
   0 -13  -8   24.57    2.67
   0  13   8   24.16    4.29
   0 -13   8   20.46    3.19
   0  13  -8   19.60    2.56
   0  13   8   22.72    3.20
   0 -13  -9    1.84    1.44
   0 -13   9    0.80    1.54
   0  13   9    0.25    1.63
   0  13  -9    1.87    1.51
   0  13  -9   -2.11    2.17
   0  13   9    1.09    2.09
   0  13  10    2.47    2.07
   0 -13 -10   -1.23    1.43
   0  13 -10    0.32    1.35
   0  13  10    2.83    2.33
   0 -13  10   -0.65    2.37
   0  13 -10    1.17    1.95
   0  13  11   11.67    2.76
   0  13 -11   11.46    2.39
   0 -13  11   10.41    3.10
   0 -13 -11   12.68    2.41
   0  13  12    7.18    2.23
   0  13 -12    5.01    1.80
   0 -13  12    6.67    2.52
   0 -13 -12    4.23    1.70
   0 -13 -13    3.53    1.82
   0  13  13    0.28    2.17
   0 -13  13    0.62    2.23
   0  13 -13    3.05    1.55
   0  13 -14    3.02    1.53
   0  13  14    4.04    2.25
   0 -13  14    0.12    1.75
   0 -13 -14    1.84    1.79
   0 -13 -15    1.51    1.44
   0  13 -15    0.53    1.36
   0  14   0  140.29    6.82
   0 -14   0  123.84    5.62
   0 -14   0  131.66    5.93
   0 -14  -1   19.85    2.18
   0  14   1   21.56    2.93
   0 -14   1   19.29    2.43
   0 -14   1   18.16    2.27
   0  14  -1   18.06    2.35
   0 -14  -1   18.62    2.27
   0  14  -1   19.39    2.59
   0  14  -2    6.38    1.69
   0  14   2    3.64    1.77
   0 -14   2    6.99    1.74
   0  14  -2    8.78    1.76
   0 -14  -2    5.47    1.47
   0 -14   2    9.62    1.94
   0 -14  -2    7.07    1.44
   0  14  -3   35.98    3.16
   0 -14   3   39.69    3.27
   0  14   3   46.17    4.16
   0 -14   3   37.07    3.49
   0  14  -3   42.53    3.49
   0 -14  -3   36.06    3.02
   0 -14  -3   39.44    2.89
   0 -14  -4   72.62    4.30
   0 -14  -4   73.60    3.90
   0  14   4   85.71    5.70
   0  14  -4   69.69    4.39
   0  14  -4   72.17    4.50
   0 -14   4   74.20    5.04
   0 -14  -4   76.98    3.76
   0 -14   4   81.05    4.73
   0  14  -5   -1.22    1.13
   0 -14  -5    0.24    0.92
   0  14  -5    1.07    1.37
   0  14   5    2.90    2.01
   0 -14   5    1.11    1.63
   0 -14   6   40.10    4.12
   0  14   6   36.09    3.96
   0  14  -6   41.95    3.55
   0 -14  -6   40.49    3.30
   0 -14  -7   22.47    2.67
   0  14  -7   18.64    2.55
   0 -14   7   21.29    3.36
   0  14   7   28.49    3.66
   0 -14   8    9.51    2.64
   0  14   8   10.28    2.69
   0  14   8   16.87    4.11
   0  14  -8    7.82    2.73
   0  14  -8   14.54    2.44
   0 -14  -8   12.83    2.09
   0  14   9   14.15    2.83
   0 -14  -9   10.70    1.99
   0 -14   9   16.62    3.17
   0  14  -9    6.26    1.80
   0  14  -9   12.64    3.15
   0  14   9   13.07    3.39
   0  14 -10   35.67    3.51
   0 -14  10   39.47    4.62
   0 -14 -10   40.10    3.65
   0  14  10   42.92    5.28
   0  14  10   37.85    4.41
   0  14 -10   38.14    4.64
   0 -14 -11    1.58    1.52
   0 -14  11    0.05    2.29
   0  14 -11    0.67    1.46
   0  14  11    5.61    2.34
   0 -14 -12    0.67    1.52
   0 -14  12    0.12    1.93
   0  14 -12    0.51    1.40
   0  14  12    0.15    1.81
   0  14 -13    1.56    1.72
   0 -14  13    6.76    2.82
   0  14  13    7.81    2.83
   0 -14 -13    7.44    1.96
   0  14 -14    5.55    2.02
   0 -14 -14   14.23    2.91
   0  15   0    0.81    1.46
   0 -15   0    0.86    1.04
   0 -15   0    1.23    1.02
   0 -15   1    8.22    1.73
   0 -15   1    7.70    1.82
   0  15  -1    8.60    2.00
   0 -15  -1    6.16    1.43
   0 -15  -1    8.06    1.69
   0  15   1    6.37    2.01
   0 -15  -2   -0.11    0.88
   0 -15   2    2.04    1.35
   0 -15  -2   -0.01    0.85
   0  15  -2   -1.17    1.41
   0  15   2    0.58    1.34
   0  15  -2    0.09    1.19
   0 -15   2    1.97    1.42
   0  15   3    3.82    1.76
   0  15  -3    0.24    1.22
   0 -15   3    5.35    1.86
   0 -15   3    1.30    1.30
   0 -15  -3    2.65    1.29
   0  15  -3   -1.98    1.48
   0 -15   4    0.84    1.60
   0 -15   4   -1.08    1.15
   0  15  -4    1.84    1.19
   0  15  -4   -0.44    1.50
   0 -15  -4    0.34    1.15
   0  15   4    0.05    1.60
   0  15  -5   14.53    2.34
   0 -15  -5   19.34    2.44
   0 -15   5   13.24    2.62
   0  15   5   13.27    2.68
   0 -15   5   13.39    2.24
   0  15  -6   -0.52    1.26
   0 -15  -6   -0.23    1.36
   0 -15   6    3.78    2.10
   0  15   6    1.03    1.66
   0  15   7    0.89    2.35
   0 -15  -7   -0.12    1.27
   0  15  -7    0.54    1.15
   0  15   7    0.30    1.91
   0  15  -7   -1.88    2.66
   0 -15   7    0.57    1.95
   0  15   8    1.84    1.42
   0 -15  -8    3.28    1.59
   0  15   8    3.92    3.09
   0 -15   8    4.53    2.23
   0  15  -8    2.68    1.55
   0  15  -8   -3.18    1.84
   0  15   9    3.88    2.23
   0  15  -9    0.28    2.28
   0  15   9    9.25    3.32
   0  15  -9    4.23    1.88
   0 -15  -9    7.40    2.02
   0 -15   9   11.65    3.00
   0  15 -10    1.02    1.54
   0  15  10   -0.98    1.89
   0  15 -10    4.09    2.21
   0  15  10   -1.30    2.49
   0 -15  10    1.26    2.31
   0 -15 -10    2.92    1.70
   0 -15  11    1.90    1.81
   0  15  11    0.25    2.04
   0 -15 -11    0.55    1.37
   0  15 -11   -0.02    1.18
   0 -15  12   -1.70    2.35
   0 -15 -12   -2.44    1.78
   0 -15  12    5.47    2.88
   0  15 -12   -0.36    1.63
   0  15  12    0.49    1.83
   0 -15  13    0.43    2.28
   0 -15 -13    4.18    1.96
   0  15 -13    0.32    1.36
   0  16   0    5.21    2.06
   0 -16   0    5.62    1.57
   0 -16   1    1.33    1.21
   0 -16  -1    0.16    1.26
   0  16  -1    0.74    1.19
   0  16   1    0.80    1.44
   0 -16   1   -0.72    1.27
   0  16   2   -1.09    1.72
   0  16  -2    3.49    1.64
   0 -16   2   -0.15    1.11
   0 -16  -2    0.27    1.24
   0 -16   2   -1.05    1.25
   0  16   3   -0.68    1.59
   0  16  -3    0.00    1.25
   0 -16   3    0.33    1.36
   0 -16   3    0.19    1.39
   0 -16  -3   -0.43    1.10
   0 -16   4    2.04    1.63
   0 -16   4    1.52    1.38
   0  16  -4    1.27    1.33
   0 -16  -4    0.29    1.09
   0  16   4    2.82    1.92
   0  16   5    1.14    1.92
   0 -16   5    2.14    1.57
   0  16  -5    0.63    1.48
   0 -16   5    2.37    1.68
   0 -16  -5    1.25    1.06
   0 -16   6   -1.32    1.58
   0 -16   6    3.19    1.82
   0  16  -6    4.93    3.24
   0  16  -6   -1.43    1.57
   0 -16  -6    2.13    1.17
   0  16   6    1.99    2.51
   0  16   6    1.57    1.75
   0 -16   7    1.90    1.91
   0  16  -7    1.07    1.38
   0  16  -7    0.83    2.14
   0  16   7    1.58    3.28
   0 -16  -7    0.99    1.29
   0  16   7    6.41    2.51
   0  16  -8    1.19    1.29
   0 -16  -8    0.58    1.36
   0  16   8    1.44    2.51
   0  16   8    1.52    1.98
   0  16  -8    2.72    2.25
   0 -16   8   -2.34    2.02
   0  16   9   -3.57    3.07
   0  16  -9   -0.24    1.22
   0 -16   9    3.00    2.29
   0  16   9    1.36    1.88
   0 -16  -9    1.15    1.52
   0  16  10   -0.46    1.95
   0  16  10   -1.00    2.36
   0 -16  10   -2.70    2.00
   0  16 -10   -0.49    1.97
   0 -16 -10    0.58    1.39
   0  16 -10   -0.27    1.29
   0 -16 -11   -0.54    1.35
   0 -16  11    0.46    2.20
   0  16 -11    0.60    1.57
   0  16 -12   -1.68    1.66
   0 -16 -12   -1.20    1.72
   0  17   0    4.23    1.91
   0 -17   0   -2.06    1.52
   0 -17  -1   29.69    3.14
   0 -17   1   26.79    3.02
   0  17  -1   28.37    3.52
   0  17   1   29.99    3.82
   0 -17   2   25.88    2.96
   0 -17  -2   27.44    2.99
   0  17   2   27.93    3.80
   0  17   3    7.84    3.42
   0 -17  -3    8.08    1.97
   0  17  -3    8.10    2.17
   0  17   3    7.02    2.17
   0 -17   3    6.50    1.76
   0 -17   3    5.79    1.77
   0  17  -4    3.64    3.31
   0 -17  -4    1.26    1.07
   0  17   4    4.85    3.38
   0 -17   4    6.04    2.08
   0  17  -4    7.02    1.93
   0 -17   4    6.84    1.88
   0  17   4    5.73    2.37
   0 -17  -5   29.98    3.15
   0  17  -5   23.24    4.63
   0 -17   5   27.31    3.66
   0  17   5   32.23    4.28
   0  17   5   27.52    5.35
   0  17  -5   30.32    3.35
   0 -17   5   27.00    3.25
   0  17  -6    6.07    2.01
   0  17   6   -3.38    3.33
   0 -17  -6    2.18    1.47
   0  17  -6    1.39    2.00
   0  17   6    4.72    2.08
   0 -17   6    7.78    2.34
   0 -17   6    9.66    2.18
   0 -17  -7    2.94    1.56
   0  17   7    2.10    2.74
   0  17  -7    1.99    1.40
   0 -17   7    3.42    1.91
   0  17  -7   -1.39    2.34
   0 -17   7    0.58    1.98
   0  17   7    3.10    2.16
   0  17   8   10.14    2.63
   0 -17   8   10.88    2.59
   0  17  -8    7.43    3.15
   0 -17  -8   11.20    2.15
   0  17   8   14.37    3.85
   0  17  -8    9.83    2.11
   0 -17  -9    9.24    2.14
   0  17   9    8.50    3.02
   0 -17   9   10.34    2.85
   0  17  -9    8.00    2.03
   0  17  -9    7.91    2.84
   0  17   9   13.63    3.21
   0 -17 -10    2.79    1.61
   0  17 -10    1.32    1.59
   0 -17  10    1.12    1.89
   0  17 -10    2.65    1.89
   0  18   0   -2.40    3.68
   0 -18   0   -0.25    1.41
   0 -18   1    3.03    1.53
   0 -18  -1    0.80    1.35
   0  18   1    1.64    2.67
   0  18  -1   -1.68    2.87
   0  18   1   -2.60    2.06
   0 -18  -2    1.63    1.34
   0  18   2   -1.85    1.85
   0 -18   2    0.03    1.42
   0  18   3    6.75    3.68
   0 -18  -3   -1.74    1.57
   0 -18   3    3.16    1.58
   0  18  -3    2.52    3.30
   0  18   3   -0.26    1.97
   0 -18  -4   -0.51    1.22
   0  18  -4    1.25    2.45
   0  18   4    1.38    2.57
   0  18  -4    2.71    1.63
   0 -18   4    1.18    1.59
   0  18   4    0.98    1.71
   0  18  -5    3.94    2.65
   0  18   5   -5.70    3.10
   0 -18   5    0.80    1.34
   0  18   5   -3.26    2.01
   0  18  -5    1.80    1.52
   0 -18  -5    1.28    1.42
   0  18  -6    4.53    3.20
   0  18   6   -0.73    2.10
   0 -18  -6    1.39    1.41
   0  18  -6    1.43    1.58
   0  18   6    0.47    2.06
   0 -18   6   -0.86    1.76
   0 -18  -7   -0.37    1.17
   0 -18   7    2.58    1.92
   0 -18   7   -0.16    1.89
   0  18  -7    3.32    1.60
   0  18  -7    1.50    2.32
   0 -18   8   -0.66    1.55
   0 -18  -8    1.88    1.67
   0  18  -8   -2.77    1.56
   0 -18   9    1.63    2.08
   0  18   9   -3.05    3.09
   0  18  -9   -2.58    2.61
   0 -19   0    2.09    1.65
   0 -19   1   -0.81    1.55
   0 -19  -1    1.16    1.46
   0 -19   2   16.19    2.77
   0 -19  -2   11.97    2.35
   0 -19  -3   -0.21    1.14
   0 -19   3    2.11    1.77
   0  19   3    1.01    2.03
   0 -19   4    4.51    1.76
   0 -19  -4    3.84    1.78
   0  19   4    5.23    2.32
   0  19   5   -0.93    2.14
   0 -19  -5    0.24    1.22
   0  19  -5    2.38    1.73
   0  19   6   10.70    3.25
  -1   0   0    1.23    0.80
   1   0   0    0.75    0.37
  -1   0   0    0.12    0.21
   1   0   0    0.32    0.21
   1   0   0    0.12    0.16
  -1   0   0    0.53    0.20
  -1   0   0    0.12    0.36
  -1   0   0    0.58    0.88
  -1   0  -1   38.02    1.30
   1   0  -1   37.12    0.96
  -1   0  -1   42.12    2.15
   1   0   1   35.84    1.20
  -1   0   1   37.08    2.10
   1   0   1   36.82    1.31
   1   0  -1   36.84    1.71
  -1   0   1   37.29    0.97
  -1   0  -1   38.82    1.32
  -1   0  -1   37.25    2.04
   1   0   1   35.11    1.29
   1   0  -1   36.97    1.44
  -1   0   1   39.77    1.72
  -1   0   1   39.40    2.10
  -1   0   2  930.11   17.22
  -1   0  -2  899.53   17.91
  -1   0  -2  916.63   16.56
  -1   0  -2  920.00   17.08
   1   0   2  964.61   16.51
  -1   0  -2  961.25   16.57
   1   0   2  940.87   16.68
   1   0   2  919.89   16.85
  -1   0   2  875.26   17.61
  -1   0  -2  947.16   17.11
  -1   0   2  913.69   17.93
  -1   0  -2  851.73   17.73
  -1   0   2  955.73   18.06
   1   0  -2  950.45   17.05
   1   0   3  355.45    7.64
  -1   0  -3  370.39    7.53
  -1   0   3  352.34    7.97
  -1   0  -3  384.03    8.40
   1   0   3  351.81    8.06
  -1   0   3  387.16    8.40
   1   0  -3  349.21    7.97
  -1   0  -3  337.29    8.16
  -1   0   3  352.37    8.45
  -1   0  -3  369.79    7.28
  -1   0   3  360.95    8.30
   1   0   3  359.95    7.21
  -1   0  -3  365.92    8.21
  -1   0   4  215.12    5.64
   1   0   4  208.38    5.65
  -1   0  -4  215.59    6.04
  -1   0  -4  209.19    5.59
  -1   0   4  221.53    5.63
   1   0  -4  208.46    5.89
   1   0   4  213.38    5.90
  -1   0   4  214.04    6.22
   1   0   4  213.64    5.05
  -1   0  -4  217.54    5.62
  -1   0   4  212.15    5.96
  -1   0   5   65.81    3.33
   1   0   5   66.97    3.21
  -1   0  -5   70.95    3.36
   1   0  -5   70.95    3.34
   1   0   5   67.76    2.62
  -1   0  -5   69.98    2.76
  -1   0   5   68.60    2.75
   1   0   5   67.84    3.24
  -1   0   5   68.74    2.68
  -1   0  -5   72.09    2.74
  -1   0   5   69.16    3.43
   1   0   6  174.72    6.03
  -1   0   6  166.21    6.04
   1   0  -6  166.43    6.18
  -1   0   6  177.09    4.88
   1   0   6  171.20    4.85
  -1   0   6  169.55    6.49
  -1   0  -6  170.00    4.79
  -1   0  -6  172.41    4.72
  -1   0   6  180.98    5.98
  -1   0  -6  164.87    5.93
   1   0   6  168.62    6.03
  -1   0  -7   92.39    3.11
  -1   0   7   82.49    4.37
  -1   0   7   90.06    4.49
  -1   0  -7   90.25    4.41
   1   0  -7   92.25    4.79
   1   0   7   94.01    3.61
   1   0   7   94.11    4.62
   1   0   7   93.58    4.57
  -1   0   7   89.31    3.18
  -1   0  -7   83.07    4.78
  -1   0   7   87.21    5.04
  -1   0  -8  262.36    9.51
   1   0   8  254.19    8.78
   1   0   8  252.73    7.18
  -1   0   8  247.53    9.92
  -1   0  -8  262.46    6.21
  -1   0  -8  270.21    8.78
  -1   0   8  272.76    6.41
  -1   0   8  245.86    8.50
   1   0   8  249.54    8.61
  -1   0   8  252.53    8.71
   1   0  -8  252.56    9.12
  -1   0   9    0.59    0.55
  -1   0  -9   -1.09    1.80
   1   0   9    1.87    0.91
  -1   0  -9    1.10    1.48
   1   0   9    1.59    1.31
   1   0   9    0.95    0.46
  -1   0   9    0.30    1.35
  -1   0   9    1.06    2.17
   1   0  -9    0.52    1.61
   1   0   9    0.28    1.59
   1   0  -9    0.45    0.43
  -1   0   9   -1.56    1.51
   1   0  10    9.01    1.94
  -1   0  10   10.94    2.03
  -1   0  10   11.72    3.41
   1   0  10   10.05    2.16
   1   0  10   10.62    1.52
   1   0 -10   10.61    0.98
  -1   0  10    7.34    2.07
   1   0  10    9.01    0.86
  -1   0 -10   10.41    2.09
   1   0 -10    7.00    2.13
  -1   0 -10   14.34    2.88
   1   0  11   54.44    3.35
  -1   0 -11   65.13    4.67
  -1   0  11   61.94    4.43
  -1   0 -11   69.29    5.65
   1   0  11   57.93    4.47
   1   0 -11   54.50    4.75
  -1   0  11   55.22    4.58
   1   0  12   85.60    4.31
  -1   0 -12   96.73    6.80
   1   0 -12   80.00    5.81
  -1   0  12   87.20    6.06
   1   0  12   87.34    5.63
  -1   0  12   88.74    5.43
   1   0  13    3.20    1.80
  -1   0  13    6.34    2.13
  -1   0  13    4.14    1.76
  -1   0  13    1.87    1.82
   1   0  13    5.89    1.38
   1   0 -13    6.13    2.44
  -1   0 -13    1.77    2.07
   1   0  14   62.19    5.03
   1   0 -14   53.01    5.21
  -1   0  14   59.20    4.96
  -1   0  14   58.40    4.47
   1   0  14   61.04    3.83
  -1   0 -14   68.26    5.95
  -1   0 -15   17.79    3.54
  -1   0  15   12.71    2.52
   1   0  15   12.40    1.86
   1   0 -15   18.58    3.49
  -1   0  15   10.75    2.16
  -1   0  15    5.59    2.29
   1   0  15   13.17    2.71
   1   0 -16    9.75    2.74
  -1   0  16    6.45    1.88
  -1   0  16    3.50    2.19
   1   0  16    5.02    1.36
  -1   0 -16    4.46    1.87
   1   0  16    5.31    1.97
  -1   0 -16    9.79    2.89
  -1   0  16    4.99    1.79
  -1   0 -17   11.36    3.18
   1   0  17    7.26    2.14
  -1   0 -17    8.43    2.42
   1   0 -17   10.68    2.99
  -1   0  17    2.83    2.00
  -1   0  17   11.73    2.52
  -1   0  17    7.45    2.00
   1   0 -18   19.86    3.54
   1   0  18   16.27    3.09
  -1   0  18   19.57    2.93
  -1   0 -18   21.59    3.24
  -1   0  18   16.22    3.26
   1   0 -19    2.83    2.03
  -1   0 -19    5.41    2.48
   1   0 -19    6.60    2.02
  -1   0  19    2.71    2.05
   1   0  19    3.02    1.99
  -1   0  19    0.75    1.40
   1   0  20    1.11    1.69
  -1   0  20    1.75    1.80
  -1   0  20    0.86    1.45
   1   0 -20   -0.80    1.45
  -1   1  20   -1.09    1.80
   1  -1  20    0.95    1.66
  -1   1  20   -0.90    1.72
   1   1 -20    0.90    1.59
  -1  -1 -19    9.71    2.64
   1   1 -19    9.39    2.45
   1   1 -19   11.44    3.14
  -1   1  19    9.33    2.35
  -1   1  19    5.23    1.96
   1  -1  19    8.71    2.57
   1  -1  18    3.89    2.08
  -1   1  18    2.97    1.80
  -1  -1 -18    5.05    2.22
   1   1 -18    0.80    1.98
  -1   1  18    2.22    1.43
   1   1 -18    1.31    1.28
  -1  -1 -18    3.87    1.83
   1   1 -17    4.99    2.04
  -1   1  17    4.83    1.79
  -1   1  17    7.48    2.12
   1  -1  17   10.77    2.63
  -1  -1 -17    4.18    2.24
   1   1 -17    7.52    2.85
  -1  -1 -16    1.94    2.19
  -1   1  16    2.36    1.53
  -1   1  16    0.25    1.42
   1   1 -16    2.38    2.29
  -1   1  16    1.83    1.44
   1  -1  16    3.17    1.90
   1  -1  15   12.45    2.60
   1   1 -15    9.46    2.73
  -1   1  15   13.16    2.83
  -1   1  15   12.31    2.33
   1  -1  15   15.52    1.98
  -1   1  15   11.31    2.26
  -1  -1 -15   18.39    3.36
   1  -1  14    2.32    1.59
  -1   1  14    0.48    1.47
   1  -1  14    3.20    1.01
  -1   1  14    2.85    2.11
  -1  -1 -14    3.45    2.28
   1   1 -14    0.64    2.18
  -1   1  14    2.01    1.47
   1  -1  13   21.98    2.24
  -1   1  13   21.74    2.80
  -1   1  13   19.04    2.84
  -1  -1 -13   23.42    3.09
   1  -1  13   19.62    2.91
  -1   1  13   16.51    3.12
   1   1 -13   21.93    3.44
  -1  -1 -13   27.14    3.91
  -1   1  12   17.87    2.64
   1   1 -12   18.15    3.06
  -1  -1 -12   23.89    3.77
  -1   1  12   12.40    2.96
  -1  -1 -12   22.89    3.07
   1  -1  12   20.36    2.94
   1  -1  12   20.30    2.07
  -1   1  12   20.69    2.76
  -1  -1 -11    2.34    1.55
   1  -1  11    6.54    1.32
   1  -1  11   13.02    2.57
  -1  -1 -11    8.07    2.64
  -1   1  11    3.00    2.31
  -1   1  11    7.12    1.85
   1  -1  11   10.27    2.31
   1   1 -11    8.74    2.65
  -1   1  11   11.11    2.44
   1  -1  10    0.98    1.72
  -1  -1 -10    1.21    1.47
   1   1 -10    2.48    2.07
  -1   1  10    2.85    1.64
  -1  -1 -10    1.73    0.50
   1  -1  10    2.13    0.87
   1  -1  10    2.15    1.88
  -1  -1 -10   -0.13    1.94
  -1   1  10    1.83    1.43
  -1   1  10    0.93    2.04
   1  -1   9   60.71    4.31
   1  -1   9   71.60    3.33
  -1  -1  -9   62.77    4.11
  -1   1   9   64.81    4.36
  -1  -1  -9   54.63    4.59
  -1  -1  -9   67.12    2.39
  -1   1   9   65.15    4.34
   1   1  -9   54.00    4.51
   1  -1   9   65.62    4.51
   1  -1   9   66.93    2.78
   1   1  -9   62.97    2.50
  -1   1   9   67.30    5.13
   1   1  -8   52.59    4.09
  -1   1   8   59.76    4.06
  -1   1   8   58.02    2.29
  -1  -1  -8   58.85    3.61
   1  -1   8   60.45    2.86
   1  -1   8   56.15    3.99
  -1   1   8   57.14    3.72
  -1  -1  -8   60.48    2.35
   1  -1   8   54.21    3.86
  -1  -1  -8   57.46    4.26
  -1   1   8   52.69    4.18
   1   1  -7   40.37    3.44
  -1  -1  -7   39.72    3.27
   1  -1   7   39.83    3.06
  -1  -1  -7   41.14    2.87
  -1   1   7   39.68    1.91
  -1   1   7   39.91    3.25
   1  -1   7   42.34    3.18
  -1   1   7   44.54    2.31
  -1  -1  -7   43.14    2.01
  -1   1   7   42.65    2.91
  -1   1   7   37.28    3.06
   1  -1   7   41.38    2.21
  -1   1   6   29.71    1.89
  -1   1   6   30.78    2.23
  -1   1   6   25.98    2.44
  -1  -1  -6   30.97    1.74
  -1  -1  -6   29.15    2.26
   1  -1   6   30.76    2.59
   1  -1   6   28.77    2.39
  -1   1   6   30.29    1.70
  -1  -1  -6   32.20    2.66
   1  -1   6   27.80    1.65
  -1   1   6   25.92    2.26
   1   1  -6   29.33    2.70
   1  -1   5   14.67    1.59
   1  -1   5   17.01    1.88
  -1   1   5   14.06    1.22
  -1  -1  -5   17.49    1.33
  -1   1   5   14.98    1.80
   1   1  -5   13.99    1.74
  -1   1   5   13.91    1.48
  -1  -1  -5   13.91    1.44
  -1   1   5   14.84    1.37
   1  -1   5   15.13    1.05
  -1  -1  -5   15.38    1.71
   1   1  -4   22.38    1.86
  -1  -1  -4   26.04    1.54
  -1  -1  -4   26.32    1.69
  -1  -1  -4   23.77    1.64
   1  -1   4   23.70    1.72
  -1   1   4   22.24    1.92
  -1   1   4   24.68    1.44
   1  -1   4   24.38    1.96
  -1   1   4   25.55    1.76
   1  -1   4   24.49    1.08
  -1   1   4   25.55    1.66
   1  -1   4   24.55    1.21
  -1   1   4   24.64    1.61
  -1   1   3  126.47    4.31
  -1   1   3  128.56    4.18
  -1   1   3  129.26    3.32
  -1   1   3  142.07    4.31
   1  -1   3  125.61    3.68
   1  -1   3  130.51    2.95
   1   1  -3  129.74    4.10
   1  -1   3  129.83    4.20
  -1   1   3  122.55    3.61
  -1  -1  -3  126.60    3.70
  -1  -1  -3  126.95    3.19
  -1  -1  -2  224.56    4.46
  -1   1   2  237.40    4.47
  -1  -1  -2  221.94    5.07
  -1   1   2  225.05    5.18
  -1   1   2  230.99    5.85
  -1   1   2  219.23    6.00
   1  -1   2  228.59    4.34
  -1   1   2  232.60    6.12
   1  -1   2  222.43    4.35
   1  -1   2  223.91    5.56
   1   1  -2  222.27    5.33
   1  -1   2  232.81    5.41
   1  -1   2  215.99    5.07
  -1   1   1    5.26    0.76
  -1  -1  -1    4.08    0.51
  -1  -1  -1    5.01    0.61
  -1   1   1    5.97    1.17
   1  -1   1    5.29    0.43
   1  -1   1    4.92    0.46
   1  -1   1    4.51    0.54
   1   1  -1    4.62    0.54
   1  -1   1    4.26    0.56
  -1   1   1    5.11    1.12
   1  -1   1    5.35    0.66
  -1   1   1    4.61    0.43
   1  -1   1    5.33    0.54
  -1   1   0   28.01    1.89
  -1   1   0   27.11    1.02
  -1  -1   0   26.15    1.01
   1   1   0   29.37    1.41
  -1   1   0   30.32    1.31
  -1   1   0   29.09    1.87
   1  -1   0   29.47    1.35
   1   1   0   25.66    1.31
   1  -1   0   27.60    1.06
   1   1   0   26.95    1.02
   1   1   1    4.67    0.47
  -1  -1   1    4.82    0.52
  -1  -1   1    5.99    0.74
   1  -1  -1    4.77    0.43
   1  -1  -1    5.16    0.75
  -1   1  -1    5.73    1.06
  -1   1  -1    7.38    0.69
  -1   1  -1    5.08    0.56
   1   1   1    5.17    0.59
   1   1   1    4.72    0.39
  -1   1  -1    6.24    1.09
  -1  -1   1    5.21    0.71
  -1   1  -2  228.93    4.38
  -1   1  -2  209.65    5.37
  -1  -1   2  229.93    5.64
   1  -1  -2  219.14    5.17
  -1   1  -2  226.79    5.18
  -1   1  -2  213.87    5.92
   1   1   2  213.23    4.94
   1   1   2  221.89    4.53
  -1   1  -2  230.88    6.05
  -1  -1   2  231.91    5.46
   1   1   3  128.97    3.44
   1  -1  -3  130.07    3.22
  -1   1  -3  126.70    2.91
  -1  -1   3  137.94    4.14
  -1  -1   3  124.89    4.10
   1   1   3  125.76    3.43
  -1   1  -3  126.49    4.15
  -1   1  -3  122.45    4.10
  -1   1  -3  138.10    4.32
   1   1   3  136.41    3.76
  -1   1  -3  129.77    3.87
   1  -1  -3  121.16    3.70
  -1  -1   4   25.02    1.67
   1   1   4   22.90    1.40
  -1  -1   4   26.06    1.91
  -1   1  -4   24.02    1.72
  -1  -1   4   24.73    1.93
   1   1   4   24.94    1.62
  -1   1  -4   27.73    2.03
   1   1   4   24.50    1.66
   1  -1  -4   24.70    1.41
  -1   1  -4   22.70    1.62
   1  -1  -4   23.94    1.63
  -1   1  -4   24.14    1.16
  -1   1  -4   25.38    1.70
   1   1   5   16.19    1.60
  -1   1  -5   14.96    1.31
  -1   1  -5   15.29    1.74
   1   1   5   15.53    1.51
  -1   1  -5   12.67    1.02
  -1   1  -5   14.63    1.53
  -1   1  -5   17.41    1.40
  -1  -1   5   17.11    1.38
  -1  -1   5   16.54    1.64
   1   1   5   14.41    1.25
  -1  -1   5   15.39    1.89
   1  -1  -5   13.37    1.43
  -1   1  -6   26.94    1.71
   1   1   6   29.24    2.34
   1  -1  -6   29.52    2.31
  -1   1  -6   31.67    2.64
  -1   1  -6   25.03    2.18
  -1  -1   6   30.63    1.81
  -1  -1   6   26.38    2.70
   1   1   6   26.03    2.05
   1   1   6   30.49    1.96
  -1   1  -6   29.62    1.84
  -1  -1   6   28.38    2.27
  -1  -1   7   41.46    2.07
   1   1   7   40.15    2.79
  -1  -1   7   41.31    2.94
   1   1   7   38.84    2.92
  -1   1  -7   40.86    3.09
  -1  -1   7   39.14    3.07
  -1   1  -7   40.47    2.04
   1   1   7   41.20    2.35
  -1  -1   7   40.99    3.78
   1  -1  -7   43.74    3.06
  -1  -1   8   61.32    2.50
   1  -1  -8   61.72    4.05
  -1  -1   8   57.17    5.27
   1   1   8   63.43    3.97
  -1  -1   8   54.28    3.57
  -1  -1   8   58.74    4.02
  -1   1  -8   68.08    4.17
   1   1   8   58.04    3.75
   1   1   8   62.75    3.21
  -1   1  -8   60.70    2.47
  -1   1  -9   61.02    4.74
   1  -1  -9   73.28    4.76
  -1  -1   9   61.48    4.00
   1   1   9   66.59    3.48
  -1  -1   9   62.50    5.95
  -1  -1   9   71.63    2.59
   1   1   9   72.16    4.36
   1  -1  -9   60.39    2.78
   1   1   9   65.91    2.35
  -1  -1   9   57.06    4.27
  -1  -1  10    1.19    0.50
  -1  -1  10    1.50    2.53
   1   1  10    1.70    1.42
  -1   1 -10    3.72    2.26
  -1  -1  10    2.64    1.51
  -1  -1  10    2.64    1.82
   1   1  10    1.39    0.91
   1  -1 -10    1.24    1.72
   1  -1 -11    5.77    2.13
   1   1  11    6.57    1.42
  -1   1 -11    8.93    2.69
  -1  -1  11    4.79    2.75
   1   1  11    4.60    1.72
  -1  -1  11    8.28    2.03
  -1  -1  11    6.15    2.26
   1   1  12   15.91    2.60
  -1   1 -12   21.24    2.98
  -1  -1  12   22.47    2.92
   1   1  12   20.07    2.24
  -1  -1  12   18.39    3.07
   1  -1 -12   14.53    3.01
  -1  -1  12   13.99    3.07
  -1   1 -12   23.90    3.70
  -1  -1  13   16.55    3.44
  -1   1 -13   27.06    4.17
  -1   1 -13   23.50    3.04
   1   1  13   20.61    2.27
  -1  -1  13   19.36    2.67
   1   1  13   20.72    3.00
   1  -1 -13   24.75    3.58
  -1  -1  13   24.18    3.42
   1   1  14    1.54    1.01
  -1  -1  14    7.12    2.59
   1   1  14    2.71    1.51
   1  -1 -14    0.82    1.96
  -1  -1  14    3.87    1.83
  -1   1 -14    1.33    1.61
  -1   1 -14    2.28    2.26
  -1  -1  14    4.08    1.68
  -1   1 -15   12.98    2.71
   1   1  15   15.86    2.19
  -1  -1  15   13.37    3.20
  -1   1 -15   12.91    3.10
   1  -1 -15   12.91    2.91
  -1  -1  15   12.70    2.34
   1   1  15   14.74    2.73
  -1  -1  15   12.32    2.62
   1   1  16    1.06    1.70
  -1  -1  16   -0.01    2.00
   1   1  16    1.43    1.11
  -1  -1  16   -1.52    1.62
   1  -1 -16    3.51    2.36
  -1   1 -16    3.19    1.80
  -1  -1  16    5.43    1.91
  -1  -1  17    7.91    2.85
  -1  -1  17    4.48    1.68
   1  -1 -17    4.58    2.49
  -1  -1  17    3.03    1.79
  -1   1 -17    4.71    1.96
   1   1  17    5.27    1.46
   1   1  17    6.89    2.28
  -1  -1  18    3.86    1.64
  -1   1 -18    4.38    2.11
  -1  -1  18    4.73    2.40
   1  -1 -18    5.89    2.67
   1   1  18    3.47    1.88
  -1  -1  18    3.18    1.48
   1   1  19    7.26    2.43
   1  -1 -19    7.68    2.56
  -1  -1  19   12.63    2.54
  -1  -1  19    5.71    2.21
  -1   1 -19    8.36    2.67
  -1  -1  20    3.56    2.19
   1   1  20    3.74    1.84
  -1  -1  20   -1.56    1.51
   1  -2  20    1.23    1.77
  -1   2  20    5.60    2.03
   1   2 -20    3.27    1.70
  -1   2  19    5.83    2.02
   1   2 -19    4.44    2.53
   1   2 -19    3.93    2.02
  -1  -2 -19   -1.09    1.98
   1  -2  19    3.07    2.02
  -1   2  19    1.70    1.82
  -1   2  18    4.56    2.26
   1   2 -18    2.74    2.50
  -1  -2 -18    0.50    1.98
  -1   2  18   -1.18    1.40
   1   2 -18    3.85    1.70
   1  -2  18    0.11    1.63
   1   2 -17    7.03    2.89
  -1  -2 -17   11.70    2.76
   1   2 -17   11.98    2.51
  -1   2  17    6.19    1.83
   1  -2  17    9.38    2.49
  -1   2  17   11.18    2.79
  -1   2  16    3.27    1.60
   1   2 -16    4.45    2.06
  -1   2  16    3.78    1.98
  -1  -2 -16    1.22    2.04
   1  -2  16    7.48    2.13
   1   2 -16    6.08    1.83
  -1  -2 -15    0.66    1.47
  -1  -2 -15    2.38    1.93
   1  -2  15   -0.72    1.42
   1   2 -15   -0.26    1.39
   1   2 -15    2.02    2.16
  -1   2  15    1.47    1.69
  -1   2  15   -1.17    1.55
  -1   2  15    1.79    1.38
   1  -2  14   23.12    2.31
  -1   2  14   25.62    3.09
  -1   2  14   15.55    2.81
   1   2 -14   19.56    3.63
  -1  -2 -14   26.08    3.74
  -1  -2 -14   23.26    3.35
   1   2 -14   20.71    2.76
   1  -2  14   19.25    3.08
  -1   2  14   18.38    2.71
   1  -2  13   27.54    2.39
   1   2 -13   25.84    3.78
  -1  -2 -13   26.59    3.34
  -1   2  13   23.37    3.49
  -1   2  13   26.26    3.11
   1  -2  13   26.11    3.55
  -1  -2 -13   30.34    3.91
  -1   2  13   24.08    3.00
   1   2 -12    1.36    1.80
  -1   2  12   -0.39    1.26
  -1   2  12    1.42    1.88
  -1  -2 -12    0.62    1.29
  -1  -2 -12    2.20    1.92
   1  -2  12    1.46    0.80
   1  -2  12    2.27    1.94
   1  -2  12   -0.48    1.66
  -1   2  12    3.15    1.66
  -1  -2 -11   20.21    3.58
   1   2 -11   18.80    3.37
  -1   2  11   13.41    2.28
   1  -2  11   16.83    1.79
  -1   2  11   13.49    3.19
  -1  -2 -11   16.94    2.59
   1  -2  11   15.82    2.83
  -1   2  11   16.94    2.70
   1  -2  11   13.10    2.79
  -1  -2 -10   77.12    2.59
   1  -2  10   82.60    5.35
  -1   2  10   76.16    4.95
  -1   2  10   76.18    2.57
  -1   2  10   71.15    4.80
   1   2 -10   80.12    5.59
   1  -2  10   87.79    5.52
  -1  -2 -10   90.07    6.12
  -1  -2 -10   74.30    4.58
   1  -2  10   78.93    3.68
  -1   2  10   73.89    5.62
  -1  -2  -9   28.10    3.45
  -1   2   9   30.41    2.95
   1  -2   9   32.59    2.13
  -1   2   9   25.99    3.07
  -1  -2  -9   30.38    2.82
   1  -2   9   24.33    2.98
  -1   2   9   32.56    3.17
  -1  -2  -9   30.76    1.64
   1   2  -9   30.70    3.75
  -1   2   9   28.22    1.59
   1  -2   9   30.03    3.15
   1  -2   8   29.72    3.03
  -1  -2  -8   32.65    2.72
   1  -2   8   27.83    3.11
   1   2  -8   28.71    3.28
   1  -2   8   32.48    1.98
  -1   2   8   31.08    2.76
  -1   2   8   31.96    1.73
  -1  -2  -8   32.38    1.76
  -1  -2  -8   28.82    3.22
  -1   2   8   32.68    3.14
  -1   2   8   36.87    3.15
  -1  -2  -7   85.89    4.90
  -1   2   7   95.98    3.29
   1  -2   7   92.03    4.72
   1   2  -7   85.35    5.09
  -1   2   7   91.09    4.43
   1  -2   7   94.69    3.27
  -1   2   7   86.11    4.10
   1  -2   7   90.44    5.00
  -1  -2  -7   98.08    4.30
  -1   2   7   91.81    4.97
   1   2  -6  112.71    5.46
  -1  -2  -6  107.46    4.94
  -1  -2  -6  109.23    4.29
   1  -2   6  111.14    4.74
  -1   2   6  113.38    4.24
   1  -2   6  107.49    5.24
   1  -2   6  110.31    3.28
  -1   2   6  112.15    4.38
  -1   2   6  114.30    3.79
  -1   2   6  124.86    5.59
  -1   2   5    4.22    0.88
  -1   2   5    2.56    0.76
   1  -2   5    4.33    1.23
  -1  -2  -5    5.60    1.02
   1  -2   5    3.92    1.11
  -1  -2  -5    5.04    1.25
   1  -2   5    4.41    0.51
   1   2  -5    2.66    1.32
  -1   2   5    2.39    1.16
  -1   2   5    3.88    0.70
  -1  -2  -4  158.15    4.25
   1  -2   4  147.44    4.69
   1   2  -4  146.62    4.02
  -1   2   4  149.39    3.83
  -1  -2  -4  158.65    4.69
   1   2  -4  147.49    5.56
  -1   2   4  144.36    4.18
  -1   2   4  133.60    5.37
   1  -2   4  148.68    5.48
  -1   2   4  155.49    4.77
  -1  -2  -4  148.57    4.42
  -1   2   3  125.51    2.88
   1  -2   3  121.69    3.75
  -1   2   3  112.72    4.47
   1   2  -3  124.25    3.10
  -1  -2  -3  126.26    3.60
   1   2  -3  130.86    4.60
   1  -2   3  121.02    4.55
  -1   2   3  117.07    4.39
  -1   2   3  129.14    4.41
  -1   2   3  122.89    3.42
  -1  -2  -3  118.34    2.82
   1   2  -2    7.05    0.94
   1   2  -2    6.61    0.45
  -1   2   2    5.98    0.35
  -1   2   2    5.29    0.99
   1  -2   2    6.44    1.01
   1  -2   2    6.90    0.78
  -1  -2  -2    6.00    0.70
  -1   2   2    5.99    1.19
   1  -2   2    8.42    0.90
  -1   2   2    6.96    1.23
  -1   2   1   99.63    3.97
   1  -2   1  103.27    2.60
   1   2  -1  101.73    3.14
  -1   2   1   93.69    3.25
  -1   2   1   96.06    2.60
   1  -2   1  105.11    3.36
   1  -2   1   98.45    2.80
   1   2  -1  100.40    2.89
  -1   2   1   93.97    3.86
  -1  -2  -1   95.90    2.68
   1  -2   1   97.03    2.88
  -1  -2   0  434.33    8.20
  -1   2   0  428.95    8.56
   1  -2   0  440.29    8.49
   1   2   0  423.10    7.81
  -1   2   0  430.42    8.23
   1  -2   0  416.60    8.26
   1   2   0  434.98    8.71
  -1   2   0  388.01    9.88
   1  -2   0  405.10    8.70
  -1  -2   0  426.27    7.48
  -1   2   0  387.90    9.86
   1  -2  -1   99.21    2.32
   1  -2  -1   95.82    2.59
  -1  -2   1   97.58    2.95
  -1   2  -1  104.43    2.36
   1   2   1   95.49    2.92
  -1   2  -1   99.33    2.96
   1  -2  -1   92.31    3.31
  -1   2  -1  101.54    3.97
  -1   2  -1   97.54    2.76
  -1  -2   1   92.69    2.50
   1   2   2    5.70    0.73
  -1   2  -2    6.37    0.76
   1  -2  -2    6.49    0.45
  -1  -2   2    6.90    0.91
   1   2   2    7.34    0.57
  -1   2  -2    4.80    1.22
  -1   2  -2    7.47    1.24
   1   2   3  122.19    3.23
  -1   2  -3  126.60    4.55
   1  -2  -3  126.59    3.29
  -1  -2   3  128.88    4.23
   1  -2  -3  126.88    2.81
  -1  -2   3  125.79    4.05
  -1   2  -3  119.69    3.79
   1   2   3  123.41    3.51
   1   2   3  118.33    3.55
   1  -2  -3  117.47    3.62
  -1   2  -3  115.68    4.31
  -1   2  -4  138.74    4.65
   1   2   4  137.44    4.37
  -1  -2   4  144.37    4.71
  -1  -2   4  148.21    5.31
  -1   2  -4  146.73    3.22
   1   2   4  136.46    4.16
  -1   2  -4  152.56    4.62
   1  -2  -4  138.81    3.61
   1  -2  -4  142.31    4.13
   1  -2  -4  143.12    4.32
   1   2   4  141.14    4.21
  -1  -2   5    4.71    1.50
   1   2   5    4.65    0.99
   1   2   5    4.72    0.84
   1   2   5    3.34    0.88
   1  -2  -5    4.44    0.66
  -1   2  -5    4.11    1.03
   1  -2  -5    4.77    0.95
  -1   2  -5    4.88    0.64
   1  -2  -5    2.87    0.78
  -1   2  -5    4.37    0.90
  -1  -2   5    3.66    1.00
   1  -2  -6  118.91    4.45
  -1   2  -6  112.42    3.96
  -1  -2   6  111.09    4.54
   1   2   6  112.56    4.12
  -1  -2   6  117.35    6.00
   1   2   6  111.17    4.25
   1  -2  -6  108.63    4.34
  -1   2  -6  108.02    4.43
  -1   2  -7   93.28    4.37
  -1  -2   7   88.55    4.27
   1  -2  -7   91.37    4.20
  -1   2  -7   92.13    3.46
  -1  -2   7   96.44    6.09
   1   2   7   91.57    4.10
   1   2   7   93.48    3.99
   1  -2  -7   92.58    4.31
   1  -2  -8   28.81    2.73
   1  -2  -8   30.56    2.63
  -1  -2   8   29.75    4.10
  -1   2  -8   32.56    2.82
  -1  -2   8   31.97    1.88
   1   2   8   30.89    2.25
  -1  -2   8   31.87    3.12
  -1  -2   8   31.30    2.70
   1   2   8   37.14    2.79
  -1   2  -8   33.59    1.91
  -1   2  -9   23.51    2.69
  -1   2  -9   31.12    1.77
   1   2   9   29.79    2.77
  -1  -2   9   30.04    2.81
  -1  -2   9   24.34    4.31
   1   2   9   30.47    2.47
   1  -2  -9   33.01    3.13
  -1  -2   9   33.57    3.38
  -1  -2   9   33.28    1.82
   1  -2 -10   69.79    4.84
   1   2  10   77.47    4.20
  -1   2 -10   69.26    4.51
  -1  -2  10   76.88    4.61
  -1  -2  10   78.28    5.30
   1   2  10   76.93    4.71
  -1  -2  10   81.80    2.84
  -1   2 -10   77.53    2.77
  -1   2 -11   14.88    2.47
  -1  -2  11   13.72    2.73
  -1  -2  11   18.69    2.60
   1   2  11   15.58    2.10
   1  -2 -11   15.02    2.77
   1   2  11   16.15    2.45
  -1  -2  12   -0.07    2.15
  -1   2 -12   -1.20    1.59
   1  -2 -12   -0.74    1.77
   1   2  12    1.23    1.17
   1   2  12    1.21    1.47
  -1  -2  12   -0.55    1.27
  -1  -2  12   -0.94    1.75
   1  -2 -13   24.53    3.55
  -1  -2  13   30.28    3.34
   1   2  13   30.51    3.49
   1   2  13   28.50    2.78
  -1  -2  13   27.49    3.77
  -1   2 -13   23.36    3.11
  -1  -2  13   24.04    3.95
  -1  -2  14   20.03    3.89
  -1  -2  14   20.86    3.36
   1   2  14   22.41    2.62
  -1   2 -14   20.55    3.01
   1   2  14   19.26    3.03
   1  -2 -14   21.15    3.34
  -1  -2  14   25.02    3.11
  -1  -2  15    2.07    1.95
   1   2  15    1.08    1.55
  -1   2 -15    3.19    1.99
  -1  -2  15    1.90    1.65
   1  -2 -15    2.44    2.26
   1   2  15    3.08    1.42
  -1  -2  15    3.22    2.09
   1  -2 -16    5.15    2.12
  -1  -2  16    3.76    2.04
   1   2  16    4.82    1.42
   1   2  16    6.06    1.90
  -1   2 -16    1.99    1.98
  -1  -2  16    7.12    1.86
  -1  -2  16    1.87    1.63
   1   2  17    6.37    1.64
  -1   2 -17   11.48    2.71
  -1  -2  17    7.75    2.38
   1   2  17    7.96    2.40
   1  -2 -17   10.18    3.01
  -1  -2  17    7.27    2.06
  -1  -2  17    8.98    2.55
   1  -2 -18    0.38    2.14
  -1  -2  18    2.00    1.72
   1   2  18    1.99    1.55
  -1   2 -18    1.67    2.07
  -1  -2  18    0.75    1.52
  -1  -2  18    1.89    1.51
  -1   2 -19    5.69    2.28
  -1  -2  19    3.62    1.47
   1   2  19    1.11    1.56
   1  -2 -19    1.21    1.76
  -1  -2  20    0.52    2.02
  -1  -2  20    4.28    1.81
   1   2  20    3.49    1.96
   1   3 -20    9.32    2.41
  -1  -3 -20    6.42    2.30
  -1   3  20    6.12    1.84
   1   3 -19    3.29    2.37
   1  -3  19    1.39    1.66
   1   3 -19   -1.85    1.58
  -1  -3 -19    3.27    2.17
  -1   3  19   -1.36    1.40
  -1   3  18    1.10    1.31
   1   3 -18    0.84    1.59
  -1  -3 -18   -0.17    1.72
   1  -3  18    2.38    1.77
   1   3 -18   -0.15    1.72
  -1   3  18    1.72    1.53
  -1   3  17    1.30    1.54
   1   3 -17    2.17    1.83
   1   3 -17    5.35    2.92
  -1   3  17    0.92    1.23
   1  -3  17    3.17    2.08
  -1  -3 -17    4.29    2.37
  -1  -3 -16   34.03    4.13
  -1   3  16   33.12    3.68
   1   3 -16   29.88    4.20
   1   3 -16   33.85    3.64
  -1  -3 -16   31.76    3.95
  -1   3  16   24.10    3.38
   1  -3  16   34.82    4.15
  -1  -3 -15    6.06    2.49
  -1   3  15    1.36    1.50
  -1  -3 -15    3.52    1.88
   1  -3  15    2.34    1.52
  -1   3  15    3.60    1.95
   1   3 -15    3.23    1.84
   1   3 -15    0.13    2.21
  -1   3  14   16.56    2.61
  -1   3  14   14.79    2.78
  -1  -3 -14   21.73    3.44
  -1  -3 -14   18.02    2.98
   1   3 -14   22.24    3.77
   1   3 -14   10.27    2.17
  -1   3  14   17.29    2.49
   1  -3  14   15.20    2.96
   1   3 -13    7.82    2.57
   1  -3  13    6.05    2.21
  -1  -3 -13    6.71    2.32
   1   3 -13   10.64    2.06
  -1  -3 -13    7.55    2.06
   1  -3  13    8.73    2.40
   1  -3  13    5.31    1.22
  -1   3  13    6.66    1.90
  -1   3  13    8.98    1.84
  -1   3  13    2.22    1.58
  -1   3  12   40.29    3.77
   1   3 -12   44.65    3.57
  -1   3  12   48.02    3.79
   1  -3  12   48.53    3.00
  -1  -3 -12   38.42    3.56
   1  -3  12   43.48    4.23
   1  -3  12   44.23    4.36
  -1   3  12   36.07    4.01
  -1  -3 -12   49.65    4.72
   1   3 -12   53.33    5.06
  -1   3  11    3.37    2.03
   1  -3  11    3.38    2.08
  -1   3  11    1.38    1.52
  -1  -3 -11    3.55    2.15
  -1  -3 -11    2.30    1.54
  -1   3  11    3.11    1.47
   1   3 -11    3.69    1.37
   1  -3  11    3.16    0.95
   1   3 -11    2.21    2.27
   1  -3  11    1.07    1.92
   1   3 -10  132.23    7.45
   1  -3  10  132.55    6.97
  -1   3  10  125.57    6.25
   1  -3  10  128.85    4.57
   1   3 -10  120.87    5.45
  -1   3  10  128.60    6.43
  -1  -3 -10  125.83    3.84
  -1  -3 -10  125.61    5.93
   1  -3  10  130.87    6.99
  -1  -3 -10  152.99    7.86
  -1   3  10  117.31    6.49
  -1   3  10  126.97    3.84
   1   3  -9   17.95    3.24
  -1   3   9   10.43    1.97
  -1   3   9   14.33    1.25
  -1   3   9   17.12    2.35
  -1  -3  -9   16.45    2.28
   1  -3   9   12.69    1.29
  -1   3   9   15.22    2.52
   1   3  -9   14.32    1.92
   1  -3   9   15.63    2.82
   1  -3   9   17.40    2.60
  -1  -3  -9   16.94    3.05
  -1   3   8    3.01    1.20
   1  -3   8    1.64    0.57
   1   3  -8    6.61    2.30
  -1   3   8    3.27    1.50
   1  -3   8    2.35    1.76
   1  -3   8    4.09    1.78
   1   3  -8    1.43    0.91
  -1   3   8    3.34    1.25
  -1   3   8    2.74    0.75
  -1  -3  -8    2.64    1.34
  -1  -3  -8   -0.70    1.71
  -1  -3  -7    9.17    1.90
  -1   3   7    9.78    1.42
  -1   3   7    8.32    1.17
   1  -3   7    7.34    0.79
   1   3  -7    8.33    1.21
   1   3  -7    9.59    2.27
   1  -3   7    7.16    1.71
   1  -3   7    9.37    1.96
  -1  -3  -7    7.44    1.40
  -1   3   7    8.17    1.32
  -1   3   7    6.86    1.84
   1  -3   6  250.05    7.81
   1   3  -6  257.28    6.78
   1  -3   6  256.17    5.45
   1   3  -6  261.10    9.18
  -1  -3  -6  258.65    7.13
  -1   3   6  263.59    8.75
  -1   3   6  242.49    6.71
  -1  -3  -6  224.38    7.89
   1  -3   6  258.50    9.12
  -1   3   6  263.80    6.98
  -1   3   6  254.85    6.81
   1   3  -5   42.14    3.30
  -1   3   5   35.19    1.64
  -1  -3  -5   33.61    2.10
  -1   3   5   41.48    3.19
  -1  -3  -5   38.18    2.21
  -1   3   5   37.63    2.35
   1  -3   5   39.45    2.58
   1  -3   5   36.47    1.15
  -1  -3  -5   32.70    2.39
  -1   3   5   34.99    1.88
   1   3  -5   35.88    1.90
   1  -3   5   44.60    3.47
  -1   3   4  191.98    5.99
  -1  -3  -4  188.09    5.30
  -1  -3  -4  183.34    4.74
  -1   3   4  193.41    6.78
   1   3  -4  186.75    4.72
  -1  -3  -4  194.24    5.21
   1   3  -4  187.81    6.68
   1  -3   4  189.66    5.63
  -1   3   4  193.63    4.77
   1  -3   4  187.30    6.86
   1   3  -3   19.39    1.04
  -1   3   3   18.78    0.88
   1  -3   3   19.66    1.46
   1  -3   3   16.58    1.93
  -1   3   3   22.88    2.20
   1   3  -3   19.63    1.92
  -1  -3  -3   20.07    1.34
   1   3  -2   63.05    2.96
   1   3  -2   71.71    1.92
  -1  -3  -2   68.94    2.44
  -1   3   2   75.07    3.54
   1  -3   2   66.76    3.32
  -1   3   2   69.55    1.77
   1  -3   2   72.74    2.65
   1   3  -1   22.29    1.42
   1   3  -1   23.08    1.54
   1   3  -1   23.42    1.48
   1   3  -1   23.48    0.88
  -1  -3  -1   24.14    1.29
  -1   3   1   25.59    1.31
   1  -3   1   20.72    1.65
   1  -3   1   25.67    0.91
  -1   3   1   23.17    1.75
   1  -3   1   24.99    1.42
   1   3   0  439.22    8.61
   1   3   0  448.63    8.97
   1  -3   0  422.20    9.40
  -1  -3   0  480.31    8.40
  -1   3   0  465.20    9.09
  -1  -3   0  470.47    9.11
  -1   3   0  465.59    9.14
  -1   3   0  409.30    9.57
   1   3   0  467.33    9.54
  -1  -3   0  457.98    8.15
   1  -3   0  463.91    9.35
   1  -3  -1   25.60    1.13
   1  -3  -1   26.22    0.88
  -1   3  -1   24.97    1.36
  -1  -3   1   25.11    0.93
   1   3   1   24.61    1.47
  -1  -3   1   25.35    1.29
  -1  -3   1   26.01    1.43
  -1   3  -1   23.99    1.23
   1  -3  -2   72.56    1.87
   1   3   2   71.69    2.69
  -1  -3   2   74.29    2.09
  -1   3  -2   73.21    2.65
  -1  -3   2   74.60    2.85
  -1  -3   3   20.95    1.75
   1  -3  -3   21.16    1.06
   1   3   3   21.02    1.48
  -1   3  -3   21.32    1.51
   1  -3  -3   19.43    1.39
   1   3   3   22.06    1.03
   1   3   4  181.82    4.75
  -1   3  -4  188.44    5.48
   1   3   4  189.95    5.32
   1  -3  -4  189.28    4.69
  -1  -3   4  200.99    6.44
  -1  -3   4  186.67    5.62
   1  -3  -4  186.01    5.22
   1  -3  -5   40.24    2.12
  -1   3  -5   37.82    1.60
  -1  -3   5   36.23    3.13
  -1   3  -5   37.26    2.49
   1   3   5   38.32    2.26
  -1  -3   5   37.36    2.39
   1  -3  -5   37.44    1.36
  -1   3  -5   35.51    2.29
   1  -3  -5   35.22    2.14
   1   3   6  268.39    7.07
   1  -3  -6  256.31    6.90
  -1   3  -6  255.54    7.47
  -1  -3   6  265.67    7.54
   1   3   6  254.89    7.15
   1  -3  -6  241.16    5.66
  -1   3  -6  239.65    6.33
  -1  -3   6  248.03    9.26
  -1   3  -6  249.10    7.13
   1  -3  -6  257.39    7.20
   1  -3  -7    9.06    1.45
   1  -3  -7    6.92    1.22
  -1  -3   7    8.01    1.37
   1   3   7    7.02    1.34
  -1   3  -7   10.08    1.62
  -1  -3   7    8.47    2.74
   1   3   7    7.60    1.25
  -1   3  -7    7.12    1.12
   1   3   8    3.61    1.14
   1  -3  -8    1.53    0.93
  -1   3  -8    2.59    1.22
  -1  -3   8    1.41    1.07
   1   3   8    3.03    1.15
  -1  -3   8    3.14    2.58
   1  -3  -8    4.12    1.31
  -1   3  -8    2.30    0.82
  -1   3  -9   15.54    1.46
   1  -3  -9   14.10    1.96
   1   3   9   12.18    1.64
  -1   3  -9   14.26    2.17
  -1  -3   9   14.54    1.99
   1   3   9   14.57    1.95
   1  -3  -9   15.27    2.21
   1  -3 -10  135.29    6.59
   1   3  10  134.75    5.72
  -1  -3  10  118.77    5.72
  -1   3 -10  114.02    5.84
  -1  -3  10  129.15    4.14
   1   3  10  130.60    6.00
   1  -3 -10  128.82    5.86
  -1  -3  10  116.04    6.67
  -1   3 -10  130.29    4.17
   1  -3 -11    2.90    1.53
  -1   3 -11    2.26    1.72
  -1  -3  11    0.13    1.31
   1  -3 -11    0.41    1.66
  -1  -3  11    0.10    2.02
  -1   3 -11    2.57    0.65
   1   3  11    1.94    1.64
   1   3  11    3.80    1.34
   1  -3 -12   39.89    4.10
  -1  -3  12   44.99    3.71
  -1   3 -12   47.64    4.02
   1   3  12   47.24    3.97
  -1  -3  12   45.73    4.53
   1   3  12   47.85    3.65
  -1  -3  13    5.91    2.77
  -1  -3  13    8.72    2.04
   1  -3 -13    5.87    2.30
   1   3  13    7.68    2.09
   1   3  13    8.27    1.83
  -1   3 -13    6.76    2.11
  -1  -3  13    4.35    1.92
   1  -3 -14   17.21    3.19
   1   3  14   17.21    2.41
  -1  -3  14   11.50    2.86
  -1   3 -14   20.95    2.94
   1   3  14   16.82    2.71
  -1  -3  14   17.51    2.59
  -1  -3  14   21.87    3.56
   1  -3 -15    1.61    1.82
  -1  -3  15    2.44    2.43
  -1   3 -15    0.38    1.78
  -1  -3  15    1.24    1.93
  -1  -3  15    2.34    1.63
   1   3  15    3.47    1.54
   1   3  15    3.58    1.84
   1  -3 -16   37.79    4.62
  -1  -3  16   31.49    3.51
  -1  -3  16   32.62    4.57
   1   3  16   31.39    3.23
   1   3  16   32.52    3.89
  -1   3 -16   34.31    3.97
  -1  -3  16   33.56    4.27
   1   3  17    1.75    1.23
  -1   3 -17    3.33    1.74
  -1  -3  17    3.73    1.62
   1  -3 -17   -0.67    2.26
   1   3  17    1.46    1.74
  -1  -3  18    5.63    1.98
   1  -3 -18    0.72    2.00
  -1   3 -18    4.40    2.03
  -1  -3  18    2.73    2.12
   1   3  18    1.63    1.21
   1   3  18    2.55    1.70
  -1   3 -19   -0.84    1.64
  -1  -3  19    3.22    2.02
   1  -3 -19   -1.14    2.31
  -1  -3  19    1.50    1.38
   1   3  19    1.45    1.51
   1   3  20    7.50    2.37
  -1  -3  20    3.68    1.50
   1   4 -20   -2.26    1.84
   1   4 -19    1.74    1.60
   1   4 -19   -0.38    2.00
  -1   4  19    0.88    1.55
   1  -4  19    2.11    1.95
  -1  -4 -19    2.73    1.90
   1   4 -18    1.61    1.84
  -1  -4 -18    2.45    2.02
   1   4 -18   -0.48    2.45
   1  -4  18    4.24    2.30
  -1   4  18    3.78    1.72
   1  -4  17    9.93    2.50
  -1  -4 -17    7.59    2.32
   1   4 -17    8.41    2.32
  -1  -4 -17   10.96    2.74
   1   4 -17   11.46    3.06
  -1   4  17    5.83    2.08
   1   4 -16    3.52    1.53
   1   4 -16    1.23    2.05
  -1  -4 -16    4.41    2.26
  -1   4  16    0.89    1.35
  -1  -4 -16    6.22    2.40
  -1   4  16    4.26    1.81
   1  -4  16    5.09    2.28
  -1  -4 -15   21.88    3.33
  -1   4  15   18.05    2.87
  -1  -4 -15   22.14    3.46
  -1   4  15   23.45    3.23
   1   4 -15   25.03    3.11
   1  -4  15   21.29    3.27
   1   4 -15   26.73    3.99
  -1  -4 -14   11.43    2.46
  -1   4  14    7.52    1.96
  -1   4  14    8.72    2.21
   1   4 -14   14.82    2.52
   1  -4  14   11.12    2.71
  -1  -4 -14   11.67    2.39
   1  -4  14   10.35    2.83
   1   4 -14   12.76    2.96
   1   4 -13    2.62    2.11
  -1  -4 -13    0.15    1.43
  -1  -4 -13    1.56    1.78
   1  -4  13    1.57    2.07
  -1   4  13   -0.79    1.47
  -1   4  13   -0.81    1.48
   1   4 -13    0.11    1.20
   1  -4  13    2.56    1.85
  -1   4  13   -0.35    1.10
   1  -4  12    5.21    1.05
  -1  -4 -12    5.24    1.79
   1  -4  12    5.30    2.28
   1   4 -12    2.72    2.40
  -1   4  12    3.45    1.52
   1   4 -12    1.22    1.12
  -1  -4 -12    3.56    1.91
  -1   4  12    2.92    1.22
   1  -4  12    8.51    2.50
  -1   4  12    6.22    1.99
   1  -4  11   81.54    5.73
   1   4 -11   78.68    4.52
   1  -4  11   82.01    3.55
  -1   4  11   83.55    3.07
   1  -4  11   94.50    6.29
   1   4 -11   96.69    6.59
  -1   4  11   78.51    4.62
  -1  -4 -11   95.82    6.16
  -1  -4 -11   81.65    4.98
  -1   4  11   76.83    5.05
  -1   4  11   79.22    5.26
  -1   4  10    4.08    1.61
   1  -4  10    4.81    2.21
  -1   4  10    3.60    1.82
   1  -4  10    2.44    1.93
   1   4 -10    7.93    2.91
   1   4 -10    1.72    1.18
  -1  -4 -10    3.75    2.08
  -1   4  10    4.28    0.84
  -1  -4 -10    1.82    1.44
  -1   4  10    4.33    1.47
   1  -4  10    4.35    0.88
   1   4  -9   86.74    6.01
  -1  -4  -9   75.64    4.26
  -1  -4  -9   91.66    5.58
   1   4  -9   70.34    3.78
   1  -4   9   78.69    5.11
  -1   4   9   74.58    4.93
  -1   4   9   76.17    4.32
   1  -4   9   72.41    2.90
   1  -4   9   83.19    5.80
  -1   4   9   76.51    3.27
  -1   4   9   72.09    4.05
  -1  -4  -8   44.41    3.88
   1  -4   8   31.97    1.67
  -1   4   8   32.32    3.29
   1   4  -8   32.89    2.43
   1  -4   8   35.48    3.22
  -1   4   8   31.98    2.14
  -1  -4  -8   34.05    2.70
   1  -4   8   39.11    4.11
  -1   4   8   32.82    2.47
   1   4  -8   36.54    3.93
  -1   4   8   33.24    2.67
  -1  -4  -7   65.43    4.31
   1  -4   7   55.13    3.68
   1  -4   7   54.18    1.97
  -1   4   7   54.08    2.93
   1   4  -7   60.22    4.61
  -1   4   7   55.56    2.80
   1  -4   7   60.97    4.59
   1   4  -7   48.58    2.74
  -1   4   7   51.35    3.83
  -1  -4  -7   56.36    3.18
  -1   4   7   49.65    2.89
  -1  -4  -6    4.33    1.53
   1  -4   6    7.07    1.70
  -1  -4  -6    5.98    1.18
  -1   4   6    5.27    1.51
   1   4  -6    5.62    1.02
   1   4  -6    6.39    1.75
  -1   4   6    5.14    0.84
   1  -4   6    4.45    1.58
  -1   4   6    4.51    0.83
   1   4  -5  297.91    9.39
  -1  -4  -5  264.83    7.54
   1  -4   5  315.17    8.57
  -1  -4  -5  312.25    7.74
  -1   4   5  305.72    6.31
  -1  -4  -5  264.34    8.18
  -1   4   5  302.60    6.81
  -1   4   5  311.86    9.53
   1   4  -5  305.15    7.20
   1  -4   5  307.88    9.82
  -1  -4  -4   20.51    1.61
   1   4  -4   27.07    2.40
  -1  -4  -4   19.65    1.29
  -1   4   4   23.54    2.33
   1   4  -4   26.03    1.47
   1  -4   4   23.34    1.88
  -1  -4  -4   25.21    1.70
   1  -4   4   23.07    2.34
  -1   4   4   23.24    1.26
   1   4  -3   20.32    1.82
   1   4  -3   21.99    1.20
  -1  -4  -3   20.75    1.44
   1  -4   3   21.07    2.09
   1  -4   3   21.65    1.68
  -1   4   3   21.49    2.07
  -1  -4  -3   21.89    1.12
  -1   4   3   22.21    2.29
  -1   4   2   11.26    1.53
   1   4  -2    9.56    0.70
  -1   4   2   12.71    2.18
   1   4  -2   10.72    1.21
  -1  -4  -2   10.31    1.03
   1  -4   2   13.16    1.47
   1  -4   2   10.82    1.12
   1   4  -2   10.53    1.11
   1   4  -1  233.52    5.14
  -1   4   1  248.73    8.81
   1   4  -1  250.04    5.79
   1   4  -1  246.75    5.99
  -1   4   1  265.34    5.97
  -1  -4  -1  245.09    5.85
   1  -4   1  249.24    6.08
   1  -4   1  240.07    6.60
   1  -4   1  249.72    4.94
  -1   4   1  261.81    5.66
   1   4  -1  249.16    6.24
  -1   4   1  273.54    7.25
  -1  -4   0   35.68    1.39
  -1  -4   0   30.84    1.25
   1   4   0   29.34    1.24
  -1  -4   0   30.19    1.56
   1  -4   0   28.44    1.60
   1   4   0   30.44    1.77
  -1   4   0   30.51    1.59
  -1   4   0   27.93    2.96
  -1   4   0   31.10    1.92
  -1   4   0   28.89    1.84
   1  -4   0   31.62    1.41
  -1  -4   0   32.27    1.51
   1  -4   0   31.67    1.66
  -1  -4   1  280.87    6.94
   1  -4  -1  269.80    5.36
   1   4   1  230.94    6.18
  -1  -4   1  250.65    5.29
  -1   4  -1  260.09    6.06
  -1  -4   1  248.56    6.01
  -1   4  -1  243.01    5.96
   1  -4  -1  246.62    5.14
  -1   4  -1  238.34    8.55
   1  -4  -2   10.76    0.70
   1   4   2    9.38    1.06
  -1  -4   2   11.49    1.21
  -1  -4   2   10.10    0.75
  -1   4  -2   10.87    1.80
  -1   4  -2   10.67    1.11
  -1   4  -3   20.44    2.37
   1   4   3   20.59    1.57
   1  -4  -3   22.02    1.11
  -1   4  -3   19.10    1.50
  -1  -4   3   23.52    1.94
   1  -4  -4   24.15    1.33
   1   4   4   23.27    1.77
  -1   4  -4   22.13    2.38
  -1   4  -4   24.14    1.78
  -1  -4   4   27.25    2.42
   1  -4  -4   24.53    1.70
   1   4   4   22.02    1.02
  -1   4  -5  313.78    8.21
   1  -4  -5  307.40    7.16
   1   4   5  315.12    8.08
  -1   4  -5  295.92    6.19
  -1  -4   5  301.30    9.67
   1  -4  -5  309.30    7.78
   1  -4  -6    5.16    0.92
  -1   4  -6    3.96    1.10
  -1   4  -6    4.21    0.64
  -1  -4   6    2.09    1.89
   1  -4  -6    4.47    1.01
  -1  -4   6    5.00    1.21
   1   4   6    4.94    1.16
   1  -4  -7   51.91    3.15
  -1  -4   7   50.67    3.15
   1  -4  -7   56.78    2.98
  -1   4  -7   51.88    2.38
  -1   4  -7   57.99    3.24
  -1   4  -7   54.14    3.35
   1   4   7   57.10    3.05
  -1  -4   7   43.80    4.40
   1   4   7   55.28    3.25
  -1   4  -8   31.28    2.75
   1   4   8   34.02    2.76
  -1  -4   8   31.68    2.64
   1  -4  -8   33.90    2.51
  -1   4  -8   35.52    2.51
  -1  -4   8   30.27    4.47
   1   4   8   34.36    2.53
   1  -4  -8   33.91    2.79
   1  -4  -9   77.38    4.48
   1   4   9   75.75    4.06
   1   4   9   77.62    4.09
  -1  -4   9   73.75    4.15
   1  -4  -9   71.58    3.99
   1   4   9   79.40    4.40
  -1   4  -9   80.20    3.61
  -1   4  -9   75.61    4.43
  -1   4 -10    4.06    0.96
   1  -4 -10    4.56    1.51
  -1  -4  10    3.55    1.27
  -1   4 -10    4.56    1.60
   1   4  10    2.81    1.20
   1   4  10    4.72    1.44
   1  -4 -10    7.16    1.88
  -1   4 -11   88.53    3.46
   1  -4 -11   78.05    5.21
   1  -4 -11   76.94    4.67
  -1  -4  11   82.13    4.72
   1   4  11   91.62    5.09
  -1   4 -11   77.95    4.91
   1   4  11   84.99    4.87
   1   4  12    5.22    1.48
  -1   4 -12    3.02    1.57
   1   4  12    3.67    1.63
   1  -4 -12    5.38    1.94
  -1  -4  12    4.36    1.39
   1  -4 -12    5.60    1.78
  -1  -4  13    3.25    2.43
   1   4  13   -1.38    1.31
   1   4  13    0.66    1.29
   1  -4 -13    0.53    1.11
  -1   4 -13   -0.94    1.36
   1  -4 -13    1.72    1.49
  -1  -4  13    1.14    1.29
   1  -4 -14    9.64    2.52
  -1  -4  14    9.23    2.96
  -1   4 -14    7.56    2.23
   1   4  14   15.64    2.46
   1   4  14   11.69    2.37
  -1  -4  14    7.30    1.78
   1   4  15   26.66    3.14
   1   4  15   25.88    3.33
  -1   4 -15   26.42    3.49
   1  -4 -15   22.74    3.55
  -1  -4  15   25.11    3.14
  -1  -4  15   23.52    4.06
   1  -4 -16    6.06    2.58
  -1   4 -16    2.31    1.65
   1   4  16    1.21    1.47
   1   4  16    1.60    1.35
  -1  -4  16    1.84    2.15
  -1  -4  16    2.56    1.46
  -1   4 -17   13.06    2.88
  -1  -4  17    8.72    2.77
  -1  -4  17   10.62    2.26
   1   4  17    9.95    2.55
   1   4  17    7.20    1.93
   1  -4 -17   10.27    3.03
  -1   4 -18    3.62    2.22
   1   4  18    4.15    1.95
   1   4  18    2.84    1.32
  -1  -4  18    0.82    1.37
   1  -4 -18    3.79    2.22
  -1  -4  18   -0.61    2.23
   1  -4 -19   -0.23    2.30
   1   4  19   -0.51    1.55
  -1  -4  19   -5.09    2.66
  -1   4 -19   -0.55    1.47
  -1  -4  19    2.32    1.47
   1   4  20    2.34    1.73
  -1   5  19    1.72    1.43
   1   5 -19    2.37    1.78
   1   5 -19    2.82    2.20
   1  -5  19    3.11    2.10
   1   5 -18    2.52    1.77
   1  -5  18    4.94    2.11
  -1  -5 -18    4.78    2.32
   1   5 -18    7.12    2.87
  -1   5  18    2.66    1.53
   1   5 -17    1.02    1.67
   1   5 -17    1.80    1.47
  -1  -5 -17   -1.59    1.80
  -1  -5 -17    3.86    2.24
  -1   5  17   -0.43    1.47
   1  -5  17   -0.56    1.89
   1   5 -16    6.78    2.74
  -1   5  16    3.36    1.83
  -1  -5 -16    3.47    1.96
   1   5 -16    4.29    1.80
  -1  -5 -16    3.02    2.00
   1  -5  16    4.07    2.04
   1   5 -15   20.83    3.83
   1  -5  15   19.82    3.63
  -1   5  15   12.93    2.35
   1  -5  15   22.41    3.43
   1   5 -15   17.23    2.53
  -1   5  15   17.88    2.89
  -1  -5 -15   22.00    3.25
  -1  -5 -15   18.53    3.11
   1   5 -14    1.99    2.27
   1  -5  14    3.90    2.37
   1   5 -14    3.43    1.61
  -1   5  14    1.26    1.39
  -1  -5 -14    3.33    1.62
  -1  -5 -14    1.75    1.82
   1  -5  14    5.41    2.27
  -1   5  14    0.92    1.13
  -1  -5 -13   10.59    2.25
  -1   5  13   10.76    2.35
   1  -5  13    9.31    2.95
   1  -5  13    9.77    2.85
   1   5 -13   16.39    3.33
  -1  -5 -13   12.02    2.57
   1   5 -13   14.08    2.28
  -1   5  13    8.15    1.90
  -1  -5 -12   43.47    4.21
   1  -5  12   32.73    3.91
  -1  -5 -12   31.50    3.37
  -1   5  12   34.47    3.40
  -1   5  12   37.15    3.78
   1   5 -12   39.67    4.60
   1   5 -12   31.27    3.00
   1  -5  12   34.54    4.20
   1   5 -11   50.88    4.90
   1  -5  11   39.64    2.33
  -1  -5 -11   45.21    4.16
   1   5 -11   38.67    3.16
   1  -5  11   41.09    4.32
  -1   5  11   41.40    3.11
  -1  -5 -11   37.45    3.45
   1  -5  11   43.67    4.59
  -1   5  11   38.82    2.30
  -1   5  11   40.39    3.33
  -1   5  11   40.33    3.90
   1   5 -10    6.11    2.44
  -1   5  10    4.50    1.29
  -1  -5 -10    4.01    1.98
  -1  -5 -10    2.58    1.34
  -1   5  10    4.23    2.02
  -1   5  10    3.39    0.94
   1   5 -10    5.10    1.50
   1  -5  10    4.24    0.81
   1  -5  10    4.06    2.25
  -1   5  10    3.19    1.23
   1  -5  10    9.35    2.88
  -1  -5  -9  140.20    6.86
   1   5  -9  133.16    7.32
  -1   5   9  130.23    6.51
   1  -5   9  116.07    6.44
  -1  -5  -9  121.19    5.39
  -1   5   9  118.64    5.11
   1   5  -9  116.16    5.00
  -1   5   9  121.04    4.88
   1  -5   9  136.17    7.50
  -1   5   9  131.73    4.91
  -1  -5  -8   49.71    3.90
   1   5  -8   46.81    4.16
   1  -5   8   39.30    3.59
  -1  -5  -8   44.73    3.01
   1   5  -8   43.96    2.81
   1  -5   8   44.62    4.36
  -1   5   8   42.86    3.80
  -1   5   8   45.30    2.81
  -1   5   8   43.04    2.51
  -1  -5  -7   20.58    2.07
   1   5  -7   21.68    2.82
   1  -5   7   24.65    3.28
  -1  -5  -7   27.54    2.76
  -1   5   7   22.88    2.80
   1  -5   7   25.06    2.69
  -1   5   7   22.00    1.85
   1   5  -7   22.63    1.91
  -1   5   7   24.67    1.66
  -1   5   6   14.57    1.27
  -1   5   6   15.52    1.17
   1  -5   6   18.28    2.24
   1   5  -6   12.48    2.07
  -1  -5  -6   17.61    1.71
  -1  -5  -6   18.64    2.16
   1   5  -6   15.67    1.49
  -1   5   6   14.85    2.20
  -1   5   6   17.58    2.11
   1  -5   6   13.82    2.25
  -1  -5  -5  268.66    7.85
   1   5  -5  254.31    8.39
  -1  -5  -5  283.51    7.24
  -1  -5  -5  259.71    7.10
  -1   5   5  257.62    8.66
   1   5  -5  257.55    6.57
   1  -5   5  273.32    8.03
   1  -5   5  258.89    9.02
  -1   5   5  256.80    5.92
  -1   5   5  265.30    8.88
  -1  -5  -4   29.01    1.97
  -1  -5  -4   32.18    1.67
   1   5  -4   30.06    2.50
  -1   5   4   31.16    2.73
   1  -5   4   27.03    2.17
  -1  -5  -4   31.23    1.99
   1   5  -4   29.69    1.66
   1   5  -4   25.65    1.99
   1  -5   4   30.83    2.78
  -1   5   4   28.49    2.90
   1   5  -3   75.86    3.44
  -1  -5  -3   76.81    2.52
  -1  -5  -3   70.59    2.91
  -1   5   3   74.47    4.68
   1   5  -3   73.10    3.20
   1   5  -3   73.43    2.53
   1  -5   3   77.10    3.95
   1  -5   3   74.82    3.28
  -1   5   3   81.47    4.13
   1   5  -2   84.24    3.17
   1   5  -2   82.37    2.57
  -1   5   2   93.12    4.12
  -1  -5  -2   81.49    3.06
   1   5  -2   89.48    3.40
  -1   5   2   88.45    5.39
   1  -5   2   86.70    3.33
   1  -5   2   91.43    3.93
  -1   5   2   78.29    2.66
   1  -5   2   82.22    2.03
  -1  -5  -1  260.85    6.35
   1  -5   1  285.79    5.82
  -1  -5  -1  292.71    6.84
   1   5  -1  290.45    6.17
  -1   5   1  296.12   10.88
  -1   5   1  294.62    6.93
   1  -5   1  303.34    7.56
  -1   5   1  312.84    7.99
  -1   5   1  262.91    7.02
   1   5  -1  286.30    7.23
   1  -5   1  295.35    7.11
   1   5   0    1.16    0.59
  -1  -5   0    1.83    0.65
  -1   5   0    1.59    0.67
  -1  -5   0    2.39    0.58
  -1  -5   0    0.83    0.65
  -1   5   0    2.08    0.66
   1   5   0    2.20    0.38
  -1   5   0    2.16    2.03
   1  -5   0    2.94    0.77
   1  -5   0    1.60    0.53
  -1  -5   0    3.18    0.57
  -1  -5   1  253.90    7.82
   1   5   1  291.43    5.37
   1   5   1  283.05    7.21
  -1   5  -1  273.65   10.30
  -1   5  -1  296.96    6.98
   1  -5  -1  301.20    6.14
  -1  -5   1  305.90    6.86
  -1  -5   1  292.64    6.86
  -1  -5   2   80.57    4.20
  -1   5  -2   85.23    3.22
   1   5   2   82.34    3.32
  -1  -5   2   80.72    3.32
  -1   5  -2   84.29    2.58
  -1   5  -2   80.78    5.25
   1  -5  -2   86.69    2.52
  -1  -5   3   65.45    4.15
   1  -5  -3   73.17    2.37
  -1   5  -3   73.32    4.87
  -1   5  -3   71.90    3.12
   1   5   3   73.38    3.22
  -1   5  -3   73.65    1.98
  -1  -5   3   71.61    3.50
  -1   5  -4   28.98    3.15
   1  -5  -4   27.06    1.49
  -1   5  -4   29.43    1.00
  -1  -5   4   30.04    2.58
  -1   5  -4   29.60    1.10
  -1   5  -4   29.22    2.08
   1   5   4   29.49    2.09
   1  -5  -4   28.64    1.94
  -1  -5   4   25.40    2.97
  -1  -5   5  259.97    9.83
  -1   5  -5  251.84    5.10
  -1   5  -5  269.70    5.43
  -1   5  -5  264.47    7.44
   1  -5  -5  256.89    6.32
   1   5   5  257.46    7.45
   1   5   5  251.80    5.58
  -1   5  -5  261.98    9.18
   1  -5  -5  264.04    7.02
  -1  -5   5  251.67    8.91
  -1   5  -6   16.30    2.19
  -1   5  -6   15.88    1.82
  -1   5  -6   14.24    0.85
  -1  -5   6   15.16    2.70
   1   5   6   13.04    1.70
   1  -5  -6   16.79    1.45
  -1   5  -6   14.51    1.02
   1  -5  -6   15.34    1.64
   1   5   7   20.68    2.18
  -1   5  -7   20.46    1.45
   1  -5  -7   24.05    1.90
   1   5   7   24.07    2.00
  -1   5  -7   22.14    2.30
  -1  -5   7   21.13    3.48
   1  -5  -7   22.17    2.03
   1   5   8   49.76    3.43
  -1  -5   8   40.06    5.03
  -1   5  -8   42.43    3.20
  -1  -5   8   48.24    3.18
   1   5   8   42.60    2.83
   1  -5  -8   44.31    2.85
   1  -5  -8   41.16    3.04
   1   5   9  123.12    5.68
   1  -5  -9  124.14    5.58
   1  -5  -9  121.70    5.18
  -1  -5   9  116.73    5.35
  -1   5  -9  118.18    5.65
  -1   5  -9  121.86    5.12
   1   5   9  126.35    5.26
   1  -5 -10    2.80    1.38
  -1   5 -10    3.89    1.66
   1   5  10    5.08    1.27
  -1  -5  10    3.57    1.39
   1   5  10    4.87    1.48
  -1   5 -10    4.34    1.11
   1  -5 -10    3.32    1.32
   1   5  11   38.59    3.38
   1  -5 -11   33.79    3.12
  -1   5 -11   43.29    2.65
   1   5  11   41.24    3.40
   1  -5 -11   36.69    3.59
  -1  -5  11   35.55    3.20
  -1   5 -11   43.25    3.71
   1  -5 -12   40.83    4.06
  -1  -5  12   32.13    3.10
   1  -5 -12   36.09    3.31
   1   5  12   35.37    3.37
   1   5  12   37.11    3.40
  -1   5 -12   31.37    3.22
  -1  -5  13    7.90    3.15
   1   5  13   11.19    2.14
   1  -5 -13   11.07    2.49
  -1   5 -13   12.28    2.43
  -1  -5  13    8.97    1.88
   1   5  13   11.48    2.18
   1  -5 -13   10.95    2.21
   1   5  14    1.77    1.46
  -1   5 -14    2.30    1.84
  -1  -5  14    3.76    2.33
   1   5  14    2.53    1.56
   1  -5 -14    2.01    1.20
  -1  -5  14    4.49    1.60
   1  -5 -14    4.91    1.99
   1  -5 -15   18.42    3.19
  -1  -5  15   15.47    2.45
  -1  -5  15   14.31    3.35
   1   5  15   20.78    2.92
  -1   5 -15   21.71    3.25
   1   5  15   17.39    2.79
  -1  -5  16    3.38    1.58
   1  -5 -16    3.45    1.89
   1   5  16    3.65    1.47
  -1   5 -16    4.46    2.14
  -1  -5  16    2.78    2.13
   1   5  16    3.06    1.74
   1  -5 -17    2.52    2.11
  -1   5 -17   -0.79    1.56
  -1  -5  17    0.83    1.28
  -1  -5  17    2.00    2.03
   1   5  17    1.18    1.42
   1   5  17    2.25    1.81
  -1   5 -18    5.61    2.43
   1   5  18    8.66    2.41
  -1  -5  18    1.65    2.14
   1  -5 -18    9.10    2.91
  -1  -5  18    2.15    1.36
   1   5  18    4.48    1.60
   1   5  19    2.26    1.56
  -1  -5  19    7.21    2.84
   1  -5 -19    6.84    2.60
  -1  -5  19    0.90    1.22
   1   5  19    3.46    1.79
  -1   5 -19    3.11    2.11
   1   6 -19   -0.73    1.68
   1   6 -18    6.40    2.47
  -1  -6 -18    7.70    2.95
   1   6 -18    5.04    2.09
  -1   6  18    2.73    1.77
   1  -6  18   12.04    3.13
  -1   6  17    3.49    1.80
   1   6 -17    3.92    2.22
  -1  -6 -17    1.99    1.90
   1  -6  17    0.12    1.85
   1   6 -17    2.20    1.45
   1   6 -16    2.08    2.02
   1  -6  16    4.08    2.60
  -1  -6 -16    6.21    2.06
  -1  -6 -16    7.81    2.36
  -1   6  16    7.28    2.26
   1   6 -16    4.56    1.73
   1  -6  16    3.92    2.08
   1  -6  15    4.25    2.78
  -1  -6 -15   -1.06    1.53
   1   6 -15   -2.62    2.29
   1  -6  15   -0.73    1.91
  -1   6  15   -2.31    2.02
   1   6 -15   -0.45    1.38
  -1  -6 -15   -1.84    2.03
   1   6 -14   16.15    2.55
  -1   6  14    9.96    2.60
  -1  -6 -14   16.13    2.91
  -1  -6 -14   12.45    2.73
   1   6 -14   13.67    2.92
   1  -6  14   21.00    3.59
   1  -6  14   18.00    3.52
  -1  -6 -13    1.99    1.68
  -1   6  13    0.41    1.00
   1   6 -13   -1.97    2.18
  -1  -6 -13    1.44    1.19
  -1   6  13    1.19    1.85
   1   6 -13   -0.55    1.33
   1  -6  13    0.58    2.10
   1  -6  13    2.10    2.24
   1  -6  12   17.52    3.08
  -1  -6 -12   19.76    2.93
   1   6 -12   19.59    3.55
  -1  -6 -12   17.16    2.62
  -1   6  12   14.35    2.69
   1   6 -12   18.23    2.41
  -1   6  12   17.24    2.22
   1  -6  12   14.23    3.11
  -1   6  11   12.03    1.75
   1  -6  11    8.06    2.49
  -1   6  11   11.16    2.42
   1   6 -11   10.77    1.88
   1  -6  11    9.61    2.51
  -1  -6 -11   15.15    2.69
  -1   6  11   11.29    1.45
  -1  -6 -11   11.55    2.13
   1   6 -11   12.91    2.75
  -1  -6 -10    6.67    1.89
   1   6 -10    7.54    2.45
  -1   6  10    7.94    1.40
   1  -6  10    4.89    1.92
   1   6 -10    5.73    1.40
  -1   6  10    7.76    2.15
  -1   6  10    7.24    1.36
  -1   6  10    4.89    1.13
  -1  -6 -10    8.99    2.09
   1  -6  10    5.08    2.39
  -1   6   9    6.02    1.11
  -1  -6  -9    6.22    1.63
  -1   6   9    4.08    1.85
   1  -6   9    5.71    2.03
   1   6  -9    4.49    1.32
  -1  -6  -9    7.05    1.84
   1  -6   9    6.97    2.70
  -1   6   9    6.03    1.20
   1   6  -9    4.66    2.25
  -1  -6  -8   73.25    4.49
   1   6  -8   74.47    5.05
   1  -6   8   67.85    4.61
   1  -6   8   72.20    5.32
  -1   6   8   76.19    5.07
  -1   6   8   75.28    3.06
  -1   6   8   70.74    3.24
   1   6  -8   73.58    3.68
  -1  -6  -8   69.96    3.90
  -1   6   7    7.83    0.89
  -1   6   7    7.09    2.13
  -1   6   7    7.44    0.99
  -1  -6  -7    9.20    1.64
   1  -6   7    8.14    1.96
  -1  -6  -7    7.95    1.68
   1   6  -7    6.99    1.21
  -1   6   7    8.73    1.70
   1  -6   7    8.16    2.51
   1   6  -7    7.65    2.06
   1   6  -6   11.31    2.10
  -1  -6  -6    6.18    1.28
  -1  -6  -6    7.43    1.39
  -1   6   6    9.06    1.93
  -1   6   6    7.72    1.73
  -1   6   6    8.15    0.83
   1  -6   6   10.50    2.16
   1  -6   6    7.38    1.80
   1   6  -6    6.72    1.13
   1   6  -5   16.92    1.39
  -1  -6  -5   14.75    1.53
  -1   6   5   17.09    2.40
  -1   6   5   15.82    0.84
   1  -6   5   16.78    2.08
   1   6  -5   15.53    1.63
   1   6  -5   15.22    1.94
   1  -6   5   15.65    2.22
  -1   6   5   14.28    2.36
  -1  -6  -5   15.67    1.64
  -1  -6  -4   70.87    2.75
   1   6  -4   71.30    3.64
   1   6  -4   67.51    2.72
  -1  -6  -4   64.47    1.73
  -1  -6  -4   66.31    3.06
  -1   6   4   73.90    4.24
  -1   6   4   66.94    1.62
   1  -6   4   71.19    4.16
   1  -6   4   65.15    3.43
  -1   6   4   63.36    4.58
  -1   6   4   66.04    2.02
   1   6  -4   66.76    3.27
   1  -6   3   19.90    1.85
  -1   6   3   18.84    1.22
   1   6  -3   18.26    1.29
  -1   6   3   16.66    2.00
  -1  -6  -3   19.57    1.64
  -1   6   3   19.78    2.91
  -1  -6  -3   16.27    0.76
   1   6  -3   17.87    1.67
   1  -6   3   20.14    2.07
  -1  -6  -3   20.30    1.02
  -1  -6  -2   50.32    1.81
  -1   6   2   47.98    2.36
  -1   6   2   51.87    3.10
   1  -6   2   54.93    3.02
   1  -6   2   49.40    2.64
   1   6  -2   47.55    2.03
  -1  -6  -2   48.91    2.44
   1   6  -2   49.05    2.64
   1  -6   2   47.08    1.60
  -1  -6  -2   48.72    1.32
  -1  -6  -1   10.77    0.92
   1  -6   1   10.18    1.20
   1   6  -1    8.29    0.88
  -1  -6  -1    8.48    1.08
  -1   6   1   10.56    1.19
   1  -6   1    9.71    1.21
  -1  -6  -1   11.26    1.22
   1   6  -1   11.16    1.29
  -1   6   1    8.83    2.77
  -1   6   1   10.19    1.32
  -1  -6   0    0.39    0.66
   1   6   0   -0.46    0.73
  -1   6   0   -0.51    0.74
   1   6   0    0.29    0.27
  -1  -6   0   -0.07    0.43
   1  -6   0   -0.61    0.74
  -1  -6   0   -0.43    0.79
  -1   6   0    0.33    0.65
  -1   6   0    0.68    1.90
  -1  -6   0    0.20    0.56
  -1   6  -1   10.15    1.13
  -1  -6   1   10.40    1.58
   1   6   1   11.97    1.40
  -1  -6   1   10.02    1.16
  -1   6  -1   11.00    1.29
  -1   6  -1    6.86    2.61
   1  -6  -1   11.24    0.92
   1  -6  -1    9.81    1.12
  -1  -6   1   10.52    1.06
  -1  -6   2   48.38    3.37
  -1   6  -2   48.23    2.49
  -1   6  -2   39.33    4.37
   1   6   2   49.96    2.73
   1  -6  -2   48.77    1.94
  -1   6  -2   47.14    2.07
  -1  -6   2   44.84    2.40
   1   6   3   20.06    1.86
  -1  -6   3   16.16    1.75
  -1   6  -3   20.11    1.73
   1  -6  -3   19.38    1.24
  -1  -6   3   18.14    2.47
  -1   6  -3   15.29    2.99
  -1   6  -3   17.84    1.09
  -1  -6   4   72.44    4.74
   1  -6  -4   68.86    2.59
   1  -6  -4   69.51    3.10
  -1   6  -4   68.50    3.31
   1   6   4   67.32    3.41
  -1   6  -4   62.97    5.07
  -1   6  -4   66.85    2.06
  -1  -6   4   64.46    3.75
  -1   6  -4   66.68    2.05
   1  -6  -5   16.40    1.34
  -1   6  -5   16.95    0.98
  -1  -6   5   19.26    2.63
   1   6   5   14.88    1.81
  -1   6  -5   19.31    2.93
  -1   6  -5   15.52    1.78
  -1   6  -5   16.20    0.90
  -1  -6   5   15.54    2.71
   1  -6  -5   16.30    1.60
   1  -6  -6    6.78    1.27
  -1   6  -6    7.50    0.67
  -1  -6   6    8.79    2.45
  -1   6  -6    7.22    0.72
   1   6   6    7.18    1.53
   1  -6  -6    6.28    1.03
  -1   6  -6    5.46    1.34
  -1  -6   6    9.18    2.54
  -1   6  -6   11.00    2.37
   1  -6  -7    6.23    1.31
  -1  -6   7    8.38    2.67
   1   6   7    8.35    1.77
  -1   6  -7    6.95    0.71
  -1  -6   7    7.50    2.72
   1  -6  -7    7.49    1.18
  -1   6  -7    6.85    1.64
  -1   6  -7    8.67    2.14
  -1   6  -8   79.70    4.77
  -1   6  -8   66.29    4.14
   1   6   8   74.88    3.76
  -1  -6   8   70.45    6.27
   1   6   8   76.10    4.40
   1  -6  -8   73.59    3.64
   1  -6  -8   72.69    3.97
   1   6   9    5.21    1.27
   1  -6  -9    8.30    1.74
  -1  -6   9    6.92    3.45
  -1   6  -9    4.82    1.52
   1   6   9    2.92    1.46
   1  -6  -9    4.03    1.29
   1   6  10    6.85    1.88
   1   6  10    9.52    1.81
   1   6  10    5.96    1.42
  -1   6 -10    8.65    2.00
  -1   6 -10    7.20    1.47
   1  -6 -10    7.81    1.78
   1  -6 -10    7.80    1.66
  -1   6 -11   11.33    1.62
  -1   6 -11    8.35    1.92
   1  -6 -11   13.58    2.32
   1   6  11   10.65    2.04
   1  -6 -11   11.01    1.90
  -1  -6  11   11.57    2.00
   1   6  11   12.94    1.96
  -1   6 -12   13.69    2.45
  -1  -6  12   13.32    2.07
   1  -6 -12   13.03    2.27
   1  -6 -12   21.33    3.03
  -1  -6  12   12.39    3.47
   1   6  12   18.44    2.49
   1   6  12   16.01    2.35
   1   6  13    0.41    1.39
   1  -6 -13   -0.47    1.67
  -1   6 -13    0.81    1.54
  -1  -6  13   -1.17    1.35
  -1  -6  13   -2.18    2.94
   1   6  13   -0.38    1.43
   1  -6 -13   -0.96    1.39
   1  -6 -14   13.88    2.50
   1   6  14   13.55    2.55
   1  -6 -14   15.61    2.86
  -1  -6  14   10.61    2.00
  -1  -6  14   12.40    3.19
  -1   6 -14   15.48    2.81
   1   6  14   14.39    2.44
   1  -6 -15    0.58    1.51
   1  -6 -15    1.36    1.77
   1   6  15   -1.66    1.69
  -1  -6  15   -0.22    2.18
  -1  -6  15   -0.34    1.12
  -1   6 -15    0.03    1.64
   1   6  15    0.01    1.11
   1   6  16    3.98    1.80
  -1   6 -16    6.02    2.36
   1   6  16    7.35    2.18
  -1  -6  16    1.92    2.46
   1  -6 -16    1.46    1.95
  -1  -6  16    6.48    1.81
  -1  -6  17    3.12    2.29
   1  -6 -17    2.65    2.06
   1   6  17    0.33    1.54
  -1   6 -17    1.73    1.97
  -1  -6  17    0.32    1.33
   1   6  17    5.30    1.98
   1   6  18    6.80    2.04
  -1  -6  18    8.40    2.93
   1   6  18    5.27    1.83
   1  -6 -18    4.21    2.08
  -1   6 -18    6.00    2.24
  -1  -6  18    3.56    1.68
   1   6  19   -0.77    1.37
   1  -6 -19   -2.83    2.19
   1   7 -19    6.25    2.08
  -1  -7 -18    1.10    2.15
  -1   7  18    0.90    1.48
   1   7 -18    0.13    1.68
   1   7 -18    2.67    1.75
   1  -7  18   -2.29    1.81
   1   7 -17   13.49    2.70
  -1  -7 -17    8.20    2.57
  -1   7  17   10.26    2.52
   1   7 -17    9.24    2.60
   1  -7  17   11.95    2.90
   1  -7  16   15.77    3.24
   1  -7  16   18.93    3.51
   1   7 -16   16.84    3.31
  -1   7  16   14.61    2.99
  -1  -7 -16   14.10    2.98
   1   7 -16   12.05    2.40
   1  -7  15    0.20    1.77
   1   7 -15    3.66    2.50
   1  -7  15    1.42    1.91
   1   7 -15    0.10    1.30
  -1   7  15    1.07    1.74
  -1  -7 -15    1.80    1.63
   1   7 -14    1.80    2.24
   1  -7  14   -1.65    2.11
   1   7 -14    2.29    1.56
  -1  -7 -14    1.62    1.86
  -1  -7 -14    4.38    1.86
  -1   7  14    1.02    1.62
   1  -7  14    3.70    2.23
  -1  -7 -13   71.57    5.28
   1  -7  13   56.41    5.30
   1   7 -13   65.25    5.61
  -1  -7 -13   61.29    4.81
   1   7 -13   57.41    4.21
  -1   7  13   58.61    5.05
   1  -7  13   69.87    5.95
  -1  -7 -12   32.76    3.62
  -1  -7 -12   22.77    2.87
   1   7 -12   35.87    4.30
  -1   7  12   30.31    3.59
   1   7 -12   29.91    2.99
   1  -7  12   27.27    3.81
   1  -7  12   33.42    4.29
   1   7 -11    5.19    1.42
  -1   7  11    5.81    1.14
   1   7 -11    6.27    2.07
   1  -7  11    4.47    1.92
  -1   7  11    6.33    1.99
  -1   7  11    6.82    1.37
  -1  -7 -11    9.09    2.11
   1  -7  11    4.47    2.18
  -1  -7 -11    4.68    1.76
   1   7 -10   19.08    2.21
   1   7 -10   17.30    2.92
  -1  -7 -10   17.93    2.56
   1  -7  10   14.84    2.81
  -1  -7 -10   18.44    2.38
  -1   7  10   19.68    2.96
   1  -7  10   19.99    3.40
  -1   7  10   18.61    1.66
  -1  -7  -9   55.30    4.00
   1   7  -9   49.62    4.40
   1  -7   9   49.63    4.31
  -1   7   9   55.75    4.57
   1   7  -9   48.14    3.17
  -1  -7  -9   51.30    3.61
   1  -7   9   55.73    5.05
  -1   7   9   49.78    2.45
  -1   7   8   11.81    2.29
   1  -7   8   19.22    2.91
   1   7  -8   16.80    1.87
   1   7  -8   17.99    2.78
  -1  -7  -8   15.30    1.98
  -1   7   8   20.48    2.55
  -1   7   8   16.70    1.45
  -1  -7  -8   17.51    2.30
  -1   7   8   15.60    1.26
   1  -7   8   22.79    3.31
  -1  -7  -7  138.35    5.66
   1   7  -7  144.25    6.61
   1   7  -7  131.57    5.42
   1  -7   7  137.95    6.36
  -1  -7  -7  139.93    5.47
  -1   7   7  157.55    7.01
  -1   7   7  154.09    7.19
   1   7  -7  139.83    5.04
  -1   7   7  132.15    3.98
   1  -7   7  138.34    7.10
   1   7  -6   94.16    4.96
   1  -7   6   90.47    4.82
  -1   7   6   93.44    5.60
   1   7  -6   91.65    3.74
  -1   7   6   92.23    5.48
  -1   7   6   92.44    2.78
   1  -7   6   86.55    5.26
  -1  -7  -6   87.33    4.10
   1   7  -6   90.71    4.18
  -1  -7  -6   93.44    4.14
  -1  -7  -5    2.10    1.15
  -1   7   5    1.55    0.32
   1   7  -5    1.05    0.84
   1  -7   5    1.04    1.33
   1   7  -5    1.26    0.68
  -1  -7  -5    0.37    0.67
  -1   7   5    2.35    1.88
   1  -7   5    1.56    1.33
  -1   7   5    1.56    1.44
   1   7  -4   36.30    2.07
  -1  -7  -4   35.52    2.31
  -1   7   4   36.12    1.73
   1  -7   4   33.11    2.95
   1  -7   4   33.01    2.61
  -1   7   4   30.05    3.61
  -1   7   4   35.67    3.06
   1   7  -4   35.74    2.45
  -1  -7  -4   34.05    1.27
  -1  -7  -4   36.15    1.74
   1  -7   3  247.11    7.35
  -1  -7  -3  241.02    5.21
  -1  -7  -3  249.80    5.23
  -1  -7  -3  252.35    6.86
  -1   7   3  266.98    8.44
  -1   7   3  234.09   10.50
   1   7  -3  245.58    6.25
  -1   7   3  232.02    6.21
   1   7  -3  246.01    7.04
   1  -7   3  257.64    7.98
  -1  -7  -2   89.94    2.87
   1   7  -2   88.21    3.13
  -1   7   2   89.90    6.68
  -1   7   2   95.74    4.44
  -1   7   2   94.36    3.81
   1  -7   2   99.54    4.25
   1  -7   2   94.77    3.91
  -1  -7  -2   95.89    3.68
   1   7  -2   86.15    3.79
  -1  -7  -2   88.46    2.26
   1  -7   1  160.32    5.09
  -1  -7  -1  160.68    4.32
  -1  -7  -1  151.80    4.73
  -1   7   1  156.62    4.95
   1   7  -1  140.76    4.27
  -1   7   1  132.37    8.77
  -1  -7  -1  146.18    4.81
  -1   7   1  157.85    5.66
   1   7  -1  149.94    5.16
  -1  -7   0   58.23    2.86
  -1   7   0   61.75    3.11
  -1   7   0   56.47    2.75
   1  -7   0   58.51    2.38
  -1  -7   0   54.98    2.73
  -1  -7   0   57.95    3.15
   1  -7   0   56.31    2.77
   1   7   0   54.94    2.93
  -1  -7   0   60.63    2.32
  -1   7   0   53.53    6.02
  -1  -7   1  166.58    6.12
   1  -7  -1  146.25    4.76
  -1   7  -1  155.65    4.91
   1  -7  -1  148.16    4.19
  -1  -7   1  149.81    4.45
  -1   7  -1  128.77    8.87
  -1   7  -1  154.05    4.96
   1   7   1  143.76    5.14
  -1  -7   1  146.86    4.78
  -1  -7   2   90.40    4.85
  -1   7  -2   90.14    3.69
   1  -7  -2   90.76    3.06
  -1   7  -2   76.38    6.67
   1  -7  -2   92.13    3.52
   1   7   2   90.32    3.97
  -1   7  -2   90.09    3.33
  -1  -7   2   92.68    3.70
   1  -7  -3  248.73    6.06
  -1  -7   3  249.06    9.02
   1   7   3  247.45    7.41
  -1   7  -3  239.92    5.97
  -1   7  -3  251.96    7.13
  -1   7  -3  229.29   11.07
   1  -7  -3  245.23    5.34
  -1  -7   3  243.47    7.37
  -1   7  -4   35.38    1.66
  -1  -7   4   35.12    3.63
  -1   7  -4   33.39    4.23
   1  -7  -4   32.10    1.51
  -1   7  -4   33.77    2.41
   1  -7  -4   35.25    1.90
   1   7   4   35.80    2.68
  -1  -7   4   33.50    2.83
   1  -7  -5    2.91    1.00
   1  -7  -5    1.58    0.69
   1   7   5    1.85    1.18
  -1  -7   5    0.37    1.87
  -1   7  -5    2.38    0.52
  -1   7  -5    0.98    1.06
  -1   7  -5    2.95    2.05
  -1  -7   5    3.21    1.66
  -1  -7   6   93.98    6.25
  -1   7  -6   90.93    2.78
   1  -7  -6   91.50    3.60
   1   7   6   96.11    4.71
  -1   7  -6   92.79    6.08
  -1   7  -6   89.76    4.38
  -1  -7   6   79.14    5.59
   1  -7  -6   91.52    4.04
  -1  -7   7  145.91    8.04
  -1   7  -7  132.42    3.69
   1   7   7  144.51    6.11
  -1   7  -7  138.49    5.68
   1  -7  -7  142.89    4.95
  -1   7  -7  139.95    7.28
  -1  -7   7  134.10    7.63
   1  -7  -7  146.61    5.48
   1   7   8   22.18    2.58
   1  -7  -8   17.85    1.82
  -1  -7   8   15.11    3.65
  -1   7  -8   17.53    2.79
   1  -7  -8   14.10    1.86
  -1  -7   8   17.00    3.41
  -1   7  -8   15.48    2.11
  -1   7  -8   13.90    1.09
   1  -7  -9   49.89    3.23
  -1  -7   9   42.97    5.26
  -1   7  -9   53.55    4.16
  -1   7  -9   47.75    3.65
   1   7   9   50.39    3.24
  -1   7  -9   48.37    2.22
   1   7   9   51.10    3.87
   1  -7  -9   49.15    3.48
   1   7  10   19.18    2.57
   1  -7 -10   19.73    2.32
  -1  -7  10   13.88    3.65
   1  -7 -10   19.18    2.45
   1   7  10   16.60    2.02
  -1   7 -10   15.34    2.27
   1  -7 -11    4.15    1.62
   1   7  11    3.54    1.53
  -1  -7  11    6.85    3.67
  -1   7 -11    7.79    1.97
   1  -7 -11    5.76    1.53
   1   7  11    6.06    1.54
   1  -7 -12   25.27    2.83
   1   7  12   28.46    3.27
  -1  -7  12   27.71    4.73
  -1   7 -12   21.74    2.86
   1   7  12   26.83    2.80
   1  -7 -12   31.29    3.48
   1  -7 -13   57.42    4.83
   1   7  13   63.20    4.87
  -1   7 -13   59.27    4.71
   1   7  13   58.98    4.42
   1  -7 -13   63.13    4.62
  -1  -7  13   57.97    6.05
   1   7  14    0.47    1.26
   1  -7 -14    3.60    2.02
  -1   7 -14    4.10    1.99
   1  -7 -14    2.56    1.70
  -1  -7  14    3.18    2.66
   1   7  14    2.69    1.56
   1  -7 -15    2.65    1.77
   1   7  15    2.04    1.46
  -1  -7  15   -0.76    2.05
   1  -7 -15    4.31    1.90
   1   7  15    4.13    1.59
  -1   7 -15    3.74    1.99
  -1  -7  16   15.22    3.29
   1   7  16   14.08    2.52
   1   7  16   15.74    2.90
   1  -7 -16    7.46    2.47
  -1   7 -16   12.60    2.65
   1  -7 -16   12.28    2.69
  -1  -7  17    9.33    2.79
   1  -7 -17    5.73    2.40
   1   7  17   10.21    2.53
  -1   7 -17    7.84    2.49
   1   7  17   10.55    2.50
   1  -7 -18    1.00    1.66
   1   7  18   -0.09    1.51
  -1  -7  18    4.06    2.17
  -1   7 -18    1.21    2.10
   1   7  19    6.42    2.09
   1  -7 -19    3.72    2.33
   1   8 -19    1.66    1.45
   1   8 -18   -0.69    1.58
  -1  -8 -17    5.55    2.45
   1  -8  17    3.29    2.59
  -1   8  17    8.00    2.36
   1   8 -17    5.92    2.04
   1  -8  17    5.43    2.47
  -1  -8 -16   -1.12    2.09
   1  -8  16   -1.21    2.07
  -1   8  16    2.04    1.83
   1   8 -16   -0.37    1.46
  -1  -8 -15   -1.76    2.07
   1  -8  15   -1.51    1.98
   1   8 -15    0.36    1.43
   1  -8  15    1.52    2.10
   1  -8  14    6.78    2.37
   1   8 -14    5.49    1.72
  -1  -8 -14    7.41    2.42
  -1   8  14    4.70    1.98
   1  -8  14    6.76    2.37
  -1  -8 -13   15.48    2.56
   1  -8  13   11.06    2.82
   1   8 -13    8.54    2.60
  -1   8  13   14.01    2.93
   1   8 -13    8.58    1.81
   1  -8  13   15.76    3.44
   1  -8  12    7.35    2.59
  -1  -8 -12    1.64    1.53
  -1   8  12    5.22    1.95
   1   8 -12    3.27    2.22
   1  -8  12    4.92    2.14
   1   8 -12    6.10    1.61
   1  -8  11   14.75    3.06
   1   8 -11   16.35    3.02
  -1  -8 -11   17.33    2.43
  -1   8  11   14.36    2.74
   1   8 -11   12.81    1.96
  -1  -8 -11   19.06    2.64
   1  -8  11   13.70    2.96
   1  -8  10    2.10    1.92
   1  -8  10    5.19    2.48
   1   8 -10    4.23    1.95
  -1  -8 -10    1.54    1.16
  -1  -8 -10    3.54    1.38
   1   8 -10    3.04    1.22
  -1   8  10    3.91    2.02
  -1  -8  -9   20.30    2.48
  -1  -8  -9   19.40    2.25
  -1   8   9   20.64    2.99
  -1   8   9   20.28    2.57
   1   8  -9   20.42    2.18
   1   8  -9   22.05    2.38
   1  -8   9   23.40    3.40
   1  -8   9   18.89    2.88
   1   8  -8   14.90    2.00
  -1  -8  -8   17.72    2.23
   1  -8   8   16.27    2.77
  -1   8   8   14.66    2.44
   1   8  -8   17.39    1.97
  -1   8   8   11.54    2.34
  -1  -8  -8   16.53    2.14
   1  -8   8   16.88    2.94
  -1  -8  -7   45.27    3.05
   1  -8   7   50.32    3.99
   1   8  -7   51.20    3.30
  -1   8   7   50.10    4.26
  -1  -8  -7   50.42    3.29
   1   8  -7   45.26    2.88
  -1   8   7   51.04    2.15
   1  -8   7   45.80    4.05
  -1   8   7   56.81    4.56
   1   8  -6    0.21    0.91
  -1   8   6    0.79    1.76
  -1  -8  -6    0.81    1.00
   1   8  -6    0.79    0.82
  -1   8   6    0.96    0.36
  -1  -8  -6    1.63    0.79
  -1   8   6    0.31    1.78
   1  -8   6    1.33    1.65
   1  -8   6    1.17    1.35
  -1  -8  -5   12.02    1.26
  -1  -8  -5   12.55    1.73
  -1   8   5   11.09    2.19
   1   8  -5   10.79    1.37
   1  -8   5   11.69    2.09
  -1   8   5   11.07    1.05
  -1  -8  -5   10.77    0.82
  -1   8   5   10.08    2.65
   1   8  -5   12.85    1.69
   1  -8   5   13.84    2.25
  -1  -8  -4   13.68    0.92
   1   8  -4   14.38    1.46
  -1   8   4   12.93    3.19
  -1  -8  -4   14.98    1.71
  -1   8   4   16.12    2.20
   1  -8   4   16.94    2.12
  -1   8   4   14.77    1.32
   1   8  -4   13.21    1.67
   1  -8   4   16.06    2.14
  -1  -8  -4   15.87    1.13
  -1  -8  -3   79.47    3.63
  -1  -8  -3   75.47    2.49
  -1   8   3   70.51    6.17
   1   8  -3   74.95    3.12
  -1   8   3   79.67    4.44
   1  -8   3   78.57    4.13
   1  -8   3   75.73    3.84
   1   8  -3   71.25    3.59
  -1  -8  -3   75.73    2.29
   1   8  -2    7.17    1.02
   1   8  -2    8.09    1.42
  -1  -8  -2    7.87    1.27
  -1   8   2   11.74    1.76
  -1  -8  -2    8.27    0.95
   1  -8   2    8.41    1.42
  -1   8   2    5.28    3.02
  -1  -8  -1   54.43    2.71
  -1  -8  -1   56.59    2.93
   1  -8   1   54.36    2.95
  -1   8   1   58.01    3.00
   1   8  -1   50.83    2.49
   1   8  -1   53.49    3.09
  -1   8   1   59.71    6.90
  -1   8   1   60.70    3.45
  -1  -8   0    3.76    0.67
   1   8   0    4.42    1.11
  -1   8   0    3.74    1.17
   1  -8   0    3.66    0.81
  -1  -8   0    2.81    1.00
  -1  -8   0    2.97    1.07
   1  -8   0    4.16    1.04
  -1   8   0    2.71    0.95
  -1  -8   1   61.37    3.77
   1  -8  -1   58.41    2.53
  -1   8  -1   54.74    2.95
  -1  -8   1   57.92    2.96
   1  -8  -1   53.33    2.81
  -1  -8   1   56.23    2.53
  -1   8  -1   53.03    6.63
   1   8   1   62.76    3.31
  -1   8  -1   62.09    3.12
   1   8   2    8.14    1.51
  -1  -8   2    9.33    1.26
  -1  -8   2    9.79    1.92
   1  -8  -2    8.76    1.03
  -1   8  -2    7.65    1.32
   1  -8  -2    7.73    1.16
  -1   8  -2    6.64    3.27
  -1   8  -2    9.73    1.27
  -1  -8   3   85.08    5.19
  -1   8  -3   77.54    3.15
   1  -8  -3   80.35    3.06
  -1   8  -3   79.73    3.77
  -1   8  -3   79.38    7.15
   1  -8  -3   76.10    2.25
  -1  -8   3   79.75    3.84
   1   8   3   78.76    2.60
   1   8   3   77.58    4.00
  -1  -8   4   18.22    2.94
   1  -8  -4   14.64    1.34
   1   8   4   13.61    0.90
  -1   8  -4   15.20    1.87
  -1   8  -4    9.20    2.97
  -1   8  -4   15.03    1.27
  -1  -8   4   16.94    2.12
   1  -8  -4   13.72    0.93
   1   8   4   16.01    2.06
   1  -8  -5   11.29    1.48
  -1   8  -5   13.18    1.14
  -1  -8   5   12.60    2.30
   1   8   5   11.44    1.96
   1  -8  -5   12.00    1.28
  -1   8  -5   10.52    1.75
  -1   8  -5   11.40    2.98
  -1  -8   5    9.52    2.68
   1   8   5   10.80    0.77
  -1  -8   6   -0.95    1.64
   1  -8  -6    2.00    1.02
   1  -8  -6    1.02    0.68
  -1   8  -6    0.25    0.46
   1   8   6    1.40    1.34
  -1   8  -6    1.76    2.17
  -1  -8   6   -2.84    2.38
  -1   8  -6   -0.34    1.20
  -1  -8   7   57.70    5.21
   1  -8  -7   51.06    2.87
  -1   8  -7   43.77    3.27
  -1   8  -7   51.41    4.81
   1  -8  -7   51.80    3.18
  -1   8  -7   48.61    2.10
   1   8   7   50.57    3.74
  -1  -8   7   57.79    5.17
  -1   8  -8   15.23    2.19
   1  -8  -8   13.89    1.88
  -1  -8   8   16.29    3.59
  -1  -8   8   24.40    4.06
   1   8   8   14.75    2.35
   1  -8  -8   17.35    1.85
  -1   8  -8   20.92    3.15
  -1   8  -8   15.00    1.17
  -1   8  -9   20.29    2.53
  -1  -8   9   27.21    4.07
   1   8   9   23.62    2.29
   1  -8  -9   21.55    2.18
  -1  -8   9   18.97    3.60
  -1   8  -9   18.00    2.62
   1   8   9   23.21    2.86
   1  -8  -9   21.25    2.40
   1  -8 -10    3.94    1.47
  -1  -8  10    2.78    2.56
  -1   8 -10    1.66    1.28
  -1   8 -10    4.41    1.75
   1   8  10    3.45    1.64
   1   8  10    2.35    1.17
   1  -8 -10    2.06    1.16
   1   8  11   18.24    2.62
   1  -8 -11   13.69    2.27
  -1  -8  11   14.91    3.92
   1  -8 -11   17.60    2.27
  -1   8 -11   12.89    2.26
   1   8  11   16.60    2.23
   1   8  12    6.22    1.51
  -1  -8  12    2.04    2.86
  -1   8 -12    2.38    1.60
   1  -8 -12    3.03    1.25
   1   8  12    5.65    1.89
   1  -8 -12    6.26    1.88
   1   8  13   14.79    2.67
   1  -8 -13   11.66    2.26
  -1  -8  13   13.37    3.43
   1   8  13   10.24    1.96
  -1   8 -13   12.56    2.38
   1  -8 -13    8.30    2.24
  -1  -8  14    4.33    2.26
   1  -8 -14    7.54    1.95
   1   8  14    2.70    1.86
  -1   8 -14    2.18    1.67
   1  -8 -14    2.21    1.61
   1   8  14    1.86    1.40
   1  -8 -15    3.49    1.65
  -1  -8  15    0.30    1.95
   1   8  15   -0.86    1.82
  -1   8 -15    0.93    1.32
   1  -8 -15    4.05    2.24
   1   8  15    2.58    1.59
   1  -8 -16    2.91    2.31
  -1   8 -16    2.33    1.83
   1   8  16    2.04    1.73
  -1  -8  16    0.63    2.42
   1  -8 -16    1.99    1.53
   1   8  16   -2.01    1.79
   1  -8 -17    7.85    2.58
  -1  -8  17    7.67    2.77
   1   8  17    3.38    1.66
   1  -8 -17    6.62    2.14
  -1   8 -17    1.48    1.85
   1  -8 -18    0.21    2.05
   1   8  18    1.76    1.35
   1   9 -18    2.93    1.76
   1   9 -17   -0.56    1.60
  -1   9  17   -1.36    1.93
  -1  -9 -17    2.98    2.06
   1  -9  17   -1.41    2.61
   1  -9  17    0.86    1.97
   1  -9  16    6.53    2.68
  -1  -9 -16    1.45    1.90
  -1   9  16    3.95    2.32
   1   9 -16   -0.06    1.34
   1  -9  16    1.78    2.12
  -1  -9 -15   10.38    2.72
   1  -9  15    7.32    2.47
  -1   9  15    6.89    2.36
   1   9 -15    4.65    1.72
   1  -9  15    7.99    3.00
   1  -9  14    1.42    1.72
  -1   9  14    3.28    1.78
   1   9 -14    2.30    1.49
  -1  -9 -14    3.58    1.90
   1  -9  14    6.48    2.57
   1  -9  13    8.74    2.56
  -1  -9 -13    4.96    1.70
  -1   9  13   10.73    2.53
   1   9 -13    4.83    1.65
   1  -9  13   10.18    2.96
   1   9 -12   16.52    2.39
  -1  -9 -12   17.07    2.75
  -1   9  12   21.84    3.44
   1   9 -12   15.38    2.26
   1  -9  12   19.52    3.45
   1  -9  12   15.51    3.40
   1  -9  11    6.49    2.63
  -1  -9 -11    3.76    1.58
  -1   9  11    3.24    1.88
   1   9 -11    4.46    1.49
   1   9 -11    4.04    1.43
   1  -9  11    6.43    2.49
   1  -9  10   -0.09    1.74
  -1  -9 -10   -1.89    1.29
  -1   9  10    2.54    1.29
   1   9 -10    1.18    1.05
  -1   9  10    1.81    1.63
   1   9 -10    0.05    1.10
   1  -9  10    1.65    1.85
  -1  -9  -9   30.62    2.90
   1   9  -9   28.74    2.57
  -1   9   9   30.96    3.37
   1  -9   9   29.28    3.49
  -1   9   9   29.75    3.68
   1   9  -9   26.60    2.62
   1  -9   9   27.97    3.62
  -1  -9  -8   40.54    3.12
   1  -9   8   42.22    3.95
  -1   9   8   45.17    4.13
  -1  -9  -8   45.42    3.34
  -1   9   8   46.97    4.37
   1   9  -8   44.23    3.02
   1   9  -8   45.82    3.23
   1  -9   8   47.18    4.30
  -1  -9  -7    0.66    1.00
   1  -9   7    5.39    2.08
   1   9  -7    4.16    1.17
  -1   9   7    2.01    1.79
  -1  -9  -7    1.31    0.95
  -1   9   7    2.65    2.03
   1   9  -7    3.10    1.19
   1  -9   7    1.22    1.70
  -1  -9  -6   18.82    1.74
  -1  -9  -6   19.20    2.14
  -1   9   6   18.19    2.69
   1  -9   6   16.86    2.56
   1   9  -6   18.55    1.88
  -1   9   6   14.68    3.15
   1   9  -6   17.49    2.04
   1  -9   6   20.70    2.79
  -1  -9  -6   16.89    1.11
  -1  -9  -5   37.83    1.68
  -1   9   5   44.07    3.76
   1   9  -5   41.79    2.59
   1  -9   5   37.98    3.22
   1  -9   5   39.08    3.45
  -1   9   5   35.87    4.70
  -1  -9  -5   40.22    2.85
   1   9  -5   34.30    2.69
  -1  -9  -5   42.28    2.17
  -1  -9  -4   20.19    2.00
   1  -9   4   19.67    2.29
   1   9  -4   24.82    1.95
   1   9  -4   21.38    2.17
  -1  -9  -4   22.59    1.32
  -1   9   4   21.75    2.62
  -1   9   4   19.10    3.76
   1  -9   4   23.50    2.58
  -1  -9  -4   21.99    1.33
  -1  -9  -3   15.04    1.22
   1   9  -3   13.55    1.82
   1  -9   3   15.99    2.00
   1   9  -3   15.64    1.53
  -1  -9  -3   15.18    1.79
  -1   9   3   17.12    3.88
  -1  -9  -3   17.14    1.06
  -1  -9  -2   81.82    3.25
   1   9  -2   88.50    4.21
  -1   9   2   94.43    4.91
  -1  -9  -2   92.57    4.02
   1   9  -2   83.00    3.51
  -1   9   2   73.16    7.24
   1  -9   2   89.59    4.23
  -1  -9  -1   40.00    2.45
  -1   9   1   45.14    3.26
  -1  -9  -1   41.93    2.69
   1   9  -1   41.27    2.35
  -1   9   1   43.95    2.79
   1  -9   1   49.31    2.92
   1   9  -1   39.83    2.83
  -1   9   1   37.35    6.33
  -1  -9   0   -0.08    0.95
  -1   9   0   -0.87    1.05
   1   9   0   -0.22    0.94
   1  -9   0    1.54    1.04
  -1   9   0    0.14    1.02
   1  -9   0    0.87    0.70
  -1   9   0   -0.04    4.46
  -1  -9   0    0.49    0.96
  -1  -9   0    0.39    0.46
   1  -9  -1   41.07    2.58
  -1  -9   1   44.01    3.21
  -1   9  -1   43.46    2.87
   1   9   1   43.73    3.02
  -1  -9   1   43.80    2.74
   1  -9  -1   40.51    2.23
  -1   9  -1   38.30    2.64
  -1  -9   1   41.77    2.21
  -1   9  -1   41.45    6.73
   1  -9  -2   87.66    3.81
  -1  -9   2   96.18    5.20
  -1  -9   2   83.41    3.92
   1  -9  -2   91.48    3.48
  -1   9  -2   87.31    4.05
   1   9   2   86.14    4.32
  -1   9  -2   80.70    8.07
   1  -9  -2   89.48    2.56
  -1   9  -2   90.45    3.99
  -1  -9   2   88.12    3.74
  -1   9  -3   16.46    1.64
  -1  -9   3   21.41    2.90
  -1  -9   3   16.85    1.87
  -1   9  -3   10.43    4.07
   1  -9  -3   14.74    1.59
  -1   9  -3   17.09    1.94
   1  -9  -3   17.05    1.48
   1   9   3   16.81    2.12
   1  -9  -3   15.35    0.84
  -1  -9   4   23.66    3.23
   1   9   4   21.30    2.38
  -1   9  -4   22.50    2.28
   1  -9  -4   24.89    1.80
  -1   9  -4   23.62    4.67
  -1   9  -4   23.39    1.80
  -1  -9   4   25.75    2.59
  -1  -9   5   46.57    4.59
   1  -9  -5   40.70    2.38
  -1   9  -5   40.82    2.25
  -1   9  -5   40.06    3.06
  -1   9  -5   39.07    5.01
   1   9   5   39.99    3.29
  -1  -9   5   43.51    3.58
   1  -9  -5   39.82    2.72
   1  -9  -6   17.87    1.94
  -1   9  -6   18.77    1.47
  -1  -9   6   17.05    2.97
   1   9   6   19.12    2.45
  -1   9  -6   23.93    4.03
   1  -9  -6   19.26    1.82
  -1   9  -6   19.02    2.25
  -1  -9   6   23.08    3.47
   1  -9  -7    2.04    1.09
   1   9   7    3.18    1.45
   1  -9  -7    2.30    0.96
  -1  -9   7    3.74    2.54
  -1  -9   7    4.15    2.13
  -1   9  -7    2.62    2.18
  -1   9  -7    2.33    1.39
  -1  -9   8   51.94    5.21
   1   9   8   48.71    3.92
   1  -9  -8   44.33    2.90
  -1   9  -8   41.96    3.36
  -1   9  -8   41.45    4.37
   1  -9  -8   41.04    3.05
   1  -9  -9   29.35    2.55
  -1   9  -9   26.84    3.35
  -1  -9   9   24.37    3.72
  -1   9  -9   26.43    2.84
   1   9   9   28.98    3.17
  -1  -9   9   30.52    4.12
   1   9   9   26.75    2.45
   1  -9  -9   28.20    2.75
   1  -9 -10    0.67    1.02
   1  -9 -10    0.56    1.02
   1   9  10    0.74    0.98
  -1  -9  10    1.88    2.36
   1   9  10   -1.34    1.62
  -1   9 -10   -0.71    1.50
  -1   9 -10    0.23    1.14
   1   9  11    5.02    1.64
   1  -9 -11    4.55    1.62
   1  -9 -11    6.19    1.73
  -1   9 -11    5.46    1.74
   1   9  11    3.80    1.35
   1   9  11    6.61    2.12
  -1  -9  11    3.63    2.95
  -1  -9  12   15.02    3.99
   1  -9 -12   18.52    2.71
   1   9  12   15.75    2.65
   1  -9 -12   14.10    2.36
  -1   9 -12   14.87    2.42
   1   9  12   16.71    2.30
   1  -9 -13    8.76    2.26
  -1  -9  13    6.92    3.04
  -1   9 -13    7.13    1.83
   1  -9 -13    7.57    1.85
   1   9  13    8.54    1.80
   1   9  13   12.16    2.58
   1  -9 -14    1.26    1.50
   1  -9 -14    1.85    1.73
  -1  -9  14   -0.65    2.02
  -1   9 -14    2.19    1.71
   1   9  14    4.78    1.76
   1   9  14    1.75    1.16
   1  -9 -15    6.41    2.25
   1  -9 -15    7.26    2.12
  -1  -9  15    1.79    2.17
   1   9  15    5.68    2.03
  -1   9 -15    6.26    2.22
   1  -9 -16    0.62    1.89
   1   9  16    1.94    2.10
   1  -9 -16    1.07    1.27
  -1   9 -16   -1.04    1.91
  -1  -9  16    3.56    2.87
  -1  -9  17    2.52    2.11
   1  -9 -17    2.28    1.86
   1   9  17    1.43    1.74
   1  -9 -17   -1.55    1.65
  -1   9 -17    2.65    2.10
   1  -9 -18    1.85    1.78
   1  -9 -18    3.24    1.87
   1   9  18    6.65    2.46
   1  10 -18    1.37    1.53
   1  10 -17    0.25    1.46
  -1 -10 -16    3.14    1.85
   1  10 -16    2.58    1.41
  -1  10  16   -3.63    1.98
   1 -10  16   -0.36    1.77
   1 -10  16    1.28    2.07
   1 -10  15   17.97    3.73
  -1  10  15   18.42    3.38
  -1 -10 -15   16.31    2.91
   1  10 -15   15.89    2.64
   1 -10  15   22.02    4.12
   1 -10  14    9.15    3.25
   1  10 -14    7.60    1.90
   1  10 -14    6.53    1.86
  -1  10  14   12.22    2.94
  -1 -10 -14    8.42    2.23
   1 -10  14    8.97    2.90
   1  10 -13    0.39    1.10
  -1 -10 -13    2.25    1.88
   1 -10  13   -1.31    2.19
  -1  10  13    1.55    2.02
   1  10 -13    1.07    1.33
   1 -10  13   -1.74    1.82
  -1 -10 -12    4.66    1.68
  -1  10  12    4.95    2.01
   1  10 -12    4.45    1.57
   1 -10  12    4.65    2.31
   1 -10  12    8.39    2.71
   1  10 -12    4.12    1.54
   1 -10  11   42.05    4.53
   1  10 -11   35.45    3.20
  -1  10  11   40.48    4.40
  -1 -10 -11   37.26    3.55
   1  10 -11   36.82    3.16
   1 -10  11   39.64    4.45
   1 -10  10   16.22    3.25
  -1 -10 -10    9.31    2.03
  -1  10  10    7.56    2.47
  -1  10  10   10.10    2.03
   1  10 -10    8.58    1.65
   1 -10  10    9.92    2.46
   1  10 -10    8.69    1.71
   1  10  -9   18.79    2.30
   1 -10   9   15.09    2.79
   1  10  -9   20.78    2.31
  -1 -10  -9   19.37    2.54
  -1  10   9   24.49    3.47
  -1  10   9   24.01    3.07
   1 -10   9   16.53    2.83
   1  10  -8   22.26    2.47
   1  10  -8   22.84    2.28
   1 -10   8   21.69    3.20
  -1  10   8   26.74    3.50
  -1  10   8   20.26    3.17
  -1 -10  -8   25.87    2.68
   1 -10   8   25.90    3.42
   1  10  -7   19.40    2.06
   1 -10   7   22.63    2.96
  -1  10   7   24.37    3.18
  -1 -10  -7   20.85    2.36
  -1  10   7   24.04    3.56
   1 -10   7   21.67    3.07
   1  10  -7   19.79    2.23
  -1  10   6   16.72    3.48
  -1 -10  -6   15.90    2.04
  -1  10   6   14.12    2.47
   1 -10   6   13.90    2.27
   1  10  -6   15.94    1.84
   1  10  -6   14.61    1.91
   1 -10   6   13.96    2.43
   1  10  -5   96.45    4.64
  -1 -10  -5  104.01    4.73
  -1  10   5  108.09    6.00
  -1  10   5   97.08    7.41
  -1 -10  -5   93.26    3.12
   1  10  -5   94.56    4.24
  -1 -10  -5  107.93    3.63
   1 -10   5  103.88    5.40
  -1 -10  -4   46.32    3.05
   1  10  -4   45.50    3.20
   1 -10   4   46.90    3.52
  -1  10   4   45.27    3.84
  -1  10   4   49.52    5.82
   1  10  -4   46.73    2.83
  -1 -10  -4   45.55    2.12
  -1 -10  -4   47.61    2.08
  -1 -10  -3   35.03    2.67
  -1 -10  -3   36.23    1.65
   1  10  -3   36.02    2.40
   1  10  -3   30.41    2.66
   1 -10   3   36.59    3.00
  -1  10   3   33.37    5.35
  -1 -10  -3   32.57    1.94
  -1  10   2   55.97    3.93
  -1 -10  -2   49.55    2.62
  -1 -10  -2   51.89    3.19
   1 -10   2   53.67    3.39
   1  10  -2   53.49    2.87
   1  10  -2   54.47    3.41
  -1  10   2   46.75    6.42
  -1 -10  -1   99.90    4.41
  -1 -10  -1  104.90    4.24
   1 -10   1  103.56    4.59
   1 -10   1   96.19    3.94
  -1  10   1  100.86    4.42
   1  10  -1   94.57    3.93
   1  10  -1   98.32    4.72
  -1  10   1  106.36    5.28
  -1 -10   0   27.78    2.40
   1  10   0   25.90    2.50
  -1  10   0   35.36    2.91
  -1 -10   0   27.93    2.32
  -1  10   0   26.60    2.28
   1 -10   0   30.87    2.10
  -1 -10   0   28.76    1.66
   1 -10   0   27.31    2.33
  -1  10   0   18.86    5.50
  -1 -10   1  102.61    5.02
  -1 -10   1  106.08    4.52
  -1  10  -1  102.26    4.78
  -1  10  -1  103.14    4.58
   1  10   1  103.46    4.93
  -1  10  -1   90.27    9.84
   1 -10  -1  100.45    4.36
  -1 -10   1  102.26    3.70
   1 -10  -1   99.02    3.90
  -1  10  -2   53.88    3.29
  -1 -10   2   54.65    4.03
   1  10   2   53.33    3.51
   1 -10  -2   57.48    3.17
  -1 -10   2   51.64    3.20
   1 -10  -2   59.48    2.92
  -1  10  -2   44.89    6.83
  -1  10  -2   55.15    3.41
  -1 -10   2   53.30    2.84
  -1 -10   3   43.21    3.82
  -1  10  -3   37.74    2.64
   1 -10  -3   34.65    2.24
  -1  10  -3   36.68    2.87
   1  10   3   36.78    3.08
   1 -10  -3   34.99    2.45
  -1 -10   3   31.93    2.48
  -1  10  -3   32.95    5.42
  -1 -10   4   49.93    4.36
   1 -10  -4   48.94    2.68
   1 -10  -4   49.34    2.89
  -1  10  -4   48.43    3.34
   1  10   4   47.80    3.57
  -1  10  -4   38.08    5.17
  -1 -10   4   49.55    3.47
  -1  10  -4   47.31    2.86
  -1 -10   5  110.46    6.74
  -1  10  -5   96.47    4.86
  -1  10  -5   85.58    7.25
  -1  10  -5  103.33    4.12
   1 -10  -5   97.99    4.06
   1  10   5  102.22    5.37
  -1 -10   5  100.02    5.49
   1 -10  -5  108.69    4.66
   1 -10  -6   14.26    1.76
   1  10   6   15.70    2.38
   1 -10  -6   16.16    1.69
  -1  10  -6   14.56    2.07
  -1  10  -6   16.21    3.62
  -1 -10   6   11.03    2.70
  -1 -10   6   17.25    2.71
  -1 -10   7   21.84    3.63
   1  10   7   22.61    2.79
   1 -10  -7   18.19    1.90
  -1  10  -7   21.73    2.58
  -1 -10   7   21.92    3.06
  -1  10  -7   19.95    3.21
   1 -10  -7   24.40    2.35
   1  10   8   24.04    2.95
   1 -10  -8   24.73    2.31
  -1 -10   8   22.39    3.93
  -1 -10   8   25.47    3.70
  -1  10  -8   18.55    2.42
  -1  10  -8   18.83    3.16
   1 -10  -8   23.43    2.41
   1  10   9   22.83    3.00
   1 -10  -9   23.45    2.37
  -1 -10   9   20.33    3.69
  -1 -10   9   20.56    3.84
  -1  10  -9   20.19    2.57
  -1  10  -9   20.71    3.12
   1 -10  -9   23.15    2.53
   1  10  10    8.48    2.17
  -1 -10  10    9.56    2.72
   1 -10 -10   11.66    1.86
  -1  10 -10   11.20    2.22
   1 -10 -10   12.41    2.02
  -1 -10  10   16.81    3.36
   1  10  10   11.84    1.78
  -1  10 -10   13.45    2.52
   1  10  11   46.43    4.48
  -1  10 -11   30.22    3.28
   1 -10 -11   37.64    3.27
   1  10  11   42.46    3.34
   1  10  11   38.15    3.81
  -1 -10  11   46.59    5.72
  -1  10 -11   35.44    3.71
   1 -10 -11   43.23    3.74
   1  10  12    5.47    1.90
   1 -10 -12    5.61    1.85
  -1 -10  12    3.26    3.06
   1 -10 -12    4.14    1.47
  -1  10 -12    6.38    1.99
   1  10  12    6.14    1.53
   1  10  13    0.46    1.46
   1 -10 -13    0.44    1.62
   1 -10 -13   -3.98    1.82
  -1  10 -13    0.91    1.53
  -1 -10  13   -2.36    2.55
   1  10  13    0.40    1.13
   1  10  14   11.57    2.54
   1 -10 -14    8.58    2.27
  -1  10 -14    5.23    1.80
   1 -10 -14   10.21    2.35
  -1 -10  14   10.26    3.09
   1  10  15   18.37    3.25
   1 -10 -15   19.67    3.43
  -1 -10  15   19.35    3.99
   1 -10 -15   11.04    2.36
  -1  10 -15   14.42    2.76
   1  10  16    1.91    2.05
   1 -10 -16   -0.05    1.20
  -1  10 -16   -0.70    1.46
   1 -10 -16    0.76    1.79
  -1 -10  16   -2.30    2.45
   1 -10 -17    6.22    2.18
   1  10  17    5.36    2.19
   1 -10 -18    2.71    2.08
   1  11 -17    0.56    1.45
   1  11 -16    3.03    1.46
  -1 -11 -16    2.66    1.83
   1 -11  16    3.00    2.16
   1  11 -15    3.45    1.68
  -1 -11 -15    5.38    2.33
   1 -11  15    6.86    3.06
   1 -11  15    9.10    3.25
  -1  11  15    3.67    2.12
   1 -11  14    0.53    2.09
  -1  11  14   -2.61    2.52
  -1 -11 -14    3.46    2.03
   1  11 -14    1.28    1.46
   1 -11  14    3.27    2.58
  -1  11  13    4.43    2.14
  -1 -11 -13    9.13    2.25
   1  11 -13    7.20    1.98
   1 -11  13    8.20    2.71
   1  11 -13    5.79    1.71
   1 -11  13    7.44    2.53
   1  11 -12   -2.33    1.52
  -1 -11 -12    4.69    2.09
   1  11 -12    0.39    1.16
  -1  11  12    3.27    1.98
   1 -11  12    2.54    1.97
   1 -11  12    1.47    2.02
  -1 -11 -11    2.82    1.49
   1  11 -11    1.43    1.02
   1 -11  11    3.33    2.22
  -1  11  11    1.64    1.89
   1  11 -11    1.10    1.26
   1 -11  11    1.77    1.98
   1  11 -10   21.51    2.55
  -1  11  10   29.85    3.54
   1 -11  10   25.61    3.79
  -1 -11 -10   23.17    2.80
  -1  11  10   27.89    3.87
   1  11 -10   21.28    2.47
   1 -11  10   21.54    3.34
   1  11  -9    9.99    1.77
  -1  11   9   11.46    2.71
  -1  11   9   13.63    2.70
   1  11  -9   11.16    1.82
   1 -11   9   13.58    2.76
   1 -11   9   15.84    2.93
  -1 -11  -9   13.98    2.16
  -1 -11  -8    0.76    1.24
   1 -11   8    0.96    1.71
  -1  11   8    1.53    1.78
   1  11  -8    1.37    0.97
  -1  11   8    5.32    2.39
   1  11  -8    2.86    1.17
   1 -11   7    9.22    2.07
  -1  11   7   11.12    2.51
   1  11  -7   11.73    1.70
   1  11  -7   13.39    1.91
  -1 -11  -7   15.87    2.27
  -1  11   7    8.12    2.67
   1  11  -6   27.81    2.61
  -1  11   6   23.84    3.15
   1 -11   6   26.28    3.05
   1  11  -6   28.96    2.48
  -1  11   6   29.49    4.25
  -1 -11  -6   25.78    2.49
  -1  11   5    2.65    1.71
   1  11  -5    2.12    0.97
   1 -11   5    1.95    1.41
   1  11  -5    2.89    1.16
  -1  11   5    3.72    2.73
  -1 -11  -5    2.85    1.37
   1  11  -4   18.38    2.13
  -1 -11  -4   24.00    2.30
  -1  11   4   22.11    2.88
   1 -11   4   20.49    2.55
   1  11  -4   22.23    2.09
  -1  11   4   19.46    4.42
   1  11  -3   26.87    2.56
  -1 -11  -3   25.97    1.86
  -1  11   3   21.68    2.85
  -1 -11  -3   25.49    2.35
   1 -11   3   24.10    2.60
   1  11  -3   22.43    2.10
  -1  11   3   19.69    4.54
   1  11  -2   17.79    2.16
  -1 -11  -2   17.53    1.72
   1  11  -2   17.15    1.79
  -1 -11  -2   20.20    2.12
  -1  11   2   17.98    2.54
   1 -11   2   20.59    2.31
  -1  11   2   18.11    4.72
   1 -11   1    4.24    1.14
  -1 -11  -1    4.07    1.35
  -1  11   1    5.31    1.72
   1  11  -1    5.18    1.48
   1 -11   1    4.59    1.25
  -1 -11  -1    2.29    0.95
  -1  11   1    3.24    1.26
   1 -11   0   16.27    1.94
   1  11   0   15.42    2.08
  -1 -11   0   18.05    2.09
  -1 -11   0   15.06    1.96
  -1  11   0   16.44    2.03
   1 -11   0   16.69    1.71
  -1 -11   0   18.39    1.35
  -1  11   0   17.87    2.29
  -1  11   0    9.05    4.62
  -1 -11   1    5.32    0.87
   1 -11  -1    5.55    1.15
  -1  11  -1    6.24    1.65
  -1 -11   1    5.42    1.55
   1  11   1    4.92    1.66
   1 -11  -1    4.50    1.22
  -1  11  -1    7.19    1.57
  -1  11  -1    0.29    3.24
  -1 -11   1    4.63    1.44
  -1  11  -2   23.41    2.40
  -1 -11   2   21.97    2.66
   1  11   2   18.20    2.33
   1 -11  -2   21.84    1.90
  -1 -11   2   17.89    2.05
  -1  11  -2   18.65    2.14
   1 -11  -2   21.00    2.05
  -1 -11   2   21.09    1.79
  -1  11  -2   20.85    5.21
  -1  11  -3   29.15    2.57
   1 -11  -3   21.26    2.05
   1 -11  -3   23.31    1.96
  -1 -11   3   27.51    3.17
  -1  11  -3   23.42    2.41
   1  11   3   27.97    2.86
  -1 -11   3   24.42    2.44
  -1 -11   3   25.32    2.26
  -1  11  -3   17.94    4.24
  -1  11  -4   25.53    2.31
   1  11   4   20.40    2.53
  -1 -11   4   22.32    2.98
   1 -11  -4   20.63    1.84
  -1  11  -4   20.40    2.32
   1 -11  -4   22.44    2.08
  -1  11  -4   19.65    4.21
  -1 -11   4   24.25    2.43
   1 -11  -5    3.11    1.01
   1  11   5   -0.02    1.24
  -1 -11   5    2.56    1.33
  -1 -11   5    2.06    1.72
   1 -11  -5    3.75    1.03
  -1  11  -5    2.38    1.42
   1 -11  -5    2.21    0.94
  -1  11  -5   -1.12    2.14
   1  11   6   28.85    3.14
   1 -11  -6   25.28    2.21
  -1  11  -6   32.61    4.44
  -1  11  -6   26.33    2.74
  -1 -11   6   27.92    3.59
  -1 -11   6   26.38    3.19
   1 -11  -6   28.68    2.52
   1 -11  -7   11.99    1.77
  -1 -11   7    8.34    2.55
   1 -11  -7   15.47    1.82
  -1  11  -7   12.98    2.14
  -1 -11   7   12.10    2.58
   1  11   7   12.51    2.30
  -1  11  -7   15.48    3.11
   1 -11  -8    1.69    1.06
  -1  11  -8    1.65    1.81
  -1 -11   8    0.36    1.75
   1 -11  -8    2.13    1.20
  -1  11  -8   -0.37    1.38
   1  11   8    2.90    1.57
  -1 -11   8    2.33    2.06
   1  11   9   11.92    2.39
  -1  11  -9   13.93    2.36
  -1 -11   9   14.11    3.00
   1 -11  -9   13.13    1.97
   1 -11  -9   13.80    2.11
  -1  11  -9   10.98    2.65
  -1 -11   9   15.83    3.29
  -1  11 -10   25.60    3.04
   1 -11 -10   24.85    2.61
  -1 -11  10   24.03    4.12
  -1 -11  10   31.70    4.57
  -1  11 -10   21.45    3.12
   1  11  10   25.11    2.57
   1  11  10   23.47    3.24
   1 -11 -10   26.58    2.91
   1  11  11    0.78    1.26
  -1 -11  11    1.57    2.10
   1 -11 -11    1.01    1.33
  -1  11 -11    3.09    1.50
  -1  11 -11    1.40    1.25
   1 -11 -11    1.54    1.09
   1  11  11    1.18    1.07
   1 -11 -12    2.03    1.29
  -1 -11  12    1.06    2.00
   1  11  12    3.19    1.63
   1 -11 -12    3.94    1.71
   1  11  12    3.73    1.40
  -1  11 -12    1.67    1.67
   1  11  13   10.34    2.55
   1 -11 -13    4.39    1.56
  -1  11 -13    7.09    2.18
   1 -11 -13    8.27    2.29
  -1 -11  14    0.62    2.42
  -1  11 -14   -0.19    1.72
   1 -11 -14   -0.35    1.57
   1 -11 -14    5.29    2.10
   1  11  14    1.43    1.88
  -1 -11  15    5.61    2.67
   1 -11 -15    6.87    2.26
   1  11  15    1.49    1.95
   1 -11 -15    1.61    1.38
  -1  11 -15    3.13    1.58
   1  11  16    5.04    2.31
  -1  11 -16    3.13    2.02
  -1 -11  16   -0.73    2.70
   1 -11 -16    5.43    2.24
   1 -11 -17    2.94    2.08
   1  12 -16    2.70    1.42
  -1 -12 -15   -2.44    2.07
  -1  12  15    0.19    1.44
   1  12 -15    0.55    1.37
   1 -12  15    1.68    2.55
  -1 -12 -14    5.92    1.97
  -1  12  14    7.72    2.52
   1 -12  14    7.86    3.12
   1  12 -14    4.21    1.72
  -1 -12 -13    3.86    1.98
  -1  12  13    5.33    2.53
   1  12 -13    6.13    1.78
   1 -12  13    4.41    2.49
  -1 -12 -12   -1.10    1.82
   1 -12  12    1.49    1.98
  -1  12  12    3.64    2.28
   1  12 -12    0.82    1.18
   1  12 -12    2.66    1.37
  -1 -12 -11    3.56    1.95
   1  12 -11    1.04    1.04
   1 -12  11    0.41    2.01
  -1  12  11   -0.46    1.55
   1  12 -11    0.79    0.97
   1 -12  10   33.33    4.23
  -1  12  10   34.00    4.19
   1  12 -10   26.84    2.88
   1  12 -10   28.05    2.82
  -1  12  10   29.88    3.73
  -1 -12 -10   35.25    3.51
   1  12  -9    4.26    1.38
   1  12  -9    7.67    1.79
  -1  12   9    5.35    2.25
  -1 -12  -9    8.95    1.90
   1 -12   9    5.94    2.40
  -1  12   9    5.18    2.11
   1  12  -8   12.48    1.90
   1  12  -8   11.13    1.91
  -1 -12  -8   10.92    1.94
  -1  12   8   13.27    2.79
   1 -12   8   12.35    2.37
  -1  12   8   16.18    3.23
   1 -12   7    3.92    1.94
  -1  12   7    4.40    1.95
   1  12  -7    4.72    1.38
  -1  12   7    2.25    2.14
  -1 -12  -7    0.95    1.11
   1  12  -7    1.42    1.29
  -1 -12  -6   58.01    3.90
   1 -12   6   60.35    4.54
   1  12  -6   56.34    3.88
   1  12  -6   53.11    3.44
  -1  12   6   55.81    6.08
  -1  12   6   51.52    4.70
   1  12  -5    5.17    1.35
   1  12  -5    4.45    1.50
  -1  12   5    5.27    1.96
   1 -12   5    4.51    1.70
  -1 -12  -5    7.08    1.74
  -1  12   5    1.54    2.72
   1 -12   4   55.95    4.06
  -1 -12  -4   51.79    3.50
  -1  12   4   52.42    4.40
   1  12  -4   51.09    3.28
   1  12  -4   54.85    3.74
  -1  12   4   46.98    6.12
  -1 -12  -3    2.02    1.25
  -1  12   3    2.55    1.65
   1  12  -3    3.39    1.35
   1  12  -3    1.35    0.87
   1 -12   3    5.30    1.57
  -1  12   3    1.70    3.06
   1  12  -2    5.08    1.54
   1 -12   2    4.78    1.16
  -1 -12  -2    4.88    1.26
  -1  12   2    6.42    1.86
   1  12  -2    5.56    1.26
   1 -12   2    5.73    1.58
  -1  12   2    3.37    3.51
  -1  12   1    4.99    1.74
   1 -12   1    2.52    0.97
  -1 -12  -1    2.71    1.32
  -1 -12  -1    3.74    1.19
   1 -12   1    4.34    1.35
  -1  12   1    0.86    3.62
   1  12  -1    2.86    1.35
   1  12   0  149.80    6.39
  -1  12   0  137.02    6.55
   1 -12   0  136.26    5.67
   1 -12   0  134.36    5.10
  -1 -12   0  130.07    5.57
  -1  12   0  142.22    5.86
  -1 -12   0  134.55    5.79
  -1 -12   1    4.20    0.83
  -1  12  -1    5.00    1.55
  -1 -12   1    5.53    1.46
   1 -12  -1    3.42    1.03
   1 -12  -1    4.91    1.33
   1  12   1    1.07    1.28
  -1  12  -1    3.35    1.20
  -1  12  -1    0.74    3.17
  -1 -12   1    3.54    1.42
  -1 -12   2    7.05    1.77
  -1 -12   2    6.71    1.09
   1  12   2    2.78    1.43
  -1  12  -2    5.41    1.41
   1 -12  -2    6.09    1.26
   1 -12  -2    6.90    1.44
  -1  12  -2    4.62    1.57
  -1 -12   2    3.21    1.25
  -1  12  -2    0.44    3.19
  -1 -12   3    3.68    1.74
  -1 -12   3    1.53    1.10
  -1 -12   3    2.68    0.95
   1  12   3    2.42    1.47
  -1  12  -3    1.82    1.13
   1 -12  -3    3.19    1.15
   1 -12  -3    1.99    0.89
  -1  12  -3    6.47    2.97
  -1  12  -3    5.16    1.54
  -1 -12   4   56.50    4.59
  -1  12  -4   52.45    3.69
   1 -12  -4   53.06    3.13
   1  12   4   48.13    3.91
  -1  12  -4   42.85    5.71
  -1 -12   4   56.69    3.67
   1 -12  -4   48.22    3.15
   1 -12  -5    4.69    1.26
   1 -12  -5    2.48    0.99
  -1 -12   5    5.07    2.19
  -1  12  -5    5.67    1.68
   1 -12  -5    5.41    1.25
  -1 -12   5    4.91    1.50
  -1  12  -5    5.09    2.84
   1  12   5    5.56    1.79
  -1 -12   6   52.99    4.96
   1  12   6   56.64    4.51
   1 -12  -6   50.18    3.29
  -1  12  -6   55.81    3.95
  -1  12  -6   39.91    5.05
   1 -12  -6   50.10    3.20
  -1 -12   6   55.89    4.30
   1 -12  -6   53.62    3.54
   1 -12  -7    3.93    1.42
  -1 -12   7    4.60    2.15
   1  12   7    0.47    1.33
  -1 -12   7    3.85    1.81
   1 -12  -7    3.32    1.16
  -1  12  -7    1.09    1.18
   1 -12  -7    3.99    1.30
   1 -12  -8   14.44    2.08
  -1 -12   8   14.12    2.84
   1 -12  -8   12.38    1.81
   1  12   8   17.71    2.87
  -1  12  -8   13.80    2.35
  -1  12  -8    9.49    2.72
  -1 -12   8   11.28    2.81
   1  12   9    5.41    2.10
   1 -12  -9    4.32    1.31
   1 -12  -9    5.21    1.48
  -1 -12   9    3.21    2.32
  -1  12  -9    7.01    1.89
  -1  12  -9    4.42    2.16
  -1 -12   9    7.41    2.47
   1  12  10   34.15    3.82
   1 -12 -10   31.53    2.99
  -1  12 -10   31.14    3.35
  -1  12 -10   26.34    3.61
   1  12  10   33.23    2.96
  -1 -12  10   34.32    4.41
  -1 -12  10   35.13    4.65
   1 -12 -10   32.96    3.23
   1 -12 -11    0.70    1.23
  -1 -12  11    0.81    2.05
   1 -12 -11    1.82    1.19
  -1  12 -11    1.53    1.65
   1  12  11   -0.84    1.52
   1  12  11    2.15    1.13
  -1  12 -11    5.10    2.06
   1 -12 -12   -2.31    1.63
   1 -12 -12   -0.21    1.12
  -1 -12  12    4.20    2.76
   1  12  12    1.22    1.77
  -1  12 -12    0.71    1.64
   1 -12 -13    4.39    1.68
   1 -12 -13    3.28    1.59
  -1 -12  13    5.84    3.12
  -1  12 -13    4.65    1.84
   1  12  13    3.45    2.03
   1 -12 -14    7.68    1.96
   1 -12 -14    4.60    1.99
  -1 -12  14   10.29    2.99
   1  12  14   10.42    2.71
  -1  12 -14    8.76    2.38
   1  12  15   -1.91    1.74
  -1  12 -15    3.29    2.21
   1 -12 -15   -1.10    1.66
  -1 -12  15    0.38    1.98
   1  13 -15   -1.77    1.57
   1 -13  14    1.76    2.37
  -1 -13 -14    1.77    1.44
  -1  13  14    1.61    1.91
   1  13 -14    0.52    1.38
  -1 -13 -13    4.81    2.06
   1  13 -13    0.47    1.29
   1 -13  13    1.81    2.09
  -1  13  12    2.86    2.03
  -1 -13 -12    3.37    1.90
   1  13 -12   -2.26    1.55
   1 -13  12    0.68    1.92
   1  13 -11   -0.95    1.23
   1 -13  11   -1.05    1.84
  -1  13  11    4.48    2.41
   1  13 -11    2.37    1.19
  -1 -13 -11    1.01    1.54
   1  13 -10    6.65    1.62
   1 -13  10    7.19    2.40
   1  13 -10    8.08    1.86
  -1 -13 -10    7.30    1.84
  -1  13  10    5.46    2.24
  -1  13  10    9.47    2.78
   1  13  -9    8.08    1.75
   1 -13   9    5.84    2.12
  -1  13   9    9.28    2.68
   1  13  -9    9.67    1.89
  -1 -13  -9    7.72    1.95
  -1  13   9    8.61    2.51
   1 -13   8    2.18    1.98
   1  13  -8    0.83    1.19
  -1 -13  -8    0.49    1.34
  -1  13   8    0.70    1.53
   1  13  -8    0.47    0.95
  -1  13   8    1.01    2.00
   1 -13   7    5.49    2.01
   1  13  -7    7.57    1.68
   1  13  -7    5.41    1.39
  -1 -13  -7    6.15    1.76
  -1  13   7   10.50    2.65
  -1  13   7    9.25    3.07
   1  13  -6    5.68    1.65
  -1  13   6    6.06    2.84
  -1  13   6    9.13    2.42
  -1 -13  -6    7.26    1.82
   1 -13   6    4.03    1.84
   1  13  -6    5.71    1.46
  -1 -13  -5    2.82    1.41
  -1  13   5    5.63    3.32
  -1  13   5    2.38    1.47
   1 -13   5    1.34    1.53
   1  13  -5    1.37    1.06
   1  13  -5    3.96    1.45
  -1 -13  -4    2.86    1.28
   1  13  -4    2.88    1.37
  -1  13   4    4.00    1.76
   1  13  -4    2.74    1.12
  -1  13   4    7.51    3.76
   1 -13   4    2.98    1.62
   1  13  -3   14.97    2.21
  -1  13   3   18.36    2.83
   1 -13   3   15.61    2.26
  -1 -13  -3   14.53    2.01
   1  13  -3   12.61    1.86
  -1  13   3    9.32    3.50
   1 -13   2    2.83    1.32
  -1 -13  -2    6.80    1.65
  -1  13   2    5.38    1.91
   1  13  -2    3.80    1.60
   1  13  -2    4.17    1.21
  -1  13   2    3.65    2.75
   1 -13   2    3.67    1.17
  -1 -13  -1    2.43    1.31
   1 -13   1    1.30    1.05
   1 -13   1    2.64    1.32
   1  13  -1    4.05    1.49
  -1  13   1    1.77    1.34
  -1  13   1    6.51    3.42
   1 -13   0    2.93    1.24
   1 -13   0    3.13    1.11
  -1  13   0    1.15    1.32
   1  13   0    3.24    1.55
  -1 -13   0    1.45    1.18
  -1  13   0    6.91    4.17
  -1  13   0    4.03    1.61
  -1  13  -1    3.86    1.45
  -1 -13   1    3.59    1.37
  -1 -13   1    1.93    1.31
   1 -13  -1    0.29    0.94
   1  13   1    3.95    1.68
   1 -13  -1    2.42    1.18
  -1  13  -1    4.18    1.46
  -1 -13   2    4.53    1.52
   1  13   2    2.06    1.29
  -1  13  -2    4.04    1.55
  -1 -13   2    7.39    1.94
   1 -13  -2    3.22    1.13
   1 -13  -2    4.99    1.35
  -1  13  -2    5.12    1.46
  -1  13  -2    1.01    2.55
  -1 -13   3   15.35    2.46
  -1  13  -3   12.92    2.14
   1 -13  -3   11.62    1.60
   1 -13  -3   10.46    1.63
  -1 -13   3   15.29    2.19
   1  13   3   14.54    2.45
  -1  13  -3   10.50    3.72
  -1 -13   3   14.34    1.68
   1 -13  -4    2.87    1.22
   1  13   4    2.24    1.42
  -1 -13   4    2.65    1.13
  -1 -13   4    0.88    1.16
  -1  13  -4    2.60    2.29
   1 -13  -4    4.16    1.15
  -1 -13   4   -0.62    1.48
  -1  13  -4    1.87    1.19
   1 -13  -5    3.06    1.23
  -1 -13   5    4.74    1.51
   1 -13  -5    3.58    1.29
  -1 -13   5    3.30    1.96
  -1  13  -5    3.46    1.66
   1 -13  -5    3.30    1.15
  -1  13  -5    3.43    2.33
   1  13   5    5.28    1.81
   1 -13  -6    5.38    1.38
   1  13   6    7.36    2.22
  -1 -13   6    6.20    1.75
   1 -13  -6    8.11    1.56
  -1  13  -6    8.31    1.87
   1 -13  -6    4.42    1.24
  -1  13  -6    9.83    3.16
  -1 -13   6    8.68    2.48
   1 -13  -7    6.01    1.54
   1  13   7    7.19    2.15
   1 -13  -7    6.83    1.56
  -1 -13   7    9.90    2.19
  -1  13  -7    6.93    1.93
  -1  13  -7    8.10    2.90
   1 -13  -7    8.40    1.56
  -1 -13   7    6.95    2.28
   1 -13  -8   -0.84    1.13
   1  13   8    2.18    1.72
  -1 -13   8   -1.61    1.85
   1 -13  -8    2.74    1.14
  -1  13  -8    0.92    1.22
  -1  13  -8   -0.27    1.73
   1 -13  -8   -0.30    0.78
  -1 -13   8    2.17    1.95
   1 -13  -9    9.22    1.80
  -1 -13   9    9.98    2.72
   1  13   9    5.85    1.86
  -1 -13   9    3.82    2.20
   1 -13  -9    5.49    1.52
  -1  13  -9    7.97    1.93
  -1  13  -9    6.18    2.10
  -1 -13  10    7.39    2.44
   1 -13 -10    5.13    1.46
  -1  13 -10    2.94    1.54
  -1  13 -10    3.84    2.13
  -1 -13  10    7.45    2.94
   1 -13 -10    5.05    1.62
   1  13  10    6.19    2.17
   1  13  11    1.16    1.68
  -1 -13  11    3.77    2.56
   1 -13 -11   -0.35    1.10
  -1 -13  11    3.67    2.16
  -1  13 -11    0.00    1.42
   1 -13 -11    1.07    1.42
  -1 -13  12    3.50    2.16
   1  13  12    2.08    2.06
   1 -13 -12    0.11    1.23
  -1  13 -12   -1.58    1.63
   1 -13 -12    1.24    1.45
   1 -13 -13    6.24    2.09
   1 -13 -13    5.33    1.66
  -1 -13  13   10.22    3.02
   1  13  13    3.21    2.18
  -1  13 -13    4.98    2.13
  -1 -13  14    1.76    2.51
   1  13  14    2.40    2.14
  -1  13 -14    3.51    1.97
  -1 -14 -13    2.90    1.65
   1 -14  13    2.56    2.12
  -1  14  13    1.59    2.16
   1  14 -13    1.98    1.53
   1 -14  12    7.12    2.47
  -1 -14 -12    9.65    2.35
  -1  14  12    6.92    2.76
   1  14 -12    9.57    2.00
  -1 -14 -11   16.42    2.65
  -1  14  11   23.69    3.92
   1 -14  11   17.25    3.58
   1  14 -11   13.94    2.33
  -1 -14 -10   -1.65    1.82
   1 -14  10    0.65    1.92
  -1  14  10   -1.32    1.90
   1  14 -10   -0.16    1.16
  -1  14  10    3.35    2.30
   1  14  -9    5.01    1.64
  -1 -14  -9    4.22    1.59
  -1  14   9    6.78    2.50
  -1  14   9    3.55    1.88
   1  14  -9    3.16    1.40
   1 -14   9    5.46    2.37
   1 -14   8   14.89    3.02
   1  14  -8   17.45    2.40
  -1 -14  -8   19.98    2.70
  -1  14   8   20.56    3.60
  -1  14   8   22.87    3.92
   1  14  -8   17.08    2.45
  -1  14   7   15.45    3.13
  -1 -14  -7   20.66    2.72
   1 -14   7   18.79    2.95
   1  14  -7   23.75    2.71
  -1  14   7   24.06    4.51
   1  14  -7   20.59    2.54
   1  14  -6    9.18    1.82
   1 -14   6   14.59    2.60
  -1  14   6   12.30    2.73
  -1  14   6    8.20    3.23
   1  14  -6   11.52    2.00
  -1 -14  -6   11.80    2.12
  -1 -14  -5   22.79    2.70
  -1  14   5   25.66    3.57
   1 -14   5   26.33    3.24
   1  14  -5   24.25    2.54
   1  14  -5   27.42    2.91
  -1  14   5   21.90    4.50
  -1  14   4   12.74    3.85
   1  14  -4   10.67    2.01
   1 -14   4   11.27    2.15
  -1 -14  -4   12.58    2.15
  -1  14   4   14.11    2.72
   1  14  -4   11.77    1.90
   1  14  -3   21.21    2.33
   1  14  -3   17.82    2.51
  -1 -14  -3   27.00    2.79
   1 -14   3   25.50    3.04
   1 -14   3   22.84    2.46
  -1  14   3   23.46    5.15
   1 -14   2   37.04    3.39
   1 -14   2   34.82    2.90
   1  14  -2   42.69    3.76
  -1 -14  -2   36.86    3.18
  -1  14   2   41.14    4.20
  -1  14   2   31.01    5.64
  -1  14   1   32.01    3.63
  -1 -14  -1   31.20    2.91
  -1  14   1   30.62    5.58
   1 -14   1   29.12    2.99
   1  14  -1   33.92    3.39
   1 -14   1   25.72    2.48
   1  14   0    4.45    1.55
  -1  14   0    5.63    1.89
  -1 -14   0    0.51    1.21
   1 -14   0    1.58    1.01
  -1  14   0    5.05    3.46
   1 -14   0    2.77    1.11
   1  14   1   30.71    3.36
  -1  14  -1   34.14    3.52
  -1 -14   1   30.23    2.89
   1 -14  -1   26.94    2.44
  -1  14  -1   33.59    3.17
   1 -14  -1   29.48    2.85
  -1  14  -1   23.39    5.54
  -1 -14   2   39.83    3.32
   1 -14  -2   30.93    2.60
  -1  14  -2   37.48    3.31
   1 -14  -2   39.08    3.11
  -1  14  -2   29.26    5.48
   1  14   2   35.76    3.51
   1  14   3   22.79    3.04
  -1  14  -3   22.84    2.70
   1 -14  -3   22.76    2.34
  -1 -14   3   21.72    2.91
   1 -14  -3   20.15    2.33
  -1  14  -3   24.41    4.85
  -1 -14   3   24.12    2.79
  -1 -14   4   13.93    2.59
   1  14   4   11.21    2.41
   1 -14  -4   12.12    1.83
  -1  14  -4   13.23    2.22
   1 -14  -4   11.04    1.73
  -1  14  -4   12.23    3.70
  -1 -14   4   15.78    2.38
   1  14   5   30.09    3.59
   1 -14  -5   27.28    2.54
  -1 -14   5   24.98    2.95
  -1 -14   5   19.19    3.17
  -1  14  -5   25.81    2.97
  -1  14  -5   22.25    4.41
   1 -14  -5   24.91    2.55
   1 -14  -5   23.26    2.43
   1 -14  -6   11.40    1.84
  -1 -14   6   13.72    2.76
   1  14   6   10.24    2.57
  -1  14  -6   12.93    3.60
   1 -14  -6    9.48    1.72
  -1 -14   6    9.99    2.02
  -1  14  -6   10.77    2.04
   1 -14  -6   10.56    1.73
  -1 -14   7   18.03    2.72
   1 -14  -7   21.28    2.36
   1  14   7   19.84    3.20
  -1  14  -7   22.35    2.93
   1 -14  -7   16.09    2.04
  -1  14  -7   22.50    4.01
  -1 -14   7   23.43    3.60
   1 -14  -7   21.77    2.46
  -1  14  -8   16.71    2.61
   1 -14  -8   18.24    2.43
   1  14   8   26.74    3.63
  -1 -14   8   17.14    2.84
  -1 -14   8   15.51    3.09
   1 -14  -8   17.15    2.27
   1 -14  -8   13.57    1.99
  -1  14  -8   16.99    3.63
  -1 -14   9    3.74    2.37
   1 -14  -9    2.97    1.17
   1  14   9    7.23    2.45
  -1 -14   9    3.12    1.83
  -1  14  -9    4.26    2.15
  -1  14  -9    6.24    1.81
   1 -14  -9    5.50    1.46
   1 -14  -9    4.82    1.49
   1 -14 -10   -2.04    1.50
   1  14  10   -0.84    2.07
   1 -14 -10    1.32    1.16
  -1  14 -10    0.96    1.63
  -1  14 -10    4.27    2.28
  -1 -14  10   -2.03    2.47
  -1 -14  10   -0.89    1.66
  -1 -14  11   17.90    3.69
  -1 -14  11   12.56    2.97
  -1  14 -11   17.20    2.93
   1  14  11   19.05    3.39
   1 -14 -11   19.08    2.70
   1 -14 -11   18.00    2.74
  -1 -14  12   10.28    2.99
  -1  14 -12    5.46    1.95
   1  14  12    7.86    2.47
   1  14  13   -0.38    1.99
  -1 -14  13    2.98    2.27
  -1  14 -13    1.86    1.47
  -1 -14  14   -2.61    2.12
   1 -15  12    4.96    2.67
  -1 -15 -12    6.42    1.93
   1  15 -12    7.58    1.92
  -1  15  12    9.98    2.82
   1 -15  11   -1.14    2.05
  -1  15  11    1.45    2.16
  -1 -15 -11   -2.75    2.03
   1  15 -11   -0.53    1.43
   1 -15  10   -0.67    1.84
  -1  15  10   -0.52    1.83
  -1 -15 -10   -2.14    1.67
  -1  15  10    3.11    2.26
   1  15 -10    3.99    1.65
  -1  15   9    0.32    1.64
  -1 -15  -9    2.34    1.79
   1  15  -9    4.13    1.57
  -1  15   9    3.54    2.55
   1 -15   9    3.19    1.89
   1  15  -8   17.41    2.47
   1 -15   8   12.18    2.68
  -1  15   8   16.72    3.15
   1  15  -8   12.84    2.08
  -1  15   8   21.98    4.20
  -1 -15  -8   13.50    2.29
   1  15  -7    0.71    1.16
  -1 -15  -7   -2.05    1.65
   1 -15   7   -0.34    1.44
   1  15  -7    0.13    1.19
  -1  15   7   -0.71    1.95
  -1  15   7    1.63    2.23
  -1 -15  -6    9.36    2.12
  -1  15   6    8.27    2.61
   1  15  -6    6.62    1.69
   1  15  -6    9.06    1.87
  -1  15   6    9.38    3.39
   1 -15   6    8.14    2.06
   1  15  -5    0.38    1.34
  -1 -15  -5    3.44    1.61
  -1  15   5   -0.04    2.03
   1 -15   5    4.50    1.72
   1  15  -5   -0.11    1.25
  -1  15   4   13.11    2.95
  -1 -15  -4    6.99    1.63
  -1  15   4    8.67    3.63
   1  15  -4    8.62    1.74
   1  15  -4   10.23    2.02
   1 -15   4    5.04    1.80
   1 -15   4   10.58    1.97
  -1 -15  -3    1.07    1.35
   1 -15   3    3.82    1.50
   1  15  -3    0.43    1.46
   1 -15   3    2.71    1.82
  -1  15   3    2.63    2.46
   1 -15   2   28.72    3.14
   1 -15   2   29.60    2.77
  -1 -15  -2   32.96    3.25
  -1  15   2   41.16    4.35
  -1  15   2   29.34    5.42
   1  15  -2   30.46    3.30
  -1  15   1    6.95    2.31
   1 -15   1    1.77    1.01
  -1 -15  -1    1.63    1.22
   1  15  -1    1.98    1.32
   1 -15   1    1.44    1.34
  -1  15   1    2.63    1.97
   1  15   0    3.47    1.77
   1 -15   0    3.16    1.16
  -1 -15   0    4.87    1.67
   1 -15   0    4.25    1.61
  -1  15   0    0.52    2.58
   1  15   1    0.55    1.17
  -1  15  -1    1.32    2.19
  -1 -15   1    0.65    1.22
   1 -15  -1    2.93    1.39
  -1  15  -1    3.34    1.63
   1 -15  -1    1.09    1.07
   1 -15  -2   30.15    2.69
   1 -15  -2   26.21    2.75
  -1 -15   2   29.69    3.16
  -1  15  -2   33.38    3.36
   1  15   2   34.63    3.65
  -1  15  -2   27.64    5.30
  -1  15  -3   -0.32    1.50
   1  15   3    2.84    1.63
   1 -15  -3    1.99    1.18
   1 -15  -3    2.38    1.15
  -1  15  -3    5.02    3.15
  -1 -15   3    0.79    1.39
   1 -15  -4   10.23    1.79
  -1 -15   4   11.93    2.29
  -1  15  -4    7.10    3.36
   1 -15  -4   11.27    1.78
   1  15   4   10.70    2.26
  -1  15  -4    8.99    2.05
   1 -15  -4   10.50    1.81
   1 -15  -5    2.15    1.09
  -1 -15   5    2.28    1.56
   1 -15  -5    4.72    1.45
  -1 -15   5    0.42    1.52
   1  15   5    0.04    1.57
   1 -15  -5    2.71    1.24
  -1  15  -5    2.67    1.67
  -1  15  -5    1.64    2.31
   1 -15  -6    8.97    1.64
  -1 -15   6   12.18    2.27
   1 -15  -6   10.34    1.84
   1 -15  -6    8.67    1.77
  -1 -15   6   10.66    2.61
  -1  15  -6   10.02    2.12
  -1  15  -6    5.32    2.77
   1  15   6   11.52    2.66
   1 -15  -7    0.27    1.01
   1 -15  -7    1.00    0.86
   1  15   7    0.32    1.88
   1 -15  -7   -0.13    0.97
  -1  15  -7    1.37    1.53
  -1  15  -7   -2.81    2.69
  -1 -15   7    3.87    2.24
   1 -15  -8   23.43    2.66
   1 -15  -8   14.77    2.20
  -1  15  -8   17.05    3.53
   1  15   8   21.20    3.49
   1 -15  -8   18.74    2.34
  -1  15  -8   18.17    2.91
  -1 -15   8   20.77    3.66
   1 -15  -9    1.65    1.24
  -1 -15   9    2.85    2.26
  -1  15  -9    0.35    1.65
  -1  15  -9   -0.72    2.08
   1  15   9   -2.86    2.30
   1 -15 -10    1.97    1.52
   1  15  10    1.86    1.86
  -1 -15  10    1.04    1.41
  -1 -15  10    1.64    1.99
  -1  15 -10   -0.94    2.17
  -1  15 -10    4.25    1.99
   1  15  11    1.01    1.68
  -1 -15  11    1.42    2.13
   1  15  11    3.07    1.99
  -1  15 -11    4.55    1.75
  -1 -15  11    3.74    2.27
  -1 -15  12    5.44    2.17
  -1  15 -12    3.84    2.04
  -1 -15  13    0.28    1.92
   1 -16  10    3.45    2.33
  -1  16  10   -0.16    2.14
  -1 -16 -10    0.95    1.37
  -1  16  10    4.38    2.17
   1  16 -10   -0.86    1.26
  -1 -16  -9   -0.30    1.62
   1 -16   9    5.05    2.11
   1  16  -9    0.31    1.13
  -1  16   9   -0.85    2.07
  -1  16   9   -0.56    1.99
  -1  16   8    2.16    1.83
   1 -16   8    7.42    2.31
   1  16  -8    3.14    1.53
  -1  16   8    3.40    2.63
  -1 -16  -8    2.58    1.43
   1  16  -7    1.51    1.31
   1 -16   7    1.61    1.95
  -1 -16  -7   -2.49    1.84
  -1  16   7    4.93    2.41
   1  16  -7    4.63    1.53
  -1  16   7    2.29    2.46
   1 -16   6    3.97    2.15
   1  16  -6   -0.73    1.34
  -1  16   6    0.60    1.73
   1  16  -6    2.35    1.53
  -1  16   6    4.06    3.21
  -1 -16  -6   -0.11    1.15
   1 -16   5    4.01    2.19
   1  16  -5   -0.22    1.06
   1 -16   5    2.65    1.69
  -1 -16  -5    0.70    1.41
  -1  16   5    1.34    1.58
   1  16  -5    1.78    1.43
  -1  16   5    1.19    2.83
  -1 -16  -4    2.01    1.43
  -1  16   4    2.26    1.94
   1 -16   4    4.64    2.00
   1  16  -4    4.83    1.78
   1  16  -4    4.18    1.61
   1 -16   4    4.80    1.66
  -1  16   4   -0.51    3.38
  -1 -16  -3   10.01    2.14
   1  16  -3    7.79    1.91
   1 -16   3   10.34    1.88
   1 -16   3   11.08    2.27
  -1  16   3   10.02    4.04
  -1  16   3    8.02    2.56
  -1 -16  -2    2.26    1.51
   1  16  -2   -0.31    1.40
  -1  16   2    4.11    2.07
   1 -16   2    2.33    1.38
   1 -16   2    0.97    1.36
  -1  16   2    3.71    2.74
  -1 -16  -1   -0.21    1.37
   1 -16   1    4.08    1.53
   1  16  -1    1.09    1.31
  -1  16   1    1.17    2.03
   1 -16   1    2.60    1.25
  -1 -16   0    3.63    1.26
   1  16   0    1.67    1.66
   1 -16   0    2.40    1.27
   1 -16   0    3.23    1.22
  -1 -16   1    1.59    1.52
   1 -16  -1    0.93    1.09
   1 -16  -1    2.45    1.26
   1  16   1    0.61    1.58
  -1  16  -1    2.33    2.79
   1  16   2    2.88    1.65
  -1 -16   2    0.95    1.55
   1 -16  -2   -1.01    1.26
  -1  16  -2    5.45    3.02
   1 -16  -2    1.14    1.18
  -1  16  -2    0.72    1.43
   1  16   3   10.48    2.46
  -1 -16   3    9.52    2.23
   1 -16  -3   10.07    1.77
   1 -16  -3    9.25    1.81
  -1  16  -3   12.92    2.39
  -1  16  -3    7.22    3.85
   1 -16  -4    4.82    1.50
   1  16   4    1.49    1.89
  -1 -16   4    2.28    1.83
   1 -16  -4    3.53    1.21
   1 -16  -4    1.91    1.08
  -1  16  -4    0.32    1.38
  -1  16  -4    2.00    2.04
   1 -16  -5    0.60    0.94
   1 -16  -5    1.11    1.17
   1  16   5   -0.23    2.00
   1 -16  -5    1.12    1.12
  -1 -16   5   -0.46    1.27
  -1  16  -5    4.51    1.84
  -1  16  -5    2.33    2.61
  -1 -16   6   -4.50    2.15
   1 -16  -6    0.76    1.18
  -1  16  -6    0.57    1.47
  -1  16  -6   -3.36    2.36
   1  16   6    2.63    1.74
   1  16   7    3.51    2.04
  -1 -16   7    3.48    1.89
   1 -16  -7    3.99    1.26
  -1  16  -7    3.43    1.85
  -1  16  -7   -1.58    1.93
   1 -16  -8    0.92    1.19
   1  16   8    3.84    2.19
  -1  16  -8    0.99    1.62
  -1  16  -8    3.92    2.71
   1  16   9    2.92    2.19
  -1  16  -9    0.65    1.62
  -1  16  -9   -1.17    1.91
  -1 -16   9   -0.17    1.45
  -1  16 -10    3.90    2.12
   1  16  10    4.39    2.07
  -1 -16  10   -1.38    1.96
  -1  16 -10   -0.65    1.46
  -1 -16  11   -0.13    1.59
   1 -17   9    3.26    1.93
  -1  17   9    7.12    2.93
  -1  17   9    9.92    3.40
   1  17  -9    1.37    1.31
  -1 -17  -8   -0.29    1.71
  -1  17   8   -1.04    2.31
   1  17  -8    2.75    1.58
  -1  17   8    2.17    2.15
   1 -17   8    1.27    1.82
  -1  17   7    7.80    3.52
  -1 -17  -7    6.92    1.93
  -1  17   7   10.36    2.98
   1 -17   7    4.22    2.25
   1  17  -7    6.46    1.79
   1 -17   6   10.18    2.16
   1 -17   6    8.17    2.36
  -1 -17  -6    9.88    2.32
  -1  17   6    6.35    2.58
   1  17  -6    8.57    2.05
  -1  17   6   14.02    4.11
   1  17  -5    6.01    1.97
  -1 -17  -5    5.78    1.79
   1 -17   5    4.14    1.78
  -1  17   5    6.93    2.51
   1  17  -5    3.55    1.50
  -1  17   5   12.52    3.90
   1 -17   5    6.46    1.98
   1  17  -4    6.20    2.06
   1 -17   4    6.56    1.92
  -1 -17  -4    7.89    2.16
  -1  17   4    8.10    2.46
   1 -17   4    7.99    2.06
  -1  17   4    6.58    3.41
   1  17  -3   11.33    2.41
   1 -17   3   10.04    2.06
  -1 -17  -3   11.84    2.25
  -1  17   3   10.29    2.71
   1 -17   3   13.44    2.73
  -1  17   3   10.54    3.67
   1  17  -2    8.23    2.10
   1 -17   2    4.83    1.52
  -1 -17  -2    6.86    1.81
  -1  17   2    8.15    3.57
   1 -17   2    5.04    1.96
   1  17  -1   14.56    2.76
  -1 -17  -1   11.19    2.33
   1 -17   1    8.08    2.09
  -1  17   1    4.46    2.26
   1 -17   1    9.16    1.88
   1 -17   0   11.63    1.90
  -1 -17   0   16.03    2.56
   1 -17   0   15.29    2.52
   1  17   0    8.87    2.16
  -1  17   0    7.59    3.36
  -1 -17   1   10.38    2.16
   1 -17  -1   12.05    1.93
   1 -17  -1   13.57    2.36
   1  17   1   11.55    2.59
  -1  17  -1    8.97    4.03
   1 -17  -2    4.90    1.38
   1  17   2    6.87    2.12
  -1  17  -2    6.49    1.77
  -1  17  -2    2.27    2.52
  -1 -17   2    4.28    1.80
   1 -17  -2    6.65    1.69
   1 -17  -3   10.58    1.79
  -1 -17   3   12.68    2.58
  -1  17  -3    8.56    2.09
  -1  17  -3    6.39    3.39
   1 -17  -3    8.20    1.82
   1  17   3   11.32    2.79
  -1 -17   4    4.95    1.73
   1 -17  -4    7.18    1.58
  -1  17  -4    8.27    2.24
  -1  17  -4    9.07    3.26
   1  17   4    6.30    2.30
  -1 -17   5    2.94    1.73
   1  17   5    8.05    2.42
   1 -17  -5    6.80    1.70
  -1  17  -5    4.52    1.72
  -1  17  -5    9.79    3.52
   1  17   6    7.90    2.65
  -1 -17   6   11.00    2.29
   1 -17  -6    6.50    1.68
  -1  17  -6    7.57    2.30
  -1  17  -6    6.02    2.72
  -1  17  -7    7.98    2.82
   1  17   7    3.54    1.82
   1 -17  -7   10.81    2.07
  -1  17  -7    8.28    2.32
  -1 -17   7    6.95    1.99
   1  17   8    4.61    2.47
  -1 -17   8    0.91    1.40
  -1  17  -8   -1.71    2.12
  -1  17  -8   -1.50    2.32
  -1  17  -9    5.08    2.53
  -1  17 -10    2.34    2.27
   1 -18   7   -1.53    1.57
   1 -18   7    0.90    1.56
  -1  18   7   -2.43    2.82
   1  18  -7    0.98    1.21
  -1  18   7    2.51    2.98
  -1  18   6    3.28    2.68
   1 -18   6    7.92    2.61
  -1 -18  -6    1.97    1.59
   1  18  -6    0.48    1.19
  -1  18   6    4.96    2.99
   1 -18   6    2.02    1.73
   1 -18   5   -2.37    1.86
  -1 -18  -5    1.65    1.27
   1 -18   5    2.32    1.89
  -1  18   5    1.72    2.01
  -1  18   5   -0.72    2.59
  -1 -18  -4    1.25    1.59
   1 -18   4    2.82    1.56
   1 -18   4    3.07    1.50
  -1  18   4    5.70    3.45
   1  18  -4    0.42    1.43
  -1  18   4    5.19    2.14
   1 -18   3   -0.62    1.28
  -1 -18  -3    0.95    1.48
  -1  18   3    0.73    1.83
   1 -18   3   -0.36    1.56
   1  18  -3   -2.85    1.88
  -1  18   3    4.62    3.39
   1  18  -2    5.39    1.86
   1 -18   2    5.06    1.64
  -1 -18  -2    3.88    1.75
   1 -18   2    3.03    1.82
  -1  18   2    5.74    3.24
   1 -18   1    0.11    1.25
   1 -18   1    2.75    1.50
   1  18  -1   -0.50    1.57
  -1  18   1    2.64    2.41
  -1 -18  -1    1.21    1.30
   1 -18   0    1.21    1.23
  -1 -18   0    0.59    1.30
   1  18   0   -0.87    1.72
   1 -18   0   -0.12    1.17
  -1  18   0   -0.38    2.88
   1  18   1    0.49    1.73
  -1 -18   1    0.36    1.38
   1 -18  -1    0.86    1.14
   1 -18  -1    0.27    1.47
  -1  18  -1    1.56    3.09
  -1 -18   2    1.10    1.66
   1  18   2    3.67    1.82
   1 -18  -2    0.56    1.37
  -1  18  -2    2.93    2.47
   1  18   3    2.85    2.20
   1 -18  -3    4.27    1.62
  -1 -18   3    0.81    1.58
  -1  18  -3   -2.08    3.77
  -1  18  -3    2.20    1.88
   1  18   4    2.28    1.67
  -1  18  -4    1.52    1.50
   1 -18  -4    4.95    1.49
  -1  18  -4   -0.55    2.01
  -1 -18   4    1.27    1.33
   1  18   5    1.17    2.08
  -1 -18   5    1.03    1.81
   1 -18  -5    1.48    1.20
  -1  18  -5    1.11    1.61
  -1  18  -5    6.08    2.87
   1  18   6    0.16    1.67
  -1  18  -6   -3.30    3.00
  -1  18  -6    1.09    1.70
  -1  18  -7    2.05    2.28
   1 -19   5    6.79    1.89
   1 -19   5   10.09    2.62
  -1  19   5   10.78    3.04
   1 -19   4    0.49    1.27
   1 -19   4    3.49    1.69
  -1  19   4    2.41    2.12
   1 -19   3    2.07    1.63
   1 -19   3    1.95    1.68
   1 -19   2    0.27    1.37
   1 -19   2   -2.70    1.74
   1  19  -2   -2.35    1.91
   1  19  -1   11.12    2.63
   1 -19   1    8.59    1.92
   1  19   0    1.43    1.57
   1 -19   0    0.17    1.21
   1  19   1   11.15    2.64
   1 -19  -1    6.92    1.88
   1  19   2    0.11    1.83
   1 -19  -2   -0.37    1.05
   1  19   3    3.07    2.28
   2   0   0    8.02    0.57
  -2   0   0    8.73    0.65
   2   0   0    7.50    0.64
  -2   0   0    7.48    0.54
  -2   0   0    8.29    1.72
  -2   0   0    8.42    1.67
   2   0   1   71.99    2.63
  -2   0  -1   69.30    3.88
  -2   0   1   70.56    1.88
  -2   0  -1   71.27    2.39
  -2   0   1   74.53    3.08
   2   0  -1   75.02    1.96
  -2   0  -1   72.12    2.17
  -2   0   1   75.13    4.03
  -2   0  -1   73.86    4.05
  -2   0   1   78.22    4.15
   2   0  -1   69.98    2.71
   2   0  -2    6.80    0.89
   2   0   2    6.69    0.78
  -2   0  -2    7.23    0.77
  -2   0   2    6.95    0.47
  -2   0   2    6.45    1.58
  -2   0  -2    7.48    0.92
  -2   0  -2    6.36    1.49
   2   0  -2    6.66    0.48
  -2   0   2    7.14    1.15
  -2   0  -2    8.58    1.59
   2   0   2    6.59    0.83
  -2   0   2    8.00    1.56
  -2   0  -3   40.98    3.03
   2   0   3   41.54    1.99
  -2   0   3   45.71    2.69
  -2   0  -3   42.85    2.31
  -2   0  -3   42.46    2.09
   2   0   3   40.33    2.37
  -2   0   3   43.87    3.09
  -2   0  -3   44.14    3.09
   2   0   3   42.64    1.89
   2   0  -3   41.82    1.40
  -2   0   3   45.51    3.12
   2   0  -3   42.96    2.29
   2   0  -4    5.97    1.03
  -2   0  -4    5.65    1.10
   2   0   4    5.78    0.77
   2   0   4    5.64    0.90
  -2   0  -4    5.32    0.94
  -2   0   4    6.76    1.49
  -2   0  -4    5.87    1.49
  -2   0   4    5.18    1.24
   2   0   4    5.54    1.14
  -2   0   4    8.16    1.62
  -2   0  -4    6.83    1.59
  -2   0   4    5.43    1.22
  -2   0   5   53.89    3.30
   2   0   5   52.56    2.65
  -2   0  -5   56.02    3.46
  -2   0  -5   57.55    3.23
  -2   0   5   59.71    3.62
  -2   0  -5   52.01    2.97
   2   0   5   57.20    3.24
  -2   0   5   61.22    3.63
  -2   0  -5   55.23    3.34
  -2   0   5   58.89    3.22
   2   0   5   55.15    2.33
   2   0  -5   57.32    3.11
  -2   0   6    1.69    1.06
   2   0   6    4.47    0.84
   2   0   6    4.67    1.18
  -2   0  -6    4.21    1.46
  -2   0  -6    4.19    1.22
  -2   0   6    3.48    1.19
  -2   0  -6    2.62    1.11
  -2   0   6    5.56    1.58
   2   0   6    5.54    1.38
   2   0  -6    3.69    1.01
  -2   0   6    4.69    1.38
  -2   0  -6    5.40    1.39
   2   0   7    3.68    1.25
   2   0  -7    4.88    1.43
  -2   0  -7    3.85    1.25
   2   0   7    3.58    0.87
  -2   0  -7    5.23    1.50
  -2   0   7    2.39    1.40
  -2   0  -7    4.25    1.47
  -2   0   7    3.10    1.34
   2   0   7    6.13    1.69
  -2   0   7    5.15    1.34
  -2   0  -7    4.84    1.26
   2   0   8   12.73    1.28
   2   0   8   14.25    1.50
   2   0   8   15.65    2.12
  -2   0  -8   15.52    2.22
  -2   0  -8   16.97    2.19
  -2   0   8   14.57    2.25
  -2   0   8   13.11    2.32
   2   0   8   11.63    2.01
  -2   0   8   13.68    1.85
   2   0  -8   13.30    2.22
  -2   0  -8   15.91    1.82
   2   0   9   39.82    3.41
  -2   0  -9   39.76    3.48
  -2   0   9   38.98    3.67
  -2   0  -9   39.50    3.44
   2   0   9   41.62    2.45
   2   0   9   42.83    3.70
  -2   0   9   42.47    2.96
  -2   0  -9   40.53    2.75
  -2   0   9   41.49    3.72
   2   0  -9   39.60    3.64
  -2   0  10    0.72    1.56
  -2   0  10    3.18    1.80
   2   0  10    1.00    1.42
   2   0  10    1.30    0.73
  -2   0 -10    1.30    1.42
   2   0 -10    2.45    1.94
   2   0  10    0.64    1.45
  -2   0 -10   -0.73    1.51
  -2   0  10   -0.19    0.92
  -2   0 -10    0.45    0.80
  -2   0  11   -0.60    1.46
   2   0  11   -1.55    1.57
   2   0  11   -0.33    0.71
  -2   0 -11   -0.38    1.29
  -2   0 -11   -0.12    1.56
  -2   0  11    0.32    1.47
   2   0 -11   -0.73    1.77
   2   0  11    0.34    1.39
  -2   0  11    1.73    0.89
  -2   0 -11   -0.64    0.78
   2   0  12   33.48    3.57
  -2   0  12   31.26    4.26
  -2   0  12   33.63    3.82
   2   0 -12   33.81    4.05
  -2   0 -12   31.26    3.53
  -2   0 -12   29.36    3.42
   2   0  12   34.58    3.69
   2   0 -13   17.69    3.06
  -2   0  13   19.31    3.83
  -2   0  13   24.59    3.59
   2   0  13   17.87    2.83
   2   0  13   20.98    3.23
  -2   0 -13   24.56    3.39
   2   0 -14    2.31    2.34
  -2   0  14    3.98    2.66
  -2   0  14    2.35    1.47
  -2   0 -14   -0.35    1.73
   2   0  14    1.32    1.69
  -2   0 -15    3.54    2.05
  -2   0  15   -0.29    1.85
  -2   0  15    3.30    1.80
   2   0 -15    3.23    1.98
   2   0  15    3.33    2.09
   2   0 -16    9.97    2.99
  -2   0  16    9.59    2.45
  -2   0  16    9.63    2.80
   2   0  16    6.06    2.32
  -2   0 -16   15.76    2.97
   2   0 -17    2.88    2.32
  -2   0  17    1.34    1.89
  -2   0 -17    6.18    2.24
  -2   0  17    6.51    2.09
   2   0  17    8.61    2.67
   2   0 -18    5.45    2.40
  -2   0 -18    6.86    2.39
  -2   0  18    1.32    1.58
  -2   0  18    0.45    1.75
   2   0  18    2.42    1.89
  -2   0  19    0.80    1.41
  -2   0  19    2.68    1.74
   2   0 -19    1.18    1.52
   2   0  19    1.28    1.67
  -2   1  19    2.43    1.91
  -2   1  19    3.83    1.89
  -2   1  18    1.88    1.49
  -2   1  18    3.12    2.06
   2   1 -18   -1.25    2.59
   2   1 -18   -0.58    1.37
  -2  -1 -18    3.07    2.34
   2  -1  18   -1.53    1.69
  -2   1  17    0.38    1.60
   2   1 -17    2.49    2.49
   2   1 -17    1.98    1.54
  -2  -1 -17   -0.97    1.74
  -2   1  17    2.84    1.81
   2  -1  17    5.16    2.22
  -2   1  16    9.28    2.68
  -2  -1 -16   11.82    2.50
  -2   1  16   11.59    2.76
   2   1 -16    9.49    2.75
   2  -1  16    9.47    2.87
  -2   1  15   10.19    2.97
  -2  -1 -15   15.43    2.97
  -2   1  15   14.02    2.78
   2   1 -15   10.81    2.86
   2  -1  15   10.50    2.57
  -2   1  14    4.01    2.12
   2   1 -14    5.33    2.48
  -2  -1 -14    3.50    1.55
  -2  -1 -14    2.93    1.84
  -2   1  14    3.07    1.82
   2  -1  14    2.47    2.04
   2  -1  14    6.02    2.08
   2   1 -13    9.12    2.62
  -2   1  13    3.58    1.83
  -2  -1 -13   10.38    2.34
  -2   1  13    9.26    2.26
   2  -1  13    9.40    2.30
   2  -1  13   10.78    2.60
  -2   1  12   11.09    2.69
  -2  -1 -12    6.33    1.94
   2   1 -12    7.25    2.20
   2  -1  12    8.01    2.19
   2  -1  12    7.97    2.21
  -2   1  12    5.66    2.39
  -2   1  11   22.64    3.16
   2  -1  11   19.58    2.73
  -2  -1 -11   22.43    2.98
  -2   1  11   24.50    3.40
  -2  -1 -11   23.60    2.02
   2   1 -11   18.68    3.04
   2  -1  11   18.72    2.97
   2   1 -10   43.01    4.18
   2  -1  10   43.33    3.79
   2  -1  10   42.53    2.41
  -2  -1 -10   39.22    3.54
  -2   1  10   39.94    4.01
   2  -1  10   45.17    4.07
  -2  -1 -10   41.28    2.70
  -2   1  10   47.44    3.16
  -2   1  10   44.70    4.08
   2   1  -9   52.41    4.34
   2  -1   9   57.68    4.06
  -2   1   9   50.06    3.00
  -2  -1  -9   54.26    3.95
   2  -1   9   53.52    2.62
  -2   1   9   58.11    4.53
   2  -1   9   52.90    4.29
  -2  -1  -9   52.04    3.05
  -2   1   9   61.33    3.57
  -2   1   9   49.07    3.89
   2  -1   8    7.02    0.94
  -2   1   8    6.44    1.59
   2   1  -8    5.59    1.99
   2  -1   8    6.00    1.59
  -2  -1  -8    5.22    1.45
  -2   1   8    5.99    1.31
  -2   1   8    3.65    1.62
   2  -1   8    7.37    1.95
  -2  -1  -8    6.06    1.35
  -2   1   8    7.54    1.57
   2  -1   7   27.38    2.43
  -2   1   7   20.46    2.15
   2  -1   7   23.36    1.60
  -2  -1  -7   23.82    2.39
   2  -1   7   23.69    1.44
  -2   1   7   18.93    2.53
  -2  -1  -7   24.73    2.18
  -2   1   7   24.32    2.39
   2  -1   7   26.40    2.82
   2   1  -7   20.77    2.46
  -2   1   7   23.63    2.18
   2   1  -6   44.09    3.14
   2  -1   6   42.25    2.71
  -2   1   6   39.31    2.80
   2  -1   6   44.70    2.05
  -2   1   6   38.85    3.24
  -2  -1  -6   43.88    2.91
   2  -1   6   44.07    3.21
  -2  -1  -6   43.22    2.90
  -2   1   6   39.84    3.00
  -2   1   6   44.28    2.86
  -2   1   5  127.00    5.18
   2  -1   5  123.36    3.54
  -2  -1  -5  123.86    4.71
  -2   1   5  125.11    5.44
   2  -1   5  117.27    4.97
  -2  -1  -5  138.83    5.45
  -2   1   5  120.53    5.31
  -2   1   5  123.41    4.71
   2  -1   5  122.00    4.41
   2   1  -5  123.28    4.87
   2  -1   4  118.22    3.29
   2  -1   4  114.81    3.24
  -2  -1  -4  113.90    4.21
  -2   1   4  122.09    3.28
  -2   1   4  117.98    4.99
  -2  -1  -4  116.74    4.25
   2  -1   4  113.31    4.62
  -2  -1  -4  130.42    5.37
  -2   1   4  120.55    5.31
  -2   1   4  124.34    5.16
  -2   1   4  125.79    4.49
   2  -1   4  120.62    4.04
   2   1  -4  116.40    4.38
  -2  -1  -3   63.76    3.74
   2  -1   3   64.76    2.19
  -2  -1  -3   63.52    2.74
  -2   1   3   66.05    1.81
  -2   1   3   67.87    3.43
   2  -1   3   64.19    2.31
  -2  -1  -3   63.96    2.68
   2   1  -3   61.62    1.53
  -2   1   3   68.58    3.87
   2  -1   3   66.80    3.15
  -2  -1  -3   73.21    4.02
  -2   1   3   71.16    3.97
   2  -1   3   64.33    2.66
   2   1  -3   63.70    2.85
  -2  -1  -2   74.02    4.17
   2  -1   2   75.12    2.47
  -2  -1  -2   81.16    2.80
  -2   1   2   80.38    3.51
  -2  -1  -2   80.31    2.61
   2  -1   2   73.10    3.16
  -2  -1  -2   89.00    4.44
  -2   1   2   79.50    4.19
   2  -1   2   76.00    2.84
  -2   1   2   82.36    4.31
   2   1  -2   73.58    2.90
  -2  -1  -1   72.39    4.12
  -2  -1  -1   74.83    2.12
  -2   1   1   75.21    2.15
  -2   1   1   77.90    4.21
   2  -1   1   74.77    2.04
  -2  -1  -1   74.65    2.47
  -2   1   1   81.47    3.17
   2  -1   1   75.98    2.78
   2  -1   1   73.47    2.56
  -2  -1  -1   75.44    4.12
  -2   1   1   73.52    4.11
   2   1  -1   71.67    2.66
   2   1   0  103.90    3.56
  -2  -1   0   88.82    4.62
  -2   1   0   94.35    4.70
  -2  -1   0   98.36    2.76
  -2   1   0  102.67    2.68
  -2  -1   0  102.54    2.14
  -2   1   0  105.49    3.41
  -2   1   0  100.77    2.72
   2  -1   0  100.88    2.24
  -2  -1   0  100.72    4.83
  -2   1   0   98.75    4.78
  -2  -1   1   74.47    4.17
   2   1   1   72.91    2.79
  -2  -1   1   72.69    2.14
  -2   1  -1   72.75    2.35
  -2   1  -1   75.65    2.60
   2  -1  -1   74.52    2.23
  -2   1  -1   67.57    3.95
  -2  -1   1   79.25    4.21
  -2   1  -1   81.63    4.29
  -2  -1   2   76.87    4.26
  -2   1  -2   78.95    2.73
   2   1   2   77.43    2.88
  -2   1  -2   76.60    4.07
  -2  -1   2   76.42    2.22
  -2   1  -2   81.06    3.07
  -2  -1   2   82.39    3.50
   2  -1  -2   75.08    2.24
  -2  -1   2   83.80    4.33
  -2   1  -2   77.01    4.22
   2  -1  -2   80.96    3.13
   2   1   2   78.85    2.54
  -2   1  -3   65.65    3.07
  -2   1  -3   67.64    3.85
  -2  -1   3   70.15    3.38
   2   1   3   64.06    2.33
  -2  -1   3   69.83    3.97
   2   1   3   62.87    2.57
  -2   1  -3   71.28    4.00
  -2   1  -3   64.76    2.73
  -2  -1   3   68.03    3.21
   2  -1  -3   61.54    2.86
  -2   1  -4  113.72    5.13
  -2  -1   4  121.80    4.65
   2   1   4  118.62    3.70
  -2   1  -4  126.34    4.80
  -2   1  -4  121.00    4.24
   2   1   4  118.51    3.79
  -2  -1   4  118.17    5.24
  -2   1  -4  128.48    5.40
  -2  -1   4  120.80    4.91
   2  -1  -4  120.58    4.37
   2   1   5  124.25    4.19
  -2   1  -5  118.99    5.17
  -2   1  -5  127.66    5.19
  -2  -1   5  123.78    5.27
  -2   1  -5  126.80    4.69
   2   1   5  119.30    4.76
  -2  -1   5  122.70    5.28
  -2   1  -5  125.30    5.31
  -2  -1   5  120.30    5.00
   2   1   5  124.07    4.02
   2  -1  -5  118.27    4.64
   2   1   6   42.14    2.57
  -2   1  -6   44.02    3.10
  -2   1  -6   42.60    3.09
  -2  -1   6   42.80    3.18
  -2   1  -6   43.25    2.87
   2   1   6   43.68    2.93
  -2  -1   6   46.09    3.16
  -2   1  -6   43.97    3.04
  -2  -1   6   40.55    3.06
   2   1   6   40.11    2.27
   2  -1  -6   39.78    2.79
   2   1   7   25.58    2.23
   2   1   7   24.95    1.91
   2  -1  -7   21.88    2.31
  -2  -1   7   23.33    2.55
  -2   1  -7   26.29    2.68
  -2  -1   7   23.73    2.61
  -2   1  -7   22.34    2.24
  -2  -1   7   22.62    2.25
  -2   1  -7   24.10    2.30
   2   1   7   23.29    2.37
  -2   1  -7   23.39    2.39
   2  -1  -8    5.61    1.61
   2   1   8    5.81    1.08
   2   1   8    7.09    1.75
  -2   1  -8    6.84    1.79
  -2   1  -8    3.80    1.29
  -2   1  -8    4.51    1.49
  -2  -1   8   10.37    2.13
  -2  -1   8    6.99    2.01
   2   1   8    6.94    1.55
  -2  -1   8    7.08    1.39
  -2   1  -8    5.67    1.31
   2  -1  -9   54.01    4.13
   2   1   9   54.77    3.81
  -2   1  -9   55.14    3.37
   2   1   9   55.73    3.22
   2   1   9   54.66    2.94
  -2   1  -9   55.13    4.16
  -2  -1   9   45.19    3.88
  -2   1  -9   56.73    4.01
   2   1   9   60.55    4.16
  -2  -1   9   59.02    3.44
  -2   1  -9   53.61    3.26
  -2  -1   9   49.20    4.40
   2  -1 -10   44.43    4.00
   2   1  10   36.73    3.38
  -2  -1  10   44.18    4.01
  -2   1 -10   42.35    3.65
   2   1  10   41.58    3.76
  -2  -1  10   42.57    2.91
  -2   1 -10   42.29    2.88
  -2  -1  10   44.92    4.53
   2   1  10   42.65    2.79
  -2  -1  11   23.90    3.70
   2   1  11   22.87    2.85
   2   1  11   21.49    2.10
  -2   1 -11   21.26    2.87
   2  -1 -11   18.85    2.86
  -2  -1  11   20.50    3.03
  -2  -1  11   24.46    2.14
   2   1  11   25.57    3.25
   2  -1 -12    3.97    2.06
  -2  -1  12    6.16    2.72
   2   1  12    8.26    1.44
  -2   1 -12    4.71    1.84
  -2  -1  12    4.20    1.90
   2   1  12    7.64    2.16
   2  -1 -13    7.60    2.34
  -2  -1  13    8.60    2.93
   2   1  13   11.39    1.66
  -2   1 -13    8.94    2.38
  -2  -1  13    9.32    2.42
   2   1  13    8.89    2.37
   2  -1 -14    0.62    1.85
  -2  -1  14    2.81    2.03
  -2   1 -14    3.00    1.80
  -2  -1  14    0.78    1.63
   2   1  14    2.03    1.49
   2  -1 -15   12.61    3.20
  -2  -1  15    5.91    2.46
  -2  -1  15   11.27    2.49
  -2   1 -15    8.86    2.68
   2   1  15    8.03    2.35
  -2  -1  16    6.92    2.47
   2  -1 -16   12.19    2.95
  -2   1 -16   12.04    2.85
  -2  -1  16    8.01    2.18
   2   1  16    9.21    2.96
   2  -1 -17    3.01    2.61
  -2  -1  17    1.11    2.12
  -2   1 -17    2.19    1.81
  -2  -1  17    2.31    1.58
   2   1  17    2.05    1.80
   2  -1 -18   -1.14    2.00
  -2  -1  18    0.45    1.56
  -2   1 -18    2.60    1.88
  -2  -1  18    1.00    1.38
   2   1  18   -3.87    2.37
  -2  -1  19    3.40    1.85
  -2  -1  19    0.31    1.66
   2   1  19    3.76    1.86
  -2   2  19   -1.88    1.52
   2   2 -18   -0.30    2.03
  -2   2  18    7.45    2.55
  -2  -2 -18    6.37    2.63
   2   2 -18    5.80    1.93
  -2   2  18    2.91    1.88
   2  -2  18    2.66    1.90
  -2   2  17    7.54    2.39
   2   2 -17    7.23    1.84
   2   2 -17   12.80    3.28
  -2  -2 -17    7.13    2.36
  -2   2  17    6.82    2.13
   2  -2  17    7.27    2.56
  -2   2  16    5.82    2.33
   2   2 -16    2.45    2.18
  -2  -2 -16    5.55    2.10
   2   2 -16    4.27    1.77
  -2   2  16    5.04    2.18
   2  -2  16    2.65    1.53
   2  -2  15   12.62    2.82
   2   2 -15   16.31    3.27
  -2  -2 -15   22.49    3.42
   2   2 -15   19.13    2.66
  -2   2  15   14.65    3.25
  -2   2  15   12.53    2.72
   2  -2  15   16.77    3.02
   2  -2  14    9.63    2.27
   2   2 -14   12.68    3.00
  -2  -2 -14    7.07    2.21
   2   2 -14   11.39    2.06
  -2   2  14   12.23    2.73
  -2   2  14   11.23    2.90
   2  -2  14    7.00    2.40
  -2  -2 -13   11.09    2.36
   2   2 -13    9.64    2.81
   2   2 -13   15.27    2.17
  -2   2  13   10.77    2.66
   2  -2  13   12.29    2.57
  -2   2  13    9.98    2.50
   2  -2  13   13.73    2.95
   2  -2  12   40.50    4.04
   2   2 -12   35.73    4.24
  -2  -2 -12   31.94    3.56
   2  -2  12   29.48    3.75
  -2   2  12   33.92    3.78
  -2   2  12   29.95    3.68
   2   2 -11   56.66    4.96
   2  -2  11   64.62    4.87
  -2  -2 -11   56.11    4.35
  -2   2  11   63.79    5.12
   2  -2  11   68.30    5.25
  -2  -2 -11   56.13    3.08
  -2   2  11   63.02    4.74
   2   2 -10    3.33    2.09
   2  -2  10    1.59    1.70
  -2  -2 -10    3.58    1.74
  -2   2  10    2.98    1.01
  -2   2  10    0.61    1.77
   2  -2  10    3.52    1.81
  -2  -2 -10    2.72    0.83
  -2   2  10    2.26    1.52
   2   2  -9   45.62    4.24
   2  -2   9   49.58    3.88
   2  -2   9   48.64    2.21
  -2   2   9   51.46    3.01
  -2  -2  -9   43.62    3.56
  -2   2   9   49.35    4.31
   2  -2   9   46.80    4.14
  -2  -2  -9   52.39    3.09
  -2   2   9   50.69    3.71
   2   2  -8   80.42    5.16
   2  -2   8   76.86    4.40
  -2  -2  -8   89.45    4.73
  -2  -2  -8   88.47    4.12
  -2   2   8   83.40    4.02
  -2   2   8   79.46    5.20
   2  -2   8   85.20    5.29
  -2   2   8   85.13    4.59
  -2   2   8   77.74    4.30
   2  -2   8   84.16    2.78
   2   2  -7   81.04    4.90
   2  -2   7   80.72    4.16
  -2   2   7   75.80    3.89
  -2  -2  -7   78.31    4.15
   2  -2   7   79.65    2.45
  -2   2   7   74.24    4.80
   2  -2   7   82.65    4.92
  -2  -2  -7   73.64    3.86
  -2   2   7   81.66    4.46
  -2   2   7   77.57    3.98
   2   2  -6   50.37    3.52
   2  -2   6   45.19    2.93
  -2  -2  -6   53.50    3.11
   2  -2   6   52.09    1.71
  -2   2   6   46.61    3.63
   2  -2   6   46.13    3.51
  -2  -2  -6   56.11    3.37
  -2   2   6   54.05    3.62
  -2   2   6   52.00    3.20
  -2   2   6   50.04    2.92
   2   2  -5  199.96    6.84
   2  -2   5  195.77    4.55
  -2   2   5  201.65    4.61
  -2   2   5  196.38    7.24
   2  -2   5  198.89    4.14
   2   2  -5  183.34    4.78
  -2  -2  -5  194.40    6.13
   2  -2   5  203.42    7.23
  -2  -2  -5  208.40    7.10
  -2   2   5  202.46    7.33
  -2   2   5  205.92    6.98
   2  -2   5  193.71    6.09
  -2   2   5  201.11    6.17
   2  -2   4   69.98    3.15
  -2   2   4   69.81    3.93
  -2   2   4   70.24    1.76
  -2  -2  -4   65.13    3.01
  -2   2   4   68.74    3.83
   2  -2   4   72.23    2.06
   2   2  -4   66.62    1.97
   2  -2   4   69.73    3.72
  -2  -2  -4   72.30    4.04
  -2   2   4   77.08    4.31
   2  -2   4   70.12    2.08
   2   2  -4   69.20    3.43
   2  -2   3  118.69    2.99
  -2  -2  -3  117.66    3.91
   2  -2   3  120.67    3.22
  -2   2   3  119.49    4.81
   2  -2   3  122.46    4.10
   2  -2   3  121.90    4.63
  -2  -2  -3  128.83    5.59
  -2   2   3  122.75    5.55
  -2   2   3  122.23    5.46
   2   2  -3  122.79    4.32
   2  -2   2  171.62    4.10
   2  -2   2  183.61    5.10
  -2   2   2  189.91    7.00
  -2  -2  -2  176.40    4.79
   2  -2   2  180.16    4.59
  -2   2   2  184.95    5.80
   2  -2   2  180.90    5.53
  -2  -2  -2  184.77    6.93
  -2   2   2  173.61    6.79
   2   2  -2  171.75    4.96
  -2   2   1  185.35    6.96
  -2  -2  -1  180.29    4.69
  -2  -2  -1  189.88    4.14
  -2   2   1  200.62    5.62
   2  -2   1  191.32    5.40
  -2  -2  -1  186.96    7.00
  -2   2   1  194.81    7.21
   2  -2   1  182.16    4.02
   2   2  -1  184.46    5.57
  -2   2   1  187.50    4.48
   2  -2   1  198.09    5.27
   2   2  -1  184.89    4.81
  -2   2   0   12.13    1.12
  -2   2   0   12.24    2.05
  -2  -2   0   14.77    1.03
  -2   2   0   13.90    1.00
   2  -2   0   14.12    1.19
   2   2   0   16.52    1.46
  -2   2   0   18.54    2.36
   2   2   0   14.82    1.01
   2   2   1  186.32    5.26
  -2   2  -1  178.70    6.87
  -2  -2   1  179.61    6.90
  -2   2  -1  198.26    7.19
  -2  -2   1  185.65    4.47
  -2   2  -1  186.23    4.68
  -2   2  -2  167.95    6.62
  -2   2  -2  181.12    4.81
  -2  -2   2  176.53    4.34
  -2  -2   2  173.30    6.73
  -2   2  -2  189.33    7.01
   2   2   2  175.99    5.05
   2   2   2  172.81    4.09
   2   2   3  125.06    4.04
   2   2   3  117.00    3.20
  -2   2  -3  117.03    5.33
  -2  -2   3  119.51    4.65
  -2   2  -3  119.07    3.97
  -2  -2   3  121.09    5.40
  -2   2  -3  126.80    5.63
  -2  -2   3  119.39    4.53
   2  -2  -3  124.39    4.30
   2   2   4   71.09    2.60
  -2   2  -4   69.15    4.06
  -2   2  -4   70.82    3.20
  -2  -2   4   72.56    3.70
  -2  -2   4   66.15    3.95
  -2   2  -4   78.42    4.29
  -2  -2   4   71.44    3.57
   2  -2  -4   67.70    3.21
   2   2   4   69.50    2.97
   2   2   5  200.35    5.52
  -2   2  -5  197.23    7.08
  -2  -2   5  198.67    6.89
  -2   2  -5  197.56    6.25
  -2  -2   5  200.10    7.13
  -2   2  -5  209.35    7.31
   2   2   5  199.33    5.77
  -2  -2   5  198.93    6.89
   2  -2  -5  205.23    6.39
   2   2   6   49.30    2.69
  -2  -2   6   45.04    3.25
  -2   2  -6   46.68    1.86
   2   2   6   54.04    2.76
  -2   2  -6   49.94    3.08
  -2   2  -6   50.14    3.33
   2   2   6   51.81    3.18
  -2  -2   6   48.06    3.33
  -2   2  -6   48.54    3.35
  -2  -2   6   48.43    3.39
   2  -2  -6   47.58    3.08
   2   2   7   80.82    3.83
   2   2   7   81.67    3.67
  -2   2  -7   80.84    4.25
  -2  -2   7   76.33    4.48
  -2   2  -7   77.74    4.15
   2   2   7   79.59    4.23
  -2  -2   7   82.78    4.30
  -2   2  -7   77.61    4.18
  -2  -2   7   83.73    4.82
   2  -2  -7   78.69    4.14
   2   2   8   77.96    4.16
   2   2   8   86.49    3.95
  -2   2  -8   75.65    4.08
  -2   2  -8   82.44    4.49
  -2  -2   8   86.16    4.94
   2   2   8   88.29    4.63
  -2  -2   8   93.60    4.45
  -2   2  -8   83.91    4.36
  -2  -2   8   85.64    5.38
   2  -2  -8   79.25    4.53
   2   2   9   50.08    3.51
  -2  -2   9   49.76    3.93
  -2   2  -9   47.97    3.71
  -2   2  -9   46.36    3.06
   2   2   9   45.83    3.61
  -2  -2   9   53.89    3.29
  -2  -2   9   50.97    4.58
   2   2   9   52.79    3.27
   2  -2  -9   47.52    3.76
   2   2  10    3.18    1.04
  -2   2 -10    2.79    1.13
  -2   2 -10    2.73    1.44
  -2  -2  10    1.17    1.43
   2  -2 -10    2.31    1.62
   2   2  10    3.45    1.66
  -2  -2  10    5.73    2.47
  -2  -2  10    0.55    0.88
   2  -2 -11   63.70    4.87
  -2   2 -11   63.95    3.47
  -2  -2  11   60.86    4.63
   2   2  11   64.58    3.78
  -2   2 -11   51.92    4.23
   2   2  11   63.45    4.70
  -2  -2  11   69.46    3.63
  -2  -2  11   55.52    5.60
   2  -2 -12   37.85    4.17
  -2  -2  12   25.50    4.45
   2   2  12   36.93    2.96
  -2  -2  12   32.63    3.58
  -2   2 -12   33.75    3.57
   2   2  12   36.38    3.87
  -2  -2  13    5.90    2.86
   2  -2 -13    8.31    2.55
   2   2  13   10.14    1.74
  -2   2 -13   10.33    2.51
  -2  -2  13   11.28    2.47
   2   2  13    8.32    2.18
  -2  -2  14    8.39    2.80
  -2   2 -14   12.83    2.73
  -2  -2  14    9.74    2.49
   2  -2 -14   13.90    3.05
   2   2  14   11.32    2.73
   2  -2 -15   13.97    3.02
  -2   2 -15   14.78    2.87
  -2  -2  15   17.24    2.92
   2   2  15   16.58    3.04
   2  -2 -16    0.59    2.07
  -2  -2  16    0.07    2.32
  -2  -2  16    3.06    2.00
  -2   2 -16    0.47    1.81
   2   2  16    5.27    2.03
  -2  -2  17    7.12    2.80
   2  -2 -17    6.94    2.68
  -2   2 -17   10.21    2.81
  -2  -2  17    8.72    2.46
   2   2  17   10.84    2.70
  -2  -2  18    5.25    2.51
  -2   2 -18    1.27    2.04
  -2  -2  18    2.99    1.86
   2   2  18    3.06    2.17
  -2  -2  19    0.90    1.62
  -2  -2  19   -1.16    1.86
   2   2  19    2.24    1.91
   2   3 -18   -1.15    2.33
  -2   3  18    1.96    1.71
   2  -3  18    5.31    2.44
   2   3 -17    1.56    2.34
  -2  -3 -17    6.44    2.43
   2   3 -17   -1.17    1.72
  -2   3  17    5.13    2.04
   2  -3  17    5.59    2.27
  -2   3  17    4.50    1.86
  -2   3  16   -3.00    2.18
   2   3 -16    2.05    2.23
  -2  -3 -16    1.39    1.93
   2   3 -16    1.54    1.43
  -2   3  16    4.39    1.81
   2  -3  16    2.59    1.80
   2  -3  16    3.85    2.16
   2  -3  15    3.79    2.30
  -2  -3 -15    1.87    2.07
   2   3 -15    2.00    1.42
   2   3 -15    1.80    2.06
   2  -3  15    3.90    2.03
  -2   3  15    1.04    1.64
  -2   3  15    0.04    1.83
  -2   3  14   12.98    2.79
   2   3 -14   10.64    2.72
   2  -3  14    9.69    2.50
  -2  -3 -14   10.87    2.44
   2   3 -14   10.41    2.01
  -2   3  14   11.72    2.66
   2  -3  14    9.03    2.39
  -2   3  13    4.69    2.05
   2   3 -13    5.83    2.25
   2  -3  13    8.24    2.57
  -2  -3 -13    4.67    1.99
   2   3 -13    4.11    1.39
  -2   3  13    7.17    2.33
   2  -3  13    6.11    2.04
   2   3 -12    6.50    2.42
   2  -3  12   10.70    2.30
  -2  -3 -12   10.22    2.22
   2   3 -12    5.61    1.42
  -2   3  12    9.23    2.38
   2  -3  12   12.37    2.71
  -2   3  12    9.18    2.32
  -2   3  11    7.88    2.05
  -2  -3 -11    6.01    1.65
   2  -3  11    7.09    2.21
   2   3 -11    5.71    1.38
  -2   3  11    5.30    1.13
   2   3 -11    5.87    2.30
   2  -3  11    6.77    2.25
  -2  -3 -11    5.43    1.09
  -2   3  11    9.46    2.42
  -2   3  10   10.83    1.95
   2   3 -10   11.00    2.38
   2  -3  10   11.05    2.23
  -2  -3 -10   12.96    2.21
   2   3 -10   10.13    1.56
  -2   3  10   12.73    2.65
  -2   3  10   10.81    1.49
   2  -3  10    7.52    2.25
  -2  -3 -10   10.59    1.49
  -2   3   9   11.81    1.91
   2   3  -9   15.58    2.73
   2  -3   9   15.14    2.33
  -2  -3  -9   10.77    1.95
   2   3  -9   13.36    1.69
  -2  -3  -9   16.11    1.83
  -2   3   9   15.54    2.82
   2  -3   9   16.06    2.66
  -2   3   9   13.87    1.72
  -2   3   8   17.03    1.90
   2   3  -8   16.42    2.66
  -2   3   8   20.32    2.84
   2  -3   8   18.15    2.38
  -2  -3  -8   16.46    2.23
   2   3  -8   15.97    1.60
  -2  -3  -8   17.55    1.96
   2  -3   8   18.86    2.79
  -2   3   8   21.91    2.14
  -2   3   7    5.75    1.28
  -2   3   7    4.57    1.33
  -2  -3  -7    6.37    1.55
   2  -3   7    7.25    1.58
   2   3  -7    4.67    0.89
  -2   3   7    7.72    1.95
   2   3  -7    5.75    2.03
  -2  -3  -7    7.02    1.46
   2  -3   7    6.56    1.83
   2   3  -6    5.14    1.58
  -2   3   6    3.87    1.40
  -2  -3  -6    2.65    1.14
   2  -3   6    4.44    1.30
   2   3  -6    3.23    0.69
  -2   3   6    5.23    1.76
  -2  -3  -6    3.35    1.27
   2  -3   6    2.28    1.48
  -2   3   6    3.91    1.04
  -2   3   5   14.44    2.22
   2   3  -5   15.94    2.09
  -2   3   5   16.55    0.85
  -2  -3  -5   17.00    1.69
  -2   3   5   17.29    2.10
  -2   3   5   21.82    2.52
   2   3  -5   16.85    1.08
   2  -3   5   17.13    1.86
   2  -3   5   19.09    2.35
  -2   3   4   27.51    2.80
   2   3  -4   22.95    2.24
   2  -3   4   22.79    0.80
  -2   3   4   21.62    0.74
  -2  -3  -4   25.35    1.86
  -2   3   4   22.18    2.34
  -2   3   4   22.13    2.41
   2   3  -4   22.45    0.94
   2  -3   4   22.02    2.41
   2  -3   4   22.44    1.86
   2   3  -3   14.60    1.60
   2  -3   3   15.44    0.82
  -2  -3  -3   12.84    1.28
  -2   3   3   14.22    1.79
   2  -3   3   14.18    1.42
  -2   3   3   15.67    2.14
   2  -3   3   14.64    1.77
   2  -3   3   13.67    0.65
  -2   3   3   11.33    2.05
   2   3  -2   16.99    1.70
   2  -3   2   16.04    1.46
  -2   3   2   18.14    1.76
  -2  -3  -2   14.92    1.26
   2  -3   2   18.46    1.21
  -2   3   2   18.16    2.38
   2  -3   2   16.21    1.70
   2  -3   2   17.02    0.87
  -2   3   2   15.84    2.19
   2   3  -2   17.82    1.48
   2   3  -1   21.22    1.77
   2  -3   1   22.24    1.67
  -2  -3  -1   20.15    1.35
   2  -3   1   20.54    1.09
  -2   3   1   21.76    1.73
  -2   3   1   20.91    1.31
   2  -3   1   21.77    1.77
  -2   3   1   24.90    2.70
  -2   3   1   23.75    2.60
   2   3  -1   20.38    1.37
   2  -3   0    2.48    0.24
   2   3   0    2.76    0.51
  -2  -3   0    3.12    0.60
  -2   3   0    2.97    0.68
  -2   3   0    2.24    0.57
   2  -3   0    2.57    0.66
   2   3   0    3.18    0.89
  -2   3   0    3.58    1.52
  -2   3   0    1.38    1.54
  -2  -3   1   18.92    1.28
  -2   3  -1   22.42    1.26
  -2   3  -1   20.34    1.38
   2  -3  -1   21.50    1.38
   2   3   1   19.85    1.63
  -2   3  -1   19.11    2.44
   2   3   1   20.34    1.00
  -2   3  -1   23.41    2.68
  -2   3  -2   16.53    1.35
   2  -3  -2   15.65    1.04
   2   3   2   16.13    0.80
   2   3   2   17.40    1.53
  -2   3  -2   17.12    2.45
  -2  -3   2   17.90    1.23
  -2   3  -2   18.98    2.44
  -2  -3   3   15.23    1.63
   2   3   3   16.27    1.06
   2   3   3   14.51    0.86
  -2   3  -3   13.85    1.35
   2   3   3   12.80    1.35
  -2   3  -3   11.86    1.93
   2  -3  -3   15.68    1.53
  -2   3  -3   13.84    2.20
  -2   3  -4   23.41    2.66
   2   3   4   26.07    1.59
   2   3   4   24.79    1.32
  -2   3  -4   24.80    2.62
  -2   3  -4   24.16    1.89
   2  -3  -4   23.98    1.11
  -2  -3   4   25.43    2.22
   2   3   4   22.42    1.77
   2  -3  -4   24.51    1.99
  -2   3  -5   17.19    2.34
   2   3   5   17.96    1.36
  -2  -3   5   18.51    2.19
   2   3   5   18.61    1.67
  -2   3  -5   16.56    2.16
  -2   3  -5   17.32    1.80
  -2  -3   5   17.27    2.07
   2  -3  -5   17.62    1.05
   2  -3  -5   19.07    1.96
  -2  -3   6    2.65    1.40
   2   3   6    3.26    0.90
   2   3   6    4.16    1.07
  -2   3  -6    3.82    1.46
  -2   3  -6    2.39    1.07
  -2  -3   6    2.94    1.40
   2  -3  -6    4.44    1.33
   2  -3  -6    3.77    0.63
   2  -3  -7    5.09    1.39
  -2   3  -7    4.93    0.52
   2   3   7    6.33    1.22
   2   3   7    6.42    1.28
  -2   3  -7    7.21    1.61
  -2   3  -7    4.67    1.41
  -2  -3   7    4.71    1.51
   2   3   7    6.33    1.35
  -2  -3   7    7.73    2.08
  -2  -3   7    5.27    1.57
   2  -3  -7    5.92    0.78
  -2  -3   8   16.17    2.72
   2  -3  -8   17.16    2.24
  -2   3  -8   18.56    2.33
  -2  -3   8   14.31    2.29
   2   3   8   20.05    2.25
  -2  -3   8   21.02    2.29
  -2   3  -8   17.50    2.22
   2   3   8   20.96    2.14
  -2   3  -9   14.01    1.92
   2  -3  -9   18.91    2.58
  -2  -3   9   12.60    2.93
   2   3   9   14.82    1.95
  -2   3  -9   16.32    2.25
  -2  -3   9   11.83    2.08
   2   3   9   14.20    2.14
  -2  -3   9   15.86    2.04
  -2  -3  10   12.36    3.19
   2   3  10   12.38    1.83
  -2   3 -10   12.25    2.25
  -2  -3  10   10.95    2.10
   2   3  10   13.46    2.17
  -2  -3  10   12.48    1.77
  -2   3 -10   13.55    1.75
   2  -3 -10   11.41    2.26
   2  -3 -11    9.25    2.31
  -2  -3  11    4.57    2.71
   2   3  11    8.16    1.60
  -2   3 -11    4.96    1.88
  -2   3 -11    5.31    1.18
  -2  -3  11    5.89    1.81
   2   3  11    6.13    1.67
  -2  -3  11    6.99    1.30
   2  -3 -12   11.05    2.66
  -2  -3  12    8.43    3.09
   2   3  12   10.29    1.72
  -2   3 -12   10.78    2.26
  -2  -3  12    7.89    2.21
   2   3  12    9.54    2.27
  -2  -3  13    5.48    3.00
   2   3  13    9.93    1.84
  -2   3 -13    6.95    2.33
  -2  -3  13    6.05    1.99
   2   3  13    5.23    1.99
   2  -3 -13    5.82    2.23
  -2  -3  14    6.76    3.03
  -2  -3  14   11.98    2.70
   2  -3 -14    8.26    2.42
   2   3  14   11.15    1.96
  -2   3 -14    9.77    2.45
   2   3  14   16.08    2.77
   2  -3 -15    5.26    2.29
  -2  -3  15   -0.02    1.95
  -2   3 -15    1.48    2.09
  -2  -3  15    4.18    1.83
   2   3  15    3.55    1.82
  -2  -3  16    3.63    2.55
   2  -3 -16    4.46    2.63
  -2  -3  16    2.51    1.78
  -2   3 -16   -1.01    1.72
   2   3  16    2.16    1.84
  -2   3 -17    6.34    2.55
  -2  -3  17    5.35    2.07
  -2  -3  17    2.36    1.81
   2   3  17    5.90    2.35
   2  -3 -17    3.81    2.41
  -2  -3  18    6.10    2.73
   2  -3 -18    9.11    2.79
  -2   3 -18    1.88    2.08
  -2  -3  18    0.91    1.74
   2   3  18    5.18    2.61
  -2  -3  19    5.66    2.14
   2   3  19    4.50    2.33
   2   4 -18    0.22    2.26
  -2  -4 -18    0.30    1.50
  -2   4  18    1.86    2.05
   2  -4  18    1.74    1.96
  -2  -4 -17    5.62    2.54
   2   4 -17    4.30    2.77
  -2   4  17    4.06    2.04
   2  -4  17    6.99    2.73
   2  -4  16    5.39    2.51
   2   4 -16    2.57    2.37
  -2  -4 -16    2.85    1.80
   2   4 -16    5.36    1.76
  -2   4  16    2.81    2.09
   2  -4  16    8.49    2.78
  -2   4  16    4.19    1.99
   2  -4  15    6.28    2.43
   2   4 -15    3.08    2.05
  -2   4  15    4.52    2.01
  -2  -4 -15    2.78    1.98
   2   4 -15    4.37    1.64
  -2   4  15    3.98    1.80
   2  -4  15    4.93    2.19
  -2   4  14   12.31    2.51
   2   4 -14   14.01    3.22
  -2  -4 -14   10.05    2.34
  -2   4  14   17.19    3.07
   2   4 -14   15.77    2.29
   2  -4  14   14.82    3.01
   2  -4  14   16.08    3.07
  -2   4  13   10.36    2.28
   2   4 -13   12.86    2.99
   2  -4  13   14.94    2.84
   2   4 -13   14.52    2.14
  -2  -4 -13   11.10    2.40
  -2   4  13   16.67    3.05
   2  -4  13   14.47    3.10
   2  -4  12    2.95    2.16
  -2  -4 -12    1.35    1.61
   2   4 -12    3.69    1.12
  -2   4  12    0.82    1.69
  -2   4  12    1.98    1.45
   2  -4  12    3.05    2.27
   2   4 -12    1.11    1.60
  -2   4  11    2.17    1.22
   2   4 -11    1.40    2.23
  -2  -4 -11    2.40    1.47
   2  -4  11    3.64    1.91
  -2   4  11    0.61    1.74
   2   4 -11    3.18    1.16
  -2  -4 -11    2.58    0.96
  -2   4  11    2.32    0.94
   2  -4  11    2.67    1.65
   2   4 -10   33.26    3.98
   2  -4  10   25.03    3.04
   2   4 -10   25.26    2.24
  -2   4  10   31.56    3.67
  -2  -4 -10   27.12    2.96
  -2  -4 -10   28.76    2.41
  -2   4  10   30.20    2.40
  -2   4  10   28.23    2.71
   2  -4  10   29.39    3.73
  -2   4   9   15.54    1.92
  -2  -4  -9   15.19    2.19
   2   4  -9   14.09    2.77
  -2   4   9   15.52    1.88
   2  -4   9   15.40    2.51
  -2   4   9   19.54    3.18
   2   4  -9   14.01    1.60
  -2  -4  -9   16.89    1.99
   2  -4   9   16.19    3.05
  -2   4   8    9.43    1.50
  -2   4   8    9.23    1.67
   2  -4   8    6.89    1.87
  -2  -4  -8    9.31    1.76
  -2   4   8    7.81    2.28
   2   4  -8    8.04    1.18
   2   4  -8    7.31    2.16
   2  -4   8    8.78    2.23
  -2  -4  -7   18.34    2.09
   2  -4   7   21.96    2.37
   2   4  -7   18.52    1.47
  -2   4   7   21.32    3.07
  -2   4   7   18.34    2.14
  -2   4   7   17.81    1.77
   2  -4   7   22.75    3.14
   2   4  -7   12.86    2.58
   2  -4   6   27.78    2.53
  -2  -4  -6   30.43    2.41
  -2  -4  -6   23.72    1.05
   2   4  -6   25.63    1.54
  -2   4   6   26.49    3.09
   2   4  -6   25.11    2.94
  -2   4   6   23.17    2.46
   2  -4   6   25.41    2.99
  -2   4   5   10.24    1.88
  -2  -4  -5    6.83    1.18
   2   4  -5    8.56    1.90
   2  -4   5    9.05    1.50
  -2   4   5   11.34    2.07
   2   4  -5    7.15    0.72
   2  -4   5    8.78    1.97
  -2   4   5    8.20    0.60
  -2   4   4   34.06    3.05
   2   4  -4   32.93    2.89
   2  -4   4   35.55    2.50
  -2  -4  -4   32.78    2.19
  -2   4   4   33.23    3.01
   2   4  -4   34.20    1.28
   2  -4   4   35.02    3.07
   2   4  -3   29.37    2.48
   2   4  -3   27.35    2.26
   2  -4   3   27.61    2.07
  -2  -4  -3   29.41    1.92
  -2   4   3   27.95    2.54
  -2   4   3   30.82    3.04
   2   4  -3   26.90    0.89
   2  -4   3   23.28    2.48
   2   4  -2    6.81    1.18
  -2  -4  -2    7.08    0.96
  -2   4   2    6.39    1.85
  -2   4   2    6.65    1.27
   2  -4   2    6.80    0.48
   2  -4   2    6.92    1.17
   2   4  -2    4.85    1.10
   2  -4   2    5.72    1.27
   2   4  -1    2.95    0.78
   2   4  -1    2.54    0.90
  -2  -4  -1    4.40    0.84
   2  -4   1    1.49    0.49
  -2   4   1    4.62    1.80
  -2   4   1    3.49    0.96
  -2   4   1    2.27    0.68
  -2  -4  -1    2.55    0.36
   2  -4   1    3.50    0.92
   2  -4   1    2.62    0.99
   2   4   0   75.72    2.67
   2   4   0   66.53    3.17
  -2  -4   0   69.22    2.72
  -2   4   0   64.64    4.50
   2  -4   0   64.77    2.17
  -2   4   0   79.91    3.08
  -2  -4   0   68.08    1.74
  -2   4   0   71.32    2.77
   2  -4   0   67.18    3.15
   2  -4   0   72.64    3.11
   2   4   1    3.47    0.49
  -2   4  -1    2.63    1.72
   2   4   1    1.88    0.88
  -2   4  -1    2.94    0.57
  -2   4  -1    2.86    0.72
   2  -4  -1    2.51    0.66
  -2  -4   1    1.93    0.56
   2   4   2    7.14    0.49
   2   4   2    6.26    1.08
  -2  -4   2    5.96    0.86
  -2   4  -2    6.23    0.55
  -2   4  -2    9.78    2.26
  -2   4  -2    7.10    1.04
   2  -4  -2    5.66    0.76
   2   4   2    6.34    0.39
  -2  -4   2    6.70    1.22
   2   4   2    7.19    0.45
   2   4   3   27.50    1.13
   2   4   3   25.01    1.92
  -2   4  -3   27.41    2.85
  -2   4  -3   26.51    1.92
   2  -4  -3   25.76    1.14
  -2  -4   3   25.56    2.13
   2   4   4   32.72    1.55
  -2   4  -4   30.92    3.07
  -2   4  -4   34.21    2.31
   2   4   4   36.35    2.37
  -2  -4   4   36.19    2.75
   2  -4  -4   32.92    2.37
   2  -4  -5    9.54    1.51
  -2  -4   5    7.21    1.65
   2   4   5    6.88    0.88
   2   4   5    8.48    1.37
  -2   4  -5    9.62    1.43
  -2   4  -5   12.75    2.20
  -2  -4   6   27.83    2.89
   2   4   6   24.20    2.18
  -2   4  -6   24.66    2.31
  -2   4  -6   27.78    2.75
   2  -4  -6   29.79    2.47
   2  -4  -7   16.92    2.08
   2   4   7   19.65    2.11
  -2   4  -7   17.54    2.19
  -2   4  -7   16.28    2.27
  -2  -4   7   17.45    2.79
  -2  -4   7   18.18    2.34
   2   4   7   21.29    2.26
  -2  -4   8    4.27    2.01
   2   4   8   10.09    1.73
   2  -4  -8    9.96    1.89
  -2   4  -8    6.29    1.49
  -2   4  -8    5.80    1.69
  -2  -4   8    7.07    1.84
   2   4   8    6.79    1.59
  -2  -4   9   16.08    2.98
   2  -4  -9   13.98    2.11
   2   4   9   20.54    2.34
  -2   4  -9   15.94    2.28
  -2   4  -9   17.71    2.17
  -2  -4   9   12.41    2.24
   2   4   9   17.95    2.31
  -2  -4   9   14.79    2.06
  -2  -4  10   29.72    4.20
   2   4  10   32.43    2.86
  -2   4 -10   34.03    2.77
  -2  -4  10   30.12    3.19
  -2   4 -10   27.31    2.96
   2   4  10   32.60    3.11
  -2  -4  10   33.86    2.79
   2  -4 -10   29.18    3.10
   2  -4 -11    3.94    1.77
  -2  -4  11    4.29    2.59
   2   4  11    2.53    1.25
   2   4  11    4.72    1.46
  -2   4 -11    2.01    1.61
  -2  -4  11    2.84    1.36
   2   4  11    3.06    1.33
  -2  -4  11    4.24    1.25
  -2   4 -11    1.73    0.94
  -2  -4  12   -1.34    2.44
   2   4  12    0.67    1.07
  -2   4 -12    6.26    2.00
  -2  -4  12    0.53    1.37
   2   4  12    1.27    1.39
   2  -4 -12    1.13    1.56
   2  -4 -13   15.66    3.01
  -2  -4  13   11.03    3.45
   2   4  13   14.23    2.15
  -2   4 -13    9.90    2.37
  -2  -4  13   16.08    2.74
   2   4  13   13.19    2.53
   2  -4 -14   11.15    2.82
  -2  -4  14    6.89    3.07
   2   4  14   14.65    2.22
  -2   4 -14   17.07    2.96
  -2  -4  14   13.96    2.55
   2   4  14   16.61    2.98
  -2  -4  15    1.53    1.86
   2   4  15    4.25    1.60
   2  -4 -15    3.29    1.84
  -2   4 -15    4.34    2.11
  -2  -4  15    6.45    2.30
   2   4  15    3.53    2.05
  -2  -4  16    2.58    1.88
  -2   4 -16    8.94    2.63
   2  -4 -16    3.18    2.07
  -2  -4  16    2.27    1.50
   2   4  16    4.15    2.01
  -2  -4  17   -1.63    2.41
   2  -4 -17    2.05    2.24
  -2   4 -17    4.05    1.99
  -2  -4  17   -1.86    1.67
   2   4  17    1.60    1.88
  -2   4 -18   -0.08    2.15
  -2  -4  18    0.95    1.66
  -2  -4  18    3.51    1.84
   2  -4 -18    4.73    2.56
   2   4  18    1.41    1.98
  -2  -4  19    4.86    1.77
   2   4  19    7.59    2.59
   2   5 -18    2.31    2.02
  -2   5  18    4.27    1.80
   2  -5  18    4.39    2.21
   2  -5  17    1.54    2.19
   2   5 -17    0.01    2.50
  -2  -5 -17    6.64    2.32
  -2   5  17    0.77    2.09
   2  -5  17    3.92    1.90
   2   5 -16    4.07    2.16
  -2  -5 -16    8.36    2.62
  -2   5  16    6.72    2.08
   2  -5  16    6.06    2.59
   2  -5  16    3.67    2.33
   2  -5  15    1.84    2.05
   2   5 -15    2.78    2.51
  -2  -5 -15   -1.25    1.85
  -2   5  15    3.08    2.02
   2   5 -15   -0.53    1.10
   2  -5  15    0.52    1.54
  -2   5  14   12.61    2.28
   2  -5  14   12.25    2.81
   2   5 -14    8.61    2.72
  -2  -5 -14   13.78    2.63
  -2   5  14   10.11    2.33
   2   5 -14   11.10    1.94
   2  -5  14   10.22    2.87
   2   5 -13   58.63    5.51
   2  -5  13   51.77    5.00
  -2  -5 -13   52.62    4.58
  -2   5  13   45.34    4.49
   2   5 -13   45.82    3.45
   2  -5  13   53.19    5.08
  -2   5  13   48.41    3.98
  -2   5  12   18.23    2.40
   2  -5  12   14.55    2.89
  -2  -5 -12   15.23    2.62
   2   5 -12   13.47    2.85
  -2   5  12   14.89    2.84
   2   5 -12   14.97    1.99
   2  -5  12   16.82    3.16
  -2   5  11   18.90    2.25
   2   5 -11   22.61    3.56
  -2  -5 -11   23.56    2.83
  -2   5  11   16.04    2.95
   2   5 -11   19.99    2.07
   2  -5  11   17.36    3.01
  -2   5  11   16.58    1.87
  -2  -5 -11   18.86    1.95
   2  -5  11   20.00    3.19
  -2   5  10   25.82    2.40
   2   5 -10   26.90    3.68
   2  -5  10   27.24    3.16
  -2  -5 -10   26.44    2.85
   2   5 -10   24.21    2.16
  -2   5  10   22.04    3.14
  -2  -5 -10   26.33    2.39
  -2   5  10   23.10    2.31
   2  -5  10   28.71    3.74
   2  -5   9   35.29    3.41
   2   5  -9   36.15    3.99
  -2   5   9   34.62    2.80
  -2  -5  -9   33.61    2.99
   2   5  -9   32.19    2.34
  -2   5   9   33.25    3.80
  -2   5   9   31.09    2.53
   2  -5   9   32.01    3.77
   2   5  -8   27.61    3.45
  -2   5   8   25.14    2.48
   2  -5   8   25.76    2.99
  -2  -5  -8   25.35    2.54
   2   5  -8   21.87    1.79
  -2   5   8   27.72    3.50
  -2   5   8   23.97    2.07
   2  -5   8   22.30    3.33
   2   5  -7  223.61    9.17
   2  -5   7  224.54    7.98
  -2  -5  -7  213.12    7.25
  -2   5   7  214.52    7.82
   2   5  -7  201.10    5.73
  -2   5   7  231.14    9.69
   2  -5   7  222.81    9.45
   2   5  -6   84.09    5.31
   2  -5   6   85.66    4.51
  -2   5   6   88.27    4.90
  -2  -5  -6   89.82    4.12
  -2   5   6   99.06    6.03
   2   5  -6   86.73    3.05
   2  -5   6   90.21    5.74
   2   5  -5    4.28    1.59
  -2  -5  -5    4.22    1.12
  -2   5   5    4.72    1.72
   2  -5   5    4.65    1.35
  -2   5   5    6.09    1.75
   2   5  -5    5.97    0.72
   2  -5   5    5.00    1.87
   2   5  -4   59.27    3.80
   2   5  -4   59.36    3.48
   2  -5   4   58.71    3.28
  -2   5   4   59.20    4.23
  -2   5   4   51.93    3.99
   2   5  -4   51.77    1.84
   2  -5   4   57.09    4.14
  -2  -5  -4   61.68    3.08
   2   5  -3  239.07    7.66
  -2  -5  -3  260.75    6.92
   2  -5   3  263.14    7.38
  -2   5   3  265.17    9.65
  -2   5   3  241.02    8.49
   2   5  -3  239.55    5.07
   2  -5   3  241.10    8.53
   2   5  -3  264.86    7.81
   2   5  -2   94.59    4.12
  -2  -5  -2  114.16    4.00
  -2   5   2  120.17    6.46
  -2   5   2  103.82    4.86
   2  -5   2  106.44    2.46
   2  -5   2  105.22    4.97
   2   5  -2  111.80    4.63
   2  -5   2  113.12    4.34
   2   5  -1  144.01    4.58
   2   5  -1  148.83    5.31
  -2  -5  -1  151.06    4.69
  -2   5   1  155.99    7.56
  -2   5   1  152.49    5.49
  -2   5   1  151.37    4.64
   2  -5   1  151.15    3.94
   2  -5   1  147.91    5.57
   2  -5   1  161.50    5.21
  -2   5   0   95.59    3.61
   2   5   0  100.43    2.99
   2   5   0  100.85    3.37
   2   5   0   98.43    4.18
  -2  -5   0  104.10    2.63
  -2   5   0  106.08    3.96
   2  -5   0  108.30    4.10
   2  -5   0  101.71    4.08
  -2  -5   0  104.26    3.67
   2   5   1  153.72    3.44
  -2  -5   1  151.74    4.69
  -2   5  -1  144.18    7.16
  -2   5  -1  155.41    4.45
  -2  -5   1  156.26    3.44
   2   5   1  152.79    5.29
  -2   5  -1  150.71    4.73
   2  -5  -1  143.34    4.59
   2  -5  -1  149.93    3.25
   2   5   2  115.78    4.44
  -2  -5   2  108.56    3.88
   2  -5  -2  107.30    2.53
  -2   5  -2   99.11    5.91
  -2   5  -2  120.96    3.09
  -2  -5   2  115.02    2.85
  -2   5  -2  108.40    4.03
   2  -5  -2  116.41    3.17
  -2  -5   2  117.26    4.45
  -2   5  -3  237.94    9.43
  -2   5  -3  255.03    7.18
   2   5   3  243.71    7.31
   2  -5  -3  259.53    5.28
  -2  -5   3  255.78    7.69
  -2   5  -4   57.71    4.37
   2  -5  -4   60.67    2.22
  -2   5  -4   61.54    3.26
  -2  -5   4   61.14    3.56
   2   5   4   65.82    3.39
   2  -5  -4   58.47    3.22
   2  -5  -5    5.99    1.37
  -2  -5   5    5.22    1.61
   2  -5  -5    3.61    0.70
  -2   5  -5    5.65    1.27
  -2   5  -5    7.34    1.88
   2   5   5    5.59    1.32
   2   5   5    5.34    0.42
  -2   5  -6   85.54    5.08
   2  -5  -6   88.27    3.55
   2   5   6   88.64    4.24
  -2   5  -6   85.59    4.30
  -2  -5   6   90.17    5.05
   2  -5  -6   91.17    4.32
   2   5   7  222.41    7.37
  -2   5  -7  207.82    8.13
   2  -5  -7  217.38    6.61
  -2   5  -7  203.93    7.34
  -2  -5   7  198.65    8.61
   2  -5  -7  209.36    7.35
   2  -5  -8   25.40    2.60
   2   5   8   29.44    2.74
  -2  -5   8   24.05    3.27
   2  -5  -8   26.18    2.29
   2   5   8   26.61    2.54
  -2   5  -8   28.35    2.85
  -2   5  -8   25.42    2.77
   2   5   9   39.24    3.16
  -2   5  -9   34.21    3.02
   2  -5  -9   35.46    2.86
  -2   5  -9   35.45    3.28
  -2  -5   9   29.03    3.98
   2   5   9   36.32    3.15
   2  -5  -9   33.09    3.11
   2  -5 -10   21.98    2.79
  -2  -5  10   25.50    3.87
  -2   5 -10   25.24    2.82
  -2  -5  10   23.19    2.83
   2   5  10   26.21    2.79
  -2   5 -10   24.03    2.49
   2   5  10   26.78    2.83
   2   5  11   18.16    2.43
  -2  -5  11   19.07    4.07
   2  -5 -11   15.18    2.53
  -2   5 -11   19.02    2.69
  -2   5 -11   16.36    2.05
  -2  -5  11   14.68    2.34
  -2  -5  11   17.49    2.05
   2   5  11   20.61    2.67
   2  -5 -12   18.05    2.83
  -2  -5  12    8.60    2.85
   2   5  12   24.13    2.71
  -2   5 -12   15.20    2.65
  -2  -5  12   16.40    2.62
   2   5  12   15.55    2.51
   2  -5 -13   52.66    4.90
  -2  -5  13   39.27    5.82
   2   5  13   54.13    4.15
  -2  -5  13   51.50    4.43
  -2   5 -13   52.10    4.56
   2   5  13   53.26    4.57
   2  -5 -14   10.12    2.71
  -2  -5  14    6.04    3.19
   2   5  14   15.07    2.44
  -2   5 -14   13.98    2.58
  -2  -5  14    8.50    2.18
   2   5  14   12.98    2.57
   2  -5 -15    2.48    2.02
  -2  -5  15   -0.35    2.47
   2   5  15    0.30    1.19
  -2   5 -15    0.88    1.55
  -2  -5  15    4.48    2.11
   2   5  15    0.92    1.71
   2  -5 -16    6.89    2.43
  -2  -5  16    2.77    1.68
   2   5  16    6.07    1.71
  -2   5 -16    2.68    1.80
  -2  -5  16    6.52    2.13
   2   5  16    6.75    2.32
   2  -5 -17    3.95    2.19
  -2  -5  17    9.46    3.26
  -2   5 -17    5.64    2.42
  -2  -5  17    3.30    1.75
   2   5  17    6.34    2.02
   2  -5 -18   -3.42    2.73
  -2  -5  18    3.86    2.15
  -2  -5  18    3.09    1.84
   2   5  18   -1.31    1.48
   2  -6  18    2.08    1.80
   2   6 -17   -0.99    2.34
   2  -6  17   -0.17    1.71
  -2  -6 -17    3.18    2.13
  -2   6  17    4.06    2.29
   2  -6  17    1.75    1.81
   2  -6  16   -1.77    2.23
   2   6 -16    0.59    1.74
  -2  -6 -16   -0.88    1.68
  -2   6  16    0.27    1.65
   2  -6  16    3.25    2.30
   2   6 -15    3.27    2.33
  -2  -6 -15    1.66    1.81
  -2   6  15    2.43    2.03
   2  -6  15    2.71    2.21
   2  -6  15    3.58    1.92
   2  -6  14   19.95    3.36
  -2  -6 -14   22.23    3.45
  -2   6  14   18.25    3.14
   2   6 -14   14.26    2.15
   2   6 -14   15.79    3.41
   2  -6  14   15.05    3.18
  -2  -6 -13   -0.30    1.66
   2  -6  13    2.01    2.07
   2   6 -13    2.11    2.27
   2   6 -13   -0.85    0.95
  -2   6  13   -0.21    1.76
   2  -6  13   -1.26    2.25
  -2   6  12    2.00    1.03
   2   6 -12    4.14    2.26
   2  -6  12    2.35    1.61
  -2  -6 -12    4.67    1.99
  -2   6  12    2.42    1.42
   2   6 -12    3.97    1.33
   2  -6  12    3.63    2.00
   2   6 -11    7.73    2.54
  -2   6  11    6.96    1.43
  -2  -6 -11    6.60    1.75
  -2   6  11    7.86    2.30
   2   6 -11    6.78    1.35
   2  -6  11    8.34    2.39
   2  -6  11    6.34    2.20
  -2   6  11    7.70    1.50
   2  -6  10   34.59    3.59
  -2   6  10   33.08    2.82
   2   6 -10   33.06    3.86
  -2  -6 -10   33.38    3.21
   2   6 -10   29.98    2.42
  -2   6  10   25.40    3.52
  -2   6  10   31.06    2.56
   2  -6  10   32.36    3.99
  -2   6   9    0.34    1.04
   2   6  -9    1.57    1.85
   2  -6   9    1.86    1.78
  -2  -6  -9    0.87    1.09
  -2   6   9    1.78    1.75
   2   6  -9    1.52    0.81
   2  -6   9    4.28    2.08
   2   6  -8   25.80    3.34
  -2  -6  -8   23.27    2.45
   2  -6   8   23.59    2.88
   2   6  -8   21.82    1.78
  -2   6   8   24.83    3.34
  -2   6   8   25.02    2.68
   2  -6   8   26.19    3.61
   2   6  -7    5.79    2.19
  -2  -6  -7    4.97    1.42
   2  -6   7    6.09    1.81
  -2   6   7    5.72    1.96
  -2   6   7    6.28    1.86
   2   6  -7    4.13    0.83
   2  -6   7    4.22    2.18
   2   6  -6   42.76    3.72
   2  -6   6   45.70    3.38
  -2  -6  -6   44.35    2.98
  -2   6   6   43.67    3.69
  -2   6   6   38.32    3.95
   2  -6   6   47.88    4.26
   2   6  -6   38.83    2.02
   2   6  -5    9.03    1.73
   2   6  -5    9.62    1.89
  -2   6   5   11.09    2.35
  -2  -6  -5    8.83    1.48
  -2   6   5   10.50    2.29
   2   6  -5    9.94    0.96
   2  -6   5   10.33    1.84
   2  -6   5   10.67    2.26
   2   6  -4   48.83    3.37
  -2   6   4   56.90    4.47
  -2  -6  -4   55.95    3.05
  -2   6   4   51.25    4.25
   2   6  -4   47.71    1.92
   2  -6   4   57.49    3.36
   2  -6   4   53.92    4.03
   2   6  -4   54.74    3.37
  -2   6   3    5.75    2.23
   2   6  -3    4.76    1.23
  -2  -6  -3    7.42    1.21
  -2   6   3    5.48    1.72
   2  -6   3    6.89    1.47
   2   6  -3    5.39    0.62
   2  -6   3    7.88    1.75
   2   6  -3    5.29    1.41
   2   6  -2   38.43    2.34
   2  -6   2   37.46    1.15
  -2  -6  -2   39.48    2.37
  -2   6   2   35.96    3.13
  -2   6   2   44.35    4.40
   2   6  -2   44.25    2.98
   2  -6   2   40.43    3.02
   2  -6   2   40.53    2.64
   2   6  -1   18.13    1.27
   2  -6   1   16.40    1.02
  -2  -6  -1   17.97    1.61
   2   6  -1   19.39    2.03
  -2   6   1   17.28    1.99
  -2   6   1   17.34    1.57
  -2   6   1   18.30    3.21
   2  -6   1   19.82    1.99
   2  -6   1   17.71    1.81
  -2   6   0   40.08    4.30
   2   6   0   40.82    1.74
   2  -6   0   42.24    2.65
   2  -6   0   42.68    1.66
  -2  -6   0   46.19    2.48
  -2   6   0   44.58    2.76
  -2   6   0   44.25    2.45
   2  -6   0   46.56    2.56
   2   6   0   44.40    2.88
   2  -6  -1   19.96    1.85
   2   6   1   16.70    1.83
  -2  -6   1   19.61    1.70
   2  -6  -1   16.63    0.93
  -2   6  -1   18.99    1.57
  -2   6  -1   17.78    1.62
   2  -6  -1   20.24    1.41
  -2  -6   1   16.75    0.97
   2   6   2   41.12    2.75
  -2   6  -2   38.50    4.11
  -2  -6   2   39.89    2.36
   2  -6  -2   37.74    1.44
  -2   6  -2   41.54    1.83
  -2   6  -2   41.03    2.49
   2  -6  -2   40.46    1.45
  -2  -6   2   39.79    2.58
  -2  -6   3    6.80    1.39
   2  -6  -3    5.16    0.58
   2   6   3    4.34    1.30
  -2  -6   3    5.96    1.12
  -2   6  -3    6.19    0.43
  -2   6  -3    3.83    2.07
  -2   6  -3    6.41    1.24
   2   6   4   58.76    3.34
   2  -6  -4   53.74    2.07
  -2   6  -4   48.27    2.99
  -2  -6   4   49.35    3.31
  -2   6  -4   52.60    4.52
   2  -6  -4   55.26    3.28
   2  -6  -5    9.97    1.65
  -2  -6   5   12.29    1.98
   2   6   5   11.69    1.78
   2  -6  -5   12.22    1.14
  -2   6  -5    9.14    2.45
  -2   6  -5   10.21    1.57
   2   6   6   42.13    3.05
   2  -6  -6   42.40    2.34
  -2   6  -6   47.60    4.09
  -2   6  -6   46.64    3.18
  -2  -6   6   43.83    3.67
   2  -6  -6   43.88    3.11
   2  -6  -7    6.88    1.65
  -2  -6   7    4.20    1.69
   2   6   7    2.95    1.40
  -2   6  -7    3.31    1.36
  -2   6  -7    4.46    1.75
   2  -6  -7    3.69    0.96
   2   6   8   27.78    2.70
  -2  -6   8   20.20    3.09
   2  -6  -8   22.09    2.11
  -2   6  -8   24.36    2.91
  -2   6  -8   25.83    2.68
   2  -6  -8   23.15    2.48
  -2   6  -9   -0.86    1.33
  -2  -6   9    0.93    2.12
   2   6   9    1.33    1.28
   2  -6  -9    0.36    0.82
  -2   6  -9    2.54    1.45
   2   6   9    0.98    0.94
   2  -6  -9    4.53    1.71
  -2  -6  10   29.58    4.28
  -2   6 -10   31.07    3.07
   2  -6 -10   26.17    2.59
   2   6  10   30.70    2.98
  -2   6 -10   32.37    3.26
   2   6  10   27.95    2.97
   2  -6 -10   35.61    3.46
   2  -6 -11    7.36    2.06
   2   6  11    4.42    1.65
  -2  -6  11    2.95    2.76
   2  -6 -11    5.55    1.53
  -2   6 -11    4.51    1.41
  -2   6 -11    6.27    2.01
   2   6  11    7.07    1.69
   2   6  12    1.59    1.40
  -2  -6  12    0.00    2.36
   2   6  12    4.02    1.53
  -2   6 -12    7.41    2.08
   2   6  12    3.18    1.43
   2  -6 -12    2.90    1.58
  -2  -6  13   -1.09    2.78
   2   6  13   -0.92    1.18
  -2   6 -13   -1.80    1.60
   2   6  13   -0.24    1.57
   2  -6 -13   -0.82    1.90
   2  -6 -14   24.93    3.59
   2   6  14   20.65    2.79
  -2   6 -14   17.83    3.07
   2   6  14   15.45    2.79
  -2  -6  14   10.05    4.15
   2  -6 -15    1.74    2.19
   2   6  15    4.06    1.63
  -2   6 -15    4.26    2.20
   2   6  15    3.07    1.92
  -2  -6  15    4.54    3.07
  -2  -6  16   -2.28    2.23
   2  -6 -16   -0.87    2.09
   2   6  16    1.30    1.47
  -2   6 -16    1.99    1.81
   2   6  16    0.18    1.40
   2  -6 -17    2.21    2.45
  -2  -6  17    2.53    2.57
  -2   6 -17    4.22    2.29
   2   6  17    1.81    1.84
   2   6  18    6.92    2.66
  -2  -7 -17    8.30    2.82
  -2   7  17    2.89    1.93
   2  -7  17    4.01    2.34
   2   7 -17    0.67    2.29
   2  -7  17    6.03    2.51
   2  -7  16    5.63    2.79
   2   7 -16   -1.66    2.22
  -2  -7 -16   -1.81    1.96
  -2   7  16    0.02    1.30
   2  -7  16    1.29    2.24
  -2  -7 -15    0.28    1.49
   2  -7  15    4.06    2.42
   2   7 -15    0.80    2.10
  -2   7  15   -0.21    1.97
   2  -7  15   -1.13    2.16
   2  -7  14    6.79    2.64
   2   7 -14    4.18    2.21
  -2  -7 -14    5.99    2.07
  -2   7  14    4.68    2.12
   2  -7  14    6.53    2.25
   2   7 -13   12.65    3.09
   2  -7  13    7.39    2.63
  -2  -7 -13    7.15    2.02
  -2   7  13   12.22    2.81
   2  -7  13    9.67    2.63
   2  -7  12    8.19    2.60
   2   7 -12    5.25    2.55
  -2  -7 -12    6.55    2.03
  -2   7  12    5.02    2.01
   2   7 -12    6.52    1.55
   2  -7  12    8.50    2.61
   2  -7  11   13.54    2.72
  -2  -7 -11   11.42    2.33
  -2   7  11    8.73    2.37
   2   7 -11    9.35    1.56
  -2   7  11   12.82    1.82
   2  -7  11    7.92    2.40
   2   7 -11   11.18    3.00
  -2   7  10   10.08    1.76
   2   7 -10   17.50    3.06
   2  -7  10   12.07    2.44
  -2  -7 -10   15.02    2.27
  -2   7  10   14.36    2.67
   2   7 -10   15.51    1.79
   2  -7  10   13.64    3.14
   2   7  -9    7.56    2.28
  -2   7   9    7.91    1.62
   2  -7   9    3.70    1.61
  -2  -7  -9    3.63    1.48
  -2   7   9    6.89    2.25
   2   7  -9    5.65    1.14
   2  -7   9   10.12    2.78
   2   7  -8   11.70    2.49
  -2  -7  -8   11.18    1.86
   2  -7   8   11.33    2.32
  -2   7   8   10.75    2.47
   2   7  -8   10.07    1.27
  -2   7   8   11.45    2.08
   2  -7   8   11.42    2.67
   2   7  -7    3.94    1.41
  -2   7   7    4.87    1.73
   2   7  -7    6.57    1.94
  -2  -7  -7    3.89    1.31
   2  -7   7    5.78    1.60
  -2   7   7    6.82    2.38
   2   7  -7    3.64    0.88
   2  -7   7    3.80    2.12
   2   7  -6    2.60    1.44
  -2  -7  -6    1.67    1.18
   2  -7   6    1.78    1.45
  -2   7   6    2.31    1.69
   2   7  -6    2.41    0.72
  -2   7   6    5.59    2.03
   2  -7   6    3.65    1.96
   2   7  -6    4.43    1.50
   2   7  -5    0.62    1.19
   2   7  -5   -0.23    1.23
  -2  -7  -5    1.46    1.00
  -2   7   5    0.53    1.64
   2  -7   5    3.36    1.63
   2   7  -5    3.66    0.75
  -2   7   5    2.37    1.70
   2  -7   5    1.00    1.51
   2   7  -4   42.42    2.93
   2   7  -4   39.50    3.04
   2  -7   4   43.23    3.15
  -2  -7  -4   41.24    2.73
  -2   7   4   45.33    4.20
  -2   7   4   45.78    4.37
   2   7  -4   39.60    1.87
   2  -7   4   41.40    3.50
   2   7  -3    0.76    1.05
   2   7  -3    2.70    1.01
  -2  -7  -3    2.14    0.92
  -2   7   3    1.46    1.68
   2  -7   3    1.91    1.03
   2   7  -3    2.43    0.56
  -2   7   3    3.46    2.60
   2  -7   3    2.42    1.34
   2   7  -2    6.63    1.44
   2   7  -2    7.83    1.06
  -2  -7  -2    7.09    1.24
  -2   7   2    7.04    1.68
   2  -7   2    7.97    0.54
   2  -7   2    6.98    1.43
   2  -7   2    8.97    1.58
   2   7  -1    1.72    1.24
  -2  -7  -1    2.18    0.96
  -2   7   1    4.99    1.49
  -2   7   1    1.00    0.79
   2  -7   1    3.20    1.11
   2  -7   1    3.49    1.10
   2   7   0   32.12    2.60
   2   7   0   32.37    1.38
   2  -7   0   36.21    2.57
   2  -7   0   34.51    1.61
  -2  -7   0   34.78    2.33
  -2   7   0   30.55    2.62
  -2   7   0   29.03    2.14
   2  -7   0   37.46    2.24
  -2  -7   1    3.15    0.46
  -2  -7   1    1.97    0.88
   2  -7  -1    2.46    0.51
  -2   7  -1    2.95    0.97
   2   7   1    2.24    1.20
  -2   7  -1    1.83    0.88
   2  -7  -1    2.74    1.09
   2  -7  -1    4.20    0.73
   2   7   2    6.55    1.41
   2  -7  -2    8.46    0.76
  -2  -7   2    7.18    1.23
  -2   7  -2    9.54    1.10
  -2   7  -2    9.41    1.42
  -2  -7   2    7.83    1.31
  -2  -7   3    3.60    1.22
  -2  -7   3    3.47    1.00
  -2   7  -3    3.02    0.50
   2  -7  -3    2.80    0.54
  -2   7  -3    2.88    1.09
   2   7   3    1.07    1.12
   2   7   4   41.69    3.06
   2  -7  -4   43.53    1.93
  -2   7  -4   48.68    4.74
  -2   7  -4   42.82    2.92
  -2  -7   4   43.27    3.13
   2  -7  -5    2.50    1.15
   2   7   5    3.00    1.43
   2  -7  -5    1.65    0.60
  -2   7  -5    0.65    1.14
  -2   7  -5   -1.56    1.87
  -2  -7   5    1.82    1.29
   2  -7  -6    3.25    1.29
  -2   7  -6    1.72    1.87
   2   7   6    3.61    1.47
   2  -7  -6    3.32    0.82
  -2   7  -6    4.40    1.51
  -2  -7   6    1.75    1.43
   2  -7  -7    4.92    1.39
   2   7   7    4.16    1.50
   2  -7  -7    3.85    0.90
  -2   7  -7    5.44    1.99
  -2   7  -7    6.19    1.64
  -2  -7   7    3.67    1.66
   2  -7  -8    9.95    1.85
  -2  -7   8    6.42    2.09
  -2   7  -8    9.41    1.90
   2   7   8    8.28    1.73
   2  -7  -8   11.79    1.56
  -2   7  -8    9.12    2.15
   2  -7  -9    3.65    1.45
  -2  -7   9    6.42    2.48
   2   7   9    6.47    1.75
   2  -7  -9    6.57    1.37
  -2   7  -9    6.36    1.80
  -2   7  -9    6.07    1.63
   2   7   9    5.66    1.50
  -2  -7  10   16.93    3.56
   2   7  10   14.07    2.32
  -2   7 -10   16.37    2.43
   2  -7 -10   13.49    1.89
  -2   7 -10   17.57    2.61
   2   7  10   16.13    2.22
   2  -7 -10   15.08    2.39
   2  -7 -11    9.32    2.07
   2   7  11   12.09    2.42
  -2  -7  11    5.48    2.74
  -2   7 -11   14.15    2.49
   2   7  11    9.86    1.89
  -2   7 -11   11.12    1.97
   2   7  12    9.29    2.19
  -2  -7  12    1.60    2.15
  -2   7 -12    7.59    2.19
   2   7  12    5.42    1.60
   2  -7 -12    2.33    1.75
  -2  -7  13    8.75    3.30
   2   7  13   10.61    2.08
  -2   7 -13    7.27    2.17
   2   7  13   10.34    2.11
   2  -7 -13    4.13    1.81
   2  -7 -14    6.86    2.35
  -2  -7  14    6.25    3.11
   2   7  14    6.58    1.80
  -2   7 -14    7.44    2.20
   2   7  14    8.50    2.29
   2  -7 -15    1.31    1.83
   2   7  15    1.77    1.41
  -2   7 -15    3.57    1.92
  -2  -7  15    2.21    2.41
   2   7  15    0.83    1.22
  -2  -7  16    0.16    1.91
   2   7  16   -0.22    1.63
  -2   7 -16   -0.41    1.91
   2  -7 -16   -2.75    2.11
   2   7  16    2.40    1.99
   2  -7 -17    3.87    2.12
  -2  -7  17    4.49    2.62
   2   7  17    0.54    1.59
  -2   7 -17    4.93    2.41
   2   7  17    4.80    1.95
   2   7  18    5.13    2.00
   2  -8  17   -2.39    2.96
   2   8 -17    0.90    2.12
   2   8 -16    0.69    1.94
  -2  -8 -16    3.11    1.89
  -2   8  16   -0.06    1.75
   2  -8  16    0.86    2.26
   2  -8  16    7.07    2.87
   2  -8  15    6.94    2.54
   2   8 -15   10.52    2.58
  -2  -8 -15   12.36    2.67
  -2   8  15    8.72    2.57
   2  -8  15   10.22    2.85
   2  -8  14    4.04    2.25
   2   8 -14    4.88    2.21
  -2  -8 -14    9.14    2.43
  -2   8  14    5.74    2.03
   2  -8  14    4.79    2.56
   2   8 -13    2.93    1.90
   2  -8  13    2.63    2.23
  -2  -8 -13   -0.32    1.46
  -2   8  13    0.01    1.94
   2  -8  13    2.79    2.06
   2   8 -12    1.02    1.78
   2  -8  12    0.79    1.62
  -2  -8 -12    3.21    1.84
  -2   8  12    1.82    1.69
   2  -8  12    1.78    2.12
   2   8 -11   33.84    3.99
   2  -8  11   35.16    4.06
  -2  -8 -11   31.63    3.36
   2   8 -11   34.49    2.73
  -2   8  11   35.78    4.24
  -2   8  11   36.66    3.22
   2  -8  11   30.55    4.23
   2   8 -10   15.06    2.77
  -2  -8 -10   20.88    2.64
   2  -8  10   19.10    3.10
  -2   8  10   18.16    2.40
   2   8 -10   19.02    1.97
  -2   8  10   18.13    3.00
   2  -8  10   20.53    3.54
   2   8 -10   14.09    2.37
   2   8  -9   13.89    2.24
   2   8  -9   16.82    2.75
   2  -8   9   16.03    2.72
  -2  -8  -9   15.13    2.20
  -2   8   9   13.87    2.83
   2   8  -9   17.37    1.80
   2  -8   9   16.20    2.88
  -2   8   9   15.75    2.49
   2   8  -8    8.43    1.91
   2   8  -8    7.82    2.04
  -2  -8  -8    8.39    1.73
   2  -8   8    7.91    2.13
  -2   8   8    9.05    2.01
  -2   8   8    7.36    2.12
   2   8  -8    7.78    1.22
   2  -8   8   10.60    2.51
   2   8  -7   25.53    2.77
  -2   8   7   27.96    3.28
   2   8  -7   24.63    2.87
  -2  -8  -7   24.18    2.47
   2  -8   7   22.89    2.78
  -2   8   7   27.50    3.59
   2   8  -7   24.96    1.88
   2  -8   7   26.16    3.35
   2   8  -6   27.08    2.79
   2   8  -6   22.52    2.51
  -2   8   6   25.96    3.26
  -2  -8  -6   26.15    2.55
  -2   8   6   27.79    3.44
   2  -8   6   23.75    2.75
   2   8  -6   26.18    1.82
   2  -8   6   24.54    3.24
   2   8  -5   78.31    4.25
   2   8  -5   74.50    4.35
  -2  -8  -5   77.89    4.05
  -2   8   5   80.98    5.71
   2   8  -5   74.84    3.05
   2  -8   5   79.29    4.51
   2  -8   5   81.96    5.23
   2   8  -4   35.58    2.64
   2   8  -4   37.63    3.10
   2  -8   4   40.60    3.15
  -2  -8  -4   36.93    2.71
  -2   8   4   37.85    3.94
   2   8  -4   34.85    1.91
   2  -8   4   37.19    3.39
   2   8  -3   32.32    2.80
   2  -8   3   32.10    2.76
  -2  -8  -3   30.11    2.43
  -2   8   3   27.29    3.37
   2   8  -3   30.58    1.72
   2  -8   3   36.17    3.10
  -2   8   2   10.05    2.30
   2  -8   2   13.47    1.86
   2   8  -2   12.58    1.85
  -2  -8  -2    9.31    1.46
   2  -8   2   11.44    1.70
  -2  -8  -1   74.59    3.66
  -2   8   1   76.77    4.98
  -2   8   1   71.86    3.58
   2  -8   1   78.35    3.79
   2   8  -1   76.14    4.22
   2  -8   1   78.75    4.00
   2   8   0   43.50    3.07
   2  -8   0   39.01    1.89
  -2  -8   0   40.12    2.63
  -2   8   0   38.13    2.59
   2  -8   0   40.03    2.30
   2  -8   0   40.61    2.89
  -2   8   0   36.32    3.19
   2   8   1   77.12    4.13
  -2  -8   1   67.89    3.44
   2  -8  -1   71.70    2.61
  -2   8  -1   72.71    4.01
   2  -8  -1   81.29    3.91
  -2   8  -1   75.53    3.70
  -2  -8   2   10.11    1.52
   2   8   2    9.80    1.74
   2  -8  -2   10.99    0.98
  -2   8  -2   10.45    1.42
  -2   8  -2   10.59    1.69
   2  -8  -2    9.01    1.51
  -2  -8   2   11.36    1.52
   2   8   3   28.77    2.65
  -2  -8   3   32.33    2.42
   2  -8  -3   32.55    1.68
  -2   8  -3   35.07    2.72
  -2   8  -3   34.71    1.89
  -2  -8   3   31.91    2.54
   2   8   4   36.35    3.01
   2  -8  -4   37.32    1.88
  -2   8  -4   34.81    2.75
  -2  -8   4   34.61    2.85
   2  -8  -5   75.56    2.99
  -2   8  -5   76.62    4.21
   2   8   5   76.55    4.39
  -2  -8   5   72.14    4.42
   2  -8  -5   84.09    4.29
   2   8   6   26.67    2.73
  -2   8  -6   26.58    3.63
   2  -8  -6   25.62    1.81
  -2   8  -6   25.82    2.65
  -2  -8   6   26.87    3.00
   2  -8  -6   25.67    2.54
  -2  -8   7   25.19    3.10
  -2   8  -7   23.39    3.32
   2   8   7   25.26    2.77
   2  -8  -7   25.90    2.00
  -2   8  -7   26.72    2.70
   2  -8  -7   25.58    2.56
   2  -8  -8    6.02    1.60
  -2  -8   8    5.30    2.26
   2   8   8    8.30    1.90
   2  -8  -8    7.63    1.31
  -2   8  -8    7.90    1.80
  -2   8  -8    8.96    2.33
   2  -8  -9   17.16    2.42
  -2  -8   9   10.19    2.46
   2   8   9   17.89    2.59
   2  -8  -9   15.18    1.87
  -2   8  -9   15.83    2.45
  -2   8  -9   18.77    2.82
  -2  -8  10   17.92    3.40
   2   8  10   19.60    2.77
  -2   8 -10   18.19    2.60
   2  -8 -10   15.08    2.43
  -2   8 -10   21.92    2.95
   2   8  10   20.63    2.53
   2   8  11   34.62    3.56
   2  -8 -11   33.03    3.50
  -2  -8  11   31.50    4.61
  -2   8 -11   32.53    3.36
  -2   8 -11   31.44    3.48
   2   8  11   36.87    3.45
   2  -8 -12    2.10    1.38
   2   8  12    1.06    1.48
  -2  -8  12    2.95    2.46
  -2   8 -12    5.70    1.95
   2   8  12    4.39    1.65
   2  -8 -13    2.54    1.73
  -2  -8  13    0.46    2.23
   2   8  13    1.85    1.57
  -2   8 -13    2.99    1.92
   2   8  13   -0.02    1.23
  -2  -8  14    2.98    2.50
   2   8  14    6.37    2.11
  -2   8 -14    6.67    2.11
   2  -8 -14    9.49    2.49
   2   8  14    6.30    2.04
   2  -8 -15   12.63    3.04
  -2  -8  15   10.50    3.44
   2   8  15   11.77    2.55
  -2   8 -15    9.52    2.62
   2   8  15    9.60    2.43
  -2  -8  16   -2.28    2.75
   2   8  16    0.65    1.28
  -2   8 -16    2.44    1.61
   2   8  16    2.53    1.61
   2  -8 -17    6.24    2.38
   2   8  17    7.06    2.25
   2   8  17    5.73    2.35
   2   8  18    3.86    1.87
   2  -9  16    4.18    2.52
   2   9 -16    7.51    2.97
  -2  -9 -16    9.07    2.65
  -2   9  16    8.34    2.42
   2  -9  16    4.95    2.57
   2  -9  15    3.17    2.70
   2   9 -15    0.94    2.32
  -2  -9 -15    1.81    2.03
  -2   9  15    3.84    2.12
   2  -9  15   -3.65    2.74
   2   9 -14    6.09    1.97
   2  -9  14    6.19    2.55
   2   9 -14    8.95    2.66
  -2  -9 -14    4.44    2.04
  -2   9  14   10.77    2.73
   2  -9  14    3.36    2.63
   2  -9  13    4.19    2.57
   2   9 -13    3.03    2.42
  -2  -9 -13    2.76    1.59
  -2   9  13    1.61    1.76
   2  -9  13    4.18    2.31
   2   9 -13    2.79    1.41
   2  -9  12    9.83    2.66
   2   9 -12   10.75    2.68
  -2  -9 -12   13.59    2.53
  -2   9  12   11.37    2.84
   2   9 -12   12.32    2.25
   2  -9  12   15.85    3.46
   2   9 -11    7.84    2.26
   2  -9  11    4.26    2.14
  -2  -9 -11    9.04    2.24
  -2   9  11   10.91    2.69
   2   9 -11    7.55    1.82
   2  -9  11    7.54    2.63
   2   9 -10   47.43    4.41
   2  -9  10   46.18    4.46
   2   9 -10   40.42    3.77
  -2  -9 -10   50.32    4.06
  -2   9  10   43.95    3.78
  -2   9  10   49.92    4.91
   2  -9  10   48.38    5.06
   2   9  -9    1.98    1.31
   2   9  -9    1.00    1.67
   2  -9   9    1.27    1.69
  -2  -9  -9    1.46    1.12
  -2   9   9   -0.32    1.66
  -2   9   9    2.36    1.53
   2   9  -9    0.25    0.81
   2  -9   9    2.60    1.95
  -2   9   8   13.85    2.51
   2   9  -8   16.53    2.57
  -2  -9  -8   11.21    1.96
   2  -9   8   16.41    2.70
  -2   9   8   14.96    2.83
   2   9  -8   14.65    1.64
   2   9  -8   12.79    2.04
   2  -9   8   14.24    2.90
   2   9  -7   10.74    2.05
   2   9  -7   10.94    2.14
  -2  -9  -7   13.14    1.99
   2  -9   7   11.11    2.14
  -2   9   7   14.31    2.86
   2   9  -7   10.57    1.33
  -2   9   7   16.50    2.90
   2  -9   7   13.04    2.54
   2  -9   6   79.65    4.90
  -2  -9  -6   85.40    4.50
  -2   9   6   73.77    5.70
   2   9  -6   77.47    3.43
   2   9  -6   79.94    4.68
   2  -9   6   76.83    5.28
   2   9  -5    8.71    1.76
  -2  -9  -5    9.39    1.70
  -2   9   5    8.76    2.28
   2  -9   5    8.50    1.94
   2   9  -5    8.77    1.15
   2  -9   5    7.57    1.93
   2  -9   4   91.18    4.88
  -2  -9  -4   93.44    4.48
  -2   9   4   87.86    6.03
   2   9  -4   90.92    3.50
   2  -9   4   93.89    5.29
   2   9  -4   87.57    4.77
  -2  -9  -3   20.70    2.20
  -2   9   3   17.84    2.93
   2   9  -3   22.26    2.47
   2  -9   3   26.57    2.68
   2  -9   3   21.59    2.46
   2  -9   2   50.09    3.41
  -2  -9  -2   55.52    3.29
  -2   9   2   48.70    4.42
   2  -9   2   49.33    3.26
   2   9  -2   55.16    3.68
  -2  -9  -1   13.77    1.82
  -2   9   1   15.30    2.71
   2   9  -1   14.11    2.02
   2  -9   1   14.10    1.94
  -2   9   1   12.21    1.73
   2  -9   1   13.11    1.58
   2   9   0  131.56    5.80
   2  -9   0  129.90    4.10
  -2  -9   0  130.88    5.16
  -2   9   0  122.39    6.61
  -2   9   0  144.59    5.43
   2  -9   0  138.84    5.53
   2   9   1   11.65    1.84
   2  -9  -1   12.89    1.18
  -2  -9   1   11.48    1.65
  -2   9  -1   11.46    1.92
  -2   9  -1   15.81    1.92
   2  -9  -1   12.95    1.84
   2   9   2   50.96    3.59
  -2  -9   2   48.00    3.11
   2  -9  -2   51.96    2.32
  -2   9  -2   53.31    3.46
   2  -9  -2   56.18    3.38
  -2   9  -2   49.59    3.27
  -2  -9   2   52.15    3.09
   2   9   3   18.13    2.31
  -2  -9   3   22.69    2.18
   2  -9  -3   20.80    1.44
  -2   9  -3   23.67    2.37
   2  -9  -3   20.67    2.12
  -2  -9   3   20.68    2.15
   2   9   4   86.37    4.78
  -2  -9   4   96.11    4.56
   2  -9  -4   90.64    3.33
  -2   9  -4   98.05    4.75
  -2  -9   4   95.19    4.74
   2  -9  -5    9.88    1.73
  -2  -9   5    6.80    1.52
   2   9   5    7.70    1.77
   2  -9  -5    7.92    1.02
  -2   9  -5    9.46    1.69
   2   9   6   81.49    4.81
   2  -9  -6   78.54    3.41
  -2   9  -6   76.89    4.48
  -2  -9   6   80.26    5.04
   2  -9  -6   82.49    4.50
   2  -9  -7   14.10    2.09
  -2   9  -7   15.47    2.89
   2   9   7   15.65    2.31
   2  -9  -7   13.42    1.52
  -2  -9   7   13.42    2.46
  -2   9  -7   13.60    2.23
   2  -9  -8   14.08    2.11
  -2  -9   8   11.32    2.39
   2   9   8   15.32    2.39
  -2   9  -8   12.75    2.16
  -2   9  -8   11.66    2.48
  -2   9  -9    2.08    1.77
  -2  -9   9    2.01    1.83
   2   9   9    2.75    1.50
  -2   9  -9    2.47    1.70
   2  -9  -9    2.90    1.34
   2   9  10   45.21    4.03
  -2   9 -10   43.47    4.14
  -2   9 -10   45.84    3.95
   2   9  10   45.55    3.72
  -2  -9  10   48.79    5.39
   2  -9 -10   46.12    3.88
   2  -9 -11    7.87    1.95
  -2  -9  11    7.26    2.63
   2   9  11    9.11    2.07
  -2   9 -11    7.44    2.20
  -2   9 -11   10.05    2.25
   2   9  11    9.06    2.01
   2  -9 -12    8.68    2.05
  -2  -9  12    9.62    2.81
   2   9  12   10.89    2.45
  -2   9 -12   10.41    2.21
   2   9  12   10.31    2.14
   2  -9 -13    6.06    2.22
   2   9  13    0.96    1.47
  -2   9 -13    3.27    1.60
   2   9  13    2.64    1.60
  -2  -9  13    0.93    2.22
   2  -9 -14    4.54    2.08
  -2  -9  14    1.01    2.82
   2   9  14    5.02    1.88
  -2   9 -14    7.82    2.33
   2   9  14    8.71    2.18
  -2  -9  15   -0.02    2.46
   2   9  15    4.46    1.88
  -2   9 -15    2.63    1.90
   2   9  15    6.53    2.15
  -2  -9  16    9.45    2.99
   2   9  16    9.29    2.70
  -2   9 -16    8.38    2.49
   2   9  16    7.26    2.30
   2  -9 -16   13.01    3.20
   2   9  17   -0.18    1.62
   2   9  17    7.49    2.50
   2  10 -16    0.49    1.53
   2 -10  15    3.62    2.86
  -2 -10 -15   -1.79    2.19
  -2  10  15    1.00    1.66
   2 -10  15    6.04    2.73
   2  10 -15    2.33    1.59
   2  10 -14    1.06    1.29
   2 -10  14   -0.47    2.41
  -2 -10 -14    2.40    1.97
  -2  10  14   -0.35    1.64
   2 -10  14    2.33    2.03
   2 -10  13    2.69    2.30
  -2 -10 -13    7.67    2.35
  -2  10  13    3.64    2.21
   2  10 -13    7.11    1.88
   2 -10  13    8.97    2.82
   2  10 -12    6.01    1.80
   2 -10  12   11.53    2.75
  -2 -10 -12   11.26    2.38
  -2  10  12    8.56    2.33
   2 -10  12   12.95    3.01
   2  10 -11    1.70    1.39
   2 -10  11    1.48    2.18
  -2  10  11    0.68    1.66
  -2 -10 -11    0.38    1.49
   2 -10  11    1.72    2.31
   2  10 -10    1.83    1.42
   2 -10  10    0.35    1.45
  -2  10  10    2.06    1.32
  -2 -10 -10    2.61    1.50
  -2  10  10    2.33    2.19
   2 -10  10    3.68    2.18
   2 -10   9    1.65    1.73
  -2 -10  -9    8.63    2.08
  -2  10   9    4.72    1.80
  -2  10   9    5.82    2.21
   2  10  -9    4.21    1.71
   2 -10   9    3.95    2.02
   2  10  -8   12.84    2.23
  -2 -10  -8   11.14    2.08
   2 -10   8   12.49    2.54
  -2  10   8    9.10    2.39
  -2  10   8   15.50    2.93
   2  10  -8   12.95    1.64
   2 -10   8   16.40    2.91
  -2 -10  -7    1.80    1.28
   2 -10   7    1.07    1.69
  -2  10   7   -1.62    2.07
   2  10  -7    1.08    0.69
   2 -10   7    3.99    1.79
   2  10  -7    1.45    1.32
   2  10  -6   10.82    1.94
  -2 -10  -6    8.31    1.72
  -2  10   6    6.79    2.08
   2 -10   6   13.56    2.37
   2  10  -6    8.53    1.33
   2 -10   6    9.87    2.18
   2  10  -5    1.33    1.15
  -2 -10  -5    2.37    1.32
  -2  10   5    2.59    1.84
   2 -10   5   -0.18    1.52
   2  10  -5   -0.04    0.66
   2 -10   5    2.62    1.56
   2  10  -4    3.52    1.38
  -2 -10  -4    6.75    1.44
  -2  10   4    5.18    2.00
   2 -10   4    3.30    1.50
   2  10  -4    4.83    0.94
   2 -10   4    7.02    1.73
   2  10  -3    7.20    1.68
  -2 -10  -3    8.63    1.68
  -2  10   3    7.55    2.23
   2 -10   3    7.63    1.62
   2 -10   3    7.59    1.62
   2 -10   2   29.14    2.71
  -2 -10  -2   26.12    2.44
  -2  10   2   25.97    3.34
   2  10  -2   26.72    2.68
   2  10  -1    3.10    1.46
   2 -10   1    3.11    0.84
  -2 -10  -1    3.83    1.33
  -2  10   1    2.68    1.58
  -2  10   1    2.42    2.88
   2 -10   1    3.09    1.39
  -2  10   1    0.97    1.00
  -2 -10   0    2.40    1.07
   2  10   0    2.61    1.45
   2 -10   0    3.54    0.79
  -2  10   0    2.00    1.47
  -2  10   0    4.67    3.39
   2 -10   0    3.60    1.20
  -2  10   0    3.53    1.27
   2 -10  -1    1.92    0.61
   2  10   1    1.97    1.28
  -2  10  -1    4.32    1.56
  -2  10  -1   -0.58    3.01
  -2  10  -1    4.86    1.39
  -2 -10   1    2.66    1.24
   2 -10  -1    1.19    1.01
   2  10   2   28.94    2.93
   2 -10  -2   31.10    2.62
  -2 -10   2   27.24    2.47
   2 -10  -2   25.61    1.71
  -2  10  -2   27.98    2.90
  -2  10  -2   26.58    2.50
  -2 -10   2   28.34    2.29
  -2 -10   3    7.74    1.43
   2  10   3    5.85    1.67
  -2 -10   3    6.52    1.48
   2 -10  -3    6.37    0.92
  -2  10  -3    7.22    1.60
   2 -10  -3    7.36    1.37
  -2 -10   4    4.60    1.32
   2  10   4    5.19    1.70
  -2 -10   4    5.75    1.53
   2 -10  -4    5.43    0.89
  -2  10  -4    4.10    1.36
   2 -10  -4    5.56    1.41
   2 -10  -5    0.56    1.14
  -2 -10   5   -0.14    1.02
   2  10   5    1.27    1.44
  -2  10  -5    2.52    1.28
   2 -10  -5    1.39    0.65
   2 -10  -6    8.24    1.56
   2  10   6    9.39    2.07
   2 -10  -6    8.60    1.22
  -2  10  -6    7.89    1.75
  -2 -10   6    7.81    1.89
   2 -10  -7    3.80    1.46
   2  10   7    1.50    1.46
  -2  10  -7    1.26    1.29
  -2 -10   7    2.24    1.48
   2 -10  -8   11.22    1.98
   2  10   8   14.88    2.57
  -2 -10   8   14.89    2.74
  -2  10  -8   12.44    2.25
   2 -10  -9    7.16    1.90
  -2 -10   9    4.51    2.27
   2  10   9    5.93    2.08
  -2  10  -9    3.77    1.67
  -2  10  -9    4.51    1.92
   2 -10 -10    3.02    1.52
  -2 -10  10    2.43    2.29
   2  10  10    1.17    1.31
  -2  10 -10    0.85    1.55
   2  10  10    2.58    1.15
  -2  10 -10    3.95    2.01
  -2  10 -11    2.79    1.53
   2 -10 -11    3.17    1.71
  -2 -10  11    3.25    2.50
   2  10  11    4.15    1.82
  -2  10 -11   -0.39    1.60
   2  10  11    1.42    1.21
   2 -10 -12    6.91    1.97
  -2 -10  12    9.04    2.77
   2  10  12    7.62    2.18
  -2  10 -12    4.40    1.89
   2  10  12    7.03    1.95
  -2 -10  13    4.13    2.83
   2  10  13    6.12    2.26
   2  10  13    6.27    1.94
  -2  10 -13    8.33    2.51
   2  10  13    9.07    2.22
   2 -10 -13    8.56    2.38
   2  10  14   -2.69    2.07
  -2  10 -14   -0.09    1.75
   2  10  14   -0.33    1.39
   2 -10 -14    0.90    1.89
   2 -10 -15   -0.71    1.91
  -2 -10  15   -3.47    3.27
   2  10  15    1.66    1.51
  -2  10 -15    2.69    1.51
   2  10  15    1.92    1.35
   2 -10 -16    4.74    2.23
   2  10  16    2.42    2.02
   2  10  16    4.46    2.05
   2  11 -16   -0.71    1.53
   2  11 -15    2.76    1.70
   2 -11  15    6.04    2.55
   2  11 -14   -0.17    1.39
   2 -11  14    2.86    2.27
  -2 -11 -14    2.37    1.71
  -2  11  14    2.16    1.67
   2 -11  14    5.14    2.57
   2  11 -13   -0.89    1.37
   2 -11  13    1.86    1.84
  -2 -11 -13    1.39    1.51
  -2  11  13    3.29    2.19
   2 -11  13    5.56    2.42
   2 -11  12    2.40    2.34
  -2 -11 -12    3.47    1.89
  -2  11  12    0.28    2.12
   2  11 -12    2.03    1.43
   2 -11  12   -1.86    2.31
   2  11 -11    4.28    1.66
   2 -11  11   -0.65    2.18
  -2 -11 -11    4.74    1.94
  -2  11  11    7.30    2.35
   2 -11  11    3.66    2.22
  -2  11  10    1.09    1.28
   2  11 -10    2.21    1.53
   2 -11  10    2.27    1.65
  -2 -11 -10    1.59    1.52
  -2  11  10    2.08    1.93
   2 -11  10   -3.50    2.24
   2  11  -9   16.44    2.52
  -2  11   9   17.66    2.99
   2 -11   9   13.64    2.73
  -2 -11  -9   15.68    2.48
  -2  11   9   19.26    3.42
   2 -11   9   15.57    2.92
   2  11  -8    5.55    1.81
  -2 -11  -8    5.46    1.80
   2 -11   8    5.84    1.94
  -2  11   8    5.24    2.18
   2 -11   8    8.50    2.41
   2  11  -7    2.86    1.45
  -2 -11  -7    2.16    1.51
   2 -11   7    2.14    1.69
  -2  11   7    1.92    1.78
   2 -11   7   -0.05    1.54
   2  11  -6    1.22    1.24
  -2 -11  -6    1.32    1.46
  -2  11   6    2.30    1.80
   2 -11   6   -0.96    1.62
   2  11  -6    1.87    0.93
   2 -11   6    0.00    1.30
  -2 -11  -5   25.20    2.59
  -2  11   5   29.49    3.91
   2 -11   5   27.69    3.16
   2  11  -5   24.83    2.87
   2  11  -5   25.24    2.11
   2 -11   5   32.16    3.33
   2  11  -4    8.72    1.88
  -2 -11  -4    5.81    1.56
  -2  11   4    6.21    2.40
   2 -11   4    8.87    2.06
   2  11  -4    6.32    1.14
   2 -11   4    9.86    1.79
  -2 -11  -3    8.25    1.69
   2  11  -3   10.43    1.99
  -2  11   3    7.33    2.16
  -2  11   3   10.03    3.34
   2 -11   3    8.66    1.86
   2  11  -2    0.13    1.22
  -2 -11  -2    0.32    1.05
  -2  11   2   -0.42    1.48
  -2  11   2    3.11    3.10
   2 -11   2    1.59    1.35
   2 -11   1   23.01    1.85
  -2 -11  -1   22.17    2.34
  -2  11   1   22.79    3.30
  -2  11   1   24.22    2.50
  -2  11   1   21.87    5.06
   2 -11   1   24.56    2.64
   2  11  -1   24.38    2.67
   2  11   0    0.88    1.27
   2 -11   0    0.02    0.59
  -2 -11   0    0.69    1.13
  -2  11   0    0.28    1.65
   2 -11   0   -0.33    1.15
  -2  11   0    0.47    0.98
   2  11   1   23.29    2.66
   2 -11  -1   20.90    1.69
  -2 -11   1   25.15    2.47
  -2  11  -1   16.04    2.73
  -2  11  -1   20.42    5.40
  -2  11  -1   20.92    2.32
   2 -11  -1   25.13    2.53
   2 -11  -2    0.66    0.61
  -2  11  -2    1.51    2.78
   2  11   2   -2.43    1.60
  -2  11  -2   -0.43    1.22
   2 -11  -2   -0.95    0.98
  -2 -11   2    0.65    1.20
  -2 -11   2    1.05    0.84
  -2 -11   3    9.19    1.48
   2 -11  -3    9.58    1.19
  -2  11  -3   11.92    4.14
  -2  11  -3    6.62    1.59
   2 -11  -3    7.78    1.60
   2  11   3   10.07    2.05
  -2 -11   3    8.07    1.59
  -2 -11   4    9.22    1.62
   2  11   4    6.71    1.73
  -2 -11   4   10.22    2.00
   2 -11  -4    6.80    1.07
  -2  11  -4    5.68    1.58
   2 -11  -4    8.39    1.63
   2  11   5   31.39    3.21
   2 -11  -5   30.46    2.77
  -2 -11   5   25.33    2.72
  -2  11  -5   26.67    2.81
  -2 -11   5   30.67    3.04
   2 -11  -5   33.27    2.99
   2 -11  -6    2.02    1.21
   2  11   6    3.01    1.71
  -2  11  -6   -0.39    1.13
  -2 -11   6    0.93    1.33
   2 -11  -7    2.69    1.39
   2  11   7   -0.39    1.55
  -2  11  -7    1.05    1.50
  -2 -11   7    0.96    1.21
   2 -11  -8    7.28    1.85
  -2 -11   8    4.69    1.81
   2  11   8    3.59    1.65
  -2  11  -8    2.05    1.37
   2 -11  -9   16.91    2.52
  -2 -11   9   17.59    3.17
   2  11   9   17.50    2.84
  -2  11  -9   16.04    3.20
  -2  11  -9   15.24    2.55
  -2 -11  10   -0.19    2.16
   2 -11 -10    1.16    1.50
  -2  11 -10   -0.28    1.38
   2  11  10    0.60    1.07
   2  11  10    0.66    1.64
  -2  11 -10    0.48    1.69
   2  11  11    5.71    2.20
  -2  11 -11    2.15    1.76
   2 -11 -11    8.48    2.28
   2  11  11    6.02    1.85
   2 -11 -12    1.92    1.77
  -2 -11  12    1.45    2.15
   2  11  12    0.44    1.44
  -2  11 -12    0.36    1.24
   2  11  12    1.65    1.32
   2 -11 -13   -1.75    1.65
  -2 -11  13    2.78    2.61
   2  11  13    2.22    1.99
   2  11  13    1.48    1.76
  -2  11 -13    1.43    1.44
   2  11  13    1.36    1.57
  -2 -11  14   -1.25    2.33
   2  11  14    3.24    1.76
  -2  11 -14   -0.05    1.47
   2  11  14    1.36    1.43
   2 -11 -14    4.97    2.32
   2 -11 -15    9.45    2.56
   2  11  15    8.05    2.47
   2  11  15    5.51    2.00
   2  12 -15   -3.60    1.86
  -2  12  14    5.34    2.17
   2  12 -14    2.27    1.68
   2 -12  13    3.00    2.07
  -2 -12 -13   10.76    2.54
  -2  12  13    6.55    2.79
   2  12 -13    4.99    1.75
   2 -12  13    2.98    2.13
   2 -12  12   17.31    3.50
  -2 -12 -12   20.74    3.23
  -2  12  12   17.76    3.53
   2  12 -12   15.74    2.62
   2 -12  12   22.78    3.92
   2 -12  11    2.08    2.32
  -2 -12 -11    3.05    1.79
  -2  12  11    4.60    2.27
   2  12 -11    2.11    1.68
   2 -12  11    3.87    2.37
   2  12 -10    0.97    1.39
   2 -12  10    2.23    2.11
  -2 -12 -10   -1.05    1.60
  -2  12  10    1.42    1.90
   2 -12  10   -5.11    2.46
  -2  12  10    0.21    1.62
   2  12  -9   -0.08    1.54
  -2  12   9    2.43    1.88
   2 -12   9    0.84    1.67
  -2 -12  -9    3.18    1.64
  -2  12   9    3.58    2.09
   2 -12   9    2.20    1.69
   2 -12   8   53.44    4.78
   2  12  -8   47.91    4.15
  -2 -12  -8   61.66    4.47
  -2  12   8   53.85    5.42
   2 -12   8   51.21    4.71
  -2 -12  -7   11.09    2.04
   2 -12   7    8.59    2.13
  -2  12   7    7.67    2.52
   2  12  -7    8.54    2.00
   2 -12   7   11.04    2.34
   2  12  -6   22.62    2.87
  -2 -12  -6   22.28    2.63
  -2  12   6   27.33    3.93
   2 -12   6   19.32    2.92
   2 -12   6   22.01    3.02
   2  12  -5    4.11    1.57
  -2 -12  -5    4.04    1.53
  -2  12   5    5.70    2.24
   2 -12   5    2.13    1.52
   2 -12   4   41.88    3.71
   2  12  -4   39.59    3.57
  -2 -12  -4   41.27    3.34
  -2  12   4   44.40    4.79
  -2  12   4   34.64    5.33
  -2 -12  -3   21.95    2.43
   2  12  -3   20.84    2.62
  -2  12   3   20.01    3.25
   2 -12   3   17.43    2.47
  -2  12   3   18.25    4.09
   2  12  -2   88.95    5.24
   2 -12   2   94.91    5.22
  -2  12   2   97.46    6.85
   2 -12   2   87.52    4.00
  -2 -12  -2   90.55    4.84
  -2  12   2   91.53    9.06
   2  12  -1   12.72    2.25
   2 -12   1   11.89    1.47
  -2 -12  -1   11.43    1.90
  -2  12   1   11.61    2.59
  -2  12   1    7.29    3.59
   2 -12   1   13.00    2.05
   2  12   0   -0.76    1.41
   2 -12   0    1.28    0.78
  -2 -12   0    1.15    1.27
  -2  12   0    1.94    1.57
   2 -12   0    1.91    1.10
  -2  12   0    0.34    1.13
   2  12   1   12.27    2.16
  -2 -12   1   11.21    1.85
   2 -12  -1   12.07    1.42
  -2  12  -1   11.32    4.39
   2 -12  -1   11.98    1.97
  -2  12  -1   10.55    1.99
   2  12   2   85.87    5.20
   2 -12  -2   88.75    4.76
  -2 -12   2   85.82    4.68
   2 -12  -2   87.79    3.76
  -2  12  -2   92.28    4.96
   2  12   3   18.33    2.57
   2 -12  -3   23.26    1.89
  -2 -12   3   17.49    2.28
  -2  12  -3   20.64    5.22
  -2  12  -3   24.68    2.69
   2 -12  -3   23.08    2.51
  -2 -12   3   22.76    2.23
   2  12   4   37.63    3.65
   2 -12  -4   36.75    3.10
  -2 -12   4   35.55    3.14
  -2  12  -4   37.24    3.25
  -2  12  -4   40.19    6.17
  -2 -12   4   41.49    3.21
   2 -12  -5    6.90    1.74
  -2 -12   5    4.05    1.43
   2  12   5    2.35    1.50
  -2 -12   5    5.53    1.55
  -2  12  -5    2.30    1.35
   2 -12  -5    3.68    1.23
  -2 -12   6   23.82    2.84
   2  12   6   21.64    2.89
  -2 -12   6   21.34    2.72
  -2  12  -6   23.21    2.72
   2 -12  -6   22.04    2.50
   2 -12  -6   26.71    2.90
   2 -12  -7    9.63    1.85
  -2 -12   7   11.04    2.35
   2  12   7    8.91    2.17
  -2  12  -7    6.49    1.77
   2  12   8   59.86    4.85
  -2  12  -8   50.72    4.17
  -2 -12   8   58.56    5.00
   2 -12  -8   52.40    4.07
   2 -12  -9    1.43    1.42
  -2 -12   9    0.38    1.55
   2  12   9    1.07    1.55
  -2  12  -9   -0.58    1.23
   2 -12 -10   -1.92    1.73
  -2 -12  10    0.91    1.92
   2  12  10   -0.91    1.94
  -2  12 -10   -2.20    2.01
  -2  12 -10   -1.14    1.65
   2 -12 -11    0.95    1.42
   2  12  11   -1.75    1.97
  -2  12 -11   -0.35    1.71
   2  12  11   -0.99    1.53
  -2 -12  11    0.93    2.19
   2 -12 -12   20.95    3.08
  -2 -12  12   15.04    3.23
   2  12  12   16.67    3.00
  -2  12 -12   17.10    2.91
   2  12  12   20.81    2.97
   2 -12 -13    5.56    2.14
  -2 -12  13   -0.77    2.41
   2  12  13    4.91    2.09
   2  12  13    5.78    2.32
  -2  12 -13    1.83    1.61
   2  12  13    5.54    1.90
  -2 -12  14    6.46    3.09
   2  12  14    3.50    1.78
   2  12  14    5.93    1.91
   2 -12 -14    5.66    2.21
   2  13 -14    0.02    1.46
   2  13 -13   -1.73    1.41
  -2  13  13    1.92    2.37
   2 -13  13    1.42    1.98
   2  13 -12   -1.35    1.58
   2 -13  12    3.48    2.35
  -2 -13 -12    1.47    1.73
  -2  13  12    0.50    1.65
   2 -13  12    2.86    1.98
   2  13 -11    0.93    1.46
   2 -13  11   -0.98    1.69
  -2 -13 -11   -0.46    1.82
  -2  13  11    0.71    2.10
   2 -13  11    2.09    1.74
   2  13 -10    0.63    1.40
   2 -13  10    3.26    2.12
  -2  13  10    1.81    1.93
  -2 -13 -10    2.17    1.44
  -2  13  10   -0.51    1.99
   2 -13  10    3.86    2.25
   2 -13   9    4.33    2.39
  -2 -13  -9   13.03    2.56
  -2  13   9    7.67    2.68
   2  13  -9   10.83    2.47
  -2 -13  -8   -0.93    1.22
   2 -13   8   -0.84    1.81
  -2  13   8    2.25    2.02
   2  13  -8   -0.35    1.22
   2  13  -7    1.75    1.29
  -2 -13  -7    1.41    1.51
   2 -13   7    1.76    1.68
  -2  13   7   -1.27    2.07
   2  13  -6    3.94    1.67
  -2 -13  -6    1.50    1.29
   2 -13   6    3.83    2.12
  -2  13   6    4.75    2.52
  -2 -13  -5   11.16    1.97
  -2  13   5   13.05    2.99
   2 -13   5   10.38    2.17
   2  13  -5    7.81    2.04
  -2 -13  -4   -0.60    1.31
  -2  13   4    0.44    1.48
   2 -13   4    0.54    1.66
   2  13  -4   -0.91    1.48
  -2  13   4   -0.30    2.24
   2  13  -3    6.09    1.72
   2 -13   3    7.85    1.38
  -2 -13  -3    8.12    1.94
  -2  13   3    5.74    2.40
   2 -13   3    8.51    1.97
  -2  13   3    8.45    3.91
   2  13  -2    5.19    1.66
   2 -13   2    3.85    1.13
  -2 -13  -2    5.87    1.76
  -2  13   2    5.08    2.25
   2 -13   2    5.06    1.68
  -2  13   2    4.22    2.89
   2  13  -1    8.94    2.01
   2 -13   1    7.67    1.26
  -2 -13  -1    9.63    1.79
  -2  13   1    6.52    2.25
   2 -13   1    7.95    1.86
  -2  13   1    3.79    3.54
   2  13   0    1.13    1.20
   2 -13   0    0.34    0.75
  -2 -13   0   -1.24    1.41
   2 -13   0    1.56    1.35
  -2  13   0    0.44    3.81
  -2  13   0    1.09    1.28
   2  13   1    7.07    2.08
  -2 -13   1    8.92    1.81
   2 -13  -1    7.14    1.22
  -2  13  -1    8.90    4.97
   2 -13  -1    9.10    1.81
  -2  13  -1    9.47    1.96
   2  13   2    5.89    2.07
  -2  13  -2    6.84    4.08
   2 -13  -2    1.40    1.41
  -2  13  -2    5.43    1.59
  -2 -13   2    3.71    1.51
  -2 -13   3    5.34    1.53
  -2  13  -3    4.89    3.34
   2  13   3    7.47    1.99
  -2  13  -3    6.58    1.79
   2 -13  -3    4.63    1.51
  -2 -13   3    6.47    1.33
  -2 -13   4    1.13    0.92
   2  13   4    0.92    1.51
  -2 -13   4   -1.64    1.35
  -2  13  -4   -2.17    2.93
  -2  13  -4   -3.00    1.63
   2 -13  -4    0.04    1.16
   2 -13  -5   10.80    1.98
  -2 -13   5    8.84    1.87
   2  13   5    6.60    2.12
  -2 -13   5    9.37    1.90
  -2  13  -5    4.85    3.23
  -2  13  -5   13.70    2.41
   2 -13  -5   10.05    1.88
   2 -13  -6    5.50    1.63
  -2 -13   6    5.12    1.70
   2  13   6    0.95    1.38
  -2 -13   6    4.67    1.74
  -2  13  -6    3.42    1.48
   2 -13  -6    3.31    1.40
   2 -13  -7    0.46    1.08
  -2 -13   7    0.56    1.19
   2  13   7    0.51    1.70
  -2  13  -7   -1.39    1.81
   2 -13  -7   -0.04    1.15
   2 -13  -8    0.07    1.22
  -2 -13   8    1.83    1.49
   2  13   8    0.54    1.78
  -2  13  -8    0.75    1.51
   2 -13  -8    0.95    0.94
   2 -13  -9    8.16    1.96
  -2 -13   9    8.32    2.34
   2  13   9    6.31    2.15
  -2  13  -9    3.04    1.80
   2 -13 -10    2.06    1.54
   2  13  10    2.11    1.59
  -2 -13  10    2.29    1.86
  -2  13 -10    1.76    1.91
  -2  13 -10    2.00    2.12
   2 -13 -11    3.04    1.46
   2  13  11    0.09    1.73
  -2  13 -11    1.79    1.76
  -2 -13  11    1.54    1.78
   2  13  11    2.30    1.29
   2 -13 -12    3.50    1.90
  -2 -13  12    2.74    2.40
   2  13  12    0.46    1.94
  -2  13 -12    1.16    1.92
   2  13  12    1.93    1.20
   2 -13 -13    0.76    1.69
  -2 -13  13    1.17    1.49
   2  13  13    2.42    1.96
   2  13  13    3.30    2.16
   2 -13 -14   -1.01    1.55
   2  14 -13    6.37    1.94
   2  14 -12   -0.63    1.33
  -2  14  12    1.57    2.15
   2 -14  11    1.81    2.19
   2  14 -11    1.92    1.55
  -2 -14 -11    0.12    1.51
  -2  14  11   -2.40    2.06
   2 -14  10    0.19    2.17
  -2 -14 -10    1.18    1.76
  -2  14  10    3.59    2.38
   2  14 -10   -0.43    1.48
  -2  14  10   -1.83    1.96
   2  14  -9   11.96    2.31
   2 -14   9   13.15    2.87
  -2 -14  -9    6.73    1.94
  -2  14   9   14.21    3.25
  -2 -14  -8    1.34    1.50
   2  14  -8    1.79    1.39
   2 -14   8    3.66    1.90
  -2  14   8    4.07    2.36
   2  14  -7   -1.08    1.57
   2 -14   7    2.07    1.66
  -2 -14  -7    2.23    1.50
   2  14  -6    4.65    1.60
  -2 -14  -6    0.81    1.48
   2 -14   6    4.86    2.11
  -2  14   6    5.05    2.38
   2  14  -5    8.28    1.97
  -2 -14  -5    9.74    2.12
  -2  14   5    9.42    2.76
   2 -14   5    9.46    2.33
  -2  14   5    7.43    2.83
   2  14  -4   -2.55    1.82
  -2 -14  -4    1.47    1.43
  -2  14   4   -4.59    2.63
   2 -14   4    1.84    1.33
  -2  14   4    2.02    2.39
   2  14  -3    6.75    1.82
   2 -14   3    7.25    1.41
  -2 -14  -3    8.02    1.80
  -2  14   3    6.99    2.29
   2 -14   3    6.13    2.02
  -2  14   3    3.66    2.84
   2 -14   2    6.22    1.42
  -2 -14  -2    4.09    1.63
  -2  14   2    4.96    2.17
   2 -14   2    4.78    1.73
  -2  14   2    9.74    4.28
   2  14  -2    3.01    1.48
   2  14  -1    7.27    2.07
   2 -14   1   10.85    1.60
  -2 -14  -1   12.20    2.04
   2 -14   1    6.87    1.69
  -2  14   1    6.58    4.02
   2  14   0    1.79    1.75
  -2 -14   0   -0.54    1.38
   2 -14   0    1.13    1.40
  -2  14   0    2.71    3.49
   2  14   1   10.52    2.47
  -2 -14   1   10.14    1.90
   2 -14  -1    8.93    1.96
  -2  14  -1   11.86    2.22
   2  14   2    8.97    2.30
  -2 -14   2    3.10    1.54
  -2  14  -2    8.70    4.54
   2 -14  -2    5.76    1.69
  -2  14  -2    5.36    1.72
   2  14   3    5.17    1.88
  -2 -14   3    4.93    1.60
  -2  14  -3    3.54    3.15
   2 -14  -3    7.30    1.74
  -2  14  -3    7.89    1.99
   2  14   4   -0.09    1.39
  -2 -14   4   -0.81    1.41
  -2  14  -4    1.32    2.93
  -2  14  -4    2.16    1.48
   2 -14  -4   -0.40    1.28
   2 -14  -5   10.35    2.03
   2  14   5    9.71    2.21
  -2 -14   5   10.27    2.03
  -2  14  -5   11.20    3.71
  -2  14  -5    7.15    2.09
   2 -14  -5    9.68    1.96
   2 -14  -6    0.71    1.31
  -2 -14   6    4.80    2.01
   2  14   6    2.12    1.84
  -2  14  -6   -0.70    1.47
   2 -14  -6    0.89    1.08
   2 -14  -7    3.13    1.58
   2  14   7    3.36    2.04
  -2 -14   7    1.67    1.48
  -2  14  -7    2.38    1.79
  -2 -14   7    2.98    1.50
   2 -14  -7    2.57    1.39
   2 -14  -8    3.92    1.68
  -2 -14   8   -0.65    1.54
   2  14   8    4.79    2.34
  -2  14  -8    0.03    1.49
   2 -14  -8    2.40    1.41
   2 -14  -9   11.47    2.29
   2  14   9   11.74    2.92
  -2  14  -9    5.87    2.02
   2 -14  -9    8.76    2.03
  -2 -14   9    9.00    2.17
   2 -14 -10    1.87    1.57
   2  14  10    2.11    2.13
  -2  14 -10    4.42    2.16
   2 -14 -10   -0.59    1.21
  -2 -14  10   -0.09    1.60
   2 -14 -11   -0.84    1.32
  -2 -14  11    5.49    2.44
   2  14  11   -4.52    2.38
  -2  14 -11    2.69    1.67
   2  14  11   -3.19    1.69
   2 -14 -12    4.07    2.02
  -2 -14  12    0.84    1.42
   2 -14 -13    3.01    1.92
   2  15 -11   -1.32    1.50
  -2  15  11    3.28    2.48
   2 -15  10    9.26    2.63
  -2 -15 -10   11.34    2.45
  -2  15  10   14.10    3.23
   2  15 -10    7.72    2.09
   2  15  -9    0.80    1.41
   2 -15   9   -1.90    2.00
  -2 -15  -9   -0.49    1.37
  -2  15   9   -0.77    2.28
   2  15  -8    3.34    1.82
  -2 -15  -8    6.74    2.23
   2 -15   8    6.13    2.29
  -2  15   8    4.01    2.11
   2  15  -7   -0.03    1.49
  -2 -15  -7   -1.94    1.52
   2 -15   7    2.48    1.84
  -2  15   7   -0.29    2.10
  -2 -15  -6   24.15    3.06
   2 -15   6   24.31    3.35
  -2  15   6   22.01    3.91
   2  15  -6   22.71    3.13
  -2 -15  -5    6.23    2.01
  -2  15   5    5.21    2.33
   2 -15   5    8.89    2.44
   2  15  -5    5.89    1.98
  -2  15   5    6.54    3.49
   2  15  -4   16.83    2.70
   2 -15   4   18.39    2.21
  -2 -15  -4   20.03    2.62
  -2  15   4   17.23    3.48
   2 -15   4   18.46    2.97
  -2  15   4    9.76    3.73
   2  15  -3    1.52    1.44
   2 -15   3    0.33    0.91
  -2 -15  -3    4.28    1.87
   2 -15   3   -0.06    1.79
  -2  15   3    3.78    2.83
   2  15  -2   14.14    2.56
  -2 -15  -2    9.81    1.94
   2 -15   2   12.11    2.42
  -2  15   2   12.28    4.44
   2  15  -1    7.63    2.26
  -2 -15  -1    6.21    1.86
   2 -15   1    7.37    2.05
   2  15   0   32.56    3.63
   2 -15   0   36.36    3.50
  -2 -15   0   35.61    3.48
  -2  15   0   33.18    7.16
   2  15   1    6.27    1.96
  -2 -15   1    6.33    1.87
   2 -15  -1    6.27    1.73
  -2  15  -1    3.69    3.53
  -2  15  -1    3.83    1.65
   2  15   2   15.02    2.83
  -2 -15   2   13.21    2.30
   2 -15  -2   13.68    2.25
  -2  15  -2   10.69    4.46
  -2  15  -2   13.80    2.46
   2  15   3    1.23    1.72
  -2 -15   3    1.66    1.58
  -2  15  -3   -3.51    3.39
   2 -15  -3    1.37    1.27
  -2  15  -3    0.87    1.54
   2  15   4   16.51    3.05
  -2 -15   4   19.64    2.91
  -2  15  -4   20.84    5.06
   2 -15  -4   17.33    2.47
  -2  15  -4   17.84    2.83
   2 -15  -5    8.23    1.79
   2  15   5    7.61    2.59
  -2 -15   5    7.41    1.89
  -2  15  -5    5.95    2.84
  -2  15  -5    6.26    1.84
   2 -15  -5    4.97    1.55
   2 -15  -6   23.31    2.83
   2  15   6   29.12    3.81
  -2 -15   6   21.81    3.12
  -2  15  -6   19.81    2.96
   2 -15  -6   25.10    2.94
   2 -15  -7    0.20    1.12
   2  15   7   -2.26    2.15
  -2 -15   7    2.73    1.84
  -2  15  -7    1.58    1.64
   2 -15  -7    1.35    1.33
   2 -15  -8    6.35    1.87
   2  15   8    6.66    2.68
  -2 -15   8    2.25    1.69
  -2  15  -8    6.90    2.03
   2 -15  -8    3.33    1.47
   2 -15  -9    0.88    1.33
   2  15   9    5.72    2.67
  -2 -15   9   -2.07    2.18
  -2  15  -9    2.86    1.82
   2 -15  -9    1.08    1.34
   2  15  10    9.01    2.64
  -2  15 -10   11.83    2.78
   2 -15 -10   11.49    2.24
   2 -15 -10    9.76    2.31
   2 -15 -11    1.21    1.41
  -2 -15  11   -1.23    1.87
   2 -15 -11   -1.07    1.19
   2 -15 -12    0.52    1.41
  -2 -15  12    4.01    2.15
   2 -15 -12    2.45    1.45
   2  16 -10   -0.14    1.23
   2  16  -9    3.45    1.92
  -2  16   9    4.24    2.50
   2  16  -8   -0.41    1.41
   2 -16   8    0.52    1.83
  -2 -16  -8    0.79    1.90
  -2  16   8    5.48    2.53
   2  16  -7    5.42    1.83
  -2 -16  -7    2.66    1.56
   2 -16   7    5.34    2.30
  -2  16   7    3.78    2.33
   2  16  -6    0.41    1.49
  -2 -16  -6    0.36    1.19
  -2  16   6   -3.73    2.49
   2  16  -5   13.52    2.63
  -2 -16  -5   11.56    2.38
   2 -16   5   11.19    2.69
  -2  16   5   14.93    3.53
  -2  16   5   10.17    3.93
   2  16  -4    1.11    1.37
  -2 -16  -4   -3.57    1.83
   2 -16   4    1.58    1.78
  -2  16   4    3.74    2.80
   2  16  -3    7.31    2.16
  -2 -16  -3    7.93    2.00
   2 -16   3    9.43    2.45
  -2  16   3    8.55    3.68
   2  16  -2    1.16    1.66
  -2 -16  -2   -1.23    1.36
   2 -16   2    2.50    1.80
  -2  16   2    0.07    2.68
   2  16  -1   10.44    2.25
  -2 -16  -1   13.19    2.28
   2 -16   1   12.95    2.55
  -2  16   1   11.35    4.59
  -2 -16   0   -1.10    1.41
   2 -16   0    0.70    1.45
   2  16   0   -0.12    1.68
   2  16   1   11.71    2.63
  -2 -16   1    9.84    2.07
   2 -16  -1   11.08    2.23
  -2  16  -1    6.90    4.72
   2  16   2    0.07    1.54
  -2 -16   2    1.51    1.37
   2 -16  -2    0.43    1.02
  -2  16  -2   -2.69    3.91
  -2  16  -2    0.62    1.59
  -2 -16   3    7.28    1.94
  -2  16  -3    6.87    3.41
   2 -16  -3    5.04    1.62
  -2  16  -3    4.28    1.81
   2  16   3    5.33    2.19
   2 -16  -4    3.68    1.43
   2  16   4    1.34    1.99
  -2 -16   4    0.09    1.64
  -2  16  -4    4.53    3.19
   2 -16  -4   -0.44    1.22
  -2  16  -4    1.66    1.52
   2 -16  -5   14.11    2.37
   2  16   5   13.96    2.90
  -2 -16   5   16.50    2.67
  -2  16  -5   15.45    4.09
   2 -16  -5   13.71    2.30
  -2  16  -5   13.58    2.74
   2 -16  -6   -1.25    1.40
   2  16   6    1.51    1.60
  -2 -16   6    0.64    1.71
  -2  16  -6    3.17    1.65
   2 -16  -6   -0.07    0.98
   2 -16  -7    5.33    1.91
   2  16   7    5.50    2.22
  -2  16  -7    1.57    1.30
   2 -16  -7    6.33    1.71
   2 -16  -8   -1.33    1.59
   2  16   8    2.66    2.04
  -2 -16   8    2.74    2.07
  -2  16  -8    2.81    1.56
   2 -16  -8    0.11    1.16
   2 -16  -9    2.16    1.44
   2 -16  -9    3.45    1.36
   2 -16 -10   -1.72    1.39
   2 -16 -10    2.73    1.49
  -2  17   8    7.04    2.87
   2  17  -8    3.02    1.85
   2  17  -7    2.47    1.57
  -2  17   7    2.60    1.96
   2  17  -6    0.22    1.19
   2 -17   6   -3.50    1.95
   2  17  -5   -0.78    1.33
  -2 -17  -5   -0.31    1.59
   2 -17   5    1.78    1.64
  -2  17   5   -0.07    2.15
   2  17  -4    3.16    1.61
  -2 -17  -4    3.95    1.78
   2 -17   4    3.73    1.99
  -2  17   4    4.45    3.41
   2  17  -3    6.26    1.97
  -2 -17  -3    4.75    1.60
   2 -17   3    3.36    1.89
  -2  17   3    9.84    4.18
   2  17  -2    0.52    1.59
  -2 -17  -2    0.93    1.19
   2 -17   2   -0.12    1.61
  -2  17   2   -0.03    2.23
   2  17  -1    1.34    1.88
  -2 -17  -1    1.39    1.31
   2 -17   1    3.44    1.79
  -2  17   1   -2.52    3.17
   2  17   0    2.65    1.70
  -2 -17   0    2.38    1.37
   2 -17   0    2.90    1.53
   2  17   1    3.01    2.20
  -2 -17   1    1.42    1.65
   2 -17  -1    0.95    1.52
  -2  17  -1    2.17    3.16
   2  17   2    0.13    1.48
  -2 -17   2    1.02    1.72
   2 -17  -2    0.21    1.21
  -2  17  -2    0.25    2.14
  -2  17  -2    1.20    1.72
   2  17   3    2.63    2.14
  -2 -17   3    3.42    1.73
  -2  17  -3    5.22    3.82
   2 -17  -3    3.81    1.59
  -2  17  -3    7.79    2.02
   2 -17  -4    2.57    1.40
   2  17   4    2.35    1.92
  -2 -17   4    4.26    2.17
  -2  17  -4    3.68    2.88
   2 -17  -4    5.49    1.78
  -2  17  -4    2.92    1.89
   2 -17  -5    0.31    0.99
  -2 -17   5    0.78    1.35
  -2  17  -5    4.11    3.35
   2  17   5    0.06    1.60
   2 -17  -5    3.63    1.70
  -2  17  -5    0.98    1.47
   2 -17  -6    2.45    1.40
   2  17   6   -1.23    2.24
   2 -17  -6   -2.23    1.52
   2 -17  -7    1.13    1.52
   2 -17  -7    3.54    1.57
   2 -17  -8    1.18    1.47
   2 -17  -8   -0.47    1.23
   2  18  -6    2.70    1.92
   2  18  -5    4.33    1.92
   2  18  -4    7.82    2.14
   2  18  -3    5.81    2.03
   2 -18   3   -1.57    2.03
   2  18  -2   -0.26    1.33
   2 -18   2    3.65    1.86
   2  18  -1    0.88    1.94
   2 -18   1   -3.46    1.90
   2  18   0    4.98    2.35
   2 -18   0    2.37    1.72
   2  18   1   -4.79    2.39
   2 -18  -1    0.81    1.20
   2  18   2    3.35    1.92
   2 -18  -2    1.83    1.59
   2 -18  -3   -0.81    1.10
   2 -18  -3    1.35    1.40
   2 -18  -4    4.99    1.84
   2 -18  -4    3.04    1.44
   2 -18  -5   -0.48    1.37
   2 -18  -5    0.10    1.31
   2 -18  -6    1.95    1.37
   3   0   0   -0.08    0.68
  -3   0   0    0.59    0.44
  -3   0   0   -1.96    1.91
  -3   0   0    0.08    0.24
  -3   0   0   -0.30    1.99
   3   0  -1    0.92    0.74
   3   0   1    0.42    0.62
  -3   0   1    2.29    0.46
  -3   0  -1    1.97    0.66
  -3   0   1    0.83    1.92
  -3   0  -1    1.50    2.03
  -3   0  -1    1.54    0.41
   3   0   1    0.30    0.63
  -3   0   1    4.97    2.30
  -3   0  -1    1.65    1.86
   3   0  -1    0.37    0.79
   3   0   2   34.86    2.13
   3   0   2   32.79    2.06
  -3   0   2   33.05    1.27
  -3   0  -2   36.07    2.26
  -3   0   2   29.87    3.48
  -3   0  -2   33.98    1.68
  -3   0  -2   29.85    3.32
  -3   0  -2   35.96    3.68
  -3   0   2   32.53    3.52
   3   0  -2   30.29    2.17
   3   0  -3   10.34    1.44
   3   0   3    5.38    0.95
  -3   0   3    6.26    0.49
  -3   0  -3    6.77    1.16
  -3   0   3    8.31    2.14
  -3   0  -3    4.18    2.03
  -3   0  -3    6.50    0.93
   3   0   3    7.44    1.09
  -3   0   3    5.25    1.30
   3   0   3    5.33    1.35
  -3   0   3    0.69    1.95
  -3   0  -3    4.53    2.11
   3   0  -4   14.96    1.81
  -3   0   4   12.90    0.74
  -3   0   4   17.28    2.75
  -3   0  -4   14.73    2.68
  -3   0  -4   13.38    1.70
  -3   0  -4   15.35    1.51
   3   0   4   13.86    1.31
   3   0   4   13.58    1.45
  -3   0   4   13.12    2.01
   3   0   4   12.48    1.78
  -3   0   4   18.60    3.02
  -3   0  -4   13.98    2.50
   3   0  -5    5.39    1.42
   3   0   5    3.93    0.93
  -3   0   5    2.55    0.43
  -3   0   5    5.51    1.98
  -3   0  -5    6.95    1.99
  -3   0  -5    2.82    1.25
   3   0   5    3.64    1.01
  -3   0  -5    3.15    1.01
  -3   0   5    1.42    1.27
   3   0   5    4.13    1.43
  -3   0   5    4.66    2.00
  -3   0  -5    3.66    1.75
   3   0   6   31.05    2.40
  -3   0  -6   32.13    2.86
  -3   0  -6   32.61    3.44
  -3   0  -6   27.82    2.39
  -3   0   6   29.10    3.04
   3   0   6   30.57    2.92
  -3   0   6   30.79    3.29
   3   0   6   33.59    2.10
  -3   0  -6   28.63    3.06
   3   0  -6   32.16    2.86
   3   0  -7    7.96    1.80
   3   0   7   11.54    1.34
   3   0   7   10.45    1.67
  -3   0  -7    7.21    1.63
  -3   0  -7    8.32    1.59
  -3   0   7   12.48    2.24
   3   0   7   10.54    1.96
  -3   0   7    8.08    2.00
  -3   0  -7   10.30    2.09
  -3   0   7    8.68    1.99
   3   0   8   16.23    1.62
   3   0  -8   18.18    2.46
   3   0   8   17.67    2.14
  -3   0  -8   11.25    1.93
  -3   0  -8   14.79    2.19
  -3   0   8   13.87    2.45
   3   0   8   15.65    2.44
  -3   0   8   19.28    2.77
  -3   0  -8   15.84    2.39
  -3   0   8   16.59    2.41
   3   0  -9    4.10    1.89
   3   0   9    3.18    1.32
  -3   0  -9    2.56    1.53
  -3   0  -9    2.15    1.34
  -3   0   9    4.10    1.92
   3   0   9    2.74    1.63
  -3   0   9    1.10    1.32
  -3   0  -9    1.48    1.21
  -3   0   9    2.82    1.64
  -3   0  10    9.69    2.30
   3   0  10    9.07    1.92
  -3   0 -10    8.02    2.13
  -3   0 -10    6.61    1.83
  -3   0  10    9.28    2.25
   3   0  10   11.64    2.62
  -3   0  10    9.78    2.00
  -3   0 -10    9.29    1.93
   3   0 -10    7.71    2.27
  -3   0  11    0.22    1.70
   3   0 -11   -1.69    1.77
   3   0  11    0.70    1.12
  -3   0 -11   -0.71    1.52
  -3   0 -11    0.04    1.34
  -3   0  11   -1.35    1.85
   3   0  11   -1.06    2.07
  -3   0  11   -0.66    1.21
  -3   0 -11    0.64    1.09
  -3   0  12   13.23    2.96
   3   0 -12   10.06    2.69
  -3   0 -12   15.15    2.84
  -3   0  12   14.19    2.94
   3   0  12    6.51    1.96
  -3   0  13    3.13    2.32
   3   0 -13    5.47    2.18
  -3   0 -13    1.14    1.79
  -3   0  13    8.36    2.70
   3   0  13    4.60    2.20
  -3   0  14   -4.23    2.45
   3   0 -14    3.66    2.39
  -3   0 -14    5.93    2.29
  -3   0  14    0.04    1.77
   3   0  14    0.05    1.58
  -3   0  15   -2.41    2.72
   3   0 -15    2.98    2.54
  -3   0 -15   -0.86    1.57
  -3   0  15   -1.46    1.93
   3   0  15    0.27    2.01
  -3   0  16    2.50    2.11
   3   0 -16    3.83    2.67
  -3   0 -16    5.92    2.61
  -3   0  16    5.83    2.26
   3   0  16    3.83    2.03
  -3   0  17   -0.95    1.82
   3   0 -17   -3.27    2.57
  -3   0 -17   -1.32    1.97
  -3   0  17   -3.82    2.37
   3   0  17    4.53    2.71
  -3   1  18    1.97    1.87
  -3   1  17   -0.91    2.29
  -3  -1 -17    4.24    2.36
  -3   1  17    0.05    1.72
   3  -1  17    3.19    2.21
  -3   1  16   -0.85    2.55
   3   1 -16    6.47    2.91
  -3  -1 -16   -1.23    1.90
  -3   1  16   -0.22    1.62
   3  -1  16    0.78    2.28
  -3   1  15    7.26    2.59
   3   1 -15    7.40    2.54
  -3  -1 -15    6.89    2.20
  -3   1  15    9.10    2.76
   3  -1  15    9.46    2.82
  -3   1  14    9.77    2.88
   3   1 -14   10.77    3.23
  -3  -1 -14    6.27    2.05
  -3  -1 -14    3.32    1.98
  -3   1  14    6.87    2.42
   3  -1  14    9.28    2.67
  -3   1  13    2.10    1.55
   3   1 -13    1.85    2.08
   3  -1  13    4.32    1.93
  -3  -1 -13    5.14    1.98
  -3  -1 -13    2.77    1.67
  -3   1  13    4.74    2.35
   3  -1  13    0.46    1.91
  -3   1  12    4.05    2.07
   3   1 -12    2.66    2.21
   3  -1  12    0.97    1.41
  -3  -1 -12    1.40    1.51
  -3  -1 -12    3.06    1.74
  -3   1  12    3.39    2.22
   3  -1  12    1.76    1.60
  -3   1  11   21.62    3.11
   3   1 -11   24.60    3.49
   3  -1  11   21.25    2.88
  -3  -1 -11   26.39    3.22
  -3  -1 -11   24.90    3.14
  -3   1  11   27.32    3.70
  -3  -1 -11   26.57    2.75
  -3   1  11   29.03    3.11
   3  -1  11   33.04    3.84
   3   1 -10    7.01    2.09
   3  -1  10    7.51    1.96
  -3  -1 -10    7.16    1.87
  -3  -1 -10    7.05    1.93
  -3   1  10    6.65    2.20
   3  -1  10    3.79    1.87
  -3  -1 -10    7.99    1.73
  -3   1  10    9.65    2.16
  -3   1  10    6.38    1.81
   3  -1   9   27.70    2.86
   3   1  -9   23.80    3.13
  -3  -1  -9   28.91    3.17
  -3  -1  -9   30.28    3.13
  -3   1   9   22.11    3.09
  -3  -1  -9   25.86    2.74
   3  -1   9   24.90    3.27
  -3   1   9   26.72    3.05
  -3   1   9   24.12    2.92
   3   1  -8    8.70    1.91
  -3   1   8    8.13    1.83
   3  -1   8    7.65    1.68
  -3  -1  -8    7.46    1.78
  -3  -1  -8    7.21    1.68
  -3   1   8   10.49    2.19
   3  -1   8   11.23    2.14
  -3  -1  -8    9.13    1.84
  -3   1   8    8.69    1.97
  -3   1   8   11.53    2.02
   3   1  -7   36.75    3.23
  -3   1   7   37.01    3.34
   3  -1   7   37.24    2.85
   3  -1   7   37.36    2.12
  -3  -1  -7   33.76    3.02
  -3   1   7   36.45    3.53
  -3  -1  -7   31.84    2.84
   3  -1   7   35.65    3.37
  -3  -1  -7   31.32    3.15
  -3   1   7   34.86    3.52
   3   1  -6    2.10    1.35
   3  -1   6    1.62    0.65
  -3  -1  -6    0.38    1.04
   3  -1   6    0.84    0.93
  -3   1   6    2.99    1.72
  -3  -1  -6    3.03    1.09
  -3   1   6    1.02    1.36
   3  -1   6    0.82    1.32
  -3  -1  -6    3.41    1.67
  -3   1   6   -0.49    1.73
  -3   1   5   94.28    5.58
   3  -1   5   97.74    4.21
   3  -1   5   96.03    3.40
  -3  -1  -5   94.23    4.61
  -3   1   5   92.14    5.13
  -3  -1  -5  101.38    4.24
   3  -1   5   92.55    4.92
  -3  -1  -5  105.62    5.80
  -3   1   5   94.05    5.82
   3   1  -5   97.16    4.71
   3   1  -4   16.02    1.85
   3  -1   4   17.36    1.38
  -3  -1  -4   17.40    1.85
  -3  -1  -4   17.00    1.53
   3  -1   4   18.10    1.72
  -3   1   4   20.79    2.89
  -3   1   4   17.56    2.21
   3  -1   4   16.19    1.97
  -3  -1  -4   16.94    2.85
  -3   1   4   16.03    2.76
  -3  -1  -3   23.00    1.87
  -3   1   3   21.86    2.30
  -3  -1  -3   22.56    1.55
  -3   1   3   23.29    3.21
   3  -1   3   21.77    2.16
  -3  -1  -3   24.40    3.10
   3  -1   3   23.91    1.64
  -3   1   3   22.18    3.15
   3  -1   3   22.71    1.86
   3   1  -3   24.15    2.04
   3  -1   2   17.04    1.41
   3  -1   2   19.67    1.71
  -3  -1  -2   16.75    1.50
  -3  -1  -2   16.99    1.09
  -3   1   2   18.15    2.90
  -3   1   2   17.49    1.90
   3  -1   2   16.97    1.86
  -3  -1  -2   19.00    2.93
  -3   1   2   18.68    3.08
   3   1  -2   16.20    1.62
   3  -1   1   90.76    3.52
  -3   1   1   89.65    5.71
   3  -1   1  100.51    3.86
  -3  -1  -1  100.13    3.45
  -3  -1  -1   94.48    2.45
   3   1  -1   95.46    4.18
  -3  -1  -1   98.35    5.98
  -3   1   1   92.01    5.78
   3   1  -1   90.97    3.65
   3   1   0    2.18    0.70
   3  -1   0    3.77    0.91
   3   1   0    2.87    0.94
  -3  -1   0    2.96    0.63
  -3   1   0    2.43    0.49
  -3   1   0    1.87    0.50
  -3   1   0    3.19    1.76
  -3  -1   0    1.84    1.91
  -3   1   0    3.54    2.09
   3   1   1   92.27    3.85
  -3   1  -1   91.56    5.76
  -3  -1   1   94.45    2.93
  -3   1  -1   90.59    3.26
   3   1   1   99.40    3.50
  -3   1  -1   94.51    2.98
  -3  -1   1   95.85    5.85
  -3   1  -1  100.43    6.04
   3  -1  -1   92.84    3.91
   3  -1  -2   16.50    1.67
   3   1   2   18.39    1.69
   3   1   2   17.87    1.49
  -3  -1   2   15.83    1.01
  -3   1  -2   17.11    1.55
  -3   1  -2   17.68    1.30
  -3   1  -2   18.36    2.99
  -3  -1   2   13.73    2.63
  -3   1  -2   20.99    3.01
   3   1   3   22.66    1.65
   3   1   3   22.43    1.80
  -3  -1   3   22.99    1.19
  -3   1  -3   25.28    2.10
  -3   1  -3   21.73    1.63
  -3   1  -3   22.52    3.04
  -3  -1   3   20.14    2.98
  -3   1  -3   25.37    3.21
   3  -1  -3   21.82    2.00
   3  -1  -4   16.14    1.89
   3   1   4   20.45    1.71
   3   1   4   16.89    1.51
  -3  -1   4   16.75    1.06
  -3   1  -4   17.20    1.95
  -3   1  -4   17.28    1.60
  -3   1  -4   16.37    2.55
  -3  -1   4   20.52    2.32
   3   1   4   16.80    2.01
  -3  -1   4   15.84    2.78
  -3   1  -4   16.91    2.79
   3   1   5   99.59    3.89
  -3   1  -5   83.91    5.36
   3   1   5   98.95    3.91
  -3  -1   5   95.36    3.03
  -3   1  -5  104.13    4.99
  -3  -1   5   93.75    5.08
  -3   1  -5   97.89    4.22
   3   1   5   91.72    4.68
  -3  -1   5   94.87    5.73
  -3   1  -5   98.28    5.79
   3  -1  -5   97.79    4.71
   3  -1  -6    2.37    1.17
   3   1   6    1.83    0.81
   3   1   6    2.52    1.05
  -3   1  -6   -1.50    1.53
  -3   1  -6    2.65    1.73
  -3   1  -6    0.19    1.01
  -3  -1   6    2.45    1.53
   3   1   6    3.23    1.50
  -3  -1   6    1.23    1.49
  -3   1  -6    0.06    1.70
   3   1   7   39.21    2.73
   3   1   7   34.02    2.33
  -3   1  -7   35.98    3.27
  -3  -1   7   36.74    3.51
  -3   1  -7   29.21    3.26
  -3   1  -7   33.05    2.83
   3   1   7   37.89    3.27
  -3   1  -7   42.16    3.72
  -3  -1   7   35.90    3.32
  -3  -1   7   31.97    3.35
   3  -1  -7   36.13    3.11
   3  -1  -8   10.82    2.08
   3   1   8    9.79    1.40
   3   1   8    9.39    1.71
  -3   1  -8    9.01    2.00
  -3   1  -8    9.51    2.05
  -3   1  -8    5.21    1.42
  -3  -1   8    5.16    1.82
   3   1   8    8.63    1.93
  -3  -1   8   10.09    2.21
  -3   1  -8   10.95    2.06
  -3  -1   8    7.86    2.12
  -3  -1   9   22.14    3.10
   3   1   9   25.99    2.67
   3   1   9   29.82    2.39
  -3   1  -9   22.63    2.67
  -3  -1   9   18.98    2.93
  -3  -1   9   30.86    3.17
   3   1   9   25.62    3.08
  -3   1  -9   28.49    3.05
   3  -1  -9   27.00    3.17
  -3  -1  10    7.57    2.25
   3   1  10    8.78    1.52
   3   1  10    7.95    1.75
  -3   1 -10    6.22    1.92
  -3  -1  10    6.04    1.91
   3   1  10    5.60    1.89
  -3  -1  10    6.95    1.77
   3  -1 -10    7.76    2.24
  -3   1 -10    9.35    1.91
  -3  -1  11   27.96    3.69
  -3   1 -11   23.32    3.12
  -3  -1  11   25.74    3.41
  -3   1 -11   27.88    2.91
   3   1  11   25.82    3.46
  -3  -1  11   29.02    3.02
   3  -1 -11   29.37    3.76
  -3  -1  12   -0.56    1.64
   3  -1 -12    7.41    2.58
  -3   1 -12    2.95    1.82
  -3  -1  12    4.43    1.83
   3   1  12    2.74    1.88
  -3  -1  13    1.67    1.85
   3  -1 -13    1.11    2.03
  -3   1 -13    5.52    1.86
  -3  -1  13    3.80    2.09
   3   1  13    4.68    1.95
  -3  -1  14   15.75    3.83
   3  -1 -14    8.71    2.60
  -3   1 -14    9.40    2.37
  -3  -1  14   10.52    2.63
   3   1  14   11.52    2.97
  -3  -1  15    6.85    2.72
   3  -1 -15    4.48    2.01
  -3   1 -15    2.74    1.97
  -3  -1  15    8.93    2.55
   3   1  15   10.75    2.73
  -3  -1  16    1.54    2.02
   3  -1 -16    0.35    2.38
  -3   1 -16   -0.73    1.99
  -3  -1  16   -2.95    2.08
   3   1  16   -2.92    2.26
  -3  -1  17   -1.98    2.44
   3  -1 -17    1.21    1.79
  -3   1 -17    2.25    1.82
  -3  -1  17    3.99    2.23
   3   1  17    0.01    1.95
  -3   2  18   -0.35    1.95
  -3   2  17   -0.80    2.07
   3   2 -17    1.38    2.11
  -3  -2 -17    4.52    2.11
  -3   2  16    3.01    2.11
   3   2 -16    6.65    2.43
  -3  -2 -16    8.95    2.55
  -3   2  16    7.38    2.66
   3  -2  16    5.44    2.12
  -3   2  15    4.85    2.20
   3   2 -15    6.30    2.62
  -3  -2 -15    8.19    2.45
  -3  -2 -15    5.46    2.06
  -3   2  15    4.97    2.43
   3  -2  15    6.18    2.31
  -3   2  14   -1.34    2.04
   3   2 -14    0.91    2.08
   3  -2  14    2.46    1.88
  -3  -2 -14   -1.69    1.95
  -3  -2 -14    0.97    1.79
  -3   2  14   -0.30    1.74
   3  -2  14    1.87    2.06
  -3   2  13   26.88    3.74
   3   2 -13   25.63    3.85
   3  -2  13   27.56    3.54
  -3  -2 -13   27.70    3.66
  -3  -2 -13   22.28    3.50
  -3   2  13   28.10    4.17
   3  -2  13   24.42    3.81
  -3   2  12   18.53    3.01
   3   2 -12   15.12    3.01
   3  -2  12   14.53    2.64
  -3  -2 -12   11.69    2.51
  -3  -2 -12   12.99    2.57
  -3   2  12   20.05    3.54
   3  -2  12   13.70    2.89
   3   2 -11    2.01    1.97
   3  -2  11    6.43    1.71
  -3  -2 -11    4.39    1.91
  -3  -2 -11    4.47    1.70
  -3   2  11    6.07    2.26
   3  -2  11    5.77    2.03
  -3  -2 -11    5.19    1.44
  -3   2  11    3.65    1.75
  -3   2  10    5.37    1.72
   3   2 -10    4.06    1.85
   3  -2  10    3.92    1.54
  -3   2  10    4.61    1.49
  -3  -2 -10    5.84    1.95
  -3  -2 -10    5.49    1.81
  -3   2  10    1.50    1.67
   3  -2  10    8.94    2.54
  -3  -2 -10    9.14    1.88
  -3   2  10    5.05    1.82
   3   2  -9   45.83    4.29
   3  -2   9   46.11    3.69
  -3   2   9   44.18    3.55
  -3  -2  -9   45.77    3.83
  -3   2   9   51.38    4.75
  -3  -2  -9   45.10    3.84
   3  -2   9   42.90    4.24
  -3  -2  -9   47.91    3.72
  -3   2   9   56.07    4.46
  -3   2   9   47.92    3.89
   3  -2   8   11.95    1.97
  -3  -2  -8   12.97    2.10
  -3  -2  -8   10.13    1.91
  -3   2   8   12.41    2.13
  -3   2   8   12.14    2.45
   3   2  -8   14.35    2.52
   3  -2   8   10.30    2.16
  -3  -2  -8   12.05    2.02
  -3   2   8   13.74    2.58
   3   2  -7   51.07    4.02
   3  -2   7   51.75    3.48
  -3   2   7   47.87    3.81
  -3  -2  -7   52.87    3.74
  -3   2   7   56.81    4.47
  -3  -2  -7   53.07    3.65
   3  -2   7   54.35    4.35
  -3  -2  -7   52.82    4.02
  -3   2   7   58.58    4.62
   3   2  -6   20.58    2.47
  -3  -2  -6   18.94    2.21
   3  -2   6   18.94    2.06
  -3  -2  -6   20.72    2.11
  -3   2   6   21.38    2.79
  -3   2   6   16.65    2.40
   3  -2   6   17.98    2.53
  -3  -2  -6   19.35    2.71
  -3   2   6   17.08    2.78
   3  -2   5   45.30    2.93
   3  -2   5   44.31    2.00
  -3   2   5   47.66    3.96
  -3  -2  -5   42.39    2.93
  -3   2   5   48.06    3.79
  -3  -2  -5   48.98    2.90
   3  -2   5   51.20    3.74
  -3  -2  -5   52.81    4.27
  -3   2   5   39.05    3.96
   3   2  -5   48.10    3.38
   3   2  -4    8.78    1.46
   3  -2   4    8.27    0.89
  -3  -2  -4    5.95    1.21
  -3  -2  -4    6.24    1.02
   3  -2   4    7.86    1.33
  -3   2   4    6.89    1.67
   3  -2   4    4.52    1.49
  -3   2   4    6.86    2.26
  -3  -2  -4    8.62    2.34
  -3   2   4    7.17    2.24
   3  -2   3   97.42    3.25
  -3   2   3   99.10    5.92
  -3  -2  -3   92.11    3.84
  -3   2   3   95.78    4.67
  -3  -2  -3   94.10    3.27
   3  -2   3   92.25    4.55
  -3  -2  -3   89.35    5.82
  -3   2   3  103.66    6.32
   3  -2   3   93.33    3.99
   3   2  -3   88.88    4.05
   3   2  -2   31.60    2.57
   3  -2   2   28.35    2.14
  -3  -2  -2   24.82    1.83
  -3   2   2   26.29    2.31
  -3  -2  -2   28.52    1.35
   3  -2   2   26.26    2.25
  -3  -2  -2   31.01    3.58
   3  -2   2   25.69    1.62
  -3   2   2   29.85    3.50
  -3   2   2   26.94    3.61
   3   2  -2   28.22    2.11
   3   2  -1   67.28    3.53
  -3   2   1   63.56    4.78
   3  -2   1   69.44    3.30
  -3  -2  -1   68.86    2.86
  -3   2   1   70.47    3.46
  -3  -2  -1   65.67    1.63
   3  -2   1   67.12    3.42
  -3  -2  -1   69.40    5.10
  -3   2   1   64.67    5.07
   3  -2   1   63.42    2.76
   3   2  -1   63.20    2.96
   3   2   0    8.91    1.08
   3   2   0    8.31    1.37
  -3  -2   0   10.00    1.03
  -3   2   0   10.04    0.94
   3  -2   0   10.71    1.35
  -3  -2   0   11.43    2.87
  -3   2   0   10.28    2.41
  -3   2   0   12.18    2.85
  -3   2  -1   60.52    4.75
   3   2   1   69.30    2.71
  -3  -2   1   66.26    2.51
  -3   2  -1   66.31    2.60
  -3  -2   1   56.84    4.66
  -3   2  -1   65.83    5.04
   3   2   1   68.18    3.38
   3   2   1   63.72    2.69
   3   2   2   28.73    2.16
  -3  -2   2   25.09    1.46
  -3   2  -2   28.37    1.73
  -3  -2   2   29.15    3.44
  -3   2  -2   21.84    2.91
  -3   2  -2   28.42    3.49
   3  -2  -2   28.32    2.25
   3   2   2   29.33    1.71
   3   2   3   96.86    3.98
   3   2   3   93.62    3.28
  -3  -2   3   92.30    3.03
  -3   2  -3   96.40    3.64
  -3  -2   3   88.04    5.67
  -3   2  -3   97.32    6.07
  -3   2  -3   83.12    5.43
   3  -2  -3   91.15    4.19
   3  -2  -4    7.55    1.50
   3   2   4    7.07    1.21
  -3  -2   4    5.49    0.76
   3   2   4    7.34    0.99
  -3   2  -4    6.28    1.16
  -3  -2   4    7.77    2.27
  -3   2  -4    9.82    2.29
  -3   2  -4    7.68    2.43
   3   2   5   46.85    2.48
   3   2   5   45.45    2.78
  -3   2  -5   44.51    4.02
  -3  -2   5   49.24    2.25
  -3   2  -5   47.89    2.92
   3   2   5   45.99    3.33
  -3  -2   5   41.95    3.94
  -3   2  -5   47.07    4.15
   3  -2  -5   44.82    3.17
   3   2   6   19.32    1.78
   3  -2  -6   19.97    2.33
   3   2   6   19.87    1.90
  -3   2  -6   19.16    2.14
  -3  -2   6   15.79    2.35
  -3   2  -6   19.01    2.72
   3   2   6   20.37    2.37
  -3  -2   6   17.49    2.68
  -3  -2   6   16.55    2.43
  -3   2  -6   21.95    2.94
   3   2   7   53.74    3.11
   3   2   7   55.03    3.16
  -3  -2   7   48.16    3.96
  -3   2  -7   53.12    3.57
  -3   2  -7   57.05    4.33
   3   2   7   50.42    3.76
  -3  -2   7   51.38    4.22
  -3   2  -7   53.71    4.26
  -3  -2   7   55.92    4.17
   3  -2  -7   52.73    3.79
  -3  -2   8   13.31    2.37
   3  -2  -8   12.59    2.16
   3   2   8   14.41    1.78
   3   2   8   12.51    1.75
  -3   2  -8   13.20    1.98
  -3   2  -8   13.43    2.35
  -3  -2   8   13.16    2.39
   3   2   8   12.95    2.16
  -3  -2   8   12.38    2.19
  -3   2  -8   10.54    2.16
  -3   2  -9   44.75    3.76
   3   2   9   50.14    3.21
  -3  -2   9   40.77    3.97
  -3   2  -9   48.24    3.89
   3   2   9   47.11    4.00
  -3  -2   9   48.19    3.91
  -3   2  -9   41.95    3.67
  -3  -2   9   47.68    4.35
   3  -2  -9   42.76    3.79
  -3  -2  10    5.24    2.30
   3  -2 -10    4.04    1.73
   3   2  10    5.98    1.35
  -3   2 -10    5.21    1.69
  -3   2 -10    7.79    2.00
  -3  -2  10    5.99    1.87
   3   2  10    8.97    2.21
  -3  -2  10    6.82    1.79
  -3  -2  11    6.75    2.49
   3  -2 -11    8.62    2.37
   3   2  11    6.02    1.40
  -3   2 -11    7.87    2.22
  -3  -2  11    3.77    1.95
   3   2  11    6.07    2.22
  -3  -2  11    5.70    1.59
  -3  -2  12   12.17    3.10
   3  -2 -12   14.46    2.80
  -3   2 -12   16.52    2.79
  -3  -2  12    9.27    2.34
   3   2  12   16.01    2.88
  -3  -2  13   22.44    4.00
   3  -2 -13   26.03    3.84
  -3   2 -13   24.54    3.43
  -3  -2  13   23.46    3.43
   3   2  13   27.61    3.80
  -3  -2  14    4.53    2.79
   3  -2 -14    0.21    1.96
  -3   2 -14    0.59    1.84
  -3  -2  14    0.31    1.45
   3   2  14   -0.87    1.54
   3  -2 -15    8.39    3.06
  -3   2 -15    2.71    2.05
  -3  -2  15   10.55    3.21
  -3  -2  15    7.90    2.59
   3   2  15    4.28    2.21
  -3  -2  16    4.96    2.91
   3  -2 -16    6.89    2.79
  -3   2 -16    6.62    2.63
  -3  -2  16    6.78    2.42
   3   2  16    3.88    2.42
  -3   2 -17    1.65    1.87
  -3  -2  17   -2.85    2.46
  -3  -2  17    2.43    1.76
   3   2  17   -1.86    2.15
  -3   3  17   -2.51    2.27
  -3  -3 -17   -0.60    1.87
  -3   3  16   -0.94    2.00
   3   3 -16   -0.13    1.75
  -3  -3 -16    2.27    1.67
  -3  -3 -16    3.22    1.92
  -3   3  16    0.41    1.53
   3  -3  16    2.39    2.24
  -3   3  15    4.50    1.85
   3  -3  15   -0.20    1.81
   3   3 -15    2.16    1.94
  -3  -3 -15   -1.13    2.20
  -3  -3 -15    3.05    2.11
  -3   3  15    3.87    2.31
   3  -3  15    0.90    1.87
  -3   3  14    5.75    2.18
   3   3 -14    7.36    2.75
   3  -3  14    1.56    1.93
  -3  -3 -14    4.41    1.98
  -3  -3 -14    1.65    1.68
  -3   3  14    6.04    2.66
   3  -3  14    4.33    2.32
   3   3 -13   -0.72    2.24
   3  -3  13    2.43    1.83
  -3  -3 -13    0.32    1.44
  -3  -3 -13   -1.23    2.04
  -3   3  13    1.84    2.13
   3  -3  13    3.55    2.01
  -3   3  13    2.43    1.76
   3   3 -12    5.15    2.48
   3  -3  12    8.35    2.37
  -3  -3 -12    6.71    2.07
  -3  -3 -12    9.27    2.48
  -3   3  12    7.41    2.61
   3  -3  12    9.13    2.56
  -3   3  12    4.89    1.98
   3   3 -11    6.71    2.24
   3  -3  11    8.08    2.12
  -3   3  11    6.76    1.60
  -3  -3 -11    6.81    1.98
  -3  -3 -11    7.95    2.22
  -3   3  11    7.07    2.46
   3  -3  11    6.10    2.52
  -3  -3 -11    5.11    1.40
  -3   3  11    6.79    1.79
   3   3 -10    0.91    1.75
   3  -3  10    0.83    1.58
  -3  -3 -10    3.35    1.81
  -3  -3 -10    2.36    1.55
  -3   3  10    2.13    1.23
  -3   3  10    1.68    1.74
   3  -3  10    0.34    1.74
  -3  -3 -10    0.65    1.10
  -3   3  10    3.97    1.57
   3   3  -9   -0.14    1.53
   3  -3   9    1.56    1.25
  -3  -3  -9    1.86    1.41
  -3  -3  -9    0.19    1.16
  -3   3   9    1.86    1.67
  -3   3   9   -0.01    1.21
   3  -3   9    0.89    1.77
  -3  -3  -9    2.03    1.32
  -3   3   8   26.40    3.41
   3   3  -8   28.77    3.39
   3  -3   8   23.88    2.71
  -3  -3  -8   22.62    2.69
  -3  -3  -8   22.21    2.63
  -3   3   8   24.88    3.26
  -3   3   8   24.27    2.78
   3  -3   8   21.73    3.08
  -3  -3  -8   24.08    2.79
  -3   3   7   11.44    2.49
   3   3  -7   11.49    2.37
  -3  -3  -7   11.82    1.88
   3  -3   7   13.55    1.98
  -3  -3  -7   12.61    1.93
  -3   3   7   11.92    2.41
   3  -3   7   14.69    2.59
  -3   3   7   10.88    2.04
  -3  -3  -7   11.09    2.23
   3   3  -6   14.89    2.37
  -3  -3  -6   16.23    2.03
   3  -3   6   17.54    2.14
  -3  -3  -6   13.76    1.77
  -3   3   6   17.38    2.65
   3  -3   6   14.47    2.39
  -3  -3  -6   13.97    2.40
  -3   3   6   15.69    2.47
  -3   3   6   21.47    3.33
   3   3  -5    7.27    1.61
  -3  -3  -5    7.99    1.46
  -3  -3  -5    7.06    1.30
   3  -3   5    9.85    1.65
  -3   3   5   10.65    2.06
   3  -3   5    9.33    1.99
  -3  -3  -5   10.49    2.41
  -3   3   5    8.43    2.18
  -3   3   5    7.61    2.21
  -3   3   4   23.36    3.11
  -3  -3  -4   19.75    1.94
  -3  -3  -4   19.88    1.74
   3  -3   4   20.63    2.07
  -3   3   4   20.92    2.43
   3  -3   4   21.20    2.58
  -3  -3  -4   22.85    3.17
   3  -3   4   22.13    1.20
   3   3  -4   18.68    2.17
  -3   3   4   20.08    3.09
  -3   3   3    7.30    2.38
   3   3  -3   10.66    1.55
   3   3  -3    8.10    1.64
  -3  -3  -3    8.63    1.30
  -3  -3  -3    8.14    0.99
  -3   3   3   11.82    1.72
   3  -3   3    9.22    1.41
   3  -3   3    9.45    1.64
  -3  -3  -3   10.76    2.48
   3  -3   3    8.88    0.86
  -3   3   3    9.59    2.49
   3  -3   2   55.77    2.28
   3  -3   2   55.18    3.10
  -3   3   2   55.71    4.73
  -3  -3  -2   56.31    2.82
  -3   3   2   56.35    3.38
  -3  -3  -2   54.10    1.95
   3  -3   2   62.17    3.67
  -3  -3  -2   59.43    4.95
  -3   3   2   51.79    4.73
   3   3  -2   59.99    3.63
   3   3  -2   58.53    3.05
   3   3  -1    9.18    1.18
  -3   3   1   11.03    2.68
   3  -3   1    9.33    1.02
   3   3  -1    8.85    1.52
  -3  -3  -1    8.83    1.10
  -3   3   1    9.78    1.40
   3  -3   1   11.47    1.50
   3  -3   1    9.28    1.48
  -3  -3  -1   13.10    2.92
  -3   3   1    7.69    2.43
   3   3   0    6.00    0.94
  -3   3   0    1.80    1.91
   3   3   0    5.96    1.33
  -3  -3   0    5.98    0.94
  -3   3   0    5.08    0.83
  -3   3   0    5.19    0.93
   3  -3   0    5.49    1.15
  -3  -3   0    6.70    2.44
   3  -3   0    4.49    1.06
  -3   3   0    7.25    2.50
   3   3   1    9.15    0.98
  -3   3  -1   10.94    2.68
   3   3   1   10.43    0.98
   3   3   1    9.18    1.47
  -3  -3   1    9.66    1.06
  -3   3  -1   10.69    1.13
   3  -3  -1   10.48    1.32
  -3  -3   1    8.53    2.55
  -3   3  -1   15.91    3.05
   3   3   2   55.53    3.16
   3   3   2   57.26    2.24
  -3   3  -2   53.55    4.56
  -3  -3   2   56.15    2.46
  -3   3  -2   53.26    2.59
   3  -3  -2   56.65    2.74
  -3  -3   2   57.37    4.78
  -3   3  -2   60.70    5.03
   3   3   2   56.23    2.29
   3  -3  -3    7.97    1.55
  -3   3  -3    8.02    2.42
  -3  -3   3    8.99    1.04
   3   3   3    8.39    1.40
  -3   3  -3    8.00    1.21
   3  -3  -3    8.93    1.06
  -3  -3   3   12.75    2.92
   3   3   3   10.04    0.98
  -3   3  -3    9.35    2.55
  -3   3  -4   18.58    3.00
   3   3   4   19.76    1.39
   3   3   4   21.79    2.03
  -3  -3   4   19.84    1.52
  -3   3  -4   21.28    1.93
  -3  -3   4   18.89    2.98
   3  -3  -4   22.72    2.25
  -3   3  -4   24.95    3.38
  -3   3  -5    7.34    2.05
   3  -3  -5   10.06    1.70
   3   3   5    8.05    1.36
  -3  -3   5    7.91    1.09
   3   3   5    9.08    1.11
  -3   3  -5    9.51    1.42
  -3  -3   5    3.51    1.83
  -3   3  -5    8.72    2.34
   3  -3  -6   14.13    1.99
   3   3   6   16.08    1.81
  -3   3  -6   16.22    1.94
   3   3   6   17.19    2.23
  -3  -3   6   15.82    2.73
  -3   3  -6   16.15    2.71
  -3  -3   6   15.74    2.43
  -3   3  -6   18.24    2.88
  -3  -3   7   11.75    2.33
  -3   3  -7   10.31    2.27
   3   3   7   12.00    1.69
  -3   3  -7   10.45    1.80
   3   3   7   13.30    2.14
   3  -3  -7   15.45    2.30
  -3  -3   7   10.50    2.13
  -3   3  -7   10.99    2.14
  -3  -3   8   22.40    3.14
   3   3   8   25.87    2.41
  -3   3  -8   25.23    2.65
   3  -3  -8   25.80    2.91
  -3  -3   8   25.06    3.00
   3   3   8   21.83    2.57
  -3   3  -8   19.27    2.68
  -3  -3   8   24.70    2.97
  -3  -3   9    1.20    1.60
   3  -3  -9    0.56    1.31
   3   3   9    1.99    1.11
  -3   3  -9    0.91    1.12
  -3  -3   9    1.75    1.53
  -3   3  -9    2.47    1.55
   3   3   9    1.56    1.49
  -3  -3   9    0.68    1.30
  -3  -3  10    0.65    1.54
   3  -3 -10    1.62    1.47
   3   3  10   -0.37    1.05
  -3   3 -10    0.00    1.50
  -3   3 -10    1.44    1.24
  -3  -3  10    0.68    1.45
   3   3  10    4.12    1.96
  -3  -3  10    3.27    1.50
  -3  -3  11    3.72    2.16
   3  -3 -11    4.98    1.81
   3   3  11    4.81    1.38
  -3   3 -11    5.26    1.66
  -3   3 -11    9.23    2.13
  -3  -3  11    7.37    2.31
   3   3  11   10.18    2.30
  -3  -3  11    6.39    1.67
  -3  -3  12   10.07    3.13
   3  -3 -12    6.24    2.33
  -3   3 -12    9.71    2.42
  -3  -3  12   10.84    2.54
   3   3  12    9.76    2.42
  -3  -3  13    2.19    1.99
   3  -3 -13    2.62    2.22
  -3   3 -13    0.22    1.23
  -3  -3  13    3.14    2.04
   3   3  13    2.60    2.08
  -3  -3  14    1.08    2.65
   3  -3 -14    9.37    3.11
  -3   3 -14    4.36    2.18
  -3  -3  14    2.91    2.01
   3   3  14    2.85    1.88
  -3  -3  15    6.35    2.96
   3  -3 -15    4.21    2.61
  -3   3 -15   -1.15    2.04
  -3  -3  15    3.94    2.36
   3   3  15    5.79    2.60
  -3  -3  16    1.97    2.38
   3  -3 -16    0.42    2.01
  -3   3 -16    0.55    1.96
  -3  -3  16   -0.44    1.97
   3   3  16    4.26    2.70
  -3   3 -17    4.43    2.12
  -3  -4 -17    6.00    2.47
   3  -4  16   -0.42    2.06
   3   4 -16    3.61    2.07
  -3  -4 -16    3.98    2.17
  -3  -4 -16    0.03    2.06
  -3   4  16    5.34    2.43
   3  -4  16    1.64    2.26
   3   4 -15   -0.27    1.67
   3  -4  15   -3.41    2.11
  -3  -4 -15    0.59    1.68
  -3  -4 -15   -0.87    2.14
  -3   4  15   -0.78    1.87
   3  -4  15    3.05    2.15
  -3   4  15    4.48    2.28
   3   4 -14    0.14    1.83
   3  -4  14    0.89    1.82
  -3  -4 -14   -0.89    1.80
  -3  -4 -14    0.29    1.78
  -3   4  14   -0.47    1.50
   3  -4  14    0.42    1.69
  -3   4  14    1.07    1.62
   3   4 -13    5.61    2.64
   3  -4  13    5.27    2.21
  -3  -4 -13    6.11    2.02
  -3   4  13    3.98    2.29
   3  -4  13    6.83    2.25
  -3   4  13    8.34    2.20
   3   4 -12    4.90    2.13
   3  -4  12   10.00    2.56
  -3  -4 -12    9.02    2.33
  -3   4  12    6.01    2.41
   3  -4  12    7.67    2.49
  -3   4  12    9.38    2.20
   3   4 -11    5.41    2.40
   3  -4  11    5.33    1.97
  -3  -4 -11    5.76    1.98
  -3   4  11    2.56    2.10
  -3   4  11    3.34    1.28
   3  -4  11    5.29    2.30
  -3  -4 -11    6.30    1.60
   3  -4  10    5.51    1.84
  -3  -4 -10    8.88    2.10
  -3   4  10    4.96    2.24
   3   4 -10    3.81    2.29
  -3   4  10    5.58    1.40
  -3  -4 -10    5.14    1.58
   3  -4  10    1.25    1.79
   3   4  -9    6.48    2.13
   3  -4   9    5.23    1.63
  -3  -4  -9    5.32    1.62
  -3   4   9    8.09    2.37
  -3  -4  -9    6.95    1.91
  -3   4   9    6.17    1.58
   3  -4   9    5.45    2.06
   3   4  -8    3.80    1.87
  -3  -4  -8    4.06    1.59
   3  -4   8    2.89    1.42
  -3   4   8    5.91    2.17
  -3  -4  -8    5.03    1.54
   3  -4   8    3.35    1.66
  -3   4   8    3.01    1.54
  -3   4   7   21.92    2.87
   3   4  -7   26.29    3.25
  -3  -4  -7   21.32    2.34
   3  -4   7   22.05    2.51
  -3   4   7   24.36    3.25
  -3  -4  -7   24.83    3.04
   3  -4   7   24.15    3.16
  -3  -4  -6   11.70    1.86
   3  -4   6    9.37    1.68
  -3   4   6   10.70    2.31
  -3   4   6    7.13    1.82
   3   4  -6    8.23    1.94
  -3  -4  -6    9.75    2.10
   3  -4   6    7.22    2.03
  -3   4   5    7.64    2.57
   3   4  -5    7.32    1.89
  -3   4   5    5.94    2.05
  -3  -4  -5    2.65    1.13
   3  -4   5    6.22    1.46
  -3   4   5    4.14    1.54
  -3  -4  -5    3.01    1.84
   3  -4   5    3.81    1.84
  -3   4   4   11.18    2.96
   3   4  -4    9.54    1.84
   3   4  -4    8.28    1.66
  -3   4   4    7.36    2.23
  -3  -4  -4    8.91    1.50
  -3  -4  -4   10.78    1.42
   3  -4   4    6.44    1.42
  -3   4   4    6.92    1.66
  -3  -4  -4    9.24    2.49
   3  -4   4   10.99    2.08
   3   4  -3   49.62    3.27
   3   4  -3   41.44    3.17
   3  -4   3   45.70    1.69
   3  -4   3   49.42    3.10
  -3   4   3   51.74    4.74
  -3  -4  -3   46.06    2.79
  -3   4   3   49.92    3.50
  -3  -4  -3   43.75    2.29
  -3  -4  -3   48.75    4.61
   3  -4   3   48.35    3.79
  -3   4   3   47.15    4.80
  -3   4   2   11.21    2.86
   3  -4   2   13.21    0.99
   3   4  -2   15.65    1.77
   3   4  -2   11.48    1.78
  -3   4   2   12.76    2.74
  -3  -4  -2   13.75    1.53
  -3  -4  -2   14.16    1.00
  -3   4   2   14.95    1.86
   3  -4   2   16.40    1.82
  -3  -4  -2   18.11    3.33
   3  -4   2   13.41    2.03
  -3   4   1   24.08    3.83
   3  -4   1   20.11    1.38
   3   4  -1   22.13    2.26
   3  -4   1   22.09    2.05
  -3  -4  -1   23.60    1.84
  -3   4   1   25.77    3.55
  -3   4   1   20.03    1.92
  -3   4   1   21.85    1.60
  -3  -4  -1   21.37    3.37
   3  -4   1   20.50    2.26
   3   4  -1   19.89    1.75
  -3   4   0    8.35    2.94
   3   4   0    8.32    1.04
  -3   4   0    7.44    2.52
  -3  -4   0    7.43    1.08
  -3   4   0    7.30    1.09
  -3   4   0    6.25    0.99
  -3  -4   0    7.44    2.42
   3  -4   0    7.38    1.41
   3  -4   0   10.26    1.57
   3   4   0    6.34    1.42
  -3   4  -1   20.22    3.44
   3   4   1   19.42    2.04
   3   4   1   20.69    1.23
  -3  -4   1   21.52    1.64
  -3   4  -1   14.75    2.82
  -3   4  -1   18.54    1.58
   3  -4  -1   22.94    2.00
  -3  -4   1   20.92    3.52
   3   4   1   21.64    1.44
  -3   4  -2   13.93    2.95
   3   4   2   13.54    0.94
   3   4   2   15.14    1.88
  -3  -4   2   15.12    1.37
  -3   4  -2    8.89    2.58
  -3   4  -2   15.25    1.49
  -3  -4   2   17.51    3.17
   3  -4  -2   13.57    1.43
   3   4   2   12.93    1.01
   3   4   3   46.87    1.80
   3   4   3   40.20    2.82
  -3   4  -3   39.70    4.05
  -3  -4   3   45.59    2.44
  -3   4  -3   45.19    2.65
   3  -4  -3   47.43    2.35
  -3  -4   3   38.25    4.13
  -3   4  -3   47.43    4.66
   3  -4  -3   46.47    3.12
   3   4   3   42.03    1.73
  -3   4  -4    9.59    2.62
   3  -4  -4    7.55    1.57
   3   4   4    9.17    1.50
  -3   4  -4    9.82    2.26
  -3  -4   4    8.98    1.17
  -3   4  -4    7.84    1.33
  -3  -4   4    9.05    2.40
  -3   4  -5    5.63    2.04
   3  -4  -5    5.19    1.50
   3   4   5    5.35    1.28
  -3   4  -5    3.76    1.89
  -3  -4   5    4.71    1.01
  -3   4  -5    4.33    1.08
  -3  -4   5    5.44    1.94
  -3  -4   5    8.31    1.92
   3  -4  -6    9.00    1.66
  -3   4  -6   11.01    2.42
   3   4   6   10.04    1.63
  -3   4  -6    8.84    1.55
  -3  -4   6    8.35    2.29
  -3  -4   6   11.49    2.23
  -3  -4   7   25.58    3.05
  -3   4  -7   18.15    2.72
   3  -4  -7   21.80    2.54
   3   4   7   23.00    2.28
  -3   4  -7   19.03    2.23
   3   4   7   22.59    2.70
  -3  -4   7   24.36    3.09
  -3  -4   8    4.41    1.92
   3  -4  -8    4.87    1.60
   3   4   8    5.00    1.43
  -3   4  -8    3.24    1.39
   3   4   8    5.22    1.58
  -3  -4   8    3.17    1.68
  -3   4  -8    3.59    1.51
  -3  -4   9    4.94    2.14
   3  -4  -9    7.33    2.00
   3   4   9    7.59    1.61
  -3   4  -9    4.63    1.51
   3   4   9    7.07    1.90
  -3  -4   9    7.76    1.99
  -3   4  -9    2.91    1.58
  -3  -4  10    4.18    2.15
   3  -4 -10    7.83    2.13
   3   4  10    3.73    1.32
  -3   4 -10    3.38    1.63
  -3  -4  10    5.57    2.03
   3   4  10    6.19    1.83
  -3   4 -10    6.11    1.67
  -3  -4  10    6.97    1.81
  -3  -4  11    7.88    2.57
   3   4  11    8.08    1.76
  -3   4 -11    5.39    1.85
  -3   4 -11    6.67    1.78
  -3  -4  11    5.49    1.89
   3   4  11    3.33    1.75
  -3  -4  11    4.98    1.63
   3  -4 -11    3.05    1.70
  -3  -4  12    6.97    2.81
   3  -4 -12    9.93    2.41
   3   4  12    6.44    1.67
  -3   4 -12   10.97    2.33
  -3  -4  12    6.52    2.16
   3   4  12   10.85    2.53
  -3  -4  13    4.85    2.90
   3  -4 -13    7.44    2.53
  -3   4 -13    6.93    2.21
  -3  -4  13    6.98    2.19
   3   4  13    4.18    2.02
  -3  -4  14    3.22    2.64
   3  -4 -14   -1.70    2.41
  -3   4 -14   -1.96    1.67
  -3  -4  14   -1.43    1.90
   3   4  14   -0.48    1.94
  -3  -4  15   -6.03    3.82
   3  -4 -15   -0.19    2.21
  -3   4 -15    1.18    1.65
  -3  -4  15    1.95    2.05
   3   4  15   -0.40    2.04
  -3  -4  16    8.63    3.65
   3  -4 -16    8.59    3.06
  -3   4 -16    2.82    1.96
  -3  -4  16    4.92    2.03
   3   4  16    7.34    2.73
   3  -5  17    6.94    2.46
  -3  -5 -17    3.21    2.17
   3  -5  16    0.28    1.95
   3   5 -16    0.22    1.89
  -3  -5 -16    2.09    2.16
  -3  -5 -16    3.28    1.71
  -3   5  16    2.72    2.13
   3  -5  16    7.47    2.85
   3   5 -15    3.91    2.50
   3  -5  15    3.17    2.13
  -3  -5 -15    7.96    2.41
  -3   5  15   12.39    3.02
   3  -5  15    4.84    2.51
   3   5 -14    8.60    2.89
   3  -5  14    7.14    2.70
  -3  -5 -14    8.75    2.64
  -3   5  14    7.46    2.51
   3  -5  14    8.71    2.58
   3   5 -13    5.13    2.14
   3  -5  13    3.83    2.07
  -3  -5 -13    0.73    1.79
  -3   5  13    7.65    2.39
   3  -5  13    8.77    2.77
   3   5 -12    9.63    2.96
   3  -5  12    4.12    1.95
  -3  -5 -12    6.99    1.98
  -3   5  12    5.30    2.40
   3  -5  12    2.97    1.95
  -3   5  11   25.97    2.82
   3   5 -11   31.04    4.06
   3  -5  11   27.50    3.51
  -3  -5 -11   22.54    3.12
  -3   5  11   30.79    4.16
  -3  -5 -11   26.24    2.86
   3  -5  11   27.11    3.85
  -3   5  10   29.66    3.01
   3   5 -10   24.90    3.56
   3  -5  10   23.74    3.08
  -3  -5 -10   27.40    3.26
  -3   5  10   21.02    3.63
  -3  -5 -10   30.45    3.16
   3  -5  10   35.67    4.31
  -3   5   9    8.38    1.91
   3   5  -9    3.05    1.85
   3  -5   9    8.47    1.93
  -3  -5  -9    7.85    1.83
  -3   5   9    6.58    2.33
  -3  -5  -9    6.79    1.72
   3  -5   9    6.82    2.14
  -3   5   8   23.52    2.88
   3   5  -8   21.34    3.28
  -3  -5  -8   20.29    2.50
   3  -5   8   18.79    2.62
  -3   5   8   21.90    3.44
  -3  -5  -8   23.86    3.00
   3  -5   8   24.26    3.47
   3   5  -7   18.22    2.91
  -3   5   7   20.30    2.75
  -3  -5  -7   21.61    2.44
   3  -5   7   21.35    2.64
  -3   5   7   15.91    2.76
  -3  -5  -7   21.12    2.90
   3  -5   7   16.46    2.93
   3   5  -6   18.07    2.42
   3   5  -6   15.69    2.55
  -3   5   6   19.38    2.87
  -3  -5  -6   18.03    2.16
   3  -5   6   21.92    2.49
  -3   5   6   14.68    2.53
  -3  -5  -6   16.20    2.77
   3  -5   6   18.20    2.97
   3   5  -5   47.41    3.90
   3   5  -5   45.76    3.60
   3  -5   5   57.30    3.69
  -3   5   5   55.43    4.58
  -3  -5  -5   48.41    3.23
  -3   5   5   52.71    4.26
  -3  -5  -5   51.31    4.57
   3  -5   5   55.50    4.61
   3   5  -4   78.43    4.70
   3   5  -4   83.35    4.71
   3  -5   4   83.85    4.38
  -3   5   4   88.59    5.96
  -3  -5  -4   85.32    4.12
  -3   5   4   82.00    4.94
   3  -5   4   86.60    5.44
   3   5  -3   10.61    1.96
   3   5  -3   12.25    1.98
  -3  -5  -3    8.74    1.39
  -3   5   3   10.61    2.65
  -3   5   3   10.04    1.91
   3  -5   3   12.18    1.82
   3  -5   3   12.82    2.26
   3   5  -2   24.06    2.31
   3   5  -2   27.42    2.67
   3  -5   2   26.26    2.41
  -3  -5  -2   24.72    2.07
  -3   5   2   28.27    2.53
  -3   5   2   27.84    3.81
   3  -5   2   25.08    2.76
   3   5  -1   39.38    2.71
   3   5  -1   39.71    2.99
  -3  -5  -1   38.95    2.46
  -3   5   1   42.98    2.81
  -3   5   1   41.31    2.38
  -3   5   1   36.70    4.29
   3  -5   1   39.35    3.17
   3  -5   1   40.83    2.82
   3   5   0   96.17    3.77
   3   5   0   84.57    4.37
   3  -5   0   89.45    4.21
  -3   5   0   84.08    6.13
  -3  -5   0   82.58    3.59
  -3   5   0   96.56    3.86
  -3   5   0   92.34    3.68
   3  -5   0   78.77    4.24
   3   5   1   38.14    2.95
   3   5   1   40.41    1.57
   3  -5  -1   35.54    2.64
  -3  -5   1   38.88    2.34
  -3   5  -1   40.32    2.08
  -3   5  -1   40.33    2.41
  -3   5  -1   33.37    3.97
   3  -5  -1   38.98    2.69
   3   5   2   25.69    2.43
  -3  -5   2   25.37    1.90
  -3   5  -2   27.60    2.10
  -3   5  -2   26.77    3.80
   3  -5  -2   22.87    1.87
   3  -5  -3    9.68    1.65
   3   5   3   11.25    1.68
  -3  -5   3    9.77    1.27
  -3   5  -3   11.18    2.61
  -3   5  -3   10.58    1.50
   3   5   4   81.19    4.24
  -3   5  -4   81.66    5.83
  -3  -5   4   83.71    3.63
  -3   5  -4   85.91    4.09
   3  -5  -4   89.33    4.57
   3   5   5   53.58    3.44
  -3   5  -5   47.16    4.33
  -3  -5   5   50.82    2.90
  -3   5  -5   52.84    3.31
  -3  -5   5   51.48    3.88
   3  -5  -5   52.55    3.54
   3  -5  -6   20.14    2.39
   3   5   6   17.29    2.07
  -3   5  -6   17.96    2.85
  -3   5  -6   15.69    2.04
  -3  -5   6   18.78    3.04
  -3  -5   6   18.60    2.61
  -3  -5   7   20.03    2.95
   3  -5  -7   20.56    2.55
   3   5   7   21.13    2.37
  -3   5  -7   17.12    2.77
  -3   5  -7   19.74    2.35
  -3  -5   7   19.61    2.90
  -3  -5   8   21.52    3.12
   3  -5  -8   20.84    2.65
  -3   5  -8   24.22    3.14
   3   5   8   19.14    2.26
  -3   5  -8   19.05    2.48
   3   5   8   24.81    2.84
  -3  -5   8   20.90    2.95
  -3  -5   9    9.63    2.78
  -3   5  -9    6.22    1.80
   3  -5  -9    7.57    2.08
   3   5   9    8.27    1.87
  -3   5  -9    6.32    1.71
   3   5   9    9.29    1.94
  -3  -5   9    9.08    2.06
  -3  -5  10   24.95    3.83
   3  -5 -10   27.74    3.27
   3   5  10   30.06    3.02
  -3   5 -10   28.62    3.16
   3   5  10   31.11    3.38
  -3  -5  10   27.89    3.18
  -3   5 -10   25.65    3.05
  -3  -5  11   24.24    4.14
   3  -5 -11   24.84    3.24
  -3   5 -11   30.06    3.22
   3   5  11   27.97    3.04
  -3   5 -11   26.45    3.18
   3   5  11   29.09    3.33
  -3  -5  11   25.40    2.96
  -3  -5  12    8.90    3.18
   3  -5 -12    3.25    1.72
   3   5  12    2.86    1.39
  -3   5 -12    5.96    2.03
   3   5  12    5.61    1.92
  -3  -5  13    2.35    2.11
   3  -5 -13    1.20    1.95
  -3   5 -13    0.76    1.54
   3   5  13    0.41    1.79
  -3  -5  14    7.75    3.30
   3  -5 -14    8.22    2.80
  -3   5 -14    7.17    2.39
   3   5  14    8.90    2.63
  -3  -5  15    8.74    3.52
   3  -5 -15    6.11    2.80
  -3   5 -15    7.12    2.10
   3   5  15    7.37    2.69
  -3  -5  16    8.83    3.51
   3  -5 -16    3.87    2.54
  -3   5 -16    2.91    1.96
   3   5  16    2.69    2.29
   3  -6  17    3.42    2.39
   3  -6  16   11.37    3.05
   3   6 -16    9.09    3.04
  -3  -6 -16    7.58    2.77
   3   6 -15    2.52    2.07
   3  -6  15    6.67    2.50
  -3   6  15    6.83    2.56
   3  -6  15    7.45    2.68
   3   6 -14    5.80    2.80
   3  -6  14    8.63    2.53
  -3  -6 -14    5.55    1.99
  -3   6  14    1.11    1.85
   3  -6  14    2.89    2.18
   3   6 -13   -1.02    1.66
   3  -6  13   -0.50    2.06
  -3  -6 -13    2.25    1.72
  -3   6  13    0.42    1.84
   3  -6  13    0.39    1.84
   3   6 -12    4.21    2.41
   3  -6  12    9.53    2.60
  -3  -6 -12    9.99    2.49
  -3   6  12    8.28    2.47
   3  -6  12    5.78    2.39
   3   6 -11    2.17    2.00
   3  -6  11   -3.03    2.06
  -3  -6 -11    1.15    1.55
  -3   6  11    0.15    2.05
  -3  -6 -11    2.09    1.34
   3  -6  11    3.01    1.87
  -3   6  10   29.92    3.13
   3   6 -10   35.00    4.08
  -3  -6 -10   38.19    3.66
   3  -6  10   29.12    3.37
  -3   6  10   37.53    4.67
  -3  -6 -10   31.91    3.29
   3  -6  10   36.14    4.38
  -3   6   9    2.04    1.25
   3   6  -9    1.95    1.91
   3  -6   9    2.56    1.49
  -3  -6  -9    2.98    1.37
  -3   6   9    1.65    1.97
  -3  -6  -9    2.12    1.33
   3  -6   9    2.57    2.09
   3   6  -8   10.26    2.71
  -3   6   8    6.17    1.72
  -3  -6  -8    9.10    1.87
   3  -6   8    7.43    2.02
  -3   6   8    6.91    2.50
  -3  -6  -8    1.01    1.63
   3  -6   8    8.86    2.46
   3   6  -7    5.49    1.84
   3   6  -7    1.10    1.67
  -3   6   7    1.97    1.44
  -3  -6  -7    3.13    1.26
   3  -6   7    1.98    1.29
  -3   6   7    6.49    2.33
   3  -6   7    1.28    1.75
   3   6  -6   36.61    3.77
   3   6  -6   36.68    3.34
   3  -6   6   40.97    3.41
  -3   6   6   36.75    3.90
  -3  -6  -6   36.44    3.01
  -3   6   6   35.72    3.97
   3  -6   6   37.01    4.13
   3   6  -5    3.63    1.50
   3   6  -5    1.43    1.23
  -3  -6  -5    2.14    1.05
   3  -6   5    2.22    1.35
  -3   6   5    2.20    1.43
  -3   6   5    3.47    1.85
   3  -6   5    3.61    1.87
   3   6  -4   58.97    4.09
   3   6  -4   63.29    4.19
   3  -6   4   67.91    4.03
  -3   6   4   63.17    5.12
  -3  -6  -4   67.49    3.70
  -3   6   4   65.23    4.61
   3  -6   4   60.82    4.68
   3   6  -3    1.43    1.21
   3   6  -3    2.80    1.28
  -3  -6  -3    2.12    0.99
  -3   6   3    1.10    1.12
   3  -6   3    3.95    1.44
  -3   6   3    0.17    2.09
   3  -6   3    1.67    1.28
   3   6  -2   20.44    2.39
   3   6  -2   16.96    1.91
  -3  -6  -2   18.94    1.92
  -3   6   2   20.09    2.24
   3  -6   2   19.38    2.17
  -3   6   2   17.61    3.41
   3  -6   2   19.10    2.56
   3   6  -1    5.89    1.55
  -3  -6  -1    4.05    1.07
  -3   6   1    3.91    1.09
  -3   6   1    3.98    0.91
   3  -6   1    4.34    1.31
   3  -6   1    2.45    1.22
   3   6   0   91.57    4.77
  -3   6   0   85.85    6.45
  -3  -6   0   88.98    3.91
  -3   6   0  100.83    4.06
  -3   6   0   93.46    3.96
   3  -6   0   98.84    4.59
   3  -6   0   90.38    4.52
   3   6   1    2.86    1.26
  -3  -6   1    4.93    1.00
  -3   6  -1    2.60    0.66
  -3   6  -1    2.55    0.92
   3  -6  -1    4.93    1.32
   3  -6  -1    2.96    0.85
  -3   6  -1    4.03    2.41
   3   6   2   20.99    2.33
  -3  -6   2   19.44    1.79
  -3   6  -2   21.09    1.97
  -3   6  -2   18.28    3.33
   3   6   3    0.89    1.12
  -3  -6   3    2.80    1.00
  -3   6  -3    2.50    1.07
  -3   6  -3    4.23    2.40
   3   6   4   63.62    3.89
  -3   6  -4   66.29    5.51
  -3  -6   4   62.17    3.29
  -3   6  -4   67.43    3.73
   3  -6  -4   68.90    4.11
   3  -6  -5    4.75    1.57
   3   6   5    3.65    1.37
  -3  -6   5    1.41    0.90
  -3   6  -5    2.71    1.28
  -3   6  -5    3.30    2.02
  -3  -6   5    1.88    1.21
   3   6   6   44.32    3.33
  -3  -6   6   41.33    2.83
  -3   6  -6   39.31    3.16
  -3   6  -6   37.92    4.14
  -3  -6   6   41.67    3.75
   3  -6  -6   37.61    3.15
  -3  -6   7    2.93    1.59
   3  -6  -7    4.13    1.45
   3   6   7    2.52    1.28
  -3   6  -7    2.32    1.60
  -3   6  -7    1.82    1.32
  -3  -6   8    7.67    2.21
   3  -6  -8    7.20    1.78
  -3   6  -8    6.32    1.90
   3   6   8    6.53    1.61
  -3   6  -8    5.55    1.56
   3   6   8    6.49    1.67
  -3  -6   8    9.09    2.17
  -3  -6   9    0.72    1.45
   3  -6  -9    1.13    1.26
   3   6   9    0.98    1.16
  -3   6  -9    2.54    1.81
  -3   6  -9    0.29    1.52
   3   6   9   -0.22    1.22
  -3  -6   9    0.91    1.42
  -3  -6  10   34.79    4.49
   3  -6 -10   31.68    3.56
   3   6  10   41.18    3.59
  -3   6 -10   23.71    3.09
  -3   6 -10   31.85    3.43
   3   6  10   34.27    3.54
  -3  -6  10   32.78    3.60
  -3   6 -11    0.65    1.27
  -3  -6  11    5.96    2.60
   3  -6 -11    0.98    1.43
   3   6  11    1.35    1.52
  -3   6 -11   -1.08    1.66
   3   6  11    1.61    1.54
  -3  -6  11    1.32    1.46
  -3  -6  12    3.52    2.35
   3  -6 -12   13.26    2.88
   3   6  12    7.94    1.97
  -3   6 -12    7.36    2.02
   3   6  12    8.97    2.21
  -3  -6  13    1.36    2.42
   3  -6 -13    2.06    1.93
   3   6  13    2.10    1.35
  -3   6 -13    2.76    1.82
   3   6  13    1.08    1.71
  -3  -6  14    3.73    3.08
   3  -6 -14    4.11    2.03
  -3   6 -14    3.44    2.08
   3   6  14    6.99    2.20
  -3  -6  15   -0.95    2.34
  -3   6 -15    1.77    1.57
   3   6  15    4.93    2.05
   3  -6 -15    0.88    1.94
  -3   6 -16    6.37    2.28
   3   6  16    9.39    2.61
   3  -7  16    2.77    1.95
   3   7 -16   -3.55    2.34
   3   7 -15    7.01    2.73
   3  -7  15    3.56    2.49
  -3  -7 -15    1.99    2.14
  -3   7  15    2.60    1.92
   3  -7  15    2.28    1.90
   3   7 -14    4.00    2.17
   3  -7  14   -2.23    2.34
  -3  -7 -14   -1.04    1.96
  -3   7  14    0.53    1.73
   3  -7  14    3.18    2.41
   3   7 -13   -1.24    1.95
   3  -7  13    2.35    1.97
  -3  -7 -13    2.90    1.69
  -3   7  13    0.78    1.65
   3  -7  13   -0.13    2.01
   3   7 -12    1.91    1.95
   3  -7  12    5.10    2.55
  -3  -7 -12    1.36    1.41
  -3   7  12    1.81    1.92
   3  -7  12    0.29    1.69
   3   7 -11    6.35    2.41
   3  -7  11    3.57    2.29
  -3  -7 -11    7.56    2.00
  -3   7  11    9.47    2.84
  -3  -7 -11    4.89    1.67
   3  -7  11   10.92    2.66
  -3   7  10   -0.66    1.40
   3   7 -10   -2.06    1.95
   3  -7  10   -1.08    1.89
  -3  -7 -10   -1.54    1.55
  -3   7  10   -0.72    2.25
  -3  -7 -10   -0.05    1.28
   3  -7  10   -1.00    1.71
   3   7  -9   -2.10    1.89
  -3   7   9   -0.74    1.33
  -3  -7  -9    2.33    1.61
   3  -7   9    0.68    1.73
  -3   7   9    1.41    2.05
   3   7  -9    0.47    1.50
  -3  -7  -9   -0.50    1.49
   3  -7   9    2.50    1.81
   3   7  -8    4.84    1.85
   3   7  -8    3.58    2.12
  -3  -7  -8    5.67    1.54
   3  -7   8    1.66    1.56
  -3   7   8    3.69    1.86
  -3   7   8    2.34    1.84
   3  -7   8    4.72    2.28
   3   7  -7   18.30    2.64
   3   7  -7   27.85    3.33
  -3  -7  -7   24.23    2.68
   3  -7   7   22.42    2.79
  -3   7   7   25.87    3.62
  -3   7   7   20.78    3.08
   3  -7   7   21.42    3.49
   3   7  -6    4.24    1.69
   3   7  -6    2.56    1.41
  -3  -7  -6    2.16    1.26
   3  -7   6    1.31    1.45
  -3   7   6    0.42    1.57
  -3   7   6    3.60    1.73
   3  -7   6    2.82    1.79
   3   7  -5    0.00    1.24
   3   7  -5   -0.93    1.35
  -3  -7  -5    0.27    1.15
   3  -7   5   -0.25    1.11
  -3   7   5    3.47    1.93
   3  -7   5    0.75    1.74
  -3   7   5    2.05    2.04
  -3   7   4   10.07    2.79
   3   7  -4    6.30    1.76
   3   7  -4    4.31    1.35
  -3  -7  -4    6.53    1.49
  -3   7   4    4.42    1.58
   3  -7   4    5.08    1.47
   3  -7   4    6.20    1.99
  -3   7   3   11.28    2.92
   3   7  -3   14.37    2.31
  -3  -7  -3   13.71    1.77
  -3   7   3   12.64    2.13
   3  -7   3   15.50    2.16
   3  -7   3   13.19    2.28
   3   7  -2    6.73    1.76
  -3   7   2    3.50    2.59
  -3  -7  -2    3.15    1.10
  -3   7   2    3.79    1.20
   3  -7   2    3.16    1.26
   3  -7   2    2.40    1.22
   3   7  -1    9.09    1.90
  -3   7   1    7.31    2.85
  -3  -7  -1    8.62    1.39
  -3   7   1    7.81    1.35
  -3   7   1    9.33    1.39
   3  -7   1    7.58    1.61
   3  -7   1    7.33    1.50
   3   7   0   -0.16    1.20
  -3   7   0   -0.19    2.23
  -3  -7   0    0.32    0.78
  -3   7   0    1.06    0.66
  -3   7   0   -0.21    0.81
   3  -7   0    0.19    0.92
   3  -7   0    0.28    0.85
   3   7   1   10.00    1.76
  -3   7  -1    8.68    2.95
  -3  -7   1    7.84    1.34
  -3   7  -1   10.00    1.45
   3  -7  -1    9.09    1.57
   3   7   2    4.05    1.39
  -3   7  -2    3.37    2.14
  -3  -7   2    3.84    1.14
  -3   7  -2    3.39    1.04
   3  -7  -2    3.95    1.37
  -3   7  -3   10.92    2.94
   3   7   3   12.07    1.87
  -3  -7   3   16.45    1.85
  -3   7  -3   13.93    1.77
   3  -7  -4    4.88    1.43
  -3   7  -4    6.94    2.30
   3   7   4    3.48    1.45
  -3  -7   4    5.86    1.23
  -3   7  -4    4.84    1.38
   3  -7  -5   -0.80    1.15
   3   7   5   -0.47    1.21
  -3  -7   5    0.76    0.92
  -3   7  -5   -1.04    1.17
  -3  -7   5   -0.14    1.18
  -3   7  -5   -0.03    1.68
   3  -7  -6    5.48    1.72
   3   7   6    4.76    1.50
  -3  -7   6    1.99    1.11
  -3   7  -6    3.00    1.27
  -3   7  -6    2.12    1.65
  -3  -7   6    2.50    1.48
  -3  -7   7   25.90    3.26
   3  -7  -7   22.62    2.74
   3   7   7   29.61    2.99
  -3   7  -7   21.35    2.54
  -3   7  -7   21.39    3.27
  -3  -7   8    4.25    2.11
   3  -7  -8    6.04    1.94
   3   7   8    2.90    1.36
  -3   7  -8    3.51    1.97
  -3   7  -8    5.89    1.86
  -3  -7   9    1.45    1.47
   3  -7  -9   -0.34    1.44
   3   7   9    0.59    1.32
  -3   7  -9    0.72    1.63
  -3   7  -9   -2.33    1.53
   3   7   9    1.36    1.22
  -3  -7  10    1.29    2.11
   3  -7 -10    1.02    1.46
   3   7  10    0.95    1.40
  -3   7 -10   -0.51    1.35
  -3   7 -10    2.63    1.68
   3   7  10    0.12    1.40
  -3  -7  10    0.67    1.29
  -3  -7  11   11.84    3.32
   3  -7 -11    8.42    2.35
   3   7  11   10.59    2.22
  -3   7 -11    8.99    2.36
   3   7  11    6.11    1.80
  -3  -7  11    7.90    1.95
  -3  -7  12    0.11    2.30
   3  -7 -12    4.80    1.96
   3   7  12   -1.73    1.76
  -3   7 -12   -0.95    1.87
   3   7  12    1.41    1.81
  -3  -7  13    1.71    2.45
   3  -7 -13   -0.56    2.00
   3   7  13    2.80    1.64
  -3   7 -13   -1.06    1.80
   3   7  13    2.27    1.55
  -3  -7  14   -0.63    2.53
   3  -7 -14   -1.87    2.27
  -3   7 -14    2.73    1.93
   3   7  14    1.02    1.77
  -3  -7  15    6.08    2.82
  -3   7 -15    3.06    1.90
   3  -7 -15    4.38    2.23
   3   7  15    6.47    2.56
   3   8 -16   -3.13    2.54
   3  -8  15   -1.42    2.49
   3   8 -15    8.79    2.93
  -3  -8 -15    5.52    2.70
   3  -8  15    5.20    2.22
   3   8 -14   -2.29    2.37
   3  -8  14    2.89    1.99
  -3  -8 -14    2.69    1.99
  -3   8  14    4.42    1.99
   3  -8  14    5.83    2.19
   3   8 -13    7.42    2.41
   3   8 -13    9.13    2.57
   3  -8  13   16.00    3.34
  -3  -8 -13    8.67    2.42
  -3   8  13    5.38    2.17
   3  -8  13   11.44    2.92
   3   8 -12    3.60    1.84
   3   8 -12    3.31    2.15
   3  -8  12    5.72    2.35
  -3  -8 -12    6.29    1.93
  -3   8  12    2.42    1.76
   3  -8  12    5.62    2.47
   3   8 -11    2.01    1.87
   3   8 -11    2.39    2.23
   3  -8  11    0.38    1.55
  -3  -8 -11    1.93    1.81
  -3   8  11   -1.11    2.24
   3  -8  11   -2.21    2.03
   3   8 -10    4.50    1.97
  -3   8  10   10.45    2.28
   3  -8  10   11.82    2.65
  -3  -8 -10    7.91    2.05
  -3   8  10    7.93    2.67
   3   8 -10    7.23    2.15
   3  -8  10    6.21    2.34
   3   8  -9   11.62    2.29
   3   8  -9   15.07    2.83
  -3  -8  -9   13.31    2.24
   3  -8   9   16.73    2.75
  -3   8   9   13.78    2.57
  -3   8   9   17.27    3.33
   3  -8   9   13.53    3.29
   3   8  -8   18.99    2.90
   3   8  -8   11.46    2.32
  -3  -8  -8   15.07    2.35
   3  -8   8   13.49    2.54
  -3   8   8   17.62    3.64
  -3   8   8   18.44    3.02
   3  -8   8   15.68    3.05
   3   8  -7    5.12    1.78
   3   8  -7    3.99    1.65
  -3  -8  -7    4.06    1.45
   3  -8   7    6.34    1.77
  -3   8   7    4.47    2.08
  -3   8   7    4.12    2.00
   3  -8   7    4.26    2.15
  -3   8   6   20.50    3.09
   3   8  -6   16.69    2.46
  -3  -8  -6   21.37    2.53
   3  -8   6   21.55    2.80
  -3   8   6   17.07    3.27
   3  -8   6   20.29    3.15
   3   8  -5    5.58    1.79
  -3   8   5    2.12    1.88
  -3  -8  -5    4.36    1.45
   3  -8   5    6.04    1.76
  -3   8   5    4.70    1.87
   3  -8   5    7.38    1.95
   3   8  -4   21.61    2.71
  -3   8   4   25.19    3.93
  -3  -8  -4   19.43    2.20
  -3   8   4   20.64    3.04
   3  -8   4   16.06    2.27
   3  -8   4   18.40    2.64
   3   8  -3   21.78    2.63
  -3  -8  -3   20.49    2.19
  -3   8   3   22.59    3.86
  -3   8   3   20.01    2.63
   3  -8   3   23.28    2.62
   3  -8   3   23.41    2.74
   3   8  -2   20.34    2.64
  -3  -8  -2   20.53    2.09
  -3   8   2   17.78    3.53
  -3   8   2   20.12    2.46
   3  -8   2   22.60    2.51
   3  -8   2   23.14    2.55
   3   8  -1    7.13    1.84
  -3  -8  -1    7.05    1.40
  -3   8   1    6.73    2.96
  -3   8   1    5.26    1.30
   3  -8   1    3.49    1.32
  -3   8   1    4.95    1.16
   3   8   0   27.76    2.88
  -3  -8   0   33.00    2.56
  -3   8   0   29.91    4.76
  -3   8   0   30.24    2.45
   3  -8   0   31.83    2.78
   3   8   1    6.00    1.46
  -3  -8   1    4.82    1.25
  -3   8  -1    2.49    2.53
  -3   8  -1    6.28    1.35
   3  -8  -1    4.93    1.39
   3   8   2   22.66    2.50
  -3  -8   2   20.25    2.04
  -3   8  -2   17.57    3.50
  -3   8  -2   19.93    2.10
   3  -8  -2   20.96    2.33
   3   8   3   21.00    2.53
  -3  -8   3   19.84    2.07
  -3   8  -3   25.49    4.04
  -3   8  -3   22.62    2.35
   3  -8  -3   22.89    2.42
   3  -8  -4   19.28    2.43
   3   8   4   19.66    2.40
  -3   8  -4   17.06    3.28
  -3  -8   4   17.31    2.01
  -3   8  -4   18.57    2.23
   3  -8  -5    4.19    1.56
   3   8   5    5.74    1.72
  -3   8  -5    5.59    2.10
  -3  -8   5    5.95    1.45
  -3   8  -5    4.88    1.46
  -3  -8   5    6.28    1.61
   3  -8  -6   22.40    2.67
  -3   8  -6   17.47    3.37
   3   8   6   20.54    2.66
  -3  -8   6   20.25    2.24
  -3   8  -6   19.67    2.40
  -3  -8   6   19.79    2.71
  -3  -8   7    5.49    1.99
   3  -8  -7    8.03    2.02
   3   8   7    4.94    1.61
  -3   8  -7    3.31    1.49
  -3   8  -7    4.12    2.11
  -3  -8   8   15.03    2.70
   3  -8  -8   21.78    2.85
   3   8   8   12.51    2.21
  -3   8  -8   17.92    2.60
  -3   8  -8   16.45    3.20
  -3  -8   9   13.58    2.72
   3  -8  -9   13.10    2.42
   3   8   9   17.81    2.66
  -3   8  -9   17.14    2.60
  -3   8  -9   17.02    2.93
   3   8   9   13.53    2.39
  -3  -8  10   11.77    3.23
   3  -8 -10    9.88    2.14
   3   8  10    9.97    2.17
  -3   8 -10    5.65    2.12
  -3   8 -10    9.53    2.30
   3   8  10    6.20    1.81
  -3  -8  11    2.11    2.37
   3  -8 -11   -0.37    1.81
   3   8  11    2.73    1.57
  -3   8 -11   -0.20    1.24
   3   8  11   -2.41    1.96
  -3  -8  11    2.24    1.68
  -3  -8  12    3.08    2.59
   3  -8 -12    4.99    1.90
   3   8  12    4.17    1.76
  -3   8 -12    4.95    1.95
   3   8  12    5.46    1.78
  -3  -8  13    7.72    3.10
   3   8  13   10.20    2.27
  -3   8 -13    6.28    2.09
   3   8  13    8.71    2.35
   3  -8 -13    8.46    2.47
  -3  -8  14    4.36    2.82
   3   8  14    4.36    1.67
  -3   8 -14    4.89    1.97
   3   8  14    7.45    2.34
   3  -8 -14    3.87    2.51
  -3   8 -15    7.78    2.65
   3   8  15    4.82    1.99
   3   9 -15   -3.19    2.16
   3   9 -14    8.93    2.49
   3   9 -14    8.94    2.65
   3  -9  14   11.59    3.19
  -3  -9 -14    9.86    2.52
  -3   9  14   11.85    3.16
   3  -9  14    8.22    2.85
   3   9 -13    2.51    1.56
   3   9 -13    0.13    2.00
   3  -9  13   -0.72    1.93
  -3  -9 -13    2.27    1.65
  -3   9  13    6.45    2.68
   3  -9  13    0.15    2.19
   3   9 -12    7.67    2.19
   3   9 -12   13.91    2.89
   3  -9  12   13.50    3.25
  -3  -9 -12    9.12    2.21
  -3   9  12   11.23    3.07
   3  -9  12   12.28    3.35
   3   9 -11    4.04    1.84
   3   9 -11    4.19    2.16
   3  -9  11    5.71    2.23
  -3  -9 -11    2.30    1.52
  -3   9  11    4.65    2.37
   3  -9  11    2.16    1.91
   3   9 -10    6.46    2.05
   3   9 -10    8.98    2.47
   3  -9  10    8.18    2.19
  -3  -9 -10    9.67    2.27
  -3   9  10    6.18    2.34
  -3   9  10    8.39    2.16
   3  -9  10   11.00    2.96
   3   9  -9   -0.15    1.49
  -3  -9  -9    0.99    1.35
   3  -9   9    0.49    1.72
  -3   9   9    2.47    2.16
  -3   9   9    0.10    1.21
   3  -9   9   -1.98    1.90
   3  -9   8   42.37    4.19
   3   9  -8   40.15    3.95
  -3  -9  -8   36.15    3.41
  -3   9   8   44.07    5.13
   3  -9   8   32.52    4.21
  -3   9   8   32.81    3.79
   3   9  -7   10.96    2.36
  -3   9   7   11.57    2.58
  -3  -9  -7   12.93    2.15
   3  -9   7   12.24    2.47
  -3   9   7   11.93    3.16
   3  -9   7    9.41    2.47
   3   9  -6   12.30    2.39
  -3   9   6   15.54    3.20
  -3  -9  -6   18.90    2.46
   3  -9   6   18.17    2.68
  -3   9   6   13.70    3.06
   3  -9   6   16.42    2.73
  -3   9   5   -0.93    1.96
  -3  -9  -5    1.27    1.22
   3  -9   5    0.09    1.33
  -3   9   5   -1.54    1.94
   3  -9   5    0.64    1.46
   3   9  -5    0.52    1.21
   3   9  -4   43.03    3.77
   3  -9   4   46.89    3.81
  -3  -9  -4   43.27    3.27
  -3   9   4   36.52    4.10
  -3   9   4   43.12    5.04
   3  -9   4   48.44    4.06
   3   9  -3    6.94    1.90
  -3  -9  -3    8.68    1.65
  -3   9   3    8.69    2.00
   3  -9   3    8.36    1.84
  -3   9   3    5.51    2.92
   3  -9   3    8.63    1.87
   3   9  -2   55.39    4.16
   3  -9   2   56.80    3.92
  -3  -9  -2   53.17    3.50
  -3   9   2   53.28    4.13
  -3   9   2   45.80    5.42
   3   9  -1   10.78    2.03
  -3  -9  -1    9.37    1.75
   3  -9   1    7.27    1.69
  -3   9   1    6.47    1.35
  -3   9   1    3.66    2.91
   3   9   0   20.61    2.62
  -3  -9   0   19.01    2.19
  -3   9   0   17.28    2.01
   3  -9   0   16.66    2.12
  -3   9   0   19.73    4.34
   3   9   1   12.47    2.16
  -3  -9   1    5.09    1.35
  -3   9  -1    8.21    1.55
   3  -9  -1    9.37    1.84
  -3   9  -1   13.69    3.74
   3   9   2   55.05    3.95
  -3  -9   2   50.36    3.36
   3  -9  -2   52.76    3.69
  -3   9  -2   52.49    3.45
  -3   9  -2   56.34    6.40
   3   9   3    9.79    2.08
  -3  -9   3   10.50    1.67
  -3   9  -3    8.65    1.64
  -3   9  -3    7.29    2.94
   3  -9  -3   12.47    2.04
   3   9   4   46.30    3.71
   3  -9  -4   41.40    3.28
  -3  -9   4   42.36    3.13
  -3   9  -4   43.03    3.31
  -3   9  -4   40.08    5.20
   3  -9  -4   43.66    3.58
   3  -9  -5    0.56    1.23
   3   9   5   -1.19    1.53
  -3  -9   5    1.70    1.19
  -3   9  -5    0.49    2.16
  -3   9  -5   -0.58    1.18
  -3  -9   5    2.25    1.49
   3  -9  -6   13.68    2.24
   3   9   6   14.58    2.47
  -3  -9   6   16.85    2.24
  -3   9  -6   15.35    3.17
  -3   9  -6   13.89    2.17
  -3  -9   6   14.33    2.41
  -3  -9   7    9.74    2.21
   3  -9  -7    9.96    2.21
  -3   9  -7    8.40    2.50
   3   9   7   10.48    2.15
  -3  -9   7   11.64    1.93
  -3   9  -7    9.18    2.05
   3   9   8   39.79    3.78
  -3   9  -8   41.21    4.71
  -3   9  -8   33.96    3.37
  -3  -9   8   35.09    3.93
   3  -9  -8   36.99    3.62
  -3  -9   9    4.43    2.35
   3  -9  -9    2.98    1.64
   3   9   9    3.99    1.78
  -3   9  -9   -0.47    1.51
  -3   9  -9    0.21    1.69
  -3  -9  10    4.97    2.23
   3  -9 -10    5.90    2.08
   3   9  10    8.86    2.13
  -3   9 -10   11.31    2.23
  -3   9 -10   10.68    2.45
   3   9  10    9.14    2.21
  -3  -9  11    3.02    2.41
   3  -9 -11    0.92    1.76
   3   9  11    1.65    1.70
  -3   9 -11   -0.45    1.69
   3   9  11    4.16    1.74
  -3  -9  12    5.22    2.52
   3  -9 -12   16.91    3.01
   3   9  12   12.16    2.80
  -3   9 -12   12.03    2.45
   3   9  12   10.85    2.43
  -3  -9  13   -0.53    2.25
   3  -9 -13    0.89    1.94
   3   9  13    2.37    1.90
  -3   9 -13    3.35    1.77
   3   9  13    0.17    1.46
  -3  -9  14    9.65    3.26
   3  -9 -14    8.21    2.75
   3   9  14    9.65    2.32
   3   9  14   11.48    2.35
  -3   9 -14    7.26    2.16
   3   9  14   16.05    3.11
   3 -10  14    1.68    2.17
   3  10 -13    2.15    2.02
   3 -10  13    6.09    2.97
  -3 -10 -13    8.69    2.76
  -3  10  13    4.58    2.22
   3 -10  13    3.64    2.11
   3  10 -12   -0.33    1.58
   3 -10  12    4.07    2.13
  -3 -10 -12    5.82    2.30
  -3  10  12    4.30    2.03
   3 -10  12    6.43    2.85
   3  10 -11   -2.68    1.89
   3 -10  11    1.98    2.13
  -3 -10 -11    0.17    1.70
  -3  10  11   -1.14    1.92
   3 -10  11    1.93    1.91
   3  10 -10    0.49    1.59
   3 -10  10   -0.06    1.68
  -3 -10 -10    0.67    1.27
  -3  10  10   -1.83    2.32
  -3  10  10    3.54    1.66
   3 -10  10   -2.22    2.19
   3  10  -9    5.09    1.71
  -3 -10  -9    3.35    1.64
   3 -10   9    5.37    2.15
  -3  10   9    9.08    3.03
   3 -10   9    5.16    2.33
  -3  10   9    8.20    2.48
   3  10  -8    2.01    1.59
  -3  10   8    7.16    2.34
  -3 -10  -8    4.42    1.70
   3 -10   8    6.30    2.29
  -3  10   8    4.82    2.16
   3 -10   8    3.44    2.09
   3  10  -7    7.82    2.13
  -3  10   7    8.75    2.56
  -3 -10  -7    7.69    1.93
   3 -10   7    7.09    2.01
  -3  10   7    7.85    2.88
   3 -10   7    7.96    2.33
   3  10  -6    4.04    1.70
  -3 -10  -6    6.61    1.77
  -3  10   6    5.31    2.41
   3 -10   6    7.95    1.99
  -3  10   6   10.79    2.98
   3 -10   6    5.80    2.08
   3  10  -5    5.78    1.85
  -3 -10  -5    7.17    1.78
   3 -10   5    7.58    1.97
  -3  10   5    8.35    2.59
  -3  10   5   10.13    3.18
   3 -10   5    5.24    1.90
   3  10  -4    3.84    1.64
  -3 -10  -4    4.96    1.59
  -3  10   4    3.71    1.98
   3 -10   4    5.84    1.90
  -3  10   4    0.38    2.29
   3 -10   4    3.25    1.39
   3  10  -3   13.28    2.50
  -3 -10  -3   13.69    1.95
  -3  10   3   12.68    2.47
   3 -10   3   12.34    2.24
  -3  10   3   12.94    3.76
  -3  10   2    7.61    3.02
   3  10  -2   11.66    2.36
  -3 -10  -2    9.98    1.72
   3 -10   2   11.81    2.07
  -3  10   1    5.39    3.57
   3  10  -1    8.59    2.01
  -3 -10  -1    6.74    1.45
   3 -10   1    6.93    1.63
  -3  10   0    0.93    2.94
   3  10   0    1.54    1.37
  -3 -10   0    0.98    1.07
   3 -10   0   -0.83    1.42
  -3  10   0   -0.30    1.04
  -3  10  -1    7.28    3.39
   3  10   1    5.27    1.63
  -3 -10   1    6.93    1.46
  -3  10  -1    5.94    1.33
   3 -10  -1    9.16    1.87
  -3  10  -2    5.81    3.12
   3  10   2   12.00    2.29
  -3 -10   2    9.84    1.74
  -3  10  -2    9.12    1.64
   3 -10  -2   10.57    1.93
   3  10   3   10.35    2.06
  -3 -10   3   11.44    1.85
  -3  10  -3   14.68    2.12
   3 -10  -3   12.49    1.94
  -3  10  -3   11.35    3.15
   3 -10  -4    4.51    1.69
   3  10   4    4.46    1.61
  -3 -10   4    2.17    1.18
  -3  10  -4    2.94    1.40
   3 -10  -4    1.08    1.06
  -3  10  -4   -0.03    2.54
   3 -10  -5    3.69    1.50
   3  10   5    5.42    1.73
  -3 -10   5    5.24    1.47
  -3  10  -5    7.38    1.75
  -3  10  -5    6.55    3.04
   3 -10  -5    4.68    1.52
  -3 -10   5    7.55    1.81
   3 -10  -6    4.18    1.44
   3  10   6    8.17    2.11
  -3 -10   6    4.61    1.44
  -3  10  -6    5.08    2.50
  -3  10  -6    6.85    1.73
  -3 -10   6    5.26    1.76
  -3 -10   7    9.10    2.37
   3 -10  -7    8.38    1.86
   3  10   7    8.27    2.03
  -3 -10   7    9.52    1.86
  -3  10  -7   12.11    3.17
  -3  10  -7    9.33    2.08
  -3 -10   8    5.98    2.20
   3 -10  -8    5.02    1.86
   3  10   8    6.49    1.99
  -3  10  -8    2.16    2.13
  -3 -10   8    3.45    1.61
  -3  10  -8    2.04    1.19
  -3 -10   9    8.97    2.56
   3 -10  -9    8.07    2.23
  -3  10  -9    8.05    2.80
   3  10   9    7.05    1.92
  -3  10  -9    2.91    1.66
  -3 -10  10    2.49    2.32
   3 -10 -10   -0.23    1.38
   3  10  10    1.08    1.44
  -3  10 -10    1.86    1.26
   3  10  10    2.02    1.74
  -3  10 -10    0.17    1.85
  -3 -10  11    1.96    2.50
   3 -10 -11   -0.45    1.91
   3  10  11   -0.04    1.77
  -3  10 -11    2.25    1.89
   3  10  11    2.37    1.45
  -3 -10  12    6.59    3.09
   3 -10 -12    0.43    1.37
   3  10  12    4.03    2.14
  -3  10 -12    1.84    1.54
   3  10  12    5.91    2.22
   3 -10 -13    4.53    2.36
  -3 -10  13    2.71    2.33
   3  10  13    3.62    1.85
  -3  10 -13    2.13    1.61
   3  10  13    4.35    1.86
   3  10  14    2.20    2.06
   3  10  14    0.82    1.66
   3  10  14   -2.80    2.21
   3  10  15   -1.22    1.37
   3  11 -13   -2.57    1.75
  -3  11  13   -1.92    1.82
   3 -11  13   -0.34    2.12
   3  11 -12   -1.24    1.90
   3 -11  12    6.03    2.54
  -3 -11 -12    4.58    1.91
  -3  11  12    1.11    1.96
   3 -11  12   -0.57    1.99
   3  11 -11    3.21    1.87
   3 -11  11    5.30    2.60
  -3 -11 -11    4.44    1.74
  -3  11  11    4.57    2.08
   3 -11  11    0.51    1.76
   3  11 -10    1.00    1.25
   3 -11  10    3.64    2.26
  -3 -11 -10    1.67    1.61
  -3  11  10    0.85    1.55
   3 -11  10    2.95    2.07
  -3  11  10    4.04    1.95
   3  11  -9    2.34    1.89
  -3  11   9   -0.35    1.61
  -3 -11  -9    0.27    1.59
   3 -11   9    1.62    1.90
  -3  11   9   -3.63    2.57
   3 -11   9   -0.88    1.64
   3  11  -8    4.67    1.95
  -3  11   8    4.23    2.29
  -3 -11  -8    6.43    1.93
   3 -11   8    2.41    1.84
  -3  11   8    5.26    2.61
   3 -11   8    5.68    2.24
   3  11  -7    3.11    1.50
  -3 -11  -7    5.01    1.78
   3 -11   7    1.51    1.77
  -3  11   7    5.12    2.41
  -3  11   7    4.00    2.35
   3 -11   7    0.93    1.57
   3  11  -6    8.51    2.17
  -3 -11  -6    4.60    1.58
   3 -11   6    4.96    1.79
  -3  11   6    8.38    2.97
  -3  11   6    8.95    2.76
   3 -11   6    6.47    2.02
   3  11  -5   11.07    2.34
  -3 -11  -5    7.30    1.88
   3 -11   5    8.87    2.12
  -3  11   5    4.77    2.23
  -3  11   5    3.84    2.61
  -3  11   4    5.74    2.85
   3  11  -4    6.83    1.96
  -3 -11  -4    5.36    1.49
  -3  11   4    7.12    2.39
   3 -11   4    4.27    1.84
   3  11  -3    1.21    1.61
  -3  11   3    3.71    2.64
  -3 -11  -3    2.57    1.41
   3 -11   3    2.87    1.33
   3  11  -2   13.36    2.48
  -3 -11  -2   12.79    2.01
  -3  11   2   13.51    4.00
   3 -11   2   14.09    2.34
   3  11  -1   11.41    2.48
  -3 -11  -1    9.86    1.81
  -3  11   1    8.53    3.48
   3 -11   1    8.01    1.83
   3  11   0   -0.68    1.57
  -3 -11   0    0.65    1.14
  -3  11   0    0.04    2.86
   3 -11   0   -0.58    1.34
  -3  11   0    1.04    1.18
   3  11   1    8.46    1.95
  -3 -11   1    7.01    1.72
  -3  11  -1    7.71    1.58
   3 -11  -1    8.31    1.73
   3  11   2   16.20    2.62
  -3 -11   2   11.45    1.81
  -3  11  -2   10.10    3.63
  -3  11  -2   13.11    2.05
   3 -11  -2    9.98    1.95
   3  11   3    3.56    1.43
  -3  11  -3    6.07    3.82
  -3 -11   3    1.35    1.22
  -3  11  -3    3.02    1.54
   3 -11  -3   -0.15    1.25
   3 -11  -4    5.15    1.81
   3  11   4    6.65    2.04
  -3  11  -4    5.83    2.90
  -3 -11   4    6.46    1.76
  -3  11  -4    6.53    1.67
   3 -11  -4    8.39    1.84
   3 -11  -5    6.73    1.69
   3  11   5   10.39    2.24
  -3 -11   5    5.88    1.65
  -3  11  -5    7.75    1.89
   3 -11  -5    6.31    1.58
  -3 -11   5    8.21    1.89
  -3  11  -5    2.79    2.28
   3 -11  -6    7.83    1.91
   3  11   6    6.08    2.03
  -3 -11   6    7.22    1.87
  -3  11  -6    5.71    1.65
   3 -11  -6    6.64    1.78
  -3  11  -6    8.02    2.96
  -3 -11   6    7.13    1.77
  -3 -11   7    2.71    1.66
   3 -11  -7    3.75    1.61
   3  11   7    3.12    1.91
  -3 -11   7    3.53    1.69
  -3  11  -7    2.03    2.42
  -3  11  -7    2.35    1.68
  -3 -11   8    5.07    2.12
   3 -11  -8    7.56    1.90
   3  11   8    8.97    2.16
  -3 -11   8    5.43    1.66
  -3  11  -8    2.41    1.79
  -3  11  -8    3.44    1.55
  -3 -11   9   -1.17    1.68
   3 -11  -9    0.48    1.27
   3  11   9    1.27    1.84
  -3  11  -9    2.61    2.57
  -3  11  -9    0.24    1.40
  -3 -11  10   -1.04    1.77
  -3  11 -10   -0.81    1.84
   3 -11 -10    0.07    1.77
   3  11  10    0.13    1.50
  -3  11 -10    3.55    1.80
   3  11  10   -1.08    1.52
  -3 -11  11    3.51    2.06
   3 -11 -11    2.19    1.53
   3  11  11    3.49    1.84
  -3  11 -11    6.03    2.32
   3  11  11    7.07    2.05
  -3 -11  12    2.87    2.26
   3 -11 -12   -0.52    1.93
   3  11  12    3.86    2.09
  -3  11 -12    2.20    1.84
   3  11  12    2.35    1.78
   3  11  13    1.45    1.95
   3  11  13   -1.39    1.67
   3  11  14    0.69    1.51
   3  12 -12    6.14    2.05
   3 -12  12    2.77    1.83
   3 -12  11    3.90    2.14
  -3 -12 -11    2.52    1.74
  -3  12  11   -0.70    1.97
   3  12 -11    5.02    2.05
   3 -12  11    0.38    1.53
  -3  12  10    6.78    2.23
   3  12 -10    2.62    1.87
   3 -12  10    5.86    2.61
  -3 -12 -10    6.20    2.14
  -3  12  10   12.25    3.03
   3 -12  10    5.96    2.20
   3  12  -9    4.54    1.86
  -3  12   9   10.64    2.71
  -3 -12  -9    6.99    2.05
   3 -12   9    9.44    2.76
  -3  12   9    7.71    2.62
   3 -12   9    5.77    2.41
   3  12  -8   -1.53    1.76
  -3 -12  -8   -1.47    1.60
   3 -12   8    0.01    1.36
  -3  12   8    0.61    2.04
  -3  12   8    0.11    1.97
   3 -12   8   -1.03    1.49
   3  12  -7   -1.76    1.82
  -3 -12  -7    0.42    1.22
   3 -12   7   -2.17    2.15
  -3  12   7    0.35    2.06
  -3  12   7   -0.17    1.99
   3 -12   7   -2.34    1.48
   3  12  -6   22.45    3.20
  -3 -12  -6   23.91    3.05
   3 -12   6   23.77    3.25
  -3  12   6   22.45    4.19
  -3  12   6   21.08    4.12
  -3  12   5   20.15    4.18
   3  12  -5   17.79    2.97
  -3 -12  -5   15.11    2.31
   3 -12   5   15.39    2.81
  -3  12   5   13.24    3.50
   3  12  -4    6.30    1.84
  -3  12   4    3.77    2.77
  -3 -12  -4    4.34    1.65
   3 -12   4    2.24    1.59
   3  12  -3    6.88    2.08
  -3 -12  -3    5.78    1.55
   3 -12   3    9.75    2.33
  -3  12   3    1.66    2.77
   3  12  -2    3.29    1.81
  -3 -12  -2    4.61    1.59
   3 -12   2    5.03    1.81
  -3  12   2    7.14    3.27
   3  12  -1   15.30    2.56
  -3 -12  -1   19.99    2.41
   3 -12   1   17.99    2.60
  -3  12   1   16.78    4.60
   3  12   0   12.88    2.37
  -3 -12   0   13.63    2.17
   3 -12   0   15.49    2.54
  -3  12   0   16.02    2.21
  -3  12   0   12.29    4.78
   3  12   1   18.41    2.81
  -3 -12   1   16.33    2.22
   3 -12  -1   20.04    2.68
  -3  12  -1   20.38    2.54
  -3  12  -1   19.64    5.17
   3  12   2    4.40    1.94
  -3 -12   2    2.62    1.27
  -3  12  -2    5.96    1.63
   3 -12  -2    5.17    1.62
  -3  12  -2    2.64    2.90
   3  12   3   10.11    2.44
  -3 -12   3    5.83    1.67
  -3  12  -3    6.24    1.83
  -3  12  -3    9.13    3.90
   3 -12  -3    9.23    1.96
   3 -12  -4    4.33    1.76
   3  12   4    3.32    1.60
  -3 -12   4    7.19    1.88
  -3  12  -4    5.18    3.04
  -3  12  -4    6.62    1.92
   3 -12  -4    3.09    1.60
   3 -12  -5   15.42    2.38
   3  12   5   12.52    2.46
  -3  12  -5   10.65    3.43
  -3 -12   5   16.93    2.56
  -3  12  -5   14.39    2.42
   3 -12  -5   13.88    2.20
  -3  12  -6   25.81    4.70
   3 -12  -6   22.35    2.99
   3  12   6   20.01    2.92
  -3 -12   6   21.49    2.79
  -3  12  -6   25.06    3.19
   3 -12  -6   20.99    2.78
  -3 -12   6   20.42    2.73
   3 -12  -7    0.28    1.42
  -3 -12   7    0.36    1.52
  -3  12  -7   -2.82    1.51
   3 -12  -7   -2.89    1.68
  -3  12  -7   -1.74    2.06
  -3 -12   7    0.08    1.54
  -3 -12   8    1.33    1.75
   3 -12  -8    0.11    1.15
   3  12   8    2.00    1.85
  -3 -12   8    0.65    1.29
  -3  12  -8    0.94    1.44
  -3 -12   9   10.30    2.58
   3 -12  -9    8.79    2.30
   3  12   9    7.70    2.27
  -3 -12   9    5.36    1.95
  -3  12  -9   10.49    3.06
  -3  12  -9    8.90    2.10
  -3 -12  10    4.81    2.27
   3 -12 -10    6.23    2.09
  -3  12 -10    5.69    2.22
   3  12  10    9.69    2.59
  -3  12 -10    7.54    2.07
  -3 -12  11    1.74    1.54
   3 -12 -11    5.25    2.20
   3  12  11    4.31    1.82
  -3  12 -11   -1.84    2.23
   3  12  11    0.46    1.79
  -3 -12  12    8.59    2.67
   3  12  12   11.34    2.85
   3  12  12    8.55    2.16
   3 -13  12    3.89    2.27
   3  13 -11    2.06    1.82
  -3  13  11    3.82    2.03
   3 -13  11    1.75    1.72
   3  13 -10    1.88    1.76
  -3  13  10    1.23    1.46
   3 -13  10   -1.84    2.14
  -3 -13 -10   -2.25    1.56
  -3  13  10   -0.57    1.75
   3 -13  10    0.42    1.68
   3  13  -9    5.28    2.10
  -3 -13  -9    6.46    2.23
  -3  13   9    2.67    1.90
   3 -13   9    6.83    2.46
  -3  13   9    4.42    2.36
   3 -13   9    2.93    1.94
   3  13  -8    3.70    1.78
  -3 -13  -8    0.69    1.68
   3 -13   8    1.92    1.90
  -3  13   8   -1.42    2.61
  -3  13   8    1.16    1.80
   3  13  -7    1.80    1.87
  -3 -13  -7    3.03    1.67
   3 -13   7    4.12    2.47
  -3  13   7    0.49    1.88
  -3  13   7   -0.93    2.63
  -3  13   6    3.96    2.86
   3  13  -6    1.36    1.90
  -3 -13  -6    2.91    1.45
   3 -13   6   -0.66    1.89
  -3  13   6    2.14    2.52
   3  13  -5   15.79    2.84
  -3 -13  -5   20.85    2.76
  -3  13   5   18.86    4.18
   3 -13   5   23.65    3.21
   3  13  -4    2.85    1.61
  -3 -13  -4    4.18    1.76
   3 -13   4    5.37    2.07
  -3  13   4    3.55    3.06
   3  13  -3    1.48    1.79
  -3 -13  -3    3.93    1.42
   3 -13   3    6.71    2.22
  -3  13   3   -1.72    3.48
  -3  13   2    5.68    3.21
   3  13  -2    3.30    1.54
  -3 -13  -2    4.23    1.74
   3 -13   2    4.45    1.65
   3  13  -1   17.84    2.92
  -3  13   1   22.78    5.22
  -3 -13  -1   19.03    2.49
   3 -13   1   15.84    2.53
   3  13   0    1.66    1.81
  -3 -13   0    0.81    1.04
   3 -13   0    2.07    1.45
   3  13   1   19.74    3.08
  -3  13  -1   12.71    5.11
  -3 -13   1   17.16    2.44
   3 -13  -1   19.56    2.66
  -3  13  -1   18.95    2.51
  -3  13  -2   -0.22    2.82
   3  13   2    3.78    1.91
  -3 -13   2    3.99    1.70
   3 -13  -2    1.85    1.45
  -3  13  -2    8.26    1.95
  -3  13  -3   -0.26    3.20
   3  13   3    5.69    2.21
  -3 -13   3    1.63    1.47
  -3  13  -3    2.61    1.64
   3 -13  -3    3.12    1.30
   3 -13  -4    3.33    1.62
   3  13   4    0.40    1.62
  -3 -13   4    2.60    1.62
  -3  13  -4    5.32    1.92
   3 -13  -4    0.63    1.44
  -3  13  -4   -2.11    3.08
   3 -13  -5   19.24    2.77
   3  13   5   22.86    3.16
  -3 -13   5   23.11    2.80
  -3  13  -5   23.58    4.82
  -3  13  -5   20.80    2.88
   3 -13  -5   17.78    2.57
   3 -13  -6    0.49    1.19
   3  13   6    2.47    1.72
  -3  13  -6   -1.41    2.75
  -3 -13   6    2.88    1.73
  -3  13  -6    3.21    1.63
   3 -13  -6   -0.69    1.45
  -3 -13   6    0.65    1.27
  -3  13  -7   -0.27    2.60
   3 -13  -7    4.20    1.92
   3  13   7    2.69    1.85
  -3 -13   7    3.48    1.47
  -3  13  -7    4.66    1.99
   3 -13  -7   -0.64    1.56
  -3 -13   7    2.71    1.68
  -3 -13   8   -0.21    1.58
   3 -13  -8   -0.13    1.22
   3  13   8    0.96    1.83
  -3 -13   8   -1.55    1.83
  -3  13  -8    1.18    1.67
  -3  13  -8    0.27    2.37
   3 -13  -8    2.98    1.63
  -3 -13   9   -1.25    1.75
   3 -13  -9    4.82    2.01
   3  13   9    6.02    1.98
  -3 -13   9    7.57    2.33
  -3  13  -9    3.22    2.01
  -3  13  -9    6.53    2.10
   3 -13  -9    6.13    1.89
  -3 -13  10    0.17    1.84
   3 -13 -10    0.11    1.20
   3  13  10    1.90    1.99
  -3 -13  10   -3.42    1.80
  -3  13 -10   -1.23    1.74
  -3  13 -10   -0.24    1.36
  -3 -13  11    8.45    2.81
  -3 -13  11    4.91    2.19
   3  13  11    6.24    1.88
  -3  14  10    3.91    2.59
   3  14  -9   -1.17    1.86
  -3  14   9   -2.36    2.61
  -3  14   9    2.65    2.08
   3  14  -8    1.10    1.72
  -3 -14  -8    1.08    1.42
   3 -14   8    7.51    2.58
  -3  14   8    2.01    2.11
  -3  14   8    1.05    1.96
  -3  14   7   -2.10    2.30
   3  14  -7   -1.29    1.56
  -3 -14  -7   -1.57    1.36
   3 -14   7   -1.21    2.08
   3  14  -6    2.86    1.77
  -3  14   6   -0.76    2.90
  -3 -14  -6    3.35    1.70
   3 -14   6    3.79    2.24
   3  14  -5    0.77    1.73
  -3 -14  -5    1.02    1.51
   3 -14   5    0.32    1.96
  -3  14   5    3.72    3.11
   3  14  -4    2.82    1.66
  -3 -14  -4    4.39    1.80
   3 -14   4    0.32    1.51
  -3  14   4    3.03    2.95
  -3  14   3    1.75    2.69
   3  14  -3    0.24    1.43
  -3 -14  -3    0.62    1.17
   3 -14   3    2.15    1.49
   3  14  -2    4.18    2.05
  -3 -14  -2    4.80    1.67
   3 -14   2    4.03    1.56
   3  14  -1   -1.31    1.71
  -3 -14  -1    0.20    1.39
   3 -14   1   -0.05    1.22
   3  14   0   -2.04    1.82
  -3 -14   0    0.61    1.49
   3 -14   0    1.21    1.33
  -3  14   0   -0.28    3.29
   3  14   1    3.39    2.08
  -3 -14   1    1.78    1.68
   3 -14  -1   -0.45    1.38
  -3  14  -1   -0.74    1.22
  -3  14  -1   -0.88    3.01
   3  14   2    6.61    2.35
  -3 -14   2    7.13    1.93
   3 -14  -2    5.62    2.05
  -3  14  -2   11.27    4.64
  -3  14  -2    6.11    1.94
   3  14   3    0.45    1.76
  -3 -14   3    1.63    1.53
   3 -14  -3   -1.53    1.38
  -3  14  -3    2.37    1.72
   3 -14  -4   -1.28    1.56
  -3  14  -4   -1.72    2.93
   3  14   4    2.37    2.00
  -3 -14   4    0.58    1.10
  -3  14  -4    2.78    1.50
   3 -14  -4    0.30    1.22
   3 -14  -5   -0.14    1.47
   3  14   5    0.17    1.97
  -3 -14   5    2.82    1.69
  -3  14  -5    1.90    1.44
   3 -14  -5   -1.98    1.52
  -3  14  -5   -1.18    2.83
   3 -14  -6    3.83    1.71
   3  14   6    4.35    2.24
  -3 -14   6    7.06    1.92
  -3  14  -6    2.35    2.43
  -3  14  -6    2.61    1.58
   3 -14  -6    6.33    2.03
   3 -14  -7    0.14    1.39
  -3  14  -7    3.36    2.50
   3  14   7    3.25    2.15
  -3 -14   7   -3.71    1.97
  -3  14  -7   -3.35    2.08
   3 -14  -7    0.28    1.57
   3 -14  -8    2.99    1.78
   3  14   8   -0.88    1.84
  -3 -14   8    2.46    2.05
  -3  14  -8    0.06    1.74
   3 -14  -8    1.68    1.50
  -3  14  -8    2.31    2.72
  -3 -14   8   -1.01    1.53
  -3 -14   9   -1.73    1.69
   3 -14  -9   -2.61    1.80
  -3 -14   9   -0.72    1.82
  -3  14  -9   -2.15    2.34
   3 -14  -9    0.15    1.23
  -3 -14  10    2.84    1.90
  -3  15   9    5.15    2.59
  -3  15   8    1.59    2.10
   3  15  -7    1.57    1.39
  -3  15   7    3.88    3.10
   3  15  -6   -1.25    1.89
  -3 -15  -6    1.51    1.60
  -3  15   6    2.66    2.02
   3 -15   6    2.83    1.89
   3  15  -5    0.40    1.72
  -3 -15  -5    5.72    2.12
   3 -15   5   -2.14    2.05
  -3  15   5    3.74    2.49
  -3  15   4   11.85    4.05
   3  15  -4    8.31    2.29
  -3 -15  -4   11.04    2.48
   3 -15   4    6.36    2.20
   3  15  -3    5.85    1.91
  -3 -15  -3    9.66    2.26
   3 -15   3   10.34    2.44
   3  15  -2    0.78    1.84
  -3 -15  -2    4.92    1.82
   3 -15   2    3.99    1.81
  -3  15   2    6.68    3.72
  -3  15   1    5.00    4.73
   3  15  -1    8.09    2.48
  -3 -15  -1    6.90    2.01
   3 -15   1    3.78    1.62
   3  15   0    1.85    1.85
  -3 -15   0    4.69    1.89
   3 -15   0    1.51    1.53
   3  15   1    4.14    1.82
  -3  15  -1    6.53    4.81
  -3 -15   1    6.47    2.03
   3 -15  -1    6.95    2.16
  -3  15  -2   -3.07    4.38
   3  15   2   -0.14    1.84
  -3 -15   2    2.35    1.43
   3 -15  -2    3.17    1.56
  -3  15  -2    3.10    1.66
   3  15   3    6.33    2.50
  -3 -15   3    7.97    1.97
   3 -15  -3    6.87    2.00
  -3  15  -3    9.43    2.24
  -3  15  -3    7.91    4.48
   3 -15  -4    5.05    1.75
   3  15   4   12.65    2.87
  -3 -15   4   11.18    2.45
   3 -15  -4    6.53    1.82
  -3  15  -4   10.22    2.15
   3 -15  -5    4.91    2.03
   3  15   5    2.72    1.77
  -3 -15   5   -0.92    1.41
  -3  15  -5   -0.91    1.87
   3 -15  -5    1.36    1.44
  -3  15  -5    3.04    3.28
   3 -15  -6    2.05    1.70
   3  15   6    2.07    1.61
  -3 -15   6    0.00    1.63
  -3  15  -6    5.29    3.48
  -3  15  -6    0.13    1.52
   3 -15  -6    0.75    1.55
   3 -15  -7    1.29    1.34
  -3  15  -7    8.28    3.79
  -3 -15   7    2.97    1.99
   3 -15  -7    4.56    1.90
  -3  15  -8    8.19    3.01
  -3  15  -9    2.70    2.61
   3  16  -4    0.80    1.83
   3  16  -3    8.18    2.42
  -3 -16  -3   10.85    2.22
  -3  16   2    2.80    3.41
   3  16  -2    0.69    1.54
  -3 -16  -2    3.03    1.39
   3 -16   2    0.61    1.43
   3  16  -1   -2.30    2.04
  -3 -16  -1    2.19    1.46
   3 -16   1    2.28    1.42
   3  16   0    4.36    2.19
  -3 -16   0    5.90    1.99
   3 -16   0    2.15    1.65
  -3  16   0    6.40    4.28
   3  16   1    3.99    2.13
  -3 -16   1    0.77    1.69
  -3  16  -1   -1.48    4.73
   3 -16  -1    5.33    1.83
   3  16   2   -1.74    2.09
  -3  16  -2   -1.92    4.52
  -3 -16   2    1.39    1.51
   3 -16  -2   -3.26    1.99
  -3  16  -2    6.03    2.18
  -3 -16   3    7.39    2.25
   3 -16  -3   10.07    2.18
  -3  16  -3   10.14    2.34
   3 -16  -4    1.97    1.55
  -3 -16   4    3.49    1.81
   3 -16  -4    5.24    1.95
   4   0   0   18.36    1.94
  -4   0   0   18.57    3.19
   4   0   0   16.15    1.72
  -4   0   0   20.52    3.69
   4   0   0   17.88    1.87
   4   0  -1   24.16    2.31
   4   0   1   25.33    2.20
   4   0   1   25.10    2.13
  -4   0   1   21.29    3.61
  -4   0  -1   24.44    3.63
   4   0   1   25.79    2.20
   4   0  -1   24.16    2.24
   4   0  -2    2.11    1.14
   4   0  -2    2.41    1.17
   4   0   2    0.61    0.79
   4   0   2    1.20    0.76
   4   0   2    1.92    1.02
  -4   0   2    1.40    1.98
  -4   0  -2   -0.62    2.34
   4   0  -3    2.35    1.22
   4   0  -3    3.92    1.39
   4   0   3    5.31    1.14
   4   0   3    3.51    1.07
   4   0   3    3.61    1.39
  -4   0   3    5.60    2.30
  -4   0  -3    4.88    2.16
   4   0  -4    5.38    1.50
   4   0   4    5.36    1.27
   4   0   4    3.24    1.48
  -4   0   4    6.19    2.60
  -4   0  -4    5.42    2.68
   4   0   5   30.90    2.52
   4   0   5   30.36    3.09
  -4   0   5   37.05    4.38
  -4   0  -5   33.66    4.13
   4   0  -5   30.27    2.99
   4   0  -6   20.88    2.66
  -4   0   6   17.93    2.70
   4   0   6   15.58    2.43
  -4   0   6   16.45    3.32
  -4   0  -6   16.83    3.00
   4   0  -7    4.30    1.69
  -4   0   7    3.57    1.74
   4   0   7    4.63    1.75
  -4   0   7    2.93    1.75
  -4   0  -7    4.66    2.08
   4   0  -8    4.51    1.66
  -4   0   8   -0.50    1.51
   4   0   8    2.24    1.77
  -4   0   8    4.27    2.30
  -4   0  -8    3.79    1.99
  -4   0  -9   20.57    3.03
  -4   0   9   19.23    3.01
   4   0   9   18.62    2.98
   4   0  -9   20.70    3.03
  -4   0   9   18.83    3.20
  -4   0  -9   14.21    2.63
   4   0 -10    3.51    1.87
  -4   0  10    3.12    1.83
   4   0  10    5.71    2.16
  -4   0  10    3.18    1.82
  -4   0 -10    1.36    1.56
   4   0 -11    5.55    2.34
  -4   0  11    8.06    2.67
   4   0  11    6.94    2.42
   4   0 -12    0.27    1.95
  -4   0  12    0.14    1.54
   4   0  12    2.23    1.97
   4   0 -13    0.09    1.78
  -4   0  13    3.18    2.04
   4   0  13   -1.26    2.05
   4   0 -14    6.83    3.11
  -4   0  14    2.53    2.24
   4   0  14    4.28    2.08
   4   1 -14    0.72    2.02
  -4   1  14    0.29    2.01
   4  -1  14   -2.45    2.27
   4   1 -13    7.04    2.56
  -4   1  13    9.65    2.95
   4  -1  13    7.51    2.67
   4   1 -12   10.48    2.93
  -4  -1 -12   10.02    2.47
  -4   1  12    7.31    2.80
   4  -1  12    7.22    2.34
   4   1 -11    3.56    2.18
  -4  -1 -11    6.03    2.03
  -4   1  11    4.20    2.48
   4  -1  11    3.73    2.12
   4   1 -10    2.43    1.61
  -4  -1 -10   -0.06    1.49
  -4   1  10    1.12    1.89
   4  -1  10   -0.38    1.88
  -4  -1 -10    1.79    1.53
  -4   1  10    0.78    1.77
   4   1  -9    5.71    2.17
  -4  -1  -9    3.20    1.68
  -4   1   9    6.00    1.97
   4  -1   9    4.35    1.91
  -4  -1  -9    5.99    1.96
  -4   1   9    4.48    1.94
   4   1  -8    8.55    2.13
  -4  -1  -8    9.39    2.03
  -4   1   8    5.56    2.06
   4  -1   8    5.97    2.01
  -4  -1  -8    9.56    2.31
  -4   1   8    8.41    2.34
   4   1  -7   31.51    3.43
  -4  -1  -7   29.15    3.15
  -4   1   7   32.39    3.70
   4  -1   7   27.35    3.38
  -4  -1  -7   25.15    3.58
  -4   1   7   31.13    4.10
   4   1  -6    2.69    1.38
   4  -1   6    2.81    1.14
  -4   1   6    5.30    1.84
   4  -1   6    5.52    1.79
  -4  -1  -6    7.45    2.40
  -4   1   6    6.81    2.32
   4   1  -5    1.15    1.06
  -4   1   5    2.44    2.10
   4  -1   5    0.39    0.88
  -4   1   5    1.39    1.33
   4  -1   5    4.48    1.65
  -4  -1  -5    4.40    2.39
  -4   1   5    0.90    2.00
   4   1  -4    2.81    1.29
  -4   1   4    1.59    2.01
   4  -1   4    2.05    0.96
   4  -1   4    1.03    1.10
  -4  -1  -4    3.82    2.33
  -4   1   4    1.03    2.03
   4   1  -3   34.07    3.09
  -4   1   3   31.93    4.21
   4  -1   3   34.64    2.60
   4  -1   3   33.63    3.11
  -4  -1  -3   40.25    4.65
  -4   1   3   29.94    4.02
   4   1  -3   34.31    2.82
   4   1  -2    6.36    1.32
   4   1  -2    7.95    1.64
   4  -1   2    8.76    1.27
  -4   1   2    6.62    2.74
   4  -1   2    7.01    1.24
   4  -1   2    6.36    1.50
  -4  -1  -2    8.06    2.58
  -4   1   2    5.34    2.61
   4   1  -1   21.74    2.32
   4  -1   1   23.25    2.00
   4  -1   1   26.59    2.26
  -4   1   1   22.17    3.71
   4  -1   1   24.59    2.45
  -4  -1  -1   22.86    3.74
  -4   1   1   26.99    4.04
   4   1  -1   22.81    2.12
   4  -1   0    4.10    1.20
   4   1   0    5.87    1.16
   4  -1   0    4.13    1.00
   4   1   0    6.70    1.41
  -4   1   0    2.78    2.15
   4  -1   0    5.94    1.38
   4  -1   0    7.54    1.40
   4   1   0    4.32    0.95
  -4  -1   0    5.78    2.58
  -4   1   0    4.32    2.37
   4  -1  -1   21.74    2.13
   4   1   1   20.06    2.06
   4   1   1   21.35    1.88
  -4   1  -1   21.89    3.54
  -4  -1   1   23.36    3.69
  -4   1  -1   22.89    3.72
   4   1   1   24.20    2.03
   4  -1  -1   21.03    2.13
   4   1   2    8.38    1.30
   4  -1  -2    8.94    1.59
   4  -1  -2    7.62    1.49
   4   1   2    7.89    1.35
  -4   1  -2    7.75    2.22
   4   1   2    8.68    1.28
  -4  -1   2    7.35    2.37
  -4   1  -2    7.17    2.67
   4   1   3   35.04    2.57
   4   1   3   36.37    2.41
  -4   1  -3   37.62    4.48
   4   1   3   30.05    2.92
  -4  -1   3   34.97    4.38
  -4   1  -3   35.62    4.40
   4  -1  -3   34.94    2.87
   4  -1  -4    3.19    1.24
   4   1   4    3.99    1.07
  -4   1  -4    1.75    2.08
   4   1   4    3.61    1.45
  -4  -1   4    3.36    2.02
  -4   1  -4    5.71    2.30
   4  -1  -5    0.08    1.13
   4   1   5    1.80    0.94
  -4   1  -5    0.58    1.94
   4   1   5    2.10    1.49
  -4  -1   5    1.42    1.62
  -4   1  -5   -0.20    1.56
   4  -1  -6    4.42    1.52
  -4   1  -6    6.72    2.47
   4   1   6    4.10    1.67
  -4  -1   6    1.52    1.94
  -4   1  -6    7.67    2.66
   4  -1  -7   30.66    3.26
   4   1   7   26.37    3.14
  -4  -1   7   26.36    3.65
  -4   1  -7   31.60    3.82
   4  -1  -8   10.25    2.27
  -4  -1   8    8.52    2.25
   4   1   8    9.50    2.24
  -4  -1   8   10.99    2.94
  -4   1  -8   11.63    2.84
   4  -1  -9    7.73    2.16
  -4  -1   9    6.60    2.04
   4   1   9    6.06    1.97
  -4  -1   9    7.64    2.48
  -4   1  -9    4.18    2.03
   4  -1 -10    1.80    1.55
  -4   1 -10    1.63    1.38
  -4  -1  10    0.82    1.41
   4   1  10    0.64    1.79
  -4  -1  10    1.62    1.75
  -4   1 -10    0.29    1.37
   4  -1 -11    4.87    2.01
  -4   1 -11    0.40    1.20
  -4  -1  11    3.03    2.00
   4   1  11    4.99    1.94
   4  -1 -12    6.25    2.66
  -4   1 -12    4.70    1.79
  -4  -1  12    6.04    2.26
   4   1  12    2.40    2.17
   4  -1 -13    7.53    2.89
  -4   1 -13    7.36    2.19
  -4  -1  13   10.42    3.09
   4   1  13    6.13    2.26
   4  -1 -14    3.75    2.12
  -4   1 -14    0.30    1.58
  -4  -1  14   -0.65    2.32
   4   1  14    0.43    2.03
  -4  -1  14    4.56    2.76
  -4   1 -15    0.28    1.88
   4   2 -15   -4.37    2.75
   4   2 -14    3.07    1.99
  -4  -2 -14    1.51    1.66
  -4   2  14    8.34    2.81
   4  -2  14    4.70    2.44
   4   2 -13   -2.78    2.44
  -4  -2 -13    3.31    1.78
  -4   2  13    2.44    2.19
   4  -2  13    2.66    2.33
   4   2 -12    0.74    2.26
  -4  -2 -12    2.94    1.78
  -4   2  12    0.72    1.66
   4  -2  12   -1.64    1.68
   4   2 -11    6.25    2.37
  -4  -2 -11    6.75    2.00
  -4   2  11    3.15    1.77
   4  -2  11    7.72    2.38
  -4   2  10   14.36    3.17
   4   2 -10    7.26    2.47
  -4  -2 -10    4.45    1.78
  -4   2  10    8.63    2.63
   4  -2  10    9.79    2.60
  -4  -2 -10    9.72    2.32
  -4   2   9    1.58    1.91
   4   2  -9    3.56    2.02
  -4  -2  -9    1.69    1.25
  -4   2   9    0.76    1.81
   4  -2   9    2.50    1.93
  -4  -2  -9    1.65    1.49
   4   2  -8   -1.66    1.74
  -4   2   8   -2.59    1.88
   4  -2   8    0.32    1.13
  -4  -2  -8    0.35    1.14
  -4   2   8   -1.85    1.88
   4  -2   8    0.31    1.75
  -4  -2  -8    0.94    1.38
  -4   2   8   -1.83    2.23
   4   2  -7    5.67    1.78
  -4   2   7    8.98    2.50
  -4  -2  -7   10.48    2.13
   4  -2   7    6.90    1.60
  -4   2   7    7.78    2.18
   4  -2   7    9.27    2.29
  -4  -2  -7    7.71    2.19
  -4   2   7    9.52    2.85
   4   2  -6    4.94    1.74
  -4  -2  -6    5.67    1.60
  -4   2   6    4.00    1.84
   4  -2   6    5.39    1.52
  -4   2   6    5.48    1.87
   4  -2   6    2.42    1.33
  -4  -2  -6    4.79    2.21
  -4   2   6    5.33    2.58
   4   2  -5   13.23    2.21
  -4  -2  -5   11.06    1.76
  -4   2   5   13.76    2.80
   4  -2   5   10.59    1.71
  -4   2   5   12.68    2.27
   4  -2   5   16.20    2.42
  -4  -2  -5   10.16    2.76
  -4   2   5   10.43    2.77
   4   2  -4    5.35    1.36
   4   2  -4    5.77    1.59
  -4   2   4    5.23    2.47
   4  -2   4    3.20    1.11
  -4   2   4    3.64    1.52
   4  -2   4    5.40    1.64
  -4  -2  -4    1.34    2.06
  -4   2   4    5.52    2.31
   4   2  -3    0.02    0.84
   4   2  -3    0.01    1.11
  -4   2   3   -1.57    2.26
   4  -2   3   -1.11    0.99
   4  -2   3   -0.37    0.96
  -4  -2  -3    1.32    2.26
  -4   2   3   -0.35    2.28
   4   2  -2    0.89    0.81
   4   2  -2    0.91    1.08
  -4   2   2    0.24    1.97
   4  -2   2    1.64    0.96
   4  -2   2    0.29    1.01
  -4  -2  -2    2.92    2.11
  -4   2   2   -1.01    2.21
   4   2  -1   12.64    1.58
   4   2  -1    9.57    1.66
   4  -2   1    9.00    1.28
  -4   2   1   10.03    2.58
   4  -2   1   13.99    1.82
   4  -2   1   10.82    1.77
  -4  -2  -1    7.05    2.76
  -4   2   1   10.19    2.95
   4   2   0    3.93    0.97
   4  -2   0    4.07    0.98
   4   2   0    3.73    1.22
  -4   2   0    3.27    2.23
   4  -2   0    3.74    1.12
   4  -2   0    5.72    1.28
   4   2   0    4.66    0.95
  -4  -2   0    7.61    3.03
  -4   2   0    4.55    2.59
   4  -2  -1    9.98    1.68
   4   2   1    9.23    1.27
   4  -2  -1   10.30    1.55
   4   2   1    6.92    1.48
  -4   2  -1    8.94    2.74
   4   2   1    9.82    1.30
   4  -2  -1   11.82    1.67
   4  -2  -1    9.57    1.57
  -4  -2   1    9.69    2.97
  -4   2  -1   11.22    3.03
   4  -2  -2    0.56    1.11
   4   2   2    0.16    0.82
  -4   2  -2    0.37    1.66
   4  -2  -2    0.36    0.71
  -4  -2   2    0.68    2.05
  -4   2  -2    1.28    1.93
   4  -2  -3    0.50    0.98
   4   2   3    0.32    0.83
  -4   2  -3   -1.88    2.32
  -4  -2   3    3.26    2.36
  -4   2  -3   -2.10    2.86
   4  -2  -4    5.14    1.56
   4   2   4    6.35    1.29
  -4   2  -4    0.56    1.84
   4   2   4    5.26    1.63
  -4  -2   4    6.92    2.39
  -4   2  -4    6.73    2.50
   4  -2  -5   12.95    2.20
   4   2   5   13.26    1.71
  -4   2  -5   10.98    2.71
   4   2   5   11.43    2.11
  -4  -2   5   10.21    2.66
  -4   2  -5    9.15    2.81
   4  -2  -6    7.33    1.74
   4   2   6    5.69    1.31
  -4   2  -6    7.20    2.60
   4   2   6    1.98    1.40
  -4  -2   6    6.77    2.52
  -4   2  -6    3.09    2.06
   4  -2  -7    9.33    2.10
  -4   2  -7    8.43    2.53
  -4   2  -7    8.75    1.62
   4   2   7   10.03    2.15
  -4  -2   7    5.93    2.39
  -4   2  -7    8.21    2.45
   4  -2  -8   -1.27    1.46
  -4   2  -8    2.45    2.02
  -4   2  -8    1.93    1.32
   4   2   8    1.17    1.45
  -4  -2   8   -0.34    1.73
  -4   2  -8    2.13    1.56
  -4   2  -9    1.22    1.59
   4  -2  -9    4.73    1.73
  -4   2  -9    1.92    1.16
   4   2   9    2.16    1.40
  -4  -2   9    3.53    2.15
  -4   2 -10   11.05    2.53
   4  -2 -10    7.19    2.34
  -4   2 -10    8.01    1.88
   4   2  10    9.58    2.37
  -4  -2  10    8.67    2.41
   4  -2 -11    7.13    2.41
  -4   2 -11    6.10    1.92
  -4  -2  11    5.63    2.03
   4   2  11    4.62    2.07
   4  -2 -12    2.00    1.92
  -4   2 -12    0.29    1.29
  -4  -2  12    0.10    2.03
   4   2  12    0.48    1.61
  -4  -2  12   -0.62    1.70
   4  -2 -13   -1.34    1.72
  -4   2 -13   -0.06    1.64
  -4  -2  13    0.49    2.02
   4   2  13    3.81    2.32
  -4  -2  13    0.95    1.70
   4  -2 -14   -0.03    2.21
  -4   2 -14    7.19    2.47
  -4  -2  14    2.80    1.93
   4   2  14    1.77    2.10
  -4  -2  14    4.67    2.86
  -4   2 -15   -0.60    1.91
   4   3 -15    1.83    2.41
  -4  -3 -15   -1.84    1.72
   4   3 -14   -0.43    2.36
  -4  -3 -14    1.77    1.60
  -4   3  14    8.26    3.21
   4  -3  14    6.18    2.45
   4   3 -13    4.64    2.31
  -4  -3 -13    1.97    1.95
  -4   3  13    2.03    2.56
   4  -3  13   -0.47    1.77
   4   3 -12   -0.78    1.79
  -4  -3 -12    1.24    1.80
  -4   3  12   -0.30    2.27
   4  -3  12    0.46    1.99
   4   3 -11    3.07    2.20
  -4  -3 -11    3.88    1.96
  -4   3  11   -0.52    2.02
   4  -3  11    6.12    2.45
   4   3 -10   13.64    2.98
  -4   3  10   16.01    2.78
  -4  -3 -10   10.55    2.25
  -4   3  10   14.94    3.02
   4  -3  10   11.97    2.82
  -4  -3 -10   11.40    2.40
   4   3  -9    4.17    2.05
   4  -3   9    4.05    1.56
  -4   3   9    5.08    2.00
  -4  -3  -9    5.32    1.74
  -4   3   9    2.84    2.16
   4  -3   9    2.65    2.01
  -4  -3  -9    4.49    1.71
  -4   3   8    5.10    2.36
   4   3  -8    6.90    2.04
   4  -3   8    5.99    1.74
  -4  -3  -8    6.21    1.83
  -4   3   8    5.18    2.16
  -4   3   8    7.26    2.33
   4  -3   8    7.36    2.43
  -4  -3  -8    8.15    2.16
  -4   3   7    5.88    2.21
   4   3  -7   11.88    2.47
  -4  -3  -7   11.62    2.11
   4  -3   7   10.25    1.89
  -4   3   7    9.30    2.39
  -4   3   7   11.84    2.53
   4  -3   7    7.54    2.24
  -4  -3  -7    8.94    2.51
   4   3  -6   13.44    2.44
   4   3  -6   11.81    2.26
  -4  -3  -6   14.15    2.17
   4  -3   6   10.17    1.88
  -4   3   6   11.05    2.49
  -4   3   6   11.34    2.28
   4  -3   6    9.39    2.31
  -4  -3  -6   14.51    2.80
  -4   3   6   14.70    3.34
   4   3  -5    0.41    1.15
   4   3  -5    1.63    1.10
  -4  -3  -5    0.18    0.98
   4  -3   5   -0.35    1.22
  -4   3   5    2.73    1.87
  -4   3   5    2.86    1.51
   4  -3   5    0.81    1.39
  -4  -3  -5    2.08    2.30
  -4   3   5    1.78    2.33
   4   3  -4   34.99    3.12
   4  -3   4   36.82    2.97
   4   3  -4   25.43    2.87
  -4  -3  -4   31.43    2.68
  -4   3   4   36.28    3.40
  -4   3   4   38.78    4.38
   4  -3   4   33.92    3.50
  -4  -3  -4   34.05    4.39
  -4   3   4   29.43    4.45
   4   3  -3   13.89    1.92
   4   3  -3   12.59    2.05
  -4  -3  -3   12.25    1.68
   4  -3   3   14.58    1.87
  -4   3   3   10.40    1.90
  -4   3   3   13.29    2.89
   4  -3   3   16.12    2.46
  -4  -3  -3   12.08    3.23
  -4   3   3   10.95    2.97
   4   3  -2    7.86    1.46
   4   3  -2    9.86    1.84
   4  -3   2    8.92    1.59
  -4   3   2    6.76    2.70
   4  -3   2    9.12    1.79
  -4  -3  -2   12.12    3.05
  -4   3   2   13.52    3.53
   4   3  -1    8.27    1.66
   4  -3   1    8.89    1.61
  -4   3   1   11.28    2.77
   4  -3   1    6.62    1.50
  -4  -3  -1    9.59    2.83
  -4   3   1   10.69    2.81
   4  -3   0   38.07    2.51
   4   3   0   39.55    3.09
   4  -3   0   41.92    3.05
   4  -3   0   43.92    3.24
  -4   3   0   34.25    4.32
  -4  -3   0   42.39    5.09
  -4   3   0   34.87    4.43
   4  -3  -1    9.08    1.55
   4  -3  -1    8.53    1.35
   4   3   1    8.02    1.60
  -4   3  -1    5.06    2.17
   4  -3  -1   11.09    1.69
   4  -3  -1    6.42    1.38
  -4  -3   1   12.83    3.07
  -4   3  -1    9.35    2.80
   4  -3  -2   10.27    1.65
   4   3   2   13.48    1.88
  -4   3  -2    7.71    2.45
  -4  -3   2    7.94    2.62
  -4   3  -2   12.20    3.36
   4  -3  -3   12.21    1.87
   4   3   3   12.03    1.72
  -4   3  -3    7.99    2.47
  -4  -3   3    8.23    3.04
  -4   3  -3   10.92    2.88
   4   3   4   29.32    2.59
  -4   3  -4   34.22    4.14
  -4  -3   4   33.90    4.37
   4  -3  -4   33.75    3.00
  -4   3  -4   30.03    4.21
   4  -3  -5    0.78    1.35
   4   3   5    1.49    0.94
  -4   3  -5   -1.89    2.16
   4   3   5    0.14    1.31
  -4  -3   5   -0.49    1.79
  -4   3  -5    4.85    2.42
   4  -3  -6   13.46    2.27
   4   3   6   12.74    1.83
  -4   3  -6   12.55    1.74
  -4   3  -6   12.27    2.83
   4   3   6   11.80    2.15
  -4  -3   6   13.02    3.01
  -4   3  -6   12.87    2.87
  -4   3  -7    5.66    2.39
   4  -3  -7    8.06    1.93
   4   3   7   11.25    1.80
  -4   3  -7    9.82    2.48
  -4   3  -7    9.40    1.78
   4   3   7   11.88    2.35
  -4  -3   7    9.89    2.62
  -4   3  -8    4.91    2.23
   4  -3  -8    6.72    1.94
  -4   3  -8    6.08    2.31
  -4   3  -8    3.36    1.37
   4   3   8    3.50    1.69
  -4  -3   8   10.87    2.68
   4  -3  -9    5.54    2.03
  -4   3  -9    7.18    2.29
  -4   3  -9    1.09    1.04
   4   3   9    3.70    1.86
  -4  -3   9    1.07    1.73
   4  -3 -10   11.72    2.58
  -4   3 -10   17.29    3.05
  -4   3 -10   12.00    2.18
   4   3  10   12.45    2.58
  -4  -3  10   12.67    2.81
   4  -3 -11   -0.01    1.80
  -4   3 -11    2.75    1.69
   4   3  11    2.88    1.58
  -4   3 -12   -1.34    1.66
   4   3  12   -1.20    1.60
   4  -3 -12   -0.76    1.67
  -4  -3  12    0.75    1.68
   4  -3 -13    3.36    2.35
  -4   3 -13    0.81    1.58
   4   3  13    0.48    2.10
  -4  -3  13    4.05    2.31
   4  -3 -14    1.92    2.43
  -4   3 -14   -0.57    1.99
  -4  -3  14    3.91    2.84
  -4   3 -15   -2.29    1.70
  -4  -4 -14   -1.49    1.83
   4  -4  14   -0.71    1.82
   4   4 -13   -1.36    2.49
  -4  -4 -13    0.10    1.97
   4  -4  13   -1.51    2.14
   4   4 -12   -0.08    2.09
  -4  -4 -12    4.14    2.04
  -4   4  12    0.42    1.95
   4  -4  12    0.82    2.18
   4   4 -11    4.46    2.46
   4  -4  11    1.46    1.60
  -4  -4 -11    1.36    1.36
  -4   4  11    5.18    2.53
   4  -4  11    3.40    2.19
   4   4 -10    6.69    2.50
   4  -4  10    1.89    1.52
  -4  -4 -10    1.68    1.74
  -4   4  10    1.82    1.38
  -4   4  10    2.08    2.02
   4  -4  10   -1.96    1.98
  -4  -4 -10    1.33    1.62
   4   4  -9    8.34    2.61
   4  -4   9   10.19    2.17
  -4  -4  -9    7.49    1.93
  -4   4   9   10.68    2.49
  -4   4   9    7.21    2.32
   4  -4   9    7.04    2.25
  -4  -4  -9    8.59    2.10
   4   4  -8    7.58    2.30
  -4  -4  -8   15.54    2.52
   4  -4   8    8.22    2.03
  -4   4   8    6.20    2.09
  -4   4   8   11.83    2.65
   4  -4   8    7.05    2.27
  -4  -4  -8   13.42    2.75
   4   4  -7    1.12    1.33
   4   4  -7    2.91    1.88
  -4  -4  -7    0.90    1.21
   4  -4   7    2.20    1.22
  -4   4   7    1.95    1.60
  -4   4   7   -0.47    1.47
   4  -4   7    1.30    1.65
  -4  -4  -7    3.01    2.08
   4   4  -6    7.24    2.09
   4   4  -6    6.22    1.89
  -4  -4  -6    7.02    1.71
   4  -4   6    4.67    1.42
  -4   4   6    4.59    1.89
  -4   4   6    7.15    2.51
   4  -4   6    3.12    1.63
  -4  -4  -6    7.38    2.36
  -4   4   5   15.93    3.42
   4   4  -5   17.56    2.62
   4   4  -5   17.63    2.56
  -4  -4  -5   20.00    2.41
   4  -4   5   19.51    2.39
  -4   4   5   16.89    2.59
  -4   4   5   16.85    3.11
   4  -4   5   20.62    3.10
  -4  -4  -5   21.48    3.49
  -4   4   4   12.11    3.06
   4   4  -4    7.13    1.90
  -4  -4  -4    8.91    1.63
   4  -4   4   11.60    1.86
  -4   4   4    6.21    1.71
   4  -4   4    7.96    2.03
  -4   4   4   11.54    2.66
  -4  -4  -4   10.15    2.95
  -4   4   3   13.73    3.30
   4   4  -3   15.36    2.32
  -4  -4  -3   13.61    1.77
   4  -4   3   15.74    2.12
  -4   4   3   16.77    2.23
   4  -4   3   16.41    2.63
  -4  -4  -3   19.00    3.58
  -4   4   3   11.82    3.05
  -4   4   2   30.06    4.52
   4  -4   2   24.89    2.52
   4   4  -2   20.82    2.54
  -4  -4  -2   22.12    2.06
  -4   4   2   24.10    2.43
   4  -4   2   19.96    2.69
  -4  -4  -2   23.63    4.07
  -4   4   2   22.38    3.80
  -4   4   1   28.07    4.36
   4   4  -1   18.92    2.28
   4  -4   1   21.09    2.29
   4  -4   1   15.57    2.27
  -4  -4  -1   17.12    3.38
  -4   4   1   20.80    3.83
  -4   4   0    7.71    2.67
   4   4   0    7.39    1.60
   4  -4   0   11.16    1.73
  -4  -4   0    7.99    2.69
  -4   4   0   10.32    3.07
  -4   4  -1   13.91    3.56
   4  -4  -1   18.67    2.19
  -4  -4   1   19.83    3.49
   4   4   1   16.28    2.22
  -4   4  -1   15.84    3.15
  -4   4  -2   18.58    3.64
   4  -4  -2   19.44    2.24
   4   4   2   18.01    2.18
  -4  -4   2   19.35    3.75
  -4   4  -2   17.25    3.48
  -4   4  -3   16.23    3.60
   4  -4  -3   16.01    2.15
   4   4   3   16.59    2.06
  -4  -4   3   17.38    3.37
  -4   4  -3   13.36    2.79
  -4   4  -4    9.30    2.86
   4  -4  -4    7.13    1.64
   4   4   4    8.22    1.55
  -4   4  -4    8.05    1.37
  -4  -4   4    9.07    2.87
  -4   4  -4    6.66    2.57
  -4   4  -5   19.51    3.68
   4  -4  -5   19.34    2.48
   4   4   5   18.01    2.23
  -4   4  -5   18.41    2.04
  -4   4  -5    9.51    2.69
  -4  -4   5   18.24    3.73
   4  -4  -6    8.14    1.86
   4   4   6    7.02    1.56
  -4   4  -6    5.35    1.31
   4   4   6    4.77    1.54
  -4   4  -6    2.77    1.98
  -4  -4   6    6.69    2.61
   4  -4  -7    1.54    1.35
   4   4   7    1.21    0.97
  -4   4  -7    2.80    1.30
  -4   4  -7    0.77    1.75
   4   4   7    2.19    1.26
  -4  -4   7    3.57    2.01
   4  -4  -8   10.90    2.26
   4   4   8   12.75    2.02
  -4   4  -8   12.90    2.15
  -4   4  -8    7.27    2.35
   4   4   8   11.21    2.15
  -4  -4   8    7.77    2.49
   4  -4  -9    8.25    2.27
  -4   4  -9   10.05    2.64
  -4   4  -9    9.02    1.98
   4   4   9    8.63    2.07
  -4  -4   9   13.68    2.90
   4  -4 -10    3.52    2.05
  -4   4 -10    1.62    1.68
  -4   4 -10    1.39    1.33
   4   4  10    0.99    1.42
  -4  -4  10    1.65    1.73
   4  -4 -11    0.81    1.79
  -4   4 -11    4.22    1.86
   4   4  11    2.31    1.59
   4  -4 -12    2.25    1.68
  -4   4 -12   -0.68    1.61
   4   4  12    2.75    2.07
  -4  -4  12    3.03    2.46
   4  -4 -13    3.56    2.46
  -4   4 -13   -0.18    1.61
   4   4  13    4.28    2.49
  -4  -4  13    5.89    3.00
  -4   4 -14    6.30    2.46
  -4   4 -15   -0.42    1.61
   4   5 -14    0.09    1.63
  -4  -5 -14   -0.96    1.68
   4   5 -13    2.18    2.12
  -4  -5 -13    3.59    2.10
  -4   5  13    4.61    2.94
   4  -5  13    0.76    2.08
   4   5 -12   -0.95    2.40
   4  -5  12    5.49    2.06
  -4  -5 -12    0.85    1.59
  -4   5  12    0.08    1.76
   4  -5  12    0.21    1.90
   4   5 -11    1.05    1.87
   4  -5  11    3.96    1.81
  -4  -5 -11   -1.51    1.55
  -4   5  11    0.00    1.69
   4  -5  11   -1.26    2.25
   4   5 -10    2.51    1.77
   4  -5  10    1.92    1.83
  -4  -5 -10    0.51    1.54
  -4   5  10    2.46    1.77
  -4   5  10    0.37    1.79
   4  -5  10    1.08    1.91
  -4  -5 -10    0.04    1.43
   4   5  -9   11.24    2.54
   4   5  -9   11.01    2.68
   4  -5   9   10.97    2.39
  -4  -5  -9   12.70    2.58
  -4   5   9    9.65    2.88
  -4   5   9    9.12    2.20
   4  -5   9   11.00    2.81
  -4  -5  -9   12.67    2.75
   4   5  -8    0.00    1.48
   4   5  -8   -1.45    1.85
  -4  -5  -8   -1.36    1.43
   4  -5   8    1.58    1.38
  -4   5   8   -0.89    1.97
  -4   5   8   -1.08    1.75
  -4  -5  -8    0.09    1.76
   4  -5   8    2.50    2.14
   4   5  -7   -0.53    1.23
  -4  -5  -7    0.00    1.19
   4  -5   7    0.08    1.32
  -4   5   7    3.05    1.81
  -4   5   7   -2.94    2.13
  -4  -5  -7    1.85    1.66
   4  -5   7   -1.15    1.90
   4   5  -6    8.05    2.12
  -4  -5  -6    5.83    1.57
   4  -5   6    7.51    1.96
  -4   5   6    5.99    2.09
  -4  -5  -6    5.06    2.23
   4  -5   6    4.68    1.83
  -4   5   6    1.51    1.52
   4   5  -5    3.77    1.77
  -4  -5  -5    6.65    1.64
   4  -5   5    7.98    1.71
  -4   5   5    8.81    2.00
  -4  -5  -5    2.81    2.19
   4  -5   5    6.24    2.18
  -4   5   5    4.99    2.16
   4   5  -4    1.48    1.67
  -4  -5  -4    1.33    0.91
   4  -5   4    1.01    1.21
  -4   5   4    1.14    1.22
  -4  -5  -4   -3.61    2.88
   4  -5   4    2.14    1.55
  -4   5   4    0.72    1.97
   4   5  -3    1.73    1.38
  -4  -5  -3    2.38    1.07
   4  -5   3    2.16    1.19
  -4   5   3    3.85    1.20
  -4  -5  -3   -1.77    2.66
   4  -5   3    1.84    1.31
  -4   5   2   12.05    3.38
   4   5  -2    6.18    1.72
  -4  -5  -2    5.11    1.22
   4  -5   2    5.26    1.48
  -4   5   2    5.56    1.28
  -4  -5  -2    6.57    2.80
   4  -5   2    5.69    1.74
  -4   5   1    4.27    2.52
   4   5  -1    3.39    1.53
  -4  -5  -1    2.91    1.03
   4  -5   1    1.86    1.22
  -4  -5  -1    5.20    2.75
  -4   5   0    0.81    2.13
   4   5   0    3.99    1.36
  -4  -5   0    3.92    1.00
   4  -5   0    2.82    1.24
  -4  -5   0    3.47    2.52
  -4   5  -1    1.04    1.75
   4   5   1    4.00    1.44
   4  -5  -1    2.17    1.30
  -4  -5   1    3.68    2.56
   4  -5  -2    5.88    1.59
  -4   5  -2    9.90    2.93
   4   5   2    4.08    1.36
  -4   5  -2    6.82    1.18
   4  -5  -2    6.32    1.53
  -4  -5   2    7.01    2.65
  -4   5  -3    3.85    2.26
   4  -5  -3    3.28    1.48
   4   5   3    4.10    1.50
  -4   5  -3    1.52    0.94
  -4  -5   3    1.68    2.71
  -4   5  -4    2.82    2.29
   4  -5  -4    1.70    1.16
   4   5   4    0.52    1.00
  -4   5  -4    2.77    0.99
   4  -5  -5    7.05    1.87
   4   5   5    7.35    1.61
  -4   5  -5    5.06    1.34
  -4  -5   5    8.46    2.98
  -4   5  -5    7.49    2.62
   4  -5  -6    5.42    1.65
   4   5   6    5.16    1.47
  -4   5  -6    5.04    1.35
  -4  -5   6    8.00    2.71
  -4   5  -6    1.19    1.92
   4  -5  -7    0.70    1.28
   4   5   7   -0.67    1.17
  -4   5  -7    0.76    1.21
   4   5   7   -0.65    1.46
  -4  -5   7   -1.79    1.95
  -4   5  -7    4.34    2.33
   4  -5  -8    1.41    1.52
   4   5   8    0.48    1.12
  -4   5  -8    1.93    1.37
   4   5   8   -1.51    1.46
  -4   5  -8   -0.98    1.74
  -4  -5   8    0.98    1.91
   4  -5  -9    9.97    2.44
   4   5   9    9.71    1.96
  -4   5  -9   11.13    2.25
  -4   5  -9   12.10    2.66
   4   5   9    9.20    2.17
  -4  -5   9    8.67    2.51
   4  -5 -10    4.23    2.06
  -4   5 -10    1.67    1.29
  -4   5 -10    1.36    1.77
   4   5  10    3.09    1.61
  -4  -5  10    3.72    1.80
   4  -5 -11    1.87    1.62
  -4   5 -11    0.63    1.58
   4   5  11    4.43    2.03
  -4  -5  11    2.97    2.17
   4  -5 -12    5.10    2.16
  -4   5 -12    0.48    1.45
   4   5  12    0.55    1.75
  -4  -5  12   -3.21    2.81
   4  -5 -13   -0.85    1.67
  -4   5 -13    3.31    1.63
   4   5  13    2.25    2.23
  -4  -5  13    3.78    2.64
  -4   5 -14   -2.09    2.00
   4   6 -14   10.45    2.95
   4   6 -13    0.83    1.98
   4  -6  13    3.37    2.29
  -4  -6 -13   -0.93    1.53
  -4   6  13    0.64    2.28
   4  -6  13    2.36    1.93
   4   6 -12    9.83    2.63
   4  -6  12    4.26    2.11
  -4  -6 -12    1.81    1.87
  -4   6  12    4.39    2.39
   4   6 -11    1.07    1.50
   4  -6  11    5.44    2.19
  -4  -6 -11    3.10    1.61
  -4   6  11   -1.48    2.08
   4  -6  11   -0.19    1.62
   4   6 -10    0.91    1.71
   4  -6  10   -1.95    1.92
  -4  -6 -10   -0.75    1.67
  -4   6  10    2.67    1.89
  -4   6  10   -1.31    1.51
  -4  -6 -10   -0.74    1.70
   4  -6  10    1.10    2.06
   4   6  -9   -1.44    1.91
   4  -6   9   -2.79    2.04
  -4  -6  -9    0.40    1.56
  -4   6   9    3.10    2.43
  -4   6   9    1.36    1.55
  -4  -6  -9    5.32    2.20
   4  -6   9    4.59    2.68
   4   6  -8   18.81    2.96
  -4  -6  -8   20.37    2.91
   4  -6   8   22.67    3.14
  -4   6   8   22.78    3.64
  -4  -6  -8   20.04    3.51
   4  -6   8   25.73    3.84
  -4   6   8   16.49    2.88
   4   6  -7    4.01    1.68
  -4  -6  -7    5.32    1.69
   4  -6   7    7.12    1.86
  -4   6   7    1.58    1.80
  -4  -6  -7    2.52    1.63
   4  -6   7    4.34    1.97
  -4   6   7    6.29    2.28
  -4   6   6    6.66    2.14
   4   6  -6    9.01    2.18
  -4  -6  -6    8.40    1.79
   4  -6   6    8.83    2.03
  -4   6   6   11.85    2.48
  -4  -6  -6   14.54    3.43
   4  -6   6   10.05    2.52
  -4   6   5    1.81    2.04
   4   6  -5    3.03    1.66
  -4  -6  -5   -0.12    0.86
   4  -6   5    1.42    1.50
  -4   6   5    0.40    1.38
  -4  -6  -5   -2.37    2.55
   4  -6   5   -0.16    1.54
  -4   6   4   18.82    3.51
   4   6  -4   17.88    2.65
  -4  -6  -4   13.93    1.97
   4  -6   4   18.79    2.41
  -4   6   4   18.65    2.68
  -4  -6  -4   19.13    3.96
   4  -6   4   24.79    3.43
  -4   6   3   -2.18    2.42
   4   6  -3    0.50    1.03
  -4  -6  -3    1.16    0.93
   4  -6   3    1.19    1.23
  -4   6   3   -0.05    1.01
  -4  -6  -3   -1.15    2.72
   4  -6   3    0.13    1.42
   4   6  -2   48.49    4.00
   4  -6   2   47.03    3.59
  -4   6   2   50.83    5.76
  -4  -6  -2   51.17    3.37
  -4  -6  -2   40.95    5.27
   4   6  -1    2.04    1.39
  -4   6   1    4.91    2.55
  -4  -6  -1    2.03    0.95
   4  -6   1    3.18    1.27
  -4  -6  -1    1.46    2.47
   4   6   0    2.18    1.31
  -4   6   0    2.69    2.34
  -4  -6   0    4.08    1.12
   4  -6   0    4.52    1.40
  -4  -6   0    5.57    2.89
   4   6   1    1.32    1.23
  -4   6  -1    2.89    2.12
  -4  -6   1    1.54    0.91
  -4   6  -1    2.09    0.84
   4  -6  -1    2.78    1.36
  -4  -6   1    6.45    2.85
   4   6   2   51.30    3.82
  -4   6  -2   42.35    5.12
   4  -6  -2   44.90    3.48
  -4   6  -2   46.86    2.99
  -4  -6   2   45.02    5.39
   4  -6  -2   47.75    3.68
   4  -6  -3    2.50    1.39
  -4   6  -3    0.66    2.42
   4   6   3    0.69    1.13
  -4   6  -3    0.29    0.78
  -4  -6   3   -2.21    2.65
   4  -6  -3    1.14    1.23
   4  -6  -4   17.93    2.47
  -4   6  -4   10.95    3.06
   4   6   4   14.80    2.19
  -4   6  -4   15.90    1.95
  -4  -6   4   14.06    3.17
   4  -6  -5    1.30    1.17
  -4   6  -5    1.20    1.96
   4   6   5   -1.33    1.42
  -4   6  -5    2.91    1.32
  -4  -6   5   -0.82    1.99
  -4   6  -6   11.53    2.94
   4  -6  -6    8.67    2.07
   4   6   6    8.86    1.92
  -4   6  -6    8.09    1.61
  -4  -6   6   10.48    2.86
   4  -6  -7    3.95    1.47
   4   6   7    5.08    1.50
  -4   6  -7    5.16    1.58
  -4  -6   7    1.88    2.14
  -4   6  -7    6.49    2.70
   4  -6  -8   21.00    3.08
   4   6   8   20.47    2.70
  -4   6  -8   16.45    2.50
   4   6   8   24.18    3.11
  -4  -6   8   19.11    3.42
  -4   6  -8   15.64    3.02
   4  -6  -9    2.16    1.66
   4   6   9    2.42    1.40
  -4   6  -9   -0.87    1.26
   4   6   9    2.55    1.46
  -4  -6   9    0.57    1.64
  -4   6  -9    2.04    1.71
   4  -6 -10    1.81    1.76
   4   6  10   -0.69    1.52
  -4   6 -10    1.40    1.50
  -4   6 -10    1.96    1.55
   4   6  10    2.97    1.61
  -4  -6  10    0.81    1.46
  -4  -6  10   -0.43    2.05
   4  -6 -11    1.31    2.02
  -4   6 -11   -1.12    1.77
   4   6  11    2.27    1.75
  -4  -6  11    2.28    2.57
  -4   6 -12    6.30    2.03
   4   6  12    8.06    2.29
  -4  -6  12   12.69    3.47
  -4   6 -13    3.38    1.74
  -4   6 -14    2.00    1.62
  -4  -7 -13   -1.65    1.88
   4  -7  13    0.71    1.84
   4   7 -12   -1.78    1.76
   4  -7  12    0.65    1.66
  -4  -7 -12    0.12    1.51
  -4   7  12   -2.11    2.64
   4  -7  12    3.68    2.22
   4   7 -11    2.36    1.60
   4  -7  11    1.33    1.46
  -4  -7 -11   -2.15    2.11
  -4   7  11    3.32    2.28
   4  -7  11    2.78    1.99
   4   7 -10    9.20    2.45
   4  -7  10   10.60    2.48
  -4  -7 -10   11.47    2.49
  -4   7  10   13.13    3.21
  -4   7  10   11.40    2.49
  -4  -7 -10   13.13    2.92
   4  -7  10    9.56    3.09
   4   7  -9    1.97    2.01
  -4  -7  -9    1.37    1.30
   4  -7   9    3.14    1.79
  -4   7   9    0.37    1.96
  -4  -7  -9    2.92    2.14
   4  -7   9    4.32    2.58
  -4   7   9    1.84    1.52
  -4   7   8    0.16    1.65
   4   7  -8    5.05    1.98
  -4  -7  -8    6.68    1.94
   4  -7   8    3.98    1.69
  -4   7   8    5.21    2.30
  -4  -7  -8    6.33    2.56
   4  -7   8    3.56    2.08
  -4   7   7    2.80    2.15
   4   7  -7    0.97    1.28
  -4  -7  -7    1.77    1.23
   4  -7   7    1.43    1.14
  -4   7   7    4.13    2.05
  -4  -7  -7    3.32    1.98
   4  -7   7    0.89    1.75
  -4   7   6    9.43    2.57
   4   7  -6    7.54    1.91
  -4  -7  -6   14.81    2.39
   4  -7   6   11.46    2.22
  -4   7   6   14.71    2.82
  -4  -7  -6    8.94    2.75
   4  -7   6    7.57    2.36
   4   7  -5    4.16    1.82
  -4   7   5    8.72    2.67
  -4  -7  -5    7.32    1.75
   4  -7   5    5.05    1.84
  -4   7   5    6.15    1.89
  -4  -7  -5   10.09    3.36
   4  -7   5   11.44    2.72
   4   7  -4   13.36    2.31
  -4   7   4   14.19    3.26
  -4  -7  -4   13.49    1.98
   4  -7   4   17.10    2.57
  -4   7   4   14.00    2.38
  -4  -7  -4   11.86    3.36
   4   7  -3    1.05    1.43
  -4   7   3    0.26    2.43
  -4  -7  -3    1.02    0.95
   4  -7   3    0.52    1.30
  -4  -7  -3    1.06    2.40
   4   7  -2    5.01    1.73
  -4   7   2    5.39    2.78
  -4  -7  -2    7.39    1.61
   4  -7   2    2.40    1.28
  -4  -7  -2   10.69    3.89
   4   7  -1    1.33    1.20
  -4   7   1    1.40    2.64
  -4  -7  -1    3.36    1.20
   4  -7   1    4.50    1.62
  -4  -7  -1    1.36    2.23
   4   7   0   30.06    3.20
   4  -7   0   29.11    2.88
  -4  -7   0   24.82    2.41
  -4   7   0   23.88    4.38
  -4  -7   0   21.14    4.21
   4   7   1    2.02    1.44
  -4   7  -1    1.04    2.22
  -4  -7   1    2.94    1.13
  -4   7  -1    1.93    1.02
   4  -7  -1    1.88    1.16
  -4  -7   1    0.49    1.98
   4   7   2    6.27    1.62
  -4   7  -2    7.12    3.31
  -4  -7   2    7.32    1.45
  -4   7  -2    3.04    1.08
   4  -7  -2    6.55    1.76
  -4  -7   2    5.00    2.90
   4  -7  -3    1.22    1.37
   4   7   3    0.45    1.06
  -4   7  -3   -1.03    2.13
  -4   7  -3    0.76    0.94
  -4  -7   3   -0.77    2.53
   4  -7  -3   -1.20    1.31
   4  -7  -4   16.76    2.40
   4   7   4   15.92    2.36
  -4   7  -4   19.92    4.12
  -4   7  -4   14.49    1.92
  -4  -7   4   13.63    3.53
   4  -7  -5    4.35    1.73
  -4   7  -5    1.82    2.16
   4   7   5    7.46    1.89
  -4   7  -5    5.11    1.37
  -4  -7   5    5.73    2.74
   4  -7  -6   12.41    2.17
  -4   7  -6   14.15    3.32
   4   7   6    8.52    1.87
  -4   7  -6   13.49    2.05
  -4  -7   6   10.44    3.06
   4  -7  -7    1.01    1.31
  -4   7  -7   -0.03    2.02
   4   7   7    1.77    1.39
  -4   7  -7    4.35    1.48
  -4  -7   7    0.03    2.07
  -4   7  -8    4.75    2.32
   4  -7  -8    4.33    1.76
   4   7   8    2.23    1.62
  -4   7  -8    6.07    1.91
   4   7   8    3.07    1.80
  -4  -7   8    4.80    2.27
   4  -7  -9    1.53    1.83
   4   7   9    0.98    1.31
  -4   7  -9    2.46    1.50
   4   7   9    1.10    1.47
  -4  -7   9   -2.55    1.87
  -4   7  -9    1.29    1.68
   4  -7 -10   11.32    2.60
   4   7  10   12.59    2.45
  -4   7 -10   13.16    2.41
   4   7  10   14.04    2.72
  -4  -7  10    8.99    2.37
  -4   7 -10   13.62    2.87
  -4  -7  10    8.52    2.83
   4  -7 -11    2.17    1.52
   4   7  11    2.05    1.63
  -4   7 -11    1.43    1.54
   4   7  11    2.77    1.86
  -4  -7  11    6.62    2.83
   4  -7 -12   -3.38    2.27
  -4   7 -12   -2.88    1.70
   4   7  12   -1.41    1.95
  -4  -7  12   -0.33    2.07
  -4   7 -13   -0.69    1.64
   4  -8  13   -0.84    2.11
   4  -8  12    2.16    1.92
  -4  -8 -12    2.37    1.58
  -4   8  12    3.59    3.11
   4  -8  12    0.81    2.25
   4   8 -11    4.42    1.98
   4  -8  11    5.07    2.45
  -4  -8 -11    1.90    1.66
  -4   8  11    7.28    2.98
   4  -8  11    4.33    2.42
   4   8 -10   -1.18    1.76
   4  -8  10    0.58    1.77
  -4  -8 -10   -0.71    1.77
  -4   8  10    1.94    1.96
  -4  -8 -10    2.03    1.60
   4  -8  10    2.95    2.49
  -4   8  10   -1.50    1.95
  -4   8   9    1.53    1.71
   4   8  -9    5.82    2.27
  -4  -8  -9    4.59    2.04
   4  -8   9    1.87    1.63
  -4   8   9    0.50    2.20
  -4  -8  -9    2.55    1.85
   4  -8   9    2.92    1.96
  -4   8   8   10.27    2.78
   4   8  -8    5.13    1.98
  -4  -8  -8    5.83    1.95
   4  -8   8    4.64    1.74
  -4   8   8    5.28    2.34
  -4  -8  -8    6.00    2.33
   4  -8   8    8.62    2.85
   4   8  -7    7.72    2.17
  -4   8   7    7.10    2.63
  -4  -8  -7    0.80    1.47
   4  -8   7    7.25    2.17
  -4   8   7   10.92    2.87
  -4  -8  -7    3.33    2.32
   4  -8   7   11.78    2.97
   4   8  -6    9.12    2.13
  -4   8   6    3.47    2.36
  -4  -8  -6    3.52    1.43
   4  -8   6    9.07    2.24
  -4   8   6    5.78    2.22
  -4  -8  -6    3.58    2.22
   4  -8   6    6.70    2.40
   4   8  -5   -0.48    1.27
  -4   8   5   -1.86    2.45
  -4  -8  -5    0.06    1.19
   4  -8   5    1.09    1.38
  -4  -8  -5    2.04    2.28
   4   8  -4    3.41    1.91
  -4   8   4    1.37    2.39
  -4  -8  -4    4.48    1.49
   4  -8   4    2.46    1.60
  -4  -8  -4    7.05    3.19
   4   8  -3    3.50    1.60
  -4   8   3    6.33    2.75
  -4  -8  -3    3.86    1.29
   4  -8   3    5.01    1.80
  -4  -8  -3    0.00    2.88
   4   8  -2   11.47    2.27
  -4  -8  -2   14.19    2.02
  -4   8   2   14.12    3.85
   4  -8   2   12.41    2.28
   4   8  -1    3.98    1.71
  -4  -8  -1    3.25    1.26
  -4   8   1    2.18    2.31
   4  -8   1    3.03    1.25
   4   8   0   -3.03    1.83
  -4  -8   0   -2.77    1.24
  -4   8   0   -0.29    2.66
   4  -8   0    0.79    1.28
   4   8   1    2.46    1.30
  -4  -8   1    2.71    1.11
  -4   8  -1    0.13    2.63
  -4   8  -1    3.23    1.20
   4  -8  -1    1.46    1.05
   4   8   2   14.00    2.34
  -4  -8   2   12.09    1.83
  -4   8  -2   11.30    3.33
  -4   8  -2   10.69    1.58
   4  -8  -2   10.00    1.88
   4  -8  -3    2.54    1.29
   4   8   3    6.35    1.94
  -4  -8   3    2.71    1.09
  -4   8  -3    7.89    3.16
  -4   8  -3    4.13    1.38
  -4  -8   3    3.30    2.69
   4  -8  -3    2.98    1.41
   4  -8  -4    6.35    1.90
   4   8   4    3.39    1.55
  -4   8  -4    2.07    1.91
  -4   8  -4    5.71    1.53
  -4  -8   4    4.27    2.42
   4  -8  -4    4.97    1.63
   4  -8  -5    0.18    1.28
   4   8   5    0.98    1.46
  -4   8  -5    2.79    2.54
  -4   8  -5    2.08    1.10
  -4  -8   5   -2.04    2.49
   4  -8  -6    5.15    1.74
   4   8   6    5.77    1.91
  -4   8  -6    1.72    1.94
  -4   8  -6    5.92    1.73
  -4  -8   6    4.72    2.31
   4  -8  -7    6.82    1.98
  -4   8  -7    7.12    2.33
   4   8   7    5.03    1.88
  -4   8  -7    8.24    1.86
  -4  -8   7    4.74    2.57
   4  -8  -8   10.74    2.33
   4   8   8   10.06    2.22
  -4   8  -8    7.26    1.92
  -4  -8   8    8.61    2.90
  -4   8  -9    0.31    1.97
   4  -8  -9    2.50    2.00
   4   8   9    1.02    1.51
  -4   8  -9    0.78    1.36
   4   8   9   -0.70    1.42
  -4  -8   9   -1.89    2.37
   4  -8 -10   -1.75    1.86
   4   8  10   -0.73    1.24
  -4   8 -10   -0.87    1.29
   4   8  10    0.36    1.35
  -4  -8  10    1.39    2.17
  -4  -8  10   -1.19    2.37
  -4   8 -10    1.19    1.83
   4  -8 -11    1.34    1.68
   4   8  11    3.30    1.55
  -4   8 -11    3.46    1.54
   4   8  11    5.66    1.91
  -4  -8  11    6.58    2.73
   4   8  12    1.99    1.51
  -4   8 -12    5.88    2.02
  -4   9  12    5.46    2.56
   4  -9  12    4.86    2.65
   4  -9  11    0.96    1.90
  -4  -9 -11    1.35    1.88
   4  -9  11    0.59    2.19
  -4   9  10    5.40    1.94
   4   9 -10    3.85    1.98
   4  -9  10    6.77    2.67
  -4  -9 -10    6.88    2.27
  -4   9  10    3.25    2.74
  -4  -9 -10    9.73    2.84
   4  -9  10    4.59    2.22
  -4   9   9    3.40    1.74
   4   9  -9    2.40    2.07
  -4  -9  -9    4.73    1.90
   4  -9   9    4.19    1.85
  -4   9   9    2.97    2.57
  -4  -9  -9    4.32    2.59
   4  -9   9   -1.20    2.49
   4   9  -8   -0.24    1.28
  -4   9   8   -2.38    2.02
  -4  -9  -8    0.99    1.56
   4  -9   8   -1.19    1.87
  -4   9   8    3.08    2.10
  -4  -9  -8   -1.50    2.16
   4  -9   8   -3.72    2.09
   4   9  -7    5.35    2.12
  -4   9   7   -1.52    2.52
  -4  -9  -7    1.98    1.54
   4  -9   7    1.01    1.83
  -4   9   7   -0.17    1.86
  -4  -9  -7    3.14    2.23
   4   9  -6   12.94    2.74
  -4   9   6   15.72    3.48
  -4  -9  -6   15.82    2.45
   4  -9   6   13.29    2.57
  -4  -9  -6   11.49    3.27
   4   9  -5    4.05    1.77
  -4   9   5    4.18    2.62
  -4  -9  -5    3.96    1.42
   4  -9   5    5.00    1.66
   4   9  -4    2.24    1.50
  -4  -9  -4    3.14    1.43
  -4   9   4    4.40    2.69
   4  -9   4    0.33    1.57
   4   9  -3   -0.21    1.45
  -4  -9  -3    2.35    1.24
  -4   9   3   -1.70    2.63
   4  -9   3    3.06    1.68
   4   9  -2   -0.33    1.65
  -4  -9  -2    0.78    1.16
   4  -9   2    1.40    1.13
   4   9  -1    6.87    2.09
  -4  -9  -1    4.95    1.44
  -4   9   1    3.27    3.28
   4  -9   1    5.51    1.81
   4   9   0   17.43    2.81
  -4  -9   0   17.40    2.28
  -4   9   0   22.80    4.85
   4  -9   0   14.38    2.42
   4   9   1    6.25    1.87
  -4  -9   1    5.29    1.39
  -4   9  -1    4.17    3.23
  -4   9  -1    6.62    1.50
   4  -9  -1    3.20    1.43
   4   9   2    0.03    1.49
  -4  -9   2    2.84    1.44
  -4   9  -2   -2.06    3.12
  -4   9  -2    1.08    1.05
   4  -9  -2    2.12    1.40
   4  -9  -3    3.20    1.64
   4   9   3    1.73    1.26
  -4  -9   3    2.22    1.12
  -4   9  -3    1.94    2.69
  -4   9  -3    1.23    1.08
   4  -9  -3    2.76    1.37
   4  -9  -4    2.73    1.54
   4   9   4    3.37    1.56
  -4  -9   4    2.77    1.26
  -4   9  -4    4.94    2.75
  -4   9  -4    5.58    1.58
   4  -9  -4    4.33    1.38
   4  -9  -5    1.90    1.31
   4   9   5    2.61    1.73
  -4   9  -5   -3.06    3.18
  -4   9  -5    2.99    1.41
   4  -9  -5    1.16    1.55
   4  -9  -6    8.44    2.23
   4   9   6    9.42    2.18
  -4   9  -6   16.44    4.06
  -4   9  -6   13.66    2.25
  -4  -9   6   11.86    3.71
   4  -9  -7    4.47    1.76
   4   9   7    5.78    1.97
  -4   9  -7    4.12    2.54
  -4   9  -7    3.52    1.69
  -4  -9   7    5.47    2.61
   4  -9  -8    0.05    1.46
   4   9   8    2.06    1.55
  -4   9  -8   -3.05    2.51
  -4   9  -8    1.20    1.44
  -4  -9   8    0.78    2.14
   4  -9  -9    5.93    2.22
  -4   9  -9    2.69    1.83
   4   9   9    5.55    1.85
  -4   9  -9    6.43    2.08
   4   9   9    1.93    1.75
  -4  -9   9    4.96    2.08
  -4   9 -10   -0.57    2.05
   4  -9 -10    5.50    2.14
   4   9  10    4.30    1.85
  -4   9 -10    4.92    1.91
   4   9  10    8.43    2.35
  -4  -9  10    1.83    1.79
  -4  -9  10    1.07    1.83
   4   9  11    4.07    1.80
  -4   9 -11    1.56    1.54
   4   9  12    3.34    1.81
  -4   9 -12    2.45    2.01
  -4  10  11    7.17    3.10
   4 -10  11    6.17    2.80
  -4  10  10   -4.55    2.38
   4 -10  10    4.36    2.52
  -4 -10 -10    0.80    1.33
  -4  10  10    1.60    2.51
  -4 -10 -10    0.38    1.92
   4 -10  10    2.88    2.09
   4  10  -9    4.19    2.08
  -4  10   9    8.20    2.46
  -4 -10  -9    5.00    1.76
   4 -10   9    4.92    2.13
  -4  10   9    4.62    2.47
  -4 -10  -9    8.42    2.73
   4  10  -8    5.00    1.98
  -4  10   8    1.46    1.60
  -4 -10  -8    1.18    1.28
   4 -10   8    1.51    2.04
  -4  10   8    5.83    2.68
  -4 -10  -8    1.94    2.26
   4  10  -7    2.68    1.93
  -4  10   7    8.54    2.91
  -4 -10  -7    7.54    1.90
   4 -10   7    5.94    2.04
  -4 -10  -7    3.46    2.48
   4  10  -6    6.54    2.26
  -4 -10  -6    3.60    1.67
  -4  10   6    3.13    2.64
   4 -10   6   -0.17    1.85
   4  10  -5   13.55    2.82
  -4 -10  -5   15.60    2.51
  -4  10   5    8.78    3.25
   4 -10   5   14.29    2.52
   4  10  -4    0.33    1.30
  -4 -10  -4   -0.37    1.33
   4 -10   4    0.69    1.57
   4  10  -3    5.24    2.05
  -4 -10  -3    4.20    1.44
   4 -10   3    4.77    1.67
  -4  10   3    2.35    2.92
   4  10  -2   -0.32    1.52
  -4 -10  -2    2.20    1.40
   4 -10   2    1.58    1.67
  -4  10   2    4.61    2.70
   4  10  -1   13.44    2.48
  -4 -10  -1   14.27    2.17
   4 -10   1   17.43    2.64
  -4  10   1   13.65    4.04
   4  10   0    1.57    1.61
  -4 -10   0    0.25    1.08
   4 -10   0   -0.78    1.16
   4  10   1   14.86    2.50
  -4 -10   1   17.19    2.35
   4 -10  -1   12.33    2.16
  -4  10  -1   15.75    2.19
  -4  10  -1   20.02    4.58
   4  10   2    1.84    1.73
  -4 -10   2    3.56    1.31
  -4  10  -2    3.27    3.03
  -4  10  -2   -0.06    1.02
   4 -10  -2    2.68    1.50
   4 -10  -3    5.97    1.75
   4  10   3    6.00    2.07
  -4 -10   3    6.13    1.59
  -4  10  -3    4.12    3.10
  -4  10  -3    3.83    1.36
   4 -10  -3    7.50    1.73
   4 -10  -4    2.85    1.77
   4  10   4    0.87    1.37
  -4 -10   4   -0.25    1.23
  -4  10  -4   -1.75    2.61
  -4  10  -4    0.58    1.26
   4 -10  -4    1.42    1.36
   4 -10  -5   14.89    2.63
   4  10   5   15.16    2.74
  -4 -10   5   16.36    2.35
  -4  10  -5   13.01    3.56
  -4  10  -5   14.21    2.41
   4 -10  -5   15.46    2.46
   4 -10  -6    1.74    1.32
   4  10   6   -0.33    1.60
  -4  10  -6    4.14    1.67
   4 -10  -6   -0.01    1.37
   4 -10  -7    6.04    2.00
   4  10   7    4.29    1.62
  -4  10  -7    2.51    1.44
   4 -10  -8    2.03    1.89
   4  10   8   -1.03    1.53
  -4  10  -8    1.05    2.14
  -4  10  -8    1.11    1.52
  -4 -10   8    0.39    2.42
   4 -10  -9    7.97    2.30
   4  10   9    6.27    2.33
  -4  10  -9    1.55    2.01
  -4  10  -9    5.47    1.93
   4  10   9    2.67    1.87
  -4 -10   9    5.59    2.43
  -4  10 -10   -1.41    2.11
   4  10  10    0.45    1.54
  -4  10 -10   -0.09    1.60
  -4 -10  10   -1.97    2.06
   4  10  11    3.43    1.89
  -4  10 -11    4.76    2.15
  -4  11  10   -2.27    2.34
  -4 -11 -10    3.30    2.42
  -4  11   9    2.45    1.71
  -4 -11  -9    0.55    1.74
  -4 -11  -9    5.48    2.73
   4  11  -8    3.71    2.05
  -4  11   8    1.08    2.18
  -4 -11  -8    0.52    1.58
   4 -11   8    2.51    1.96
   4  11  -7    8.82    2.55
  -4 -11  -7    3.11    1.74
  -4  11   7    2.74    2.39
   4 -11   7    4.42    2.22
   4  11  -6    2.22    2.07
  -4 -11  -6    3.85    1.85
   4 -11   6    4.19    1.98
  -4  11   6    5.28    2.98
   4  11  -5    4.11    2.17
  -4 -11  -5    4.35    1.79
   4 -11   5    4.93    1.76
  -4  11   5   10.73    3.70
   4  11  -4    3.87    2.11
  -4 -11  -4    2.03    1.31
   4 -11   4    2.56    1.72
  -4  11   4    4.12    3.19
   4  11  -3    7.49    2.15
  -4 -11  -3    5.09    1.53
   4 -11   3    7.65    2.23
  -4  11   3    4.80    2.74
   4  11  -2    0.53    1.70
  -4 -11  -2    1.04    1.25
   4 -11   2   -1.72    1.37
  -4  11   2    3.27    3.48
   4  11  -1    9.20    2.44
  -4 -11  -1    4.83    1.66
   4 -11   1    8.31    1.97
  -4  11   1    1.90    3.07
   4  11   0    5.12    1.92
  -4 -11   0    4.54    1.57
   4 -11   0    5.93    1.88
  -4  11   0    3.58    2.93
   4  11   1    7.11    2.05
  -4 -11   1   10.30    1.94
   4 -11  -1    7.90    1.88
  -4  11  -1    6.39    1.55
  -4  11  -1    7.80    3.33
   4  11   2   -0.89    1.68
  -4 -11   2    0.59    1.04
  -4  11  -2    2.90    1.55
   4 -11  -2    0.70    1.13
  -4  11  -2    2.72    3.40
   4 -11  -3    3.91    1.54
   4  11   3    3.89    1.93
  -4 -11   3   10.26    2.00
  -4  11  -3    5.16    1.56
   4 -11  -3    5.97    1.92
  -4  11  -3    9.66    4.11
   4 -11  -4    5.47    1.82
   4  11   4    0.44    1.78
  -4 -11   4    3.26    1.40
  -4  11  -4    6.29    1.79
  -4  11  -4    2.90    2.85
   4 -11  -4    6.07    1.91
   4 -11  -5    7.52    2.37
   4  11   5    6.07    1.89
  -4 -11   5    3.80    1.36
  -4  11  -5    2.82    2.32
  -4  11  -5    5.18    1.82
   4 -11  -5    6.79    2.09
   4 -11  -6    2.71    1.59
   4  11   6    0.42    1.68
  -4 -11   6    2.87    1.52
  -4  11  -6    1.87    2.03
  -4  11  -6    3.13    1.72
   4 -11  -6    1.20    1.26
   4 -11  -7    4.13    1.68
   4  11   7    4.21    1.77
  -4  11  -7    2.30    2.14
  -4  11  -7    2.74    1.57
   4 -11  -7    4.33    1.65
   4 -11  -8   -0.34    1.45
   4  11   8    3.03    1.92
  -4  11  -8    0.99    2.61
  -4  11  -8    5.83    1.90
   4 -11  -8    0.36    1.31
   4  11   9    2.19    1.53
  -4  11  -9    5.06    2.48
  -4  11  -9    1.35    1.49
  -4 -11   9   -2.21    2.35
   4  11  10    6.74    2.43
  -4 -11  10    1.98    1.81
  -4  12   9    4.09    2.60
  -4 -12  -9    3.11    2.01
  -4 -12  -8    4.73    2.07
  -4  12   8    4.26    2.23
  -4 -12  -7   -1.17    1.73
   4 -12   7   -2.65    2.21
  -4  12   7   -1.31    2.23
   4  12  -6    0.81    1.54
  -4 -12  -6   -0.43    1.51
   4 -12   6    3.24    2.16
  -4  12   6    2.84    2.47
   4  12  -5    0.01    1.46
  -4 -12  -5   -0.83    1.54
   4 -12   5    1.45    1.61
  -4  12   5    1.26    2.26
   4  12  -4   -0.79    1.78
  -4 -12  -4    0.58    1.48
   4 -12   4    1.15    1.29
  -4  12   4    4.36    3.20
   4  12  -3    0.42    1.80
  -4 -12  -3    3.33    1.69
   4 -12   3    7.06    2.19
  -4  12   3    3.71    3.19
   4  12  -2   -0.09    1.34
  -4 -12  -2   -0.94    1.47
   4 -12   2    3.34    1.91
  -4  12   2   -2.66    3.47
  -4  12   1    0.62    3.03
   4  12  -1   -1.34    1.94
  -4 -12  -1    2.29    1.40
   4 -12   1   -0.85    1.81
  -4  12   0   -1.48    4.15
   4  12   0   -1.23    1.75
  -4 -12   0    0.76    1.18
   4 -12   0   -0.54    1.54
  -4  12  -1   -4.26    3.85
   4  12   1    0.29    1.48
  -4 -12   1   -1.12    1.08
   4 -12  -1   -2.22    1.49
   4  12   2   -0.14    1.23
  -4 -12   2    0.20    1.01
   4 -12  -2   -0.49    1.23
  -4  12  -2   -1.23    1.28
  -4  12  -2    3.16    2.78
   4 -12  -3    1.83    1.58
   4  12   3   -1.92    1.61
  -4 -12   3    2.00    1.28
  -4  12  -3    2.18    1.45
   4 -12  -3    2.26    1.75
  -4  12  -3   -0.41    3.29
   4 -12  -4    0.03    1.49
   4  12   4    1.04    1.57
  -4 -12   4    3.61    1.67
  -4  12  -4    3.06    1.71
   4 -12  -4    1.63    1.27
  -4  12  -4    1.00    2.30
   4 -12  -5   -0.38    1.59
   4  12   5   -0.64    1.79
  -4 -12   5    1.36    1.49
  -4  12  -5   -1.78    1.81
   4 -12  -5   -0.27    1.42
  -4  12  -5   -0.54    2.94
   4 -12  -6    1.97    1.72
   4  12   6    1.32    1.82
  -4 -12   6    1.80    1.38
  -4  12  -6   -3.32    1.53
  -4  12  -6   -4.40    3.31
   4 -12  -6    0.44    1.53
   4  12   7   -2.49    1.74
  -4  12  -7    2.76    3.00
  -4  12  -7    3.73    1.92
   4  12   8    1.34    1.86
  -4  12  -8    2.34    2.33
  -4  12  -8    2.85    1.75
  -4  12  -9    8.39    3.30
  -4 -13  -6    2.43    1.42
  -4 -13  -5    2.46    1.41
  -4  13   5    1.97    2.32
   4  13  -4    3.26    1.83
  -4 -13  -4   -1.53    1.56
   4 -13   4    0.30    1.72
  -4  13   4    5.66    2.88
  -4  13   3   15.07    4.55
   4  13  -3    9.81    2.39
  -4 -13  -3    9.33    1.99
   4 -13   3   14.68    2.81
  -4  13   2    2.61    2.89
   4  13  -2   -1.27    1.81
  -4 -13  -2    2.25    1.41
   4 -13   2    1.01    1.74
  -4  13   1    4.75    4.15
   4  13  -1    7.41    2.23
  -4 -13  -1    7.56    1.85
   4 -13   1   11.85    2.65
  -4  13   0    5.70    4.45
   4  13   0    0.73    1.90
  -4 -13   0    1.54    1.30
   4 -13   0    1.75    1.65
  -4  13  -1    9.95    4.72
   4  13   1   10.94    2.62
  -4 -13   1    9.12    2.06
   4 -13  -1   11.00    2.35
  -4  13  -2   -2.28    2.93
   4  13   2    0.74    1.37
  -4 -13   2   -1.64    1.65
   4 -13  -2    1.47    1.40
  -4  13  -2    0.93    1.43
   4 -13  -3   13.77    2.73
   4  13   3   14.18    2.82
  -4 -13   3   14.20    2.53
   4 -13  -3    9.46    2.23
  -4  13  -3   14.51    2.52
  -4  13  -4    7.26    3.91
   4 -13  -4    4.45    2.16
   4  13   4    1.54    1.82
  -4 -13   4    1.77    1.31
  -4  13  -4    1.30    1.63
   4  13   5   -1.36    1.87
  -4 -13   5    2.70    1.69
  -4  13  -5    4.82    1.76
  -4  13  -5    2.91    3.59
  -4 -13   6   -3.73    1.73
  -4  13  -6    3.83    1.80
  -4 -13   7    2.93    1.58
  -4 -14  -3    4.45    1.70
  -4 -14  -2    0.30    1.14
  -4 -14  -1    4.85    1.68
  -4 -14   0    1.74    1.66
  -4 -14   1    6.06    2.00
  -4 -14   2    0.02    1.22
  -4 -14   3    6.54    2.05
  -4  14  -3    4.26    1.74
  -4 -14   4    2.38    1.61
  -4  14  -4    4.17    1.95
  -4 -14   5   -0.97    1.66
   5   0   0   -0.46    1.13
  -5   0   0   -0.90    2.87
   5   0   1   -0.24    1.26
  -5   0   1   -0.16    2.62
  -5   0  -1    0.36    2.62
   5   0  -2    3.74    1.32
   5   0   2    4.87    1.75
  -5   0  -2    1.89    2.64
   5   0  -3    9.79    1.97
   5   0   3    9.19    2.06
  -5   0   3   14.48    3.48
  -5   0  -3   16.26    3.95
   5   0  -4    3.94    1.58
   5   0  -4    2.46    1.25
   5   0   4    1.52    1.26
  -5   0   4    3.91    3.01
  -5   0  -4    7.63    3.00
   5   0  -5   -0.08    1.16
   5   0  -5   -2.24    1.57
   5   0   5   -0.57    1.50
  -5   0   5    2.57    2.73
  -5   0  -5    2.77    2.71
   5   0  -6    1.97    1.48
   5   0  -6    1.17    1.42
   5   0   6    0.06    1.57
  -5   0   6    1.38    2.60
  -5   0  -6    0.49    2.22
   5   0  -7    5.63    2.09
   5   0   7    6.00    2.21
  -5   0   7    7.20    3.08
  -5   0  -7    7.13    2.50
   5   0  -8    1.66    1.71
   5   0   8    1.66    1.46
  -5   0   8   10.36    2.98
  -5   0  -8    7.81    2.91
   5   0  -9    6.39    2.18
   5   0   9    1.74    1.57
  -5   0   9    2.66    2.11
  -5   0  -9    4.94    2.39
   5   0 -10    1.33    2.15
   5   0  10    2.58    2.13
  -5   0  10    3.23    2.45
  -5   0 -10    2.11    1.78
   5   0 -11    0.97    1.58
   5   1 -11    3.51    1.96
  -5   1  10    4.38    2.34
   5   1 -10    1.24    2.08
   5  -1  10    1.22    1.71
  -5  -1 -10    2.63    2.13
   5   1  -9    3.88    2.00
   5  -1   9    1.40    1.75
  -5  -1  -9   -1.31    1.70
  -5   1   9    5.34    2.49
   5   1  -8    2.85    1.90
   5  -1   8    2.21    1.54
  -5  -1  -8    4.56    2.29
   5   1  -7    3.70    1.84
   5   1  -7    3.77    1.67
   5  -1   7    6.04    2.01
  -5  -1  -7    8.69    2.91
  -5   1   7    0.86    2.11
   5   1  -6    4.87    1.82
   5  -1   6    3.77    1.68
  -5  -1  -6    7.15    3.01
  -5   1   6    6.90    2.76
   5   1  -5    0.96    1.47
   5  -1   5   -0.55    1.27
  -5  -1  -5    4.87    2.94
  -5   1   5    3.35    2.35
   5   1  -4    6.30    1.71
   5  -1   4    7.18    2.01
  -5  -1  -4    8.65    3.47
  -5   1   4    6.49    3.04
   5   1  -3    7.16    1.73
   5  -1   3    5.72    1.79
  -5  -1  -3    7.72    2.99
  -5   1   3    7.73    3.16
   5   1  -2    3.76    1.52
   5  -1   2    2.75    1.50
  -5  -1  -2    0.32    2.65
  -5   1   2    1.42    2.35
   5   1  -1    5.34    1.56
  -5  -1  -1    6.88    2.96
  -5   1   1    9.76    3.51
  -5  -1   0    7.41    2.89
  -5   1   0    9.14    3.31
   5  -1  -1    3.59    1.27
   5  -1  -1    4.34    1.32
   5   1   1    5.13    1.67
  -5  -1   1    7.19    2.92
  -5   1  -1    2.46    2.51
   5  -1  -2    1.65    1.11
   5   1   2    1.83    1.30
   5  -1  -2    2.49    1.12
  -5  -1   2    2.02    2.63
  -5   1  -2    3.53    2.67
   5  -1  -3    7.67    1.77
   5  -1  -3    6.51    1.75
   5   1   3    7.83    1.99
  -5  -1   3    4.14    2.72
  -5   1  -3    6.71    3.22
   5  -1  -4    6.96    2.02
   5  -1  -4    5.51    1.58
   5   1   4    7.62    2.06
  -5  -1   4   11.60    3.59
  -5   1  -4   10.25    3.24
   5  -1  -5    0.00    1.32
   5  -1  -5    1.28    1.40
   5   1   5    3.60    1.56
  -5  -1   5    3.65    2.27
  -5   1  -5    5.25    2.96
   5  -1  -6    1.12    1.57
   5   1   6    4.52    2.06
  -5  -1   6    1.47    1.86
  -5   1  -6    4.76    2.46
   5  -1  -7    3.04    1.84
   5   1   7    2.06    1.58
  -5  -1   7    3.14    2.76
  -5   1  -7    6.25    2.85
   5  -1  -8    6.73    2.20
   5   1   8    3.15    1.76
  -5  -1   8   -0.42    2.29
  -5   1  -8    7.06    2.35
   5  -1  -9    3.68    1.71
   5   1   9    0.84    1.84
  -5  -1   9    2.65    2.33
  -5   1  -9   -1.03    1.98
  -5   1 -10    6.50    2.60
   5  -1 -10    4.55    2.26
  -5  -1  10    1.43    1.97
   5  -1 -11   -0.15    1.94
  -5   2  10    1.52    2.08
   5  -2  10   -0.30    1.65
  -5  -2 -10   -0.24    1.93
  -5   2   9    8.85    3.25
   5   2  -9    1.18    1.85
  -5   2   9    5.99    2.20
   5  -2   9    5.08    2.24
  -5  -2  -9    2.56    2.17
  -5   2   8   -0.34    1.96
   5   2  -8    2.34    1.73
   5  -2   8    3.48    2.29
  -5  -2  -8    1.24    1.83
   5   2  -7    3.25    1.69
   5  -2   7    0.81    1.88
  -5  -2  -7    2.90    2.43
  -5   2   7   -0.82    2.53
   5   2  -6   -0.99    1.25
   5  -2   6   -0.90    1.74
  -5  -2  -6    0.91    2.16
  -5   2   6    1.25    2.55
   5   2  -5    4.79    1.92
   5  -2   5    7.24    2.24
  -5  -2  -5    3.71    2.45
  -5   2   5    6.56    3.27
   5   2  -4   -0.55    1.21
   5  -2   4    2.15    1.47
  -5  -2  -4    4.49    2.61
   5   2  -3    2.43    1.29
  -5   2   3    5.13    2.94
   5  -2   3    1.91    1.33
  -5  -2  -3    1.49    2.91
  -5   2   3   -1.48    2.25
   5  -2   2    2.32    1.15
   5   2  -2   -0.41    1.42
  -5   2   2    2.13    2.74
  -5  -2  -2    0.37    2.27
  -5   2   2    3.13    3.36
   5  -2   1    1.87    1.23
   5   2  -1    4.90    1.46
  -5   2   1    1.11    2.04
   5  -2   1    3.72    1.31
  -5  -2  -1    3.02    2.39
  -5   2   1    5.79    3.58
   5  -2   0    1.01    1.09
   5   2   0    3.20    1.36
  -5   2   0    0.71    2.37
   5  -2   0    0.38    0.98
  -5  -2   0    5.72    3.31
  -5   2   0   -3.85    3.38
   5  -2  -1    4.97    1.35
   5   2   1    3.45    1.35
  -5   2  -1    2.93    2.43
   5  -2  -1    5.35    1.40
  -5  -2   1    2.44    2.65
  -5   2  -1    5.07    3.12
   5  -2  -2    1.22    1.20
  -5   2  -2    1.45    2.16
   5   2   2   -1.80    1.41
   5  -2  -2   -1.26    1.23
  -5  -2   2    1.13    1.96
  -5   2  -2   -1.46    2.99
   5  -2  -3    3.16    1.63
  -5   2  -3    2.94    2.82
   5   2   3    1.91    1.54
   5  -2  -3    3.48    1.51
  -5  -2   3    0.82    2.55
  -5   2  -3   -0.16    2.48
   5  -2  -4    5.76    1.92
   5   2   4    0.16    1.51
  -5  -2   4   -0.15    1.95
  -5   2  -4   -0.31    2.15
   5  -2  -5    7.55    2.00
   5  -2  -5    7.27    2.00
   5   2   5    4.15    1.71
  -5  -2   5    2.69    2.21
  -5   2  -5    8.57    3.25
   5  -2  -6    0.26    1.46
   5   2   6   -0.04    1.64
  -5  -2   6    3.24    2.67
  -5   2  -6   -1.39    2.23
   5  -2  -7    1.31    1.53
   5   2   7   -1.96    1.44
  -5  -2   7   -1.85    2.02
  -5   2  -7    2.69    2.12
  -5   2  -8   -1.04    2.46
   5  -2  -8    1.89    1.93
   5   2   8    0.59    1.74
  -5  -2   8    0.47    2.33
  -5   2  -9    1.30    1.92
   5  -2  -9    6.75    2.32
   5   2   9    6.39    2.27
  -5  -2   9    6.66    2.53
   5  -2 -10    2.68    1.89
   5   2  10    0.15    1.59
  -5  -2  10   -0.47    1.67
  -5   3  10    0.58    2.19
   5  -3  10    0.72    1.95
  -5  -3 -10    3.42    2.17
   5   3  -9    2.51    1.63
  -5   3   9    1.76    2.07
   5  -3   9    3.43    2.22
  -5  -3  -9   -0.53    2.13
   5   3  -8    1.53    1.75
  -5   3   8    0.34    1.81
   5  -3   8    3.74    1.95
  -5  -3  -8    1.53    2.00
  -5   3   7    7.39    3.38
   5   3  -7    5.49    2.07
   5  -3   7    3.81    2.01
  -5  -3  -7    4.10    2.39
  -5   3   6    0.62    2.10
   5   3  -6    5.85    2.14
  -5   3   6    4.65    2.61
   5  -3   6    1.85    1.97
  -5  -3  -6    1.08    1.72
  -5   3   5    2.82    2.35
   5   3  -5    1.78    1.64
  -5   3   5    3.92    2.58
   5  -3   5    5.13    1.98
  -5  -3  -5    2.82    2.07
  -5   3   4    4.11    3.03
   5   3  -4   -0.02    1.40
  -5   3   4    1.20    2.46
   5  -3   4    1.80    1.67
  -5  -3  -4    2.10    2.15
   5   3  -3    5.75    1.67
  -5   3   3    6.11    2.85
  -5  -3  -3    2.20    2.79
  -5   3   3    4.81    3.27
   5   3  -2    1.46    1.38
  -5   3   2    0.24    2.26
   5  -3   2    5.58    1.58
  -5  -3  -2   -0.08    2.07
  -5   3   2    4.50    3.12
   5  -3   1    6.25    1.59
   5   3  -1    5.13    1.68
  -5   3   1    6.05    2.95
   5  -3   1    7.85    1.69
  -5  -3  -1    8.65    3.58
  -5   3   1    4.28    2.46
   5  -3   0    4.15    1.47
   5   3   0    3.59    1.50
  -5   3   0    2.14    2.54
   5  -3   0    4.18    1.29
  -5  -3   0    9.30    3.57
  -5   3   0    6.79    3.00
   5  -3  -1    7.13    1.82
   5   3   1    6.55    1.62
  -5   3  -1    5.78    2.95
   5  -3  -1    6.95    1.59
  -5  -3   1    5.04    3.21
  -5   3  -1    5.07    2.52
   5  -3  -2    6.05    1.69
   5   3   2    3.70    1.35
  -5   3  -2    3.21    2.41
   5  -3  -2    1.41    1.29
  -5  -3   2    1.46    2.43
  -5   3  -2    2.33    2.98
   5  -3  -3    6.73    1.71
  -5   3  -3    7.73    3.41
   5   3   3   -0.03    1.41
   5  -3  -3    3.28    1.24
  -5  -3   3   -0.24    3.20
  -5   3  -3    3.41    2.71
  -5   3  -4   -0.85    2.90
   5  -3  -4    0.00    1.18
  -5   3  -4    0.38    1.67
   5   3   4   -0.67    1.08
  -5  -3   4    2.81    2.25
  -5   3  -5    3.59    2.58
   5  -3  -5    4.07    1.69
  -5   3  -5    3.59    2.71
   5   3   5    5.60    2.04
  -5  -3   5    0.94    2.47
  -5   3  -6    8.45    3.31
   5  -3  -6    2.15    1.68
  -5   3  -6    2.89    2.37
   5   3   6    0.24    1.24
  -5  -3   6    5.06    2.55
  -5   3  -7    0.80    2.54
   5  -3  -7    5.88    1.94
  -5   3  -7    6.15    2.60
   5   3   7    7.08    2.37
  -5  -3   7    4.34    2.62
   5  -3  -8    2.41    1.74
   5   3   8    1.15    1.31
  -5  -3   8    2.96    2.38
   5  -3  -9    1.41    1.65
  -5  -3   9   -1.69    2.15
   5  -3 -10    1.49    1.52
  -5  -3  10    0.44    2.02
   5  -4  10   -0.90    2.07
  -5  -4 -10    3.08    2.15
   5   4  -9    0.64    1.60
  -5   4   9    1.69    1.99
   5  -4   9    1.39    2.01
  -5  -4  -9   -1.00    2.04
   5   4  -8    3.78    2.05
  -5   4   8    3.11    2.13
  -5   4   8    6.03    2.49
   5  -4   8    2.37    1.87
  -5  -4  -8    5.33    2.67
   5   4  -7    2.40    2.00
  -5   4   7    1.62    2.19
  -5   4   7    3.94    1.86
   5  -4   7   -2.25    1.99
  -5  -4  -7    0.18    2.29
   5   4  -6    8.19    2.46
  -5   4   6    9.01    3.04
   5  -4   6   10.57    2.79
  -5  -4  -6    8.63    2.93
   5   4  -5   -0.27    1.47
  -5   4   5   -0.05    2.41
  -5  -4  -5    4.86    2.70
  -5   4   4    5.43    3.02
   5   4  -4    5.06    1.84
  -5   4   4    9.00    3.26
   5  -4   4    6.25    1.84
  -5  -4  -4    4.37    2.60
  -5   4   3    4.10    3.14
   5   4  -3    1.54    1.51
  -5   4   3   -3.62    2.78
   5  -4   3    0.10    0.96
  -5  -4  -3    2.84    3.15
  -5   4   2   12.71    3.65
   5   4  -2   14.20    2.43
  -5   4   2   10.76    3.57
   5  -4   2   11.92    2.01
  -5  -4  -2   14.89    3.78
  -5   4   1    3.71    3.63
   5  -4   1    0.85    1.14
   5   4  -1    3.05    1.63
  -5   4   1    3.06    2.49
   5  -4   1    5.26    1.47
  -5  -4  -1    4.64    3.20
  -5   4   0   14.87    4.31
   5  -4   0   10.01    1.99
   5   4   0    9.51    1.99
  -5   4   0    6.31    2.95
   5  -4   0    9.68    1.86
  -5   4  -1    4.41    3.04
   5  -4  -1    5.06    1.72
   5   4   1    1.30    1.04
  -5   4  -1    4.55    2.65
   5  -4  -1    4.84    1.59
  -5  -4   1    2.03    2.75
  -5   4  -2    6.26    2.93
   5  -4  -2   16.56    2.47
   5   4   2   12.68    2.11
  -5   4  -2   13.06    3.25
   5  -4  -2   13.97    2.27
  -5  -4   2   10.90    3.37
  -5   4  -3    0.15    2.99
   5  -4  -3    0.28    1.10
   5   4   3    0.76    1.24
  -5   4  -3    2.48    2.80
   5  -4  -3    1.50    1.37
  -5  -4   3   -0.29    2.70
   5  -4  -4    5.04    1.59
  -5   4  -4    3.46    2.36
   5   4   4    5.95    2.10
   5  -4  -4    5.23    1.69
  -5  -4   4    9.97    3.27
   5  -4  -5    0.35    1.20
  -5   4  -5   -2.04    2.71
   5   4   5    0.79    1.28
  -5  -4   5    2.15    2.63
   5  -4  -6    2.80    1.64
  -5   4  -6    7.04    2.95
   5   4   6    9.40    2.29
  -5  -4   6    8.33    3.24
   5  -4  -7    3.79    1.76
  -5   4  -7    3.26    2.07
   5   4   7    1.73    1.50
  -5  -4   7    3.58    2.43
   5  -4  -8    4.82    1.98
  -5   4  -8    6.98    3.15
   5   4   8    4.47    1.90
  -5  -4   8   -0.42    2.38
   5  -4  -9   -0.76    1.46
  -5   4  -9    3.03    2.03
   5   4   9    0.59    1.64
  -5  -4   9    0.36    1.91
  -5  -4  10    0.58    2.09
  -5   5  10   -4.04    2.68
  -5  -5 -10   -1.10    2.13
  -5   5   9   -1.04    1.64
  -5   5   9    0.81    2.04
   5  -5   9    3.33    1.96
  -5  -5  -9   -3.43    2.50
   5   5  -8    0.73    1.71
  -5   5   8   -0.18    1.75
  -5   5   8   -0.23    1.79
   5  -5   8    5.55    2.53
  -5  -5  -8   -1.73    1.91
   5   5  -7   -1.02    1.52
  -5   5   7   -1.37    2.11
  -5  -5  -7    1.02    2.32
   5   5  -6    4.50    1.92
  -5   5   6    2.81    2.59
  -5  -5  -6    1.72    2.37
   5   5  -5    2.42    1.57
   5  -5   5    0.08    1.36
  -5   5   5    3.81    2.75
  -5  -5  -5   -1.06    2.34
   5   5  -4    1.16    1.70
   5  -5   4    3.89    1.77
  -5   5   4   -3.06    2.96
  -5  -5  -4    1.51    2.77
   5   5  -3    2.41    1.64
   5  -5   3    3.69    1.66
  -5   5   3    1.08    2.17
  -5  -5  -3   -1.39    2.83
   5   5  -2   -1.13    1.44
   5  -5   2   -0.56    1.37
  -5   5   2    1.50    3.22
  -5  -5  -2    1.94    2.95
   5   5  -1    0.75    1.38
   5  -5   1   -1.31    1.39
  -5   5   1   -3.38    2.62
  -5  -5  -1    3.64    2.64
   5  -5   0    4.14    1.56
   5   5   0    2.04    1.53
  -5   5   0    2.42    2.37
   5  -5   0    3.43    1.41
  -5  -5   0    2.15    2.52
   5  -5  -1    2.66    1.41
   5   5   1   -1.21    1.31
  -5   5  -1    3.05    2.37
   5  -5  -1   -0.08    1.23
  -5  -5   1   -1.61    2.71
   5  -5  -2    1.17    1.07
   5   5   2   -0.18    1.18
  -5   5  -2   -1.69    2.76
   5  -5  -2    1.07    1.09
  -5  -5   2    4.67    2.86
   5  -5  -3   -0.82    1.24
   5   5   3    0.35    1.28
  -5   5  -3   -2.53    2.78
   5  -5  -3    0.59    1.17
  -5  -5   3    1.04    2.82
   5  -5  -4    1.34    1.32
   5   5   4    1.91    1.38
  -5   5  -4   -1.54    2.74
   5  -5  -4    1.39    1.07
  -5  -5   4    3.57    2.63
   5  -5  -5    0.48    1.43
  -5   5  -5   -1.72    2.23
   5   5   5    1.13    1.26
  -5  -5   5   -1.47    2.12
   5  -5  -6    5.80    2.12
  -5   5  -6    1.22    1.80
   5   5   6    3.37    1.93
  -5  -5   6    1.13    2.02
   5  -5  -7    2.51    1.82
  -5   5  -7    1.20    2.35
   5   5   7    1.95    1.39
  -5  -5   7    0.05    2.01
   5  -5  -8    0.31    1.67
  -5   5  -8   -0.32    2.54
   5   5   8   -0.06    1.67
  -5  -5   8   -1.12    2.40
   5  -5  -9    0.21    1.75
  -5   5  -9   -0.71    1.56
  -5  -5   9   -2.53    2.09
  -5  -5  10    2.95    2.11
  -5   6  10    0.93    1.97
   5  -6  10    0.43    1.45
  -5   6   9    1.47    1.74
  -5  -6  -9   -0.09    1.59
  -5   6   8    1.57    2.17
  -5  -6  -8    7.04    2.62
   5   6  -7   -1.27    1.80
   5  -6   7   -2.86    1.94
  -5   6   7    2.32    2.02
  -5  -6  -7    0.94    2.03
   5   6  -6    1.45    1.58
   5  -6   6    7.20    2.12
  -5   6   6    3.21    2.04
  -5  -6  -6    0.67    2.46
   5   6  -5    1.66    1.73
   5  -6   5    3.87    1.83
  -5   6   5    4.77    2.44
  -5  -6  -5    8.27    3.44
   5   6  -4   -0.98    1.77
   5  -6   4    3.37    1.54
  -5   6   4    3.19    2.34
  -5  -6  -4   -1.14    2.41
   5   6  -3    0.66    1.54
   5  -6   3   -0.01    1.18
  -5   6   3   -4.60    3.11
  -5  -6  -3   -2.80    3.02
   5   6  -2    8.73    2.19
   5  -6   2   10.41    2.06
  -5   6   2    9.77    3.19
  -5  -6  -2    8.47    3.32
   5   6  -1    4.31    1.72
   5  -6   1    4.16    1.67
  -5   6   1    1.85    3.11
  -5  -6  -1    6.36    3.86
   5  -6   0    1.33    1.43
   5   6   0    2.82    1.71
   5  -6   0    4.96    1.55
  -5   6   0    6.69    3.71
  -5  -6   0    0.54    3.49
   5  -6  -1    3.95    1.72
   5   6   1    2.58    1.39
   5  -6  -1    5.10    1.78
  -5  -6   1    2.01    3.27
   5  -6  -2    7.35    1.97
   5   6   2    4.84    1.76
   5  -6  -2   12.82    2.32
  -5   6  -2   10.22    3.52
  -5  -6   2   15.18    4.57
   5  -6  -3    0.60    1.37
   5   6   3    0.11    1.32
  -5   6  -3   -1.21    2.55
   5  -6  -3    2.68    1.58
  -5  -6   3    4.18    2.49
   5  -6  -4    3.61    1.66
   5   6   4    3.53    1.55
  -5   6  -4    4.52    3.05
   5  -6  -4   -0.11    1.38
  -5  -6   4    3.79    2.87
   5  -6  -5    1.99    1.33
   5   6   5    4.60    1.72
  -5   6  -5    6.13    3.23
   5  -6  -5    1.87    1.23
  -5  -6   5   -0.28    2.60
   5  -6  -6    4.73    1.72
  -5   6  -6    2.75    2.78
   5   6   6    5.21    2.14
  -5  -6   6   -2.90    3.04
   5  -6  -7    0.66    1.42
  -5   6  -7   -0.60    2.56
   5   6   7    1.76    1.76
  -5  -6   7   -5.19    3.26
   5  -6  -8    2.58    1.82
  -5   6  -8   -0.62    2.12
  -5  -6   8    4.05    2.69
  -5   6  -9    1.40    2.26
  -5  -6   9    0.73    2.42
  -5  -7  -9   -1.97    2.33
   5  -7   8    5.53    2.20
  -5   7   8    8.76    2.71
  -5  -7  -8    3.17    2.49
   5  -7   7   -1.76    1.85
  -5   7   7    6.07    2.69
  -5  -7  -7    1.02    2.70
   5   7  -6   -0.88    1.87
   5  -7   6    1.51    1.51
  -5   7   6    0.25    2.44
  -5  -7  -6    1.77    2.50
   5   7  -5    2.81    2.05
   5  -7   5    2.18    1.45
  -5   7   5   -0.71    2.51
  -5  -7  -5    2.35    2.75
   5   7  -4    2.52    1.53
   5  -7   4    3.75    1.71
  -5   7   4    5.82    3.02
  -5  -7  -4    4.05    3.61
   5   7  -3   -2.57    1.95
   5  -7   3   -2.59    1.74
  -5  -7  -3   -0.73    3.03
  -5   7   3   -0.42    2.20
   5   7  -2    3.57    1.80
   5  -7   2    1.37    1.18
  -5  -7  -2    9.10    4.30
  -5   7   2    4.25    3.21
   5   7  -1   -0.36    1.28
   5  -7   1   -1.94    1.58
  -5  -7  -1    0.33    2.85
  -5   7   1    2.54    2.44
   5   7   0    2.36    1.54
   5  -7   0    4.52    1.64
  -5  -7   0    1.32    2.51
  -5   7   0    5.93    3.18
   5  -7  -1   -2.62    1.76
   5   7   1    3.83    1.85
   5  -7  -1    1.11    1.12
  -5  -7   1    0.26    2.42
  -5   7  -1   -4.12    2.73
   5  -7  -2    3.45    1.80
   5   7   2    3.50    1.57
   5  -7  -2    1.71    1.27
  -5  -7   2    2.83    3.38
  -5   7  -2    0.34    2.74
   5  -7  -3   -0.49    1.50
   5   7   3    4.58    1.88
   5  -7  -3    1.65    1.21
  -5  -7   3    6.19    3.38
  -5   7  -3    2.15    2.88
   5  -7  -4    0.59    1.46
   5   7   4   -0.07    1.49
   5  -7  -4    6.64    2.03
  -5   7  -4   -0.17    2.49
  -5  -7   4    1.58    2.75
   5  -7  -5   -0.36    1.51
   5   7   5    1.92    1.52
   5  -7  -5    4.56    1.60
  -5   7  -5   -2.46    2.44
  -5  -7   5   -1.92    2.47
   5  -7  -6    4.24    2.06
   5   7   6    2.83    1.74
   5   7   6    4.52    1.83
  -5   7  -6   -1.70    2.40
   5  -7  -6    0.53    1.51
  -5  -7   6    1.31    1.85
   5  -7  -7   -2.30    2.00
  -5   7  -7   -2.43    2.35
  -5  -7   7    3.13    2.27
  -5   7  -8    0.11    2.52
  -5  -7   8    0.61    2.50
   5  -8   8    1.87    1.70
   5  -8   7    3.51    2.03
   5  -8   6    2.07    1.39
  -5   8   6    0.47    2.38
  -5  -8  -6   -0.10    2.09
   5   8  -5    7.93    2.26
   5  -8   5    3.60    1.89
  -5  -8  -5    5.49    2.91
  -5   8   5    2.39    2.60
   5   8  -4   -0.58    1.48
   5  -8   4    1.30    1.53
  -5  -8  -4    3.96    3.42
  -5   8   4   -1.54    2.64
   5   8  -3    3.02    1.98
   5  -8   3    7.08    2.22
  -5  -8  -3   -1.22    3.15
  -5   8   3   -1.81    2.47
   5   8  -2    2.30    1.62
   5  -8   2    3.12    1.51
  -5  -8  -2   -1.25    3.10
  -5   8   2    3.98    3.63
   5   8  -1    4.15    1.67
   5  -8   1    6.46    1.99
  -5  -8  -1    6.10    3.56
  -5   8   1    5.06    2.84
   5   8   0   -1.16    1.31
   5  -8   0    1.25    1.56
  -5  -8   0   -1.33    2.78
  -5   8   0    3.01    2.71
   5  -8  -1    4.39    1.71
   5   8   1    3.58    1.55
   5  -8  -1    8.61    2.29
  -5  -8   1    3.52    3.22
  -5   8  -1    4.58    2.88
   5  -8  -2   -1.28    1.60
   5   8   2    3.44    1.84
   5  -8  -2    4.94    1.98
  -5  -8   2    2.12    2.52
  -5   8  -2   -3.13    3.28
   5  -8  -3    2.45    1.65
   5   8   3    1.76    1.55
   5  -8  -3   -0.38    1.33
  -5  -8   3    1.13    3.13
  -5   8  -3   -2.66    3.68
   5  -8  -4   -1.95    1.72
   5   8   4   -1.34    1.62
   5  -8  -4   -1.76    1.56
  -5  -8   4    3.80    2.60
  -5   8  -4   -3.25    2.85
   5  -8  -5    3.04    1.81
   5   8   5    1.71    1.28
   5  -8  -5    7.16    2.00
  -5  -8   5   10.91    4.08
  -5   8  -5   10.62    3.43
   5   8   6    1.94    1.42
  -5  -8   6    2.42    3.02
  -5   8  -6    2.96    2.70
   5   8   7    0.57    1.50
   5  -9   5    0.12    1.22
   5  -9   4    2.57    1.89
   5   9  -3   -0.04    1.70
   5  -9   3   -2.00    1.65
   5   9  -2    0.67    1.60
   5  -9   2   -0.48    1.27
  -5  -9  -2    1.01    3.22
   5  -9   1   -3.68    1.71
  -5  -9  -1   -5.60    3.74
  -5   9   0   -0.67    2.61
   5   9   0    2.77    1.86
   5  -9   0    4.16    1.73
  -5  -9   0    3.35    3.50
   5  -9  -1    0.19    1.60
   5   9   1    1.37    1.73
   5  -9  -1    2.02    1.39
  -5  -9   1   -0.39    2.62
   5  -9  -2    1.63    1.50
   5   9   2    0.14    1.44
   5  -9  -2    2.15    1.43
   5  -9  -3   -1.54    1.45
   5   9   3    0.74    1.55
   5  -9  -3   -1.07    1.64
   5   9   4    4.20    1.97
   5   9   5    0.56    1.34
   5   9   6    3.35    1.90
   5   9   7    3.22    1.91
   5  10   0    2.14    1.95
   5  10   1    1.54    1.87
   5  10   2    2.24    1.99
   5  10   3    6.37    2.21
   0   0   0    0.00    0.00
;
_shelx_hkl_checksum              91367
loop_
_space_group_symop_operation_xyz
'x, y, z'
'-x+1/2, -y, z+1/2'
'-x, y+1/2, -z+1/2'
'x+1/2, -y+1/2, -z'
loop_
_atom_site_label
_atom_site_type_symbol
_atom_site_fract_x
_atom_site_fract_y
_atom_site_fract_z
_atom_site_U_iso_or_equiv
_atom_site_adp_type
_atom_site_occupancy
_atom_site_site_symmetry_order
_atom_site_calc_flag
_atom_site_refinement_flags_posn
_atom_site_refinement_flags_adp
_atom_site_refinement_flags_occupancy
_atom_site_disorder_assembly
_atom_site_disorder_group
C11 C 0.2979(12) 0.2280(4) 0.3360(4) 0.0247(12) Uani 1 1 d . . . . .
Br11 Br 0.43826(13) 0.10723(4) 0.39149(4) 0.03496(16) Uani 1 1 d . . . . .
C12 C 0.1354(11) 0.2249(4) 0.2501(3) 0.0247(12) Uani 1 1 d . . . . .
H12 H 0.0929 0.1650 0.2199 0.030 Uiso 1 1 calc R U . . .
C13 C 0.0382(12) 0.3143(4) 0.2109(3) 0.0249(11) Uani 1 1 d . . . . .
Br13 Br -0.18039(13) 0.31242(4) 0.09253(4) 0.03417(15) Uani 1 1 d . . . . .
C14 C 0.0968(11) 0.4038(4) 0.2543(4) 0.0258(12) Uani 1 1 d . . . . .
H14 H 0.0281 0.4631 0.2269 0.031 Uiso 1 1 calc R U . . .
C15 C 0.2620(12) 0.4030(4) 0.3403(4) 0.0268(13) Uani 1 1 d . . . . .
Br15 Br 0.35318(13) 0.52453(4) 0.40151(5) 0.03821(17) Uani 1 1 d . . . . .
C16 C 0.3655(11) 0.3155(4) 0.3824(3) 0.0277(11) Uani 1 1 d . . . . .
H16 H 0.4766 0.3158 0.4400 0.033 Uiso 1 1 calc R U . . .
loop_
_atom_site_aniso_label
_atom_site_aniso_U_11
_atom_site_aniso_U_22
_atom_site_aniso_U_33
_atom_site_aniso_U_23
_atom_site_aniso_U_13
_atom_site_aniso_U_12
C11 0.022(2) 0.023(3) 0.029(3) 0.002(2) 0.007(3) 0.000(3)
Br11 0.0405(3) 0.0270(3) 0.0374(3) 0.0041(3) -0.0026(3) 0.0045(2)
C12 0.026(3) 0.023(3) 0.025(3) -0.004(2) 0.004(2) -0.002(2)
C13 0.021(3) 0.033(3) 0.020(3) -0.002(3) 0.002(2) -0.003(3)
Br13 0.0364(3) 0.0434(3) 0.0226(3) 0.0021(3) -0.0017(3) -0.0025(3)
C14 0.026(3) 0.026(3) 0.025(3) 0.000(2) 0.003(2) -0.003(2)
C15 0.025(3) 0.022(3) 0.034(3) -0.002(2) 0.004(2) -0.005(2)
Br15 0.0452(3) 0.0254(3) 0.0440(4) -0.0063(3) -0.0058(3) -0.0049(2)
C16 0.028(3) 0.034(3) 0.021(3) 0.002(3) 0.001(2) -0.003(2)
loop_
_atom_type_symbol
_atom_type_description
_atom_type_scat_dispersion_real
_atom_type_scat_dispersion_imag
_atom_type_scat_source
C C 0.0033 0.0016 'International Tables Vol C Tables 4.2.6.8 and 6.1.1.4'
H H 0.0000 0.0000 'International Tables Vol C Tables 4.2.6.8 and 6.1.1.4'
Br Br -0.2901 2.4595 'International Tables Vol C Tables 4.2.6.8 and 6.1.1.4'
loop_
_geom_angle_atom_site_label_1
_geom_angle_atom_site_label_2
_geom_angle_atom_site_label_3
_geom_angle
_geom_angle_site_symmetry_1
_geom_angle_site_symmetry_3
_geom_angle_publ_flag
C16 C11 C12 122.7(5) . . ?
C16 C11 Br11 118.6(4) . . ?
C12 C11 Br11 118.7(4) . . ?
C11 C12 C13 117.5(4) . . ?
C11 C12 H12 121.3 . . ?
C13 C12 H12 121.3 . . ?
C14 C13 C12 122.4(4) . . ?
C14 C13 Br13 119.2(4) . . ?
C12 C13 Br13 118.4(4) . . ?
C13 C14 C15 117.9(5) . . ?
C13 C14 H14 121.1 . . ?
C15 C14 H14 121.1 . . ?
C16 C15 C14 121.9(5) . . ?
C16 C15 Br15 118.8(4) . . ?
C14 C15 Br15 119.2(4) . . ?
C11 C16 C15 117.6(4) . . ?
C11 C16 H16 121.2 . . ?
C15 C16 H16 121.2 . . ?
loop_
_geom_bond_atom_site_label_1
_geom_bond_atom_site_label_2
_geom_bond_distance
_geom_bond_site_symmetry_2
_geom_bond_publ_flag
C11 C16 1.376(7) . ?
C11 C12 1.382(7) . ?
C11 Br11 1.894(5) . ?
C12 C13 1.383(7) . ?
C12 H12 0.9300 . ?
C13 C14 1.374(7) . ?
C13 Br13 1.894(5) . ?
C14 C15 1.388(7) . ?
C14 H14 0.9300 . ?
C15 C16 1.386(7) . ?
C15 Br15 1.889(5) . ?
C16 H16 0.9300 . ?
loop_
_geom_torsion_atom_site_label_1
_geom_torsion_atom_site_label_2
_geom_torsion_atom_site_label_3
_geom_torsion_atom_site_label_4
_geom_torsion
_geom_torsion_site_symmetry_1
_geom_torsion_site_symmetry_2
_geom_torsion_site_symmetry_3
_geom_torsion_site_symmetry_4
_geom_torsion_publ_flag
C16 C11 C12 C13 -0.2(7) . . . . ?
Br11 C11 C12 C13 -179.5(3) . . . . ?
C11 C12 C13 C14 -0.2(7) . . . . ?
C11 C12 C13 Br13 179.2(3) . . . . ?
C12 C13 C14 C15 0.4(7) . . . . ?
Br13 C13 C14 C15 -179.0(3) . . . . ?
C13 C14 C15 C16 -0.2(7) . . . . ?
C13 C14 C15 Br15 179.1(4) . . . . ?
C12 C11 C16 C15 0.4(7) . . . . ?
Br11 C11 C16 C15 179.7(4) . . . . ?
C14 C15 C16 C11 -0.2(7) . . . . ?
Br15 C15 C16 C11 -179.5(4) . . . . ?

_cod_database_fobs_code 2108854
