#------------------------------------------------------------------------------
#$Date: 2018-11-17 05:34:44 +0200 (Sat, 17 Nov 2018) $
#$Revision: 212032 $
#$URL: file:///home/coder/svn-repositories/cod/cif/2/10/83/2108313.cif $
#------------------------------------------------------------------------------
#
# This file is available in the Crystallography Open Database (COD),
# http://www.crystallography.net/. The original data for this entry
# were provided by IUCr Journals, http://journals.iucr.org/.
#
# The file may be used within the scientific community so long as
# proper attribution is given to the journal article from which the
# data were obtained.
#
data_2108313
loop_
_publ_author_name
'Mondal, Pradip Kumar'
'Shukla, Rahul'
'Biswas, Subha'
'Chopra, Deepak'
_publ_section_title
;
 Role of halogen-involved intermolecular interactions and existence of
 isostructurality in the crystal packing of ---CF~3~ and halogen (Cl or Br
 or I) substituted benzamides
;
_journal_coeditor_code           AW5013
_journal_issue                   6
_journal_name_full               'Acta Crystallographica Section B'
_journal_page_first
;
;
_journal_paper_doi               10.1107/S2052520618013422
_journal_volume                  74
_journal_year                    2018
_chemical_formula_sum            'C14 H9 Br F3 N O'
_chemical_formula_weight         344.13
_space_group_crystal_system      monoclinic
_space_group_IT_number           4
_space_group_name_Hall           'P 2yb'
_space_group_name_H-M_alt        'P 1 21 1'
_symmetry_space_group_name_Hall  'P 2yb'
_symmetry_space_group_name_H-M   'P 1 21 1'
_atom_sites_solution_hydrogens   mixed
_audit_creation_method           SHELXL-2016/6
_cell_angle_alpha                90
_cell_angle_beta                 91.448(5)
_cell_angle_gamma                90
_cell_formula_units_Z            2
_cell_length_a                   4.8588(4)
_cell_length_b                   4.9939(4)
_cell_length_c                   26.0286(19)
_cell_measurement_reflns_used    2029
_cell_measurement_temperature    100(2)
_cell_measurement_theta_max      23.23
_cell_measurement_theta_min      2.35
_cell_volume                     631.37(9)
_computing_cell_refinement       'Bruker SAINT'
_computing_data_collection       'Bruker APEX2'
_computing_data_reduction        'Bruker SAINT'
_computing_molecular_graphics    'Bruker SHELXTL'
_computing_publication_material  'Bruker SHELXTL'
_computing_structure_refinement  'SHELXL-2016/6 (Sheldrick, 2016)'
_computing_structure_solution    'SHELXS-97 (Sheldrick, 2008)'
_diffrn_ambient_temperature      100(2)
_diffrn_measured_fraction_theta_full 0.995
_diffrn_measured_fraction_theta_max 0.986
_diffrn_measurement_device_type  'Bruker APEX-II CCD'
_diffrn_measurement_method       '\f and \w scans'
_diffrn_radiation_type           MoK\a
_diffrn_radiation_wavelength     0.71073
_diffrn_reflns_av_R_equivalents  0.0391
_diffrn_reflns_av_unetI/netI     0.0958
_diffrn_reflns_Laue_measured_fraction_full 0.995
_diffrn_reflns_Laue_measured_fraction_max 0.986
_diffrn_reflns_limit_h_max       6
_diffrn_reflns_limit_h_min       -6
_diffrn_reflns_limit_k_max       6
_diffrn_reflns_limit_k_min       -5
_diffrn_reflns_limit_l_max       33
_diffrn_reflns_limit_l_min       -33
_diffrn_reflns_number            4884
_diffrn_reflns_point_group_measured_fraction_full 0.842
_diffrn_reflns_point_group_measured_fraction_max 0.795
_diffrn_reflns_theta_full        25.242
_diffrn_reflns_theta_max         27.482
_diffrn_reflns_theta_min         2.348
_exptl_absorpt_coefficient_mu    3.286
_exptl_absorpt_correction_T_max  0.7581
_exptl_absorpt_correction_T_min  0.4856
_exptl_absorpt_correction_type   multi-scan
_exptl_absorpt_process_details   'SADABS 2014/4'
_exptl_crystal_density_diffrn    1.810
_exptl_crystal_description       Plate
_exptl_crystal_F_000             340
_exptl_crystal_size_max          0.280
_exptl_crystal_size_mid          0.250
_exptl_crystal_size_min          0.130
_refine_diff_density_max         0.821
_refine_diff_density_min         -1.007
_refine_diff_density_rms         0.121
_refine_ls_abs_structure_details
;
 Flack x determined using 474 quotients [(I+)-(I-)]/[(I+)+(I-)]
 (Parsons, Flack and Wagner, Acta Cryst. B69 (2013) 249-259).
;
_refine_ls_abs_structure_Flack   0.042(14)
_refine_ls_extinction_method     none
_refine_ls_goodness_of_fit_ref   0.987
_refine_ls_hydrogen_treatment    mixed
_refine_ls_matrix_type           full
_refine_ls_number_parameters     184
_refine_ls_number_reflns         2296
_refine_ls_number_restraints     2
_refine_ls_restrained_S_all      0.986
_refine_ls_R_factor_all          0.0665
_refine_ls_R_factor_gt           0.0470
_refine_ls_shift/su_max          0.000
_refine_ls_shift/su_mean         0.000
_refine_ls_structure_factor_coef Fsqd
_refine_ls_weighting_details
'w=1/[\s^2^(Fo^2^)+(0.0187P)^2^] where P=(Fo^2^+2Fc^2^)/3'
_refine_ls_weighting_scheme      calc
_refine_ls_wR_factor_gt          0.0712
_refine_ls_wR_factor_ref         0.0758
_reflns_Friedel_coverage         0.444
_reflns_Friedel_fraction_full    0.646
_reflns_Friedel_fraction_max     0.554
_reflns_number_gt                1757
_reflns_number_total             2296
_reflns_threshold_expression     'I > 2\s(I)'
_cod_data_source_file            aw5013sup1.cif
_cod_data_source_block           PB34
_cod_database_code               2108313
_shelx_shelxl_version_number     2016/6
_shelx_space_group_comment
;
The symmetry employed for this shelxl refinement is uniquely defined
by the following loop, which should always be used as a source of
symmetry information in preference to the above space-group names.
They are only intended as comments.
;
_shelx_estimated_absorpt_t_min   0.460
_shelx_estimated_absorpt_t_max   0.675
_shelx_res_file
;

TITL try1 in P2(1)
    shelx.res
    created by SHELXL-2016/6 at 10:01:45 on 11-Sep-2018
CELL 0.71073 4.8588 4.9939 26.0286 90.000 91.448 90.000
ZERR 2.00 0.0004 0.0004 0.0019 0.000 0.005 0.000
LATT -1
SYMM -x, y+1/2, -z
SFAC C H N O F BR
UNIT 28 18 2 2 6 2
TEMP -173
ACTA
L.S. 10
FMAP 2
OMIT 0 0 1
SIZE 0.28 0.25 0.13
PLAN 10
DFIX 0.88 N1 H1
BOND $H
CONF
WGHT    0.018700
FVAR       0.26398
BR1   6    1.106189    0.149366    0.455690    11.00000    0.03904    0.02439 =
         0.02235    0.00369    0.00119    0.00510
F1    5    0.023621    0.245273    0.074388    11.00000    0.03162    0.02894 =
         0.02536   -0.00031   -0.00393   -0.01166
F2    5    0.123632    0.617311    0.037565    11.00000    0.03343    0.02851 =
         0.02811    0.00961   -0.00992    0.00434
F3    5    0.388632    0.276717    0.029177    11.00000    0.03308    0.03864 =
         0.02383   -0.01127    0.00268    0.00436
O1    4    0.981687    0.948341    0.244474    11.00000    0.03532    0.00498 =
         0.03427    0.00282   -0.00866   -0.00180
N1    3    1.000217    0.510862    0.268362    11.00000    0.02127    0.00482 =
         0.02124   -0.00067   -0.00429    0.00072
H1    2    0.949266    0.345672    0.264247    11.00000   -1.20000
C14   1    0.235553    0.409802    0.062911    11.00000    0.02010    0.01801 =
         0.02522    0.00135   -0.00020    0.00078
C4    1    0.398743    0.491223    0.109284    11.00000    0.01792    0.01219 =
         0.01732   -0.00251    0.00226    0.00384
C3    1    0.383520    0.351959    0.154952    11.00000    0.02037    0.01001 =
         0.02740   -0.00084    0.00157    0.00059
AFIX  43
H3    2    0.257443    0.207494    0.157574    11.00000   -1.20000
AFIX   0
C2    1    0.547815    0.419253    0.196568    11.00000    0.01800    0.01052 =
         0.01857    0.00279   -0.00222   -0.00082
AFIX  43
H2    2    0.535832    0.320249    0.227597    11.00000   -1.20000
AFIX   0
C1    1    0.731656    0.631323    0.193621    11.00000    0.01555    0.00694 =
         0.02078   -0.00035    0.00160    0.00446
C8    1    0.915395    0.712065    0.237696    11.00000    0.02299    0.00816 =
         0.02436   -0.00310    0.00308   -0.00072
C7    1    1.151301    0.537318    0.315772    11.00000    0.02275    0.01006 =
         0.01567   -0.00185    0.00029    0.00413
C13   1    1.361635    0.719294    0.323628    11.00000    0.02840    0.00662 =
         0.02054   -0.00078    0.00122    0.00177
AFIX  43
H13   2    1.410376    0.838507    0.296909    11.00000   -1.20000
AFIX   0
C12   1    1.500541    0.727523    0.370285    11.00000    0.01435    0.02349 =
         0.02768   -0.00636   -0.00328   -0.00282
AFIX  43
H12   2    1.647218    0.851044    0.375590    11.00000   -1.20000
AFIX   0
C11   1    1.427385    0.555888    0.409763    11.00000    0.02750    0.01976 =
         0.02111   -0.00561   -0.01052    0.00993
AFIX  43
H11   2    1.521550    0.562943    0.442169    11.00000   -1.20000
AFIX   0
C5    1    0.576698    0.706910    0.105917    11.00000    0.02595    0.00585 =
         0.01982    0.00049   -0.00075    0.00277
AFIX  43
H5    2    0.585611    0.806791    0.074941    11.00000   -1.20000
AFIX   0
C6    1    0.741261    0.775706    0.147992    11.00000    0.02401    0.01503 =
         0.02675    0.00126    0.00026    0.00035
AFIX  43
H6    2    0.862841    0.923967    0.145699    11.00000   -1.20000
AFIX   0
C10   1    1.219914    0.378411    0.401377    11.00000    0.03092    0.01529 =
         0.01387    0.00156    0.00219    0.00596
C9    1    1.078991    0.362380    0.354758    11.00000    0.01806    0.00786 =
         0.02282   -0.00174   -0.00043   -0.00251
AFIX  43
H9    2    0.936000    0.234874    0.349432    11.00000   -1.20000
AFIX   0
HKLF 4




REM  try1 in P2(1)
REM R1 =  0.0470 for    1757 Fo > 4sig(Fo)  and  0.0665 for all    2296 data
REM    184 parameters refined using      2 restraints

END

WGHT      0.0187      0.0000

REM Highest difference peak  0.821,  deepest hole -1.007,  1-sigma level  0.121
Q1    1   1.1119  0.1493  0.5042  11.00000  0.05    0.82
Q2    1   1.0762  0.1487  0.4731  11.00000  0.05    0.73
Q3    1   1.1283  0.1497  0.4390  11.00000  0.05    0.73
Q4    1   1.0862  0.1477  0.4079  11.00000  0.05    0.60
Q5    1   1.1351  0.3692  0.4495  11.00000  0.05    0.60
Q6    1   1.0078  0.1410  0.3714  11.00000  0.05    0.56
Q7    1   1.2782  0.6494  0.4989  11.00000  0.05    0.55
Q8    1   1.3229  0.1523  0.4233  11.00000  0.05    0.55
Q9    1   1.1090 -0.0621  0.4599  11.00000  0.05    0.55
Q10   1   1.7858  0.6554  0.4591  11.00000  0.05    0.47
;
_shelx_res_checksum              8720
_shelx_hkl_file
;
  -1   0   0  183.91    8.89
   1   0   0  189.03    8.94
  -2   0   0  140.70    7.27
   2   0   0  141.69    7.42
   2   0   0  139.51    7.09
   3   0   0    1.95    0.92
  -3   0   0    1.95    1.17
   3   0   0    1.78    1.37
   4   0   0   28.95    3.69
   5   0   0    6.45    2.70
   6   0   0   12.44    4.49
   0  -1   0   -0.23    0.69
   0   1   0   -0.05    0.62
   0   1   0   -0.53    0.67
   1  -1   0  313.94   15.75
   1  -1   0  330.63   15.76
   1  -1   0  310.58   16.19
  -1  -1   0  295.71   15.94
  -1   1   0  350.90   15.70
   1   1   0  333.98   16.02
  -1   1   0  331.50   15.96
  -1   1   0  343.88   15.92
  -1   1   0  347.72   16.36
  -1   1   0  354.42   16.33
  -1   1   0  351.79   15.68
   1   1   0  339.87   16.06
   2  -1   0   73.03    4.86
   2  -1   0   74.93    4.92
   2  -1   0   79.35    4.77
   2  -1   0   81.75    4.76
   2  -1   0   74.13    4.55
  -2   1   0   79.05    4.91
   2   1   0   80.58    4.23
  -2   1   0   78.05    5.10
  -2   1   0   66.18    4.98
  -2   1   0   82.00    4.94
   3  -1   0   46.27    4.00
   3  -1   0   50.36    4.07
   3  -1   0   53.38    4.44
  -3   1   0   61.96    4.43
   3   1   0   62.09    3.96
   4  -1   0   21.53    3.90
  -4   1   0   17.87    3.32
   4   1   0   24.17    3.56
   5  -1   0    3.78    2.90
   5   1   0    6.73    2.83
  -5   1   0    2.33    2.26
   6   1   0    6.93    3.76
   0  -2   0  194.31   11.46
   0   2   0  220.00   11.64
   0   2   0  211.74   11.67
   1  -2   0  117.55    7.17
  -1  -2   0  120.62    7.09
   1  -2   0  118.58    5.95
  -1   2   0   94.73    6.81
  -1   2   0  105.30    5.98
  -1   2   0   99.19    5.97
   1   2   0  102.17    6.80
  -1   2   0  105.48    7.09
  -1   2   0   96.02    6.07
   1   2   0  101.06    6.68
   2  -2   0    7.85    1.77
  -2  -2   0    3.94    1.50
   2  -2   0    5.45    1.53
   2  -2   0    3.95    1.77
   2  -2   0    6.78    1.93
  -2   2   0    4.42    2.03
  -2   2   0    5.57    1.36
   2   2   0    4.64    1.63
  -2   2   0    5.11    1.74
  -2   2   0    6.09    2.01
  -2   2   0    4.88    1.56
   2   2   0    4.28    1.51
   3  -2   0   33.15    4.50
   3  -2   0   24.96    3.04
   3  -2   0   26.64    3.57
   3  -2   0   41.42    6.78
  -3   2   0   20.47    3.81
  -3   2   0   27.41    3.78
  -3   2   0   25.49    4.85
   4  -2   0   41.99    4.54
   4   2   0   38.66    3.88
  -4   2   0   41.03    4.93
   5   2   0   30.01    4.71
  -5   2   0   32.84    5.54
   6   2   0    0.78    3.17
  -6   2   0    0.93    3.53
   0   3   0    0.16    1.26
   0   3   0   -0.63    1.02
   0   3   0   -0.11    1.05
  -1   3   0   30.08    3.06
   1   3   0   27.25    3.66
  -1   3   0   26.18    3.64
   2  -3   0   65.19    4.99
  -2   3   0   68.91    4.83
  -2   3   0   67.98    6.28
   2   3   0   76.07    5.99
  -2   3   0   76.34    5.78
  -2   3   0   75.55    5.23
   3  -3   0   43.38    4.83
  -3   3   0   52.97    5.68
  -3   3   0   48.49    4.72
  -3   3   0   51.56    5.54
   4  -3   0    9.52    3.41
  -4   3   0    6.96    3.19
   5  -3   0    0.06    3.03
  -5   3   0   -0.77    3.53
   5   3   0    0.15    2.27
   0   4   0   80.68    9.08
   0   4   0   67.30    5.10
   1   4   0   40.02    5.22
  -1   4   0   47.78    4.52
   2   4   0   11.72    3.52
  -2   4   0   16.51    3.94
   3  -4   0   16.22    3.56
  -3   4   0   23.09    5.00
   4  -4   0   12.66    4.02
   0   5   0    1.07    1.91
  -1   5   0   30.01    5.16
  -2   5   0   37.09    6.33
  -3   5   0   26.51    6.17
   4  -5   0    2.64    3.10
   0   6   0    5.84    3.43
  -1   6   0   24.61    5.55
  -2   6   0    0.77    4.14
   6   0  -1    7.52    4.29
   5   0  -1   10.54    3.32
   4   0  -1   17.81    3.22
   3   0  -1  127.51    7.30
  -3   0   1  124.52    6.97
   3   0  -1  117.18    6.76
   2   0  -1    3.45    0.79
  -2   0   1    3.02    0.96
   2   0  -1    5.34    1.18
  -1   0   1   32.99    2.21
   1   0  -1   36.43    2.19
   0   0   1    0.02    0.05
   0   0  -1    0.01    0.03
  -1   0  -1  320.63   14.85
   1   0   1  319.81   14.95
  -2   0  -1   22.98    2.03
   2   0   1   23.45    2.18
   2   0   1   23.90    1.83
   3   0   1    7.62    1.96
   4   0   1   24.26    3.73
   5   0   1   72.69    7.00
   6   0   1    1.79    3.45
   6   1  -1    6.63    3.65
   5  -1  -1    9.71    3.43
   5   1  -1    6.61    2.89
  -5   1   1    7.92    2.89
   4  -1  -1    6.64    2.57
  -4   1   1    3.08    1.90
   4   1  -1    5.55    2.13
   3  -1  -1   56.51    4.08
   3  -1  -1   54.22    4.40
   3   1  -1   50.86    3.78
  -3   1   1   51.24    4.26
   2  -1  -1  355.00   17.29
   2  -1  -1  348.44   17.46
   2  -1  -1  356.96   17.36
   2  -1  -1  332.14   17.13
  -2   1   1  366.56   17.61
  -2   1   1  369.61   17.63
  -2   1   1  364.52   17.59
  -2   1   1  363.20   17.76
   2   1  -1  370.80   16.86
   1  -1  -1  192.63    9.24
   1  -1  -1  193.73    8.65
   1  -1  -1  183.75    9.16
  -1  -1   1  187.48    8.98
  -1   1   1  159.68    9.07
  -1   1   1  169.53    9.14
  -1   1   1  181.01    8.51
   1   1  -1  156.97    8.80
  -1   1   1  158.78    8.75
  -1   1   1  169.12    8.72
   1   1  -1  156.59    8.71
   0  -1   1  172.41    9.11
   0  -1  -1  170.15    9.08
   0  -1  -1  170.86    9.08
   0   1  -1  176.62    9.06
   0   1   1  182.76    9.16
   0   1  -1  181.64    8.48
   0   1   1  186.99    9.17
  -1  -1  -1   12.57    1.80
   1   1   1    5.08    1.45
  -1   1  -1   10.34    1.65
   1   1   1    5.61    1.43
  -1   1  -1   12.85    1.51
  -1   1  -1    7.81    1.50
  -1   1  -1    7.67    1.16
  -1   1  -1    9.25    1.37
   2  -1   1  240.22   12.51
   2  -1   1  244.57   12.69
   2  -1   1  242.92   12.40
   2  -1   1  251.63   12.63
   2  -1   1  254.60   12.89
  -2   1  -1  247.91   12.83
  -2   1  -1  251.00   12.84
  -2   1  -1  268.52   12.32
  -2   1  -1  253.74   12.67
  -2   1  -1  250.43   12.57
   3  -1   1   43.44    3.64
   3  -1   1   47.20    4.05
   3  -1   1   41.18    3.64
  -3   1  -1   42.07    3.77
   3   1   1   42.88    3.33
   4  -1   1   26.05    4.29
  -4   1  -1   22.46    3.64
   4   1   1   25.95    3.64
   5  -1   1    3.94    2.81
  -5   1  -1    1.44    2.18
   5   1   1    3.28    2.62
   6   1   1    4.76    3.55
   6   2  -1    1.55    3.14
  -6   2   1    1.61    3.39
  -5   2   1    6.25    3.37
   5   2  -1    6.51    2.60
   4  -2  -1   27.43    4.19
  -4   2   1   23.20    4.08
   4   2  -1   27.38    3.70
   3  -2  -1   44.44    5.36
   3  -2  -1   35.64    3.75
   3  -2  -1   30.91    3.34
  -3   2   1   47.02    4.34
  -3   2   1   38.05    4.23
   2  -2  -1    1.38    1.21
   2  -2  -1    2.19    1.12
   2  -2  -1    0.18    1.23
   2  -2  -1    0.17    0.43
  -2  -2   1    0.71    1.18
  -2   2   1    2.58    1.12
  -2   2   1   -0.01    1.07
  -2   2   1    0.61    1.48
   2   2  -1    0.49    1.04
   2   2  -1   -0.56    1.06
  -2   2   1    1.59    1.52
  -2   2   1    1.70    1.50
   1  -2  -1   23.07    3.07
   1  -2  -1   26.67    2.32
  -1  -2   1   25.99    3.17
  -1   2   1   27.87    2.52
   1   2  -1   28.82    3.27
  -1   2   1   28.64    3.35
  -1   2   1   36.04    2.52
  -1   2   1   30.93    2.73
  -1   2   1   31.83    3.47
   1   2  -1   31.15    3.13
   0  -2   1  161.49    8.89
   0  -2  -1  167.21    8.92
   0  -2  -1  158.98    8.74
   0   2  -1  133.06    8.39
   0   2   1  132.97    8.52
   0   2  -1  133.27    8.52
   0   2   1  133.95    8.52
   0   2  -1  131.49    7.31
   1  -2   1   11.12    2.40
   1  -2   1   15.75    2.03
  -1  -2  -1   11.21    2.34
  -1   2  -1   10.79    1.81
  -1   2  -1   11.55    1.80
  -1   2  -1   10.31    1.90
   1   2   1    7.41    2.07
   1   2   1    5.54    2.00
  -1   2  -1    7.32    2.24
  -1   2  -1    8.26    2.12
   2  -2   1   45.44    4.11
  -2  -2  -1   42.49    3.64
   2  -2   1   43.20    3.44
   2  -2   1   40.12    3.63
   2  -2   1   40.16    3.36
  -2   2  -1   36.82    4.00
  -2   2  -1   31.81    3.23
  -2   2  -1   36.67    3.80
  -2   2  -1   35.39    3.47
   2   2   1   36.41    3.45
   2   2   1   35.51    3.43
  -2   2  -1   32.17    3.07
   3  -2   1    8.36    2.59
   3  -2   1    8.11    3.02
   3  -2   1    7.74    2.20
   3  -2   1    4.47    1.60
  -3   2  -1   10.23    2.08
  -3   2  -1    8.40    3.26
  -3   2  -1   10.82    2.56
  -3   2  -1    8.89    3.20
   4  -2   1   21.02    3.62
  -4   2  -1   15.92    3.51
   4   2   1   17.97    2.92
   5   2   1   17.10    3.95
  -5   2  -1   17.72    4.57
   5  -3  -1    5.89    3.77
  -5   3   1    7.89    4.43
   5   3  -1    4.48    2.51
   4  -3  -1    4.22    2.70
  -4   3   1    4.67    2.76
   3  -3  -1   37.97    4.28
  -3   3   1   37.17    5.35
  -3   3   1   33.49    4.66
  -3   3   1   30.31    3.89
   2  -3  -1   73.15    5.23
   2   3  -1   75.58    6.05
  -2   3   1   74.16    5.86
  -2   3   1   78.55    6.66
  -2   3   1   78.41    5.53
  -2   3   1   70.97    4.90
  -1   3   1   74.64    5.19
  -1   3   1   73.68    6.26
   1   3  -1   73.84    6.05
   0   3   1    4.72    1.94
   0   3   1    4.07    1.42
   0   3  -1    2.89    1.76
   0   3  -1    2.39    1.33
   0   3   1    1.36    1.04
  -1   3  -1   73.16    6.21
  -1   3  -1   75.74    5.36
   1   3   1   78.90    6.34
   2  -3   1   68.15    4.77
   2   3   1   61.16    5.41
  -2   3  -1   61.02    5.30
  -2   3  -1   58.66    4.71
  -2   3  -1   58.85    4.51
  -2   3  -1   60.67    5.82
   3  -3   1   91.40    6.65
  -3   3  -1   80.09    6.32
  -3   3  -1   81.25    7.06
  -3   3  -1   74.06    6.84
  -3   3  -1   79.38    6.94
   4  -3   1   14.59    4.11
  -4   3  -1    9.67    3.58
   5  -3   1    1.81    3.60
  -5   3  -1    2.41    3.52
   5   3   1    3.44    2.84
   4  -4  -1   27.88    5.12
   3  -4  -1    5.61    2.54
  -3   4   1    0.33    2.98
  -2   4   1    1.17    2.20
   2   4  -1    1.68    2.09
  -1   4   1   36.53    4.78
   1   4  -1   30.85    5.26
   0   4  -1   69.75    5.09
   0   4  -1   75.26    9.60
   0   4   1   79.15    9.71
   0   4   1   69.84    5.15
   1   4   1   42.47    5.40
  -1   4  -1   45.90    4.57
  -2   4  -1   38.63    5.54
   2   4   1   29.09    5.06
   3  -4   1    9.81    3.12
  -3   4  -1   16.19    4.50
   4  -4   1    6.09    3.31
   4  -5  -1    0.24    3.01
  -3   5   1   22.83    6.17
  -2   5   1   76.31    8.29
  -1   5   1   63.71    6.40
   0   5  -1   30.15    3.82
   0   5   1   29.40    3.66
  -1   5  -1   14.50    4.04
  -2   5  -1   14.03    4.28
  -3   5  -1   26.30    6.43
   4  -5   1   12.37    4.09
  -2   6   1    5.72    4.54
  -1   6   1   25.39    5.81
   0   6   1   25.44    4.89
   0   6  -1   24.43    4.98
  -1   6  -1   32.97    6.54
  -2   6  -1    7.06    4.35
   6   0  -2    3.24    3.32
   5   0  -2   16.48    3.78
   4   0  -2   59.22    5.26
  -4   0   2   61.09    4.65
  -3   0   2   83.83    5.26
   3   0  -2   81.33    4.98
   3   0  -2   85.66    5.49
  -2   0   2   63.38    4.04
   2   0  -2   64.70    4.04
   2   0  -2   68.26    3.82
  -1   0   2   42.75    2.69
   1   0  -2   43.22    2.58
   1   0  -2   45.64    2.59
   1   0  -2   47.30    2.47
  -1   0  -2  222.76   10.33
   1   0   2  217.87   10.21
   1   0   2  219.63   10.52
  -2   0  -2   33.71    2.46
   2   0   2   37.10    2.78
   3   0   2    6.44    1.78
   4   0   2   44.93    4.38
   5   0   2    8.52    3.29
   6   0   2   20.33    6.03
   6   1  -2    5.38    3.69
   5  -1  -2   19.73    5.16
  -5   1   2   19.32    3.94
   5   1  -2   16.36    3.74
   4  -1  -2    4.81    2.26
  -4   1   2    3.85    2.12
   4   1  -2    4.58    2.03
   3  -1  -2   29.22    2.77
   3  -1  -2   25.86    3.01
   3   1  -2   26.49    2.60
  -3   1   2   24.23    2.95
   2   1  -2   48.38    2.95
  -2   1   2   37.72    3.69
  -2   1   2   51.25    3.74
  -2   1   2   51.49    3.79
   1  -1  -2  269.60   14.47
   1  -1  -2  271.00   13.90
   1  -1  -2  287.44   13.80
   1  -1  -2  283.31   14.02
  -1  -1   2  271.58   14.28
   1  -1  -2  275.64   14.55
  -1   1   2  321.95   14.75
   1   1  -2  311.95   13.75
  -1   1   2  307.59   14.36
  -1   1   2  308.81   14.26
   1   1  -2  302.61   14.26
  -1   1   2  315.69   14.67
  -1   1   2  315.60   13.95
   0  -1   2   51.51    3.31
   0  -1  -2   51.32    3.28
   0  -1   2   47.82    2.65
   0  -1  -2   49.35    3.26
   0   1  -2   44.24    2.68
   0   1  -2   41.03    3.07
   0   1   2   43.64    3.13
   0   1   2   42.95    3.18
   1  -1   2   13.25    1.49
  -1  -1  -2   13.92    1.62
   1  -1   2   14.86    1.70
   1  -1   2   15.81    1.88
   1  -1   2   13.85    1.66
  -1   1  -2   12.32    1.69
   1   1   2   12.22    1.51
  -1   1  -2   12.35    1.60
  -1   1  -2   10.98    1.38
  -1   1  -2   12.31    1.59
  -1   1  -2   14.50    1.94
   1   1   2   12.64    1.79
   2  -1   2   74.80    4.45
   2  -1   2   81.95    4.81
   2  -1   2   74.88    4.56
   2  -1   2   76.25    4.84
  -2   1  -2   69.88    4.83
  -2   1  -2   75.84    4.36
  -2   1  -2   72.12    4.63
  -2   1  -2   58.06    4.29
   3  -1   2  109.69    7.33
   3  -1   2  113.19    6.90
   3   1   2  114.11    6.58
  -3   1  -2  118.08    7.13
   4  -1   2   37.87    4.40
   4   1   2   29.23    3.55
  -4   1  -2   29.37    3.63
   5  -1   2    5.23    2.80
   5   1   2    3.12    2.65
  -5   1  -2    3.66    2.30
   6   1   2    6.98    3.75
  -5   2   2    6.89    3.45
   5   2  -2    5.30    2.71
   4  -2  -2   33.00    4.07
  -4   2   2   30.93    4.77
   4   2  -2   27.08    3.35
   3  -2  -2   52.63    4.38
   3  -2  -2   50.99    3.97
   3   2  -2   42.85    3.25
  -3   2   2   30.91    4.78
  -3   2   2   42.19    4.40
   2  -2  -2   73.81    4.69
   2  -2  -2   71.88    4.96
  -2  -2   2   72.90    5.21
   2  -2  -2   71.06    4.74
   2  -2  -2   72.06    5.47
  -2   2   2   73.22    4.60
   2   2  -2   69.93    4.88
  -2   2   2   72.20    5.63
   2   2  -2   69.32    5.13
  -2   2   2   60.82    5.00
  -2   2   2   66.39    5.47
  -2   2   2   70.72    5.07
  -1  -2   2   34.28    3.48
   1  -2  -2   32.66    2.49
   1  -2  -2   32.69    3.43
   1  -2  -2   31.49    3.40
  -1   2   2   29.88    3.43
   1   2  -2   31.14    3.20
   1   2  -2   30.42    3.39
  -1   2   2   33.27    3.66
  -1   2   2   36.30    2.49
  -1   2   2   35.17    2.90
  -1   2   2   33.49    2.69
   0  -2  -2  264.31   14.34
   0  -2   2  258.54   14.40
   0  -2  -2  259.32   14.32
   0   2   2  281.53   14.46
   0   2   2  282.95   14.54
   0   2  -2  276.74   14.33
   0   2  -2  268.07   13.13
   0   2  -2  273.58   14.45
   1  -2   2  267.99   13.76
   1  -2   2  272.24   14.96
  -1  -2  -2  258.69   14.57
  -1  -2  -2  274.64   14.66
  -1   2  -2  278.51   14.03
  -1   2  -2  282.33   14.86
  -1   2  -2  277.87   13.81
   1   2   2  285.45   14.69
   1   2   2  284.68   14.78
  -1   2  -2  289.94   15.07
  -1   2  -2  294.06   14.11
   2  -2   2   52.07    4.86
   2  -2   2   56.45    4.45
   2  -2   2   56.41    4.68
   2  -2   2   60.57    4.52
  -2  -2  -2   62.33    4.60
  -2   2  -2   59.11    4.24
  -2   2  -2   65.58    5.06
   2   2   2   62.87    4.58
  -2   2  -2   63.32    4.80
  -2   2  -2   64.71    4.36
  -2   2  -2   64.90    5.29
  -2   2  -2   61.39    4.45
   2   2   2   64.67    4.76
   3  -2   2    3.90    1.75
   3  -2   2    1.94    1.84
   3  -2   2    2.66    1.47
  -3   2  -2    3.25    1.84
  -3   2  -2    1.07    0.99
  -3   2  -2    2.65    1.58
   4  -2   2   25.97    4.25
   4   2   2   17.83    3.02
  -4   2  -2   19.77    3.85
  -5   2  -2   14.15    4.16
   5   2   2   13.09    3.34
   5  -3  -2    6.26    3.45
   5   3  -2    0.88    2.13
  -5   3   2    3.54    3.87
   4  -3  -2    0.86    2.40
  -4   3   2    3.85    2.98
   3  -3  -2   17.65    3.23
  -3   3   2   11.95    3.15
  -3   3   2    9.86    2.45
  -3   3   2    9.82    3.23
   2  -3  -2   70.32    4.77
   2   3  -2   56.08    5.19
  -2   3   2   58.63    5.86
  -2   3   2   60.71    5.34
  -1   3   2   56.36    5.45
   1   3  -2   60.64    5.36
  -1   3   2   56.94    4.44
  -1   3   2   61.74    4.18
   0   3  -2   47.63    4.73
   0   3   2   42.12    4.69
   0   3  -2   51.91    3.65
   1   3   2   28.39    4.42
  -1   3  -2   23.48    2.95
  -1   3  -2   23.48    4.11
   2  -3   2   15.16    2.59
   2   3   2   11.65    2.78
  -2   3  -2    9.89    2.15
  -2   3  -2   12.73    2.99
  -2   3  -2    9.14    1.95
  -2   3  -2   12.14    3.10
   3  -3   2   32.97    4.32
  -3   3  -2   40.95    4.30
  -3   3  -2   44.33    4.80
  -3   3  -2   42.70    5.01
  -3   3  -2   46.60    5.30
   4  -3   2   22.15    4.81
  -4   3  -2   19.91    4.73
  -5   3  -2    1.24    3.49
   4  -4  -2   21.58    4.68
   3  -4  -2   35.63    4.44
  -3   4   2   37.92    6.28
  -2   4   2   11.61    3.58
   2   4  -2    7.46    2.95
   1   4  -2   32.27    4.74
  -1   4   2   34.19    3.77
   0   4  -2   43.80    3.93
   0   4   2   44.90    3.82
   1   4   2   91.66    8.23
  -1   4  -2  100.22    7.05
   2  -4   2   25.36    3.58
  -2   4  -2   21.78    4.33
   2   4   2   21.04    4.50
   3  -4   2    2.23    2.51
  -3   4  -2    2.90    3.05
   4  -4   2    5.54    3.43
   4  -5  -2    5.25    3.65
  -3   5   2    8.61    4.97
  -2   5   2   55.37    8.42
  -1   5   2   35.03    5.54
   0   5   2   47.77    4.60
   0   5  -2   46.28    4.72
  -1   5  -2   10.28    3.48
  -2   5  -2   10.86    3.87
  -2   6   2   10.18    4.90
  -1   6   2    9.53    4.24
   1   6  -2    3.90    2.26
   0   6  -2   15.35    4.06
   0   6   2   13.53    3.90
  -1   6  -2   14.75    5.00
  -2   6  -2   14.98    5.56
   6   0  -3    2.61    3.18
   5   0  -3   16.84    4.04
   4   0  -3   17.15    3.31
  -4   0   3   18.95    2.90
  -3   0   3  132.95    7.40
   3   0  -3  128.62    7.59
   3   0  -3  126.62    7.07
   2   0  -3  162.08    8.52
  -2   0   3  159.66    8.55
   2   0  -3  169.63    8.29
   1   0  -3  285.05   13.74
   1   0  -3  298.37   13.64
  -1   0   3  294.26   13.94
   0   0   3   13.78    1.20
   0   0  -3   13.66    1.18
   0   0  -3   14.98    0.93
   1   0   3  454.91   18.42
  -1   0  -3  346.32   18.45
   1   0   3  394.98   18.55
   1   0   3  392.14   18.25
  -1   0  -3  402.35   18.28
   2   0   3  102.91    5.84
   3   0   3   72.87    5.04
   4   0   3    2.95    2.03
   5   0   3    3.59    2.97
   6   0   3   14.27    5.29
   6   1  -3    8.13    3.85
  -5   1   3    9.58    3.20
   5   1  -3   13.33    3.56
   4  -1  -3    2.51    2.03
   4   1  -3    1.44    1.61
  -4   1   3    2.82    1.83
   3  -1  -3   36.85    3.62
   3  -1  -3   35.76    3.21
  -3   1   3   35.27    3.63
   3   1  -3   39.03    3.15
   3   1  -3   38.11    3.14
   2  -1  -3  152.01    7.96
   2  -1  -3  150.02    7.58
   2  -1  -3  144.53    7.42
  -2   1   3  126.95    7.81
  -2   1   3  143.73    7.92
   2   1  -3  147.28    7.23
  -2   1   3  144.98    7.73
  -2   1   3  112.93    7.75
   1  -1  -3  977.22   44.11
   1  -1  -3  953.36   44.16
   1  -1  -3  952.58   43.45
   1  -1  -3  961.93   43.55
  -1  -1   3  919.12   43.86
   1   1  -3  935.87   43.34
  -1   1   3  943.86   43.40
  -1   1   3  930.16   43.83
  -1   1   3  971.73   44.10
  -1   1   3 1000.00   44.26
   1   1  -3  930.00   43.72
  -1   1   3  966.80   43.81
   0  -1   3  256.31   13.40
   0  -1  -3  256.95   13.89
   0  -1  -3  272.14   13.92
   0  -1   3  266.37   13.93
   0   1   3  311.14   14.14
   0   1   3  311.71   14.04
   0   1  -3  299.85   13.46
   0   1  -3  306.80   13.99
   1  -1   3   28.19    2.58
   1  -1   3   35.84    2.66
  -1  -1  -3   35.64    2.75
   1  -1   3   35.33    2.92
   1  -1   3   37.54    2.83
   1   1   3   39.54    2.65
  -1   1  -3   40.55    2.73
   1   1   3   38.76    2.83
  -1   1  -3   40.19    2.91
  -1   1  -3   38.36    2.79
   2  -1   3   67.91    4.64
   2  -1   3   69.61    4.56
   2  -1   3   75.36    4.52
   2  -1   3   71.57    4.59
  -2   1  -3   63.83    4.12
  -2   1  -3   64.61    4.42
  -2   1  -3   62.75    4.58
   3  -1   3   36.57    3.18
   3  -1   3   32.23    3.21
   3  -1   3   36.14    3.46
   3   1   3   23.85    2.63
  -3   1  -3   21.03    3.10
   4  -1   3   30.49    4.40
   4   1   3   26.24    3.77
  -4   1  -3   27.91    3.52
   5  -1   3   13.01    3.67
   5   1   3    5.98    2.69
  -5   1  -3    7.46    2.49
   6   1   3    9.22    4.70
   5   2  -3    3.86    2.53
  -5   2   3    3.03    3.22
   4  -2  -3   35.66    4.45
   4   2  -3   28.94    3.45
   4   2  -3   26.29    3.30
  -4   2   3   27.66    4.64
  -3   2   3   32.90    3.99
   2  -2  -3  143.26    8.11
  -2  -2   3  141.86    8.62
   2  -2  -3  139.64    8.32
   2  -2  -3  135.32    7.82
   2  -2  -3  142.87    8.85
   2   2  -3  144.95    7.80
  -2   2   3  151.58    9.06
  -2   2   3  145.21    8.46
   2   2  -3  142.13    8.22
   2   2  -3  150.86    8.64
  -2   2   3  153.87    9.29
  -2   2   3  149.48    7.95
  -2   2   3  142.54    8.52
  -1  -2   3   51.88    4.38
   1  -2  -3   51.52    4.42
   1  -2  -3   50.72    3.34
   1  -2  -3   49.88    4.31
  -1   2   3   50.66    4.39
  -1   2   3   53.57    4.65
  -1   2   3   50.51    3.34
  -1   2   3   52.99    3.76
  -1   2   3   51.72    3.57
   1   2  -3   53.67    4.17
   0  -2  -3   37.85    3.62
   0  -2   3   43.02    3.87
   0  -2  -3   45.20    3.92
   0   2   3   36.07    3.63
   0   2  -3   40.15    3.61
   0   2  -3   37.83    2.84
   0   2   3   33.96    3.49
  -1  -2  -3  176.34   10.27
  -1  -2  -3  170.76   10.35
   1  -2   3  174.58    9.56
   1  -2   3  177.73   10.62
   1   2   3  189.88   10.51
  -1   2  -3  183.11    9.58
  -1   2  -3  187.52    9.84
  -1   2  -3  193.97   10.59
   1   2   3  189.67   10.34
  -1   2  -3  189.60    9.92
   2  -2   3   65.67    5.02
   2  -2   3   83.20    5.29
   2  -2   3   77.52    5.81
   2  -2   3   70.87    5.30
   2   2   3   74.20    5.04
  -2   2  -3   71.72    5.70
  -2   2  -3   69.20    5.20
  -2   2  -3   67.40    5.36
  -2   2  -3   71.66    4.89
   2   2   3   71.34    5.22
  -2   2  -3   75.03    4.89
  -2   2  -3   73.23    5.04
   3  -2   3   38.76    5.05
   3  -2   3   32.24    3.61
  -3   2  -3   29.49    3.69
  -3   2  -3   27.25    3.40
   4  -2   3   10.34    2.98
   4   2   3    6.95    2.11
  -4   2  -3    9.40    2.89
   5   2   3   15.21    3.72
  -5   2  -3   14.72    3.91
   5  -3  -3   13.66    4.38
  -5   3   3    5.54    4.04
   5   3  -3    5.57    2.86
   4  -3  -3    7.38    2.99
   4   3  -3    9.87    2.53
  -4   3   3    2.03    3.29
   3  -3  -3   18.51    3.36
  -3   3   3   13.70    3.45
  -3   3   3   18.61    3.63
  -3   3   3   22.15    4.31
   2  -3  -3   43.12    3.80
  -2   3   3   50.67    4.70
   2   3  -3   43.73    4.44
  -2   3   3   44.29    5.12
  -1   3   3  114.12    6.94
  -1   3   3  114.74    6.51
  -1   3   3  108.36    8.29
   1   3  -3  120.07    8.08
   0  -3  -3   45.33    4.77
   0   3  -3   50.35    4.81
   0   3  -3   52.17    3.72
   0   3   3   46.28    4.92
   1  -3   3    1.93    1.16
  -1  -3  -3    1.79    1.60
  -1   3  -3    2.51    1.62
  -1   3  -3    1.72    1.47
   1   3   3    1.10    1.54
   2  -3   3   38.66    3.59
  -2   3  -3   33.63    3.52
   2   3   3   30.50    3.97
  -2   3  -3   27.17    4.00
  -2   3  -3   31.48    3.86
  -2   3  -3   29.33    3.25
   3  -3   3   45.31    4.71
  -3   3  -3   42.32    4.82
  -3   3  -3   38.99    4.41
  -3   3  -3   41.77    4.97
   4  -3   3   42.33    6.38
  -4   3  -3   26.26    5.08
  -5   3  -3   11.84    4.58
   4  -4  -3   18.16    4.16
   3  -4  -3   10.95    3.00
  -3   4   3   19.80    4.66
  -2   4   3   29.09    4.83
   2   4  -3   25.07    4.53
   1   4  -3   15.28    3.92
  -1   4   3   18.22    3.40
   1   4  -3   15.13    2.47
   0   4  -3   55.35    4.47
  -1   4  -3   70.21    5.80
   1   4   3   70.92    7.25
   2  -4   3   75.43    5.82
   2   4   3   83.29    7.74
  -2   4  -3   92.19    7.29
   3  -4   3    4.39    2.55
   4  -4   3    3.28    3.29
  -3   5   3    4.36    4.84
  -2   5   3    7.13    3.92
  -1   5   3   23.69    4.78
   1   5  -3   15.73    2.85
   0   5  -3   22.65    4.10
   0   5   3   20.66    3.66
  -1   5  -3   29.61    5.24
  -2   5  -3   10.34    4.24
  -2   6   3    6.49    4.88
  -1   6   3    0.39    3.12
   1   6  -3    0.94    2.06
   0   6  -3   25.47    5.06
   0   6   3   29.18    5.11
  -1   6  -3   14.69    4.97
  -2   6  -3    4.37    4.77
   6   0  -4    4.17    3.30
   5   0  -4    2.57    2.61
  -4   0   4   17.14    2.81
   4   0  -4   16.70    3.23
   3   0  -4   25.38    2.68
  -3   0   4   17.18    2.53
   3   0  -4   20.28    2.11
   2   0  -4   13.27    1.68
  -2   0   4   12.02    1.80
   2   0  -4   11.60    1.34
  -1   0   4  485.37   21.95
   1   0  -4  460.62   21.67
   1   0  -4  523.12   21.71
  -1   0   4  394.43   21.71
   1   0  -4  481.97   21.58
   0   0   4    7.24    1.16
   0   0  -4    7.23    1.08
   0   0  -4    5.71    0.68
   0   0   4    6.15    1.05
   1   0   4  177.96    8.79
   1   0   4  182.85    9.21
   1   0   4  174.23    9.08
   1   0   4  202.27    9.04
  -1   0  -4  186.14    8.76
   2   0   4  147.73    7.91
   3   0   4   34.86    3.29
   4   0   4    2.76    2.04
   5   0   4   12.75    3.75
   6   0   4    2.51    3.75
  -6   1   4    0.48    2.54
   6   1  -4   -1.50    3.13
  -5   1   4   20.46    4.34
   5   1  -4   23.52    4.49
   4  -1  -4   41.86    4.70
  -4   1   4   43.53    4.61
   4   1  -4   42.87    4.21
   3  -1  -4    5.86    1.92
   3  -1  -4    6.49    1.67
   3   1  -4    7.37    1.63
  -3   1   4    4.92    1.80
   2  -1  -4   17.96    1.91
   2  -1  -4   14.67    2.11
   2  -1  -4   18.44    2.12
  -2   1   4   14.86    2.49
   2   1  -4   21.14    1.79
  -2   1   4   20.31    2.37
  -2   1   4   12.87    1.98
  -2   1   4   18.03    2.04
   1  -1  -4  436.23   18.48
   1  -1  -4  437.73   19.30
  -1  -1   4  419.54   18.98
   1  -1  -4  416.83   18.52
  -1   1   4  382.09   18.90
   1   1  -4  364.88   18.64
   1   1  -4  367.74   18.42
  -1   1   4  381.56   18.37
  -1   1   4  382.42   19.18
  -1   1   4  384.50   19.03
  -1   1   4  378.81   18.82
   0  -1   4  222.85   10.96
   0  -1   4  211.89   10.50
   0  -1  -4  227.63   11.00
   0   1  -4  211.33   10.42
   0   1   4  217.38   11.01
   0   1  -4  212.69   10.81
   0   1  -4  218.24   10.37
   0   1   4  204.19   10.79
   1  -1   4   80.58    4.80
  -1  -1  -4   78.74    4.59
   1  -1   4   80.29    4.67
   1  -1   4   74.36    4.43
  -1   1  -4   74.12    4.54
  -1   1  -4   71.38    4.33
  -1   1  -4   69.68    4.50
   1   1   4   76.31    4.58
   1   1   4   69.25    4.25
   2  -1   4    2.52    1.07
   2  -1   4    1.93    1.08
   2  -1   4    4.41    1.57
   2  -1   4    3.40    1.19
  -2   1  -4    4.92    1.21
  -2   1  -4    4.11    1.51
  -2   1  -4    5.05    1.38
   3  -1   4  105.22    6.95
   3  -1   4   96.43    6.49
   3   1   4  107.55    6.26
  -3   1  -4  107.28    6.58
   4  -1   4   75.51    6.55
  -4   1  -4   79.57    5.95
   4   1   4   86.15    6.11
   5  -1   4    8.93    3.51
  -5   1  -4    6.12    2.28
   5   1   4   13.35    3.69
   6   1   4    1.47    3.10
   5   2  -4    7.04    2.93
  -5   2   4   11.36    3.82
   4  -2  -4   31.90    4.34
  -4   2   4   39.11    5.40
   4   2  -4   32.30    3.56
   4   2  -4   32.97    3.68
   3  -2  -4   83.22    5.84
   3   2  -4   78.58    5.07
  -3   2   4   85.68    6.46
   2  -2  -4  113.66    7.68
  -2  -2   4  108.65    7.32
   2  -2  -4  107.11    7.44
   2  -2  -4  107.10    6.44
   2  -2  -4  107.89    7.01
   2  -2  -4  107.48    6.75
  -2   2   4  127.89    8.07
  -2   2   4  125.20    7.30
   2   2  -4  119.11    6.35
   2   2  -4  122.41    7.04
  -2   2   4  124.25    7.49
   2   2  -4  121.22    7.36
  -2   2   4  124.49    6.74
  -2   2   4  125.40    7.79
   1  -2  -4   24.42    3.09
   1  -2  -4   25.30    2.24
  -1  -2   4   26.78    3.18
   1  -2  -4   25.22    3.00
  -1   2   4   29.84    3.20
  -1   2   4   29.01    2.74
   1   2  -4   29.59    2.98
  -1   2   4   31.72    3.50
  -1   2   4   30.91    2.34
   1   2  -4   28.71    2.15
  -1   2   4   26.25    2.68
   0  -2   4   83.12    5.69
   0  -2  -4   84.87    5.76
   0  -2  -4   85.71    5.63
   0   2   4   72.33    5.52
   0   2  -4   70.04    4.50
   0   2   4   68.12    5.27
   0   2  -4   70.10    5.26
  -1  -2  -4  135.54    7.93
  -1  -2  -4  137.02    7.73
   1  -2   4  134.90    8.07
   1  -2   4  131.32    7.01
  -1   2  -4  114.75    7.57
  -1   2  -4  118.79    6.89
   1   2   4  110.26    7.31
  -1   2  -4  118.24    7.22
  -1   2  -4  116.21    7.06
   1   2   4  109.35    7.51
   2  -2   4   24.62    3.26
  -2  -2  -4   13.76    2.72
   2  -2   4   18.96    3.41
   2  -2   4   25.42    3.54
  -2   2  -4   21.69    2.66
  -2   2  -4   22.00    2.94
  -2   2  -4   21.60    2.55
   2   2   4   18.47    2.39
  -2   2  -4   20.87    2.62
  -2   2  -4   21.03    3.17
   2   2   4   22.17    2.74
   3  -2   4   22.80    3.46
   3  -2   4   27.84    4.39
  -3   2  -4   21.30    3.35
  -3   2  -4   20.47    2.86
  -3   2  -4   18.49    2.70
   4   2   4   35.63    3.81
  -4   2  -4   39.02    4.63
   5   2   4    4.74    2.62
  -5   2  -4    2.12    2.67
   5  -3  -4    9.95    3.87
  -5   3   4   11.43    4.72
   5   3  -4    4.33    2.64
   4  -3  -4    8.77    3.23
   4   3  -4    5.62    2.09
   3  -3  -4    1.45    1.84
  -3   3   4    1.43    2.06
   3   3  -4    3.05    1.36
  -3   3   4    3.01    2.72
   2  -3  -4   66.78    4.78
  -2   3   4   67.24    5.47
   2   3  -4   62.47    5.39
  -2   3   4   61.30    6.15
   1  -3  -4   89.61    7.04
   1   3  -4   86.45    5.20
  -1   3   4   88.26    5.80
   1   3  -4   86.00    6.64
  -1   3   4   90.06    7.25
   0  -3  -4  104.55    7.52
   0   3   4   94.45    7.39
   0   3  -4   89.92    6.99
   0   3  -4   94.36    5.88
   1  -3   4   43.97    3.35
  -1  -3  -4   44.68    4.66
  -1   3  -4   37.53    4.30
  -1   3  -4   34.55    3.59
   1   3   4   34.35    4.34
   2  -3   4   29.82    4.21
  -2   3  -4   21.58    3.03
  -2   3  -4   28.86    4.38
   2   3   4   22.04    3.90
  -2   3  -4   18.65    2.88
  -2   3  -4   22.09    4.37
  -2   3  -4   24.94    4.18
   3  -3   4   23.51    3.94
  -3   3  -4   21.63    3.97
  -3   3  -4   17.82    3.67
  -3   3  -4   22.24    3.42
   4  -3   4   57.66    6.14
  -4   3  -4   51.02    5.88
  -5   3  -4   13.18    4.36
   4  -4  -4   12.93    3.79
   3  -4  -4   44.72    4.85
  -3   4   4   50.26    7.14
   2   4  -4   24.79    4.50
  -2   4   4   32.14    5.30
   1   4  -4   18.94    4.96
  -1   4   4   22.21    3.67
   1   4  -4   16.28    2.63
   0   4  -4   20.14    3.29
   1   4   4   51.08    7.57
  -1   4  -4   54.08    4.98
   2  -4   4   31.61    3.78
   2   4   4   38.07    5.63
  -2   4  -4   43.08    5.04
   3  -4   4   12.40    3.46
   4  -4   4    1.86    3.02
  -3   5   4   -2.00    4.28
  -2   5   4   17.06    4.73
  -1   5   4   33.44    5.29
   1   5  -4   19.55    3.31
   0   5  -4   49.52    4.86
  -1   5  -4   31.37    5.76
  -2   5  -4    1.73    3.39
  -2   6   4    5.68    4.80
  -1   6   4    4.84    4.47
   1   6  -4    3.45    2.29
   0   6  -4   19.45    4.89
   0   6   4   15.48    4.05
  -1   6  -4   23.57    5.84
  -2   6  -4   22.92    6.79
   6   0  -5    6.79    3.58
   5   0  -5    0.43    2.29
   4   0  -5   15.19    3.08
  -4   0   5    8.96    2.27
   3   0  -5    8.22    1.66
  -3   0   5   11.66    2.20
   3   0  -5    9.78    2.05
  -2   0   5   86.36    5.17
   2   0  -5   83.14    4.94
   2   0  -5   79.75    4.93
   2   0  -5   86.81    4.76
  -1   0   5   29.24    2.42
   1   0  -5   31.44    2.02
   1   0  -5   35.24    2.26
  -1   0   5   27.99    2.37
  -1   0   5   28.16    2.99
   1   0  -5   31.64    2.13
   0   0  -5    0.15    0.43
   0   0  -5    0.52    0.67
   0   0   5   -0.24    0.54
   0   0   5    0.41    0.73
   0   0   5    0.32    0.71
  -1   0  -5  413.60   18.91
   1   0   5  407.35   19.46
   1   0   5  436.46   19.38
   1   0   5  415.20   19.39
  -1   0  -5  386.25   19.50
   2   0   5  187.57    9.74
   3   0   5   65.44    4.83
   4   0   5   -0.34    1.65
   5   0   5    3.17    2.79
   6   0   5    4.34    4.04
   6   1  -5    5.22    3.60
  -6   1   5    3.15    2.82
  -5   1   5    4.60    2.69
   5   1  -5    5.66    2.63
   4  -1  -5   16.37    3.48
  -4   1   5   15.88    3.29
   4   1  -5   20.27    3.38
   3  -1  -5    3.64    1.45
   3  -1  -5    1.62    1.52
  -3   1   5    3.49    1.72
   3   1  -5    4.00    1.44
   2  -1  -5   39.45    3.16
   2  -1  -5   38.09    3.17
   2  -1  -5   38.49    2.87
   2   1  -5   36.12    2.66
  -2   1   5   38.92    3.31
  -2   1   5   32.95    2.79
  -1   1   5   16.69    1.92
   1   1  -5   15.25    1.56
  -1   1   5   17.38    1.92
  -1   1   5   18.60    2.08
   1   1  -5   16.83    1.66
  -1   1   5   17.80    2.15
   0  -1  -5  317.01   15.85
   0  -1   5  318.44   15.82
   0   1  -5  328.59   15.35
   0   1  -5  319.37   15.66
   0   1  -5  335.37   15.22
   0   1   5  322.92   15.68
   1  -1   5   60.65    3.83
   1  -1   5   63.23    4.13
  -1  -1  -5   68.20    4.07
   1  -1   5   59.38    4.01
  -1   1  -5   54.16    3.90
  -1   1  -5   57.07    3.66
  -1   1  -5   57.14    3.82
   1   1   5   59.34    3.68
   2  -1   5    8.58    2.06
   2  -1   5    6.62    1.64
   2  -1   5    7.31    1.55
   2  -1   5    5.37    1.41
  -2  -1  -5    6.10    1.43
  -2   1  -5    4.98    1.17
  -2   1  -5    4.45    1.57
   2   1   5    7.61    1.49
  -2   1  -5    5.74    1.43
  -2   1  -5    4.47    1.14
   2   1   5    7.02    1.23
   3  -1   5   23.72    3.68
   3  -1   5   17.81    2.78
  -3   1  -5   23.42    2.79
   3   1   5   19.91    2.42
   4  -1   5   28.01    4.39
  -4   1  -5   12.14    2.65
   4   1   5   16.03    2.97
   5  -1   5   16.50    4.18
  -5   1  -5   13.60    2.84
   5   1   5   17.51    4.14
   6   1   5    0.96    3.32
   5   2  -5    2.12    2.42
  -5   2   5    2.19    2.92
   4  -2  -5   25.17    3.88
  -4   2   5   18.38    3.89
   4   2  -5   24.64    3.59
   3  -2  -5  109.23    7.04
  -3   2   5  108.77    7.73
   3   2  -5  105.38    6.27
   2  -2  -5   91.22    5.48
   2  -2  -5  109.22    7.76
  -2  -2   5   92.48    6.18
   2  -2  -5   93.45    6.47
  -2   2   5   84.31    6.00
  -2   2   5   83.61    5.84
   2   2  -5   71.96    4.92
  -2   2   5   83.92    7.39
  -2   2   5   84.97    6.47
  -2   2   5   89.61    5.33
   2   2  -5   80.65    5.49
  -1  -2   5   63.55    4.99
   1  -2  -5   63.95    4.93
   1  -2  -5   69.78    5.22
  -1   2   5   63.12    4.33
  -1   2   5   66.08    5.01
   1   2  -5   63.85    3.81
  -1   2   5   64.34    5.21
  -1   2   5   58.49    4.72
  -1   2   5   64.00    3.85
   1   2  -5   62.76    4.69
   0  -2  -5   13.87    2.54
   0  -2  -5   14.14    2.52
   0  -2   5   16.56    2.86
   0   2  -5   17.69    2.31
   0   2   5   12.14    2.23
   0   2   5   16.82    2.88
   0   2  -5   16.78    2.78
  -1  -2  -5   80.23    5.86
   1  -2   5   80.85    5.94
   1  -2   5   74.67    5.10
  -1   2  -5   83.10    5.80
   1   2   5   82.38    5.87
  -1   2  -5   85.95    5.39
  -1   2  -5   80.69    5.53
  -1   2  -5   86.12    5.17
   1   2   5   83.36    5.61
   2  -2   5  169.43    9.66
   2  -2   5  174.78    9.47
  -2  -2  -5  147.21    9.50
  -2   2  -5  157.88    9.25
   2   2   5  158.71    9.05
  -2   2  -5  165.61    9.31
  -2   2  -5  166.18    9.19
  -2   2  -5  174.28    9.83
   2   2   5  170.50    9.73
   3  -2   5   93.45    6.71
  -3   2  -5   91.46    6.18
  -3   2  -5   90.38    6.54
  -3   2  -5   90.87    6.27
  -4   2  -5    6.84    2.66
  -5   2  -5    2.40    2.57
   5   2   5   -0.69    2.01
   5  -3  -5   14.58    4.47
  -5   3   5    8.99    4.48
   5   3  -5    8.05    3.10
   4  -3  -5   31.15    4.84
   4   3  -5   27.47    3.80
   3  -3  -5    1.00    1.73
   3   3  -5    2.71    1.34
  -3   3   5    1.41    2.08
  -3   3   5    1.06    2.36
   2  -3  -5   32.23    3.38
   2  -3  -5   28.72    4.22
  -2   3   5   40.40    4.23
  -2   3   5   36.79    4.87
   2   3  -5   40.65    3.07
   2   3  -5   43.26    4.29
   1  -3  -5   77.94    6.45
  -1   3   5   72.32    6.51
  -1   3   5   73.31    5.17
   1   3  -5   78.13    6.10
   1   3  -5   69.62    4.59
   0  -3  -5   83.27    7.31
   0   3  -5  108.87    7.59
   0   3  -5  106.18    6.29
   0   3   5  115.34    8.09
   1  -3   5   11.36    2.13
  -1  -3  -5   12.82    2.96
  -1   3  -5   11.59    2.96
   1   3   5   11.56    2.92
  -1   3  -5   12.03    2.78
   2  -3   5    3.96    1.76
  -2  -3  -5    3.56    2.09
  -2   3  -5    4.16    2.13
  -2   3  -5    1.72    1.54
  -2   3  -5    2.78    2.05
  -2   3  -5    2.18    1.45
   2   3   5    3.18    1.89
  -2   3  -5    4.61    2.14
   3  -3   5   48.11    4.86
  -3   3  -5   38.45    4.80
  -3   3  -5   35.90    4.31
  -3   3  -5   40.14    4.82
   4  -3   5   10.94    3.50
  -4   3  -5   10.89    3.71
  -5   3  -5    5.65    3.92
   4  -4  -5    5.63    3.39
   3  -4  -5   29.80    4.33
  -3   4   5   21.89    5.23
   2   4  -5   68.28    7.36
  -2   4   5   52.24    5.62
   2   4  -5   55.23    4.23
  -1   4   5   38.00    4.65
   1   4  -5   25.78    2.83
   0   4  -5   24.19    3.65
  -1   4  -5   21.11    4.06
   2  -4   5   60.75    5.11
  -2   4  -5   59.60    5.99
   2   4   5   56.74    9.62
   3  -4   5   15.64    3.82
   4  -4   5    3.89    3.41
  -3   5   5    2.96    4.36
  -2   5   5   18.33    4.73
  -1   5   5   29.83    5.03
   1   5  -5   20.26    3.36
   0   5  -5   14.09    3.44
   0   5   5   16.39    3.18
  -1   5  -5   48.47    6.96
  -2   5  -5    1.31    3.05
   3  -5   5    5.18    3.28
  -2   6   5    5.97    4.53
   1   6  -5    7.93    3.10
  -1   6   5    7.80    4.40
   0   6   5    8.92    3.33
   0   6  -5    3.94    3.14
  -1   6  -5   15.86    5.36
  -2   6  -5   35.15    7.78
   6   0  -6    4.89    4.00
   5   0  -6    0.52    2.10
  -4   0   6   29.39    3.50
   4   0  -6   33.81    3.99
   3   0  -6   88.78    5.36
  -3   0   6   84.67    5.74
   3   0  -6   82.82    5.64
   2   0  -6  274.00   13.10
   2   0  -6  269.61   13.37
   2   0  -6  261.98   13.34
  -2   0   6  274.00   13.93
  -2   0   6  264.96   13.55
   1   0  -6  223.31   11.19
   1   0  -6  232.27   11.07
  -1   0   6  234.25   11.48
  -1   0   6  210.19   11.57
  -1   0   6  242.60   11.61
   1   0  -6  246.07   11.44
   0   0   6   56.71    3.63
   0   0   6   56.19    3.53
   0   0  -6   56.51    3.06
   0   0  -6   56.67    3.62
  -1   0  -6   22.20    1.54
   1   0   6   22.46    2.08
   1   0   6   22.61    2.01
  -1   0  -6   25.59    2.23
   1   0   6   21.73    2.01
  -2   0  -6    2.29    0.97
   2   0   6    2.88    1.15
   2   0   6    1.99    0.82
   2   0   6    1.54    1.14
   3   0   6   24.96    2.87
   4   0   6    3.37    2.15
   5   0   6   10.77    3.69
   6   0   6    3.65    3.76
   6   1  -6    5.09    3.93
  -6   1   6    2.92    2.86
   5   1  -6   34.28    5.33
  -5   1   6   31.83    5.05
   4  -1  -6   33.95    4.29
   4   1  -6   35.47    3.97
  -4   1   6   37.11    5.00
   3  -1  -6   91.15    6.44
   3  -1  -6   98.78    6.10
  -3   1   6  104.78    6.84
   3   1  -6   92.18    5.91
   2  -1  -6   15.40    1.80
  -2  -1   6   14.96    1.87
   2  -1  -6   14.42    1.67
   2  -1  -6   13.22    1.98
   2  -1  -6   19.38    2.58
   2   1  -6   15.16    1.63
  -2   1   6   17.54    2.56
   2   1  -6   15.42    1.75
  -2   1   6   14.72    1.86
   1  -1  -6  134.89    7.54
  -1  -1   6  136.84    7.36
   1  -1  -6  132.95    6.74
   1  -1  -6  133.19    6.84
  -1  -1   6  135.36    6.99
   1   1  -6  134.34    6.78
  -1   1   6  141.11    7.69
  -1   1   6  133.71    7.29
   1   1  -6  129.14    6.95
  -1   1   6  134.27    7.25
   1   1  -6  137.17    7.09
  -1   1   6  133.81    7.35
   0  -1   6  220.14   10.33
   0  -1  -6  227.66   10.68
   0  -1   6  220.05   10.63
   0   1   6  196.71   10.29
   0   1  -6  198.41    9.87
   0   1  -6  185.54   10.21
   0   1   6  190.98    9.86
   0   1  -6  192.62    9.97
  -1  -1  -6  186.36    9.43
   1  -1   6  170.25    9.43
   1  -1   6  178.54    9.53
   1  -1   6  161.57    9.15
  -1   1  -6  186.97    9.09
  -1   1  -6  187.16    9.48
   1   1   6  186.82    9.13
  -1   1  -6  186.65    9.29
  -1   1  -6  156.47    9.11
  -2  -1  -6   31.96    2.81
   2  -1   6   31.68    3.28
   2  -1   6   33.67    3.12
   2  -1   6   29.62    2.91
   2  -1   6   32.38    2.97
  -2   1  -6   35.25    3.17
  -2   1  -6   34.42    2.86
  -2   1  -6   34.57    2.72
   2   1   6   34.28    2.60
  -2   1  -6   32.97    2.70
   3  -1   6   20.78    3.48
   3  -1   6   17.97    2.75
  -3   1  -6   18.23    2.55
  -3   1  -6   13.95    1.83
   3   1   6   16.65    2.44
   4  -1   6   14.71    3.64
  -4   1  -6   11.93    2.45
   4   1   6   19.27    3.29
   5  -1   6   62.63    7.35
   5   1   6   55.01    6.23
   6   1   6    4.91    3.54
   5   2  -6    1.51    2.39
  -5   2   6    4.17    3.40
   4  -2  -6    3.75    2.12
   4   2  -6    4.12    2.07
  -4   2   6    2.76    2.62
   3  -2  -6   26.03    3.38
   3  -2  -6   23.60    3.27
  -3   2   6   11.49    2.94
   3   2  -6   15.91    2.33
  -3   2   6    4.95    2.36
   2  -2  -6  199.51   10.83
   2  -2  -6  199.49   11.94
  -2  -2   6  204.64   11.59
  -2   2   6  216.14   12.24
   2   2  -6  210.65   10.59
  -2   2   6  206.10   11.39
  -2   2   6  205.29   11.58
   2   2  -6  212.80   11.03
   1  -2  -6   45.92    4.26
  -1  -2   6   44.34    4.16
   1   2  -6   48.88    3.24
  -1   2   6   48.27    3.71
  -1   2   6   49.19    3.17
  -1   2   6   56.14    4.85
  -1   2   6   46.86    4.51
   1   2  -6   51.18    4.03
  -1   2   6   49.67    4.49
   0  -2   6   19.85    2.75
   0  -2  -6   17.71    2.62
   0  -2   6   17.63    1.95
   0   2   6   19.28    2.59
   0   2  -6   17.21    1.83
   0   2   6   18.63    2.79
   0   2  -6   17.74    1.98
   0   2  -6   18.41    2.53
   1  -2   6  123.12    9.86
   1  -2   6  129.88    7.23
  -1  -2  -6  136.91    8.07
   1  -2   6  141.38    7.59
   1   2   6  113.93    7.38
  -1   2  -6  116.96    7.64
  -1   2  -6  120.94    7.05
  -1   2  -6  118.91    7.26
   1   2   6  124.33    7.93
  -1   2  -6  117.86    7.48
   2  -2   6   53.04    4.72
   2  -2   6   54.84    4.59
  -2  -2  -6   52.65    4.79
  -2   2  -6   67.09    4.75
  -2   2  -6   66.87    5.01
  -2   2  -6   67.33    4.66
  -2   2  -6   63.78    4.77
   2   2   6   63.07    4.40
   2   2   6   67.11    5.06
   3  -2   6   18.78    3.39
  -3   2  -6   21.62    2.95
  -3   2  -6   22.88    3.48
  -3   2  -6   21.90    2.88
  -4   2  -6   36.32    4.83
  -5   2  -6    1.62    2.54
   5   2   6    1.91    2.53
   5  -3  -6   14.04    4.46
  -5   3   6    8.93    4.48
   5   3  -6    9.48    3.18
   4  -3  -6   29.32    4.85
   4   3  -6   29.86    4.08
   3  -3  -6   59.90    5.33
   3   3  -6   62.91    4.49
  -3   3   6   67.73    6.45
  -3   3   6   65.23    6.74
   2  -3  -6   13.09    3.36
   2  -3  -6   10.40    2.19
  -2   3   6   14.05    3.24
   2   3  -6   10.85    2.58
   2   3  -6   13.05    2.13
  -2   3   6   10.68    3.05
   1  -3  -6   50.28    5.13
  -1   3   6   48.98    5.32
   1   3  -6   48.26    4.69
   1   3  -6   49.08    3.57
  -1   3   6   47.22    4.01
   0  -3  -6  279.14   15.82
   0   3  -6  270.34   13.94
   0   3  -6  273.05   15.28
   0   3   6  262.42   15.65
  -1  -3  -6  146.41    9.74
   1  -3   6  128.63    7.93
  -1   3  -6  139.44    8.72
  -1   3  -6  143.20    8.52
   1   3   6  143.08    9.62
  -1   3  -6  132.47    9.18
  -2  -3  -6    6.19    2.46
   2  -3   6    3.47    1.78
  -2   3  -6    3.80    1.86
  -2   3  -6    2.29    1.79
  -2   3  -6    3.31    2.07
   2   3   6    2.54    1.83
  -2   3  -6    2.32    1.47
   3  -3   6    1.66    2.02
  -3   3  -6    2.60    2.21
  -3   3  -6    1.73    2.05
  -3   3  -6    0.44    1.71
   4  -3   6   35.99    5.85
  -4   3  -6   12.91    4.14
  -5   3  -6    6.65    3.68
   4  -4  -6    1.01    2.91
   4   4  -6    3.18    2.00
   3  -4  -6   14.30    3.30
  -3   4   6   20.60    5.00
  -2   4   6   24.55    4.64
   2   4  -6   16.82    2.72
   1   4  -6   40.85    3.51
  -1   4   6   35.11    3.99
   0   4  -6   17.56    3.18
  -1   4  -6   26.52    4.62
   2  -4   6   37.80    4.17
  -2   4  -6   43.38    5.24
   3  -4   6   45.58    6.10
   4  -4   6    3.71    3.65
  -3   5   6    4.67    4.05
   2   5  -6    0.91    1.76
  -2   5   6    3.01    3.30
   1   5  -6   25.44    3.85
  -1   5   6   34.93    5.37
   0   5  -6   60.49    5.65
  -1   5  -6   20.85    4.66
  -2   5  -6   -3.14    3.19
   3  -5   6    7.05    3.40
  -2   6   6   10.45    4.97
  -1   6   6    5.24    4.30
   1   6  -6   11.18    3.39
   0   6  -6    0.75    3.02
  -1   6  -6   19.33    5.61
  -2   6  -6    6.81    4.94
   5   0  -7    4.62    2.82
   4   0  -7    0.67    1.79
  -4   0   7    0.86    1.65
   3   0  -7  147.98    8.12
   3   0  -7  141.03    8.43
  -3   0   7  143.37    8.46
   2   0  -7   90.08    4.98
  -2   0   7   87.73    5.74
   2   0  -7   85.54    4.96
  -2   0   7   89.52    5.55
   2   0  -7   83.80    5.21
  -1   0   7  169.74    8.96
   1   0  -7  160.54    8.87
   1   0  -7  179.82    8.57
  -1   0   7  184.73    9.17
   0   0   7    0.43    0.97
   0   0   7    0.33    0.89
   0   0  -7    1.30    0.87
   0   0   7    0.38    0.77
   0   0  -7    0.17    0.80
   0   0  -7    0.78    0.56
  -1   0  -7  221.40   10.84
   1   0   7  196.38   10.75
  -1   0  -7  219.77   10.14
   1   0   7  201.41   10.69
  -1   0  -7  225.99   11.09
   1   0   7  222.54   10.88
   2   0   7  245.72   12.85
   2   0   7  242.64   12.68
   2   0   7  255.07   12.35
   3   0   7  172.38    9.82
   4   0   7   57.87    5.48
   5   0   7   10.82    3.66
   6   0   7    4.35    3.97
   6   1  -7    4.79    3.55
  -6   1   7    2.90    2.99
   5   1  -7    1.99    2.49
  -5   1   7    3.70    2.69
   4  -1  -7   33.73    4.31
  -4   1   7   31.79    4.62
   4   1  -7   28.88    3.71
   3  -1  -7    7.74    1.87
   3  -1  -7   16.42    2.45
   3   1  -7   13.45    2.31
  -3   1   7   11.70    2.66
   2  -1  -7   58.59    3.79
   2  -1  -7   58.97    4.21
   2  -1  -7   65.50    3.97
  -2  -1   7   64.83    4.11
  -2  -1   7   61.47    3.92
   2  -1  -7   61.50    4.35
   2   1  -7   57.96    3.84
   2   1  -7   60.26    3.86
   2   1  -7   55.22    3.67
  -2   1   7   59.58    4.47
  -2   1   7   61.01    4.02
  -2   1   7   48.68    4.22
  -1  -1   7    4.51    1.25
   1  -1  -7    4.47    0.80
  -1  -1   7    5.10    1.36
   1  -1  -7    4.41    1.36
   1  -1  -7    5.34    0.97
   1   1  -7    1.17    0.74
  -1   1   7    1.49    0.91
   1   1  -7    1.81    0.98
  -1   1   7    1.31    0.92
   1   1  -7    1.15    0.67
  -1   1   7    1.28    1.12
   0  -1   7  204.08   11.07
   0  -1  -7  210.37   11.31
   0  -1   7  206.50   11.68
   0  -1   7  207.39   11.30
   0   1   7  231.45   11.22
   0   1  -7  233.49   10.72
   0   1   7  227.76   10.82
   0   1  -7  229.89   10.87
   0   1  -7  227.58   11.16
   1  -1   7   31.37    2.88
   1  -1   7   32.28    3.03
  -1  -1  -7   36.60    3.03
  -1   1  -7   39.50    3.25
   1   1   7   41.35    2.92
  -1   1  -7   38.99    2.92
  -1   1  -7   41.29    2.98
  -1   1  -7   41.35    2.81
   2  -1   7   92.06    5.88
   2  -1   7   92.45    5.87
   2  -1   7   80.68    5.55
   2  -1   7   83.75    5.58
  -2   1  -7   86.61    5.28
  -2   1  -7   84.05    5.10
  -2   1  -7   84.44    5.54
  -2   1  -7   87.31    5.21
   3  -1   7    1.18    1.40
   3  -1   7    1.57    1.81
  -3   1  -7   -0.02    0.81
  -3   1  -7    2.06    1.38
   3   1   7    3.04    1.39
   4  -1   7   31.25    5.08
   4   1   7   31.00    4.11
  -4   1  -7   29.35    3.39
   5  -1   7   12.76    4.12
   5   1   7   17.16    3.95
   6   1   7    5.74    4.29
   5   2  -7    4.47    2.76
  -5   2   7    6.67    3.62
   4  -2  -7    5.98    2.38
  -4   2   7    1.86    2.51
   4   2  -7    4.52    2.12
   3  -2  -7   42.93    4.18
   3  -2  -7   44.95    4.68
   3   2  -7   52.54    3.79
  -3   2   7   49.98    4.89
  -3   2   7   42.94    4.90
  -3   2   7   43.64    4.94
  -2  -2   7  297.05   14.77
   2  -2  -7  287.89   13.93
   2  -2  -7  305.25   14.00
   2  -2  -7  294.46   15.24
  -2   2   7  254.73   14.46
  -2   2   7  261.54   15.10
   2   2  -7  243.36   13.44
  -2   2   7  257.95   14.31
   2   2  -7  248.44   13.79
   1  -2  -7  158.17    9.56
  -1  -2   7  161.98    9.47
  -1   2   7  160.08    8.07
   1   2  -7  153.32    8.22
   1   2  -7  156.91    9.02
  -1   2   7  149.12    8.63
  -1   2   7  165.05    9.79
  -1   2   7  156.98    9.63
   0  -2   7   36.57    3.71
   0  -2  -7   36.12    3.58
   0  -2   7   36.37    2.81
   0   2  -7   30.99    2.69
   0   2  -7   31.95    3.24
   0   2  -7   29.71    2.50
   0   2   7   28.05    3.42
   0   2   7   28.57    3.85
  -1  -2  -7   79.42    5.93
   1  -2   7   75.44    5.22
   1  -2   7   73.74    5.43
   1   2   7   79.36    5.46
  -1   2  -7   81.63    5.37
  -1   2  -7   82.31    5.76
  -1   2  -7   79.98    5.14
   1   2   7   89.27    6.15
  -1   2  -7   94.15    5.98
  -2  -2  -7   78.65    5.89
   2  -2   7   83.66    5.97
   2  -2   7   83.05    5.66
  -2   2  -7   80.49    5.42
  -2   2  -7   77.02    5.48
   2   2   7   75.46    5.23
   2   2   7   86.54    6.02
  -2   2  -7   86.26    5.86
  -2   2  -7   73.26    5.62
   3  -2   7  122.57    8.54
  -3   2  -7  133.00    8.36
  -3   2  -7  131.56    8.04
  -3   2  -7  127.98    7.99
  -4   2  -7    6.30    2.52
   5   2   7    1.86    2.40
  -5   2  -7    0.11    2.27
   5  -3  -7   12.13    4.20
   5   3  -7    6.70    3.34
  -5   3   7    7.97    4.86
   5   3  -7    9.28    3.17
   4  -3  -7    5.27    2.96
   4   3  -7   15.12    3.18
   3  -3  -7   47.52    4.57
   3   3  -7   44.27    3.73
  -3   3   7   42.31    5.35
  -3   3   7   45.04    5.85
   2  -3  -7    3.39    1.65
   2  -3  -7    5.04    2.25
  -2   3   7    8.31    2.76
   2   3  -7    6.11    1.95
   2   3  -7    5.65    1.52
  -2   3   7    7.23    2.70
   1  -3  -7   66.78    5.97
   1   3  -7   61.59    4.21
  -1   3   7   62.25    4.70
   1   3  -7   62.60    5.41
  -1   3   7   57.81    5.85
   0  -3  -7   42.64    4.89
   0   3  -7   48.63    4.75
   0   3  -7   49.61    3.89
   0   3   7   50.19    5.19
   1  -3   7   79.74    5.64
  -1  -3  -7   81.01    7.02
   1   3   7   87.06    7.12
  -1   3  -7   93.22    6.56
  -1   3  -7   84.82    6.78
  -1   3  -7   91.84    6.18
  -2  -3  -7   44.49    5.01
   2  -3   7   44.98    4.25
   2   3   7   37.67    4.67
  -2   3  -7   49.42    4.55
  -2   3  -7   42.52    4.53
  -2   3  -7   42.98    4.80
   3  -3   7   26.69    4.57
  -3   3  -7   20.54    3.35
  -3   3  -7   19.74    3.71
  -3   3  -7   20.48    3.84
   4  -3   7    5.17    3.09
  -4   3  -7    5.00    2.80
  -5   3  -7   11.80    4.35
   4  -4  -7    0.54    3.05
   4   4  -7    0.21    2.02
   3  -4  -7   19.30    3.46
   3   4  -7   14.39    2.56
  -3   4   7   16.57    4.96
  -2   4   7   60.56    6.03
   2   4  -7   53.28    4.34
  -1   4   7   33.38    3.87
   1   4  -7   31.23    3.23
   0   4  -7    6.83    2.17
  -1   4  -7    0.78    1.93
   2  -4   7   20.85    3.72
  -2   4  -7   28.97    5.09
   3  -4   7   38.56    5.90
   4  -4   7   17.83    4.76
  -3   5   7   10.52    4.77
   3   5  -7    9.83    2.91
   2   5  -7    4.14    2.14
  -2   5   7    2.14    3.42
  -1   5   7    6.70    3.29
   1   5  -7    7.56    2.40
   0   5  -7   20.69    4.04
  -1   5  -7   27.47    5.21
  -2   5  -7    1.33    3.55
   3  -5   7    0.45    2.72
  -2   6   7   34.05    7.31
  -1   6   7    8.51    4.49
   1   6  -7    3.60    2.84
   0   6  -7   10.89    3.96
  -1   6  -7    2.06    3.86
  -5   0   8    6.44    2.52
   5   0  -8    8.10    3.04
   4   0  -8    1.91    1.99
  -4   0   8    2.44    1.88
   3   0  -8    4.67    1.75
  -3   0   8    2.16    1.46
   3   0  -8    2.50    1.16
   2   0  -8   65.44    4.09
   2   0  -8   70.51    4.20
   2   0  -8   65.09    4.32
  -2   0   8   67.87    4.87
  -2   0   8   61.10    4.19
  -2   0   8   68.46    4.70
   1   0  -8   32.41    2.32
  -1   0   8   34.87    2.88
   1   0  -8   30.15    2.64
  -1   0   8   36.57    2.86
   0   0   8   88.03    5.27
   0   0  -8   86.97    4.56
   0   0  -8   85.74    4.99
   0   0   8   82.88    5.14
   0   0  -8   89.43    5.31
   1   0   8   21.61    2.21
   1   0   8   19.96    2.19
  -1   0  -8   24.43    2.38
  -1   0  -8   27.14    2.49
  -1   0  -8   25.11    1.71
   1   0   8   21.90    2.23
   2   0   8  225.81   11.96
   2   0   8  227.91   11.48
   2   0   8  222.69   11.81
   3   0   8   31.07    3.44
   4   0   8   67.91    5.83
   5   0   8    3.89    3.21
   6   0   8    4.09    4.33
  -6   1   8    0.84    2.85
   6   1  -8    4.24    3.31
  -5   1   8   21.05    4.48
   5   1  -8   16.64    3.97
   4  -1  -8   29.19    4.38
   4   1  -8   24.24    3.86
  -4   1   8   19.86    3.94
   3  -1  -8   42.65    3.73
   3  -1  -8   39.32    3.46
  -3   1   8   38.30    3.83
  -3   1   8   34.51    3.94
   3   1  -8   36.26    3.42
   2  -1  -8   11.13    2.13
   2  -1  -8   12.50    2.20
   2  -1  -8    9.66    1.55
  -2  -1   8   10.79    1.85
   2  -1  -8   11.83    1.91
  -2  -1   8   13.60    2.14
   2   1  -8   17.80    1.97
  -2   1   8   12.70    2.58
  -2   1   8   16.78    2.57
  -2   1   8   16.35    1.98
   2   1  -8   15.55    1.74
   2   1  -8   19.17    2.02
  -2   1   8   16.93    2.66
   1  -1  -8  193.73   10.13
  -1  -1   8  186.49    9.89
   1  -1  -8  186.35    9.26
  -1  -1   8  181.35    9.59
   1  -1  -8  181.38    9.13
  -1   1   8  189.06    9.93
   1   1  -8  184.44    9.51
   1   1  -8  188.16    9.62
  -1   1   8  187.59    9.73
   1   1  -8  193.62    9.30
  -1   1   8  184.01    9.77
   0  -1   8  168.31    8.45
   0  -1  -8  172.86    8.68
   0  -1   8  165.77    8.61
   0  -1   8  161.19    8.50
   0   1  -8  150.24    7.76
   0   1   8  147.45    7.57
   0   1  -8  150.36    7.99
   0   1   8  151.29    8.02
   0   1  -8  144.32    8.17
   0   1   8  146.76    8.23
   1  -1   8  313.44   16.93
   1  -1   8  343.31   16.88
   1  -1   8  340.73   17.11
  -1  -1  -8  362.47   17.03
  -1   1  -8  342.00   17.05
   1   1   8  343.09   16.68
  -1   1  -8  353.16   16.74
  -1   1  -8  335.01   16.42
  -1   1  -8  341.93   16.75
   2  -1   8   75.54    5.42
   2  -1   8   73.66    5.23
   2  -1   8   72.89    5.40
   2  -1   8   70.39    5.18
   2   1   8   79.61    4.91
  -2   1  -8   82.84    4.93
  -2   1  -8   78.08    5.19
  -2   1  -8   78.69    4.78
  -2   1  -8   82.25    4.95
   3  -1   8   22.01    3.78
   3   1   8   15.61    2.50
  -3   1  -8   12.12    2.09
  -3   1  -8   14.15    2.09
   4  -1   8    3.47    2.64
   4   1   8    0.48    1.69
  -4   1  -8   -0.42    1.38
   5  -1   8   12.97    4.34
   5   1   8   15.55    4.10
   6   1   8    5.68    4.32
  -5   2   8   10.67    3.99
   5   2  -8    8.12    3.24
   4  -2  -8    7.14    2.59
   4   2  -8    9.65    2.70
  -4   2   8    5.15    2.87
   3  -2  -8   23.36    3.79
   3  -2  -8   21.05    3.27
  -3   2   8   24.91    4.12
   3   2  -8   26.13    2.82
  -3   2   8   29.79    4.19
  -3   2   8   26.53    4.49
   2  -2  -8   52.32    5.06
  -2  -2   8   55.12    4.92
   2  -2  -8   54.11    4.36
  -2   2   8   76.51    5.38
   2   2  -8   69.68    4.64
  -2   2   8   72.36    5.81
  -2   2   8   70.10    5.14
   2   2  -8   72.06    4.44
  -1  -2   8  201.90   11.88
   1  -2  -8  190.05   11.50
  -1   2   8  202.56   10.00
   1   2  -8  207.66   11.03
  -1   2   8  202.65   11.20
   1   2  -8  205.23   10.32
  -1   2   8  198.45   11.72
   1   2  -8  195.76   10.89
  -1   2   8  198.23   10.63
   0  -2   8  107.87    6.27
   0  -2  -8  102.12    7.14
   0   2  -8  109.42    6.87
   0   2   8  111.95    7.39
   0   2  -8  108.32    6.23
   0   2  -8  104.95    6.00
  -1  -2  -8   42.89    4.05
   1  -2   8   38.46    3.42
   1  -2   8   42.31    3.77
   1   2   8   43.44    4.13
  -1   2  -8   39.28    3.26
  -1   2  -8   41.03    3.49
  -1   2  -8   38.67    3.91
  -1   2  -8   39.66    3.71
  -2  -2  -8    7.58    2.22
   2  -2   8    7.46    2.11
   2  -2   8   12.02    2.87
  -2   2  -8    9.93    2.13
   2   2   8   10.13    2.50
  -2   2  -8    6.58    1.86
  -2   2  -8    8.00    1.86
  -2   2  -8    9.52    2.16
  -2   2  -8    9.68    2.40
   3  -2   8   32.47    4.03
  -3   2  -8   29.58    3.33
  -3   2  -8   28.58    3.46
  -3   2  -8   30.48    3.65
  -4   2  -8   19.24    3.52
   4   2   8   21.51    3.45
   5   2   8    4.26    2.65
  -5   2  -8    1.81    2.63
   5  -3  -8    1.81    3.52
   5   3  -8   -1.01    2.34
   5   3  -8   -0.33    2.87
   4  -3  -8   50.03    5.70
   4   3  -8   50.78    4.82
   3  -3  -8   16.69    3.79
   3  -3  -8   21.71    3.48
  -3   3   8   21.94    4.67
   3   3  -8   17.81    2.76
  -3   3   8   28.46    5.29
   2  -3  -8   35.04    4.55
  -2   3   8   38.91    4.34
   2   3  -8   39.86    3.38
   2   3  -8   40.60    4.05
  -2   3   8   35.70    4.95
   1  -3  -8    7.08    2.52
  -1   3   8   12.50    2.58
   1   3  -8    9.25    2.50
   1   3  -8    8.15    1.84
  -1   3   8   10.13    2.96
   0  -3  -8   74.82    6.53
   0   3   8   74.88    6.58
   0   3  -8   69.79    5.05
   0   3  -8   74.01    6.03
  -1  -3  -8   47.39    5.35
   1  -3   8   52.59    4.29
  -1   3  -8   58.49    4.69
  -1   3  -8   57.38    5.10
   1   3   8   53.89    5.60
  -1   3  -8   56.15    5.28
   2  -3   8   34.61    3.87
  -2  -3  -8   36.75    4.70
   2   3   8   33.44    4.40
  -2   3  -8   31.73    4.12
  -2   3  -8   32.40    4.25
  -2   3  -8   33.46    3.92
   3  -3   8    4.59    2.37
  -3   3  -8    3.53    2.09
  -3   3  -8    7.60    2.58
  -3   3  -8    7.54    2.57
   4  -3   8   26.11    5.13
  -4   3  -8   15.28    3.93
  -5   3  -8    2.70    3.59
   5   3   8    2.80    2.71
   4  -4  -8    0.94    2.97
   4   4  -8    3.39    2.59
   3  -4  -8    9.66    2.82
  -3   4   8   13.20    4.52
   3   4  -8    7.20    2.07
  -2   4   8   18.83    4.25
   2   4  -8   15.99    2.78
  -1   4   8   17.41    3.37
   1   4  -8   14.86    2.61
   0   4  -8   38.69    3.98
  -1   4  -8    6.36    2.69
   2  -4   8   17.03    3.64
  -2   4  -8   22.56    4.56
   3  -4   8   52.11    6.80
   4  -4   8    7.08    3.87
  -3   5   8   11.81    5.09
   3   5  -8   13.84    3.30
  -2   5   8    1.31    3.48
   2   5  -8    2.75    2.16
   1   5  -8    1.08    1.91
  -1   5   8    4.20    2.85
   0   5  -8   14.19    3.68
  -1   5  -8   58.41    6.30
  -2   5  -8   20.98    5.11
   3  -5   8   -0.29    2.72
   1   6  -8   15.04    3.95
  -1   6   8   17.95    5.28
   0   6  -8    3.09    3.19
  -1   6  -8    0.07    3.14
  -5   0   9   19.81    3.68
   5   0  -9   18.89    4.26
  -4   0   9   37.56    4.35
   4   0  -9   41.38    4.43
   3   0  -9   14.38    2.23
  -3   0   9   14.13    2.70
   3   0  -9   18.45    2.95
  -2   0   9   40.45    3.77
  -2   0   9   41.60    3.63
  -2   0   9   44.74    3.37
   2   0  -9   41.74    3.31
   2   0  -9   43.93    3.13
   2   0  -9   45.41    3.29
   1   0  -9   93.17    4.87
  -1   0   9   98.21    5.55
   1   0  -9   72.07    4.78
   1   0  -9   78.82    5.23
  -1   0   9   93.29    5.35
   0   0  -9   51.49    3.65
   0   0   9   52.38    3.80
   0   0  -9   54.13    3.16
   0   0   9   52.48    3.70
   0   0   9   53.80    3.85
   0   0  -9   58.41    3.94
   1   0   9    0.71    0.83
   1   0   9    0.52    0.90
  -1   0  -9    0.86    0.62
  -1   0  -9    0.54    0.94
   1   0   9    0.91    0.90
   1   0   9    1.44    1.11
  -1   0  -9    1.52    0.70
  -1   0  -9    0.85    0.95
   2   0   9    1.54    1.05
   2   0   9    0.66    0.80
   2   0   9    0.53    1.10
  -2   0  -9    1.49    1.09
   3   0   9   86.13    6.18
   4   0   9   63.87    5.89
   5   0   9    5.65    3.29
   6   0   9   -2.13    3.24
   6   1  -9    0.19    2.90
  -6   1   9    3.32    3.04
   5   1  -9    1.35    2.29
  -5   1   9    1.55    2.60
   4  -1  -9   49.71    4.92
   4   1  -9   59.57    5.20
  -4   1   9   57.04    5.76
   4   1  -9   56.79    5.10
   3  -1  -9   55.32    4.70
  -3  -1   9   55.11    4.21
   3  -1  -9   53.69    4.35
   3  -1  -9   60.07    4.73
  -3   1   9   62.72    4.96
  -3   1   9   58.42    5.11
   3   1  -9   63.20    4.52
   2  -1  -9  112.01    6.67
   2  -1  -9  118.56    7.23
  -2  -1   9  123.30    7.10
   2  -1  -9  120.65    6.90
  -2  -1   9  124.50    7.19
   2  -1  -9  123.28    7.49
  -2   1   9  129.37    7.72
  -2   1   9  126.48    7.80
   2   1  -9  135.81    7.23
   2   1  -9  122.98    6.82
  -2   1   9  132.54    7.72
   2   1  -9  120.41    6.94
   1  -1  -9   39.45    2.68
   1  -1  -9   42.81    3.46
  -1  -1   9   39.49    3.13
  -1  -1   9   40.78    3.26
   1   1  -9   37.49    2.99
   1   1  -9   41.32    3.00
  -1   1   9   41.07    3.20
  -1   1   9   38.20    3.38
  -1   1   9   36.03    3.11
   1   1  -9   36.55    2.67
   0  -1   9  106.66    6.24
   0  -1  -9  114.99    6.39
   0  -1   9  111.50    6.32
   0  -1   9  108.77    6.17
   0   1  -9   98.58    5.42
   0   1   9   96.31    5.30
   0   1  -9   99.94    5.70
   0   1   9   95.08    5.93
   0   1   9   96.33    5.77
   0   1  -9   95.64    5.85
  -1   1  -9   29.32    2.41
   1   1   9   27.55    2.49
   1   1   9   31.28    2.72
  -1   1  -9   31.91    2.71
  -1   1  -9   30.31    2.66
  -1   1  -9   30.92    3.04
   2  -1   9   80.73    5.65
   2  -1   9   76.56    5.63
   2  -1   9   83.05    5.54
  -2  -1  -9   77.79    5.21
   2  -1   9   74.02    5.33
  -2   1  -9   77.06    5.25
  -2   1  -9   81.59    5.07
   2   1   9   77.90    5.15
  -2   1  -9   81.18    4.95
   2   1   9   80.97    4.90
  -2   1  -9   76.78    5.50
  -2   1  -9   76.25    4.86
   3  -1   9   42.02    4.50
  -3   1  -9   45.21    3.72
  -3   1  -9   47.13    3.74
   3   1   9   46.34    3.88
   4  -1   9   16.27    4.22
   4   1   9   21.68    3.60
  -4   1  -9   14.67    2.55
   5  -1   9    0.45    2.95
   5   1   9    3.83    2.96
  -5   2   9   11.03    4.00
   5   2  -9    6.50    3.06
   4  -2  -9    7.98    2.82
   4   2  -9   10.34    2.80
  -4   2   9   10.43    3.56
   3  -2  -9    6.22    2.03
   3  -2  -9    6.15    2.13
   3   2  -9    8.72    2.06
  -3   2   9    6.00    2.36
  -3   2   9    8.24    2.72
  -3   2   9   10.20    3.19
   2  -2  -9   46.84    4.47
  -2  -2   9   56.01    6.52
   2  -2  -9   48.49    3.72
  -2   2   9   38.19    4.00
   2   2  -9   40.73    3.38
  -2   2   9   42.25    4.21
   2   2  -9   40.80    3.53
  -2   2   9   39.98    4.48
   1  -2  -9  116.11    8.12
  -1   2   9  123.22    7.36
  -1   2   9  131.24    7.46
   1   2  -9  128.98    7.07
   1   2  -9  134.39    7.68
  -1   2   9  127.30    8.40
   1   2  -9  121.31    6.69
   0  -2  -9  118.26    7.93
   0  -2   9  124.30    7.11
   0   2  -9  118.74    7.47
   0   2   9  124.37    6.39
   0   2  -9  119.31    6.74
   0   2   9  125.01    8.15
   0   2  -9  125.63    6.98
  -1  -2  -9    0.76    1.27
   1  -2   9    1.30    1.49
   1  -2   9    1.23    1.25
  -1   2  -9    0.71    1.52
  -1   2  -9    1.16    1.06
  -1   2  -9    1.33    1.29
  -1   2  -9    1.64    1.23
   1   2   9    0.97    1.21
  -2  -2  -9   62.90    5.29
   2  -2   9   69.20    5.40
   2  -2   9   68.17    5.18
   2   2   9   60.96    5.20
  -2   2  -9   61.59    4.75
  -2   2  -9   63.54    4.90
  -2   2  -9   61.81    4.97
  -2   2  -9   61.04    4.73
  -2   2  -9   58.79    5.00
   3  -2   9   12.27    3.40
   3  -2   9    8.98    2.68
  -3   2  -9   13.70    2.55
  -3   2  -9   13.85    2.77
  -3   2  -9   15.54    2.70
   4   2   9   27.60    3.74
  -4   2  -9   18.66    3.52
   5   2   9    2.83    2.52
  -5   2  -9    0.98    2.30
   5  -3  -9    3.25    3.36
   5   3  -9   -0.36    2.45
   5   3  -9   -0.05    2.94
   4   3  -9    1.01    1.98
   3  -3  -9   46.36    4.61
   3  -3  -9   45.54    5.47
  -3   3   9   51.43    6.90
   3   3  -9   40.32    3.84
  -3   3   9   43.89    5.89
   2  -3  -9   42.70    5.16
   2   3  -9   44.91    4.45
  -2   3   9   50.53    5.75
  -2   3   9   53.46    5.10
   2   3  -9   50.98    3.97
   1  -3  -9    9.83    2.78
  -1   3   9   14.90    2.80
   1   3  -9   14.23    2.31
   1   3  -9   12.54    2.68
  -1   3   9   14.34    3.40
   0  -3  -9    4.12    2.10
   0   3   9    1.81    1.69
   0   3  -9    6.20    2.15
   0   3  -9    2.20    1.46
  -1  -3  -9   97.86    7.92
   1  -3   9  101.01    6.56
  -1   3  -9  103.63    6.86
  -1   3  -9   96.93    7.41
   1   3   9   98.02    7.90
  -2  -3  -9   18.55    3.88
   2  -3   9   17.20    3.39
   2   3   9   13.38    3.37
  -2   3  -9   17.00    3.56
  -2   3  -9   16.97    3.48
  -2   3  -9   17.95    3.23
   3  -3   9   27.28    4.64
  -3   3  -9   27.26    4.11
  -3   3  -9   21.30    3.49
  -3   3  -9   23.74    4.21
   4  -3   9   14.19    4.08
  -4   3  -9    3.69    2.93
   5   3   9    5.30    2.66
  -5   3  -9    4.39    3.42
   4  -4  -9    8.98    3.72
   4   4  -9   13.29    3.23
   3   4  -9    6.59    2.29
  -3   4   9    8.65    4.13
   2   4  -9   54.51    4.44
  -2   4   9   48.41    5.50
   1   4  -9   91.79    6.16
  -1   4   9   91.44    6.67
   0   4  -9   38.18    4.02
  -1   4  -9    2.37    2.29
   2  -4   9    3.30    2.25
  -2   4  -9    2.31    2.61
   3  -4   9   24.72    4.76
   4  -4   9    8.67    4.33
  -3   5   9    7.88    4.94
   3   5  -9    2.34    2.52
  -2   5   9    3.48    3.85
   2   5  -9    6.43    2.67
  -1   5   9    1.95    2.63
   1   5  -9    5.09    2.37
   0   5  -9   37.95    5.49
  -1   5  -9   46.60    5.63
  -2   5  -9   59.18    8.25
   3  -5   9    7.48    3.62
  -1   6   9   23.79    5.70
   1   6  -9   18.21    4.09
   0   6  -9   15.32    4.46
  -1   6  -9    0.77    3.28
   5   0 -10    9.76    3.34
  -5   0  10    6.34    2.67
  -4   0  10    4.91    2.32
   4   0 -10    4.79    2.28
   3   0 -10    1.08    1.30
   3   0 -10    0.45    1.30
   3   0 -10   -0.09    1.07
  -3   0  10    0.78    1.39
  -2   0  10  140.01    8.52
  -2   0  10  143.48    8.12
   2   0 -10  143.96    7.80
   2   0 -10  151.97    8.10
  -2   0  10  145.06    8.38
   2   0 -10  143.59    8.05
   1   0 -10  299.50   15.06
   1   0 -10  292.39   15.69
  -1   0  10  338.61   15.91
   1   0 -10  322.30   15.30
  -1   0  10  318.32   15.58
   0   0 -10  322.63   15.30
   0   0 -10  329.68   16.28
   0   0 -10  315.66   15.80
   0   0  10  319.39   16.07
   0   0  10  327.71   15.96
   0   0  10  322.87   16.19
   1   0  10  452.81   21.79
  -1   0 -10  483.50   22.15
  -1   0 -10  462.25   20.90
   1   0  10  448.35   21.70
   1   0  10  444.04   21.51
   1   0  10  400.90   21.71
  -1   0 -10  455.25   21.70
   2   0  10    9.46    1.92
   2   0  10    5.55    1.40
   2   0  10    5.83    1.39
  -2   0 -10    8.52    1.83
   2   0  10    7.48    1.94
   3   0  10    2.65    2.01
  -3   0 -10    1.00    1.06
   4   0  10   60.45    6.00
   5   0  10   47.06    7.16
  -5   1  10    4.09    3.11
   5   1 -10    2.64    2.46
   4  -1 -10   42.54    4.39
   4   1 -10   40.82    4.56
   4   1 -10   41.63    4.45
  -4   1  10   42.53    5.64
   3  -1 -10   82.32    5.78
  -3  -1  10   79.32    5.30
   3  -1 -10   78.79    5.87
   3  -1 -10   79.27    5.43
  -3   1  10   69.99    5.75
   3   1 -10   79.15    5.47
  -3   1  10   78.74    6.07
   2  -1 -10   42.61    3.77
   2  -1 -10   46.35    3.31
  -2  -1  10   45.88    3.59
  -2  -1  10   40.43    3.49
   2  -1 -10   44.86    3.60
   2  -1 -10   41.28    3.10
   2   1 -10   38.24    3.13
   2   1 -10   40.39    3.31
  -2   1  10   39.53    3.45
  -2   1  10   44.92    4.07
   2   1 -10   42.80    3.64
  -2   1  10   42.16    3.87
  -1  -1  10   22.06    2.59
   1  -1 -10   21.47    2.50
   1  -1 -10   20.70    1.80
   1  -1 -10   17.59    1.62
  -1  -1  10   20.52    2.36
  -1  -1  10   17.93    2.27
   1   1 -10   15.25    1.96
   1   1 -10   15.75    1.76
  -1   1  10   13.02    2.01
   1   1 -10   15.96    2.03
  -1   1  10   20.62    2.92
  -1   1  10   14.65    2.28
   0  -1  10   87.92    5.72
   0  -1  10   84.93    5.73
   0  -1 -10   91.09    5.80
   0  -1  10   89.86    5.67
   0   1 -10   90.47    4.92
   0   1 -10   92.63    5.50
   0   1  10   88.28    4.89
   0   1  10   85.55    5.38
   0   1  10   92.85    5.57
  -1  -1 -10  289.41   15.30
   1  -1  10  284.34   15.36
   1  -1  10  285.75   15.13
   1  -1  10  279.18   15.28
  -1   1 -10  304.88   15.47
  -1   1 -10  308.99   14.62
   1   1  10  294.76   14.25
  -1   1 -10  308.61   15.10
  -1   1 -10  309.68   14.93
   1   1  10  303.72   14.62
   1   1  10  311.71   15.18
   1   1  10  315.70   14.88
   2  -1  10   66.65    5.38
   2  -1  10   72.12    5.36
   2  -1  10   74.40    5.62
   2  -1  10   74.85    5.64
  -2  -1 -10   76.95    5.28
  -2   1 -10   82.91    4.95
  -2   1 -10   83.48    5.24
   2   1  10   73.12    5.26
  -2   1 -10   78.46    4.93
   2   1  10   84.88    4.99
  -2   1 -10   88.27    5.78
   3  -1  10   51.08    4.97
   3   1  10   53.92    4.42
  -3   1 -10   57.22    4.14
  -3   1 -10   48.79    4.02
   4  -1  10   13.86    3.84
   4   1  10   16.29    3.30
  -4   1 -10   10.05    2.26
   5  -1  10   10.20    4.32
   5   1  10    3.73    2.96
   5  -2 -10   12.34    4.77
   5   2 -10    5.32    3.05
  -5   2  10    7.04    4.15
   4  -2 -10   22.39    3.80
   4   2 -10   20.75    3.77
  -4   2  10   14.65    3.99
   3  -2 -10    6.63    2.17
   3  -2 -10    2.76    1.90
  -3   2  10    1.06    1.91
  -3   2  10    3.67    2.34
  -3   2  10    4.17    2.73
   3   2 -10    3.49    1.68
   2  -2 -10   23.62    3.81
   2  -2 -10   20.60    2.71
  -2   2  10   24.31    3.66
  -2   2  10   26.38    3.65
   2   2 -10   24.91    2.64
  -2   2  10   31.92    4.24
   2   2 -10   28.10    2.78
  -1  -2  10   58.67    3.77
   1  -2 -10   56.03    4.78
   1   2 -10   45.20    3.22
   1   2 -10   46.05    3.59
  -1   2  10   43.21    4.55
  -1   2  10   47.37    3.91
   1   2 -10   49.13    3.99
  -1   2  10   48.86    4.91
   0  -2  10   74.92    5.65
   0  -2 -10   81.81    6.51
   0   2 -10   97.03    5.53
   0   2  10  101.01    5.19
   0   2  10   95.72    6.89
   0   2  10   98.57    5.57
   0   2 -10   94.96    6.23
   0   2 -10   99.14    5.76
  -1  -2 -10   69.09    5.47
   1  -2  10   69.67    5.10
   1  -2  10   71.08    4.94
  -1   2 -10   65.30    4.77
  -1   2 -10   66.49    4.97
  -1   2 -10   57.99    4.37
  -1   2 -10   60.24    5.20
   1   2  10   60.88    5.38
   2  -2  10   25.11    4.08
   2  -2  10   27.76    3.80
  -2  -2 -10   21.50    3.26
  -2   2 -10   25.08    3.18
  -2   2 -10   22.70    2.86
   2   2  10   22.71    3.30
  -2   2 -10   23.85    2.99
   3  -2  10   65.22    5.84
   3  -2  10   65.25    6.19
  -3   2 -10   63.03    5.28
  -3   2 -10   67.14    5.21
  -3   2 -10   66.30    5.40
  -4   2 -10   34.73    4.35
   4   2  10   38.15    4.03
  -5   2 -10   12.81    3.48
   5   2  10   16.00    3.79
   5  -3 -10    2.80    3.40
   5   3 -10    1.79    3.39
   4  -3 -10   11.47    3.50
   4   3 -10    9.89    2.85
   3  -3 -10   47.60    5.69
   3  -3 -10   51.39    4.77
  -3   3  10   40.64    5.96
   3   3 -10   37.73    3.92
  -3   3  10   50.51    6.75
   2  -3 -10   38.78    4.90
   2   3 -10   37.42    3.58
  -2   3  10   41.26    4.73
   2   3 -10   36.50    3.98
  -2   3  10   33.30    5.06
   1  -3 -10    8.08    2.63
  -1   3  10    4.92    2.48
   1   3 -10    7.32    1.90
  -1   3  10    8.77    2.35
   1   3 -10    8.56    2.40
   0  -3  10   24.81    2.70
   0  -3 -10   23.57    4.18
   0   3  10   23.34    4.31
   0   3 -10   28.84    3.04
   0   3 -10   27.38    3.54
   1  -3  10   28.72    3.39
  -1  -3 -10   26.03    4.54
  -1   3 -10   37.57    4.25
  -1   3 -10   41.28    3.98
   1   3  10   37.10    4.73
   2  -3  10   83.42    6.67
  -2  -3 -10   91.13    7.75
  -2   3 -10   95.37    6.85
   2   3  10   93.67    7.71
  -2   3 -10   99.20    7.18
  -2   3 -10   99.21    7.38
   3  -3  10   18.64    4.09
  -3   3 -10   12.43    2.86
  -3   3 -10   11.45    2.95
   4  -3  10    3.73    3.15
   4   3  10    1.85    1.73
  -4   3 -10    3.16    2.92
   5   3  10    0.62    2.55
  -5   3 -10   -1.08    3.00
   4  -4 -10   27.77    5.11
   4   4 -10   20.04    3.80
  -3   4  10   -1.57    3.05
   3   4 -10    0.58    1.72
   2   4 -10   16.49    3.05
  -2   4  10   17.58    4.22
  -1   4  10   85.89    6.61
   1   4 -10   90.49    6.15
   0   4 -10   38.32    4.05
  -1   4 -10   16.82    3.81
   2  -4  10   12.63    3.45
  -2   4 -10   11.13    3.60
   3  -4  10   24.64    4.81
   4  -4  10   32.55    6.29
   3   5 -10   19.92    4.01
  -3   5  10   14.65    5.20
   2   5 -10   14.41    3.31
  -2   5  10   13.62    4.33
  -1   5  10    3.29    2.91
   1   5 -10    3.55    2.25
   0   5 -10    3.61    2.72
  -1   5 -10    4.16    2.78
  -2   5 -10   19.52    5.26
   3  -5  10    8.43    3.64
  -1   6  10   10.35    4.52
   1   6 -10    9.38    3.57
   0   6 -10   19.24    4.80
  -1   6 -10    4.95    3.80
  -5   0  11   23.38    4.13
   4   0 -11    2.74    2.26
  -4   0  11    1.07    2.03
   3   0 -11    1.01    1.38
   3   0 -11   -0.32    1.26
  -3   0  11    2.74    1.63
   3   0 -11   -1.13    1.52
   3   0 -11    0.71    1.24
  -2   0  11   85.17    5.96
  -2   0  11   90.30    5.68
   2   0 -11   88.87    5.51
   2   0 -11   80.17    5.18
   2   0 -11   90.25    5.60
  -2   0  11   83.13    5.76
  -1   0  11  113.27    6.60
   1   0 -11  107.91    6.70
  -1   0  11  116.61    6.79
   1   0 -11  111.86    6.23
   1   0 -11  101.64    5.97
   0   0  11   70.45    4.84
   0   0  11   63.02    4.54
   0   0  11   68.51    4.78
   0   0 -11   70.42    4.64
   0   0 -11   71.22    4.87
   0   0 -11   68.77    3.99
   1   0  11   58.29    4.44
   1   0  11   64.37    4.49
   1   0  11   63.47    4.23
  -1   0 -11   68.53    4.73
   1   0  11   57.84    4.33
  -1   0 -11   63.97    4.44
  -1   0 -11   64.64    3.67
  -2   0 -11   26.99    2.97
   2   0  11   22.36    2.53
   2   0  11   28.92    2.99
   2   0  11   25.98    2.90
  -3   0 -11    5.96    1.56
   3   0  11    7.24    2.36
   4   0  11    3.12    2.77
   5   0  11    4.95    3.50
  -5   1  11    0.00    3.07
   5   1 -11    1.64    2.48
   4  -1 -11   17.51    3.29
   4   1 -11   19.26    3.79
  -4   1  11   13.92    3.52
   4   1 -11   16.98    3.41
   3  -1 -11   72.12    5.25
  -3  -1  11   69.89    5.08
   3  -1 -11   71.37    5.53
   3   1 -11   71.84    5.29
  -3   1  11   82.95    6.19
   2  -1 -11  154.95    8.29
  -2  -1  11  155.29    8.71
   2  -1 -11  159.12    9.10
   2  -1 -11  150.09    8.68
  -2  -1  11  150.90    8.57
   2   1 -11  146.94    8.20
  -2   1  11  154.74    9.00
   2   1 -11  152.10    8.42
   2   1 -11  147.61    8.86
  -2   1  11  139.96    9.18
  -2   1  11  157.64    9.22
   1  -1 -11  144.46    7.41
  -1  -1  11  144.56    8.26
  -1  -1  11  144.90    8.29
  -1  -1  11  138.20    7.94
   1  -1 -11  147.64    8.43
  -1   1  11  139.66    8.24
  -1   1  11  134.43    8.09
   1   1 -11  134.73    7.50
   1   1 -11  147.43    8.16
   1   1 -11  143.80    7.84
  -1   1  11  136.61    7.92
   0  -1  11   23.37    2.79
   0  -1  11   22.49    2.83
   0  -1  11   19.63    2.56
   0  -1 -11   25.66    2.78
   0   1  11   22.53    2.61
   0   1  11   22.69    2.49
   0   1 -11   23.19    2.44
   0   1 -11   23.34    1.99
   1  -1  11  124.01    7.02
   1  -1  11  119.51    7.13
  -1  -1 -11  132.82    7.34
  -1   1 -11  112.76    6.79
  -1   1 -11  107.59    6.50
  -1   1 -11  108.67    6.21
  -1   1 -11  107.86    7.04
   1   1  11  114.10    6.59
   1   1  11  103.34    6.71
   2  -1  11   64.08    4.89
  -2  -1 -11   70.47    4.94
   2  -1  11   66.97    5.23
  -2   1 -11   61.84    4.29
   2   1  11   68.07    4.49
  -2   1 -11   65.16    5.08
   2   1  11   65.09    4.80
  -2   1 -11   62.72    4.37
   2   1  11   53.20    4.66
  -2   1 -11   71.90    4.85
   3  -1  11   67.93    6.00
   3   1  11   68.58    5.33
  -3   1 -11   74.10    4.92
  -3   1 -11   71.21    4.90
  -3   1 -11   73.90    5.30
   4  -1  11    0.94    2.38
   4   1  11    2.35    2.31
  -4   1 -11    1.80    1.58
   5  -1  11    4.20    3.92
   5   1  11    3.48    2.95
   5  -2 -11    5.24    3.51
   5   2 -11    6.91    3.28
  -5   2  11   11.35    4.61
   5   2 -11    5.63    3.35
   4  -2 -11    2.59    2.25
  -4   2  11    4.65    2.96
   4   2 -11    4.02    2.44
   3  -2 -11   15.95    3.26
   3  -2 -11   20.03    3.16
  -3   2  11   19.22    3.85
  -3   2  11   28.08    4.97
  -3   2  11   23.87    4.02
   3   2 -11   25.10    3.06
   2  -2 -11    6.62    1.76
   2  -2 -11    4.23    1.93
   2   2 -11    6.31    1.64
  -2   2  11    6.71    2.51
  -2   2  11    3.46    1.99
   2   2 -11    8.14    1.90
   1  -2 -11   51.40    4.90
  -1  -2  11   53.26    4.01
   1   2 -11   59.35    4.46
  -1   2  11   59.17    4.44
  -1   2  11   58.20    5.25
   1   2 -11   55.41    3.64
   1   2 -11   58.84    4.06
   0  -2  11   84.64    5.65
   0  -2 -11   83.22    6.42
   0  -2  11   88.32    6.12
   0   2 -11   82.65    5.35
   0   2 -11   84.67    5.17
   0   2  11   86.51    6.59
   0   2 -11   85.94    5.86
   0   2  11   88.14    5.34
  -1  -2 -11   30.36    3.74
   1  -2  11   29.89    3.49
   1  -2  11   27.88    3.28
   1   2  11   30.61    3.77
  -1   2 -11   32.87    3.77
  -1   2 -11   27.88    3.15
  -1   2 -11   32.72    3.19
  -1   2 -11   32.75    2.95
  -2  -2 -11    4.19    2.05
   2  -2  11    5.68    2.38
   2  -2  11    7.98    2.31
  -2   2 -11    5.24    1.77
   2   2  11    5.87    2.17
  -2   2 -11    6.19    1.92
  -2   2 -11    6.36    2.79
   3  -2  11   19.79    3.54
   3  -2  11   18.59    4.45
  -3   2 -11   15.38    2.71
  -3   2 -11   14.74    2.70
  -3   2 -11   13.34    2.75
  -4   2 -11    1.19    2.03
   4   2  11    1.82    2.10
   5   2  11    4.71    3.05
  -5   2 -11    4.41    2.54
   5  -3 -11    2.53    3.48
   5   3 -11    0.43    3.21
   4  -3 -11    9.90    3.36
   4   3 -11    7.84    2.89
   3  -3 -11   19.33    3.36
   3   3 -11   13.16    2.83
  -3   3  11   14.76    4.29
   2  -3 -11    9.84    3.08
   2   3 -11   18.91    3.19
  -2   3  11   19.56    3.78
   2   3 -11   20.71    3.06
  -2   3  11   13.10    3.77
   1  -3 -11   24.16    4.28
  -1   3  11   20.94    4.09
  -1   3  11   32.01    3.49
   1   3 -11   28.04    3.50
   1   3 -11   32.34    3.16
   0  -3 -11    1.00    1.52
   0  -3  11    1.72    1.30
   0   3 -11    1.06    1.39
   0   3 -11    1.55    1.44
   0   3  11    0.89    1.85
   0   3  11    0.76    1.41
  -1  -3 -11   77.44    6.85
   1  -3  11   71.60    5.47
  -1   3 -11   68.02    5.89
  -1   3 -11   70.85    5.59
   1   3  11   64.83    6.47
  -2  -3 -11  109.49    8.54
   2  -3  11  116.59    7.61
  -2   3 -11   96.46    7.42
   2   3  11   92.26    8.05
  -2   3 -11  100.06    7.14
  -2   3 -11  101.20    8.39
   3  -3  11   50.00    6.29
  -3   3 -11   29.45    4.20
  -3   3 -11   26.97    4.29
   4  -3  11   17.10    4.89
  -4   3 -11    8.49    3.38
  -5   3 -11   -1.55    2.94
   5   3  11    1.17    2.81
   4  -4 -11   14.65    4.12
   4   4 -11    7.15    2.92
  -3   4  11    5.74    4.03
   3   4 -11    7.41    2.57
  -2   4  11    8.36    3.43
   2   4 -11    7.31    2.20
   1   4 -11    1.82    1.67
  -1   4  11   -0.15    2.00
   0   4 -11   52.34    4.83
   1  -4  11   30.40    3.85
  -1   4 -11   38.26    5.30
   2  -4  11    6.18    2.84
  -2   4 -11    3.75    2.90
   3  -4  11   16.17    4.36
   4  -4  11   27.71    6.06
  -3   5  11   17.77    5.92
   3   5 -11   15.30    3.61
   2   5 -11   23.93    4.10
  -2   5  11   24.82    5.50
  -1   5  11    5.45    3.11
   1   5 -11    6.86    2.80
   0   5 -11    5.20    2.79
  -1   5 -11   28.22    5.56
  -2   5 -11   28.28    6.10
   3  -5  11    3.23    3.30
  -1   6  11   11.77    4.47
   1   6 -11    9.14    3.59
   0   6 -11   22.92    5.05
  -1   6 -11    8.17    4.09
  -5   0  12   14.22    3.64
   4   0 -12   77.14    6.50
  -4   0  12   74.00    6.36
   3   0 -12  114.63    7.33
   3   0 -12  107.42    7.23
   3   0 -12  109.87    6.85
  -3   0  12  104.29    7.32
  -2   0  12    7.65    2.27
  -2   0  12    5.39    1.57
   2   0 -12    5.57    1.62
   2   0 -12    3.54    1.29
  -2   0  12    4.89    1.79
   2   0 -12    5.76    1.41
  -1   0  12   24.73    2.71
   1   0 -12   21.87    2.26
  -1   0  12   23.40    2.79
  -1   0  12   18.54    2.94
   1   0 -12   24.30    2.75
   1   0 -12   22.44    2.18
   0   0 -12  113.41    5.90
   0   0 -12  108.98    6.51
   0   0  12  104.49    6.73
   0   0  12  107.21    6.76
   0   0 -12  109.69    6.84
   0   0  12  108.44    6.57
   1   0  12    5.48    1.42
  -1   0 -12    7.08    1.20
   1   0  12    4.97    1.63
  -1   0 -12    6.96    1.86
  -1   0 -12    5.37    1.52
   1   0  12    2.52    1.39
   1   0  12    5.19    1.53
   2   0  12   12.86    2.57
   2   0  12   10.38    2.19
  -2   0 -12   14.50    2.53
   3   0  12   22.30    3.68
  -3   0 -12    7.99    1.84
   4   0  12   13.90    3.87
   5   0  12   36.37    6.64
  -5   1  12    4.53    3.50
   5   1 -12    7.12    2.96
   4  -1 -12    2.37    1.82
  -4   1  12    3.89    2.48
   4   1 -12    4.75    2.30
   4   1 -12   -1.24    1.93
  -3  -1  12   25.17    3.42
   3  -1 -12   20.30    3.10
   3  -1 -12   26.76    3.43
   3   1 -12   33.50    4.03
  -3   1  12   27.82    4.21
   2  -1 -12   10.63    2.38
  -2  -1  12   12.60    2.38
  -2  -1  12   18.69    2.86
   2  -1 -12   12.49    2.49
   2  -1 -12   14.93    2.17
   2   1 -12   22.22    2.33
   2   1 -12   23.66    2.97
  -2   1  12   26.50    3.13
   2   1 -12   24.40    2.61
  -2   1  12   29.52    3.99
  -1  -1  12   67.50    4.96
   1  -1 -12   62.53    4.88
  -1  -1  12   63.04    4.62
   1  -1 -12   67.13    4.08
   1   1 -12   70.89    4.48
  -1   1  12   58.55    4.46
  -1   1  12   65.58    4.89
   1   1 -12   67.40    4.76
   1   1 -12   60.13    4.08
   0  -1  12    9.89    2.19
   0  -1 -12   12.05    2.28
   0  -1  12   11.18    2.41
   0   1 -12   14.84    2.08
   0   1 -12   12.99    1.59
   0   1  12   14.48    2.42
  -1  -1 -12   38.55    3.56
   1  -1  12   33.37    3.19
   1  -1  12   30.12    3.24
  -1   1 -12   29.94    2.78
  -1   1 -12   30.28    2.51
  -1   1 -12   32.87    3.09
  -1   1 -12   31.13    3.39
   1   1  12   27.07    2.74
   1   1  12   30.21    2.83
   2  -1  12   66.94    5.03
   2  -1  12   57.33    4.48
  -2  -1 -12   56.83    4.44
  -2   1 -12   45.31    4.43
   2   1  12   43.61    3.79
  -2   1 -12   45.09    3.71
  -2   1 -12   49.24    4.11
   2   1  12   43.23    4.00
  -2   1 -12   46.88    3.59
   3  -1  12   62.38    5.69
   3   1  12   58.97    4.74
  -3   1 -12   59.74    4.28
  -3   1 -12   51.17    4.66
  -3   1 -12   49.27    4.06
   4  -1  12   19.19    4.34
   4   1  12   23.17    4.18
  -4   1 -12   13.76    2.44
   5  -1  12    3.42    3.47
   5   1  12    2.11    2.83
   5  -2 -12   11.71    4.31
  -5   2  12    9.55    4.41
   5   2 -12    7.73    3.17
   5   2 -12   11.76    3.86
   4  -2 -12   11.07    3.16
  -4   2  12   14.58    4.00
   4   2 -12   13.87    3.28
   3  -2 -12    8.92    2.40
   3  -2 -12    8.28    2.51
   3   2 -12   12.79    2.63
  -3   2  12   15.69    3.71
  -3   2  12    9.27    3.34
  -3   2  12   12.96    3.33
   2  -2 -12    2.03    1.34
   2  -2 -12    0.77    1.39
   2   2 -12    3.30    1.53
  -2   2  12    2.38    2.06
  -2   2  12   -0.06    1.55
   2   2 -12    1.54    1.23
   1  -2 -12   80.77    6.25
  -1  -2  12   84.91    5.22
   1   2 -12   70.29    4.58
   1   2 -12   71.48    4.97
   1   2 -12   75.64    5.42
  -1   2  12   80.36    6.43
  -1   2  12   72.44    5.38
   0  -2 -12  151.51    9.93
   0  -2  12  174.54   12.24
   0  -2  12  165.33    9.13
   0   2  12  158.95    8.66
   0   2 -12  159.24    9.26
   0   2 -12  156.68    8.75
   0   2  12  143.93    9.91
   0   2 -12  153.71    8.42
   1  -2  12  123.38    7.76
   1  -2  12  119.80    7.94
  -1  -2 -12  125.64    8.54
   1   2  12  124.54    7.02
   1   2  12  125.60    8.56
  -1   2 -12  124.03    8.24
  -1   2 -12  119.92    7.72
  -1   2 -12  119.50    7.17
  -2  -2 -12   19.81    3.52
   2  -2  12   20.78    3.42
   2  -2  12   17.58    3.72
  -2   2 -12   22.34    3.03
   2   2  12   17.99    3.41
  -2   2 -12   19.08    2.81
   3  -2  12   10.65    3.01
  -3   2 -12   13.26    2.64
  -3   2 -12   12.83    2.74
  -3   2 -12   15.60    2.56
  -4   2 -12   15.06    3.28
   4   2  12   21.05    3.96
   5   2  12   11.53    3.78
  -5   2 -12    7.22    2.82
   5  -3 -12    1.29    3.40
   5   3 -12    1.98    3.58
   4  -3 -12    1.08    2.64
   4   3 -12    1.11    2.34
   3  -3 -12   19.34    3.51
  -3   3  12   29.00    5.50
   3   3 -12   27.46    3.81
   2  -3 -12   89.45    7.80
  -2   3  12   78.59    6.46
  -2   3  12   70.69    7.97
   2   3 -12   67.36    5.69
   2   3 -12   71.23    5.47
   1  -3 -12   35.80    4.76
   1   3 -12   48.40    3.97
  -1   3  12   34.06    4.96
   1   3 -12   46.07    4.50
  -1   3  12   42.38    4.08
   0  -3 -12    0.82    1.82
   0  -3  12    2.64    1.37
   0   3  12    1.67    1.72
   0   3 -12    3.42    1.75
   0   3  12    1.96    1.99
   0   3 -12    3.93    2.06
   1  -3  12   10.41    2.48
  -1  -3 -12    8.60    2.88
  -1   3 -12    9.82    2.57
   1   3  12    8.36    2.91
  -1   3 -12   10.05    2.66
   2  -3  12   11.94    3.07
  -2  -3 -12    5.92    2.75
   2   3  12   12.67    3.41
  -2   3 -12   15.28    3.03
   3  -3  12   14.56    3.87
  -3   3 -12    7.28    2.76
  -4   3 -12    3.08    2.78
  -5   3 -12    1.94    3.19
   5   3  12    2.50    3.08
   4  -4 -12    7.22    3.59
   4   4 -12   11.72    3.35
  -3   4  12   27.36    5.99
   3   4 -12   13.71    3.07
   2   4 -12    1.18    1.87
  -2   4  12    4.68    3.09
  -1   4  12   61.58    5.45
   1   4 -12   59.16    5.05
   0   4 -12   64.47    5.47
   1  -4  12   34.29    4.04
  -1   4 -12   32.22    5.00
   2  -4  12   32.64    5.15
   3  -4  12    7.80    3.61
   4  -4  12    2.36    3.96
   3   5 -12    6.27    3.05
  -3   5  12    5.08    5.07
   2   5 -12   36.27    4.96
  -2   5  12   42.04    6.81
  -1   5  12   20.12    4.52
   1   5 -12   18.83    3.91
   0   5 -12    2.96    2.63
  -1   5 -12    0.15    2.55
   3  -5  12    2.50    3.29
   0   6 -12   20.58    4.97
  -5   0  13   12.97    3.63
  -4   0  13   32.70    4.90
   4   0 -13   39.68    4.83
   3   0 -13   25.47    3.28
   3   0 -13   26.76    3.84
  -3   0  13   26.01    3.97
   3   0 -13   26.64    3.36
   2   0 -13   56.00    4.04
  -2   0  13   53.92    4.56
   2   0 -13   56.49    4.47
  -2   0  13   58.23    4.87
  -1   0  13  124.77    7.94
  -1   0  13  135.11    7.89
   1   0 -13  135.76    7.29
   1   0 -13  128.75    7.43
   1   0 -13  144.25    8.27
   0   0  13   70.04    5.21
   0   0 -13   71.28    4.28
   0   0 -13   75.30    5.32
   0   0 -13   70.19    4.93
   0   0  13   71.47    4.99
  -1   0 -13  109.32    5.95
   1   0  13  108.81    6.65
   1   0  13  102.57    6.78
  -1   0 -13  114.95    6.94
   1   0  13  115.90    6.98
  -1   0 -13  124.01    7.38
   2   0  13   76.94    5.60
  -2   0 -13   76.51    5.64
  -3   0 -13    0.17    1.05
   3   0  13   -0.54    1.69
   4   0  13    1.73    2.46
   5   0  13    1.22    3.12
  -5   1  13    4.34    3.22
   5   1 -13    1.58    2.40
  -4  -1  13    0.00    1.84
   4  -1 -13    0.54    1.66
   4   1 -13    0.98    2.26
   4   1 -13    1.74    2.03
  -4   1  13    0.91    2.28
   3  -1 -13   38.34    4.13
   3  -1 -13   38.80    3.82
  -3  -1  13   33.66    3.71
  -3   1  13   43.68    4.70
   3   1 -13   40.72    3.94
   2  -1 -13  160.30    9.85
  -2  -1  13  164.76    9.46
   2  -1 -13  165.08    9.04
  -2   1  13  174.01    9.85
   2   1 -13  149.74    9.76
   2   1 -13  174.53    9.36
  -2   1  13  170.58    9.99
   2   1 -13  168.01    9.03
   1  -1 -13  147.03    9.19
  -1  -1  13  145.11    9.07
   1  -1 -13  155.96    8.22
  -1  -1  13  141.35    8.71
   1   1 -13  160.47    8.34
   1   1 -13  167.07    9.21
  -1   1  13  156.45    8.79
  -1   1  13  154.35    9.06
   1   1 -13  164.32    8.63
   0  -1  13   47.62    4.12
   0  -1 -13   54.33    4.38
   0  -1 -13   48.47    3.37
   0   1 -13   47.12    3.95
   0   1 -13   45.32    3.50
   0   1 -13   46.37    3.27
   0   1  13   46.00    3.94
   1  -1  13    9.39    2.12
   1  -1  13    9.56    2.32
  -1  -1 -13   11.47    2.45
   1   1  13    7.40    1.77
   1   1  13    8.18    1.64
  -1   1 -13    7.41    1.34
  -1   1 -13    5.97    1.59
  -1   1 -13    6.75    1.94
  -1   1 -13    6.78    1.79
  -2  -1 -13   98.70    6.57
   2  -1  13   91.44    6.72
   2  -1  13   91.23    6.50
   2   1  13   86.01    5.87
  -2   1 -13   95.25    6.36
  -2   1 -13   91.25    5.51
  -2   1 -13   89.38    5.75
   3  -1  13   81.06    6.60
   3   1  13   67.18    5.47
  -3   1 -13   77.48    5.03
  -3   1 -13   71.27    4.85
  -3   1 -13   63.59    5.65
   4  -1  13   46.98    5.72
   4   1  13   36.57    4.66
   5  -1  13    4.36    3.73
   5   1  13   -1.02    2.67
   5  -2 -13    9.32    3.69
   5   2 -13    7.32    3.18
  -5   2  13    5.15    3.66
   5   2 -13    9.49    3.76
   4  -2 -13   20.34    3.88
  -4   2  13   15.32    4.17
   4   2 -13   19.29    3.72
   3  -2 -13   28.87    3.51
   3  -2 -13   27.67    4.05
  -3   2  13   31.18    5.29
  -3   2  13   25.79    4.58
   3   2 -13   27.24    3.49
   2  -2 -13    2.48    1.81
   2  -2 -13    1.40    1.22
  -2  -2  13    1.64    1.31
   2   2 -13   -0.32    1.19
  -2   2  13    0.89    1.81
   2   2 -13   -0.14    1.16
  -2   2  13    0.50    1.91
  -1  -2  13   27.08    3.37
   1  -2 -13   20.00    3.62
  -1   2  13   25.42    3.80
   1   2 -13   26.86    2.83
   1   2 -13   25.12    2.40
  -1   2  13   33.47    4.04
   1   2 -13   25.29    2.96
   0  -2 -13   65.83    6.15
   0  -2  13   70.56    5.56
   0   2  13   78.95    6.62
   0   2 -13   88.70    5.94
   0   2 -13   87.74    5.45
   0   2 -13   87.10    5.11
   0   2  13   85.45    5.45
  -1  -2 -13   81.13    6.65
   1  -2  13   76.54    5.99
   1  -2  13   83.64    6.27
   1   2  13   87.77    5.39
  -1   2 -13   89.08    5.54
  -1   2 -13   85.17    6.05
   2  -2  13   60.44    5.55
  -2  -2 -13   58.07    5.77
   2   2  13   71.43    6.03
  -2   2 -13   70.55    5.38
  -2   2 -13   70.29    5.08
  -3   2 -13    7.71    2.43
  -3   2 -13    6.87    2.06
  -3   2 -13    5.63    1.99
   4   2  13   12.23    3.45
  -4   2 -13    4.67    2.20
  -5   2 -13    5.16    2.61
   5   2  13    9.62    3.64
   5  -3 -13    0.64    3.62
   5   3 -13    3.24    3.52
   4  -3 -13    0.83    2.75
   4   3 -13    0.54    2.42
   3  -3 -13   25.22    3.86
   3   3 -13   32.56    3.92
  -3   3  13   33.95    5.96
  -2   3  13  104.82    7.80
   2   3 -13  101.04    6.90
   2   3 -13  100.54    7.32
   1  -3 -13   43.77    5.46
  -1   3  13   41.43    4.14
  -1   3  13   38.69    5.76
   1   3 -13   41.13    4.30
   1   3 -13   40.68    3.88
   0  -3  13   38.90    3.66
   0  -3 -13   30.40    4.47
   0   3  13   35.50    3.54
   0   3  13   22.12    4.26
   0   3 -13   39.74    3.74
   0   3 -13   38.73    4.11
  -1  -3 -13    1.76    2.13
   1  -3  13    0.58    1.61
  -1   3 -13    4.00    2.00
   1   3  13    1.27    2.02
   2  -3  13   74.87    6.46
  -2  -3 -13   73.13    7.26
   2   3  13   81.16    7.38
  -2   3 -13   84.14    6.31
   3  -3  13   51.18    5.77
  -3   3 -13   41.81    4.88
  -4   3 -13   12.12    3.62
   4  -4 -13   10.29    3.83
   4   4 -13    9.86    3.42
   3   4 -13    5.66    2.44
  -3   4  13   12.16    5.13
  -2   4  13   -0.34    2.78
   2   4 -13    0.86    2.00
   1   4 -13    8.77    2.60
  -1   4  13    6.08    2.75
   0   4 -13   26.38    4.06
   0   4  13   19.43    3.12
   1  -4  13   49.05    5.02
  -1   4 -13   57.48    5.49
   2  -4  13   18.93    4.20
   3  -4  13    5.78    3.46
   4  -4  13    8.53    4.46
   3   5 -13    6.93    3.09
  -3   5  13    2.86    4.77
  -2   5  13    7.71    4.07
   2   5 -13    8.42    3.11
  -1   5  13   11.99    3.98
   1   5 -13   17.01    3.71
   0   5 -13    2.80    2.81
  -1   5 -13    3.52    2.85
   2  -5  13    9.69    3.71
   3  -5  13   13.04    4.18
  -5   0  14   -0.71    2.39
  -4   0  14   70.30    6.16
   3   0 -14   62.40    5.23
  -3   0  14   52.91    5.16
   3   0 -14   59.68    4.81
   3   0 -14   65.37    5.29
  -2   0  14    6.37    2.06
  -2   0  14    5.04    2.21
   2   0 -14    3.92    1.60
   2   0 -14    5.12    1.54
   2   0 -14    5.32    1.53
  -1   0  14    0.97    1.46
   1   0 -14    0.82    1.26
   1   0 -14    0.96    0.98
   1   0 -14    1.71    1.21
  -1   0  14    2.13    1.54
   0   0 -14  213.52   11.88
   0   0  14  211.00   11.48
   0   0 -14  210.70   11.33
   0   0  14  202.65   11.67
   0   0 -14  219.12   10.67
  -1   0 -14   64.79    3.86
  -1   0 -14   64.18    4.83
   1   0  14   65.87    4.66
   1   0  14   63.88    4.83
  -1   0 -14   64.67    5.11
   1   0  14   63.42    4.82
   2   0  14   30.81    3.57
  -2   0 -14   29.97    3.50
   3   0  14    4.15    2.35
  -3   0 -14    2.18    2.07
   4   0  14   46.45    6.52
   5   0  14    8.95    4.11
   5   1 -14    0.68    2.63
  -5   1  14    2.55    3.15
   4  -1 -14   19.48    3.51
  -4  -1  14   16.75    3.21
  -4   1  14   24.99    4.54
   4   1 -14   25.90    4.40
   3  -1 -14   17.46    3.75
  -3  -1  14   21.68    3.31
   3  -1 -14   20.90    3.11
  -3   1  14   15.75    3.71
   3   1 -14   23.67    3.61
  -3   1  14   29.66    4.51
   2  -1 -14   37.13    3.81
  -2  -1  14   33.66    3.45
   2  -1 -14   35.74    3.17
   2   1 -14   28.35    3.53
  -2   1  14   31.69    4.39
   2   1 -14   26.23    2.85
  -2   1  14   28.91    3.55
   2   1 -14   25.08    3.07
  -1  -1  14   58.49    4.62
   1  -1 -14   61.80    4.94
   1  -1 -14   64.76    4.03
  -1  -1  14   58.76    4.89
   1   1 -14   56.72    4.74
  -1   1  14   48.09    4.31
   1   1 -14   58.52    4.22
   1   1 -14   54.29    3.95
  -1   1  14   59.47    4.76
   0  -1 -14  146.32    7.47
   0  -1 -14  141.10    8.65
   0  -1  14  146.06    8.38
   0   1  14  129.65    7.99
   0   1  14  126.47    7.92
   0   1 -14  128.15    8.17
   0   1 -14  131.47    7.33
   0   1 -14  135.20    7.62
  -1  -1 -14   16.97    2.95
   1  -1  14   14.50    2.55
   1  -1  14   14.67    2.81
  -1   1 -14   14.69    1.80
  -1   1 -14   15.58    2.42
   1   1  14   13.63    2.18
  -1   1 -14   11.31    2.41
  -1   1 -14   13.97    2.49
   1   1  14   14.45    2.40
  -2  -1 -14    1.54    1.49
   2  -1  14    1.42    1.61
   2  -1  14    2.81    2.18
  -2   1 -14    4.22    1.68
  -2   1 -14    4.73    1.40
  -2   1 -14    4.03    1.51
   2   1  14    7.07    2.05
   3  -1  14   17.01    3.99
  -3   1 -14   11.09    2.78
   3   1  14   16.64    3.19
  -3   1 -14   13.80    2.21
  -3   1 -14   14.52    2.30
   4  -1  14   18.86    4.65
   4   1  14   22.46    4.22
   5  -1  14    0.60    3.63
   5   1  14    2.30    3.18
   5  -2 -14   11.90    4.10
   5   2 -14    5.48    3.19
  -5   2  14    4.86    4.13
   5   2 -14    5.57    3.66
   4  -2 -14   33.97    5.04
   4   2 -14   47.03    5.09
  -4   2  14   45.78    6.47
   3  -2 -14   11.52    2.98
   3  -2 -14   11.52    2.60
  -3   2  14   13.92    3.55
   3   2 -14   19.53    3.31
  -3   2  14   16.62    4.22
   2  -2 -14   35.78    3.32
  -2  -2  14   36.18    3.38
   2  -2 -14   37.70    4.39
  -2   2  14   31.30    4.46
   2   2 -14   32.73    3.49
  -2   2  14   36.64    4.21
   2   2 -14   34.08    3.70
   1  -2 -14   11.56    2.92
  -1  -2  14   16.49    2.74
   1   2 -14   16.51    2.65
   1   2 -14   14.53    2.66
   1   2 -14    9.79    1.84
  -1   2  14   10.48    2.97
  -1   2  14   18.64    3.25
   0  -2  14  122.10    7.36
   0  -2 -14  112.87    8.16
   0   2 -14  107.98    6.82
   0   2 -14  105.04    7.15
   0   2 -14  112.18    6.46
   0   2  14  102.69    6.76
  -1  -2 -14  112.34    8.09
   1  -2  14  117.20    7.44
   1  -2  14  121.69    8.51
  -1   2 -14  100.19    7.02
   1   2  14   98.37    6.36
  -1   2 -14   96.49    6.35
  -2  -2 -14   62.42    5.88
   2  -2  14   62.35    5.44
  -2   2 -14   49.58    4.69
   2   2  14   58.31    5.65
  -2   2 -14   60.90    4.69
  -3   2 -14    5.90    2.18
  -3   2 -14    5.45    2.10
   4   2  14   11.71    3.49
  -4   2 -14    9.75    2.72
   5   2  14    9.38    3.71
  -5   2 -14    5.45    2.49
   5  -3 -14    6.69    4.02
   5   3 -14    8.17    4.04
   4  -3 -14    1.44    2.69
   4   3 -14   -0.32    2.38
   3  -3 -14    1.87    2.15
  -3   3  14    6.86    3.55
   3   3 -14    4.68    2.40
   2   3 -14    5.28    2.00
   2   3 -14    8.22    2.60
  -2   3  14    6.95    2.97
   1   3 -14   77.41    5.60
   1   3 -14   73.88    6.28
  -1   3  14   75.27    5.86
   0  -3  14   17.93    2.93
   0   3 -14   19.47    3.29
   0   3  14   15.98    2.90
   1  -3  14    1.33    2.03
   1   3  14    0.92    3.31
  -1   3 -14    2.11    1.91
   2  -3  14   38.60    4.75
  -2   3 -14   38.47    4.19
   3  -3  14   53.87    6.28
  -3   3 -14   53.13    5.74
  -4   3 -14    9.07    3.32
   4  -4 -14    1.53    3.17
   4   4 -14    1.13    2.89
   3   4 -14   12.30    3.17
  -3   4  14   21.19    5.87
  -2   4  14    1.71    3.35
   2   4 -14    4.77    2.39
  -1   4  14    7.00    2.74
   1   4 -14    7.11    2.60
   0   4 -14   31.22    3.97
   0   4  14   26.04    3.38
   1  -4  14   56.14    5.46
  -1   4 -14   59.82    5.79
   2  -4  14   13.02    3.81
   3  -4  14    0.97    3.24
   4  -4  14    7.05    4.52
  -3   5  14    5.43    5.12
   3   5 -14   -0.53    2.80
  -2   5  14   12.73    4.75
   2   5 -14   13.20    3.48
  -1   5  14   18.52    4.49
   1   5 -14   22.63    4.36
   0   5 -14   27.70    4.98
  -1   5 -14    1.25    2.90
   2  -5  14    5.18    3.25
  -5   0  15   -1.76    2.41
  -4   0  15    2.06    2.30
   3   0 -15   17.86    3.35
   3   0 -15   10.45    2.46
  -3   0  15   12.39    3.07
   2   0 -15   95.55    6.43
  -2   0  15  108.02    7.28
  -2   0  15  103.99    6.88
   2   0 -15  100.94    6.85
   2   0 -15   93.73    6.16
   1   0 -15    0.25    1.05
   1   0 -15    0.98    1.27
  -1   0  15    1.29    1.60
  -1   0  15   -0.60    1.43
   1   0 -15    1.10    1.06
   0   0  15   23.79    3.25
   0   0 -15   22.31    2.84
   0   0  15   25.53    3.75
   0   0 -15   21.57    2.99
   0   0 -15   23.75    2.19
  -1   0 -15  147.28    7.63
  -1   0 -15  150.58    9.17
   1   0  15  137.87    8.62
   1   0  15  150.56    8.62
  -1   0 -15  151.61    8.81
   2   0  15   58.24    4.99
  -2   0 -15   59.40    5.11
   3   0  15   10.12    3.09
  -3   0 -15    8.23    3.68
   4   0  15    8.79    3.44
   5   0  15    4.42    3.79
   5   1 -15    3.57    3.05
  -5   1  15    4.51    3.40
   4  -1 -15    1.24    1.93
  -4  -1  15   -0.36    1.77
   4   1 -15    1.95    2.38
  -4   1  15    1.30    2.61
  -3  -1  15   39.99    4.21
   3  -1 -15   43.86    4.09
  -3   1  15   36.67    5.05
   3   1 -15   40.25    4.23
   2  -1 -15   70.10    5.70
  -2  -1  15   67.63    5.24
   2  -1 -15   70.65    4.94
   2   1 -15   64.63    5.51
   2   1 -15   69.79    5.13
  -2   1  15   70.24    5.75
  -2   1  15   70.76    5.54
   2   1 -15   68.42    4.79
   1  -1 -15  109.14    7.23
  -1  -1  15  106.52    7.09
   1  -1 -15  109.86    6.04
  -1  -1  15   99.93    6.64
  -1   1  15  102.15    6.81
   1   1 -15   92.99    6.96
   1   1 -15   99.51    6.23
   1   1 -15   98.21    6.00
  -1   1  15   88.25    6.41
   0  -1  15   26.80    3.27
   0  -1  15   13.53    2.83
   0   1 -15   18.50    2.60
   0   1  15   21.75    3.24
   0   1 -15   21.25    2.16
   0   1 -15   14.93    2.68
   1  -1  15    8.20    2.20
  -1  -1 -15   12.39    2.73
   1  -1  15   10.25    2.51
  -1   1 -15    7.44    1.52
  -1   1 -15    8.70    2.13
   1   1  15    5.67    1.86
   1   1  15    9.60    1.95
  -1   1 -15    8.86    2.19
   2  -1  15   79.19    6.34
  -2  -1 -15   67.08    5.82
  -2   1 -15   79.69    4.83
   2   1  15   80.85    5.60
  -2   1 -15   72.91    5.12
  -2   1 -15   74.53    5.91
   3  -1  15   19.60    4.30
  -3   1 -15   17.30    2.40
  -3   1 -15    8.91    2.61
  -3   1 -15   14.78    2.25
   3   1  15   20.31    3.59
   4  -1  15   16.58    4.93
   4   1  15   14.27    3.75
   5  -1  15    5.69    4.22
   5   1  15    5.40    3.66
   5  -2 -15    0.88    3.30
   5   2 -15   -0.60    3.18
   5   2 -15   -0.54    2.87
  -5   2  15    3.14    3.58
   4  -2 -15   19.58    3.85
   4   2 -15   21.10    4.17
  -4   2  15   21.20    6.28
   3  -2 -15   31.43    4.11
   3  -2 -15   22.07    4.49
  -3   2  15   19.74    4.42
  -3   2  15   23.33    5.97
   3   2 -15   29.42    4.09
   2  -2 -15   26.96    4.03
  -2  -2  15   28.65    3.26
   2  -2 -15   29.65    3.12
  -2   2  15   25.60    4.49
  -2   2  15   35.25    4.27
   2   2 -15   30.87    3.41
   2   2 -15   32.70    3.60
  -1  -2  15   21.09    3.29
   1  -2 -15   14.82    3.26
  -1   2  15   13.15    3.34
   1   2 -15   15.11    2.66
  -1   2  15   16.04    3.25
   1   2 -15   13.66    2.73
   1   2 -15   15.32    2.73
   0  -2  15   10.18    2.52
   0  -2 -15   15.84    3.28
   0   2 -15    4.69    1.38
   0   2 -15    6.34    1.87
   0   2 -15    7.17    2.05
   0   2  15    6.38    2.12
  -1  -2 -15   69.49    6.57
   1  -2  15   77.83    6.19
  -1   2 -15   83.05    5.68
   1   2  15   86.46    5.41
  -1   2 -15   78.13    5.91
  -1   2 -15   81.95    5.37
   2  -2  15   78.95    6.20
  -2  -2 -15   60.96    6.21
  -2   2 -15   68.33    5.11
  -2   2 -15   68.62    5.55
  -3   2 -15   59.15    5.51
  -3   2 -15   61.60    5.17
   4   2  15   -1.44    2.14
  -4   2 -15   -1.36    1.82
  -5   2 -15    3.37    2.35
   5   2  15    2.52    3.19
   4  -3 -15    9.29    3.15
   4   3 -15    8.04    3.42
   3  -3 -15    1.62    2.03
  -3   3  15    1.90    3.33
   3   3 -15   -0.04    2.05
   2   3 -15   30.38    3.89
  -2   3  15   34.49    5.27
  -1  -3  15   53.71    4.38
  -1   3  15   50.82    4.86
   1   3 -15   53.81    4.63
   0  -3  15   39.57    4.07
   0   3 -15   39.14    4.04
   0   3  15   41.03    4.03
   1  -3  15   18.58    3.72
  -1   3 -15   20.81    3.71
   2  -3  15    6.68    2.96
  -2   3 -15    8.64    2.63
   3  -3  15   22.34    4.88
  -3   3 -15   17.35    3.84
  -4   3 -15   23.98    4.53
   4  -4 -15    3.62    3.20
   4   4 -15    5.44    3.23
   3   4 -15   29.39    4.32
  -3   4  15   27.53    6.29
   2   4 -15   33.14    4.74
  -2   4  15   30.61    5.50
  -1   4  15    3.87    2.69
   1   4 -15    6.21    2.51
   0   4  15   10.68    2.63
   0   4 -15   17.59    3.51
   1  -4  15    1.76    2.38
  -1   4 -15   10.22    3.09
   2  -4  15   22.80    4.66
   3  -4  15    4.36    3.65
   4  -4  15    7.21    4.68
  -4   4 -15    0.31    3.69
   2   5 -15    7.73    3.21
  -2   5  15    8.33    4.47
  -1   5  15   35.63    5.77
   1   5 -15   47.08    5.55
   0   5 -15   14.63    3.79
  -1   5 -15    3.84    2.96
   2  -5  15   -1.52    2.88
  -5   0  16    1.54    2.64
  -4   0  16   37.62    5.27
   3   0 -16   41.98    4.20
  -3   0  16   45.46    4.83
   2   0 -16   68.35    5.56
   2   0 -16   70.23    4.97
  -2   0  16   79.36    6.64
  -2   0  16   70.38    5.58
   2   0 -16   67.25    5.18
  -1   0  16   29.83    3.71
  -1   0  16   33.00    3.64
   1   0 -16   32.20    3.10
   1   0 -16   33.57    3.70
   1   0 -16   32.22    2.93
   0   0 -16   18.86    3.08
   0   0  16   14.40    2.69
   0   0  16   19.64    3.54
   0   0 -16   16.36    1.93
   0   0 -16   16.72    2.69
  -1   0 -16   21.92    3.08
  -1   0 -16   23.79    2.16
  -1   0 -16   26.13    3.32
   1   0  16   26.78    3.68
  -2   0 -16   58.98    5.21
   2   0  16   57.86    5.16
   3   0  16   36.88    5.50
   4   0  16    0.69    2.96
   5   0  16    3.80    3.57
  -5   1  16   13.33    4.23
  -4  -1  16   27.72    4.15
   4  -1 -16   31.77    4.58
   4   1 -16   31.37    5.08
  -4   1  16   22.92    4.65
  -3  -1  16    8.59    2.50
   3  -1 -16   11.06    2.47
   3   1 -16    8.93    2.64
  -3   1  16    8.03    2.93
   2  -1 -16   19.84    3.47
  -2  -1  16   24.21    3.59
   2  -1 -16   23.77    3.03
  -2   1  16   21.22    3.64
   2   1 -16   17.30    3.08
   2   1 -16   22.18    2.99
  -2   1  16   22.56    3.97
   2   1 -16   27.34    3.58
   1  -1 -16   98.85    7.49
  -1  -1  16  110.69    7.59
   1  -1 -16  116.38    6.38
   1  -1 -16  103.17    6.38
  -1  -1  16  104.28    7.15
  -1   1  16  121.02    8.15
  -1   1  16  114.66    7.39
   1   1 -16  117.37    6.58
   1   1 -16  105.76    7.72
   0  -1  16  152.55    9.41
   0  -1 -16  143.19    8.45
   0   1 -16  161.40    8.47
   0   1 -16  164.23    8.90
   0   1  16  157.53    9.19
   0   1 -16  153.19    9.64
   1  -1  16   34.46    3.81
   1  -1  16   39.18    3.95
  -1  -1 -16   23.52    3.55
  -1   1 -16   31.18    2.73
   1   1  16   32.97    3.42
  -1   1 -16   33.52    5.04
  -1   1 -16   28.87    3.54
   1   1  16   32.79    3.31
  -2  -1 -16   36.00    4.38
   2  -1  16   51.01    5.07
   2   1  16   45.04    4.23
  -2   1 -16   45.65    3.41
  -2   1 -16   48.60    3.89
  -2   1 -16   41.62    4.51
   3  -1  16   35.06    5.43
  -3   1 -16   25.89    3.01
  -3   1 -16   18.69    3.65
  -3   1 -16   25.67    2.71
   3   1  16   28.84    4.37
   4  -1  16   44.23    7.40
   4   1  16   30.84    5.59
   5  -1  16    7.28    4.48
   5   1  16   -0.45    3.23
   5  -2 -16    2.92    3.44
   5   2 -16   -1.15    2.60
  -5   2  16    2.64    3.90
   5   2 -16   -0.28    3.13
   4  -2 -16   10.10    3.25
   4   2 -16   12.65    3.62
   3  -2 -16   74.18    6.23
  -3   2  16   85.61   10.99
   3   2 -16   85.35    6.37
  -2  -2  16   22.98    3.30
   2  -2 -16   17.29    2.70
   2  -2 -16   13.35    3.24
   2   2 -16   20.04    3.12
  -2   2  16   16.47    3.83
   2   2 -16   25.23    3.37
  -2   2  16   23.99    4.35
   1  -2 -16    7.14    2.71
  -1  -2  16    8.99    2.42
   1   2 -16   18.07    2.94
  -1   2  16   14.84    3.24
   1   2 -16   12.18    2.59
   0  -2 -16    9.83    2.83
   0  -2  16    9.60    2.57
   0   2 -16   13.71    2.66
   0   2 -16   10.92    2.40
   0   2  16   12.59    2.74
   0   2 -16   11.96    1.97
   1  -2  16   62.88    5.53
  -1  -2 -16   47.46    5.60
   1   2  16   66.90    4.68
  -1   2 -16   60.18    5.12
   1   2  16   64.71    4.90
  -1   2 -16   65.20    4.58
   2  -2  16   67.23    5.91
  -2  -2 -16   58.32    6.21
  -2   2 -16   66.49    4.92
  -2   2 -16   60.55    5.40
  -3   2 -16   56.64    4.93
   4   2  16    1.83    2.69
  -4   2 -16    1.60    2.02
   5   2  16   -2.15    2.94
  -5   2 -16   -0.43    1.96
   4  -3 -16    3.49    2.82
   4   3 -16    2.76    3.09
   3  -3 -16    3.86    2.26
   3   3 -16    2.34    2.47
  -3   3  16    2.93    3.30
   2   3 -16   15.23    3.31
  -2   3  16   20.85    4.26
  -1  -3  16   38.56    4.08
   1   3 -16   55.72    4.66
  -1   3  16   57.12    5.04
   0  -3  16   73.12    5.93
   0  -3  16   67.40    5.86
   0   3  16   88.25    6.04
   0   3 -16   82.79    6.03
   1  -3  16   98.10    7.62
  -1   3 -16  104.34    7.33
   2  -3  16   16.12    3.73
  -2   3 -16    9.70    2.68
   3  -3  16    9.72    3.77
  -3   3 -16    5.90    2.66
  -4   3 -16    3.63    3.02
   4   4 -16   11.10    3.68
   3   4 -16   16.69    3.58
  -3   4  16   18.98    5.45
   2   4 -16   21.12    3.97
  -2   4  16   16.63    4.29
   1   4 -16    2.93    2.36
  -1   4  16    2.61    2.89
   0   4 -16    7.94    2.85
   0   4  16    6.68    2.48
   1  -4  16   37.16    5.32
  -1   4 -16   39.11    4.90
   2  -4  16   27.81    4.99
   3  -4  16    0.84    3.46
  -2   5  16    0.62    3.96
   2   5 -16   -1.16    2.74
  -1   5  16    5.69    3.72
   1   5 -16   12.79    3.77
   0   5 -16   16.98    4.28
  -1   5 -16   10.40    3.81
   2  -5  16    4.77    3.23
  -5   0  17   -1.02    2.53
  -4   0  17    0.71    2.31
  -3   0  17   53.51    5.36
   3   0 -17   49.93    4.66
   2   0 -17   43.37    3.84
   2   0 -17   40.53    4.27
  -2   0  17   44.33    4.47
   1   0 -17   45.35    3.60
  -1   0  17   51.44    4.54
   1   0 -17   49.70    4.65
  -1   0  17   42.37    4.53
   0   0 -17   11.08    2.60
   0   0  17   14.85    3.19
   0   0 -17   10.39    1.70
   0   0 -17   10.84    2.25
   0   0  17    9.12    2.33
  -1   0 -17   95.65    7.10
  -1   0 -17   98.31    5.57
   1   0  17   98.04    6.80
  -1   0 -17  101.59    6.82
  -2   0 -17   60.18    5.44
   2   0  17   63.34    5.47
   3   0  17   36.74    5.57
   4   0  17    7.03    3.43
   5   0  17   -2.32    3.28
  -5   1  17   28.62    5.55
  -4  -1  17    5.46    2.55
   4  -1 -17    9.97    2.97
  -4   1  17    6.94    3.10
   4   1 -17    8.60    3.20
  -3  -1  17    9.79    2.85
   3  -1 -17   12.11    2.63
   3   1 -17   12.81    3.14
  -3   1  17   12.77    3.39
  -2  -1  17    5.56    2.18
   2  -1 -17    3.75    1.95
   2  -1 -17    5.45    1.86
  -2   1  17    6.24    2.48
  -2   1  17    8.47    2.90
   2   1 -17    5.53    2.08
   2   1 -17    6.37    1.85
   2   1 -17    7.35    2.26
  -1  -1  17   33.13    4.38
   1  -1 -17   20.27    2.46
   1  -1 -17   21.20    3.65
   1   1 -17   20.56    2.51
  -1   1  17   24.16    3.83
   1   1 -17   17.09    3.29
   0  -1  17   60.04    5.32
   0  -1 -17   64.46    4.63
   0   1 -17   64.41    4.47
   0   1  17   61.62    5.17
   0   1 -17   70.60    4.95
   0   1 -17   71.98    5.67
   0   1 -17   64.99    5.62
   1  -1  17   23.33    3.54
  -1  -1 -17   16.11    3.36
   1  -1  17   28.86    4.19
  -1   1 -17   19.13    3.48
   1   1  17   24.47    3.20
   1   1  17   23.69    3.51
  -1   1 -17   21.09    2.44
  -2  -1 -17   11.64    2.91
   2  -1  17   20.05    3.98
   2   1  17   19.42    3.30
  -2   1 -17   10.20    2.77
  -2   1 -17   12.69    2.25
  -2   1 -17   16.36    2.23
   3  -1  17   21.60    4.74
  -3   1 -17   14.31    3.50
   3   1  17   22.42    3.98
  -3   1 -17   14.19    2.24
   4  -1  17   13.63    4.81
   4   1  17   15.66    4.24
   5  -1  17    9.25    4.94
   5   1  17   12.24    4.80
   5  -2 -17    0.35    3.35
   5   2 -17   -1.69    3.22
  -5   2  17    0.72    3.73
   5   2 -17    1.98    2.90
   4  -2 -17   11.14    3.37
   4   2 -17    9.09    3.38
  -3  -2  17   17.02    3.09
   3  -2 -17   15.59    3.13
   3   2 -17   13.94    3.30
   2  -2 -17   48.95    4.24
  -2  -2  17   45.46    4.39
   2  -2 -17   54.39    5.89
  -2   2  17   53.13    5.43
   2   2 -17   51.28    4.47
   2   2 -17   48.50    4.87
  -2   2  17   47.07    5.92
  -1  -2  17   76.84    5.68
   1  -2 -17   70.08    6.64
   1   2 -17   67.96    5.39
   1   2 -17   69.73    5.78
  -1   2  17   67.26    5.83
   0  -2  17    9.04    2.57
   0  -2 -17    6.16    2.49
   0   2 -17    8.35    2.25
   0   2 -17   10.97    2.36
   0   2 -17    9.71    1.87
   0   2  17   10.35    2.74
   1  -2  17   27.63    4.31
  -1  -2 -17   25.10    4.50
  -1   2 -17   30.80    3.79
  -1   2 -17   36.06    3.33
   1   2  17   36.94    3.82
  -2  -2 -17   72.33    7.35
   2  -2  17   94.34    7.32
  -2   2 -17  101.52    6.29
  -3   2 -17   23.36    3.54
   4   2  17    6.49    3.40
  -4   2 -17    3.01    2.14
  -5   2 -17    2.15    2.35
   5   2  17    2.58    3.47
   4  -3 -17    8.15    2.98
   4   3 -17    6.00    3.45
   3  -3 -17    0.80    1.91
   3   3 -17    0.79    2.38
  -3   3  17    4.36    3.61
   2   3 -17    1.36    2.06
  -2   3  17    1.56    2.75
  -1  -3  17   72.56    5.44
  -1   3  17   67.70    5.78
   1   3 -17   63.23    5.39
   0  -3  17   61.33    5.40
   0  -3  17   67.47    5.47
   0   3  17   57.56    5.11
   0   3 -17   55.14    5.21
   1  -3  17   29.23    4.63
   2  -3  17   22.10    4.46
  -2   3 -17   20.98    3.58
   3  -3  17    9.79    3.53
  -3   3 -17   11.80    3.12
  -4   3 -17    0.73    2.58
  -3   4  17    7.18    4.75
   3   4 -17    9.13    3.06
   2   4 -17   43.41    5.19
  -2   4  17   37.33    6.12
   1   4 -17   13.35    3.43
  -1   4  17   15.53    3.92
   0  -4  17    5.97    2.35
   0   4 -17    6.49    2.71
   0   4  17    3.84    2.43
   1  -4  17   44.42    5.75
   2  -4  17   30.87    5.42
   3  -4  17   17.88    4.87
   2   5 -17    2.09    3.07
  -2   5  17    1.54    4.22
   1   5 -17   17.84    4.15
  -1   5  17   14.18    4.33
   0   5 -17   21.72    4.73
   2  -5  17   -0.30    2.94
  -5   0  18    2.44    3.19
  -4   0  18    1.55    2.46
  -3   0  18    7.37    2.78
   3   0 -18    5.79    2.13
   2   0 -18   35.80    3.64
  -2   0  18   40.06    4.36
   2   0 -18   37.15    4.22
  -1   0  18   33.22    4.04
   1   0 -18   35.52    3.18
  -1   0  18   32.13    4.08
   1   0 -18   34.22    4.03
   0   0  18    7.32    2.18
   0   0  18    8.18    2.81
   0   0 -18    6.98    1.48
   0   0 -18    7.93    2.09
   0   0 -18    9.18    2.51
  -1   0 -18   18.05    3.31
  -1   0 -18   17.74    2.03
  -1   0 -18   16.09    2.85
   1   0  18   22.32    3.65
  -2   0 -18   54.95    5.36
   2   0  18   58.08    5.29
   3   0  18   15.28    3.83
   4   0  18    4.92    3.68
   5   0  18    4.83    3.76
  -5   1  18    2.76    3.46
  -4  -1  18   19.00    3.61
   4  -1 -18   23.04    4.09
  -4   1  18   10.79    3.70
  -3  -1  18   19.65    3.67
   3  -1 -18   19.23    3.35
  -3   1  18   20.90    4.25
   3   1 -18   22.93    3.93
   2  -1 -18    0.35    1.58
   2  -1 -18   -0.01    1.52
  -2  -1  18    0.30    1.68
   2   1 -18    1.05    1.50
  -2   1  18   -0.11    2.28
   2   1 -18    1.67    1.71
  -2   1  18    0.89    2.41
   2   1 -18    0.23    1.64
  -1  -1  18   74.77    5.73
   1  -1 -18   55.54    5.55
   1  -1 -18   53.48    4.35
  -1   1  18   68.73    5.57
   1   1 -18   68.96    4.70
   1   1 -18   65.20    5.86
   1   1 -18   69.47    4.83
   0  -1 -18  185.45   10.07
   0  -1  18  198.15   11.13
   0   1 -18  187.58    9.94
   0   1 -18  176.97   13.10
   0   1  18  201.19   10.95
   0   1 -18  153.61   11.13
   1  -1  18   85.25    6.43
   1  -1  18   79.54    6.45
   1   1  18   80.84    5.97
  -1   1 -18   68.61    6.35
  -1   1 -18   77.12    5.10
   1   1  18   88.33    5.92
   2  -1  18   53.05    5.33
  -2  -1 -18   38.96    4.88
  -2   1 -18   35.40    4.70
   2   1  18   48.55    4.64
  -2   1 -18   49.59    3.66
  -2   1 -18   47.50    4.04
   3  -1  18    5.86    3.30
  -3   1 -18    3.27    1.51
  -3   1 -18    1.72    3.31
   3   1  18    5.16    2.69
   4  -1  18   13.40    4.71
   4   1  18   13.89    4.36
   5  -1  18   11.09    5.41
   5   1  18    4.27    3.93
   5  -2 -18    2.63    3.49
   5   2 -18   -0.30    2.65
   5   2 -18   -2.27    3.35
  -5   2  18    2.33    4.14
   4  -2 -18    2.49    2.71
   4   2 -18   -1.87    2.49
   3  -2 -18   23.65    3.90
  -3  -2  18   29.89    4.01
   3   2 -18   23.75    4.08
  -2  -2  18   39.00    4.28
   2  -2 -18   37.63    3.96
   2   2 -18   52.41    4.51
   2   2 -18   51.76    5.14
  -2   2  18   57.48    5.51
  -1  -2  18   12.48    2.96
  -1   2  18   16.47    3.53
   1   2 -18   13.57    3.07
   1   2 -18   18.66    3.29
   0  -2  18   11.60    2.77
   0  -2 -18    9.48    4.26
   0   2 -18    6.63    2.93
   0   2  18    5.95    2.42
   0   2 -18    5.36    1.84
   0   2 -18    6.85    1.76
   1  -2  18    2.13    2.22
  -1   2 -18    1.97    1.36
   1   2  18    2.65    2.19
   2   2  18   18.32    3.22
  -2   2 -18   19.66    3.00
  -3   2 -18   29.16    3.62
  -4   2 -18    5.61    2.46
   4   2  18    6.37    3.44
   4  -3 -18   13.58    3.70
   4   3 -18   16.11    4.15
   3  -3 -18   20.24    3.59
   3   3 -18   32.51    4.83
  -3   3  18   32.32    6.27
  -2   3  18    1.89    3.19
   2   3 -18    3.22    2.23
  -1  -3  18    4.22    2.15
   1   3 -18    2.81    2.13
  -1   3  18    1.45    2.51
   0  -3  18   37.43    4.92
   0  -3  18   36.70    4.83
   0   3 -18   34.07    4.58
   0   3  18   29.18    4.31
   1  -3  18   49.96    5.58
   2  -3  18    6.17    3.24
  -2   3 -18    7.42    2.63
   3  -3  18    0.71    3.11
  -3   3 -18    0.73    2.35
  -4   3 -18   20.20    4.29
  -3   4  18    6.15    4.77
   3   4 -18    3.39    2.75
   2   4 -18   21.38    4.21
  -2   4  18   17.76    4.87
   1   4 -18   22.39    4.11
  -1   4  18   13.92    4.02
   0  -4  18    5.51    2.52
   0   4  18    4.24    2.48
   0   4 -18    5.20    2.58
   1  -4  18   12.86    3.59
   2  -4  18   26.12    5.29
   3  -4  18   15.44    4.86
   2   5 -18    0.22    2.97
  -2   5  18    1.24    3.93
  -1   5  18    8.37    4.07
   1   5 -18   13.59    3.91
   0   5  18   10.81    3.51
   0   5 -18   13.43    3.89
   2  -5  18    4.59    3.63
  -5   0  19   11.17    3.84
  -4   0  19    0.40    2.46
  -3   0  19   43.37    5.06
   3   0 -19   41.02    4.43
   2   0 -19   76.69    6.48
  -2   0  19   77.35    6.45
   2   0 -19   89.43    5.89
  -1   0  19  128.01    8.53
  -1   0  19  130.55    8.93
   1   0 -19  136.48    7.68
   1   0 -19  131.57    8.97
   0   0  19   30.10    4.52
   0   0 -19   22.98    2.44
   0   0 -19   24.14    3.81
   0   0 -19   23.59    3.31
  -1   0 -19    9.98    1.64
   1   0  19    9.08    2.82
  -1   0 -19   10.83    2.78
  -2   0 -19   36.17    4.52
   2   0  19   43.82    4.73
   3   0  19   46.99    6.62
   4   0  19    8.30    4.23
   5   0  19   -1.95    3.62
  -5  -1  19    2.66    2.78
  -5   1  19    4.45    3.72
   4  -1 -19   38.04    5.30
  -4  -1  19   33.16    4.83
  -4   1  19   38.98    5.96
   3  -1 -19   22.76    3.71
  -3  -1  19   32.28    4.78
  -3   1  19   29.48    4.81
   2  -1 -19    1.99    1.93
   2  -1 -19    3.49    1.87
  -2  -1  19    4.53    2.31
   2   1 -19    2.52    1.86
  -2   1  19    4.00    2.88
   2   1 -19    2.90    2.44
   2   1 -19    2.83    1.81
   1  -1 -19    3.42    2.08
  -1  -1  19    7.21    2.59
   1  -1 -19    1.42    1.32
   1   1 -19    3.52    1.62
  -1   1  19    2.02    2.22
   1   1 -19    2.69    1.96
   0  -1 -19   29.30    3.40
   0  -1  19   18.14    3.80
   0  -1  19   33.65    4.12
   0   1  19   38.03    4.11
   0   1 -19   25.64    3.87
   0   1 -19   36.77    3.19
   1  -1  19   88.95    6.85
   1  -1  19   97.12    6.89
   1   1  19   84.69    6.33
  -1   1 -19   65.57    6.50
  -1   1 -19   82.15    5.34
   2  -1  19   46.60    6.18
  -2   1 -19   41.03    3.53
  -2   1 -19   39.43    3.82
   2   1  19   37.34    4.44
   3  -1  19   15.26    4.35
   3   1  19    9.51    3.16
  -3   1 -19    6.20    1.82
   4  -1  19    3.71    4.09
   4   1  19    5.96    3.51
   5  -1  19    3.37    4.73
   5   1  19    3.31    3.88
   4  -2 -19    1.81    2.76
   4   2 -19    8.85    3.69
  -3  -2  19   20.72    3.56
   3  -2 -19   16.61    3.50
   3   2 -19   28.92    4.47
  -2  -2  19   37.14    4.15
   2  -2 -19   30.40    3.61
   2   2 -19   42.26    4.28
  -2   2  19   40.24    4.95
  -1  -2  19   68.38    5.94
  -1   2  19   76.65    6.56
   1   2 -19   82.82    6.08
   0  -2  19   30.61    4.45
   0   2 -19   27.47    3.13
   0   2  19   32.50    4.48
   1  -2  19    3.10    2.25
  -1   2 -19    5.27    1.70
   1   2  19    5.94    2.59
   2  -2  19   29.15    4.65
  -2   2 -19   32.34    3.47
   2   2  19   28.23    4.03
  -3   2 -19   27.72    3.77
   3   2  19   25.07    4.52
  -4   2 -19    4.05    2.23
   4   2  19    4.26    3.25
   4  -3 -19   17.50    4.09
   4   3 -19   22.44    4.74
   3  -3 -19    7.60    2.59
   3   3 -19   13.64    3.72
  -3   3  19   10.84    4.85
  -2   3  19    9.35    3.81
   2   3 -19    9.50    2.98
  -1  -3  19    2.10    1.84
  -1   3  19    1.25    2.39
   1   3 -19    1.29    2.06
   0  -3  19   11.59    3.13
   0  -3  19    8.02    3.04
   0   3 -19   12.57    3.01
   0   3  19    9.69    3.07
   1  -3  19   21.93    4.43
   2  -3  19   19.12    4.56
  -2   3 -19   13.32    3.09
   3  -3  19    2.28    3.62
  -3   3 -19    2.62    2.71
  -4   3 -19    2.06    2.71
  -3   4  19    3.20    4.82
   3   4 -19    0.01    2.69
  -2   4  19   21.98    5.11
   2   4 -19   24.20    4.35
   1   4 -19   39.86    5.27
  -1   4  19   29.14    5.05
   0  -4  19   16.89    3.42
   0   4  19   18.34    3.73
   0   4 -19   21.34    4.22
   1  -4  19   12.63    3.79
   2  -4  19   29.11    5.53
   3  -4  19   26.38    6.04
  -1   5  19    8.61    4.10
   1   5 -19    7.38    3.56
   0   5 -19   27.58    5.34
   0   5  19   18.54    4.20
  -5   0  20    0.81    2.93
  -4   0  20    1.55    2.67
   3   0 -20    2.12    1.99
  -3   0  20    1.47    2.24
  -2   0  20   19.10    3.63
   2   0 -20   17.15    2.93
   2   0 -20   11.58    2.91
  -1   0  20  119.10    8.33
  -1   0  20  110.03    7.83
   1   0 -20  107.02    8.08
   1   0 -20  113.83    6.82
   0   0 -20   52.76    5.36
   0   0  20   60.71    5.72
   0   0 -20   59.50    4.17
   0   0 -20   63.40    5.21
   1   0  20    3.49    2.28
  -1   0 -20    3.87    2.28
  -1   0 -20    1.59    1.09
   2   0  20   25.80    4.48
   3   0  20   47.96    7.12
   4   0  20   14.09    4.91
  -5   1  20    5.44    3.88
   4  -1 -20    8.84    3.28
  -4  -1  20   12.15    3.47
  -4   1  20   17.03    4.36
   3  -1 -20   25.01    3.83
  -3  -1  20   27.24    4.43
  -3   1  20   21.55    4.66
   2  -1 -20   18.85    3.27
  -2  -1  20   29.35    4.41
   2   1 -20   28.44    3.66
  -2   1  20   36.25    5.47
   2   1 -20   29.92    4.08
   1  -1 -20    0.78    1.38
  -1  -1  20    2.60    2.46
   1  -1 -20    0.15    1.94
   1   1 -20    2.03    1.85
   1   1 -20    3.71    1.74
  -1   1  20    5.65    2.60
   0  -1  20   25.60    4.61
   0  -1  20   34.16    4.73
   0   1 -20   43.47    3.54
   0   1 -20   31.47    4.38
   0   1  20   45.65    4.71
   1  -1  20  158.05   10.50
   1   1  20  158.07   10.01
  -1   1 -20  159.18    8.86
   2  -1  20   15.09    4.00
  -2   1 -20   20.53    2.70
   2   1  20   21.20    3.84
   3  -1  20    0.68    2.75
   3   1  20    1.38    2.59
  -3   1 -20    1.74    1.55
   4  -1  20    4.10    3.51
   4   1  20    3.09    3.25
   4  -2 -20    4.50    3.23
   4   2 -20    3.38    3.25
  -3  -2  20    2.71    2.21
   3  -2 -20    4.94    2.55
   3   2 -20    3.05    2.58
  -2  -2  20   15.74    3.29
   2  -2 -20   11.57    2.54
   2   2 -20   15.20    3.24
  -2   2  20   23.47    4.66
  -1  -2  20   33.86    4.89
   1   2 -20   34.57    4.25
  -1   2  20   40.73    5.53
   0  -2  20   20.74    3.78
   0   2  20    9.51    3.06
   0   2 -20    8.12    2.13
   1  -2  20    7.46    2.88
  -1   2 -20    8.20    2.09
   1   2  20    6.26    2.58
   2   2  20   23.93    3.94
  -2   2 -20   35.00    3.53
  -3   2 -20   11.74    2.59
   3   2  20    8.92    3.23
  -4   2 -20   16.58    3.19
   4   2  20   12.91    4.20
   4  -3 -20   10.00    3.46
   4   3 -20    0.37    3.20
  -3   3  20   21.70    7.20
   3   3 -20   16.53    3.84
   2   3 -20    4.73    2.53
  -2   3  20    8.29    3.83
  -1  -3  20    2.34    2.22
  -1   3  20    6.02    3.12
   1   3 -20    3.73    2.38
   0  -3  20   49.01    5.13
   0  -3  20   51.84    5.29
   0   3  20   41.35    5.01
   1  -3  20   52.36    6.05
   2  -3  20   27.45    5.25
  -2   3 -20   17.66    3.47
  -3   3 -20    6.18    2.85
  -4   3 -20    4.42    3.14
   3   4 -20   -0.71    2.90
  -3   4  20    2.34    4.71
   2   4 -20   17.30    4.12
  -2   4  20   16.09    4.56
   1   4 -20   30.88    4.75
  -1   4  20   30.32    5.14
   0  -4  20   54.48    5.29
   0   4  20   44.84    5.36
   1  -4  20    2.86    2.98
   2  -4  20    1.96    3.56
   3  -4  20   -1.85    4.17
  -1   5  20   -0.82    3.77
   1   5 -20    1.77    3.25
   0   5  20   11.49    4.11
  -5   0  21    0.98    3.06
  -4   0  21    9.29    3.40
   3   0 -21    5.55    2.38
  -3   0  21    3.75    2.58
  -2   0  21   30.56    4.83
   2   0 -21   33.10    3.73
  -1   0  21  127.08    8.70
   1   0 -21  117.95    7.26
   1   0 -21  124.65    8.83
  -1   0  21  114.25    8.62
   0   0  21   99.23    7.75
   0   0 -21   98.60    7.09
   0   0 -21  100.60    6.09
   1   0  21    8.04    2.82
  -1   0 -21    5.01    1.30
   2   0  21    0.52    2.22
   3   0  21   27.56    5.51
   4   0  21   16.12    5.13
   4  -1 -21    9.18    3.27
  -4  -1  21   10.08    3.36
  -4   1  21    5.25    3.31
   3  -1 -21   19.28    3.60
  -3  -1  21   29.78    4.63
   2  -1 -21   29.58    3.83
  -2  -1  21   35.60    4.47
   2   1 -21   35.03    3.81
  -2   1  21   43.14    6.05
   1  -1 -21    5.12    1.85
  -1  -1  21    7.86    2.90
   1   1 -21    8.57    2.13
  -1   1  21    2.77    2.57
   0  -1  21    4.23    2.25
   0  -1  21    4.16    2.97
   0   1  21    2.38    2.44
   0   1 -21    5.45    1.72
   1  -1  21   42.20    5.88
  -1   1 -21   48.51    3.95
   1   1  21   52.57    5.37
   2  -1  21   44.66    6.24
   2   1  21   36.24    4.57
  -2   1 -21   31.55    3.27
   3  -1  21   28.66    5.69
  -3   1 -21   25.80    3.08
   3   1  21   29.66    5.09
   4  -1  21    5.81    4.36
   4   1  21    0.75    3.62
   4  -2 -21    7.22    3.47
  -3  -2  21    1.77    2.24
   3  -2 -21    1.34    2.42
   3   2 -21    4.75    3.57
  -2  -2  21   26.91    4.10
  -2   2  21   31.51    5.41
   2   2 -21   24.26    5.21
  -1  -2  21   77.28    6.57
  -1   2  21   85.64    7.25
   0  -2  21   25.12    4.35
   0   2  21   27.94    4.47
   0   2 -21   24.67    3.28
   1  -2  21    1.57    2.23
   1   2  21   -2.55    2.20
  -1   2 -21    1.38    1.45
   2   2  21    4.21    2.67
  -2   2 -21    5.81    2.09
  -3   2 -21   18.19    3.07
   3   2  21   12.40    3.64
  -4   2 -21    4.95    2.34
   4   2  21    1.98    3.39
   4  -3 -21    6.07    3.01
   4   3 -21    1.14    3.52
   3  -3 -21    5.83    2.63
   3   3 -21    9.70    3.55
   2   3 -21   12.94    3.50
  -2   3  21   11.76    4.00
  -1  -3  21    1.80    2.20
   1   3 -21    0.30    2.09
  -1   3  21    1.59    3.11
   0  -3  21   18.82    4.09
   0  -3  21   21.18    4.18
   0   3  21   21.55    4.29
   1  -3  21   39.52    5.98
   1   3  21   30.96    4.63
   2  -3  21   48.61    6.99
  -2   3 -21   42.61    4.98
  -3   3 -21   15.07    3.66
   3   4 -21    1.83    3.30
  -3   4  21    5.24    5.29
   2   4 -21    5.17    3.26
  -2   4  21    2.50    3.87
  -1   4  21   16.29    4.34
   1   4 -21   12.95    3.59
   0  -4  21   13.13    3.39
   0   4  21    6.64    3.49
   1  -4  21   10.47    3.57
   2  -4  21    9.33    4.21
   0   5  21    2.83    3.64
  -4   0  22   14.01    4.03
  -3   0  22   22.70    4.42
   3   0 -22   20.43    3.79
   2   0 -22    0.21    1.75
  -2   0  22    0.55    2.11
  -1   0  22   26.60    4.86
   1   0 -22   27.41    3.10
   0   0  22   59.97    6.14
   0   0 -22   58.82    4.32
   1   0  22   87.84    7.37
  -1   0 -22   89.94    5.44
   2   0  22    8.08    3.13
   3   0  22    6.70    3.64
   4   0  22   11.86    4.96
  -4  -1  22    8.87    3.26
   4  -1 -22    8.73    3.35
  -4   1  22    7.72    3.57
  -3  -1  22   19.47    4.11
   3  -1 -22   14.92    3.40
   2  -1 -22   42.82    4.69
  -2  -1  22   55.61    5.58
  -2   1  22   58.88    6.74
   2   1 -22   57.63    4.88
  -1  -1  22    4.85    2.69
   1  -1 -22    0.90    1.60
   1   1 -22    7.39    2.19
  -1   1  22    8.87    3.24
   0  -1  22   15.28    3.47
   0   1 -22   18.47    2.77
   0   1  22   16.76    3.89
   1  -1  22   46.53    5.39
  -1   1 -22   35.73    3.49
   1   1  22   37.05    5.36
   2  -1  22   48.85    5.64
   2   1  22   35.91    5.16
  -2   1 -22   35.58    3.53
   3  -1  22    4.56    3.76
  -3   1 -22    3.26    1.57
   3   1  22    3.56    3.07
   4  -1  22    1.14    4.08
   4   1  22    1.51    3.44
   4  -2 -22    5.73    3.30
   3  -2 -22    1.74    2.39
  -3  -2  22    3.35    2.52
  -2  -2  22    5.26    2.56
  -2   2  22    7.62    3.65
  -1  -2  22   20.07    3.88
  -1   2  22   21.10    4.56
   0  -2  22   84.56    7.00
   0   2 -22   75.92    5.77
   0   2  22   83.00    7.00
   1  -2  22   23.84    4.52
   1   2  22   31.61    4.76
  -1   2 -22   26.83    3.50
  -2   2 -22    4.87    2.11
   2   2  22    6.10    2.68
  -3   2 -22    5.92    2.31
   3   2  22    3.34    2.76
   4   2  22    6.46    4.04
  -4   2 -22    6.68    2.44
   3   3 -22   21.52    4.53
  -2  -3  22   17.33    3.42
  -2   3  22   27.01    5.13
   2   3 -22   21.24    3.98
  -1  -3  22   11.85    3.14
  -1   3  22    7.78    3.71
   0  -3  22   15.72    3.87
   0  -3  22   17.34    3.96
   0   3  22    5.43    3.31
   1  -3  22   12.55    4.03
   1   3  22   14.57    3.52
   2  -3  22   18.31    4.87
  -2   3 -22   15.53    3.46
  -3   3 -22    3.56    2.73
  -2   4  22    1.24    4.04
   2   4 -22    1.12    2.85
  -1   4  22    9.09    4.01
   1   4 -22   17.23    6.46
   0  -4  22   18.03    3.78
   0   4  22   10.20    3.95
   1  -4  22   18.51    4.25
   2  -4  22    8.29    4.28
  -4   0  23    7.13    3.45
  -3   0  23    2.90    2.61
   3   0 -23    2.32    2.25
   2   0 -23   -0.03    1.81
  -2   0  23    0.12    2.20
  -1   0  23    3.33    2.73
   1   0 -23    2.00    1.59
   0   0  23  235.57   13.64
   0   0 -23  206.73   11.50
   1   0  23    2.03    2.72
   2   0  23   15.79    4.06
   3   0  23    3.67    3.11
   4   0  23    7.81    4.80
   4  -1 -23    3.39    3.05
  -4  -1  23    0.14    2.58
  -4   1  23    3.17    3.26
  -3  -1  23    6.87    3.10
   3  -1 -23    9.57    2.97
   2  -1 -23   36.09    4.65
  -2  -1  23   44.29    5.16
   2   1 -23   41.33    4.38
   1  -1 -23   42.85    4.30
  -1  -1  23   48.70    5.43
   1   1 -23   64.80    4.81
  -1   1  23   61.57    5.92
   0  -1  23    5.82    2.65
   0   1 -23    5.64    1.88
   0   1  23    5.04    2.98
   1  -1  23   35.26    5.86
   1   1  23   32.75    5.12
  -1   1 -23   25.26    3.09
   2  -1  23   55.34    6.47
   2   1  23   54.73    6.02
   3  -1  23   32.79    6.68
   3   1  23   30.22    5.67
   4  -1  23   12.69    5.68
   4   1  23    6.73    4.22
   4  -2 -23    1.11    3.09
  -3  -2  23    7.42    3.02
   3  -2 -23    2.68    2.56
   2  -2 -23   -1.38    1.74
  -2  -2  23    4.43    2.62
  -2   2  23    7.75    3.93
  -1  -2  23   49.91    6.31
  -1   2  23   39.14    6.09
   0  -2  23   43.28    5.69
   0   2 -23   43.72    4.24
   0   2  23   37.38    5.36
   1  -2  23   14.98    4.02
   1   2  23   13.14    3.71
  -1   2 -23   12.54    2.62
   2   2  23   -0.95    2.62
  -2   2 -23    1.98    1.94
   3   2  23    1.50    2.85
  -3   2 -23    2.24    2.07
  -4   2 -23    2.25    2.17
   4   2  23    1.14    3.49
  -2  -3  23   36.18    4.83
  -2   3  23   32.78    5.77
  -1  -3  23   35.03    5.16
  -1   3  23   31.39    5.64
   0  -3  23   16.60    3.94
   0  -3  23   15.21    3.76
   0   3  23    9.97    3.90
   1  -3  23    5.55    3.74
   1   3  23    7.28    3.35
  -1   3 -23   10.00    3.36
   2  -3  23   22.57    5.29
  -2   3 -23   21.11    3.65
  -3   3 -23   17.64    3.83
  -2   4  23    2.04    4.11
   2   4 -23    4.00    3.33
  -1   4  23    8.49    3.92
   0  -4  23   24.36    4.35
   0   4  23   17.87    4.67
   1  -4  23   21.10    4.49
   2  -4  23   -2.86    3.70
  -4   0  24    5.28    3.39
  -3   0  24   22.39    4.59
   3   0 -24   29.96    4.62
  -2   0  24    4.27    2.84
   2   0 -24    4.63    2.36
   1   0 -24    1.87    1.72
   0   0  24   14.03    3.91
   0   0 -24   16.29    2.56
   1   0  24   72.44    6.98
  -1   0 -24   71.71    4.85
   2   0  24   13.48    3.98
   3   0  24   -2.10    2.94
   4   0  24    7.00    4.46
  -4  -1  24   -2.70    2.60
   4  -1 -24    0.55    3.00
  -4   1  24    1.88    4.41
  -3  -1  24   21.50    4.44
   3  -1 -24   13.25    3.51
  -2  -1  24   46.04    5.57
   2  -1 -24   40.44    4.69
   2   1 -24   52.08    4.84
   1  -1 -24   47.62    4.31
  -1  -1  24   55.59    5.70
   1   1 -24   43.69    4.31
  -1   1  24   37.68    5.76
   0   1 -24    8.67    2.25
   0   1  24    8.78    3.37
   1  -1  24    2.07    3.92
  -1   1 -24    0.37    1.48
   1   1  24    1.17    2.90
   2  -1  24   19.25    4.76
   2   1  24    7.31    3.29
  -2   1 -24   13.75    2.46
   3  -1  24    4.73    4.19
   3   1  24    4.39    3.44
   4  -1  24    2.47    5.49
   4   1  24    1.59    3.53
  -4  -2  24    4.99    2.76
   4  -2 -24    4.29    3.45
   3  -2 -24    8.17    3.13
  -3  -2  24   21.40    4.22
  -2  -2  24    7.77    3.10
  -2   2  24    3.10    3.64
  -1  -2  24   15.56    3.97
  -1   2  24   13.83    4.45
   0  -2  24   61.56    6.28
   0  -2  24   60.53    6.38
   0   2 -24   59.13    5.12
   1  -2  24   31.89    5.43
  -1   2 -24   34.60    3.87
   1   2  24   31.71    4.86
  -2   2 -24    5.29    2.38
   2   2  24    4.92    3.23
  -3   2 -24    0.22    2.12
   3   2  24   -1.06    2.86
  -2  -3  24   19.45    3.85
  -2   3  24   19.23    5.16
  -1  -3  24   13.88    3.58
  -1   3  24   11.97    4.37
   0  -3  24    0.12    2.63
   0   3  24   -2.12    3.23
   1  -3  24    1.52    3.11
  -1   3 -24    3.64    2.55
   1   3  24    3.48    3.35
   2  -3  24   15.31    5.09
   2   3  24    7.51    3.62
  -2   3 -24   15.68    3.56
  -3   3 -24   16.66    3.77
  -2   4  24    4.92    4.79
  -1   4  24    9.64    4.45
   0  -4  24   25.25    4.66
   0   4  24   13.71    4.59
   1  -4  24   17.14    4.46
   1   4  24    8.09    3.97
   2  -4  24   16.21    5.37
  -4   0  25    4.35    3.40
  -3   0  25    6.32    3.34
   3   0 -25    4.63    3.04
   2   0 -25    9.56    2.75
   1   0 -25   -0.01    1.64
   0   0 -25    0.71    1.50
   0   0  25    1.67    2.90
   1   0  25   18.46    4.50
  -1   0 -25   15.25    2.36
   2   0  25    1.45    3.16
   3   0  25    2.58    3.26
   4   0  25    3.23    4.08
  -4  -1  25    0.66    2.87
   4  -1 -25    3.94    3.39
  -3  -1  25    9.59    3.52
   3  -1 -25    6.21    2.87
   2  -1 -25   26.52    4.03
  -2  -1  25   29.83    5.22
   2   1 -25   22.64    3.66
   1  -1 -25   53.17    4.89
  -1  -1  25   64.03    6.36
   1   1 -25   66.79    5.29
  -1   1  25   71.37    6.86
   0   1  25   36.10    5.47
   0   1 -25   32.53    3.76
  -1   1 -25   -0.06    1.48
   1   1  25   -0.95    2.96
   2  -1  25   19.03    5.13
   2   1  25   16.40    4.10
  -2   1 -25   18.49    2.83
   3  -1  25   27.35    6.47
   3   1  25   17.54    4.67
   4   1  25    2.65    4.09
  -3  -2  25   15.62    3.95
   3  -2 -25   12.14    3.41
  -2  -2  25    1.78    2.61
  -2   2  25    1.58    3.47
  -1  -2  25   -0.89    2.47
  -1   2  25   -0.81    3.47
   0  -2  25   19.08    4.35
   0  -2  25   22.80    4.85
   0   2 -25   17.18    3.19
   0   2  25   22.33    4.79
  -1   2 -25   32.65    3.92
   1   2  25   30.39    4.94
  -2   2 -25    9.43    2.63
   2   2  25    9.23    3.65
  -3   2 -25    3.84    2.37
   3   2  25    0.95    3.16
  -2  -3  25   17.35    3.87
  -2   3  25   10.03    4.53
  -1  -3  25   21.90    4.29
  -1   3  25   16.47    4.93
   0  -3  25   15.25    4.24
   0   3  25    3.90    3.73
   1  -3  25    1.78    3.32
  -1   3 -25    2.34    2.42
   1   3  25    0.45    3.02
   2  -3  25   16.81    5.20
   2   3  25    5.82    3.73
  -2   3 -25    7.52    2.86
  -1  -4  25    1.35    2.70
  -1   4  25   -0.36    3.91
   0  -4  25    4.27    2.89
   0   4  25    5.89    4.11
   1  -4  25   22.30    4.95
   1   4  25   10.04    4.36
  -4   0  26   11.36    4.35
   3   0 -26   19.87    4.14
  -3   0  26   17.33    4.58
   2   0 -26    2.63    2.28
   1   0 -26    0.54    1.90
   0   0 -26   40.06    3.83
   0   0  26   44.48    6.36
   1   0  26   67.45    7.28
   2   0  26   22.67    5.11
   3   0  26   15.39    4.55
   4  -1 -26    3.26    3.46
  -4  -1  26    4.79    3.43
   3  -1 -26    1.69    2.82
  -3  -1  26    5.69    3.11
   2  -1 -26    3.87    2.66
  -2  -1  26    8.98    3.51
   2   1 -26    8.93    2.74
  -1  -1  26   70.73    6.78
   1  -1 -26   53.23    5.01
  -1   1  26   69.33    6.90
   1   1 -26   65.33    5.33
   0   1  26   25.12    4.75
   0   1 -26   19.73    3.23
   1   1  26    2.29    3.35
  -1   1 -26    4.49    1.96
   2   1  26   -1.92    2.98
  -2   1 -26    2.18    1.65
   3   1  26    5.12    3.64
  -3  -2  26   18.45    4.37
   3  -2 -26   10.67    3.34
  -2  -2  26   34.60    5.34
  -2   2  26   31.57    5.88
  -1  -2  26    4.28    3.07
  -1   2  26    2.84    4.03
   0  -2  26   20.93    4.74
   0  -2  26   20.80    4.47
   0   2  26   18.63    4.68
   0   2 -26   18.05    3.39
  -2   2 -26   14.78    3.07
   2   2  26   10.06    3.72
   3   2  26    2.26    3.40
  -3   2 -26    1.37    2.08
  -2  -3  26    5.65    2.86
  -2   3  26    8.63    4.62
  -1  -3  26   32.79    5.16
  -1   3  26   30.54    5.86
   0  -3  26   21.35    4.76
   0   3  26   14.46    4.68
   1  -3  26    8.15    4.03
   1   3  26    3.43    3.45
  -1   3 -26    6.22    2.83
   2   3  26    1.25    3.12
  -2   3 -26    1.13    2.57
  -1  -4  26    1.76    2.78
  -1   4  26    1.28    4.06
   0  -4  26    3.98    2.96
   0   4  26   -0.78    3.94
  -3   0  27   25.18    5.08
   3   0 -27   23.06    4.49
   2   0 -27   20.02    3.54
   1   0 -27    4.13    2.19
   0   0 -27    0.29    1.52
   0   0  27    1.78    3.29
   1   0  27   22.53    5.13
   2   0  27   18.86    4.78
   3   0  27    6.54    4.18
   3  -1 -27    0.68    2.73
  -3  -1  27    3.44    3.03
   2  -1 -27   11.53    3.08
  -2  -1  27   21.07    4.71
   2   1 -27   25.65    3.93
  -1  -1  27   24.21    5.62
   1  -1 -27   19.52    3.21
  -1   1  27   18.94    4.68
   1   1 -27   17.50    3.23
   0   1 -27   21.47    3.28
   0   1  27   21.50    4.81
   1   1  27    4.14    3.37
  -1   1 -27    5.71    2.26
   2   1  27   -1.53    2.94
  -2   1 -27    1.72    1.74
   3   1  27    3.68    3.81
   3  -2 -27    8.43    3.42
  -3  -2  27   15.40    4.15
  -2  -2  27   24.07    4.68
  -2   2  27   31.14    9.43
  -1  -2  27    8.39    3.61
  -1   2  27    6.67    4.04
   1   2 -27    4.55    3.19
   0  -2  27    1.57    2.88
   0  -2  27    6.62    3.57
   0   2  27    2.68    3.81
   0   2 -27    1.52    2.09
   1   2  27    4.11    3.37
  -1   2 -27   15.07    3.08
   2   2  27    3.09    3.43
  -2   2 -27    8.76    2.75
   3   2  27    3.19    3.49
  -3   2 -27    5.05    2.31
  -2  -3  27   16.69    3.79
  -2   3  27    9.02    4.90
  -1  -3  27   36.10    5.69
  -1   3  27   22.07    5.56
   0  -3  27   36.94    5.82
   0   3  27   18.11    4.98
   1  -3  27    1.60    3.55
  -1   3 -27    7.38    3.06
   1   3  27   -1.24    3.03
  -2   3 -27    1.52    2.93
   2   3  27    4.67    3.66
   3   0 -28    4.84    3.15
  -3   0  28    2.20    3.75
   2   0 -28   29.45    4.51
   1   0 -28    5.42    2.44
   0   0  28    7.82    5.70
   0   0 -28    2.78    1.87
   1   0  28   30.57    5.78
   2   0  28    9.94    4.66
   3   0  28    4.42    4.13
  -3  -1  28    0.21    2.90
   3  -1 -28    1.08    2.69
  -2  -1  28    0.30    2.85
   2  -1 -28    0.31    2.24
   2   1 -28   -1.14    2.04
   1  -1 -28    3.91    2.31
   1   1 -28    8.98    2.79
  -1   1  28    7.82    4.15
   0   1 -28   40.30    4.17
   0   1  28   27.41    5.25
  -1   1 -28   11.98    2.68
   1   1  28   10.29    3.94
   2   1  28    3.29    3.73
  -2   1 -28    1.46    1.85
   3   1  28    2.49    3.79
   3  -2 -28    5.61    3.09
  -3  -2  28   13.78    4.23
  -2  -2  28   17.15    4.28
  -1  -2  28   18.84    4.57
  -1   2  28    8.87    4.65
   1   2 -28    9.76    3.50
   0  -2  28    5.69    3.61
   0  -2  28    2.93    3.37
   0   2 -28    6.02    2.61
   0   2  28    3.64    3.80
   1   2  28    5.60    3.51
  -1   2 -28    6.30    2.58
   2   2  28    7.17    3.94
  -2   2 -28    8.88    2.82
  -2  -3  28    0.38    2.54
  -2   3  28    3.29    4.63
  -1  -3  28    8.59    3.45
  -1   3  28    0.84    4.50
   0  -3  28   17.33    4.68
   0   3  28   13.58    4.82
   1  -3  28   21.76    5.15
   1   3  28    2.40    3.48
  -1   3 -28   14.03    3.67
   3   0 -29   17.54    4.31
   2   0 -29   47.69    5.31
   1   0 -29   22.78    3.67
   0   0 -29    9.34    2.48
   1   0  29    2.26    3.75
   2   0  29    7.04    4.23
   3   0  29   15.68    5.60
   3  -1 -29    7.45    3.49
  -3  -1  29    7.07    3.82
  -2  -1  29    2.39    3.22
   2  -1 -29    4.91    2.59
   2   1 -29    4.96    2.67
   1   1 -29   22.87    3.83
  -1   1  29   22.57    7.71
   0   1 -29   23.36    3.63
   0   1  29   23.73    4.93
  -1   1 -29   21.76    3.38
   1   1  29   18.77    4.81
   2   1  29    4.83    4.05
  -2   1 -29    5.23    2.21
  -2  -2  29   29.43    5.51
  -1  -2  29   23.66    5.20
   1   2 -29   19.87    3.94
  -1   2  29   18.54    5.57
   0  -2  29    4.15    3.85
   0   2 -29    3.39    2.51
   0   2  29    7.25    4.14
   1   2  29    1.72    3.28
  -1   2 -29   10.90    2.97
   2   2  29    4.99    3.89
  -2   2 -29   11.87    3.08
  -1  -3  29    2.35    3.18
  -1   3  29   -4.72    4.03
   0  -3  29   23.79    5.28
   0   3  29   16.65    5.58
   1  -3  29    7.52    4.07
  -1   3 -29    9.75    3.54
   1   3  29    8.52    4.57
   3   0 -30    7.46    3.80
   2   0 -30    7.17    3.06
   1   0 -30   20.81    3.61
   0   0 -30    1.95    2.00
   1   0  30    1.98    3.69
   2   0  30    6.33    4.49
   2  -1 -30    0.02    2.30
  -2  -1  30    0.83    3.13
   2   1 -30   -2.03    2.24
   1   1 -30    3.48    2.46
   0   1  30   28.74    5.53
   0   1 -30   34.30    4.11
  -1   1 -30    8.38    2.46
   1   1  30    5.43    3.84
   2   1  30    3.98    4.07
  -2   1 -30    9.48    2.51
  -2  -2  30   15.44    4.48
  -1  -2  30   11.64    4.18
   1   2 -30    9.05    3.13
  -1   2  30   10.43    5.18
   0   2 -30    1.76    2.52
   0   2  30    5.48    4.16
  -1   2 -30    3.10    2.51
   1   2  30    0.23    3.19
   2   2  30    5.52    3.66
  -2   2 -30    5.49    2.78
   2   0 -31   11.16    3.48
   1   0 -31    9.45    2.83
   0   0 -31    8.91    2.62
   2   0  31   13.03    5.59
   2  -1 -31    3.08    2.44
  -2  -1  31    3.04    3.69
   2   1 -31    4.78    2.96
   1   1 -31    1.06    2.34
   0   1 -31    5.97    2.59
   0   1  31   -0.42    3.86
  -1   1 -31   18.47    3.16
   1   1  31   12.53    4.47
   2   1  31    4.64    4.18
  -1  -2  31   28.61    5.72
  -1   2  31   17.99    5.91
   1   2 -31   20.86    4.08
   0   2  31    6.39    4.43
   0   2 -31   11.05    3.27
  -1   2 -31   -0.16    2.41
   1   2  31    0.56    3.36
   2   0 -32    5.60    3.25
   1   0 -32   20.03    3.65
   0   0 -32   10.63    2.73
   1   1 -32    2.40    2.56
   0   1  32   -0.03    4.02
   0   1 -32    8.39    2.88
  -1   1 -32    9.39    2.67
   1   1  32    5.67    3.97
   0   2 -32   14.68    3.82
   0   2  32   15.99    5.37
   1   0 -33   20.50    3.71
   1   1 -33    4.69    2.63
   0   1  33    2.54    4.15
   0   1 -33    0.12    2.30
   0   0   0    0.00    0.00
;
_shelx_hkl_checksum              78904
loop_
_space_group_symop_operation_xyz
'x, y, z'
'-x, y+1/2, -z'
loop_
_atom_site_label
_atom_site_type_symbol
_atom_site_fract_x
_atom_site_fract_y
_atom_site_fract_z
_atom_site_U_iso_or_equiv
_atom_site_adp_type
_atom_site_occupancy
_atom_site_site_symmetry_order
_atom_site_calc_flag
_atom_site_refinement_flags_posn
_atom_site_refinement_flags_adp
Br1 Br 1.10619(14) 0.1494(2) 0.45569(2) 0.0286(2) Uani 1 1 d . .
F1 F 0.0236(8) 0.2453(7) 0.07439(13) 0.0287(12) Uani 1 1 d . .
F2 F 0.1236(7) 0.6173(11) 0.03756(12) 0.0302(11) Uani 1 1 d . .
F3 F 0.3886(8) 0.2767(8) 0.02918(13) 0.0318(12) Uani 1 1 d . .
O1 O 0.9817(10) 0.9483(10) 0.24447(17) 0.0250(13) Uani 1 1 d . .
N1 N 1.0002(12) 0.5109(11) 0.2684(2) 0.0159(13) Uani 1 1 d D .
H1 H 0.949(14) 0.346(7) 0.264(3) 0.019 Uiso 1 1 d D U
C14 C 0.2356(15) 0.4098(15) 0.0629(3) 0.0211(17) Uani 1 1 d . .
C4 C 0.3987(14) 0.4912(14) 0.1093(2) 0.0158(15) Uani 1 1 d . .
C3 C 0.3835(13) 0.3520(13) 0.1550(2) 0.0192(17) Uani 1 1 d . .
H3 H 0.257443 0.207494 0.157574 0.023 Uiso 1 1 calc R U
C2 C 0.5478(13) 0.4193(14) 0.1966(2) 0.0157(16) Uani 1 1 d . .
H2 H 0.535832 0.320249 0.227597 0.019 Uiso 1 1 calc R U
C1 C 0.7317(11) 0.631(2) 0.1936(2) 0.0144(14) Uani 1 1 d . .
C8 C 0.9154(13) 0.7121(14) 0.2377(2) 0.0185(18) Uani 1 1 d . .
C7 C 1.1513(14) 0.5373(12) 0.3158(2) 0.0162(17) Uani 1 1 d . .
C13 C 1.3616(13) 0.7193(12) 0.3236(2) 0.0185(18) Uani 1 1 d . .
H13 H 1.410376 0.838507 0.296909 0.022 Uiso 1 1 calc R U
C12 C 1.5005(13) 0.7275(13) 0.3703(2) 0.022(2) Uani 1 1 d . .
H12 H 1.647218 0.851044 0.375590 0.026 Uiso 1 1 calc R U
C11 C 1.4274(15) 0.5559(13) 0.4098(3) 0.0230(19) Uani 1 1 d . .
H11 H 1.521550 0.562943 0.442169 0.028 Uiso 1 1 calc R U
C5 C 0.5767(13) 0.7069(14) 0.1059(2) 0.0172(18) Uani 1 1 d . .
H5 H 0.585611 0.806791 0.074941 0.021 Uiso 1 1 calc R U
C6 C 0.7413(14) 0.7757(13) 0.1480(2) 0.0219(18) Uani 1 1 d . .
H6 H 0.862841 0.923967 0.145699 0.026 Uiso 1 1 calc R U
C10 C 1.2199(14) 0.3784(14) 0.4014(2) 0.0200(17) Uani 1 1 d . .
C9 C 1.0790(13) 0.3624(13) 0.3548(2) 0.0163(16) Uani 1 1 d . .
H9 H 0.936000 0.234874 0.349432 0.020 Uiso 1 1 calc R U
loop_
_atom_site_aniso_label
_atom_site_aniso_U_11
_atom_site_aniso_U_22
_atom_site_aniso_U_33
_atom_site_aniso_U_23
_atom_site_aniso_U_13
_atom_site_aniso_U_12
Br1 0.0390(4) 0.0244(4) 0.0224(3) 0.0037(5) 0.0012(2) 0.0051(5)
F1 0.032(2) 0.029(3) 0.025(2) -0.0003(18) -0.0039(16) -0.0117(19)
F2 0.033(2) 0.029(3) 0.0281(19) 0.010(2) -0.0099(15) 0.004(3)
F3 0.033(3) 0.039(3) 0.024(2) -0.0113(18) 0.0027(19) 0.0044(19)
O1 0.035(3) 0.005(3) 0.034(3) 0.003(2) -0.009(2) -0.002(2)
N1 0.021(3) 0.005(3) 0.021(3) -0.001(3) -0.004(3) 0.001(3)
C14 0.020(4) 0.018(5) 0.025(4) 0.001(3) 0.000(3) 0.001(3)
C4 0.018(4) 0.012(4) 0.017(4) -0.003(3) 0.002(3) 0.004(3)
C3 0.020(4) 0.010(4) 0.027(4) -0.001(3) 0.002(3) 0.001(3)
C2 0.018(4) 0.011(4) 0.019(4) 0.003(3) -0.002(3) -0.001(3)
C1 0.016(3) 0.007(4) 0.021(3) 0.000(4) 0.002(2) 0.004(4)
C8 0.023(4) 0.008(6) 0.024(4) -0.003(3) 0.003(3) -0.001(3)
C7 0.023(4) 0.010(4) 0.016(4) -0.002(3) 0.000(3) 0.004(3)
C13 0.028(4) 0.007(5) 0.021(3) -0.001(3) 0.001(3) 0.002(3)
C12 0.014(4) 0.023(6) 0.028(4) -0.006(3) -0.003(3) -0.003(3)
C11 0.027(4) 0.020(5) 0.021(4) -0.006(3) -0.011(3) 0.010(3)
C5 0.026(4) 0.006(6) 0.020(3) 0.000(3) -0.001(3) 0.003(3)
C6 0.024(4) 0.015(5) 0.027(4) 0.001(3) 0.000(3) 0.000(3)
C10 0.031(5) 0.015(5) 0.014(3) 0.002(3) 0.002(3) 0.006(4)
C9 0.018(4) 0.008(4) 0.023(4) -0.002(3) 0.000(3) -0.003(3)
loop_
_atom_type_symbol
_atom_type_description
_atom_type_scat_dispersion_real
_atom_type_scat_dispersion_imag
_atom_type_scat_source
C C 0.0033 0.0016 'International Tables Vol C Tables 4.2.6.8 and 6.1.1.4'
H H 0.0000 0.0000 'International Tables Vol C Tables 4.2.6.8 and 6.1.1.4'
N N 0.0061 0.0033 'International Tables Vol C Tables 4.2.6.8 and 6.1.1.4'
O O 0.0106 0.0060 'International Tables Vol C Tables 4.2.6.8 and 6.1.1.4'
F F 0.0171 0.0103 'International Tables Vol C Tables 4.2.6.8 and 6.1.1.4'
Br Br -0.2901 2.4595 'International Tables Vol C Tables 4.2.6.8 and 6.1.1.4'
loop_
_geom_angle_atom_site_label_1
_geom_angle_atom_site_label_2
_geom_angle_atom_site_label_3
_geom_angle
C8 N1 C7 126.1(6)
C8 N1 H1 124(5)
C7 N1 H1 110(5)
F2 C14 F3 106.6(5)
F2 C14 F1 106.1(6)
F3 C14 F1 106.3(5)
F2 C14 C4 113.0(6)
F3 C14 C4 112.0(6)
F1 C14 C4 112.3(5)
C3 C4 C5 119.5(6)
C3 C4 C14 121.5(6)
C5 C4 C14 118.9(6)
C2 C3 C4 120.9(6)
C2 C3 H3 119.5
C4 C3 H3 119.5
C3 C2 C1 120.4(6)
C3 C2 H2 119.8
C1 C2 H2 119.8
C2 C1 C6 118.5(6)
C2 C1 C8 122.5(6)
C6 C1 C8 119.0(7)
O1 C8 N1 123.8(6)
O1 C8 C1 121.2(7)
N1 C8 C1 115.1(7)
C13 C7 C9 120.4(6)
C13 C7 N1 123.6(6)
C9 C7 N1 116.1(6)
C12 C13 C7 119.7(6)
C12 C13 H13 120.1
C7 C13 H13 120.1
C13 C12 C11 120.3(6)
C13 C12 H12 119.8
C11 C12 H12 119.8
C10 C11 C12 119.1(6)
C10 C11 H11 120.4
C12 C11 H11 120.4
C6 C5 C4 119.5(6)
C6 C5 H5 120.3
C4 C5 H5 120.3
C5 C6 C1 121.1(6)
C5 C6 H6 119.5
C1 C6 H6 119.5
C11 C10 C9 122.0(6)
C11 C10 Br1 120.0(5)
C9 C10 Br1 118.0(5)
C10 C9 C7 118.4(6)
C10 C9 H9 120.8
C7 C9 H9 120.8
loop_
_geom_bond_atom_site_label_1
_geom_bond_atom_site_label_2
_geom_bond_distance
Br1 C10 1.911(6)
F1 C14 1.357(7)
F2 C14 1.337(8)
F3 C14 1.341(7)
O1 C8 1.235(8)
N1 C8 1.342(8)
N1 C7 1.426(8)
N1 H1 0.87(2)
C14 C4 1.484(9)
C4 C3 1.381(8)
C4 C5 1.385(9)
C3 C2 1.371(8)
C3 H3 0.9500
C2 C1 1.389(10)
C2 H2 0.9500
C1 C6 1.391(9)
C1 C8 1.491(9)
C7 C13 1.379(8)
C7 C9 1.391(8)
C13 C12 1.375(8)
C13 H13 0.9500
C12 C11 1.391(8)
C12 H12 0.9500
C11 C10 1.356(9)
C11 H11 0.9500
C5 C6 1.383(8)
C5 H5 0.9500
C6 H6 0.9500
C10 C9 1.380(8)
C9 H9 0.9500
loop_
_geom_torsion_atom_site_label_1
_geom_torsion_atom_site_label_2
_geom_torsion_atom_site_label_3
_geom_torsion_atom_site_label_4
_geom_torsion
F2 C14 C4 C3 137.8(6)
F3 C14 C4 C3 -101.7(7)
F1 C14 C4 C3 17.8(9)
F2 C14 C4 C5 -44.3(8)
F3 C14 C4 C5 76.1(8)
F1 C14 C4 C5 -164.3(6)
C5 C4 C3 C2 -1.9(10)
C14 C4 C3 C2 176.0(6)
C4 C3 C2 C1 0.6(10)
C3 C2 C1 C6 1.1(10)
C3 C2 C1 C8 -179.8(6)
C7 N1 C8 O1 7.3(11)
C7 N1 C8 C1 -172.8(5)
C2 C1 C8 O1 -147.5(7)
C6 C1 C8 O1 31.5(9)
C2 C1 C8 N1 32.6(9)
C6 C1 C8 N1 -148.3(6)
C8 N1 C7 C13 -40.0(10)
C8 N1 C7 C9 141.3(6)
C9 C7 C13 C12 0.0(9)
N1 C7 C13 C12 -178.6(6)
C7 C13 C12 C11 -0.9(9)
C13 C12 C11 C10 0.8(10)
C3 C4 C5 C6 1.5(9)
C14 C4 C5 C6 -176.4(6)
C4 C5 C6 C1 0.2(10)
C2 C1 C6 C5 -1.5(10)
C8 C1 C6 C5 179.4(6)
C12 C11 C10 C9 0.1(10)
C12 C11 C10 Br1 -177.7(5)
C11 C10 C9 C7 -1.0(10)
Br1 C10 C9 C7 176.9(5)
C13 C7 C9 C10 0.9(9)
N1 C7 C9 C10 179.6(6)

_cod_database_fobs_code 2108313
