#------------------------------------------------------------------------------
#$Date: 2022-01-01 06:19:30 +0200 (Sat, 01 Jan 2022) $
#$Revision: 271667 $
#$URL: file:///home/coder/svn-repositories/cod/cif/2/10/89/2108914.cif $
#------------------------------------------------------------------------------
#
# This file is available in the Crystallography Open Database (COD),
# http://www.crystallography.net/. The original data for this entry
# were provided by IUCr Journals, http://journals.iucr.org/.
#
# The file may be used within the scientific community so long as
# proper attribution is given to the journal article from which the
# data were obtained.
#
data_2108914
loop_
_publ_author_name
'Rejnhardt, Piotr'
'Drozd, Marek'
'Daszkiewicz, Marek'
_publ_section_title
;
 Low-temperature phase transition and high-pressure phase stability of
 1<i>H</i>-pyrazole-1-carboxamidine nitrate
;
_journal_issue                   6
_journal_name_full               'Acta Crystallographica Section B'
_journal_page_first              996
_journal_page_last               1002
_journal_paper_doi               10.1107/S2052520621010970
_journal_volume                  77
_journal_year                    2021
_chemical_formula_moiety         'C4 H7 N4, N O3'
_chemical_formula_sum            'C4 H7 N5 O3'
_chemical_formula_weight         173.15
_space_group_crystal_system      monoclinic
_space_group_IT_number           14
_space_group_name_Hall           '-P 2ybc'
_space_group_name_H-M_alt        'P 1 21/c 1'
_atom_sites_solution_hydrogens   geom
_atom_sites_solution_primary     direct
_audit_creation_date             2021-07-12
_audit_creation_method
;
Olex2 1.2
(compiled 2018.05.29 svn.r3508 for OlexSys, GUI svn.r5506)
;
_cell_angle_alpha                90
_cell_angle_beta                 99.25(4)
_cell_angle_gamma                90
_cell_formula_units_Z            4
_cell_length_a                   5.0963(11)
_cell_length_b                   10.1784(11)
_cell_length_c                   13.823(10)
_cell_measurement_reflns_used    1295
_cell_measurement_temperature    293(2)
_cell_measurement_theta_max      22.0780
_cell_measurement_theta_min      3.9920
_cell_volume                     707.7(5)
_computing_cell_refinement       'CrysAlisPro 1.171.39.46 (Rigaku OD, 2018)'
_computing_data_collection       'CrysAlisPro 1.171.39.46 (Rigaku OD, 2018)'
_computing_data_reduction        'CrysAlisPro 1.171.39.46 (Rigaku OD, 2018)'
_computing_molecular_graphics    'Olex2 (Dolomanov et al., 2009)'
_computing_publication_material  'Olex2 (Dolomanov et al., 2009)'
_computing_structure_refinement  'ShelXL (Sheldrick, 2015)'
_computing_structure_solution    'ShelXS (Sheldrick, 2008)'
_diffrn_ambient_temperature      293(2)
_diffrn_detector                 'CCD plate'
_diffrn_detector_area_resol_mean 8.2214
_diffrn_detector_type            'Sapphire2, large Be window'
_diffrn_measured_fraction_theta_full 0.359
_diffrn_measured_fraction_theta_max 0.359
_diffrn_measurement_details
;
List of Runs (angles in degrees, time in seconds):

  # Type    Start    End  Width  t~exp~   \w     \q     \k     \f   Frames
--------------------------------------------------------------------------
  1  \w    -20.00  31.60   0.60   30.00    --   25.00   0.00   0.00   86
  2  \w    -20.00  35.80   0.60   30.00    --   25.00   0.00 180.00   93
  3  \w     -3.00  46.80   0.60   30.00    --   25.00 -40.00-170.00   83
  4  \w     -3.00  46.80   0.60   30.00    --   25.00 -40.00  10.00   83
  5  \w      8.00  65.00   0.60   30.00    --   25.00 -82.00  30.00   95
  6  \w      8.00  65.00   0.60   30.00    --   25.00 -82.00-150.00   95
  7  \w     32.50  88.90   0.60   30.00    --   25.00-135.00-122.00   94
  8  \w     32.00  89.00   0.60   30.00    --   25.00-135.00  58.00   95
  9  \w     25.00  46.60   0.60   30.00    --  -25.00-135.00  58.00   36
 10  \w     25.00  46.60   0.60   30.00    --  -25.00-135.00-122.00   36
 11  \w      0.00  22.80   0.60   30.00    --  -25.00 -82.00-150.00   38
 12  \w      0.00  22.80   0.60   30.00    --  -25.00 -82.00  30.00   38
 13  \w    -19.00  17.00   0.60   30.00    --  -25.00 -40.00  10.00   60
 14  \w    -19.00  17.00   0.60   30.00    --  -25.00 -40.00-170.00   60
 15  \w    -33.00  21.60   0.60   30.00    --  -25.00   0.00 180.00   91
 16  \w    -33.00  21.60   0.60   30.00    --  -25.00   0.00   0.00   91
;
_diffrn_measurement_device       'four-circle diffractometer'
_diffrn_measurement_device_type  'Xcalibur, Sapphire2, large Be window'
_diffrn_measurement_method       '\w scans'
_diffrn_orient_matrix_type
'CrysAlisPro convention (1999,Acta A55,543-557)'
_diffrn_orient_matrix_UB_11      0.0577969000
_diffrn_orient_matrix_UB_12      -0.0154828000
_diffrn_orient_matrix_UB_13      -0.0420311000
_diffrn_orient_matrix_UB_21      0.1284437000
_diffrn_orient_matrix_UB_22      0.0036890000
_diffrn_orient_matrix_UB_23      0.0285429000
_diffrn_orient_matrix_UB_31      -0.0062188000
_diffrn_orient_matrix_UB_32      -0.0677976000
_diffrn_orient_matrix_UB_33      0.0111737000
_diffrn_radiation_monochromator  graphite
_diffrn_radiation_probe          x-ray
_diffrn_radiation_type           MoK\a
_diffrn_radiation_wavelength     0.71073
_diffrn_reflns_av_R_equivalents  0.0550
_diffrn_reflns_av_unetI/netI     0.0407
_diffrn_reflns_Laue_measured_fraction_full 0.359
_diffrn_reflns_Laue_measured_fraction_max 0.359
_diffrn_reflns_limit_h_max       5
_diffrn_reflns_limit_h_min       -5
_diffrn_reflns_limit_k_max       12
_diffrn_reflns_limit_k_min       -12
_diffrn_reflns_limit_l_max       9
_diffrn_reflns_limit_l_min       -9
_diffrn_reflns_number            3896
_diffrn_reflns_point_group_measured_fraction_full 0.359
_diffrn_reflns_point_group_measured_fraction_max 0.359
_diffrn_reflns_theta_full        25.009
_diffrn_reflns_theta_max         25.009
_diffrn_reflns_theta_min         4.004
_diffrn_source                   'fine-focus sealed X-ray tube'
_diffrn_source_type              'Enhance (Mo) X-ray Source'
_exptl_absorpt_coefficient_mu    0.139
_exptl_absorpt_correction_T_max  1.00000
_exptl_absorpt_correction_T_min  0.23887
_exptl_absorpt_correction_type   multi-scan
_exptl_absorpt_process_details
;
CrysAlisPro 1.171.39.46 (Rigaku Oxford Diffraction, 2018)
Empirical absorption correction using spherical harmonics,
 implemented in SCALE3 ABSPACK scaling algorithm.
;
_exptl_crystal_colour            colourless
_exptl_crystal_density_diffrn    1.625
_exptl_crystal_description       prism
_exptl_crystal_F_000             360
_refine_diff_density_max         0.116
_refine_diff_density_min         -0.116
_refine_diff_density_rms         0.030
_refine_ls_extinction_coef       0.023(9)
_refine_ls_extinction_expression Fc^*^=kFc[1+0.001xFc^2^\l^3^/sin(2\q)]^-1/4^
_refine_ls_extinction_method     'SHELXL-2018/3 (Sheldrick 2018)'
_refine_ls_goodness_of_fit_ref   1.076
_refine_ls_hydrogen_treatment    constr
_refine_ls_matrix_type           full
_refine_ls_number_parameters     110
_refine_ls_number_reflns         447
_refine_ls_number_restraints     0
_refine_ls_restrained_S_all      1.076
_refine_ls_R_factor_all          0.0683
_refine_ls_R_factor_gt           0.0469
_refine_ls_shift/su_max          0.000
_refine_ls_shift/su_mean         0.000
_refine_ls_structure_factor_coef Fsqd
_refine_ls_weighting_details
'w=1/[\s^2^(Fo^2^)+(0.0423P)^2^+0.7871P] where P=(Fo^2^+2Fc^2^)/3'
_refine_ls_weighting_scheme      calc
_refine_ls_wR_factor_gt          0.1000
_refine_ls_wR_factor_ref         0.1147
_reflns_Friedel_coverage         0.000
_reflns_number_gt                340
_reflns_number_total             447
_reflns_threshold_expression     'I > 2\s(I)'
_cod_data_source_file            xk5086sup1.cif
_cod_data_source_block           0.44GPa
_cod_database_code               2108914
_shelx_shelxl_version_number     2018/3
_chemical_oxdiff_formula         C4N4NO3H7
_shelx_space_group_comment
;
The symmetry employed for this shelxl refinement is uniquely defined
by the following loop, which should always be used as a source of
symmetry information in preference to the above space-group names.
They are only intended as comments.
;
_reflns_odcompleteness_completeness 35.27
_reflns_odcompleteness_iscentric 1
_reflns_odcompleteness_theta     24.96
_olex2_refinement_description
;
1. Fixed Uiso
 At 1.2 times of:
  All C(H) groups, All N(H,H) groups
2.a Aromatic/amide H refined with riding coordinates:
 C1(H1), C2(H2), C3(H3)
2.b X=CH2 refined with riding coordinates:
 N3(H3A,H3B), N4(H4A,H4B)
;
_shelx_res_file
;
TITL instrument in P21/c #14
    instrument.res
    created by SHELXL-2018/3 at 13:59:41 on 12-Jul-2021
REM reset to P21/c #14
CELL 0.71073 5.096275 10.178404 13.82296 90 99.2516 90
ZERR 4 0.00111 0.001065 0.009662 0 0.0434 0
LATT 1
SYMM -X,0.5+Y,0.5-Z
SFAC C H N O
UNIT 16 28 20 12

L.S. 99 0 0
PLAN  20
BOND
fmap 2 53
ACTA
OMIT 2 7 8
OMIT 1 0 4
OMIT 2 2 7
OMIT 4 3 1
REM <olex2.extras>
REM <HklSrc "%.\\instrument.hkl">
REM </olex2.extras>

WGHT    0.042300    0.787100
EXTI    0.023312
FVAR       2.30991
C1    1    0.105538    0.790151    0.538552    11.00000    0.04263    0.04698 =
         0.05567    0.00644    0.00976    0.00176
AFIX  43
H1    2   -0.043965    0.829941    0.503073    11.00000   -1.20000
AFIX   0
C2    1    0.324749    0.859222    0.587583    11.00000    0.06671    0.04299 =
         0.05561   -0.00240    0.00531   -0.00905
AFIX  43
H2    2    0.348879    0.949809    0.589441    11.00000   -1.20000
AFIX   0
C3    1    0.493087    0.767704    0.631403    11.00000    0.04944    0.04191 =
         0.06189   -0.00666   -0.00383   -0.00720
AFIX  43
H3    2    0.654842    0.782557    0.671689    11.00000   -1.20000
AFIX   0
C4    1    0.475667    0.523530    0.629796    11.00000    0.03368    0.04098 =
         0.05401   -0.00107    0.00398   -0.00163
N1    3    0.380091    0.648353    0.605189    11.00000    0.02935    0.04027 =
         0.02941    0.00126    0.00643    0.00004
N2    3    0.136048    0.661960    0.548612    11.00000    0.04067    0.03891 =
         0.07820   -0.00077   -0.00840    0.00017
N3    3    0.336812    0.423843    0.591715    11.00000    0.05739    0.03708 =
         0.09176   -0.00033   -0.02450    0.00086
AFIX  93
H3A   2    0.396670    0.345331    0.602619    11.00000   -1.20000
H3B   2    0.185031    0.436362    0.555602    11.00000   -1.20000
AFIX   0
N4    3    0.706606    0.509831    0.684986    11.00000    0.04949    0.05240 =
         0.07077    0.00242   -0.01960    0.00131
AFIX  93
H4A   2    0.772258    0.432670    0.697351    11.00000   -1.20000
H4B   2    0.793373    0.577952    0.709046    11.00000   -1.20000
AFIX   0
N5    3    0.246044    0.647688    0.824935    11.00000    0.06010    0.04666 =
         0.08733   -0.00215   -0.02110   -0.00009
O1    4    0.483849    0.673683    0.856968    11.00000    0.04295    0.04748 =
         0.09626   -0.00517   -0.01705   -0.00639
O2    4    0.166087    0.533705    0.824525    11.00000    0.06219    0.04659 =
         0.13638   -0.00146   -0.02266   -0.01650
O3    4    0.086019    0.738015    0.793685    11.00000    0.04241    0.06179 =
         0.07795    0.01007    0.00170    0.00889
HKLF 4




REM  instrument in P21/c #14
REM wR2 = 0.1147, GooF = S = 1.076, Restrained GooF = 1.076 for all data
REM R1 = 0.0469 for 340 Fo > 4sig(Fo) and 0.0683 for all 447 data
REM 110 parameters refined using 0 restraints

END

WGHT      0.0420      0.7884

REM Highest difference peak  0.116,  deepest hole -0.116,  1-sigma level  0.030
Q1    1   0.0768  0.6188  0.4581  11.00000  0.05    0.12
Q2    1   0.0062  0.7404  0.6242  11.00000  0.05    0.11
Q3    1   0.5855  0.3672  0.6433  11.00000  0.05    0.10
Q4    1   0.6901  0.7189  0.7163  11.00000  0.05    0.10
Q5    1   0.6603  0.7439  0.7585  11.00000  0.05    0.10
Q6    1   0.9022  0.6403  0.7006  11.00000  0.05    0.10
Q7    1   0.4798  0.9166  0.5032  11.00000  0.05    0.09
Q8    1   0.2398  0.4463  0.9392  11.00000  0.05    0.09
Q9    1   0.9582  0.4988  0.7389  11.00000  0.05    0.09
Q10   1   0.3863  0.8410  0.6603  11.00000  0.05    0.09
Q11   1   0.3321  0.7618  0.8988  11.00000  0.05    0.09
Q12   1  -0.1195  0.8264  0.7594  11.00000  0.05    0.08
Q13   1   0.0019  0.5639  0.6146  11.00000  0.05    0.08
Q14   1   0.1909  0.6205  0.5982  11.00000  0.05    0.08
Q15   1   0.1871  0.9832  0.5809  11.00000  0.05    0.08
Q16   1   0.7580  0.6002  0.9008  11.00000  0.05    0.08
Q17   1   0.2899  0.7536  0.4419  11.00000  0.05    0.08
Q18   1   0.4836  0.9530  0.6571  11.00000  0.05    0.08
Q19   1  -0.1014  0.5153  0.7981  11.00000  0.05    0.08
Q20   1   0.3756  0.6945  0.7122  11.00000  0.05    0.07
;
_shelx_res_checksum              75413
_shelx_hkl_file
;
   0  -2   0 3269.64 120.325   6
   0   2   0 3331.48 122.898   9
   0  -2   0 3268.22 112.981   5
   0   2   0 3314.43 112.964  12
   0  -2   0 3307.33 124.542   8
   0  -2   0 3341.58 102.208   3
   0  -2   0 3164.73 123.343   7
   0  -2   1 11769.9 228.162   5
   0   2  -1 11806.6 147.366  14
   0  -2   1 11777.4 237.061   7
   0  -2   1 11835.9 144.793   3
   0   2  -1 11956.1 185.561  13
   0  -2   1 12224.4 233.792   8
   0  -2   1 12079.7 189.971   4
   0   2  -1 11960.1 210.726  11
   0  -2   1 11860.7 212.217   6
   0  -2   2 1993.98 89.6961   6
   0   2  -2 2039.56 104.702  10
   0  -2   2 1925.63 94.0486   4
   0  -2   2 1983.15 101.450   8
   0  -2   2 1906.35 102.902   5
   0  -2   2 1927.38 100.904   7
   0  -3   0 4.84486 4.49768   6
   0  -3   0 9.69217 6.03624   8
   0  -3   0-1.76608 8.68050   5
   0  -3   0-7.55338 7.14336   7
   0   3   0-6.89231 7.99382  12
   0   3   0 4.09011 3.59490   9
   0  -3   0-0.54934 3.09404   4
   0  -3   1 4061.84 159.820   5
   0  -3   1 4063.32 113.041   3
   0  -3   1 4113.40 167.374   8
   0  -3   1 4187.27 159.723   6
   0  -3   1 3915.97 166.486   7
   0   3   1 3755.81 193.055   9
   0  -3  -1 3822.86 215.419   7
   0   3  -1 3966.37 157.053  12
   0   3  -1 4158.87 129.521  13
   0  -3  -1 3462.78 199.824   8
   0   3  -1 4006.01 109.639  14
   0  -3   1 4024.51 127.226   4
   0  -3   2 1397.01 102.640   7
   0  -3   2 1486.62 88.4887   4
   0   3  -2 1522.64 53.0185   1
   0  -3   2 1472.94 102.681   5
   0  -3   2 1495.97 50.0109  15
   0   3  -2 1512.20 92.1789  11
   0   3  -2 1489.54 52.5873  16
   0  -3   2 1496.30 50.7738   2
   0  -3   2 1425.48 101.662   8
   0  -3   2 1452.47 91.0366   6
   0   3  -2 1510.57 104.455  10
   0  -3   2 1510.32 62.7354   3
   0  -3   3 10333.0 300.291   5
   0  -3   3 10240.7 253.405   6
   0  -3   3 10047.5 289.422   7
   0   3  -3 10331.8 295.323  10
   0  -3   3 10613.8 295.988   8
   0  -4   0 981.900 96.0750   7
   0   4   0 936.995 84.9314  12
   0  -4   0 932.289 85.6632   5
   0  -4   0 963.141 67.7492   4
   0   4   0 968.654 94.3431   9
   0  -4   0 992.850 95.8342   8
   0  -4   0 926.781 91.5783   6
   0  -4   1 1014.35 72.4196   4
   0   4  -1 1014.27 72.7194  13
   0  -4  -1 1095.66 123.694   7
   0  -4   1 1000.04 92.5657   6
   0  -4   1 1081.69 102.990   7
   0  -4   1 959.774 64.2167   3
   0  -4   1 1023.06 97.5912   8
   0   4  -1 1048.09 67.7121  14
   0  -4  -1 1017.41 120.914   5
   0   4  -1 984.335 95.6911   9
   0  -4  -1 721.676 126.229   6
   0  -4  -1 1002.46 115.942   8
   0   4  -1 1030.78 92.3540  12
   0   4   1 1190.39 119.676   9
   0  -4   1 989.148 90.7300   5
   0   4  -2 7119.83 265.135  10
   0   4  -2 7502.67 240.756  11
   0  -4   2 7411.19 244.507   6
   0  -4   2 7520.28 268.156   8
   0  -4   2 7208.39 163.628   3
   0  -4   2 7250.46 267.345   7
   0  -4   2 7177.30 256.975   5
   0  -4   2 7290.02 216.663   4
   0   4  -2 7368.24 212.295  13
   0  -4   3 1789.22 68.1896  15
   0  -4   3 1706.67 128.592   8
   0   4  -3 1752.76 133.910  10
   0   4  -3 1888.76 74.8011  16
   0  -4   3 1728.19 130.620   5
   0  -4   3 1628.94 128.221   7
   0  -4   3 1777.24 118.552   4
   0   4  -3 1756.86 119.621  11
   0  -4   3 1694.52 114.219   6
   0  -4   3 1779.85 79.0409   3
   0  -4   4 658.368 90.6458   8
   0  -4   4 663.752 78.6749   6
   0  -4   4 714.122 98.1527   5
   0   4  -4 652.978 94.8095  10
   0  -4   4 658.105 95.7752   7
   0  -5   0 10.6317 10.5183   5
   0   5   0 20.0001 23.7800   9
   0  -5   0 16.2738 15.2947   4
   0  -5   0 19.5540 18.3080   7
   0  -5   0 41.9348 33.0682   8
   0   5   0-2.58893 10.6554  12
   0  -5   0 23.5850 27.6561   6
   0  -5  -1 1670.77 164.063   5
   0  -5   1 1683.35 133.702   5
   0   5  -1 1759.93 144.033   9
   0   5   1 1751.78 164.952   9
   0  -5   1 1618.08 131.249   6
   0  -5   1 1657.17 142.041   7
   0  -5  -1 1665.63 168.915   8
   0   5  -1 1713.01 96.7424  14
   0  -5  -1 1684.59 174.180   7
   0   5  -1 1366.52 115.150  13
   0  -5   1 1615.33 99.7333   4
   0  -5   1 1603.31 138.996   8
   0   5  -1 1747.68 135.786  12
   0   5  -2 686.733 87.4670  12
   0   5  -2 562.140 62.7355  14
   0  -5   2 723.106 92.4035   8
   0   5  -2 656.768 80.7248  11
   0   5  -2 652.572 91.2798  10
   0   5  -2 744.301 71.0253  13
   0  -5   2 668.652 91.4936   7
   0  -5   2 659.284 55.5698   3
   0  -5   2 639.287 82.7454   5
   0  -5   2 677.039 82.8499   6
   0  -5   2 722.334 72.7499   4
   0  -5   3 83.1543 32.9471   8
   0   5  -3 67.9368 26.3811  13
   0  -5   3 72.2066 26.1268   7
   0  -5   3 50.0407 17.1854   6
   0  -5   3 109.192 33.4770   4
   0   5  -3 74.1183 29.7431  10
   0  -5   3 84.1695 19.6794   3
   0  -5   3 93.1796 34.3708   5
   0   5  -3 100.228 33.5441  11
   0  -5   4 2501.23 180.765   8
   0  -5   4 2474.16 91.3435  15
   0  -5   4 2498.55 182.005   7
   0  -5   4 2499.86 157.583   6
   0  -5   4 2354.05 180.422   5
   0  -5   4 2481.11 103.821   3
   0   5  -4 2468.38 153.231  13
   0   5  -4 2543.93 99.9163  16
   0   5  -4 2500.57 182.110  10
   0  -5   5 21.4062 17.2271   8
   0  -5   5 39.7073 40.3082   6
   0  -5   5 40.4398 30.7028   7
   0  -5   5 13.5956 20.0162   5
   0  -6   0 4887.89 267.653   8
   0   6   0 4740.27 193.829  14
   0  -6   0 5121.34 288.277   6
   0  -6   0 4899.05 248.332   5
   0  -6   0 4967.26 275.295   7
   0  -6   0 4905.61 187.627   4
   0   6   0 4745.35 257.796   9
   0   6  -1 549.125 83.0035  12
   0  -6  -1 408.176 103.189   7
   0   6   1 487.411 99.1775   9
   0  -6  -1 398.442 90.7018   5
   0  -6   1 460.646 57.4007   4
   0  -6   1 529.264 82.6279   5
   0   6  -1 480.366 56.4210  14
   0  -6   1 508.089 89.0109   7
   0  -6  -1 465.577 105.740   8
   0  -6   1 521.552 82.3684   6
   0  -6   1 540.387 88.0585   8
   0   6  -1 476.056 84.7340   9
   0  -6   2 61.2895 23.4603   4
   0  -6   2 66.9596 13.1345   6
   0   6  -2 45.2597 26.6714  11
   0   6  -2 49.1027 31.5676  10
   0   6  -2 88.6123 26.5470  14
   0  -6   2 36.6313 27.1511   8
   0  -6   2 43.7443 25.4543   7
   0   6  -2 27.9866 5.61363  13
   0  -6   2 67.7222 25.1075   5
   0   6  -2 74.8955 37.4571  12
   0   6  -2 17.7541 11.1559   9
   0   6  -3 775.269 85.3080  13
   0   6  -3 841.943 113.513  10
   0  -6   3 779.097 87.7464   4
   0  -6   3 797.659 107.767   8
   0  -6   3 759.872 62.9692   3
   0  -6   3 749.597 103.342   5
   0   6  -3 812.920 107.702  12
   0  -6   3 802.285 101.919   6
   0  -6   3 768.791 111.446   7
   0   6  -3 795.203 98.8118  11
   0  -6   4 1052.74 125.641   7
   0  -6   4 932.495 106.156   6
   0  -6   4 1065.64 71.5204   3
   0   6  -4 1076.14 107.833  13
   0  -6   4 1029.90 124.960   5
   0   6  -4 1049.99 126.606  10
   0  -6   4 1097.90 127.833   8
   0  -6   5 403.459 93.3727   5
   0  -6   5 407.990 86.1246   7
   0   6  -5 489.336 83.4514  13
   0   6  -5 422.703 92.2853  10
   0  -6   5 417.694 47.0251   3
   0  -6   5 364.600 81.2324   8
   0  -6   5 409.705 76.3197   6
   0  -6   5 463.549 44.5147  15
   0  -7   0 13.7875 9.56179   7
   0  -7   0-12.8505 22.4760   6
   0   7   0-9.28064 13.3859   9
   0  -7   0 24.6163 1.82084   5
   0  -7   0 32.1359 20.5428   4
   0   7   0 16.1516 13.1646  14
   0  -7   0 5.72611 13.8247   8
   0   7  -1 392.137 55.3734  14
   0   7  -1 398.278 75.2594  11
   0  -7   1 340.875 74.2615   8
   0  -7   1 403.566 83.0830   5
   0  -7   1 406.550 59.8281   4
   0   7  -1 366.615 71.7082  12
   0  -7   1 320.846 74.9125   7
   0   7  -1 364.107 82.4509   9
   0  -7   1 368.394 79.0535   6
   0   7  -2 43.9115 19.9281  10
   0   7  -2 57.7733 31.3046  11
   0  -7   2 44.5260 29.9709   5
   0  -7   2 43.0892 16.0778   6
   0  -7   2 93.8992 42.0424   8
   0   7  -2 39.1053 28.1712   9
   0  -7   2 33.7412 20.0788   4
   0  -7   2 49.7344 32.6952   7
   0   7  -2 74.9501 33.9704  12
   0   7  -3 29.7365 18.0508  11
   0  -7   3 8.96650 16.4036   7
   0   7  -3-12.9612 13.6277   9
   0  -7   3-10.2595 15.9635   8
   0   7  -3-30.5138 9.30284  12
   0  -7   3-3.86986 14.3836   5
   0   7  -3 1.06448 12.1464  13
   0   7  -3-33.2607 38.0539  10
   0  -7   3 23.4961 21.4495   6
   0  -7   3 1.31740 16.1173   4
   0   7  -4 663.349 99.3096  11
   0   7  -4 646.698 105.366  12
   0  -7   4 544.448 97.6477   8
   0  -7   4 629.235 109.771   7
   0   7  -4 629.565 86.0042  13
   0  -7   4 622.126 96.7540   6
   0  -7   4 603.088 101.784   5
   0   7  -4 578.829 101.907  10
   0   7  -5 113.542 35.6630  13
   0   7  -5 135.904 57.5984  10
   0  -7   5 150.573 60.3793   5
   0  -7   5 132.586 49.8969   8
   0  -7   5 125.998 53.2351   7
   0  -7   5 122.514 41.7231   6
   0  -7   6 721.082 155.954   6
   0  -7   6 718.342 172.850   7
   0   7  -6 443.237 108.867  13
   0  -8   0 195.960 77.5316   8
   0  -8   0 170.745 46.3195   4
   0   8   0 168.640 68.2037   9
   0  -8   0 146.960 38.5847   5
   0  -8   0 138.674 56.1017   7
   0   8   0 166.632 41.2101  14
   0  -8   1 3312.38 187.305   4
   0   8  -1 3134.64 253.639   9
   0  -8   1 3193.06 259.911   8
   0  -8   1 3222.20 247.368   5
   0   8  -1 3111.93 231.642  11
   0  -8   1 3088.36 262.380   6
   0  -8   1 3252.40 269.494   7
   0   8  -2 531.661 104.614   9
   0   8  -2 454.056 81.9498  11
   0  -8   2 515.113 100.239   8
   0  -8   2 436.703 86.2741   5
   0   8  -2 462.666 97.8267  10
   0   8  -2 496.246 92.1126  12
   0  -8   2 523.636 76.5457   4
   0  -8   2 527.855 106.789   7
   0  -8   2 420.037 86.7822   6
   0   8  -3 1786.31 173.887  11
   0  -8   3 1675.30 188.563   8
   0   8  -3 1734.17 189.669  10
   0  -8   3 1636.17 172.406   5
   0   8  -3 1711.74 190.529   9
   0  -8   3 1677.55 189.260   7
   0   8  -3 1736.85 179.626  12
   0  -8   3 1824.42 153.628   4
   0  -8   3 1582.99 165.496   6
   0  -8   4 21.7736 30.2418   5
   0  -8   4 23.7360 25.3111   8
   0   8  -4 72.9993 49.9318  10
   0   8  -4-46.5736 36.4601  12
   0   8  -4-19.9077 32.2693  13
   0  -8   4 58.5451 47.5536   7
   0  -8   4 56.6243 30.6022   6
   0   8  -4-22.8481 33.6499  11
   0   8  -4 25.9761 18.4104   9
   0  -8   5 594.146 108.378   6
   0  -8   5 462.226 97.0974   8
   0   8  -5 532.172 108.715  12
   0   8  -5 473.041 103.145  10
   0  -8   5 489.508 106.410   7
   0  -8   5 524.349 112.686   5
   0   8  -5 491.503 86.6199  13
   0  -8   6-29.6388 41.1636   5
   0   8  -6-0.95586 20.3512  12
   0   8  -6 32.5376 10.8577  13
   0   8  -6 65.9847 42.7382  10
   0  -8   6 63.9921 45.3512   8
   0  -8   6-7.27244 42.3355   6
   0  -8   6-12.5646 39.3618   7
   0  -9   0 54.0033 45.3097   8
   0  -9   0-2.78370 65.8091   7
   0  -9   0 5.16952 13.1285   5
   0  -9   1 210.172 62.1553   5
   0   9  -1 190.903 59.5037  11
   0   9  -1 239.183 77.8735   9
   0  -9   1 299.629 99.5126   7
   0  -9   1 317.578 96.5697   8
   0  -9   1 73.0739 33.4666   6
   0  -9   2 668.712 126.075   8
   0   9  -2 605.928 109.015  12
   0  -9   2 674.558 118.443   5
   0   9  -2 665.910 113.927  11
   0   9  -2 667.705 125.294   9
   0  -9   2 679.761 130.601   6
   0  -9   2 625.675 125.300   7
   0   9  -2 797.478 138.513  10
   0   9  -3 431.382 99.2599  10
   0   9  -3 535.076 112.064   9
   0   9  -3 511.337 102.600  12
   0  -9   3 493.328 104.054   6
   0  -9   3 444.216 98.2154   5
   0   9  -3 402.927 82.6167  11
   0  -9   3 507.681 120.747   8
   0  -9   3 498.969 114.401   7
   0   9  -4 816.808 138.678  12
   0  -9   4 790.942 138.350   7
   0  -9   4 732.261 126.601   5
   0   9  -4 786.902 124.768  11
   0   9  -4 775.127 135.907   9
   0  -9   4 857.923 145.361   8
   0   9  -4 801.534 139.457  10
   0  -9   4 1011.18 144.933   6
   0  -9   5 90.8174 52.7910   8
   0  -9   5 73.9802 37.4949   5
   0   9  -5 119.331 42.6472  10
   0  -9   5 113.705 66.9800   6
   0   9  -5 46.2142 29.5848   9
   0  -9   5 62.5121 39.0823   7
   0   9  -5 170.085 62.9581  12
   0  -9   6 676.705 176.638   5
   0   9  -6 986.496 181.721  12
   0   9  -6 975.917 179.534  10
   0  -9   6 1138.85 216.895   7
   0  -9   6 922.440 169.443   8
   0   9  -6 1288.84 242.884   9
   0  10  -1 154.197 88.9747  11
   0  10  -1 145.847 77.3993   9
   0 -10   1 66.8377 33.3257   8
   0 -10   1 146.937 101.447   5
   0  10  -1 153.820 75.7019  10
   0 -10   1 184.692 84.6107   7
   0 -10   2-2.98083 31.7322   5
   0 -10   2-32.9879 51.9290   7
   0 -10   2-60.2215 96.6319   6
   0 -10   2 3.01788 29.2868   8
   0  10  -2 3.55445 21.9679  11
   0  10  -2-59.9381 34.9329  10
   0  10  -2-0.76113 16.2051   9
   0 -10   3 127.919 66.4888   6
   0 -10   3 177.276 70.5738   5
   0 -10   3 92.3237 54.3602   7
   0  10  -3 135.087 47.3407  11
   0 -10   3 150.701 61.6935   8
   0  10  -3 87.5300 47.9391   9
   0  10  -3 103.910 51.0831  12
   0  10  -3 41.9554 38.6241  10
   0 -10   4 199.881 77.0027   8
   0 -10   4 229.058 82.9291   7
   0 -10   4 198.421 72.8154   5
   0  10  -4 217.934 73.6512  11
   0  10  -4 193.658 52.2971  12
   0 -10   4 353.335 100.202   6
   0  10  -4 277.416 90.5396  10
   0  10  -4 206.314 76.6612   9
   0  10  -5 48.8650 56.9510   9
   0 -10   5 64.0838 31.3020   7
   0  10  -5-21.9749 38.2660  10
   0 -10   5 102.040 64.3037   6
   0 -10   5 22.0761 49.1243   8
   0  10  -5-13.9502 35.5592  12
   0 -10   5 61.7865 49.7886   5
   0  10  -6 27.2760 29.7402  12
   0  10  -6-48.2629 82.1082  10
   0 -10   6-73.7454 75.6852   5
   0 -10   6 65.3745 78.1526   7
   0 -10   6 32.4138 47.8496   8
   0  10  -6-32.7141 98.0221   9
   0 -11   2 186.771 109.077   8
   0  11  -2 125.100 66.9028  10
   0  11  -2 97.8059 52.7352  11
   0 -11   2 179.996 95.5517   7
   0  11  -2-19.8944 35.6324   9
   0 -11   2 29.0464 40.1791   5
   0  11  -3 97.4386 69.3300   9
   0 -11   3 110.521 46.5106   5
   0  11  -3 26.7070 74.9794  10
   0 -11   3 111.201 70.3508   7
   0  11  -3 60.0248 36.8514  11
   0 -11   3 160.064 70.2136   8
   0 -11   4 37.2709 17.4361   5
   0 -11   4 53.0985 28.7740   8
   0  11  -4 40.5455 34.8929  10
   0  11  -4 88.5965 53.7181  12
   0 -11   4 110.491 64.1809   7
   0  11  -4 83.4054 36.2326   9
   0 -11   4 51.5150 55.7579   6
   0  11  -5-6.06170 35.0575   9
   0 -11   5 49.7326 20.3295   7
   0  11  -5 25.7605 48.1487  12
   0 -11   5 69.9242 18.5607   8
   0  11  -5 56.0809 25.6215  10
   0 -11   5 8.55864 55.4276   5
   0  11  -6-20.9965 38.5035  12
   0 -11   6-58.6537 86.9600   7
   0 -11   6 2.58580 80.4261   8
   0  11  -6-14.2999 28.4100   9
   0  11  -6 32.6573 21.2452  10
   0 -12   2 74.2933 78.9369   8
   0  12  -2-89.2331 62.6567  10
  -1   0   0 9134.15 209.958  16
   1   0   0 8391.45 204.068  14
   1   0   0 8859.39 202.024  15
  -1   0  -1 11.3809 5.31122   6
  -1   0  -1 12.5092 9.16921   2
   1   0   1 10.3045 3.81910   4
   1   0   1 11.8286 1.21877  15
   1   0   1 16.0696 7.65280  11
  -1   0  -1 3.28786 5.01615  16
  -1   0  -1 13.4816 7.42177  12
   1   0   1 14.9639 10.2351   1
   1   0   1 2.90735 3.78508  14
   1   0   1 4.60076 2.22725   5
  -1   0  -1 19.7521 12.9933   3
  -1   0  -1 7.85625 6.96740  13
   1   0   2 81.8085 21.6510   1
   1   0   2 93.4146 23.9772   4
   1   0   2 86.5735 17.7080   5
  -1   0  -2 104.045 24.0805   3
  -1   0  -2 62.4472 19.3660  16
  -1   0  -2 92.4898 18.2937   6
  -1   0  -2 98.9475 24.4591   2
   1   0   2 83.0030 18.9647  15
  -1   0  -3 3.85516 6.88322  16
   1   0   3-6.65217 9.94149   4
   1   0   3 2.16136 8.74066   1
  -1   0  -3 10.5226 14.1789   3
  -1   0  -3 4.79148 8.35379   2
   1   0   3-2.78686 4.40125  15
   1   0   4 1707.44 126.898  15
   1   1   0 28183.6 355.982  11
   1   1   0 28616.0 353.387   1
  -1  -1   0 28410.7 279.270   7
  -1  -1   0 28571.8 349.641   6
  -1  -1   0 28033.3 359.588  16
  -1  -1   0 28661.3 381.202   3
  -1  -1   0 28352.8 350.954   2
   1   1   0 28036.8 349.451  15
   1   1   0 27695.2 380.671  14
   1   1   1 8295.89 190.891  11
   1  -1   1 8383.38 202.165  15
   1   1   1 8316.76 206.869   1
  -1  -1  -1 8329.32 167.920  13
  -1   1  -1 8454.62 199.253  12
   1   1   1 8419.57 169.515   4
  -1   1  -1 8237.12 159.812   3
  -1   1  -1 8421.59 203.077   2
   1  -1   1 8172.78 197.896   5
  -1  -1  -1 8536.48 212.293   3
   1  -1   1 8554.47 219.503   4
  -1  -1  -1 8412.76 131.756   7
  -1   1  -1 8237.84 219.251  13
  -1  -1  -1 8192.63 201.210   2
   1  -1   1 8069.19 205.409   1
   1   1   1 8261.77 211.858  14
   1   1   1 8348.76 203.771  15
   1  -1   1 8533.27 165.455  14
   1   1   1 8389.96 132.290   8
  -1   1  -1 8557.18 206.763  16
  -1  -1  -1 8205.55 127.084   8
   1  -1   1 8335.61 151.144   8
  -1  -1  -1 8338.60 206.392  16
   1   1   1 8318.69 127.676   7
   1   1   1 8331.76 129.277  10
  -1  -1  -1 8140.40 190.013   6
  -1   1  -2 414.181 50.5930  16
  -1  -1  -2 484.326 31.5293   5
  -1   1  -2 474.263 34.9707  10
  -1  -1  -2 473.072 54.5766   2
  -1   1  -2 462.728 56.2209  13
  -1  -1  -2 428.564 54.2792   3
   1  -1   2 432.339 36.0067   7
   1   1   2 413.717 29.2618   7
  -1   1  -2 463.942 43.2530   3
  -1  -1  -2 429.721 30.4660   8
   1   1   2 451.187 54.0137  15
   1  -1   2 458.683 50.6647  15
  -1  -1  -2 474.343 48.7322   6
  -1  -1  -2 453.995 55.0759  16
   1   1   2 461.909 47.8225   4
   1  -1   2 463.056 42.5809  14
   1  -1   2 478.586 53.7060   1
   1  -1   2 475.651 34.4531   8
  -1   1  -2 486.137 53.3568   2
   1  -1   2 484.323 49.8279   5
   1  -1   2 465.713 56.0294   4
   1   1   2 454.656 54.6790   1
  -1  -1  -3 7.19568 17.5152   3
   1   1   3 4.72920 10.7653  15
   1  -1   3 12.2977 7.59320   1
   1   1   3 6.30574 6.40560   1
  -1   1  -3-3.50501 7.56918  16
   1  -1   3 4.81285 9.11839  15
   1  -1   3-6.98041 8.05454   7
   1  -1   3-0.37353 5.77194   5
  -1  -1  -3 17.3332 11.0381   2
  -1  -1  -3-8.42610 10.8209  16
   1  -1   3-20.6533 14.4358   4
  -1   1  -3 7.87144 11.1236   2
  -1   1  -4 2320.40 152.067  16
  -1   1  -4 1720.84 143.203   2
   1  -1   4 1963.68 147.595   1
   1  -1   4 2219.36 147.929   4
   1  -1   4 2202.36 139.291  15
  -1  -2   1 1505.03 96.9618   3
   1   2  -1 1616.50 104.391  14
  -1  -2   1 1655.81 104.779   6
  -1  -2   1 1104.53 92.3282   8
   1   2  -1 1472.05 99.7095  11
  -1  -2   1 1521.46 91.9961   7
   1   2   0 1607.18 83.3657  15
   1   2   0 1605.78 83.7696   1
   1   2   0 1590.01 100.113  14
  -1  -2   0 1654.04 87.0072   8
  -1  -2   0 1654.30 86.8074  16
  -1  -2   0 1594.83 86.4175   7
  -1  -2   0 1628.18 82.6803   2
  -1  -2   0 1626.94 99.4597   6
   1   2   0 1637.47 56.1793   5
  -1  -2   0 1592.51 99.3447   3
   1   2   0 1633.51 87.8918  10
   1   2   0 1571.79 99.6944  11
   1  -2   1 3438.17 130.855  15
   1  -2   1 3356.80 152.482   4
  -1   2  -1 3414.78 128.847   2
  -1  -2  -1 3545.31 151.644   6
   1   2   1 3481.48 135.055  15
  -1   2  -1 3295.26 130.198  16
  -1  -2  -1 3396.74 151.893   3
  -1  -2  -1 3466.78 124.271   7
   1  -2   1 3331.79 129.229   1
   1  -2   1 3472.49 132.504   8
  -1  -2  -1 3382.25 134.919  16
   1   2   1 3538.35 124.347   9
   1   2   1 3555.95 157.676  14
   1  -2   1 3359.89 151.297   5
  -1  -2  -1 3405.28 91.3820  13
  -1   2  -1 3394.94 135.370   9
  -1   2  -1 3425.13 154.299  13
  -1  -2  -1 3391.92 119.348   8
   1   2   1 3463.23 139.569   1
  -1  -2  -1 3484.07 135.785   2
  -1   2  -1 3366.43 150.290  12
   1  -2   1 3618.23 147.710   7
  -1   2  -2 585.973 54.7996   9
   1  -2   2 564.431 58.5269   1
   1  -2   2 593.179 58.0024  15
  -1   2  -2 548.087 35.9542   3
  -1   2  -2 523.051 63.1176  12
  -1   2  -2 611.491 58.1028   2
  -1  -2  -2 562.651 66.4984   3
   1  -2   2 563.604 65.1424   4
  -1  -2  -2 559.108 64.0323  16
  -1  -2  -2 537.437 48.6664   8
   1  -2   2 610.353 66.7724   5
   1   2   2 595.596 64.0809  15
   1   2   2 557.925 64.2844   1
  -1   2  -2 593.722 58.7496  16
   1  -2   2 582.271 36.7403  14
  -1   2  -2 568.372 65.7648  13
   1  -2   2 567.730 52.9468   8
  -1  -2  -2 636.282 66.0448   2
  -1  -2  -2 606.123 66.1792   6
   1  -2   2 640.883 59.0990   7
   1  -2   3 3315.64 157.014   1
   1  -2   3 3150.52 126.396   8
   1   2   3 3407.61 191.748  15
  -1  -2  -3 3178.60 198.679   3
  -1  -2  -3 2892.76 193.928  16
   1  -2   3 3270.37 132.829   7
  -1   2  -3 3215.24 149.635  16
  -1   2  -3 3303.05 168.308  13
   1  -2   3 3205.89 164.648   4
   1  -2   3 3177.78 145.988  15
  -1   2  -3 3375.38 153.802   2
   1  -2   3 3410.32 163.513   5
  -1   2  -3 3283.51 131.635  10
  -1   2  -4 6347.20 240.042  16
   1  -2   4 6504.86 203.951   7
   1  -2   4 6192.47 253.710   4
   1  -2   4 6207.35 255.305   1
   1  -2   4 6324.24 228.669  15
  -1   2  -4 6662.24 265.107   2
   1  -2   4 6582.35 248.755   5
   1  -2   5 731.634 82.6819  15
   1  -2   5 868.570 100.002   4
   1   3  -2 600.682 81.0969  10
  -1  -3   2 689.995 85.0765   8
  -1  -3   2 664.183 78.3581   6
  -1  -3   2 681.313 77.1653   7
  -1  -3   1 11823.8 283.759   3
  -1  -3   1 11869.3 313.376   6
  -1  -3   1 11614.9 209.867   2
   1   3  -1 12162.1 293.522  14
  -1  -3   1 12235.8 302.240   7
   1   3  -1 12060.1 313.293  11
   1   3  -1 11992.9 297.823  10
  -1  -3   1 11879.0 293.879   8
   1   3  -1 11628.1 210.957   1
  -1  -3   0 187.074 28.8899   2
   1   3   0 181.388 25.5208  12
  -1  -3   0 184.702 25.4355   5
  -1  -3   0 182.739 35.0578   8
  -1  -3   0 182.630 29.3959  16
  -1  -3   0 184.632 34.3154   7
  -1  -3   0 208.505 42.4431   6
   1   3   0 193.411 37.6356  14
   1   3   0 183.369 37.1154  11
   1   3   0 160.840 35.3831  10
  -1  -3   0 180.667 35.3861   3
   1   3   0 195.551 28.4296  15
   1  -3   0 153.511 50.9164   5
   1   3   0 177.424 28.2145   1
   1   3   1 20.2240 15.4961  14
  -1  -3  -1 37.1422 17.7427   7
  -1  -3  -1 42.6343 12.1029   5
   1   3   1 22.3072 6.46652  15
   1   3   1 30.3810 15.0859   1
  -1   3  -1 21.7573 14.2855  12
  -1  -3  -1 37.3739 15.3864   8
   1  -3   1 13.0332 8.99041   7
  -1   3  -1 27.2434 16.2895  13
  -1  -3  -1 37.5037 22.8257   6
   1  -3   1 24.7728 8.56344   1
  -1   3  -1 37.3286 15.5640   9
   1  -3   1 17.1528 15.0005   5
   1   3   1 15.4157 10.9767   9
  -1  -3  -1 43.5133 20.2087   3
  -1   3  -1 40.0444 13.3810   2
   1  -3   1 16.3349 5.71421   4
  -1  -3  -1 14.1360 4.26246   2
   1  -3   1 15.6262 3.77594   8
  -1  -3  -2-11.0685 18.8067   3
   1   3   2 10.6707 11.4961  15
   1  -3   2 1.35544 8.84730   5
   1   3   2-0.72741 10.8673   1
   1  -3   2-0.47134 1.85892   4
  -1  -3  -2-4.27587 10.3723   6
  -1   3  -2-6.65567 4.74972  12
   1  -3   2-0.57839 6.78244   7
  -1   3  -2 1.86798 3.56057  11
   1  -3   2 6.13186 8.43007   8
  -1   3  -2-0.45230 7.42664  16
  -1  -3  -2-13.2973 15.9467   2
  -1   3  -2 5.94896 5.75131   2
   1  -3   2 17.8176 10.0274   1
   1  -3   2 8.64816 12.4243  15
  -1   3  -2-3.11910 8.00417   9
  -1  -3  -2 25.7927 16.6575  16
  -1   3  -2-7.83834 9.55930  13
  -1  -3  -2-0.57604 6.90991   8
   1  -3   3 4269.38 173.758   1
   1  -3   3 4232.12 182.484   7
  -1   3  -3 4259.23 202.523  13
  -1   3  -3 4369.85 171.294   2
   1  -3   3 4419.02 208.095   5
  -1   3  -3 4506.06 184.269  10
  -1   3  -3 4249.01 169.663  16
   1  -3   3 4145.52 117.100   6
   1  -3   3 4347.54 180.148   8
   1  -3   3 4303.44 203.865   4
   1  -3   3 4362.73 167.466  15
   1  -3   4 1640.95 113.874  15
   1  -3   4 1689.24 134.384   5
  -1   3  -4 1678.78 135.928  13
  -1   3  -4 1753.16 125.252  10
   1  -3   4 1620.03 73.3009   6
  -1   3  -4 1653.87 114.978  16
  -1   3  -4 1711.59 131.142   2
   1  -3   4 1568.30 114.069   7
   1  -3   4 1728.53 120.741   8
   1  -3   4 1605.69 126.082   1
   1  -3   4 1716.05 139.885   4
   1  -3   5 29.4003 20.9015  15
   1  -3   5 52.4345 14.1059   6
   1  -3   5 16.0024 9.42475   5
  -1   3  -5 38.6458 22.3368  16
   1  -3   5 58.8630 26.6255   7
   1  -3   5 18.8694 11.9989   4
  -1  -4   3 213.551 57.3717   7
  -1  -4   3 171.044 47.4547   6
  -1  -4   3 268.664 77.3850   8
  -1  -4   2 7978.08 287.432   7
   1   4  -2 8403.19 178.384   1
   1   4  -2 7709.09 288.122  10
  -1  -4   2 7754.63 284.857   6
  -1  -4   2 7668.06 247.643   3
  -1  -4   2 8285.19 173.734   2
  -1  -4   2 8172.29 288.518   8
   1   4  -2 8091.86 288.545  11
   1   4  -1 3998.60 182.726  14
   1   4  -1 4028.91 122.931   1
   1   4  -1 3840.14 195.345  10
  -1  -4   1 3898.30 200.268   6
  -1  -4   1 3956.51 194.748   7
  -1  -4   1 3988.09 165.090   5
   1   4  -1 3832.86 198.259  11
  -1  -4   1 3907.60 176.699   3
  -1  -4   1 4022.70 194.607   8
  -1  -4   1 3935.37 118.955   2
   1   4   0 1369.36 86.7598  12
  -1  -4   0 1347.46 120.580   6
  -1  -4   0 1275.21 82.9472   5
   1   4   0 1380.07 110.722  14
  -1  -4   0 1303.77 77.0391  16
  -1  -4   0 1234.52 108.458   7
   1   4   0 1303.57 75.5674  15
   1  -4   0 1158.27 156.217   5
   1   4   0 1312.61 120.033  11
  -1  -4   0 1334.77 108.399   3
  -1  -4   0 1340.55 111.832   8
  -1  -4   0 1275.11 76.5532   2
   1   4   0 1294.54 78.2868   1
  -1  -4  -1 134.768 36.5315   3
  -1  -4  -1 181.185 42.7202   7
  -1   4  -1 173.947 28.4482   2
  -1  -4  -1 154.953 27.8292  16
   1   4   1 181.230 43.4087  14
   1  -4   1 151.177 38.7821   5
   1  -4   1 180.482 31.2206   1
  -1  -4  -1 170.565 38.5176   8
  -1   4  -1 166.224 41.9155  12
   1   4   1 154.088 37.5009   9
  -1   4  -1 165.043 38.0917  13
  -1  -4  -1 154.363 40.9609   6
   1  -4   1 182.815 43.2473   7
   1  -4   1 186.722 44.9953   8
   1   4   1 175.351 29.7632  15
  -1  -4  -1 168.404 26.5116   5
  -1   4  -1 163.504 40.6499   9
   1  -4   1 166.385 37.8230   4
  -1  -4  -2 3280.95 221.249   7
   1  -4   2 3480.98 191.003   7
  -1  -4  -2 3361.85 160.182  16
  -1   4  -2 3476.42 185.021  13
  -1   4  -2 3464.48 137.434   2
   1  -4   2 3517.50 201.373   5
  -1  -4  -2 3243.35 194.462   6
  -1   4  -2 3265.73 193.910  12
   1   4   2 3605.69 211.650   9
  -1  -4  -2 3505.05 201.517   3
   1   4   2 3128.40 150.765  15
  -1   4  -2 3213.76 142.183  16
  -1   4  -2 3323.79 180.699   9
   1  -4   2 3525.14 188.460   4
  -1  -4  -2 3501.49 138.673   5
  -1  -4  -2 3269.18 172.952   8
   1  -4   2 3397.67 140.356   1
   1  -4   2 3503.85 183.464   8
  -1   4  -3 862.159 65.1363  11
  -1   4  -3 881.901 100.268  13
  -1   4  -3 897.249 75.3142  16
   1  -4   3 845.203 70.0464  15
   1  -4   3 883.502 95.4934   7
   1  -4   3 872.097 98.8109   4
   1  -4   3 780.641 72.4471   1
   1  -4   3 875.991 102.929   5
  -1   4  -3 860.625 92.9511  10
  -1   4  -3 852.712 71.9460   2
   1  -4   3 845.282 67.6075   6
  -1   4  -3 863.758 92.0017   9
   1  -4   3 872.281 93.2374   8
  -1   4  -4 68.6790 18.2974  13
  -1   4  -4 64.9092 30.5880   2
   1  -4   4 76.0982 23.8452  15
   1  -4   4 47.7697 19.0938   5
   1  -4   4 101.143 21.5620   6
   1  -4   4 42.7344 20.5276   1
   1  -4   4 72.6471 31.4849   7
  -1   4  -4 81.4893 26.2293  16
  -1   4  -4 70.0830 29.0224  10
   1  -4   4 43.5447 23.6362   4
   1  -4   4 76.3324 28.2814   8
   1  -4   5 18.1155 12.0967   4
  -1   4  -5 1.08211 15.9408  16
   1  -4   5-19.4409 26.9633  15
  -1   4  -5 13.0221 27.5781  13
   1  -4   5 11.0113 0.92473   7
   1  -4   5 9.47150 14.7125   8
   1  -4   5-8.34036 14.5991   6
  -1   4  -5 12.1204 19.2448  10
   1  -4   5 7.21611 18.0948   5
  -1   4  -6 12.1971 20.0740  16
   1  -4   6 11.9195 9.02878  15
   1  -4   6 18.0468 24.8913   7
   1  -4   6 19.7369 24.0775   6
   1  -4   6-1.33533 20.9353   5
  -1  -5   3 402.815 60.3932   3
  -1  -5   3 346.712 70.1401   7
  -1  -5   3 416.883 72.9134   6
   1   5  -3 390.170 77.9756  10
  -1  -5   3 374.895 74.1983   8
   1   5  -2 309.360 58.2804  14
  -1  -5   2 376.605 63.7009   5
   1   5  -2 279.660 31.3946  13
   1   5  -2 283.339 57.1199  11
   1   5  -2 272.656 61.1273  10
  -1  -5   2 300.568 27.4518   2
  -1  -5   2 281.340 57.8201   6
  -1  -5   2 308.649 66.3096   7
   1   5  -2 290.389 28.5718   1
  -1  -5   2 273.013 48.9827   3
  -1  -5   2 256.470 58.5515   8
   1   5  -1 35.3195 20.6719  10
  -1  -5   1 36.8428 26.2366   8
   1   5  -1 56.8261 23.6605  11
   1   5  -1 51.1833 18.4135  14
   1   5  -1 64.4368 15.0700   1
  -1  -5   1 45.3737 18.2122   7
  -1  -5   1 55.6018 13.7124   2
  -1  -5   1 58.3732 25.4899   6
  -1  -5   1 62.5356 29.8555   3
  -1  -5   1 47.4431 18.2459   5
   1   5  -1 58.3439 21.1622  12
   1   5   0 3630.97 207.758   9
  -1  -5   0 3710.30 130.725  16
   1   5   0 3573.47 162.118  12
  -1  -5   0 3679.36 198.078   3
  -1  -5   0 3736.40 213.009   7
  -1  -5   0 3640.68 205.634   8
   1  -5   0 3025.45 302.785   5
   1   5   0 3731.76 220.317  11
   1   5   0 3819.93 198.243  14
  -1  -5   0 3771.14 221.621   6
   1   5   0 3562.69 122.706  15
  -1  -5   0 3741.00 169.019   5
  -1  -5  -1 24.8847 13.9172   7
  -1  -5  -1 40.3860 19.6580   6
   1   5   1 23.4032 7.20232  15
   1  -5   1 42.3198 31.6290   7
   1  -5   1-13.1989 17.7935   8
  -1   5  -1 33.0256 15.3030  12
   1  -5   1 27.4118 18.4816   4
  -1  -5  -1 33.8545 27.9362   3
  -1  -5  -1 8.21386 5.23422  16
  -1  -5  -1 12.0752 11.3833   8
  -1   5  -1 14.9168 10.5472   2
   1   5   1 30.1408 29.1757   9
  -1   5  -1 51.2675 29.9649   9
  -1  -5  -1 7.65023 5.14740   5
   1  -5   1 42.2797 34.9066   5
   1  -5   1 26.4711 12.2031   1
   1   5   1 34.0665 22.4774  14
  -1   5  -2 7265.42 284.949  13
  -1  -5  -2 7675.40 334.410   6
   1   5   2 7136.15 230.672  15
   1  -5   2 7378.26 204.207   1
   1  -5   2 7006.05 280.407   4
  -1   5  -2 7207.32 194.447   2
  -1  -5  -2 7066.08 333.111   3
   1  -5   2 7102.13 312.132   5
  -1   5  -2 7196.52 296.626   9
   1   5   2 7560.20 350.877   9
  -1  -5  -2 7354.52 242.834  16
  -1  -5  -2 7387.03 234.141   5
   1  -5   2 6904.73 291.945   8
  -1  -5  -2 6822.07 362.375   7
  -1  -5  -2 7237.49 297.174   8
   1  -5   2 7183.73 307.597   7
  -1   5  -3 7.66272 8.65006   2
   1  -5   3 24.7821 12.1745   7
   1  -5   3-6.88361 3.87332   6
  -1   5  -3 4.46703 13.4353  10
   1  -5   3 16.0558 20.8899   4
  -1   5  -3 14.7612 8.76135   9
  -1   5  -3 1.72346 19.0029  13
  -1   5  -3 2.45416 14.7614  12
  -1   5  -3 35.0906 17.1338  11
   1  -5   3 1.65889 15.5799  15
   1  -5   3 10.4001 13.2910   1
   1  -5   3 20.3252 28.9013   5
  -1   5  -3 15.2262 2.52915  16
   1  -5   3 0.34108 14.4882   8
  -1   5  -4 6106.08 282.905  10
   1  -5   4 6032.95 205.421  15
   1  -5   4 6031.10 210.815   6
   1  -5   4 6247.23 280.437   8
   1  -5   4 6021.79 285.274   7
   1  -5   4 6214.69 303.704   5
   1  -5   4 5958.00 283.058   4
   1  -5   5 469.087 62.2796  15
   1  -5   5 414.437 78.0572   7
  -1   5  -5 202.243 83.3897  13
  -1   5  -5 313.063 63.1314  16
   1  -5   5 510.551 59.0596   6
  -1   5  -5 533.661 91.1336  10
   1  -5   5 408.597 80.6171   5
   1  -5   5 529.275 90.0203   4
   1  -5   5 438.618 77.8619   8
   1  -5   6 303.075 69.4397   4
   1  -5   6 320.279 71.4697   7
   1  -5   6 380.094 65.5859  15
  -1   5  -6 133.624 63.2158  16
   1  -5   6 360.579 86.7058   5
   1  -5   6 349.749 53.7126   6
  -1  -6   4 2296.52 153.653   3
  -1  -6   4 2648.93 211.416   6
  -1  -6   4 3016.13 244.153   8
  -1  -6   4 2744.67 228.664   7
   1   6  -4 2703.24 240.929  10
  -1  -6   3 380.410 73.0720   8
  -1  -6   3 383.522 74.9135   7
   1   6  -3 416.161 49.6717  13
  -1  -6   3 423.493 75.1516   6
   1   6  -3 414.176 80.0535  11
  -1  -6   3 364.744 86.4207   5
  -1  -6   3 422.615 61.7345   3
   1   6  -3 398.281 77.3081  10
   1   6  -2 446.459 82.7046  10
   1   6  -2 404.202 66.6406  12
  -1  -6   2 366.935 73.0598   6
  -1  -6   2 394.535 62.4510   3
   1   6  -2 369.505 72.1984  11
  -1  -6   2 410.228 77.6742   7
   1   6  -2 422.546 65.5872  14
  -1  -6   2 394.938 67.6611   5
  -1  -6   2 362.052 70.9643   8
  -1  -6   1 1195.50 114.611   3
   1   6  -1 1187.14 133.500  11
   1   6  -1 1233.99 136.750   9
  -1  -6   1 1173.05 135.546   7
   1   6  -1 1173.70 111.339  12
  -1  -6   1 1284.22 140.722   6
   1   6  -1 1211.15 135.876  10
   1   6  -1 1179.39 112.342  14
  -1  -6   1 1227.63 134.424   8
  -1  -6   1 1173.37 109.865   5
  -1  -6   0 1254.08 108.247   5
   1   6   0 1283.28 75.9210  15
  -1  -6   0 1195.91 133.232   7
  -1  -6   0 1071.68 84.3299  16
  -1  -6   0 1272.04 122.456   3
   1   6   0 1260.07 119.931  14
  -1  -6   0 1213.56 131.188   8
   1   6   0 1181.14 131.822   9
  -1  -6   0 1285.35 143.475   6
   1   6   0 1196.77 106.550  12
   1   6   0 1252.20 141.124  11
  -1   6  -1 52.6684 28.3039  12
  -1  -6  -1 69.9484 25.3873   7
   1   6   1 38.6424 13.3455  15
   1  -6   1 76.2251 18.7327   1
   1   6   1 67.8706 27.9028  14
  -1  -6  -1 68.5931 30.5614   8
   1  -6   1 2.67605 19.4771   7
   1  -6   1 76.1654 40.3181   8
  -1  -6  -1 10.8676 13.3634   6
  -1  -6  -1 35.4879 18.8843   3
  -1   6  -1 61.4831 19.5137   2
   1   6   1 74.4823 32.1512   9
  -1  -6  -1 81.6359 21.3591  16
  -1  -6  -1 15.1049 11.4083   5
  -1   6  -1 44.8088 24.1368   9
   1  -6   1 45.4078 37.1579   5
   1  -6   1 72.6838 35.8755   4
   1   6   2 1793.45 120.537  15
   1  -6   2 1726.74 170.169   7
  -1   6  -2 2022.08 166.992  13
  -1  -6  -2 1393.94 193.212   7
  -1  -6  -2 1885.86 189.730   6
  -1  -6  -2 1820.76 127.648  16
  -1   6  -2 1766.03 131.406  11
  -1   6  -2 1868.02 169.070  12
  -1   6  -2 1773.61 94.1549   2
  -1   6  -2 1689.45 160.330   9
   1  -6   2 1690.22 164.237   5
   1  -6   2 1875.96 103.028   1
   1  -6   2 1765.24 163.208   8
  -1  -6  -2 1819.15 174.020   8
  -1  -6  -2 1745.28 130.807   5
   1  -6   2 1714.25 146.749   4
   1  -6   3-5.03013 28.8791   7
   1  -6   3 32.6586 18.0251   4
  -1   6  -3 19.1866 21.3239  13
  -1   6  -3-5.64235 28.0675  12
   1  -6   3 29.9453 26.8601   6
  -1   6  -3 18.2841 3.96689  11
  -1   6  -3-9.41864 21.2712  10
  -1   6  -3 58.3335 35.1651   9
   1  -6   3 22.6063 8.69212   5
   1  -6   3 59.7329 42.9313   1
  -1   6  -3 57.1107 25.3453   2
   1  -6   3 70.1794 37.7874   8
  -1   6  -4 43.2094 54.8051  13
   1  -6   4 124.078 41.7668   4
  -1   6  -4 54.5158 29.9467  16
   1  -6   4 170.457 50.1692   7
  -1   6  -4 85.2199 26.4746  12
   1  -6   4 149.908 36.3269   6
   1  -6   4 104.837 40.1018   5
  -1   6  -4 153.805 51.9434  10
   1  -6   4 154.511 41.3012   8
  -1   6  -4 137.862 45.2956   9
  -1   6  -5 55.4321 83.7093  12
   1  -6   5 368.759 50.7144  15
   1  -6   5 427.970 86.1853   7
  -1   6  -5 242.966 56.0000  16
   1  -6   5 385.672 82.5648   4
   1  -6   5 383.175 59.8759   6
  -1   6  -5 462.222 89.2571  10
   1  -6   5 341.698 76.1763   5
  -1   6  -5 270.389 80.6552   9
  -1   6  -5 79.1589 86.5953  13
   1  -6   5 367.780 77.7673   8
   1  -6   6 153.027 57.9339   5
   1  -6   6 120.047 34.6266   6
   1  -6   6 138.455 53.3228   7
  -1   6  -6 14.3133 70.2417  13
   1  -6   6 199.765 47.1586  15
  -1   6  -6 145.590 53.9423  10
   1  -6   6 159.246 49.7772   8
   1  -6   6 184.047 58.9443   4
   1  -6   7 17.2427 42.5871  15
  -1   6  -7 19.0061 85.1786  13
   1  -6   7 13.3821 45.4424   7
   1  -6   7 86.2525 69.8168   5
   1   7  -4 43.7295 21.8909  10
  -1  -7   4 72.8141 23.8044   3
  -1  -7   4 121.229 41.1381   6
  -1  -7   4 34.8352 19.5578   7
  -1  -7   4 82.0017 44.5875   8
   1   7  -3 342.596 79.0335  10
   1   7  -3 414.738 77.9025  12
  -1  -7   3 557.506 106.802   5
  -1  -7   3 381.244 84.4111   7
   1   7  -3 507.044 98.0339  11
  -1  -7   3 411.348 64.4875   3
  -1  -7   3 409.024 86.9361   8
  -1  -7   3 504.834 92.6385   6
   1   7  -2 53.6972 32.4467  12
  -1  -7   2 8.51887 23.0191   3
  -1  -7   2 67.7915 43.4605   7
   1   7  -2 48.4296 17.7388  14
   1   7  -2-11.2403 37.0317  10
  -1  -7   2 97.9984 49.0670   6
   1   7  -2 42.9745 33.6266  11
  -1  -7   2 11.8057 21.5471   5
   1   7  -2 61.9091 36.3362   9
  -1  -7   2 31.1892 32.7721   8
  -1  -7   1 86.3207 34.2015   6
   1   7  -1 98.7033 39.1569  14
   1   7  -1 10.9360 12.8183  10
   1   7  -1 91.3171 34.5847  12
  -1  -7   1 75.7427 33.6892   3
   1   7  -1 77.0700 41.4038  11
   1   7  -1 79.2244 34.7514   9
  -1  -7   1 62.9371 22.5816   5
  -1  -7   1 67.6290 35.5940   7
  -1  -7   1 96.1414 44.2783   8
  -1  -7   0 713.158 112.987   6
  -1  -7   0 684.091 95.8296   3
  -1  -7   0 665.771 109.152   7
   1   7   0 688.448 110.477  11
  -1  -7   0 614.838 83.3119   5
   1   7   0 617.246 90.0951  14
   1   7   0 644.520 105.469   9
  -1  -7   0 639.922 106.476   8
   1  -7   1 82.1789 40.1034   4
  -1   7  -1 112.574 48.3691   9
  -1  -7  -1 71.8791 36.8223   6
   1  -7   1 141.411 70.8540   7
   1   7   1 100.111 39.0541  14
   1  -7   1 127.181 50.4543   8
  -1  -7  -1 103.260 50.1367   7
   1   7   1 103.175 44.0262   9
  -1  -7  -1 113.100 23.2342  16
  -1  -7  -1 94.1408 37.1024   8
  -1  -7  -1 118.630 32.2639   5
   1  -7   1 163.829 56.8785   5
  -1  -7  -2 374.139 96.8340   8
   1   7   2 482.682 96.5229  14
   1  -7   2 457.788 96.9793   7
  -1  -7  -2 438.243 110.134   6
  -1   7  -2 434.171 69.9236  11
  -1  -7  -2 473.907 72.7044  16
   1  -7   2 384.023 83.3745   8
  -1  -7  -2 371.962 73.7339   5
  -1   7  -2 409.242 84.5405  12
   1  -7   2 473.524 78.9407   4
   1   7   2 563.343 73.0991  15
  -1   7  -2 469.655 93.7969   9
   1  -7   2 526.769 99.2091   5
   1  -7   3 382.567 90.9159   7
   1  -7   3 396.998 76.0636   4
   1  -7   3 388.586 85.0194   5
  -1   7  -3 312.566 74.3853  12
  -1   7  -3 362.012 60.6064  11
  -1   7  -3 364.463 74.3476  13
  -1   7  -3 289.193 70.1004   9
   1  -7   3 323.282 80.0141   8
  -1   7  -3 341.809 77.1211  10
  -1   7  -4 187.762 51.9431  13
   1  -7   4 136.158 50.3947   7
   1  -7   4 148.120 44.1928   4
   1  -7   4 171.671 40.3276   6
   1  -7   4 188.094 62.4718   8
  -1   7  -4 7.45905 65.1350  12
  -1   7  -4 186.079 47.6710  11
  -1   7  -4 131.036 62.6691   9
   1  -7   4 194.336 66.7036   5
  -1   7  -4 190.137 60.6570  10
   1  -7   5 252.962 66.0154   4
   1  -7   5 183.109 56.2640   7
   1  -7   5 217.760 45.3422   6
  -1   7  -5 4.53413 66.9944  12
   1  -7   5 222.287 63.5926   8
   1  -7   5 139.039 47.0084   5
  -1   7  -5 211.890 78.1954   9
  -1   7  -5 269.289 69.8097  10
  -1   7  -5 249.164 68.3241  13
   1  -7   6 105.654 37.6242   7
  -1   7  -6 40.1307 58.1713  13
  -1   7  -6 89.1536 55.8836  10
   1  -7   6 114.769 48.1959   8
   1  -7   6 143.345 68.1851   5
  -1   7  -6 0.97188 33.0080  12
  -1   7  -6 110.742 56.2994   9
   1  -7   6 65.8638 36.0573   4
  -1   7  -7 105.803 234.971  13
   1  -7   7 1015.80 160.508   7
   1  -7   7 1264.41 205.943   5
  -1   7  -7 58.0311 211.135  12
  -1  -8   5 1801.19 246.204   6
  -1  -8   5 1732.53 234.981   7
  -1  -8   5 1684.84 232.394   8
  -1  -8   4 204.602 69.9347   7
   1   8  -4 199.913 67.4572  10
   1   8  -4 171.204 56.6136  12
  -1  -8   4 159.168 45.5884   3
  -1  -8   4 187.781 73.5348   6
  -1  -8   4 159.504 58.8638   8
  -1  -8   3 1364.43 173.187   7
  -1  -8   3 1583.14 189.588   5
  -1  -8   3 1286.32 166.360   6
   1   8  -3 1421.84 158.510  12
  -1  -8   3 1391.57 140.323   3
   1   8  -3 1254.24 169.431  10
   1   8  -3 1329.95 162.327  11
   1   8  -3 1425.15 179.066   9
  -1  -8   3 1353.15 169.363   8
  -1  -8   2 573.881 112.429   7
   1   8  -2 601.744 105.236  14
  -1  -8   2 537.361 94.6546   5
   1   8  -2 614.557 114.037   9
   1   8  -2 545.153 91.6633  12
  -1  -8   2 576.449 105.549   6
   1   8  -2 554.914 106.914  11
   1   8  -2 670.145 120.668  10
  -1  -8   2 548.444 84.3574   3
  -1  -8   2 571.514 108.293   8
  -1  -8   1 1197.68 134.410   3
  -1  -8   1 948.877 113.743   5
   1   8  -1 881.725 133.095  11
   1   8  -1 1023.46 118.048  14
   1   8  -1 979.940 137.680  10
  -1  -8   1 1106.02 150.990   7
  -1  -8   1 973.116 135.482   6
   1   8  -1 1082.12 142.119   9
  -1  -8   1 909.965 132.307   8
   1   8  -1 1077.95 123.618  12
  -1  -8   0-8.17171 43.3926   7
  -1  -8   0 45.0668 21.8433   6
  -1  -8   0 53.6964 32.4860   8
   1   8   0-40.4231 26.0200  11
   1   8   0 19.2162 18.0746  10
  -1  -8   0-47.8554 27.0161   5
   1   8   0 81.2861 51.6287   9
   1   8   0 5.68537 15.5087  14
   1   8   1 150.413 49.5004  14
  -1  -8  -1 239.920 76.0284   8
   1   8   1 129.757 58.0925  11
  -1  -8  -1 248.655 79.4252   6
   1  -8   1 133.665 69.6899   4
  -1  -8  -1 162.381 45.3954   5
  -1  -8  -1 284.575 94.3817   7
   1   8   1 226.073 75.1420   9
   1  -8   1 146.240 56.0054   5
   1  -8   1 199.264 64.5574   8
   1  -8   2 12.1882 16.2491   8
  -1   8  -2-18.0316 26.9837  12
   1  -8   2-72.1476 58.0607   7
  -1  -8  -2 30.3113 35.4294   8
   1  -8   2 7.98638 23.6583   4
  -1   8  -2 33.0729 37.6730  11
  -1   8  -2-4.02296 38.9243   9
   1  -8   2-45.2601 47.1283   5
  -1   8  -3 431.588 95.0529  10
  -1   8  -3 500.378 83.9770  11
  -1   8  -3 505.562 119.942   9
  -1   8  -3 479.355 100.055  12
   1  -8   3 423.207 98.0149   7
   1  -8   3 434.754 97.7064   5
  -1   8  -3 379.490 102.539  13
   1  -8   3 529.002 98.0762   4
   1  -8   3 551.461 111.632   8
   1  -8   4 124.342 55.8760   4
   1  -8   4 34.7422 32.9208   7
   1  -8   4 26.7407 73.1991   6
  -1   8  -4 98.8364 41.3065  12
  -1   8  -4 15.1736 26.4743   9
  -1   8  -4 6.65086 28.5883  10
   1  -8   4 48.1556 39.6031   5
   1  -8   4 75.2077 42.5929   8
  -1   8  -4 81.5965 41.0159  13
   1  -8   5 22.1094 17.9318   4
   1  -8   5-18.8247 45.1030   7
   1  -8   5 101.849 37.9497   8
  -1   8  -5 90.0625 42.1556  13
  -1   8  -5 0.15811 38.3174  12
   1  -8   5 51.3528 37.8511   5
  -1   8  -5-38.0062 50.6566   9
  -1   8  -5 49.5994 35.8010  10
   1  -8   6 336.949 94.5708   7
  -1   8  -6 325.823 80.7553  13
  -1   8  -6 12.3833 84.6399  12
   1  -8   6 244.962 83.2111   5
  -1   8  -6 271.079 83.6549  10
   1  -8   6 358.061 92.1357   8
  -1   8  -6 224.910 72.6139   9
   1  -8   6 126.876 49.5007   4
   1  -8   7 337.406 87.5029   7
  -1   8  -7 386.728 119.787   9
  -1   8  -7 82.0219 107.166  13
   1  -8   7 355.578 113.871   5
  -1  -9   5 200.701 83.7829   7
   1   9  -5 86.2319 36.5748  12
  -1  -9   5 182.659 73.8179   6
   1   9  -5 122.256 53.2846  10
  -1  -9   5 175.719 64.8708   8
  -1  -9   4 455.711 103.558   7
  -1  -9   4 446.846 101.057   6
   1   9  -4 367.984 93.2279  12
   1   9  -4 397.570 108.144  10
   1   9  -4 461.134 104.012   9
  -1  -9   4 431.528 108.217   8
  -1  -9   3 167.431 45.5075   7
  -1  -9   3 218.658 65.9092   6
   1   9  -3 192.198 69.1151  12
   1   9  -3 298.041 87.6197  11
  -1  -9   3 218.456 68.7251   5
   1   9  -3 247.745 80.0916   9
   1   9  -3 218.099 76.5326  10
  -1  -9   3 162.583 66.4025   8
  -1  -9   2 1344.90 184.476   7
  -1  -9   2 1172.06 166.785   6
   1   9  -2 1203.83 146.764  12
  -1  -9   2 1203.14 148.288   5
   1   9  -2 1299.92 174.151  11
  -1  -9   2 1234.07 166.795   8
   1   9  -2 1210.98 168.104  10
   1   9  -2 1160.50 163.242   9
  -1  -9   1 708.082 136.494   6
  -1  -9   1 802.839 142.782   7
   1   9  -1 786.538 129.783  11
  -1  -9   1 727.980 113.825   5
   1   9  -1 755.692 133.926  10
   1   9  -1 630.340 118.318   9
  -1  -9   1 630.742 118.809   8
  -1  -9   0 1637.58 208.769   6
   1   9   0 1726.13 186.889  14
   1   9   0 1285.00 177.842  11
  -1  -9   0 1447.48 194.219   7
  -1  -9   0 1256.22 157.411   5
   1   9   0 1485.16 192.190  10
   1   9   0 1426.65 184.361   9
  -1  -9   0 1496.58 193.968   8
  -1  -9  -1 57.4637 45.3674   8
  -1  -9  -1 41.2427 47.0882   7
  -1  -9  -1 33.9338 54.0301   6
   1   9   1-1.56550 33.5760  14
   1   9   1 41.5933 39.4463  11
  -1  -9  -1 55.9188 62.1931   5
   1  -9   2 1636.38 244.865   7
  -1   9  -2 1636.73 180.679  11
   1  -9   2 1737.35 241.090   5
  -1   9  -2 1687.81 232.791   9
   1  -9   2 1850.34 242.939   8
   1  -9   2 1567.04 196.026   4
   1  -9   3 182.121 64.8500   4
   1  -9   3 231.530 82.3101   7
  -1   9  -3 175.069 65.3382  12
   1  -9   3 183.413 66.9771   5
  -1   9  -3 162.884 63.3253  10
  -1   9  -3 112.622 50.5138   9
   1  -9   3 216.688 77.2204   8
  -1   9  -4 185.897 67.8373  10
  -1   9  -4 306.965 85.2445  12
   1  -9   4 195.521 62.6876   4
  -1   9  -4 150.135 58.6661  13
   1  -9   4 209.941 70.7446   5
  -1   9  -4 190.544 65.4100   9
   1  -9   4 270.432 85.9921   7
   1  -9   4 215.921 67.3203   8
   1  -9   5 37.0669 38.3783   7
   1  -9   5 120.475 61.3257   4
  -1   9  -5 3.63465 52.2973  12
  -1   9  -5 202.539 70.6580  13
  -1   9  -5 26.8433 12.5750  10
   1  -9   5 94.3175 67.0420   5
   1  -9   5 37.4874 31.8520   8
  -1   9  -5 47.3771 22.5760   9
  -1   9  -6-9.47716 44.5499  12
   1  -9   6-49.6027 60.6393   7
   1  -9   6-52.8196 61.0546   5
  -1   9  -6 39.3481 19.7343  10
  -1   9  -6-2.02387 14.9680  13
   1  -9   6 52.1513 44.0155   8
  -1   9  -6 52.2322 22.5692   9
   1  -9   7 177.154 73.5011   7
   1  -9   7 320.623 118.317   5
  -1   9  -7 9.05776 76.2091  12
  -1   9  -7 258.431 116.089   9
   1  -9   7 102.066 28.4247   8
  -1 -10   5-41.7347 31.9220   7
  -1 -10   5 4.98286 87.9364   6
   1  10  -5-9.04082 18.4295  12
   1  10  -5-26.3672 49.0544  10
   1  10  -5 19.3797 47.8881   9
  -1 -10   5 34.6950 72.2233   8
  -1 -10   4 560.583 128.624   7
  -1 -10   4 518.207 128.433   6
   1  10  -4 479.153 99.4523  12
   1  10  -4 511.776 125.925  10
   1  10  -4 451.441 106.936   9
  -1 -10   4 542.300 122.952   8
  -1 -10   3 123.303 71.8219   7
   1  10  -3 112.670 48.0326  12
  -1 -10   3 189.626 82.9137   5
  -1 -10   3 138.463 61.3225   6
   1  10  -3 127.458 60.8449  11
   1  10  -3 134.965 62.4835  10
   1  10  -3 135.516 74.4468   9
  -1 -10   3 97.2098 67.3300   8
  -1 -10   2 38.2290 26.0383   8
  -1 -10   2 46.2513 47.1153   5
  -1 -10   2 27.9312 47.0866   6
  -1 -10   2 5.73190 21.9729   7
   1  10  -2 2.69430 15.2935  11
   1  10  -2 35.3838 35.4406   9
   1  10  -2 30.3853 19.5354  10
  -1 -10   1 317.429 86.1211   7
   1  10  -1 214.384 77.0455  10
  -1 -10   1 266.932 75.5022   8
   1  10  -1 267.691 76.2438  11
  -1 -10   1 223.185 85.1009   5
   1  10  -1 282.646 89.1232   9
  -1 -10   1 217.834 77.1072   6
  -1 -10   0 51.9209 48.0674   7
  -1 -10   0-43.9438 23.7710   6
   1  10   0 19.0040 24.0003  11
   1  10   0 36.5411 41.3124  10
   1  10   0-24.9673 53.4287   9
  -1 -10   0 40.4743 34.7974   8
   1 -10   2 117.746 73.7111   8
  -1  10  -2 157.395 117.654  10
   1 -10   2 65.4114 78.0106   5
   1 -10   3 6.13273 48.1185   7
  -1  10  -3 36.2619 37.5566  10
   1 -10   3 18.5632 12.3709   5
  -1  10  -3-17.8084 8.16806   9
   1 -10   3 38.4071 18.7765   8
   1 -10   4-61.2083 59.9451   7
  -1  10  -4-31.0037 52.2507  10
  -1  10  -4 15.4190 32.4178  12
  -1  10  -4 72.5510 60.5578   9
   1 -10   4-36.5458 37.1165   5
   1 -10   4 25.8597 37.0262   8
   1 -10   5 592.913 128.104   7
  -1  10  -5 596.114 124.606  10
   1 -10   5 537.446 125.682   5
  -1  10  -5 683.603 134.440   9
   1 -10   5 699.742 140.647   8
  -1  10  -6 99.9736 55.2193   9
  -1  10  -6 0.43515 73.0204  12
   1 -10   6 78.7316 39.3174   5
  -1  10  -6 84.1023 54.0087  10
   1 -10   6 97.6894 47.6915   7
   1 -10   6 164.646 72.1837   8
   1 -10   7-63.4359 84.2003   7
  -1  10  -7 3.72578 85.8739  12
   1 -10   7-90.0022 78.0790   5
  -1  10  -7-30.2026 63.6572   9
   1 -10   7 6.20944 11.6949   8
  -1 -11   5 82.1763 51.9652   7
   1  11  -5 230.215 110.642  10
   1  11  -5 121.849 77.7729   9
  -1 -11   5 254.866 106.392   8
  -1 -11   4 42.5897 30.5697   7
  -1 -11   4 18.7643 18.8559   6
   1  11  -4 47.2825 4.92509  12
   1  11  -4-4.93270 48.8394  10
   1  11  -4 114.444 89.3190   9
  -1 -11   4 53.0276 37.9635   8
  -1 -11   3 5.47319 11.2267   5
  -1 -11   3 100.454 73.2225   6
   1  11  -3 78.3715 51.8297  11
  -1 -11   3 16.2575 19.1514   7
   1  11  -3 48.2583 39.6556  10
   1  11  -3 0.63217 10.0518   9
  -1 -11   3-20.7049 10.6894   8
  -1 -11   2 133.683 86.2311   6
   1  11  -2 104.450 53.3240  11
  -1 -11   2 136.176 46.0052   7
   1  11  -2 87.7132 51.2228   9
   1  11  -2 74.7765 47.4530  10
  -1 -11   2 163.553 71.0695   8
  -1 -11   1 49.4672 59.6932   6
  -1 -11   1 31.0566 46.1622   7
   1  11  -1 37.3723 53.2551  11
   1  11  -1 48.7120 44.2285   9
  -1 -11   1 51.8978 44.0217   8
   1  11   0-22.1042 22.5290  11
   1  11   0 76.6425 67.8935  10
  -1 -11   0 12.7265 64.5786   8
  -1  11  -3 98.1459 23.3493  10
   1 -11   3 55.3704 43.1540   5
   1 -11   4 13.6401 113.734   7
  -1  11  -4-34.9284 26.3437  10
   1 -11   4-112.102 88.0286   5
  -1  11  -4-69.6957 24.4959   9
   1 -11   4-88.5591 87.5879   8
  -1  11  -5 2.20296 70.3941  12
   1 -11   5-10.1194 27.1331   7
  -1  11  -5 24.3663 11.0072  10
   1 -11   5 3.18212 43.0002   5
  -1  11  -5 2.94892 40.8179   9
   1 -11   5 58.7225 40.2317   8
  -2   0  -1 0.52598 11.5232  16
   2   0   1-20.7016 17.4180  15
   2   0   1-4.25528 4.06253   4
   2   0   1-8.93706 8.67145  14
  -2   0  -1 9.21658 7.13465   6
   2   0   1-3.62050 12.3599   1
  -2   0  -1-6.31286 13.5561  13
   2   0   1 13.1877 11.2303   5
  -2   0  -1 3.49060 7.12975   2
  -2   0  -1 6.09632 5.73753   3
   2   0   2 10969.4 332.982  15
   2   0   2 10656.0 335.041   1
  -2   0  -2 10863.7 229.317   6
  -2   0  -2 11142.1 333.156   2
  -2   0  -2 10587.9 313.978  13
  -2   0  -2 10959.7 307.012   3
   2   0   2 10902.9 238.667   5
   2   0   2 11274.8 316.016  14
  -2   0  -2 10873.3 335.770  16
   2   0   2 10504.3 307.206   4
  -2   0  -3 10.5091 16.4607  13
   2   0   3-5.06107 25.8269  15
   2   0   3 20.7997 22.7565   4
  -2   0  -3 54.6191 36.8980  16
  -2   0  -3 35.5662 22.3347  12
   2   0   3 25.2995 14.2981  11
  -2   0  -3 77.9228 36.3093   2
  -2   0  -3 48.4681 27.7582   3
   2   0   3 14.9410 12.2411   5
   2   0   3 25.1719 21.9180   1
  -2   0  -3 52.7951 20.3366   6
   2   0   3 25.9909 21.2974  14
   2   0   4 4199.52 208.164  14
  -2   0  -4 4271.18 213.447   3
  -2   0  -4 4331.65 219.919  13
  -2   0  -4 4160.33 172.909  12
  -2   0  -4 4363.33 233.277  16
   2   0   4 4167.95 224.547  15
   2   0   4 4247.19 149.273  11
   2   0   4 3915.50 226.709   5
   2   0   4 4409.62 226.344   4
  -2   0  -4 4287.68 226.755   2
   2   0   4 4219.27 232.059   1
  -2   0  -5 0.58670 28.9652   2
   2   0   5 6.00222 11.7576   4
   2   0   5-23.0650 24.5760  15
   2   0   5-26.3515 20.8195   1
  -2   0  -5-20.4406 29.8993  16
   2   0   6 1648.59 164.120  15
  -2   0  -6 1081.25 149.045  16
   2   0   6 1637.18 180.780   1
  -2   0  -6 1140.02 154.402   2
  -2  -1   0 4126.63 200.525   2
   2   1   0 4204.04 203.130  15
   2   1   0 4260.03 211.639  14
  -2  -1   0 4455.70 210.839   3
  -2  -1   0 3496.72 177.669   6
   2   1   0 4104.02 202.373   1
  -2  -1   0 3942.19 203.944  16
   2   1   0 4015.37 179.387   4
   2  -1   1 594.521 74.9591  15
   2   1   1 585.345 74.4638  14
   2   1   1 624.812 75.3574  15
  -2   1  -1 636.790 81.3956  16
  -2  -1  -1 551.596 71.6925   2
  -2  -1  -1 598.331 64.4023   6
   2   1   1 546.877 72.6927   1
   2  -1   1 566.663 74.9687   1
  -2  -1  -1 598.725 76.3979  16
  -2  -1  -1 571.102 68.0221  13
  -2  -1  -1 568.775 74.0268   3
  -2   1  -1 643.542 68.5832   3
  -2   1  -1 641.816 85.2162  13
  -2  -1  -1 582.103 40.2771   7
   2   1   1 599.581 43.4299   5
   2  -1   1 701.886 77.9321   5
  -2   1  -1 613.169 77.2879   2
   2   1   1 555.651 61.8905   4
   2  -1   1 575.677 78.2300   4
  -2  -1  -2 18.7671 15.1066  16
   2  -1   2-25.2536 25.7469  15
   2   1   2-8.93529 7.67362  14
   2   1   2 16.9396 10.7710   1
   2   1   2-2.36623 8.62804   4
  -2  -1  -2-8.32141 14.0310  13
  -2   1  -2-31.2259 44.1736  16
  -2   1  -2-17.8093 14.9436  13
  -2  -1  -2-28.7830 21.3816   6
  -2   1  -2-4.11652 2.17427   6
  -2   1  -2 2.58461 11.6147  12
   2   1   2 10.5708 16.0601  15
   2   1   2 0.04596 16.0921  11
   2  -1   2-2.92672 4.04405   8
  -2  -1  -2 13.4881 11.0713   2
   2   1   2-6.06340 1.06519   5
  -2   1  -2-31.5050 26.0280   2
  -2  -1  -2 12.2885 4.92479   3
   2  -1   2-8.09151 16.1728   1
  -2   1  -2 22.2176 12.6578   3
   2  -1   2-0.97572 8.66840   5
   2  -1   2-3.81763 14.6236  14
   2  -1   2-10.5614 16.7612   4
  -2   1  -3 640.504 87.9460  16
   2  -1   3 670.080 73.8671   5
   2  -1   3 679.067 75.3445  14
   2   1   3 716.222 92.1090  15
   2   1   3 578.237 84.0119   1
  -2  -1  -3 598.322 84.3862  16
  -2  -1  -3 589.280 79.3818  13
  -2   1  -3 658.229 89.6552  13
  -2   1  -3 724.478 79.6982   3
  -2   1  -3 621.266 73.0572  12
   2  -1   3 674.510 85.8054  15
  -2  -1  -3 675.193 88.5160   3
   2   1   3 631.650 68.2535  11
   2  -1   3 654.366 89.6191   1
  -2  -1  -3 619.751 68.8533   6
   2   1   3 641.157 86.4459  14
  -2  -1  -3 569.511 48.2667  12
   2   1   3 635.930 79.5668   4
   2  -1   3 654.621 86.2085   4
  -2  -1  -3 554.464 76.7016   2
  -2   1  -3 711.549 92.0549   2
   2  -1   4 2858.67 192.251   1
  -2   1  -4 2889.30 191.074  16
  -2  -1  -4 2911.10 188.506   3
   2   1   4 2932.76 188.051  14
   2  -1   4 2952.93 187.453  15
   2  -1   4 3076.41 167.296  14
  -2   1  -4 2923.04 164.326   3
  -2   1  -4 2958.55 165.714  12
  -2   1  -4 2760.11 186.276  13
  -2  -1  -4 2722.89 193.393  16
   2  -1   4 2837.22 155.996   5
   2  -1   4 2839.04 128.149   7
  -2  -1  -4 2903.69 173.762  13
   2   1   4 2911.63 190.363  15
   2   1   4 2896.20 181.518   4
   2  -1   4 2952.92 193.124   4
  -2   1  -4 2963.83 188.462   2
   2   1   4 2975.47 197.349   1
  -2  -1  -4 2899.38 189.188   2
  -2   1  -5 34.9358 17.7785  16
  -2  -1  -5 39.3562 6.16669   2
   2  -1   5 35.5974 10.0430  15
   2  -1   5 34.9268 10.2486   7
  -2   1  -5 49.8667 14.3585  13
  -2  -1  -5 85.8119 43.1395  16
   2  -1   5 51.6535 11.6755  11
   2   1   5 82.4656 47.0565  15
   2  -1   5 42.7383 20.8559   5
   2  -1   5 56.3032 24.8768   4
  -2   1  -5 59.6015 25.6308   2
   2   1   5 45.3626 10.1659   1
   2  -1   5 45.2676 22.6884  14
   2  -1   5 56.5693 31.9886   1
   2  -1   6 36.9267 23.2621   4
  -2   1  -6 55.8399 24.8017  16
   2  -1   6 68.9623 30.4176  15
  -2   1  -6 37.5200 24.4796   2
   2  -1   6 21.6014 14.2990   1
   2  -1   6 42.7390 13.1204   7
  -2  -2   0 9166.82 304.874  16
  -2  -2   0 9368.21 233.892   7
   2   2   0 9042.07 304.764  14
   2   2   0 9045.44 288.656   1
  -2  -2   0 9413.69 293.454   6
  -2  -2   0 9321.58 311.387   3
  -2  -2   0 9033.66 285.631   2
   2   2   0 9299.40 297.542  15
   2   2   0 9109.04 229.052   4
  -2  -2  -1 1258.81 111.598  16
   2   2   1 1297.12 109.961  15
  -2   2  -1 1416.04 132.078  13
  -2   2  -1 1375.50 120.135   2
  -2  -2  -1 1225.79 111.890   3
   2  -2   1 982.439 100.796  15
  -2  -2  -1 1266.10 74.8170   7
  -2  -2  -1 1297.94 106.630   6
   2  -2   1 1455.26 128.432   1
  -2  -2  -1 1165.37 103.282   2
  -2   2  -1 1177.98 90.2284   3
   2  -2   1 1464.67 128.242   5
   2   2   1 1265.14 110.482   1
   2   2   1 1300.85 108.367  11
  -2  -2  -1 1294.65 96.1811  13
  -2   2  -1 1046.84 105.974  16
   2   2   1 1268.71 114.337  14
   2   2   1 1206.92 84.4441   4
   2  -2   1 1583.49 141.752   4
  -2   2  -2 3978.70 203.922  16
  -2  -2  -2 3915.98 128.711   7
   2   2   2 3938.53 218.139  14
   2   2   2 4021.22 209.223  15
   2  -2   2 3820.47 196.202  15
   2  -2   2 3854.64 192.688   5
   2   2   2 3959.41 209.366   1
   2  -2   2 3590.62 196.125   1
  -2  -2  -2 3904.34 171.241  13
  -2  -2  -2 3900.45 214.506   3
  -2  -2  -2 3856.19 208.197  16
  -2   2  -2 3889.09 196.217  12
  -2   2  -2 3685.49 205.075  13
  -2  -2  -2 4081.33 195.298   6
   2   2   2 3786.70 186.823  11
  -2   2  -2 3831.35 153.517   3
  -2   2  -2 3739.05 193.732   2
   2   2   2 3795.95 125.808   9
   2  -2   2 3824.68 140.614   8
   2   2   2 3892.90 164.513   4
   2  -2   2 3795.78 208.108   4
  -2  -2  -2 3927.82 202.013   2
  -2   2  -3 4262.03 220.191  16
   2  -2   3 4070.77 211.574  15
   2  -2   3 4142.52 223.183   1
   2  -2   3 4115.00 166.065  14
  -2  -2  -3 4017.57 223.273   3
  -2  -2  -3 4159.75 187.137  13
  -2   2  -3 4032.69 166.919   3
  -2   2  -3 4055.79 226.383  13
   2   2   3 4055.04 226.187  14
  -2   2  -3 4101.25 209.096  12
   2   2   3 3910.42 191.802  11
   2  -2   3 4071.41 203.878   5
  -2   2  -3 4106.36 142.397  10
   2   2   3 4047.76 118.038  10
  -2  -2  -3 3896.03 219.189  16
  -2  -2  -3 4084.74 198.101   6
   2   2   3 4166.86 221.301  15
  -2  -2  -3 4104.78 118.661   8
   2  -2   3 4142.16 139.623   8
   2   2   3 3957.70 184.370   4
  -2  -2  -3 3810.85 208.567   2
   2  -2   3 4167.85 228.708   4
  -2   2  -3 4252.30 215.741   2
   2   2   3 4050.60 221.528   1
  -2   2  -4 2648.53 182.840  16
   2  -2   4 2590.01 176.988  15
   2   2   4 2659.38 191.985  14
   2   2   4 2589.39 184.824  15
  -2   2  -4 2645.29 149.458   3
  -2  -2  -4 2552.99 183.752   3
  -2   2  -4 2580.90 186.586  13
  -2  -2  -4 2535.44 189.617  16
  -2   2  -4 2538.34 168.530  12
   2  -2   4 2543.97 120.484   7
   2  -2   4 2547.89 165.510   5
   2  -2   4 2616.09 139.485  14
   2  -2   4 2625.02 186.553   1
  -2   2  -4 2501.87 119.500   9
  -2  -2  -4 2731.59 192.537   2
  -2  -2  -4 2515.56 95.5944   8
   2   2   4 2633.44 191.358   1
   2  -2   4 2549.39 187.924   4
  -2   2  -4 2657.95 179.489   2
   2  -2   5 339.682 76.0796   1
   2  -2   5 353.540 70.4283   4
  -2   2  -5 372.691 74.4233  16
   2  -2   5 369.519 56.8632  14
   2  -2   5 344.685 46.4553   7
  -2   2  -5 392.400 77.3915   2
  -2   2  -5 332.290 69.9494  13
   2   2   5 341.347 82.4699   1
  -2  -2  -5 290.099 75.0087  16
  -2  -2  -5 247.687 65.8998   2
   2  -2   5 386.954 66.2880   5
  -2   2  -5 409.011 50.3761   9
   2  -2   5 324.639 62.5896  15
   2   2   5 477.980 90.8882  15
  -2   2  -6 753.664 110.772  16
   2  -2   6 659.217 80.6031  14
   2  -2   6 668.531 68.3078   7
   2  -2   6 634.415 95.1854  15
  -2   2  -6 738.755 114.730  13
   2  -2   6 562.279 122.285   5
  -2   2  -6 723.435 115.546   2
   2  -2   6 702.429 115.951   1
   2  -2   6 615.593 104.096   4
   2  -2   7 1029.21 85.0683   7
   2  -2   7 1055.68 122.731  15
   2   3  -1 3284.16 179.539   1
  -2  -3   1 3319.13 180.740   2
  -2  -3   1 2960.74 163.819   7
   2   3  -1 3317.32 209.552  14
  -2  -3   1 3443.03 207.734   6
  -2  -3   1 3308.81 206.172   3
   2   3   0 440.180 66.0558  15
  -2  -3   0 504.815 73.1739  16
   2   3   0 412.591 70.1234  14
   2   3   0 401.745 58.2004   1
  -2  -3   0 404.196 65.8258   6
  -2  -3   0 409.457 68.1826   3
  -2  -3   0 428.540 55.0085   7
   2   3   0 484.849 76.4554  11
  -2  -3   0 423.151 61.3396   2
   2   3   0 401.450 40.0379   4
  -2  -3  -1 57.3660 17.0784  16
   2   3   1 73.4115 26.9348  14
  -2  -3  -1 81.3873 22.0002   7
  -2   3  -1 62.8322 23.1670  13
  -2  -3  -1 75.9312 22.9694   6
   2  -3   1 101.582 39.3632   4
   2   3   1 83.3460 18.9137   4
   2   3   1 81.0044 28.3905  11
   2  -3   1 60.4277 18.5557   1
  -2  -3  -1 92.8602 19.3804   2
   2   3   1 106.176 31.4669  15
   2   3   1 97.4689 24.3589  10
  -2  -3  -1 64.6375 27.0671   3
  -2   3  -1 59.6933 23.8586   2
   2  -3   1 59.3586 30.3874   5
   2   3   1 115.765 31.5845   1
  -2  -3  -1 98.9180 26.6088   8
  -2  -3  -2 571.066 79.0934  16
  -2  -3  -2 521.286 81.0929   3
  -2   3  -2 548.044 78.2249  16
   2   3   2 574.331 78.1644  15
   2  -3   2 505.631 73.4844  15
   2   3   2 524.126 82.2498  14
   2   3   2 527.424 76.4018   1
  -2   3  -2 584.562 36.9048   6
  -2  -3  -2 621.267 82.5821   6
  -2  -3  -2 526.730 58.3058   7
  -2  -3  -2 520.983 56.4313  13
  -2   3  -2 504.069 82.0600  13
  -2   3  -2 557.517 52.2020   3
  -2   3  -2 548.716 80.6593  12
   2   3   2 534.439 78.6619  11
   2  -3   2 567.079 83.0585   5
  -2   3  -2 520.965 71.4225   2
   2   3   2 530.107 56.3986  10
   2   3   2 547.553 59.4982   9
   2  -3   2 484.887 71.3849   1
  -2  -3  -2 527.734 56.5490   8
   2   3   2 544.525 62.2880   4
   2  -3   2 528.895 62.6509   8
  -2  -3  -2 565.153 76.6952   2
   2  -3   2 553.650 84.4195   4
   2  -3   3 5.71992 10.3144   8
  -2  -3  -3 31.0110 16.2079   8
  -2  -3  -3 27.6020 8.86961  16
   2  -3   3 15.9711 18.2425  15
   2   3   3 6.22380 9.48331   1
   2   3   3-20.5363 31.3608  15
   2  -3   3 26.7444 20.6461   4
   2   3   3 22.6738 12.1393  14
  -2  -3  -3 13.0212 5.97808   2
  -2  -3  -3-1.86621 5.76806  13
  -2  -3  -3 10.6756 7.83451   6
  -2   3  -3 17.0128 20.1876  12
  -2   3  -3 12.4987 14.0257  13
  -2  -3  -3 14.7038 14.7221   3
  -2   3  -3 5.54377 6.59604   3
   2  -3   3 20.0698 17.7682   1
  -2   3  -3 15.8882 0.88954   2
  -2   3  -3 15.8384 22.5033  16
   2  -3   3 10.3137 15.4012   5
   2  -3   4 1768.47 151.791   1
  -2   3  -4 1887.48 154.309  16
   2   3   4 1683.39 154.451  15
   2   3   4 1759.11 164.584  14
  -2  -3  -4 1789.63 163.248  16
   2  -3   4 1851.72 105.251  14
  -2  -3  -4 1714.27 160.149   3
  -2  -3  -4 1337.14 172.643   6
   2  -3   4 1738.26 121.447   7
   2  -3   4 1840.38 154.380   5
  -2   3  -4 1776.30 115.069  10
  -2   3  -4 1747.72 121.466   9
   2  -3   4 1733.06 144.926  15
  -2  -3  -4 2008.19 177.749   2
   2  -3   4 1721.01 111.633   8
   2   3   4 1890.75 173.285   1
  -2  -3  -4 1874.63 110.054   8
   2  -3   4 1678.59 162.782   4
  -2   3  -4 1765.27 147.926   2
  -2  -3  -5 74.8330 41.2927  16
   2  -3   5 133.614 49.5259   4
   2   3   5 186.628 62.9456  15
   2  -3   5 128.390 32.0977   7
   2  -3   5 153.486 31.1252  14
  -2   3  -5 188.707 56.2728   2
  -2   3  -5 54.8826 53.4066  13
  -2   3  -5 2.19523 42.7092  12
  -2   3  -5 125.882 40.1839  16
   2  -3   5 76.2645 32.9829   5
   2  -3   5 163.961 49.0554  15
  -2   3  -5 88.1171 34.5793   9
   2  -3   5 125.432 43.5395   1
  -2   3  -6 228.151 61.1608  16
   2  -3   6 174.630 55.0688   4
  -2   3  -6 251.105 64.4483   2
   2  -3   6 197.247 59.6614  15
   2  -3   6 173.785 40.5498   7
  -2   3  -6 13.9400 65.8239  13
   2  -3   6 149.486 46.3261   1
   2  -3   6 183.041 38.2562  14
   2  -3   6 171.747 53.3976   5
  -2   3  -7 227.204 107.943  16
   2  -3   7 683.530 79.3650  14
   2  -3   7 718.891 105.906  15
  -2   3  -7 79.9345 116.725  13
   2  -3   7 740.872 84.1793   7
   2  -3   7 715.079 120.702   4
  -2  -4   2 318.858 70.8224   6
  -2  -4   1 161.238 39.9358   7
   2   4  -1 203.973 52.7972  14
  -2  -4   1 173.950 46.4418   6
   2   4  -1 177.402 49.1973  11
  -2  -4   1 207.624 43.6659   2
  -2  -4   1 167.112 43.6344   3
   2   4  -1 198.134 43.9454   1
   2   4  -1 164.497 20.8235   4
  -2  -4   0 1471.90 115.175   2
  -2  -4   0 1559.98 127.335  16
   2   4   0 1499.54 119.723  15
   2   4   0 1473.56 115.202   1
   2   4   0 1455.38 138.165  14
  -2  -4   0 1513.06 140.044   6
  -2  -4   0 1355.75 130.566   3
  -2  -4   0 1440.69 117.858   7
   2   4   0 1511.58 72.4903  12
   2   4   0 1468.45 138.685  11
   2   4   0 1534.47 127.001  10
  -2  -4   0 1535.03 125.476   8
   2   4   0 1396.29 75.8771   4
  -2  -4  -1 8.91037 5.58667  16
   2   4   1 25.6938 26.1288  14
   2   4   1 21.0167 17.0847   1
  -2  -4  -1 16.8187 18.2397   7
   2   4   1 6.27946 14.2323  15
  -2  -4  -1 9.56769 13.4441   6
  -2  -4  -1 33.2953 22.5696   2
   2   4   1 34.1216 19.9881  10
   2   4   1 16.9394 21.7753  11
  -2  -4  -1-20.0000 30.6826   3
   2   4   1 9.23411 8.40248   9
   2  -4   1-7.31957 27.1195   4
   2  -4   1 58.3709 36.2084   5
  -2  -4  -1 18.7847 13.5743   8
   2  -4   2 58.4453 24.0682   1
  -2  -4  -2 98.1236 32.5376   7
   2  -4   2 72.9156 34.0471   4
   2   4   2 75.1124 38.3193  15
   2   4   2 82.5418 34.7748   1
  -2  -4  -2 56.7579 31.1982  16
   2   4   2 98.8748 41.9524  11
  -2  -4  -2 74.7651 28.3340   2
   2   4   2 52.0679 27.2269  14
  -2  -4  -2 84.0849 21.0701  13
  -2  -4  -2 111.875 41.9518   6
  -2   4  -2 1.13677 24.3868  12
  -2  -4  -2 105.062 42.1697   3
   2   4   2 97.0216 29.4222  10
  -2   4  -2 10.5496 36.8822  13
   2  -4   2 90.5711 33.0330   8
  -2   4  -2 66.6001 25.3835   2
  -2   4  -2 73.8013 14.2492   3
   2   4   2 73.4071 26.9525   9
   2  -4   2 77.2947 29.5139   5
  -2  -4  -2 91.6059 24.8465   8
  -2  -4  -3 548.471 81.9622  16
  -2   4  -3 281.197 77.8351  16
   2  -4   3 517.930 90.6772   7
   2  -4   3 597.357 84.8089   1
   2  -4   3 545.106 90.9434   5
   2   4   3 571.628 92.1771  14
  -2  -4  -3 523.688 85.8884   6
  -2  -4  -3 505.726 54.5644  13
  -2   4  -3 277.130 87.2639  13
  -2   4  -3 584.591 89.8507  12
  -2  -4  -3 476.202 82.0676   3
   2   4   3 524.978 74.1494  15
   2  -4   3 563.748 78.4968  15
  -2   4  -3 569.063 93.7561   9
  -2  -4  -3 635.861 95.1697   2
   2  -4   3 559.438 74.3573   8
  -2  -4  -3 500.659 67.1409   8
   2   4   3 602.261 90.0216   1
   2  -4   3 542.143 88.7947   4
  -2   4  -3 572.435 80.6053   2
  -2  -4  -4 2805.54 207.928  16
   2  -4   4 2655.43 183.501   1
   2   4   4 2778.28 198.576  15
   2  -4   4 2632.17 174.276   7
   2  -4   4 2536.46 167.389  15
   2   4   4 2702.02 213.405  14
  -2  -4  -4 2643.17 219.019   3
  -2  -4  -4 2270.91 241.712   6
  -2   4  -4 2634.22 161.808  10
  -2   4  -4 2549.03 168.431   9
   2  -4   4 2486.96 155.309   8
  -2  -4  -4 2638.54 159.086   8
   2  -4   4 2505.58 201.767   4
  -2   4  -4 2675.98 180.891   2
   2  -4   4 2731.86 205.102   5
   2  -4   5 31.5298 24.2457   4
   2  -4   5 6.55926 10.2092  15
  -2   4  -5-27.9202 22.2388   2
  -2   4  -5 16.4998 30.7133  13
  -2   4  -5 0.44424 21.7624  12
  -2   4  -5-0.71789 7.17863  16
  -2   4  -5 57.3057 32.4169  10
   2  -4   5 58.3598 20.2715   5
  -2   4  -5 22.6433 32.0831   9
   2  -4   5 16.7815 13.8006   7
   2  -4   5 51.8424 30.3757   8
   2  -4   5 35.0602 7.34530   1
  -2   4  -6 14.0909 68.2740  13
  -2   4  -6 18.0913 52.5505  16
   2  -4   6 141.284 52.6339   4
  -2   4  -6 150.325 53.8419   2
   2  -4   6 187.154 53.9353   7
   2  -4   6 87.0219 33.3214  15
  -2   4  -6 1.10851 56.7347  12
   2  -4   6 151.333 55.6617   1
   2  -4   6 134.447 53.8059   5
  -2   4  -6 95.1932 37.5422   9
   2  -4   7 264.297 68.8156   4
  -2   4  -7 106.144 84.1946  16
   2  -4   7 356.689 77.1436  15
   2  -4   7 310.194 63.4319   7
  -2   4  -7 14.0057 97.1551  13
   2  -4   7 304.617 88.7022   5
  -2  -5   2 4256.93 262.679   6
  -2  -5   2 3925.96 235.657   7
  -2  -5   2 3926.81 184.716   2
  -2  -5   2 4136.25 248.019   3
   2   5  -2 3961.34 189.642   1
  -2  -5   1 77.4666 30.9546   7
   2   5  -1 61.4896 36.9979  14
   2   5  -1 48.2287 16.8272   1
  -2  -5   1 62.5462 30.0748   6
   2   5  -1 73.5337 31.4201  11
   2   5  -1 109.798 40.1667  10
  -2  -5   1 72.8933 29.3997   2
  -2  -5   1 49.1026 16.4453   3
  -2  -5   1 67.7623 14.5954   8
   2   5   0 4661.10 210.057   1
   2   5   0 4769.04 213.808  15
   2   5   0 4960.81 267.943  14
  -2  -5   0 4709.90 269.057   6
  -2  -5   0 4587.52 254.958   3
   2   5   0 4664.29 155.052  12
  -2  -5   0 4701.13 225.958  16
   2   5   0 4754.23 273.176  11
   2   5   0 4565.56 236.180  10
  -2  -5   0 4719.56 238.658   7
  -2  -5   0 4609.68 231.299   8
  -2  -5   0 4554.62 203.419   2
   2   5   1 1214.28 110.200  15
   2   5   1 1333.23 142.454  14
  -2  -5  -1 1223.06 122.066   7
  -2  -5  -1 1300.35 144.683   6
  -2  -5  -1 1294.83 115.200  16
   2   5   1 1246.70 142.266  11
  -2  -5  -1 1201.91 134.128   3
   2   5   1 1251.75 122.707  10
   2   5   1 1280.26 122.559   9
  -2  -5  -1 1245.89 117.460   8
  -2  -5  -1 1178.41 107.806   2
   2   5   1 1276.33 115.635   1
   2  -5   2 134.027 45.1289   8
   2  -5   2 127.478 44.8275   4
  -2  -5  -2 106.161 35.6146   2
  -2  -5  -2 149.715 45.1665   7
   2   5   2 73.0191 22.6408  14
  -2  -5  -2 113.185 39.3496  16
  -2   5  -2 56.1826 57.3883  13
  -2  -5  -2 54.3165 19.4406   6
   2   5   2 86.2802 33.3081  11
  -2  -5  -2 104.435 39.8237   3
   2   5   2 144.681 38.1469  10
   2   5   2 141.919 41.0768   1
  -2   5  -2 135.819 41.8789   2
   2   5   2 150.797 41.3524   9
   2  -5   2 154.876 53.1617   5
   2   5   2 138.367 43.2088  15
   2  -5   2 174.036 43.2359   1
  -2  -5  -2 130.383 39.3456   8
  -2  -5  -3 433.293 73.9963  16
   2  -5   3 401.557 93.8878   7
   2  -5   3 374.296 64.8019   1
   2  -5   3 457.170 86.0854   4
  -2  -5  -3 430.440 46.6614  13
   2   5   3 419.125 81.4960  14
  -2  -5  -3 431.707 80.6914   6
  -2   5  -3 60.6785 88.1591  13
  -2   5  -3 30.0841 88.3906  12
   2   5   3 397.006 67.8815  15
  -2  -5  -3 472.183 91.0530   3
   2  -5   3 393.984 80.0463   5
  -2   5  -3 426.146 89.9763   9
   2  -5   3 429.997 75.1005   8
  -2  -5  -3 438.015 70.2116   8
  -2   5  -3 432.178 70.0909   2
  -2  -5  -4-13.4345 21.0741   8
  -2  -5  -4 20.5162 15.8963  16
  -2   5  -4-10.3505 15.8956  16
   2  -5   4 22.2307 17.1911  15
   2  -5   4 39.1243 36.2042   4
   2  -5   4-23.4555 21.1454   7
   2   5   4-9.86811 31.9617  15
   2   5   4 33.4371 26.9405  14
  -2  -5  -4 4.12433 42.5944   6
  -2   5  -4 8.78863 43.2612  13
  -2  -5  -4 10.7918 26.4283   3
  -2   5  -4-10.4418 21.2882   2
  -2   5  -4 0.23756 18.6307  12
   2  -5   4 31.0420 22.1362   1
  -2   5  -4 32.2639 31.5925  10
   2  -5   4-0.71965 25.6266   5
  -2   5  -4-7.93414 26.6329   9
   2  -5   4 1.09628 22.1014   8
   2  -5   5 248.790 84.8463   4
  -2   5  -5 59.1614 21.7022   2
  -2   5  -5 87.8659 58.3052  10
   2  -5   5 186.838 90.4540   5
   2  -5   5 156.752 63.1492   1
   2  -5   5 141.547 58.8636   8
   2  -5   6 1599.74 151.042  15
   2  -5   6 1437.39 144.168   7
   2  -5   6 1402.72 164.280   5
   2  -5   6 1401.94 171.829   4
   2  -5   7 21.5173 26.1721   4
  -2   5  -7 10.7573 18.6049  16
  -2   5  -7 6.60666 35.8383  12
   2  -5   7 9.92674 21.8694  15
   2  -5   7 49.6448 39.4197   7
  -2   5  -7 1.00065 12.5786  13
   2  -5   7 63.3223 27.3883   5
  -2   5  -7 32.4982 36.7698   9
  -2   5  -8 19.7613 24.3050  13
  -2   5  -8-0.48151 12.9816  12
  -2  -6   3-7.90995 12.3295   7
  -2  -6   3 38.1458 14.1089   6
  -2  -6   3-9.95881 14.2701   2
  -2  -6   3-11.3694 15.6307   3
  -2  -6   2 885.676 83.4398   2
  -2  -6   2 956.868 126.103   7
   2   6  -2 943.537 87.5814   1
  -2  -6   2 955.566 130.146   6
  -2  -6   2 850.221 113.287   3
   2   6  -2 895.935 130.480  11
   2   6  -2 858.738 136.164  10
  -2  -6   2 923.788 135.361   8
   2   6  -1 476.948 65.7700   1
  -2  -6   1 492.562 90.4975   7
   2   6  -1 511.362 91.8797  14
   2   6  -1 464.256 59.0424  12
  -2  -6   1 555.745 98.0974   6
   2   6  -1 454.356 90.9009  11
   2   6  -1 556.412 92.2967  10
  -2  -6   1 458.369 84.4788   3
  -2  -6   1 505.992 85.5975   8
  -2  -6   1 466.605 62.7103   2
  -2  -6   0 163.542 47.2513   7
   2   6   0 132.652 33.6302   1
   2   6   0 169.682 56.5909  11
   2   6   0 129.868 47.7191  14
  -2  -6   0 151.752 37.6993   2
  -2  -6   0 107.532 34.9612   6
   2   6   0 173.657 38.5443  12
   2   6   0 150.342 45.0483  10
  -2  -6   0 110.949 34.0735   3
   2   6   0 162.778 50.8453   9
  -2  -6   0 178.035 54.1068   8
  -2  -6  -1 158.973 48.7544   2
   2   6   1 128.917 36.0031  15
  -2  -6  -1 149.554 40.0861  16
   2   6   1 118.843 36.9692  14
  -2  -6  -1 144.206 51.8539   6
   2   6   1 224.974 52.8799   1
   2   6   1 136.963 50.6972  11
  -2  -6  -1 128.431 41.2078   3
   2   6   1 159.957 48.9312  10
   2   6   1 125.382 45.6984   9
  -2  -6  -1 167.516 49.6416   7
  -2  -6  -1 131.808 46.7332   8
   2  -6   2 48.3039 43.5572   8
  -2  -6  -2 41.4651 23.7107   7
  -2  -6  -2 84.5607 33.0332  16
   2  -6   2-5.89066 20.7550   4
  -2  -6  -2 29.9416 18.7795   6
   2   6   2 7.56623 20.5755  15
   2   6   2 19.0888 34.9365  11
  -2  -6  -2-22.5850 20.8678   3
   2  -6   2 60.8235 29.7317   1
   2   6   2 31.0923 19.1994  10
  -2   6  -2 50.5493 18.7030   2
   2   6   2 43.1064 26.8953  14
   2   6   2-27.4712 24.3855   9
   2  -6   2 33.2600 29.5240   5
  -2  -6  -2 32.4868 21.9230   8
   2  -6   3 0.21083 5.89620   8
  -2  -6  -3 5.70925 8.27547   8
   2   6   3 0.76518 9.61859  15
  -2  -6  -3-22.7177 22.2298  16
   2  -6   3-2.69940 17.1559   7
   2   6   3 5.51180 12.9826  14
   2  -6   3 19.2127 23.3610   4
  -2  -6  -3-11.0538 33.7040   6
   2  -6   3 9.73273 15.5093   1
  -2  -6  -3 28.3635 12.5180   3
  -2   6  -3 0.12749 10.4228  12
  -2   6  -3 0.12966 23.8042  13
  -2   6  -3 33.5764 27.3413   2
   2  -6   3-17.8555 24.9887   5
   2  -6   4 70.0780 26.4689   7
   2   6   4 116.204 56.1403  15
   2  -6   4 140.717 60.7784   4
   2  -6   4 81.0092 31.5435   1
   2   6   4 123.424 59.5200  14
  -2  -6  -4-10.5680 34.4114   8
  -2   6  -4 33.9116 51.8917  13
  -2   6  -4 91.1016 37.9900   2
  -2   6  -4 1.33828 55.2389  12
  -2   6  -4 106.440 49.2029  10
   2  -6   4 94.7312 49.7479   5
  -2   6  -4 36.7565 22.7566   9
   2  -6   4 131.876 50.3319   8
   2  -6   5 693.979 108.750   7
   2  -6   5 762.504 101.266  15
   2  -6   5 661.452 116.723   4
  -2   6  -5 70.9643 120.326  13
  -2   6  -5 22.7747 117.005  12
  -2   6  -5 728.412 104.245  10
  -2   6  -5 740.446 115.404   9
   2  -6   5 732.083 119.065   5
   2  -6   5 706.500 104.378   8
  -2   6  -5 801.179 112.807   2
   2  -6   5 880.298 127.351   1
   2  -6   6 1515.61 163.198   7
   2  -6   6 1808.91 164.557  15
   2  -6   6 1664.78 189.099   5
  -2   6  -6 1750.60 180.252  10
  -2   6  -6 1605.80 170.100   9
   2  -6   6 1638.68 171.098   8
   2  -6   6 1527.56 187.539   4
   2  -6   7 139.564 53.7937  15
   2  -6   7 61.9423 33.4662   4
  -2   6  -7-1.43961 45.4723  13
  -2   6  -7 1.23954 62.3933  12
   2  -6   7 61.6797 39.8290   5
   2  -6   7 71.1150 31.7914   7
  -2   6  -8 73.4277 193.945  13
  -2   6  -8 11.8525 139.605  12
   2  -6   8 402.222 135.155   5
  -2  -7   3 7.72517 30.6231   7
  -2  -7   3-19.0052 10.7775   6
  -2  -7   3 24.0064 22.5171   3
  -2  -7   2 192.912 66.3929   7
   2   7  -2 217.399 46.4347  12
  -2  -7   2 194.854 64.7246   6
   2   7  -2 149.140 68.9288  11
   2   7  -2 249.746 86.7944  10
  -2  -7   2 183.025 52.5930   3
  -2  -7   2 233.889 66.4241   8
   2   7  -1 814.868 121.416  14
  -2  -7   1 842.625 133.088   6
  -2  -7   1 822.160 116.579   3
   2   7  -1 902.385 138.798  11
  -2  -7   1 940.087 130.992   7
   2   7  -1 917.546 133.166  10
   2   7  -1 815.378 118.787   9
  -2  -7   1 870.279 127.149   8
  -2  -7   0 5.93502 30.9157   7
   2   7   0-1.75110 24.7083  14
  -2  -7   0-19.1873 20.8108   6
   2   7   0 0.69780 27.1438  11
  -2  -7   0 43.1651 48.9403   3
   2   7   0 14.1683 25.0793  10
   2   7   0 33.5086 20.3877   9
  -2  -7   0 33.9407 22.4877   8
  -2  -7  -1 279.809 60.9111  16
   2   7   1 335.609 77.7250  14
  -2  -7  -1 323.225 79.5428   6
   2   7   1 293.436 77.7645  11
  -2  -7  -1 235.658 62.9537   3
  -2  -7  -1 316.660 71.6101   7
   2   7   1 319.978 72.7099  10
   2   7   1 299.467 69.4128   9
  -2  -7  -1 316.239 69.7762   8
  -2  -7  -2 40.1101 52.0165   7
   2   7   2 39.4541 4.20245  15
   2  -7   2 14.5339 2.22207   4
  -2  -7  -2-67.8000 46.8184   6
   2  -7   2 52.1538 58.9301   8
  -2  -7  -2 6.70102 27.3085  16
  -2  -7  -2 8.83004 24.1812   3
   2   7   2-2.31020 22.8035  11
   2   7   2-12.7414 6.86380  14
   2   7   2-47.2049 25.1330  10
   2  -7   2-39.9388 40.2148   5
   2   7   2 13.6563 19.4639   9
   2  -7   2 9.83764 18.3909   1
  -2  -7  -2-12.7514 17.4861   8
  -2  -7  -3 1072.63 143.534  16
   2   7   3 1136.99 135.539  15
   2   7   3 1130.55 158.951  14
  -2  -7  -3 1155.27 179.105   6
  -2  -7  -3 770.397 151.281   3
   2   7   3 1176.04 165.057  11
   2  -7   3 1331.38 179.024   5
   2  -7   3 1259.27 158.011   8
  -2  -7  -3 921.872 136.286   8
   2  -7   3 1159.90 161.756   4
   2  -7   4 20.8522 22.4187   7
   2  -7   4-39.8345 20.8364   4
  -2   7  -4 0.43502 43.5064  13
  -2   7  -4 0.15078 35.6900  12
  -2   7  -4-13.1952 13.1107  10
   2  -7   4 9.90406 24.0617   5
  -2   7  -4-28.7910 52.6978   9
   2  -7   4 29.9925 24.0708   8
   2  -7   5 739.505 129.394   7
  -2   7  -5 81.3312 136.982  12
  -2   7  -5 54.2932 111.927  13
   2  -7   5 825.281 141.342   5
  -2   7  -5 671.912 109.141  10
  -2   7  -5 573.791 115.700   9
   2  -7   5 718.377 114.697   8
   2  -7   5 660.845 125.184   4
   2  -7   6 297.746 80.0663   4
  -2   7  -6 23.5192 88.1849  13
   2  -7   6 262.095 75.9757   7
  -2   7  -6 4.65575 84.1089  12
  -2   7  -6 392.163 85.8388  10
   2  -7   6 334.678 83.3975   5
  -2   7  -6 212.616 86.2023   9
   2  -7   6 202.847 65.1871   8
   2  -7   7 287.649 75.7792   4
  -2   7  -7 17.8939 121.284  13
  -2   7  -7 4.91693 91.1706  12
  -2   7  -7 220.015 78.5176   9
   2  -7   7 203.454 61.9259   7
   2  -7   7 302.691 90.8957   5
  -2   7  -8 21.1147 159.230  13
  -2   7  -8 10.1068 13.9674  12
  -2  -8   3 13.2466 26.4622   7
   2   8  -3 14.9992 23.4314  12
  -2  -8   3-12.0385 45.1037   6
  -2  -8   3 18.8767 21.0972   3
  -2  -8   3-8.31914 40.6026   8
  -2  -8   2 45.4669 33.9702   7
  -2  -8   2 26.7198 29.8479   6
   2   8  -2-7.78725 36.0089  11
  -2  -8   2 40.9462 43.0497   3
   2   8  -2-8.62757 34.4537  10
   2   8  -2 31.3903 33.1551   9
  -2  -8   2 34.7132 31.6668   8
  -2  -8   1 71.5286 43.8397   7
   2   8  -1 37.5439 21.1563  14
  -2  -8   1 80.2557 36.4641   6
   2   8  -1 161.899 62.1727  11
  -2  -8   1 89.2260 52.1219   3
   2   8  -1 148.560 63.3080  10
   2   8  -1 93.6518 52.1472   9
  -2  -8   1 33.7064 27.2421   8
  -2  -8   0 72.8894 34.9415   7
  -2  -8   0 40.3898 24.7001   6
   2   8   0 29.2312 15.0970  11
  -2  -8   0 65.9264 35.1075   3
   2   8   0 79.9034 39.5249  10
   2   8   0 59.9182 30.7757   9
   2   8   0 160.223 55.0337  14
  -2  -8   0 94.7617 49.7680   8
  -2  -8  -1 25.8163 35.2787   7
   2   8   1-43.1360 42.1051  14
  -2  -8  -1 35.3952 56.7861   6
  -2  -8  -1-4.61000 31.7838   3
   2   8   1 70.6324 46.4175  11
   2   8   1-36.9657 17.9555  10
   2   8   1-14.1048 85.8178   9
  -2  -8  -1 19.1401 8.53590   8
   2   8   2 48.1828 34.1574  14
  -2  -8  -2 100.513 39.5803   6
  -2  -8  -2 126.809 58.6825   3
   2   8   2 101.807 44.8465  11
   2   8   2 173.108 54.2673  10
  -2  -8  -2 147.770 60.3544   8
   2   8   3 1463.36 219.775  14
  -2  -8  -3 1007.45 207.608   6
   2   8   3 1240.92 204.289  11
   2  -8   3 1659.38 226.379   5
   2  -8   3 1507.46 202.189   8
   2  -8   3 1716.81 217.774   4
   2  -8   4-15.5302 54.1258   7
   2  -8   4-8.85853 31.8463   4
  -2   8  -4 23.2909 25.6371  13
  -2   8  -4 4.66076 67.1794  12
  -2   8  -4 32.7193 39.8166  10
   2  -8   4 56.0578 26.6750   5
  -2   8  -4 47.1185 48.1715   9
   2  -8   4 74.5281 21.7746   8
   2  -8   5 90.9523 49.7864   4
   2  -8   5 174.533 91.7759   7
  -2   8  -5-3.46761 30.3786  13
  -2   8  -5-2.63096 38.6250  12
  -2   8  -5 71.4146 36.3890  10
   2  -8   5 133.603 49.5352   5
  -2   8  -5 20.4128 46.7500   9
   2  -8   5 84.2964 39.9385   8
   2  -8   6 54.0523 53.4154   4
   2  -8   6 84.1960 45.7290   7
  -2   8  -6 16.2162 24.5062  13
  -2   8  -6-5.06425 24.8069  12
  -2   8  -6 77.6615 41.9139  10
   2  -8   6 78.7207 54.8408   5
  -2   8  -6-10.6859 26.4152   9
   2  -8   6 60.3356 62.8788   8
   2  -8   7 705.534 138.077   4
   2  -8   7 567.658 114.091   7
  -2   8  -7 94.4945 155.850  13
  -2   8  -7 10.9502 159.038  12
   2  -8   7 656.796 142.122   5
  -2   8  -7 336.455 93.2954   9
   2  -8   7 689.309 153.267   8
  -2   8  -8-5.03130 142.445  13
  -2   8  -8-9.12041 12.7957  12
   2  -8   8 86.7093 37.5150   5
  -2  -9   3 4.21033 45.0569   7
  -2  -9   3 23.2441 27.9196   6
  -2  -9   3 46.9678 42.9529   3
   2   9  -3-13.2218 18.4631  10
   2   9  -3 55.0771 42.9012   9
  -2  -9   3 2.23395 39.7827   8
  -2  -9   2 910.059 138.168   3
  -2  -9   2 847.478 145.293   6
   2   9  -2 883.489 153.741  11
   2   9  -2 1018.37 166.261  10
   2   9  -2 904.940 153.664   9
  -2  -9   2 1021.81 166.847   7
  -2  -9   2 1005.59 156.925   8
  -2  -9   1-0.16508 11.8118   7
   2   9  -1 91.4443 44.5747  14
  -2  -9   1 17.5614 35.1462   6
  -2  -9   1 66.3575 46.4651   3
   2   9  -1 72.7921 54.1042  11
   2   9  -1 72.5740 32.4477  10
   2   9  -1-28.4146 11.6913   9
  -2  -9   0 96.5984 59.5327   7
   2   9   0 65.9301 45.6239  14
  -2  -9   0 49.1682 40.0596   6
  -2  -9   0 43.6585 43.2212   3
   2   9   0 86.0144 49.1671  11
   2   9   0 104.595 44.0244  10
   2   9   0 44.6128 24.1297   9
  -2  -9   0 35.2049 20.2256   8
  -2  -9  -1 56.0665 15.2355   7
   2   9   1 9.43688 18.6107  14
  -2  -9  -1 59.9397 48.3191   6
  -2  -9  -1 108.614 62.8837   3
   2   9   1 19.3809 37.0535  11
   2   9   1 59.2654 43.2198  10
   2   9   1-48.5724 36.5075   9
  -2  -9  -1 30.4994 12.9780   8
  -2  -9  -2 52.2408 47.7006   6
   2   9   2 66.8722 51.0475  11
   2   9   2 41.0820 40.3303  14
   2   9   2-21.0385 33.3666  10
  -2  -9  -2-22.8665 44.8539   8
  -2   9  -3 134.937 51.2458  10
   2  -9   3 84.1279 75.4669   4
   2  -9   3 77.4844 45.2799   5
   2  -9   3 86.8559 38.3655   8
   2  -9   4 70.7066 41.1651   4
  -2   9  -4 88.8196 60.5941  10
   2  -9   4-55.8954 30.9072   5
   2  -9   4 83.8688 50.3956   8
   2  -9   5 92.1906 35.1437   4
   2  -9   5-14.2807 37.7470   7
  -2   9  -5 9.74721 67.3004  13
  -2   9  -5-3.93268 23.2135  12
  -2   9  -5 8.38139 33.7692  10
   2  -9   5 14.2372 6.86023   5
   2  -9   5 47.8915 17.5056   8
   2  -9   6 51.2147 47.4310   4
   2  -9   6 89.5007 53.8800   7
  -2   9  -6 5.90471 39.8240  13
  -2   9  -6 3.06803 41.6086  12
  -2   9  -6 95.4050 65.2815  10
   2  -9   6 99.6520 42.5114   5
  -2   9  -6 108.250 82.6717   9
   2  -9   6 45.7320 35.2029   8
   2  -9   7 358.382 110.611   4
   2  -9   7 342.849 106.769   7
  -2   9  -7 52.1355 123.405  13
  -2   9  -7 5.63277 118.150  12
   2  -9   7 388.111 119.110   5
  -2   9  -7 336.909 102.199  10
  -2   9  -7 130.910 76.5736   9
   2  -9   7 277.718 90.8193   8
  -2   9  -8 108.560 67.3621  12
   2  -9   8-78.3996 58.9718   5
  -2 -10   3 30.7019 44.6240   7
  -2 -10   3 67.9085 71.1858   6
   2  10  -3-9.70672 28.0845  10
   2  10  -3 97.5022 59.0413   9
  -2 -10   3 21.2719 59.7559   8
  -2 -10   2 326.435 100.975   7
  -2 -10   2 467.252 121.144   6
   2  10  -2 324.104 103.128  11
   2  10  -2 334.560 94.3259  10
   2  10  -2 197.078 74.6513   9
  -2 -10   2 399.511 107.042   8
  -2 -10   1-9.98573 20.6257   6
  -2 -10   1 96.3857 60.6540   3
  -2 -10   1 43.3337 35.9496   7
   2  10  -1 65.7009 54.3631  11
   2  10  -1 50.1802 38.6235  10
   2  10  -1-28.0045 51.7784   9
  -2 -10   1 43.3367 57.7248   8
  -2 -10   0 74.2622 63.9479   7
   2  10   0-51.2288 45.8155  14
  -2 -10   0 95.5518 67.5003   6
   2  10   0 20.7781 23.3759  11
   2  10   0-23.7165 27.3958  10
   2  10   0-1.66948 15.9518   9
  -2 -10   0 24.0718 23.0450   8
  -2 -10  -1 698.963 183.234   7
   2  10   1 730.976 169.007  14
  -2 -10  -1 695.130 151.068   6
   2  10   1 788.620 162.740  11
   2  10   1 727.425 146.604  10
  -2 -10  -1 485.432 117.948   8
  -2 -10  -2-4.28897 55.3911   6
   2  10   2 280.572 121.550  11
  -2  10  -4-60.6534 50.4264  10
   2 -10   4 154.086 103.286   5
   2 -10   4 96.9007 66.4972   8
   2 -10   5 149.502 91.8517   4
  -2  10  -5 103.030 55.9637  10
   2 -10   5 81.0428 57.1527   5
   2 -10   5 84.0614 41.7689   8
   2 -10   6 60.7203 54.6807   4
   2 -10   6-37.9490 34.8944   7
  -2  10  -6 6.20172 88.8156  13
  -2  10  -6-1.14913 58.6541  12
  -2  10  -6-58.0088 62.6244  10
   2 -10   6-15.1968 25.9525   5
  -2  10  -6 46.6863 82.7768   9
   2 -10   6-76.5331 92.5301   8
  -2 -11   3 23.9170 69.2869   7
  -2 -11   3-2.28571 69.2623   6
   2  11  -3 39.6080 59.4548  10
   2  11  -3 19.9721 14.8241   9
  -2 -11   3 82.2781 43.6126   8
  -2 -11   2 32.5833 33.6385   7
  -2 -11   2 12.8245 4.73021   6
   2  11  -2 9.82047 26.4829  11
   2  11  -2 47.7321 65.5118  10
   2  11  -2-2.15626 30.3163   9
  -2 -11   2-10.1312 50.9964   8
  -2 -11   1 203.571 94.1917   7
  -2 -11   1 87.8111 59.0392   6
   2  11  -1 141.462 69.4372  11
   2  11  -1 110.947 47.3764  10
   2  11  -1 188.627 80.1752   9
  -2 -11   1 158.410 76.1125   8
  -2 -11   0-0.59108 82.8793   7
  -2 -11   0 27.2079 25.8999   6
   2  11   0 11.3321 61.8685  11
   2  11   0 24.9013 45.1782  10
   2  11   0-31.1760 59.8190   9
  -2 -11   0 91.9787 61.8294   8
  -2 -11  -1 62.3914 51.7022   6
   2  11   1 30.2631 21.2549  11
  -3   0  -1-4.00189 24.4079  16
   3   0   1 19.9081 28.9973   1
   3   0   1-15.3249 28.8237  15
   3   0   1 3.25236 12.2862   4
  -3   0  -1 2.60974 10.5826   6
  -3   0  -1 14.7790 18.3280   2
  -3   0  -1 11.6668 18.4707   3
   3   0   1-14.2294 3.17519   5
  -3   0  -2 1121.52 133.700  16
  -3   0  -2 1130.89 131.237   2
   3   0   2 1266.54 137.765  15
   3   0   2 1277.91 135.523  14
   3   0   2 1183.68 134.739   1
  -3   0  -2 1158.49 91.7117   6
  -3   0  -2 1220.41 140.445  13
  -3   0  -2 1179.04 122.931   3
   3   0   2 928.200 85.2687   5
   3   0   2 1172.39 126.160   4
  -3   0  -3 33.9158 28.1328  16
   3   0   3-21.1924 24.7830  15
   3   0   3-4.02607 19.4334   4
  -3   0  -3 3.49758 12.6118  13
  -3   0  -3 3.20407 23.6559   6
  -3   0  -3 1.17031 3.10780   2
   3   0   3 7.60142 27.5788   1
  -3   0  -3 7.32249 22.5989   3
   3   0   3 2.36257 28.7323  14
   3   0   3-0.42843 13.1039   5
   3   0   4 22.8222 16.0289   1
  -3   0  -4 15.7896 20.0216  16
   3   0   4 9.29826 9.89840  15
   3   0   4 58.6197 30.8393  14
   3   0   4 18.1097 17.2983   4
  -3   0  -4 45.4871 22.5615   6
  -3   0  -4 12.5194 25.0545  13
  -3   0  -4 35.9435 21.0156   2
  -3   0  -4-2.19471 24.5831   3
   3   0   4 40.7090 19.5078   5
   3   0   5-6.51346 31.2615  15
   3   0   5-19.7311 16.8473   4
   3   0   5 16.7859 13.3084  14
  -3   0  -5-15.4293 20.1291   2
  -3   0  -5-17.9094 15.9270  16
  -3   0  -5-3.55097 30.5689  13
  -3   0  -5 10.7002 15.6029  12
  -3   0  -5 17.8300 15.9145   3
  -3   0  -6 2369.09 223.708  16
   3   0   6 2278.27 215.763  15
   3   0   6 2281.87 199.101  14
  -3   0  -6 2388.52 217.721  13
  -3   0  -6 2369.77 178.300  12
   3   0   6 2092.36 202.450   4
  -3   0  -6 2586.62 230.980   2
   3   0   6 2217.10 223.638   1
  -3   0  -7 21.9081 36.6837  16
   3   0   7 21.6419 47.7419  15
   3   0   7 0.62469 19.1963  14
  -3   0  -7 80.2692 39.2788   2
  -3   0  -7 18.4665 21.4371  13
  -3   0  -7 54.5480 33.0551  12
   3   0   7 28.6559 29.1801   1
  -3  -1  -1-22.0412 27.9445  16
   3   1   1 62.1373 48.7334  15
   3   1   1 22.7365 22.3745   4
   3   1   1-3.14728 29.1125  14
  -3  -1  -1 42.7809 21.8695   6
  -3  -1  -1 9.15650 17.2640   2
   3   1   1 8.96242 15.5720   1
  -3  -1  -1 33.9273 25.5793   3
   3   1   1 8.42287 12.5396   5
  -3   1  -2 490.034 95.4852   2
   3  -1   2 549.774 100.764  15
   3   1   2 341.824 70.5753  15
   3   1   2 317.557 64.3843   4
   3  -1   2 471.664 92.1490   1
  -3   1  -2 371.898 82.8129  16
   3   1   2 348.421 71.8624  14
  -3  -1  -2 334.406 58.5678   6
  -3   1  -2 342.011 46.6659   6
  -3   1  -2 431.786 105.978  13
  -3  -1  -2 318.691 73.5878  16
  -3  -1  -2 334.691 68.5181  13
   3   1   2 321.894 73.6720   1
   3   1   2 339.018 42.6035   5
  -3  -1  -2 329.453 72.7142   2
  -3  -1  -2 336.756 70.7637   3
   3  -1   2 488.530 91.3079   4
  -3   1  -3 3290.71 226.133   2
  -3  -1  -3 3337.46 237.394  16
  -3   1  -3 3449.50 239.762  16
   3   1   3 3426.39 237.550  15
   3  -1   3 3266.16 226.895  15
   3   1   3 3341.60 237.747   1
   3  -1   3 3097.70 224.172   1
   3  -1   3 3552.63 215.610  14
  -3   1  -3 3243.66 128.983   6
  -3  -1  -3 3253.98 212.290  13
  -3   1  -3 3420.09 234.692  13
  -3  -1  -3 3388.92 226.393   3
  -3   1  -3 3385.22 204.704   3
   3   1   3 3436.78 229.913  14
   3   1   3 3506.87 143.021   5
   3  -1   3 3248.18 182.850   5
  -3  -1  -3 3347.17 180.102   6
   3   1   3 3175.10 202.105   4
   3  -1   3 3144.92 222.449   4
  -3  -1  -3 3172.47 228.049   2
   3   1   4 376.956 85.5489  15
   3   1   4 377.201 71.3553   4
   3  -1   4 488.394 87.6951  15
   3  -1   4 368.584 79.9213   4
   3  -1   4 424.774 87.4748   1
  -3  -1  -4 500.653 72.7668   6
   3   1   4 343.787 78.3505  14
  -3  -1  -4 355.787 83.9799  16
  -3   1  -4 409.341 86.5063  16
   3  -1   4 444.636 75.3218  14
  -3  -1  -4 417.676 79.0220  13
  -3   1  -4 414.625 84.1456  13
  -3  -1  -4 418.639 83.3545   2
   3   1   4 469.808 71.1560  11
  -3   1  -4 431.657 85.5340   2
  -3  -1  -4 373.172 79.9253   3
  -3   1  -4 407.951 71.6717   3
   3  -1   4 367.729 61.1662   5
   3   1   4 356.187 85.7990   1
   3   1   5 206.560 56.8110   4
  -3  -1  -5 226.935 63.1764  16
  -3   1  -5 221.974 68.9753  16
   3  -1   5 140.597 42.4133   4
   3   1   5 309.087 67.5432  15
   3  -1   5 269.727 75.8399  15
   3   1   5 201.981 71.4074   1
   3   1   5 288.838 64.5329  14
   3  -1   5 261.234 63.8473  14
  -3  -1  -5 244.620 70.5918  13
  -3   1  -5 226.913 69.9356  13
  -3  -1  -5 255.139 60.4990   2
  -3   1  -5 243.534 95.1339   2
  -3   1  -5 215.827 52.4502  12
  -3   1  -5 251.616 62.3358   3
  -3  -1  -5 225.568 62.6898   3
   3  -1   5 168.114 52.0590   1
   3   1   5 254.095 48.7092  11
   3  -1   5 232.348 52.2923   5
  -3  -1  -6 667.083 122.624  16
   3  -1   6 564.763 108.337   4
   3   1   6 641.146 109.891  15
   3  -1   6 575.318 89.0887  15
   3  -1   6 581.221 94.9760  14
   3   1   6 606.910 104.328  14
  -3   1  -6 667.246 116.309   2
  -3  -1  -6 755.186 123.442  13
  -3   1  -6 697.800 119.229  13
  -3   1  -6 680.677 104.556  12
  -3  -1  -6 497.092 116.308   3
   3   1   6 606.702 76.9093  11
  -3   1  -6 574.575 109.836  16
   3   1   6 557.838 118.374   1
  -3  -1  -6 764.605 130.252   2
   3  -1   6 630.871 126.213   1
   3  -1   7 39.7170 38.3811   4
  -3  -1  -7 47.9670 45.3392  16
  -3   1  -7 72.3047 38.2634  16
  -3  -1  -7 12.8547 23.1001   2
   3   1   7 48.1058 52.4483  15
  -3   1  -7 49.0324 38.9771   2
   3   1   7 74.0185 59.0461  14
   3  -1   7 47.8943 11.0078  14
  -3  -1  -7-33.3707 28.6993  13
  -3   1  -7 47.8072 10.4088  13
   3  -1   7 135.679 67.7953  15
   3   1   7-22.9034 54.4016   1
  -3   1  -7 58.0980 36.0760  12
   3  -1   7 15.9780 43.5425   1
   3   2   0 513.246 100.162  14
   3   2   0 485.290 86.5035   1
  -3  -2   0 444.370 82.7528   2
  -3  -2   0 495.648 92.1142   3
   3   2   0 428.855 70.6859   4
  -3  -2  -1 264.606 38.3093   7
  -3  -2  -1 274.232 64.7607  16
   3   2   1 253.593 53.5087   4
   3   2   1 265.667 66.9983  14
   3   2   1 254.824 60.8922  15
  -3  -2  -1 242.849 53.4197   6
   3   2   1 157.092 23.2737   5
  -3  -2  -1 191.689 55.2151   2
  -3  -2  -1 238.691 55.6093   3
   3   2   1 221.199 56.6267   1
   3   2   2 37.3036 22.8533   1
  -3  -2  -2-13.2445 15.0848  16
   3  -2   2 42.2355 34.4406   1
   3   2   2 32.6102 19.5747  15
   3   2   2 55.0798 30.9253   4
   3  -2   2 64.1647 43.6872  15
   3  -2   2 59.0996 25.9959   4
   3   2   2 64.4414 37.8866  14
  -3  -2  -2 17.0613 9.86637  13
  -3   2  -2 48.6373 32.5955  13
  -3  -2  -2 17.2010 22.4493   6
   3  -2   2 39.5796 17.9170   8
  -3   2  -2 24.6454 9.60501   6
  -3   2  -2 78.6601 33.9462  16
  -3  -2  -2 11.9874 10.2225   2
  -3   2  -2 29.9541 7.96753   2
  -3  -2  -2 29.2451 9.67090   3
  -3   2  -2 27.8498 29.3193   3
   3  -2   2 50.8020 26.8372   5
  -3   2  -3 1971.74 176.030   2
  -3   2  -3 1881.42 181.636  16
   3   2   3 1745.60 179.673   1
   3   2   3 2045.88 186.510  15
   3  -2   3 2011.51 179.786  15
   3  -2   3 1760.01 177.824   1
   3   2   3 1922.16 180.238  14
  -3  -2  -3 1901.37 151.103   6
  -3  -2  -3 1875.20 150.879  13
  -3   2  -3 1790.24 182.421  13
  -3  -2  -3 1922.90 181.000   3
  -3   2  -3 2032.95 151.804   3
  -3  -2  -3 1959.16 185.028  16
   3   2   3 2067.83 158.120  11
   3  -2   3 1950.61 155.271   5
   3   2   3 1846.97 147.430   4
   3  -2   3 1942.34 179.507   4
  -3  -2  -3 1841.35 171.297   2
  -3  -2  -4 1403.19 162.679  16
  -3   2  -4 1348.75 156.044  16
   3  -2   4 1441.79 163.329   1
   3   2   4 1412.28 160.582  15
   3  -2   4 1399.06 156.162  15
   3   2   4 1437.33 161.352  14
   3  -2   4 1380.84 127.744  14
  -3  -2  -4 1341.26 128.269   6
  -3  -2  -4 1318.58 154.109   3
  -3   2  -4 1318.81 126.373   3
  -3  -2  -4 1301.04 134.887  13
  -3   2  -4 1364.21 157.984  13
  -3   2  -4 1259.06 131.417  12
   3   2   4 1333.76 126.097  11
   3  -2   4 1374.49 133.734   5
   3   2   4 1378.28 136.362   4
  -3  -2  -4 1343.30 151.968   2
   3  -2   4 1371.93 156.141   4
  -3   2  -4 1358.17 153.359   2
   3   2   4 1288.14 157.285   1
  -3  -2  -5-17.7073 30.0594  16
   3  -2   5 24.6568 35.9157   4
   3   2   5-24.2492 31.8433  15
   3  -2   5 8.41074 19.0641  15
   3   2   5 31.4719 25.9517  14
   3  -2   5 9.70158 12.9331  14
  -3  -2  -5 20.1051 34.3800   2
  -3  -2  -5 10.4693 29.1147  13
  -3   2  -5 44.0388 29.4495  13
  -3   2  -5-9.21145 11.0578  16
  -3   2  -5 19.7226 10.8339   2
  -3   2  -5-48.3992 31.5899  12
  -3   2  -5 25.2814 31.4323   3
  -3  -2  -5-50.1877 34.9052   3
   3   2   5-12.7158 19.6532  11
   3  -2   5 54.0316 41.1520   1
   3  -2   5 0.27241 13.9095   5
   3   2   5-30.9579 25.2410   1
   3  -2   6 82.1505 31.7833   1
  -3  -2  -6 117.490 54.4944  16
   3  -2   6 134.843 56.2337   4
   3   2   6 89.9930 55.1809  15
   3  -2   6 19.0242 10.5686  15
  -3  -2  -6 4.65445 26.7273   2
   3   2   6 108.654 53.6504  14
   3  -2   6 57.5196 29.5845  14
  -3   2  -6 79.6793 36.7171   2
  -3  -2  -6 62.2435 22.7684  13
  -3   2  -6 119.630 49.5180  13
  -3  -2  -6 191.209 81.8548   3
  -3   2  -6 66.7144 30.3019  12
   3   2   6 67.1169 27.2188  11
   3   2   6 112.392 51.3078   1
   3  -2   6 104.473 43.1142   5
  -3   2  -6 53.8071 31.4217  16
   3  -2   7 20.9981 29.2889   4
  -3   2  -7 24.6888 28.2541  16
   3  -2   7 30.0877 20.5824  15
  -3   2  -7 39.5305 18.0541   2
   3  -2   7 61.7810 39.6480  14
  -3   2  -7 40.4036 43.5733  13
  -3   2  -7 83.4356 41.5130  12
   3  -2   7 53.4953 30.3146   1
  -3   2  -8 112.562 53.0644  16
   3  -2   8 55.3819 30.7346  15
   3  -2   8 38.1436 17.8642  14
  -3   2  -8 19.1753 33.3261  13
  -3   2  -8 55.8578 30.5980  12
  -3  -3   0 758.469 104.860   2
  -3  -3   0 816.983 89.5529   7
   3   3   0 911.727 129.016  14
   3   3   0 842.880 114.989   1
  -3  -3   0 946.603 123.700   6
  -3  -3   0 769.624 122.042   3
   3   3   0 793.990 84.6832   4
  -3  -3  -1 49.7084 30.7377  16
   3   3   1 41.6702 17.9003  15
   3   3   1 66.9933 21.1466   4
  -3  -3  -1 46.1837 15.4219   7
   3   3   1 82.1891 35.0220  14
  -3  -3  -1 81.6016 28.6580   6
   3   3   1 54.5663 24.8005   1
  -3  -3  -1 43.0404 29.5781   2
  -3  -3  -1 88.1247 45.2244   3
  -3  -3  -2 492.416 61.1840   7
  -3  -3  -2 423.207 88.1740  16
   3   3   2 435.551 84.0485  15
   3  -3   2 462.068 105.017   4
   3   3   2 469.037 88.8504  14
  -3   3  -2 483.486 74.0188   3
  -3   3  -2 412.106 104.168  13
  -3  -3  -2 341.762 74.1468  13
   3  -3   2 471.955 102.176   1
   3   3   2 424.919 82.5177   1
  -3  -3  -2 432.521 78.9145   6
   3   3   2 437.341 82.1076  11
  -3  -3  -2 486.186 87.9493   2
   3   3   2 524.338 62.1661   9
  -3  -3  -2 493.299 94.1823   3
  -3   3  -2 439.424 88.8427   2
   3  -3   2 468.331 94.9253   5
   3  -3   2 437.618 67.1795   8
   3   3   2 456.828 66.0867   4
  -3  -3  -3 923.190 130.897  16
  -3   3  -3 946.703 124.341   2
  -3   3  -3 975.897 132.637  16
   3   3   3 930.307 128.364   1
   3   3   3 978.165 130.503  15
   3  -3   3 969.034 127.766  15
   3  -3   3 921.773 125.400   1
   3   3   3 932.819 133.606  14
  -3  -3  -3 944.398 117.112   6
  -3  -3  -3 929.515 133.830   3
  -3  -3  -3 978.607 104.946  13
  -3   3  -3 953.942 137.617  13
  -3   3  -3 963.774 101.906   3
   3   3   3 975.059 117.152  11
   3  -3   3 953.718 120.621   5
   3  -3   3 949.862 83.9100   8
   3   3   3 901.474 100.855   4
  -3  -3  -3 954.881 125.262   2
   3  -3   3 875.761 129.668   4
  -3  -3  -4 576.056 108.214  16
  -3   3  -4 585.208 101.773  16
   3   3   4 600.911 103.559  15
   3   3   4 482.998 96.1103   1
   3  -3   4 558.477 98.1565  15
   3  -3   4 497.661 97.0642   4
   3   3   4 594.960 108.452  14
  -3  -3  -4 527.395 88.7620   6
   3  -3   4 487.592 93.0120   1
  -3   3  -4 597.369 79.1773   3
  -3  -3  -4 533.687 80.0394  13
  -3  -3  -4 553.015 96.7002   2
  -3   3  -4 486.486 93.0748  13
  -3   3  -4 159.588 93.4645  12
   3   3   4 595.295 91.6388  11
   3  -3   4 542.407 91.4331   5
  -3  -3  -4 549.367 103.031   3
  -3   3  -4 532.614 95.2053   2
   3  -3   5 1794.88 191.296   1
  -3  -3  -5 1868.41 199.825  16
  -3   3  -5 1768.61 180.795  16
   3   3   5 1744.45 187.013  15
   3  -3   5 1865.22 179.987  15
   3   3   5 1714.86 191.570  14
   3  -3   5 2552.73 201.401  14
  -3  -3  -5 1773.26 193.032   3
  -3  -3  -5 1857.89 164.376  13
  -3   3  -5 1835.21 193.964  13
  -3   3  -5 1715.71 169.721  12
   3   3   5 1941.09 179.004  11
   3  -3   5 1679.13 161.566   5
  -3  -3  -5 1834.87 197.083   2
   3   3   5 1778.05 199.560   1
   3  -3   5 1725.99 186.754   4
  -3   3  -5 1793.75 179.883   2
  -3  -3  -6 57.5790 57.7143  16
   3  -3   6 21.4526 33.8022   4
  -3  -3  -6 129.891 72.1099   2
   3   3   6 48.7570 56.7907  15
   3  -3   6 49.4409 46.8713  15
   3   3   6 69.6392 54.0647  14
  -3   3  -6 5.07960 19.0926  16
  -3   3  -6 53.8010 37.0887   2
  -3  -3  -6 77.9922 54.5160  13
  -3   3  -6 41.7476 29.6922  13
   3   3   6-7.47025 27.8175   1
  -3   3  -6-3.77723 17.4456  12
   3   3   6 93.7018 54.7409  11
   3  -3   6 55.6251 34.5706   5
   3  -3   6 0.14446 10.8958   1
  -3   3  -7 3082.11 266.209  16
   3  -3   7 3026.40 259.607  15
  -3   3  -7 3046.33 278.864  13
  -3   3  -7 3156.76 263.420  12
   3  -3   7 3310.02 296.136   5
  -3   3  -7 3165.83 276.514   2
   3  -3   7 3096.58 281.349   1
   3  -3   7 2860.79 266.630   4
  -3   3  -8 341.142 90.2158  16
   3  -3   8 437.528 92.7790  15
  -3   3  -8 162.824 66.2863  12
   3  -3   8 371.255 103.112   4
  -3  -4   0 1192.28 131.960   2
  -3  -4   0 1153.51 113.403   7
   3   4   0 1282.17 155.435  14
   3   4   0 1173.64 134.434   1
  -3  -4   0 1249.57 147.470   6
  -3  -4   0 1182.67 148.591   3
   3   4   0 1130.13 91.1193   4
  -3  -4  -1 130.413 45.0429  16
   3   4   1 131.079 30.8584   4
   3   4   1 115.274 38.7091  15
  -3  -4  -1 118.916 35.5690   7
   3   4   1 127.055 47.3245  14
  -3  -4  -1 133.924 35.2908   6
   3   4   1 122.580 38.9409   1
   3   4   1 159.760 54.3760  11
  -3  -4  -1 113.634 28.4781   2
   3   4   1 99.7310 21.0510   9
  -3  -4  -1 117.414 51.9860   3
  -3  -4  -2 92.7478 46.1697  16
  -3  -4  -2 54.4460 27.5756   7
   3   4   2 68.4828 23.6906  15
   3  -4   2 7.72705 25.8826   4
   3  -4   2 13.5230 19.9555   1
   3   4   2 84.7204 35.7955  14
  -3  -4  -2 42.7337 16.6320   6
  -3  -4  -2 51.5101 26.1360   2
   3   4   2-14.0188 40.6318  11
  -3  -4  -2 49.6571 18.0585   3
  -3   4  -2 76.0023 52.2781   2
   3   4   2 62.1678 27.3430   9
  -3   4  -2 20.5768 3.92859   3
   3  -4   2 62.9408 35.5965   5
   3   4   2 86.9136 34.8997   1
   3  -4   3 90.3609 34.2575   8
  -3  -4  -3 72.5735 35.1756  16
   3   4   3 70.2697 39.9348  15
   3  -4   3 63.3712 19.2498   4
   3   4   3 21.9186 10.7126  14
   3  -4   3 139.344 51.0017   1
  -3  -4  -3 78.2791 33.7327  13
  -3   4  -3 1.74370 40.9333  13
  -3  -4  -3 92.2150 45.2449   2
  -3  -4  -3 101.510 40.4173   6
   3   4   3 110.567 44.5248   1
   3   4   3 68.5442 31.4576  11
  -3  -4  -3 98.7485 39.3454   3
  -3   4  -3 123.804 43.8195   2
   3  -4   3 71.0039 47.6312   5
  -3  -4  -4 429.112 96.2944  16
   3  -4   4 1097.30 161.471   1
   3  -4   4 539.572 109.018  15
   3   4   4 383.113 81.5405  15
  -3  -4  -4 393.366 86.2500   2
   3   4   4 431.297 94.5499  14
  -3  -4  -4 459.494 73.6664  13
  -3  -4  -4 427.474 87.8620   6
   3   4   4 401.698 88.5615  11
  -3  -4  -4 431.497 96.6814   3
  -3   4  -4 385.423 80.0854   2
   3   4   4 432.255 91.2916   1
   3  -4   4 1187.54 172.254   4
  -3  -4  -5 76.2973 47.9405  16
  -3   4  -5 48.2580 28.9498  16
  -3  -4  -5 107.388 60.8577   2
   3   4   5 63.6106 17.7998  15
   3  -4   5 81.9018 52.5183   4
   3  -4   5 93.2286 47.3095  15
   3   4   5 77.6370 45.0767  14
  -3  -4  -5 47.4284 20.0411  13
  -3   4  -5 9.25094 36.1607  13
  -3   4  -5 76.4243 31.3777   2
  -3  -4  -5 126.495 61.9917   3
  -3   4  -5 2.28874 34.1426  12
   3   4   5 34.6392 34.4201   1
   3   4   5 153.262 57.1808  11
   3  -4   5 62.8194 35.5662   1
   3  -4   5 93.7061 47.6207   5
  -3  -4  -6 161.226 98.6094  16
  -3   4  -6 432.667 90.7014  16
   3  -4   6 343.726 98.5227   4
   3   4   6 414.357 103.582  15
   3  -4   6 402.487 89.9051  15
   3   4   6 279.809 101.073  14
  -3   4  -6 390.475 85.2806   2
  -3  -4  -6 118.005 35.4730  13
  -3   4  -6 12.5951 89.4127  13
  -3   4  -6 42.1597 91.5340  12
   3   4   6 365.055 92.3359  11
   3  -4   6 369.656 84.4659   5
   3  -4   6 342.287 84.8885   1
   3  -4   7 287.067 82.3389   4
  -3   4  -7 378.146 94.1605  16
   3  -4   7 374.373 94.3823  15
  -3   4  -7 308.729 84.7934   2
  -3   4  -7 13.0540 93.7219  13
  -3   4  -7 28.9291 90.8906  12
   3  -4   7 370.586 102.436   1
   3  -4   7 383.072 90.7817   5
  -3   4  -8 578.413 121.601  16
   3  -4   8 777.251 136.763  15
  -3   4  -8 49.8230 151.354  13
  -3   4  -8 64.5246 119.019  12
   3  -4   8 777.054 153.709   4
  -3  -5   1 389.220 81.8711   7
   3   5  -1 314.103 90.2422  14
  -3  -5   1 390.736 96.3923   6
   3   5  -1 398.628 78.7705   1
  -3  -5   1 353.999 80.6183   2
  -3  -5   1 353.711 90.3562   3
  -3  -5   0 339.806 66.8581   7
   3   5   0 435.891 94.3910  14
  -3  -5   0 336.800 77.6632   6
  -3  -5   0 361.105 72.9126   2
  -3  -5   0 295.228 73.8243   3
   3   5   0 350.635 73.6063   1
  -3  -5  -1 68.2588 37.2895  16
  -3  -5  -1 109.767 39.8153   7
   3   5   1 75.3667 45.1350  15
   3   5   1 41.2533 29.5837  14
   3   5   1 73.4481 35.7138   1
  -3  -5  -1 112.215 45.2391   6
  -3  -5  -1 56.1472 31.6093   2
   3   5   1 35.1031 18.0123  11
  -3  -5  -1 93.9963 41.8559   3
   3   5   1 76.5378 27.8430   9
  -3  -5  -2 3272.34 236.634  16
  -3  -5  -2 3499.79 212.820   7
   3   5   2 3216.26 225.426  15
   3   5   2 3476.44 271.799  14
  -3  -5  -2 3183.49 248.854   6
  -3  -5  -2 3292.88 259.368   3
   3   5   2 3149.55 244.081  11
   3   5   2 3348.85 204.378   9
  -3  -5  -2 3163.80 225.333   2
   3   5   2 3138.98 228.088   1
   3  -5   3 187.921 58.1604   8
  -3  -5  -3 87.3274 33.6388  16
   3   5   3 229.712 60.1508  15
   3  -5   3 156.992 55.8840   4
   3   5   3 148.546 61.0730  14
  -3  -5  -3 172.904 55.4680   2
   3  -5   3 247.794 71.6572   1
  -3  -5  -3 174.824 63.8850   6
  -3   5  -3-0.70862 51.9638  13
   3   5   3 127.773 59.8365  11
  -3  -5  -3 137.748 59.2383   3
  -3   5  -3 172.759 54.3551   2
   3  -5   3 178.491 69.4709   5
   3   5   3 109.236 38.7906   1
  -3  -5  -4 14.9914 17.7737  16
   3  -5   4-9.87335 24.3393   1
   3   5   4 2.03022 6.67995  15
  -3  -5  -4 22.9146 22.6886   2
   3  -5   4 71.8316 47.2528   4
   3   5   4 73.8743 48.6105  14
  -3  -5  -4-19.1298 21.4411   6
  -3   5  -4-3.99023 17.1304  13
  -3  -5  -4 114.197 49.1336   3
   3   5   4-10.9782 20.6842  11
  -3   5  -4 2.80383 16.6017   2
   3   5   4 33.3131 26.9585   1
   3  -5   4 189.438 73.3254   5
  -3   5  -5 170.927 121.112  16
  -3  -5  -5 664.724 128.037  16
   3  -5   5 815.725 126.850  15
   3   5   5 750.893 125.003  15
   3  -5   5 692.262 128.175   4
   3   5   5 782.811 151.467  14
  -3   5  -5 108.575 135.534  13
  -3   5  -5 66.3217 122.816  12
   3  -5   5 692.421 111.886   1
  -3  -5  -5 762.482 149.419   3
   3   5   5 952.509 156.901  11
   3  -5   5 784.124 128.610   5
  -3   5  -5 741.285 109.872   2
   3  -5   6 3047.85 240.028  15
   3  -5   6 3029.45 252.273   5
  -3   5  -6 3040.28 242.775   2
   3  -5   6 3035.12 276.012   4
   3  -5   6 3066.50 258.973   1
   3  -5   7 19.6469 37.1547   4
  -3   5  -7 5.89738 18.0321  16
  -3   5  -7 59.4006 19.6940   2
   3  -5   7 8.46957 5.41082  15
  -3   5  -7 1.90047 53.1510  13
   3  -5   7-10.7256 35.8990   1
  -3   5  -7-0.16974 37.9244  12
   3  -5   7 51.8332 16.4014   5
   3  -5   8-69.7407 54.0916   4
  -3   5  -8 16.6474 40.9081  16
   3  -5   8-43.3699 49.5365  15
  -3   5  -8-13.7209 51.4879  13
  -3   5  -8 1.88205 33.2140  12
   3  -5   8-46.5348 58.8953   5
  -3  -6   1 96.3188 40.8099   7
   3   6  -1 40.0923 36.6213  14
  -3  -6   1 143.601 62.2810   6
  -3  -6   1 88.8845 28.0697   2
   3   6  -1 60.2030 25.3654   1
  -3  -6   1 98.3038 48.6212   3
   3   6   0 291.735 65.4324   1
  -3  -6   0 337.030 77.6443   7
   3   6   0 331.618 85.2974  14
  -3  -6   0 318.343 84.5951   6
  -3  -6   0 253.347 65.1953   2
   3   6   0 262.962 75.4930  11
  -3  -6   0 315.162 87.5801   3
   3   6   0 296.007 69.8868   9
  -3  -6  -1 908.546 128.879  16
  -3  -6  -1 906.673 117.069   7
   3   6   1 930.994 124.369  15
   3   6   1 893.264 149.167  14
  -3  -6  -1 963.600 143.847   6
  -3  -6  -1 894.347 144.037   3
   3   6   1 931.900 144.415  11
   3   6   1 865.466 113.736   9
  -3  -6  -1 953.495 122.177   2
   3   6   1 854.918 117.708   1
  -3  -6  -2 1271.27 147.405  16
  -3  -6  -2 1578.59 165.471   7
   3   6   2 1182.07 136.661  15
   3   6   2 1262.07 167.557  14
  -3  -6  -2 1244.90 161.879   6
  -3  -6  -2 1332.82 168.506   3
   3   6   2 1125.22 158.723  11
   3   6   2 1512.60 162.347  10
   3   6   2 1254.49 140.133   9
  -3  -6  -2 1346.21 155.390   8
  -3  -6  -2 1372.77 155.836   2
   3   6   2 1273.10 148.089   1
   3  -6   3 67.2672 54.4759   8
  -3  -6  -3-6.93903 40.9833  16
  -3  -6  -3 23.6650 29.1965   2
   3   6   3 19.6016 25.6104  15
   3  -6   3 35.2580 51.0242   4
   3   6   3 65.8387 35.1270  14
  -3  -6  -3 16.0255 21.4543   6
  -3  -6  -3-36.9743 11.0232   3
   3   6   3 24.4119 12.5792  11
   3   6   3 39.7259 21.4110   1
   3  -6   3-37.5421 39.4347   1
  -3   6  -3 85.3706 40.4226   2
   3  -6   3 34.9822 21.2824   5
  -3  -6  -4 483.429 101.248  16
   3   6   4 497.016 103.274  15
   3  -6   4 511.014 123.641   4
   3   6   4 482.759 106.860  14
  -3  -6  -4 475.402 118.683   6
  -3   6  -4 68.3682 117.982  13
  -3  -6  -4 577.931 118.210   3
   3   6   4 478.166 115.387  11
  -3   6  -4 499.092 100.793   2
   3  -6   4 500.213 123.718   5
   3  -6   4 458.471 104.659   1
  -3  -6  -5 104.681 29.9209  16
   3   6   5 177.299 74.4535  15
   3  -6   5 98.0217 47.4865   4
   3   6   5 164.666 48.2440  14
   3  -6   5 141.897 61.7229   1
  -3   6  -5 7.57768 59.5146  13
  -3   6  -5 168.072 56.2389   2
  -3   6  -5 1.46241 51.2677  12
   3   6   5 154.124 80.7804  11
   3  -6   5 182.768 74.1769   5
  -3   6  -6 23.6992 72.7283  16
   3  -6   6 180.191 80.6516   4
   3  -6   6 334.324 87.2719  15
  -3   6  -6 252.884 79.6469   2
  -3   6  -6 23.3155 84.8541  13
  -3   6  -6 7.51670 63.6184  12
   3  -6   6 212.925 78.9392   1
   3  -6   6 168.503 76.2755   5
   3  -6   7-78.9401 66.6009   4
   3  -6   7-63.2631 61.3309  15
  -3   6  -7 1.97379 58.3724  13
  -3   6  -7 0.92503 35.5746  12
   3  -6   7 33.3384 22.7300   5
   3  -6   8-62.0240 51.8405   4
   3  -6   8 28.0316 80.4294  15
  -3   6  -8-93.7602 80.7737  13
  -3   6  -8 5.91931 13.7694  12
   3  -6   8 126.669 60.5929   5
  -3   6  -9-25.3128 46.7486  13
  -3  -7   1 363.007 85.9580   7
   3   7  -1 339.634 96.9781  14
  -3  -7   1 367.257 104.245   6
  -3  -7   1 461.687 107.038   3
   3   7  -1 365.639 90.6264   9
  -3  -7   0 91.1716 42.5883   7
   3   7   0 34.8777 29.9245  14
  -3  -7   0 50.2226 30.3426   6
   3   7   0 74.6448 48.6648  11
  -3  -7   0 11.6509 29.4484   3
   3   7   0 54.3850 40.9921   9
  -3  -7  -1 233.370 63.6343   7
  -3  -7  -1 327.121 76.6927   2
   3   7   1 208.340 57.3698  14
  -3  -7  -1 213.136 63.0809   6
   3   7   1 289.957 87.7318  11
  -3  -7  -1 234.477 75.2110   3
   3   7   1 360.220 91.0026  10
   3   7   1 286.870 71.9320   9
  -3  -7  -1 357.945 96.0008   8
  -3  -7  -2 900.474 141.598  16
  -3  -7  -2 584.535 129.543   2
   3   7   2 728.957 126.620  14
  -3  -7  -2 724.925 131.195   6
   3   7   2 697.736 124.312  11
  -3  -7  -2 733.414 134.306   3
   3   7   2 936.955 142.901  10
   3   7   2 960.695 144.008   9
  -3  -7  -2 832.443 131.745   8
  -3  -7  -3 903.705 146.903  16
   3   7   3 928.008 135.394  15
   3   7   3 766.436 143.962  14
  -3  -7  -3 978.663 160.613   3
  -3  -7  -3 815.699 145.153   6
   3   7   3 832.281 140.362  11
  -3  -7  -4 737.782 167.073  16
   3   7   4 833.304 144.920  15
   3  -7   4 773.971 162.481   4
   3   7   4 815.349 152.297  14
  -3  -7  -4 907.875 185.865   6
  -3   7  -4 146.593 151.892  13
  -3  -7  -4 689.049 141.784   3
   3   7   4 774.012 153.306  11
   3  -7   4 774.411 159.443   5
   3  -7   5 82.2858 62.0964   4
  -3   7  -5 31.2832 102.467  13
   3  -7   5-69.9772 49.5864   5
   3  -7   6 188.719 87.6275   4
  -3   7  -6 15.0350 49.8870  13
  -3   7  -6 17.0054 62.7686  12
   3  -7   6 41.1817 44.4956   5
   3  -7   7 70.5147 49.3277   4
  -3   7  -7 31.2216 41.8880  13
  -3   7  -7 6.73671 59.1828  12
   3  -7   8 10.9780 26.7230   4
  -3   7  -8 14.6746 47.9571  13
  -3   7  -8-16.9089 33.8738  12
   3  -7   8 91.3778 73.1742   5
  -3   7  -9-67.0355 51.1307  13
  -3  -8   2-4.19750 30.4322   7
  -3  -8   2 26.4058 39.5116   6
  -3  -8   2-46.6708 50.9723   3
  -3  -8   1 1755.91 212.707   7
   3   8  -1 1242.94 195.888  14
  -3  -8   1 1516.13 212.143   6
  -3  -8   1 1454.88 188.284   3
   3   8  -1 1543.85 197.811   9
  -3  -8   0 151.051 56.1019   7
   3   8   0 146.099 56.2687  14
  -3  -8   0 121.083 57.6536   6
   3   8   0 141.790 64.0602  11
  -3  -8   0 118.127 54.4307   3
   3   8   0 27.2962 33.5723   9
  -3  -8   0 75.3519 43.7697   8
  -3  -8  -1 26.7963 16.0754   7
   3   8   1-35.5003 50.6790  14
  -3  -8  -1 8.75612 37.3637   6
   3   8   1-46.0918 36.1694  11
  -3  -8  -1 6.81702 14.9348   3
   3   8   1 20.2717 36.7743  10
   3   8   1 36.5067 36.1359   9
  -3  -8  -1 26.6468 34.3679   8
   3   8   2 77.0285 48.4755  14
  -3  -8  -2 41.6245 39.4127   6
  -3  -8  -2 24.5711 22.8688   3
   3   8   2 54.0276 27.5428  11
   3   8   2-34.0819 48.5819  10
  -3  -8  -2 83.4724 66.4895   8
   3   8   3 356.200 113.697  14
  -3  -8  -3 412.703 110.035   6
  -3  -8  -3 304.006 96.9470   3
   3   8   3 225.375 80.7037  11
   3   8   4 104.088 27.4710  14
   3   8   4 106.803 69.4243  11
   3  -8   5 218.384 99.2127   4
  -3   8  -5 18.9315 118.905  13
   3  -8   5 318.869 113.585   5
   3  -8   6 156.260 70.6798   4
  -3   8  -6 45.0511 82.9741  13
  -3   8  -6 4.65542 69.3429  12
   3  -8   6 158.094 70.3059   5
   3  -8   7 324.574 116.674   4
  -3   8  -7 34.6078 101.592  13
  -3   8  -7 37.6415 98.3834  12
   3  -8   7 221.221 75.2303   5
  -3  -9   2 122.683 45.5304   7
  -3  -9   2 87.7562 51.9878   6
  -3  -9   2 98.9837 51.7763   3
   3   9  -2 75.3385 59.0788   9
  -3  -9   1-7.32803 50.1582   7
  -3  -9   1-47.9590 51.0381   6
  -3  -9   1-57.3296 43.7858   3
   3   9  -1 3.72669 42.0439   9
  -3  -9   0 40.2993 23.1209   7
   3   9   0-9.44868 42.5262  14
  -3  -9   0-30.1326 48.5973   3
   3   9   0-6.07953 12.3226  11
   3   9   0-18.3390 20.7433   9
  -3  -9   0 32.2072 15.4229   8
  -3  -9  -1 122.336 82.1117   7
   3   9   1-72.5735 43.5832  14
  -3  -9  -1 51.3886 41.3201   6
  -3  -9  -1 47.8720 42.4186   3
   3   9   1-66.6928 50.2957  11
   3   9   1 63.6139 56.2417  10
   3   9   1-59.7126 56.6374   9
  -3  -9  -1-88.6406 22.5564   8
   3   9   2 110.223 56.8271  14
  -3  -9  -2 45.8014 26.7782   6
  -3  -9  -2 45.2138 56.6233   3
   3   9   2 32.3496 45.1828  11
   3   9   2 76.0035 73.0065  10
  -3  -9  -2 80.0684 59.7871   8
   3   9   3 609.123 157.871  14
  -3  -9  -3 515.326 152.064   6
   3   9   3 408.075 110.083  11
   3  -9   5 110.936 96.0096   4
   3  -9   5 187.759 101.143   5
   3  -9   6-21.7253 42.9755   4
  -3   9  -6-0.94422 48.9379  13
   3  -9   6 84.3487 58.2996   5
  -3 -10   2 109.161 73.1180   6
  -3 -10   1 15.8513 7.01558   6
  -3 -10   1 6.62618 24.6530   3
   3  10  -1-22.9774 25.3013   9
  -3 -10   0 61.8476 44.8699   7
   3  10   0 12.8164 47.6476  14
  -3 -10   0 116.729 20.2559   6
  -3 -10   0 40.9279 48.4358   3
   3  10   0 5.04469 25.7609  11
   3  10   0 39.2969 47.4538  10
   3  10   0-5.87231 34.5649   9
  -3 -10   0 66.5651 58.1548   8
   3  10   1 68.9907 75.9047  14
  -3 -10  -1-8.30158 41.6669   6
  -3 -10  -1-22.5484 37.8420   3
   3  10   1 54.9414 9.04242  11
   3  10   1 85.0967 37.9512  10
   3  10   1 16.6565 49.3839   9
  -3 -10  -1 163.553 87.2462   8
   3  10   2 103.185 63.4197  14
  -3 -10  -2 11.6819 37.6716   6
   3  10   2 37.7717 19.4611  11
  -4   0  -2 928.144 146.826   2
  -4   0  -2 1017.31 161.564  16
   4   0   2 971.815 152.970   1
  -4   0  -2 846.972 133.534   3
   4   0   2 930.928 137.464   4
  -4   0  -3 28.5566 15.4245  16
   4   0   3-43.3063 29.7976  15
   4   0   3 24.0322 34.3128   4
   4   0   3 2.60509 9.10714  14
  -4   0  -3 0.54863 29.8230  13
  -4   0  -3 4.13147 29.4236   2
  -4   0  -3 18.3536 6.78671   3
   4   0   3 64.1295 56.4566   1
  -4   0  -4 1574.72 197.476  16
   4   0   4 1486.70 197.882   1
   4   0   4 1705.32 197.597  15
   4   0   4 1758.65 193.019  14
  -4   0  -4 1696.42 186.602   3
  -4   0  -4 1735.24 204.723  13
   4   0   4 1616.58 184.261   4
  -4   0  -4 1559.18 191.154   2
  -4   0  -5 72.7384 55.1517  16
   4   0   5 55.6610 45.9404   4
   4   0   5 91.0421 51.9406  15
   4   0   5-29.5111 40.5475  14
  -4   0  -5-6.04029 16.5046  13
  -4   0  -5-2.04905 27.0435   2
  -4   0  -5 12.9915 27.6774   3
   4   0   5 33.3802 30.8850   1
  -4   0  -6 1008.93 163.116  16
   4   0   6 1858.67 217.842  15
   4   0   6 1904.65 204.170  14
  -4   0  -6 1984.87 213.894   3
  -4   0  -6 2027.86 226.488  13
  -4   0  -6 1861.87 220.723   2
   4   0   6 1889.95 214.142   4
   4   0   6 1808.24 222.783   1
  -4   0  -7-30.0843 16.5528  16
   4   0   7-10.2042 27.8740  15
  -4   0  -7 8.60104 35.0572   2
   4   0   7-35.4980 17.3636  14
  -4   0  -7 43.7995 20.8453  13
   4   0   7-51.5789 41.7757   1
   4   0   7 45.7052 40.7595   4
  -4   0  -8 183.908 87.3658  16
  -4   0  -8 252.220 106.533   2
   4   0   8 171.762 90.0953  15
   4   0   8 127.405 38.5078  14
  -4   0  -8 151.838 87.4217  13
   4   0   8 145.738 78.1388   1
  -4  -1  -2 567.566 114.162  16
   4   1   2 689.715 125.911  15
  -4  -1  -2 701.477 100.749   6
  -4  -1  -2 646.365 120.855   3
   4   1   2 657.970 121.381   1
  -4  -1  -2 660.617 123.710   2
   4   1   2 629.202 111.494   4
  -4  -1  -3-4.63191 32.7700  16
   4   1   3-33.0808 26.6008   4
   4  -1   3-25.8244 36.2290   1
   4   1   3-27.9843 13.8436  15
  -4   1  -3 1.65877 9.06493  16
   4  -1   3-17.6656 41.0755  15
   4  -1   3 98.1581 54.3604   4
   4   1   3 31.1346 15.8397  14
  -4   1  -3-1.78697 45.1125  13
  -4  -1  -3-43.8960 42.7550  13
   4   1   3 18.9311 27.4921   1
  -4  -1  -3-35.1009 46.1989   2
  -4   1  -3-62.1255 43.4849   2
  -4  -1  -3-94.3935 60.0519   3
  -4   1  -3 54.2849 36.5332   3
  -4  -1  -4 34.2955 21.6869  16
  -4   1  -4 4.91518 35.4392  16
   4   1   4 18.2003 26.5370   4
   4  -1   4-29.2690 12.4012   4
   4   1   4-51.4249 73.9415  15
   4  -1   4-11.7489 21.6705  15
   4   1   4-37.4943 44.9438  14
   4  -1   4-51.5782 32.9526   1
  -4  -1  -4-41.5635 36.3645  13
  -4   1  -4-108.972 73.4077  13
  -4  -1  -4-32.7911 33.9514   2
  -4   1  -4-19.3484 41.4412   2
  -4  -1  -4-12.5281 22.5870   3
  -4   1  -4-43.4919 53.2182   3
   4   1   4 28.8662 23.0453   1
   4   1   5 6.63850 17.6096   4
  -4  -1  -5 66.3131 46.4246  16
  -4   1  -5 49.4498 43.6698  16
   4  -1   5 13.6367 19.7309   4
   4   1   5-77.2055 55.0970  15
   4  -1   5-53.1197 56.4403  15
   4   1   5-13.8123 8.03002  14
   4  -1   5-4.84467 25.5723  14
  -4  -1  -5-40.0666 19.7000  13
  -4   1  -5 79.0618 52.1299  13
  -4  -1  -5 60.0959 42.4331   2
   4   1   5 59.5115 41.5845   1
  -4   1  -5 12.3026 39.9891   2
  -4   1  -5-24.7308 34.5833   3
  -4  -1  -5 35.7164 6.73310   3
   4  -1   5-6.10578 9.90860   1
   4   1   6 125.572 47.9783   4
   4   1   6 141.067 56.8026   1
  -4  -1  -6 156.804 76.6480  16
  -4   1  -6 63.1711 14.6342  16
   4  -1   6 79.4489 60.9032   4
   4   1   6 172.693 80.0215  15
   4  -1   6 69.0454 36.9948  15
   4   1   6 143.299 61.1107  14
   4  -1   6 139.662 41.9385  14
  -4  -1  -6 126.226 67.9259   2
  -4  -1  -6 141.372 60.7829  13
  -4   1  -6 167.834 67.0040  13
  -4   1  -6 148.496 53.9652   2
  -4   1  -6 85.2365 45.4229   3
  -4  -1  -6 118.118 40.2692   3
   4  -1   7 328.058 92.5406   4
  -4  -1  -7 343.102 105.565  16
  -4   1  -7 426.246 116.182  16
   4   1   7 337.606 100.885  15
   4  -1   7 427.394 106.414  15
  -4  -1  -7 481.589 133.925   2
  -4   1  -7 384.110 116.041   2
   4   1   7 373.518 98.9613  14
   4  -1   7 425.817 99.4747  14
  -4  -1  -7 349.053 99.7460  13
  -4   1  -7 348.793 96.2394  13
   4   1   7 312.435 92.5978   1
   4  -1   7 299.624 85.7933   1
  -4  -1  -8 276.009 98.2970  16
  -4   1  -8 419.987 113.019  16
  -4  -1  -8 147.404 82.6043   2
  -4   1  -8 558.804 149.577   2
   4   1   8 512.768 139.880  15
   4  -1   8 360.233 85.3915  15
  -4   1  -8 376.495 108.913  13
   4   1   8 284.610 101.071   1
   4  -1   8 455.496 135.703   1
   4   2   2 29.9538 18.8999   1
  -4  -2  -2 18.8878 40.8690  16
   4   2   2 41.2234 31.8470   4
   4   2   2-13.3010 30.5492  15
   4   2   2 33.7012 30.3044  14
  -4  -2  -2 14.1001 6.56828   6
  -4  -2  -2-5.52476 24.7574   2
  -4  -2  -2 33.3126 22.4086   3
  -4  -2  -3 64.7940 41.4306  16
  -4   2  -3 55.4323 29.3430  16
   4   2   3 74.9118 26.9454   4
   4   2   3 52.9775 22.1160  15
   4  -2   3 52.6297 23.1075   4
   4  -2   3 143.692 69.9027   1
   4   2   3 69.7726 25.7404  14
   4   2   3 52.0432 31.3593   1
  -4   2  -3 38.6245 26.3014  13
  -4  -2  -3 87.4091 36.6323   6
  -4  -2  -3 100.324 47.1688   2
  -4  -2  -3 104.309 52.1427   3
  -4   2  -3 67.2174 46.4358   2
  -4   2  -3 149.967 121.768   3
   4  -2   3 21.9081 28.4047   5
  -4   2  -4 469.105 109.206  16
   4   2   4 540.661 117.224  15
   4  -2   4 348.164 92.8504   4
   4  -2   4 565.043 123.809  15
   4   2   4 493.577 105.073  14
  -4  -2  -4 430.946 104.107  16
   4  -2   4 548.870 127.700   1
  -4  -2  -4 374.092 90.9597  13
  -4   2  -4 445.800 115.634  13
   4   2   4 357.705 75.1919   4
  -4  -2  -4 399.755 98.0096   2
  -4   2  -4 448.443 106.056   2
  -4  -2  -4 384.133 92.6041   3
  -4   2  -4 402.316 91.4805   3
   4   2   4 418.373 116.935   1
   4  -2   4 463.853 87.6546   5
   4   2   5 72.5863 49.4549   4
  -4  -2  -5 0.34608 21.6424  16
  -4   2  -5 99.0407 42.3501  16
   4  -2   5 9.84922 31.2600   4
   4   2   5 100.994 55.1129  15
   4  -2   5-5.24855 10.3499  15
   4   2   5 48.8870 27.9574  14
  -4  -2  -5 17.5225 20.4821   2
  -4  -2  -5 33.2771 12.5445  13
  -4   2  -5 15.1999 34.8025  13
  -4   2  -5 16.2990 42.8596   2
  -4  -2  -5-20.4654 28.5236   3
   4  -2   5 54.3701 49.3246   1
  -4  -2  -6 179.721 67.2190  16
  -4   2  -6 237.722 87.2891  16
   4  -2   6 156.494 68.4420   4
   4   2   6 188.402 75.6080  15
  -4  -2  -6 158.032 67.7879   2
   4   2   6 112.478 33.2871  14
   4  -2   6 198.562 75.9871   1
  -4  -2  -6 198.768 66.8690  13
  -4   2  -6 150.712 59.1470  13
  -4   2  -6 154.329 67.3214   2
  -4  -2  -6 178.509 69.0799   3
   4   2   6 185.350 69.6752   1
   4  -2   7 329.183 99.9901   4
  -4  -2  -7 316.822 115.959  16
  -4   2  -7 360.825 96.5556  16
   4   2   7 472.241 137.719  15
  -4  -2  -7 370.557 112.828   2
   4  -2   7 296.344 74.6080  15
   4   2   7 289.475 87.0034  14
  -4   2  -7 418.491 127.797   2
  -4  -2  -7 175.458 60.4792  13
  -4   2  -7 467.513 118.637  13
   4   2   7 205.641 78.5221   1
   4  -2   7 278.141 93.9556   1
   4  -2   8 12.0099 22.3922   4
  -4   2  -8-23.4781 14.6216  16
   4  -2   8 6.76729 15.2947  15
  -4   2  -8 22.7981 9.39275   2
  -4   2  -8 28.5057 59.1453  13
   4  -2   8 51.3172 50.9007   1
  -4  -3  -1 1457.94 187.528   2
   4   3   1 1856.74 212.528   1
   4   3   1 1819.03 225.061  14
  -4  -3  -1 1498.59 176.947   6
  -4  -3  -1 1423.33 190.084   3
  -4  -3  -2 48.1051 34.3667  16
   4   3   2 29.8855 31.7780  15
   4   3   2 45.1037 45.4335  14
  -4  -3  -2-1.13919 34.1218   6
   4   3   2 29.4379 14.3265   1
  -4  -3  -2-36.7739 42.2996   2
  -4  -3  -2 5.53394 26.5426   3
  -4  -3  -3 2731.01 258.602  16
   4   3   3 2644.81 248.080   1
   4   3   3 2825.56 252.238  15
   4   3   3 2855.71 264.014  14
  -4  -3  -3 2828.16 228.205   6
  -4  -3  -3 2660.86 256.485   3
  -4  -3  -3 2725.18 248.708   2
  -4  -3  -4 163.213 68.4952  16
  -4   3  -4 37.4567 19.0579  16
   4   3   4 141.439 61.9808  15
   4  -3   4 79.0960 49.8559   4
   4  -3   4 86.2658 50.9784  15
   4   3   4 166.019 66.7423  14
  -4  -3  -4 93.1051 35.3952   6
  -4  -3  -4 90.6424 34.3646  13
  -4   3  -4 202.660 83.3301  13
   4  -3   4 104.604 53.6995   1
  -4  -3  -4 115.778 51.1582   2
   4   3   4 186.554 70.1207   1
  -4  -3  -4 53.6224 26.6995   3
  -4   3  -4 46.2812 34.0112   2
   4  -3   4 191.136 74.2060   5
   4   3   5 224.401 83.7830   1
  -4  -3  -5 272.609 87.0200  16
  -4   3  -5 325.826 96.3752  16
   4  -3   5 282.962 93.9942   4
   4   3   5 228.309 74.7961  15
   4  -3   5 376.154 102.447  15
   4   3   5 337.246 94.6894  14
  -4  -3  -5 300.241 80.5853   2
  -4  -3  -5 277.779 75.2359  13
  -4   3  -5 286.651 86.8820  13
  -4   3  -5 268.007 85.5519   2
  -4  -3  -5 335.240 92.3041   3
   4  -3   5 269.869 68.2086   5
   4  -3   5 256.463 80.0005   1
  -4  -3  -6 120.711 73.2421  16
  -4   3  -6 71.8655 54.0475  16
   4  -3   6-7.71837 27.4596   4
   4   3   6 2.72537 52.4265  15
   4  -3   6 30.1803 40.8227  15
  -4  -3  -6 17.0435 32.9599   2
   4   3   6 28.4063 26.3279  14
   4  -3   6-22.8232 51.5048   1
  -4   3  -6 8.85658 20.4053  13
  -4   3  -6-28.5162 31.3585   2
  -4  -3  -6-43.9379 64.2693   3
   4   3   6 18.2917 23.8505   1
   4  -3   6 7.22927 25.8583   5
  -4  -3  -7 247.591 118.454  16
   4  -3   7 431.038 117.170   4
  -4   3  -7 600.068 141.805  16
  -4  -3  -7 356.767 146.427   2
   4  -3   7 412.499 110.339  15
   4   3   7 767.917 183.714  14
  -4   3  -7 459.531 116.859   2
  -4   3  -7 435.615 105.087  13
   4   3   7 480.263 138.594   1
   4  -3   7 503.073 125.128   1
   4  -3   8 44.0458 27.6979   4
  -4   3  -8 164.223 86.0236  16
  -4   3  -8 165.307 85.4723   2
   4  -3   8 97.1414 67.8756  15
  -4   3  -8 24.1098 71.8150  13
   4  -3   8 104.579 60.4211   1
  -4   3  -9-1.46704 24.8674  16
   4  -3   9 21.8700 23.2975  15
  -4   3  -9 32.4276 69.1839  13
   4   4   1 41.6002 33.0643  14
  -4  -4  -1 89.9739 48.1910   6
  -4  -4  -1 150.292 73.7588   2
   4   4   1-32.2294 29.6610   1
  -4  -4  -1-18.0754 17.9546   3
  -4  -4  -2 1019.45 163.082  16
   4   4   2 957.806 146.557   1
   4   4   2 1006.90 156.469  15
   4   4   2 969.745 156.162  14
  -4  -4  -2 1049.86 148.053   6
  -4  -4  -2 1108.91 174.524   3
  -4  -4  -2 983.262 150.929   2
  -4  -4  -3 321.779 91.1565  16
   4   4   3 436.367 105.212  15
   4   4   3 367.897 100.454  14
  -4  -4  -3 370.774 91.4810   6
  -4  -4  -3 418.378 90.0339   2
   4   4   3 373.573 89.2229   1
  -4  -4  -3 281.192 86.6082   3
  -4  -4  -4 682.058 128.369  16
   4   4   4 618.274 128.667   1
   4   4   4 788.245 133.647  15
   4  -4   4 802.811 164.370   4
   4   4   4 784.399 150.960  14
  -4  -4  -4 749.600 124.824   6
  -4  -4  -4 617.562 122.307   2
   4  -4   4 640.257 152.541   1
  -4   4  -4 41.5886 145.489  13
  -4  -4  -4 706.634 136.608   3
   4   4   4 634.641 117.895  11
  -4   4  -4 570.079 132.239   2
   4  -4   4 719.039 141.906   5
  -4  -4  -5 645.366 133.837  16
  -4   4  -5 480.584 116.517  16
   4  -4   5 702.154 146.888   4
   4   4   5 786.221 143.524  15
   4  -4   5 617.917 124.103  15
  -4  -4  -5 717.876 140.465   2
   4   4   5 675.967 142.194  14
  -4   4  -5 44.2374 157.036  13
  -4   4  -5 688.640 135.864   2
  -4  -4  -5 607.966 130.286   3
   4   4   5 573.392 111.745  11
   4  -4   5 717.368 128.594   5
   4   4   5 623.927 128.241   1
   4  -4   5 706.641 140.841   1
  -4  -4  -6 225.519 97.3697  16
  -4   4  -6 196.009 71.8962  16
   4  -4   6 157.618 58.2347   4
  -4  -4  -6 158.235 61.6171   2
   4   4   6 283.688 97.6802  15
   4  -4   6 284.721 84.4077  15
   4  -4   6 106.693 43.3162   1
   4   4   6 266.189 104.256  14
  -4   4  -6 190.472 79.4329   2
  -4   4  -6 13.5908 82.0815  13
  -4  -4  -6 13.2039 35.3436   3
   4   4   6 178.261 74.7376   1
   4  -4   6 231.699 73.2096   5
   4  -4   7 486.623 119.756   4
  -4   4  -7 391.700 108.445  16
   4  -4   7 565.584 128.321  15
  -4   4  -7 495.670 117.613   2
  -4   4  -7 50.9084 123.589  13
   4  -4   7 438.177 106.706   5
   4  -4   7 434.961 115.582   1
   4  -4   8-32.1456 62.2084   4
  -4   4  -8 43.2921 38.8730  16
  -4   4  -8-20.2619 41.2931   2
   4  -4   8 81.0657 48.1933  15
  -4   4  -8-62.7033 59.0117  13
   4  -4   8-19.0053 38.8825   1
  -4   4  -8 15.5230 45.4786  12
  -4   4  -9-48.0769 60.6691  16
  -4   4  -9 24.7628 70.3536  13
   4  -4   9 165.656 78.8028   4
   4   5   1 463.998 103.784   1
   4   5   1 573.689 132.008  14
  -4  -5  -1 493.193 112.794   6
  -4  -5  -1 540.718 115.726   2
  -4  -5  -1 359.680 106.803   3
   4   5   2 2412.73 242.734   1
  -4  -5  -2 2029.81 226.022  16
   4   5   2 2470.17 240.607  15
   4   5   2 2542.15 271.906  14
  -4  -5  -2 2578.54 249.464   6
  -4  -5  -2 2462.05 257.019   3
  -4  -5  -2 2475.66 238.026   2
   4   5   3 71.1104 12.2336  15
   4   5   3 53.1766 31.5596   1
   4   5   3 8.93785 42.7708  14
  -4  -5  -3 67.1688 51.0490   2
  -4  -5  -3 31.1050 17.4099   6
  -4  -5  -3 0.73511 17.9390   3
  -4  -5  -4-11.6226 11.5455  16
   4   5   4-30.7310 29.7726  15
  -4  -5  -4 15.5385 24.1910   2
   4   5   4-0.38078 42.4760  14
  -4  -5  -4-81.5953 53.2958   6
  -4  -5  -4 93.6126 60.1697   3
   4   5   4 96.6308 57.9047  11
   4   5   4-9.27600 2.95167   1
  -4  -5  -5 49.2350 71.3511  16
  -4  -5  -5 106.622 70.1072   2
   4  -5   5 163.029 95.1511   4
   4   5   5 23.7263 25.7480  15
   4   5   5-105.644 72.1580  14
  -4  -5  -5 83.2425 85.8184   6
  -4   5  -5 9.67789 40.1874  13
  -4   5  -5-50.5934 66.6380   2
  -4  -5  -5-55.4069 61.9097   3
   4   5   5 29.3346 17.8094   1
   4   5   5 32.5049 12.5042  11
   4  -5   5 21.1483 50.9453   1
   4  -5   5-34.2408 69.9548   5
  -4   5  -6 5.21961 45.5498  16
   4  -5   6 74.9682 52.0529   1
   4  -5   6-0.23122 24.5081   4
   4   5   6 75.1484 36.1258  14
  -4   5  -6-37.3107 56.9802   2
  -4   5  -6-2.46486 40.7016  13
  -4  -5  -6-17.4138 63.2429   3
   4  -5   6 83.8886 35.7057   5
   4  -5   7 12.8506 35.1515   4
  -4   5  -7 1.98604 31.3587  16
   4  -5   7-26.2115 44.7441  15
  -4   5  -7 21.6324 28.0128   2
  -4   5  -7 32.7584 41.6101  13
   4  -5   7-20.8739 14.0902   5
   4  -5   7-48.0772 21.6429   1
   4  -5   8-17.2942 30.1871   4
  -4   5  -8-64.6474 53.0479  16
  -4   5  -8 41.9209 29.0959   2
   4  -5   8 21.0006 70.3110  15
  -4   5  -8-106.071 76.5133  13
   4  -5   8 121.067 30.0924   1
  -4   5  -8-16.1169 52.5274  12
   4  -5   8 3.33952 25.0831   5
  -4  -6   0 12.5715 44.2463   6
  -4  -6   0 28.9564 9.70569   3
   4   6   1 16.5822 59.0765  14
  -4  -6  -1-2.34789 41.4770   6
  -4  -6  -1-34.3466 46.4269   2
  -4  -6  -1-3.31904 50.6370   3
   4   6   1 30.0276 35.4456   1
  -4  -6  -2 117.066 65.2571  16
   4   6   2 249.803 83.0154  15
   4   6   2 240.868 81.3136  14
   4   6   2 237.732 77.3735   1
  -4  -6  -2 178.813 57.3888   2
  -4  -6  -2 196.009 79.2521   6
  -4  -6  -2 261.913 90.7938   3
  -4  -6  -3 76.5545 53.6589  16
   4   6   3 38.0819 12.6042  15
  -4  -6  -3 117.043 30.8333   2
   4   6   3 48.4258 64.0091  14
  -4  -6  -3 44.2965 47.0126   6
  -4  -6  -3 80.5083 50.5107   3
   4   6   3 5.84707 31.4259  11
   4   6   3 36.1000 56.3406   1
  -4  -6  -4 63.3063 21.7210   2
   4   6   4 41.4627 37.3174  15
   4   6   4 47.1167 27.4440  14
  -4  -6  -4-57.9824 66.1198   6
  -4  -6  -4-13.2700 35.3204   3
   4   6   4 3.59512 47.5768   1
   4   6   4 18.3623 10.2633  11
  -4  -6  -5 81.2543 48.3159  16
   4  -6   5-33.7900 67.4723   4
   4   6   5-12.7949 23.4816  15
   4   6   5-30.6209 34.8828  14
  -4   6  -5-7.50469 43.4030  13
  -4  -6  -5 39.6009 40.5193   3
   4   6   5-33.2254 63.0270  11
   4  -6   5 54.3971 79.5773   5
   4  -6   6 220.012 108.702   1
   4  -6   6 152.255 75.7730   4
   4   6   6 178.956 80.3862  14
  -4   6  -6 143.761 96.1113   2
  -4   6  -6 312.318 104.591  13
   4  -6   6 151.095 61.2464   5
   4  -6   7 56.7588 57.6411   4
  -4   6  -7 40.2165 24.8168  13
   4  -6   7 52.3336 51.9487   1
   4  -6   7 66.1346 43.4267   5
  -4  -7   0 264.289 110.345   6
  -4  -7   0 352.183 126.523   3
   4   7   1 55.6051 27.6582  14
  -4  -7  -1 91.8244 43.6786   6
  -4  -7  -1 2.84883 41.9760   3
  -4  -7  -2 35.2492 58.1112   2
   4   7   2 54.8056 19.2742  14
  -4  -7  -2 104.891 58.5986   6
  -4  -7  -2 64.0107 28.0757   3
  -4  -7  -3-75.1315 40.9494  16
  -4  -7  -3-49.4784 69.5826   2
   4   7   3-78.4568 78.6715  14
  -4  -7  -3 27.0286 34.5169   6
   4   7   3-24.6457 26.5735  11
  -4  -7  -4 39.4109 47.1374  16
   4   7   4-0.67266 65.7691  15
   4   7   4-31.8780 34.4198  14
   4   7   4-1.70646 49.8472  11
  -4  -7  -5 24.9874 13.2338   3
  -4   7  -6 17.5249 32.1481  13
   4  -7   6 98.2639 27.5284   5
  -4  -8   0-73.0978 87.1185   6
  -4  -8   0 161.697 91.3770   3
   4   8   1 31.8488 43.4501  14
  -4  -8  -1 139.239 60.7442   6
  -4  -8  -1 25.5811 26.9278   3
   4   8   2 179.254 72.7854  14
  -4  -8  -2 67.2755 29.8197   6
  -4  -8  -2 177.769 82.3142   3
   4   8   2 17.6379 32.3213  11
   4   8   3 114.022 44.0449  14
  -4  -8  -3 47.9848 19.6151   6
  -4  -8  -3 205.267 92.2923   3
   4   8   3 240.813 88.9612  11
  -4  -8  -4 34.7505 18.1227   3
   4   8   4-8.79932 40.0140  11
  -4  -9   0 68.6878 34.3447   6
  -4  -9   0-6.69126 39.0625   3
  -5   0  -4 187.788 79.0199  16
   5   0   4 185.766 72.4687   1
  -5   0  -4 146.469 54.1622   2
   5   0   5-2.55726 35.4878   4
  -5   0  -5 38.7942 22.8441  16
   5   0   5-40.1936 49.9530  15
  -5   0  -5-56.1728 48.0984   2
  -5   0  -5 97.2073 69.6580   3
   5   0   5 61.2805 41.8236   1
   5   0   6 62.7789 42.9744   4
  -5   0  -6-146.477 144.960  16
   5   0   6 14.4259 39.8327   1
   5   0   6 13.8500 21.1445  15
   5   0   6 65.3136 50.9800  14
  -5   0  -6-11.9136 25.4307   2
  -5   0  -6-127.264 101.888  13
  -5   0  -6 128.871 64.6022   3
   5   0   7 62.2557 70.6408   4
  -5   0  -7-51.3255 41.6253  16
   5   0   7-21.1671 29.3380  15
  -5   0  -7 20.8255 36.2581   2
   5   0   7-70.2834 61.2965  14
  -5   0  -7-97.3751 110.293  13
   5   0   7 51.6008 63.6312   1
  -5  -1  -4 225.156 95.4622  16
   5   1   4 265.742 91.2217  15
  -5  -1  -4 191.590 87.5690   2
  -5  -1  -4 227.410 88.2655   3
   5   1   4 436.043 132.173   1
   5   1   5 44.8840 25.8183   4
  -5  -1  -5-37.7264 24.0508  16
  -5   1  -5 14.4941 29.4471  16
   5  -1   5 20.2174 20.0810   4
   5  -1   5-17.3535 76.4672  15
   5   1   5 29.4336 63.2896  14
  -5  -1  -5 20.0220 38.2312   2
  -5   1  -5 40.9492 61.4748   2
   5   1   5-58.2258 60.9230   1
  -5  -1  -5 26.5054 24.6440   3
   5  -1   5-55.5313 73.8151   1
   5   1   6-58.2554 58.8437   4
   5  -1   6 32.6599 48.9843   4
   5   1   6-34.5390 31.1172   1
  -5  -1  -6-72.9772 42.5477  16
  -5   1  -6-6.89958 24.8965  16
   5   1   6-108.267 54.4774  15
   5  -1   6 22.8144 47.5925  15
   5   1   6-97.8174 86.2901  14
  -5  -1  -6 112.831 89.1213   2
   5  -1   6-24.2176 48.8689   1
  -5   1  -6 21.0467 70.5505   2
  -5   1  -6 86.0670 83.7585  13
  -5  -1  -6 56.6137 42.9701  13
  -5  -1  -6 23.0369 39.5217   3
  -5  -2  -4 107.803 58.2986  16
   5   2   4 235.673 84.3803  15
   5   2   4 85.6599 60.3592  14
  -5  -2  -4 129.821 69.8687   2
   5   2   4 186.969 95.3933   1
  -5  -2  -5 45.6104 36.5556  16
   5   2   5-10.7857 40.7270  15
   5   2   5 7.40948 23.6477  14
   5   2   5-4.38644 31.5110   1
  -5  -2  -5 83.7981 41.7734   2
  -5   2  -5 59.7527 59.1909   2
  -5  -2  -5 47.7558 43.0385   3
   5  -2   5-46.2642 41.6289   1
  -5  -2  -6 13.5604 48.5650  16
   5  -2   6-84.7604 54.3297   4
  -5   2  -6-19.4414 62.1359  16
   5   2   6 36.6711 54.7897  15
   5  -2   6-55.3300 62.8523  15
  -5  -2  -6 36.4340 32.9021   2
   5   2   6 85.4504 47.2477  14
   5  -2   6-75.3318 36.9932   1
  -5   2  -6 13.6509 47.1106  13
  -5   2  -6-152.045 97.9874   2
  -5  -2  -6 2.91561 50.9326   3
   5   2   6-18.7246 73.9345   1
  -5  -3  -3 107.109 55.6320   2
  -5  -3  -3 24.5979 26.2301   3
   5   3   3 138.449 76.7044   1
  -5  -3  -4 49.3318 65.9372  16
   5   3   4 159.590 84.6620  15
   5   3   4 104.552 47.5377  14
  -5  -3  -4 55.5715 24.2957   2
   5   3   4 135.860 23.2036   1
  -5  -3  -4 119.425 62.4355   3
  -5  -3  -5 22.5567 70.5531  16
   5   3   5 115.783 91.3421   1
   5   3   5 227.142 105.559  15
   5   3   5 61.4759 71.5301  14
  -5  -3  -5 62.9774 32.1979   2
  -5  -3  -5 37.6871 24.3733   3
  -5  -3  -6 82.4357 48.1461  16
   5  -3   6 112.611 45.4889   4
   5   3   6 227.819 98.5256  15
  -5  -3  -6 199.340 91.8990   2
   5   3   6 147.691 59.8484  14
   5  -3   6 204.524 102.965   1
  -5   3  -6 19.9408 74.3510  13
  -5   3  -6 109.335 77.6169   2
  -5  -3  -6 89.1405 58.8313   3
   5   3   6 109.970 79.0858   1
   5   4   3 427.805 134.847  14
  -5  -4  -3 192.759 87.0720   2
  -5  -4  -3 106.723 50.9211   3
   5   4   3 313.307 106.443   1
  -5  -4  -4-39.7058 35.5756  16
   5   4   4-41.4850 57.2283  15
   5   4   4 9.54161 4.02295   1
  -5  -4  -4-5.84613 22.1343   2
  -5  -4  -4-30.2181 17.7494   3
  -5  -4  -5-56.2528 38.6469  16
   5   4   5 21.9326 40.4350  15
  -5  -4  -5 128.505 77.1001   2
   5   4   5 107.127 79.4711  14
  -5  -4  -5 58.9885 24.8113   3
   5   4   5-83.6423 77.7684   1
   5   5   3-49.2894 54.5611  14
  -5  -5  -3-45.3481 36.9350   2
   5   5   3-17.6429 46.0857   1
  -5  -5  -3 15.1724 52.5830   3
  -5  -5  -4-58.0500 37.0346  16
   5   5   4-60.4622 75.3084  15
  -5  -5  -4-51.4722 58.0842   2
   5   5   4 53.6654 50.4632  14
  -5  -5  -4-41.9389 49.4914   3
   5   5   4-122.107 87.4817   1
   0   0   0    0.00    0.00   0

TITL instrument in P2(1)/c
REM P2(1)/c (#14 in standard setting)
CELL 0.71073   5.096275  10.178404  13.822960  90.0000  99.2516  90.0000
ZERR    4.00   0.001110   0.001065   0.009662   0.0000   0.0434   0.0000
LATT  1
SYMM -x, y+1/2,-z+1/2
SFAC C H N O
UNIT 16.00 28.00 20.00 12.00
TREF
HKLF 4
END
;
_shelx_hkl_checksum              74546
_olex2_submission_special_instructions 'No special instructions were received'
_oxdiff_exptl_absorpt_empirical_details
;
Empirical correction (ABSPACK) includes:
- Absorption correction using spherical harmonics
- Frame scaling
;
_oxdiff_exptl_absorpt_empirical_full_max 3.533
_oxdiff_exptl_absorpt_empirical_full_min 0.797
loop_
_space_group_symop_operation_xyz
'x, y, z'
'-x, y+1/2, -z+1/2'
'-x, -y, -z'
'x, -y-1/2, z-1/2'
loop_
_atom_site_label
_atom_site_type_symbol
_atom_site_fract_x
_atom_site_fract_y
_atom_site_fract_z
_atom_site_U_iso_or_equiv
_atom_site_adp_type
_atom_site_occupancy
_atom_site_site_symmetry_order
_atom_site_calc_flag
_atom_site_refinement_flags_posn
_atom_site_refinement_flags_adp
_atom_site_refinement_flags_occupancy
_atom_site_disorder_assembly
_atom_site_disorder_group
C1 C 0.1055(14) 0.7902(4) 0.5386(8) 0.048(8) Uani 1 1 d . . . . .
H1 H -0.043965 0.829941 0.503073 0.058 Uiso 1 1 calc R . . . .
C2 C 0.3247(16) 0.8592(5) 0.5876(9) 0.056(8) Uani 1 1 d . . . . .
H2 H 0.348879 0.949809 0.589441 0.067 Uiso 1 1 calc R . . . .
C3 C 0.4931(14) 0.7677(4) 0.6314(9) 0.052(8) Uani 1 1 d . . . . .
H3 H 0.654842 0.782557 0.671689 0.063 Uiso 1 1 calc R . . . .
C4 C 0.4757(14) 0.5235(4) 0.6298(9) 0.043(8) Uani 1 1 d . . . . .
N1 N 0.3801(11) 0.6484(3) 0.6052(7) 0.033(8) Uani 1 1 d . . . . .
N2 N 0.1360(11) 0.6620(3) 0.5486(7) 0.055(7) Uani 1 1 d . . . . .
N3 N 0.3368(12) 0.4238(3) 0.5917(7) 0.066(7) Uani 1 1 d . . . . .
H3A H 0.396670 0.345331 0.602619 0.079 Uiso 1 1 calc R . . . .
H3B H 0.185031 0.436362 0.555602 0.079 Uiso 1 1 calc R . . . .
N4 N 0.7066(11) 0.5098(4) 0.6850(7) 0.061(7) Uani 1 1 d . . . . .
H4A H 0.772258 0.432670 0.697351 0.073 Uiso 1 1 calc R . . . .
H4B H 0.793373 0.577952 0.709046 0.073 Uiso 1 1 calc R . . . .
N5 N 0.2460(13) 0.6477(4) 0.8249(8) 0.068(8) Uani 1 1 d . . . . .
O1 O 0.4838(9) 0.6737(3) 0.8570(5) 0.065(6) Uani 1 1 d . . . . .
O2 O 0.1661(10) 0.5337(3) 0.8245(6) 0.086(7) Uani 1 1 d . . . . .
O3 O 0.0860(10) 0.7380(3) 0.7937(6) 0.062(7) Uani 1 1 d . . . . .
loop_
_atom_site_aniso_label
_atom_site_aniso_U_11
_atom_site_aniso_U_22
_atom_site_aniso_U_33
_atom_site_aniso_U_23
_atom_site_aniso_U_13
_atom_site_aniso_U_12
C1 0.043(6) 0.047(3) 0.06(2) 0.006(4) 0.010(10) 0.002(3)
C2 0.067(7) 0.043(3) 0.06(2) -0.002(4) 0.005(11) -0.009(3)
C3 0.049(6) 0.042(3) 0.062(18) -0.007(4) -0.004(9) -0.007(2)
C4 0.034(6) 0.041(3) 0.05(2) -0.001(4) 0.004(10) -0.002(2)
N1 0.029(5) 0.040(3) 0.029(18) 0.001(3) 0.006(9) 0.0000(18)
N2 0.041(5) 0.039(2) 0.078(15) -0.001(3) -0.008(8) 0.0002(18)
N3 0.057(5) 0.037(2) 0.092(16) 0.000(3) -0.025(9) 0.001(2)
N4 0.049(5) 0.052(3) 0.071(15) 0.002(3) -0.020(8) 0.001(2)
N5 0.060(6) 0.047(3) 0.087(19) -0.002(3) -0.021(10) 0.000(2)
O1 0.043(4) 0.047(2) 0.096(14) -0.005(3) -0.017(7) -0.0064(16)
O2 0.062(5) 0.047(2) 0.136(16) -0.001(3) -0.023(8) -0.0165(19)
O3 0.042(5) 0.062(3) 0.078(16) 0.010(3) 0.002(8) 0.0089(19)
loop_
_atom_type_symbol
_atom_type_description
_atom_type_scat_dispersion_real
_atom_type_scat_dispersion_imag
_atom_type_scat_source
C C 0.0033 0.0016 'International Tables Vol C Tables 4.2.6.8 and 6.1.1.4'
H H 0.0000 0.0000 'International Tables Vol C Tables 4.2.6.8 and 6.1.1.4'
N N 0.0061 0.0033 'International Tables Vol C Tables 4.2.6.8 and 6.1.1.4'
O O 0.0106 0.0060 'International Tables Vol C Tables 4.2.6.8 and 6.1.1.4'
loop_
_geom_angle_atom_site_label_1
_geom_angle_atom_site_label_2
_geom_angle_atom_site_label_3
_geom_angle
_geom_angle_site_symmetry_1
_geom_angle_site_symmetry_3
_geom_angle_publ_flag
N2 C1 C2 112.0(4) . . ?
C3 C2 C1 105.8(4) . . ?
C2 C3 N1 106.6(4) . . ?
N3 C4 N1 118.1(4) . . ?
N3 C4 N4 122.4(4) . . ?
N4 C4 N1 119.4(4) . . ?
C3 N1 C4 129.3(4) . . ?
N2 N1 C3 111.6(3) . . ?
N2 N1 C4 119.1(3) . . ?
C1 N2 N1 104.0(3) . . ?
O1 N5 O3 120.3(4) . . ?
O2 N5 O1 120.2(4) . . ?
O2 N5 O3 119.5(5) . . ?
loop_
_geom_bond_atom_site_label_1
_geom_bond_atom_site_label_2
_geom_bond_distance
_geom_bond_site_symmetry_2
_geom_bond_publ_flag
C1 C2 1.399(7) . ?
C1 N2 1.319(5) . ?
C2 C3 1.343(7) . ?
C3 N1 1.368(5) . ?
C4 N1 1.383(5) . ?
C4 N3 1.299(6) . ?
C4 N4 1.303(5) . ?
N1 N2 1.366(5) . ?
N5 O1 1.250(6) . ?
N5 O2 1.229(5) . ?
N5 O3 1.258(5) . ?
