#------------------------------------------------------------------------------
#$Date: 2019-01-16 15:48:30 +0200 (Wed, 16 Jan 2019) $
#$Revision: 213158 $
#$URL: file:///home/coder/svn-repositories/cod/cif/2/10/83/2108351.cif $
#------------------------------------------------------------------------------
#
# This file is available in the Crystallography Open Database (COD),
# http://www.crystallography.net/. The original data for this entry
# were provided by IUCr Journals, http://journals.iucr.org/.
#
# The file may be used within the scientific community so long as
# proper attribution is given to the journal article from which the
# data were obtained.
#
data_2108351
loop_
_publ_author_name
'Bernert, Thomas'
'Ley, Morten Brix'
'Ruiz-Fuertes, Javier'
'Fischer, Michael'
'Felderhoff, Michael'
'Weidenthaler, Claudia'
_publ_contact_author_address
;
Max-Planck-Institut fuer Kohlenforschung
Kaiser Wilhelm Platz 1
D-45470 Muelheim an der Ruhr
Germany
;
_publ_contact_author_email       cweiden@gwdg.de
_publ_contact_author_name        'Claudia Weidenthaler'
_publ_contact_author_phone       '+49 208 306 2181'
_publ_section_title
;
 Title (type here to add)
;
_publ_section_title_footnote     .
_journal_coden_ASTM              ASBSDK
_journal_coeditor_code           RA5011
_journal_date_accepted           2016-01-04
_journal_date_from_coeditor      2016-01-04
_journal_date_printers_first     2016-01-26
_journal_date_proofs_in          2016-03-04
_journal_date_proofs_out         2016-02-24
_journal_date_recd_electronic    2015-10-30
_journal_issue                   02
_journal_name_full               'Acta Crystallographica, Section B'
_journal_page_first              232
_journal_page_last               240
_journal_paper_category          FA
_journal_paper_doi               10.1107/S2052520616000093
_journal_techeditor_code         B160009
_journal_volume                  72
_journal_year                    2016
_chemical_formula_sum            'C4 H12 Al N'
_chemical_formula_weight         101.13
_space_group_IT_number           14
_symmetry_cell_setting           monoclinic
_symmetry_space_group_name_Hall  '-P 2ybc'
_symmetry_space_group_name_H-M   'P 1 21/c 1'
_audit_author_name               thomas
_audit_creation_date             2015-04-17T14:44
_audit_creation_method           'from EXP file using GSAS2CIF'
_audit_update_record
;
2015-04-17T14:44  Initial CIF as created by GSAS2CIF

2015-07-14 # Formatted by publCIF
;
_cell_angle_alpha                90.0
_cell_angle_beta                 90.6602(24)
_cell_angle_gamma                90.0
_cell_formula_units_Z            4
_cell_length_a                   7.40203(19)
_cell_length_b                   12.96634(34)
_cell_length_c                   7.28776(17)
_cell_measurement_temperature    293.2
_cell_volume                     699.41(3)
_computing_data_collection       Stoe
_computing_structure_refinement  GSAS
_computing_structure_solution    EXPO2009
_diffrn_ambient_temperature      293.2
_diffrn_detector_type            'Mythen 1K'
_diffrn_measurement_device_type  'Stoe StadiP'
_diffrn_radiation_probe          x-ray
_diffrn_radiation_type           'Mo K\a~1~'
_diffrn_radiation_wavelength     0.7093
_exptl_crystal_density_diffrn    0.960
_pd_block_id                     2015-04-17T14:44|AMAL|thomas|Overall
_pd_calc_method                  'Rietveld Refinement'
_pd_char_colour                  white
_pd_instr_location               ' ?'
_pd_meas_2theta_range_inc        0.015
_pd_meas_2theta_range_max        60.105
_pd_meas_2theta_range_min        3.0
_pd_meas_number_of_points        3808
_pd_meas_scan_method             step
_pd_phase_name                   'from DEAA.cif'
_pd_proc_2theta_range_inc        0.015
_pd_proc_2theta_range_max        60.071
_pd_proc_2theta_range_min        2.966
_pd_proc_info_datetime           2015-07-22T11:26:20
_pd_proc_ls_background_function
'   GSAS Background function number 1 with 20 terms.'
_pd_proc_ls_prof_R_factor        0.0528
_pd_proc_ls_prof_wR_expected     0.0570
_pd_proc_ls_prof_wR_factor       0.0673
_pd_proc_number_of_points        3808
_pd_spec_mounting                ' ?'
_refine_ls_goodness_of_fit_all   1.17
_refine_ls_hydrogen_treatment    mixed
_refine_ls_matrix_type           full
_refine_ls_number_parameters     74
_refine_ls_number_restraints     45
_refine_ls_R_Fsqd_factor         0.28094
_refine_ls_shift/su_max          0.08
_refine_ls_shift/su_mean         0.01
_reflns_d_resolution_high        0.709
_reflns_d_resolution_low         7.402
_reflns_limit_h_max              20
_reflns_limit_h_min              0
_reflns_limit_k_max              36
_reflns_limit_k_min              0
_reflns_limit_l_max              20
_reflns_limit_l_min              -20
_reflns_number_total             2066
_cod_data_source_file            ra5011sup1.cif
_cod_data_source_block           AMAL_publ
_cod_depositor_comments
;
The following automatic conversions were performed:

'_geom_angle_publ_flag' value 'N' changed to 'n' according to the
built-in table from CIF Core dictionary named 'cif_core.dic' version
2.4.5 from 2014-11-21 (68 times).

'_geom_bond_publ_flag' value 'N' changed to 'n' according to the
built-in table from CIF Core dictionary named 'cif_core.dic' version
2.4.5 from 2014-11-21 (36 times).

Automatic conversion script
Id: cif_fix_values 6524 2018-11-02 12:15:13Z antanas 
;
_cod_original_cell_volume        699.412(31)
_cod_database_code               2108351
loop_
_symmetry_equiv_pos_site_id
_symmetry_equiv_pos_as_xyz
1 +x,+y,+z
2 -x,+y+1/2,-z+1/2
-1 -x,-y,-z
-2 +x,-y+1/2,+z+1/2
loop_
_atom_site_type_symbol
_atom_site_label
_atom_site_fract_x
_atom_site_fract_y
_atom_site_fract_z
_atom_site_occupancy
_atom_site_thermal_displace_type
_atom_site_U_iso_or_equiv
_atom_site_symmetry_multiplicity
N N1 0.63442(28) 0.99081(21) 0.12835(29) 1.0 Uiso 0.0601(14) 4
C C1 0.78016(19) 0.91096(11) 0.13193(20) 1.0 Uiso 0.0601(14) 4
C C2 0.65640(19) 1.06186(11) 0.28800(19) 1.0 Uiso 0.0601(14) 4
C C3 0.83310(18) 1.12205(11) 0.29266(19) 1.0 Uiso 0.0601(14) 4
C C4 0.76494(19) 0.84991(11) 0.30853(19) 1.0 Uiso 0.0601(14) 4
Al Al1 0.39074(31) 0.93866(21) 0.1042(4) 1.0 Uiso 0.0849(14) 4
H H1 0.285 0.972 0.262 1.0 Uiso 0.0721(17) 4
H H2 0.39331 0.8337 0.04098 1.0 Uiso 0.0721(17) 4
H H3 0.64920(35) 1.01676(23) 0.4114(6) 1.0 Uiso 0.0721(17) 4
H H4 0.5449(5) 1.11652(26) 0.2865(4) 1.0 Uiso 0.0721(17) 4
H H5 0.8594(4) 1.15294(21) 0.1581(8) 1.0 Uiso 0.0721(17) 4
H H6 0.9437(5) 1.07066(25) 0.3340(4) 1.0 Uiso 0.0721(17) 4
H H7 0.82295(35) 1.18511(30) 0.3909(5) 1.0 Uiso 0.0721(17) 4
H H8 0.9115(8) 0.94816(22) 0.1264(4) 1.0 Uiso 0.0721(17) 4
H H9 0.76368(34) 0.86006(25) 0.0163(6) 1.0 Uiso 0.0721(17) 4
H H10 0.8284(4) 0.7754(4) 0.2917(4) 1.0 Uiso 0.0721(17) 4
H H11 0.6213(12) 0.83914(20) 0.3417(4) 1.0 Uiso 0.0721(17) 4
H H12 0.8328(4) 0.89210(23) 0.4207(5) 1.0 Uiso 0.0721(17) 4
loop_
_atom_type_symbol
_atom_type_number_in_cell
_atom_type_scat_dispersion_real
_atom_type_scat_dispersion_imag
_atom_type_scat_Cromer_Mann_a1
_atom_type_scat_Cromer_Mann_a2
_atom_type_scat_Cromer_Mann_a3
_atom_type_scat_Cromer_Mann_a4
_atom_type_scat_Cromer_Mann_b1
_atom_type_scat_Cromer_Mann_b2
_atom_type_scat_Cromer_Mann_b3
_atom_type_scat_Cromer_Mann_b4
_atom_type_scat_Cromer_Mann_c
_atom_type_scat_source
N 4.0 0.000 0.000 12.2126 0.00570 3.13220 9.89330 2.01250 28.9975 1.16630
0.58260 -11.529 International_Tables_Vol_C
C 16.0 0.000 0.000 2.31000 20.8439 1.02000 10.2075 1.58860 0.56870 0.86500
51.6512 0.21560 International_Tables_Vol_C
Al 4.0 0.000 0.000 6.42020 3.03870 1.90020 0.74260 1.59360 31.5472 1.96460
85.0886 1.11510 International_Tables_Vol_C
H 48.0 0.000 0.000 0.49300 10.5109 0.32291 26.1257 0.14019 3.14236 0.04081
57.7997 0.00304 International_Tables_Vol_C
loop_
_geom_angle_atom_site_label_1
_geom_angle_atom_site_label_2
_geom_angle_atom_site_label_3
_geom_angle
_geom_angle_site_symmetry_1
_geom_angle_site_symmetry_2
_geom_angle_site_symmetry_3
_geom_angle_publ_flag
C1 N1 C2 110.0(2) . . . n
C1 N1 Al1 115.6(2) . . . n
C2 N1 Al1 112.4(2) . . . n
Al1 N1 Al1 90.3(1) . . . n
N1 C1 C4 108.4(1) . . . n
N1 C1 H8 109.7(2) . . . n
N1 C1 H9 109.6(2) . . . n
C4 C1 H8 109.8(2) . . . n
C4 C1 H9 109.6(2) . . . n
H8 C1 H9 109.7(3) . . . n
N1 C2 C3 114.8(1) . . . n
N1 C2 H3 108.1(2) . . . n
N1 C2 H4 108.6(2) . . . n
C3 C2 H3 108.1(2) . . . n
C3 C2 H4 108.5(2) . . . n
H3 C2 H4 108.5(3) . . . n
C2 C3 H5 109.5(2) . . . n
C2 C3 H6 109.5(2) . . . n
C2 C3 H7 109.5(2) . . . n
H5 C3 H6 109.5(3) . . . n
H5 C3 H7 109.5(3) . . . n
H6 C3 H7 109.4(3) . . . n
C1 C4 H10 109.5(2) . . . n
C1 C4 H11 109.5(3) . . . n
C1 C4 H12 109.5(2) . . . n
H10 C4 H11 109.5(3) . . . n
H10 C4 H12 109.5(3) . . . n
H11 C4 H12 109.5(3) . . . n
N1 Al1 H1 109.4 . . . n
N1 Al1 H2 110.2 . . . n
N1 Al1 N1 89.7(1) . . . n
H1 Al1 H2 122.7 . . . n
H1 Al1 N1 120.1 . . . n
H2 Al1 N1 99.7 . . . n
Al1 N1 Al1 90.3(1) . . . n
C1 N1 C2 110.0(2) . . . n
C1 N1 Al1 115.6(2) . . . n
C2 N1 Al1 112.4(2) . . . n
N1 C1 C4 108.4(1) . . . n
N1 C1 H8 109.7(2) . . . n
N1 C1 H9 109.6(2) . . . n
C4 C1 H8 109.8(2) . . . n
C4 C1 H9 109.6(2) . . . n
H8 C1 H9 109.7(3) . . . n
N1 C2 C3 114.8(1) . . . n
N1 C2 H3 108.1(2) . . . n
N1 C2 H4 108.6(2) . . . n
C3 C2 H3 108.1(2) . . . n
C3 C2 H4 108.5(2) . . . n
H3 C2 H4 108.5(3) . . . n
C2 C3 H5 109.5(2) . . . n
C2 C3 H6 109.5(2) . . . n
C2 C3 H7 109.5(2) . . . n
H5 C3 H6 109.5(3) . . . n
H5 C3 H7 109.5(3) . . . n
H6 C3 H7 109.4(3) . . . n
C1 C4 H10 109.5(2) . . . n
C1 C4 H11 109.5(3) . . . n
C1 C4 H12 109.5(2) . . . n
H10 C4 H11 109.5(3) . . . n
H10 C4 H12 109.5(3) . . . n
H11 C4 H12 109.5(3) . . . n
N1 Al1 N1 89.7(1) . . . n
N1 Al1 H1 120.1 . . . n
N1 Al1 H2 99.7 . . . n
N1 Al1 H1 109.4 . . . n
N1 Al1 H2 110.2 . . . n
H1 Al1 H2 122.7 . . . n
loop_
_geom_bond_atom_site_label_1
_geom_bond_atom_site_label_2
_geom_bond_distance
_geom_bond_site_symmetry_1
_geom_bond_site_symmetry_2
_geom_bond_publ_flag
N1 C1 1.495(3) . . n
N1 C2 1.491(3) . . n
N1 Al1 1.932(3) . . n
N1 Al1 1.933(4) . . n
C1 C4 1.516(2) . . n
C1 H8 1.086(6) . . n
C1 H9 1.076(4) . . n
C2 C3 1.523(2) . . n
C2 H3 1.075(4) . . n
C2 H4 1.088(4) . . n
C3 H5 1.079(6) . . n
C3 H6 1.095(4) . . n
C3 H7 1.090(4) . . n
C4 H10 1.082(5) . . n
C4 H11 1.102(9) . . n
C4 H12 1.100(4) . . n
Al1 H1 1.464 . . n
Al1 H2 1.437 . . n
Al1 N1 1.933(4) . . n
N1 C1 1.495(3) . . n
N1 C2 1.491(3) . . n
N1 Al1 1.932(3) . . n
C1 C4 1.516(2) . . n
C1 H8 1.086(6) . . n
C1 H9 1.076(4) . . n
C2 C3 1.523(2) . . n
C2 H3 1.075(4) . . n
C2 H4 1.088(4) . . n
C3 H5 1.079(6) . . n
C3 H6 1.095(4) . . n
C3 H7 1.090(4) . . n
C4 H10 1.082(5) . . n
C4 H11 1.102(9) . . n
C4 H12 1.100(4) . . n
Al1 H1 1.464 . . n
Al1 H2 1.437 . . n
loop_
_pd_meas_counts_total
_pd_proc_ls_weight
_pd_proc_intensity_bkg_calc
_pd_calc_intensity_total
263.0 0.00380 273.49701 273.49655
260.0 0.00385 271.83282 271.83261
253.0 0.00395 270.31546 270.31543
259.0 0.00386 268.93954 268.93970
266.0 0.00376 267.69986 267.70020
266.0 0.00376 266.59128 266.59177
276.0 0.00362 265.60892 265.60956
243.0 0.00412 264.74780 264.74863
255.0 0.00392 264.00336 264.00433
265.0 0.00377 263.37097 263.37207
272.0 0.00368 262.84610 262.84732
262.0 0.00382 262.42447 262.42581
247.0 0.00405 262.10181 262.10327
256.0 0.00391 261.87405 261.87561
243.0 0.00412 261.73712 261.73877
267.0 0.00375 261.68716 261.68887
275.0 0.00364 261.72034 261.72214
270.0 0.00370 261.83298 261.83487
243.0 0.00412 262.02151 262.02347
269.0 0.00372 262.28247 262.28448
262.0 0.00382 262.61237 262.61444
274.0 0.00365 263.00803 263.01016
280.0 0.00357 263.46619 263.46835
277.0 0.00361 263.98373 263.98596
266.0 0.00376 264.55774 264.55997
264.0 0.00379 265.18521 265.18747
295.0 0.003390 265.86328 265.86557
287.0 0.003484 266.58923 266.59155
291.0 0.003436 267.36038 267.36273
292.0 0.003425 268.17419 268.17651
281.0 0.00356 269.02811 269.03043
266.0 0.00376 269.91968 269.92203
290.0 0.003448 270.84659 270.84894
266.0 0.00376 271.80655 271.80887
287.0 0.003484 272.79736 272.79968
313.0 0.003195 273.81689 273.81918
305.0 0.003279 274.86304 274.86533
280.0 0.00357 275.93387 275.93613
272.0 0.00368 277.02737 277.02963
279.0 0.00358 278.14178 278.14401
301.0 0.003322 279.27524 279.27744
306.0 0.003268 280.42599 280.42816
304.0 0.003289 281.59244 281.59457
302.0 0.003311 282.77292 282.77499
289.0 0.003460 283.96585 283.96793
284.0 0.00352 285.16980 285.17181
293.0 0.003413 286.38324 286.38519
263.0 0.00380 287.60480 287.60672
284.0 0.00352 288.83322 288.83511
267.0 0.00375 290.06714 290.06897
304.0 0.003289 291.30542 291.30719
278.0 0.00360 292.54678 292.54849
311.0 0.003215 293.79010 293.79178
303.0 0.003300 295.03430 295.03592
321.0 0.003115 296.27835 296.27991
314.0 0.003185 297.52127 297.52280
298.0 0.003356 298.76208 298.76355
308.0 0.003247 299.99988 300.00128
302.0 0.003311 301.23380 301.23514
334.0 0.002994 302.46298 302.46426
348.0 0.002874 303.68671 303.68793
291.0 0.003436 304.90417 304.90533
291.0 0.003436 306.11469 306.11578
274.0 0.00365 307.31754 307.31857
281.0 0.00356 308.51212 308.51309
300.0 0.003333 309.69785 309.69876
328.0 0.003049 310.87411 310.87497
328.0 0.003049 312.04037 312.04117
318.0 0.003145 313.19614 313.19684
317.0 0.003155 314.34091 314.34155
295.0 0.003390 315.47433 315.47491
290.0 0.003448 316.59586 316.59637
314.0 0.003185 317.70511 317.70560
289.0 0.003460 318.80185 318.80225
296.0 0.003378 319.88568 319.88599
308.0 0.003247 320.95624 320.95651
301.0 0.003322 322.01328 322.01349
299.0 0.003344 323.05658 323.05670
308.0 0.003247 324.08588 324.08594
319.0 0.003135 325.10092 325.10095
321.0 0.003115 326.10159 326.10156
300.0 0.003333 327.08777 327.08765
305.0 0.003279 328.05914 328.05899
293.0 0.003413 329.01572 329.01547
311.0 0.003215 329.95737 329.95706
289.0 0.003460 330.88394 330.88358
317.0 0.003155 331.79544 331.79504
312.0 0.003205 332.69180 332.69135
328.0 0.003049 333.57303 333.57251
306.0 0.003268 334.43900 334.43842
316.0 0.003165 335.28979 335.28915
299.0 0.003344 336.12540 336.12469
341.0 0.002933 336.94592 336.94516
349.0 0.002865 337.75128 337.75046
338.0 0.002959 338.54160 338.54074
335.0 0.002985 339.31696 339.31604
334.0 0.002994 340.07745 340.07648
367.0 0.002725 340.82312 340.82211
344.0 0.002907 341.55411 341.55304
330.0 0.003030 342.27057 342.26944
353.0 0.002833 342.97256 342.97141
325.0 0.003077 343.66028 343.65906
321.0 0.003115 344.33389 344.33264
331.0 0.003021 344.99350 344.99219
338.0 0.002959 345.63931 345.63797
331.0 0.003021 346.27151 346.27011
317.0 0.003155 346.89029 346.88882
329.0 0.003040 347.49579 347.49429
335.0 0.002985 348.08823 348.08673
359.0 0.002786 348.66788 348.66632
347.0 0.002882 349.23489 349.23331
321.0 0.003115 349.78955 349.78790
324.0 0.003086 350.33203 350.33035
350.0 0.002857 350.86258 350.86087
348.0 0.002874 351.38144 351.37970
362.0 0.002762 351.88885 351.88705
369.0 0.002710 352.38507 352.38324
351.0 0.002849 352.87039 352.86853
359.0 0.002786 353.34500 353.34311
352.0 0.002841 353.80917 353.80725
348.0 0.002874 354.26321 354.26126
338.0 0.002959 354.70737 354.70541
346.0 0.002890 355.14194 355.13992
354.0 0.002825 355.56714 355.56509
344.0 0.002907 355.98328 355.98123
373.0 0.002681 356.39066 356.38858
353.0 0.002833 356.78949 356.78738
347.0 0.002882 357.18015 357.17804
349.0 0.002865 357.56284 357.56070
350.0 0.002857 357.93790 357.93573
345.0 0.002899 358.30560 358.30341
367.0 0.002725 358.66620 358.66400
385.0 0.002597 359.02005 359.02029
396.0 0.002525 359.36737 359.41638
365.0 0.002740 359.70847 360.20355
370.0 0.002703 360.04364 362.53732
410.0 0.002439 360.37317 367.82346
420.0 0.002381 360.69733 376.05737
435.0 0.002299 361.01645 385.97382
438.0 0.002283 361.33078 396.67291
442.0 0.002262 361.64062 407.95129
465.0 0.002151 361.94623 419.83273
501.0 0.001996 362.24792 432.37360
472.0 0.002119 362.54596 445.63922
473.0 0.002114 362.84064 459.70416
532.0 0.001880 363.13220 474.65399
467.0 0.002141 363.42096 490.58792
511.0 0.001957 363.70715 507.62100
548.0 0.001825 363.99109 525.88806
563.0 0.001776 364.27304 545.54791
587.0 0.001704 364.55325 566.78967
622.0 0.001608 364.83197 589.84064
613.0 0.001631 365.10953 614.97632
651.0 0.001536 365.38608 642.53503
641.0 0.001560 365.66199 672.93750
676.0 0.001479 365.93744 706.71442
736.0 0.001359 366.21274 744.54749
794.0 0.001259 366.48807 787.32971
850.0 0.001176 366.76370 836.25989
882.0 0.001134 367.03992 892.99323
1014.0 0.000986 367.31693 959.89600
1109.0 0.000902 367.59494 1040.50684
1116.0 0.000896 367.87424 1140.44153
1322.0 0.000756 368.15503 1269.40759
1469.0 0.000681 368.43753 1446.78406
1657.0 0.000604 368.72192 1721.49878
2102.0 0.000476 369.00851 2215.72217
2791.0 0.000358 369.29745 2958.82812
3403.0 0.0002939 369.58899 3196.60083
2293.0 0.000436 369.88333 2157.56372
884.0 0.001131 370.18063 926.04236
465.0 0.002151 370.48117 449.47275
374.0 0.002674 370.78503 375.74521
351.0 0.002849 371.09250 371.09024
378.0 0.002646 371.40375 371.40152
368.0 0.002717 371.71890 371.71671
356.0 0.002809 372.03824 372.03604
385.0 0.002597 372.36185 372.35968
385.0 0.002597 372.68994 372.68777
369.0 0.002710 373.02267 373.02051
387.0 0.002584 373.36020 373.35806
424.0 0.002358 373.70270 373.70059
396.0 0.002525 374.05032 374.04822
384.0 0.002604 374.40320 374.40112
374.0 0.002674 374.76154 374.75949
382.0 0.002618 375.12540 375.12338
402.0 0.002488 375.49496 375.49295
422.0 0.002370 375.87033 375.86838
419.0 0.002387 376.25171 376.25055
444.0 0.002252 376.63916 376.66858
438.0 0.002283 377.03281 377.55511
488.0 0.002049 377.43280 381.32950
455.0 0.002198 377.83923 392.87146
469.0 0.002132 378.25220 414.33228
495.0 0.002020 378.67181 442.38446
526.0 0.001901 379.09821 473.47324
589.0 0.001698 379.53143 506.61539
587.0 0.001704 379.97159 541.88257
613.0 0.001631 380.41879 579.51392
648.0 0.001543 380.87311 619.96429
697.0 0.001435 381.33463 664.85492
724.0 0.001381 381.80341 717.94885
762.0 0.001312 382.27954 782.12457
841.0 0.001189 382.76306 856.10834
904.0 0.001106 383.25406 937.65009
978.0 0.001022 383.75259 1026.53552
1043.0 0.000959 384.25876 1123.76453
1121.0 0.000892 384.77252 1230.77454
1290.0 0.000775 385.29398 1349.40210
1393.0 0.000718 385.82318 1482.02856
1616.0 0.000619 386.36014 1631.81152
1835.0 0.000545 386.90494 1803.05994
1955.0 0.000512 387.45755 2001.86475
2291.0 0.000436 388.01807 2237.22681
2689.0 0.000372 388.58646 2523.24072
2938.0 0.0003404 389.16275 2883.90649
3123.0 0.0003202 389.74701 3366.05640
3741.0 0.0002673 390.33920 4086.38232
4846.0 0.0002064 390.93936 5364.25439
6983.0 0.0001432 391.54749 7358.91260
8636.0 0.0001158 392.16360 8002.02637
5800.0 0.0001724 392.78766 5260.76807
2439.0 0.000410 393.41968 2492.29028
1826.0 0.000548 394.05969 1782.93640
1990.0 0.000503 394.70764 1926.56946
2323.0 0.000430 395.36353 2268.79883
2746.0 0.000364 396.02734 2842.57617
3706.0 0.0002698 396.69907 3922.53979
5145.0 0.0001944 397.37866 5189.99268
4825.0 0.0002073 398.06607 4569.96338
2190.0 0.000457 398.76132 2130.57153
730.0 0.001370 399.46439 698.95477
457.0 0.002188 400.17517 420.56281
409.0 0.002445 400.89368 401.42532
419.0 0.002387 401.61987 401.61902
400.0 0.002500 402.35370 402.35287
405.0 0.002469 403.09509 403.09427
390.0 0.002564 403.84396 403.84320
414.0 0.002415 404.60040 404.59964
405.0 0.002469 405.36420 405.36346
403.0 0.002481 406.13538 406.13467
422.0 0.002370 406.91382 406.91315
432.0 0.002315 407.69958 407.69891
408.0 0.002451 408.49243 408.49182
413.0 0.002421 409.29242 409.29181
414.0 0.002415 410.09946 410.09888
369.0 0.002710 410.91342 410.91287
382.0 0.002618 411.73425 411.73373
415.0 0.002410 412.56192 412.56140
415.0 0.002410 413.39630 413.39581
396.0 0.002525 414.23727 414.23682
407.0 0.002457 415.08487 415.08441
399.0 0.002506 415.93890 415.93848
434.0 0.002304 416.79932 416.79892
419.0 0.002387 417.66599 417.66559
407.0 0.002457 418.53885 418.53848
416.0 0.002404 419.41785 419.41751
407.0 0.002457 420.30283 420.30252
421.0 0.002375 421.19370 421.19339
409.0 0.002445 422.09036 422.09012
403.0 0.002481 422.99274 422.99249
421.0 0.002375 423.90070 423.90045
403.0 0.002481 424.81412 424.81393
399.0 0.002506 425.73297 425.73279
394.0 0.002538 426.65704 426.65689
428.0 0.002336 427.58630 427.58615
427.0 0.002342 428.52057 428.52045
393.0 0.002545 429.45981 429.45972
420.0 0.002381 430.40384 430.40375
398.0 0.002513 431.35257 431.35248
418.0 0.002392 432.30591 432.30585
398.0 0.002513 433.26364 433.26364
391.0 0.002558 434.22577 434.22577
384.0 0.002604 435.19211 435.19211
440.0 0.002273 436.16254 436.16257
454.0 0.002203 437.13693 437.13699
418.0 0.002392 438.11517 438.11523
423.0 0.002364 439.09717 439.09726
408.0 0.002451 440.08273 440.08282
427.0 0.002342 441.07178 441.07187
399.0 0.002506 442.06412 442.06424
414.0 0.002415 443.05972 443.05984
455.0 0.002198 444.05835 444.05853
433.0 0.002309 445.05994 445.06012
452.0 0.002212 446.06439 446.06458
463.0 0.002160 447.07144 447.07166
432.0 0.002315 448.08109 448.08133
480.0 0.002083 449.09314 449.09335
438.0 0.002283 450.10748 450.10773
444.0 0.002252 451.12396 451.12421
434.0 0.002304 452.14243 452.14270
428.0 0.002336 453.16278 453.16306
425.0 0.002353 454.18488 454.18518
460.0 0.002174 455.20856 455.20889
446.0 0.002242 456.23370 456.23404
440.0 0.002273 457.26019 457.26053
453.0 0.002208 458.28784 458.28821
437.0 0.002288 459.31656 459.31693
440.0 0.002273 460.34616 460.34653
460.0 0.002174 461.37659 461.37698
444.0 0.002252 462.40762 462.40802
459.0 0.002179 463.43912 463.43951
489.0 0.002045 464.47104 464.47144
461.0 0.002169 465.50311 465.50354
459.0 0.002179 466.53528 466.53571
436.0 0.002294 467.56738 467.56784
414.0 0.002415 468.59933 468.59976
452.0 0.002212 469.63089 469.63135
443.0 0.002257 470.66199 470.66248
427.0 0.002342 471.69250 471.69299
444.0 0.002252 472.72226 472.72272
484.0 0.002066 473.75107 473.75156
457.0 0.002188 474.77890 474.77939
438.0 0.002283 475.80557 475.80609
449.0 0.002227 476.83096 476.83145
417.0 0.002398 477.85489 477.85541
450.0 0.002222 478.87723 478.87775
441.0 0.002268 479.89789 479.89841
409.0 0.002445 480.91669 480.91721
433.0 0.002309 481.93350 481.93405
469.0 0.002132 482.94824 482.94879
473.0 0.002114 483.96069 483.96124
463.0 0.002160 484.97079 484.97134
458.0 0.002183 485.97833 485.97891
462.0 0.002165 486.98331 486.98389
456.0 0.002193 487.98544 487.98602
473.0 0.002114 488.98468 488.98526
492.0 0.002033 489.98093 489.98151
474.0 0.002110 490.97397 490.97455
500.0 0.002000 491.96371 491.96429
483.0 0.002070 492.95004 492.95062
475.0 0.002105 493.93286 493.93344
463.0 0.002160 494.91193 494.91254
456.0 0.002193 495.88724 495.88785
525.0 0.001905 496.85864 496.86020
543.0 0.001842 497.82593 497.87656
564.0 0.001773 498.78909 499.64066
585.0 0.001709 499.74796 505.21667
602.0 0.001661 500.70236 518.07068
646.0 0.001548 501.65228 537.28003
682.0 0.001466 502.59753 563.10101
719.0 0.001391 503.53796 606.90015
757.0 0.001321 504.47357 679.56866
868.0 0.001152 505.40414 774.65491
937.0 0.001067 506.32953 882.06445
955.0 0.001047 507.24976 999.92108
1073.0 0.000932 508.16455 1129.96436
1223.0 0.000818 509.07394 1275.17542
1399.0 0.000715 509.97775 1438.84229
1557.0 0.000642 510.87582 1624.15686
1794.0 0.000557 511.76813 1835.63940
2016.0 0.000496 512.65454 2080.28198
2336.0 0.000428 513.53491 2368.51440
2692.0 0.000371 514.40918 2716.63916
3263.0 0.0003065 515.27722 3152.79517
3679.0 0.0002718 516.13892 3735.98853
4680.0 0.0002137 516.99426 4630.59229
6143.0 0.0001628 517.84296 6065.64355
7057.0 0.0001417 518.68512 7096.81836
6802.0 0.0001470 519.52057 6737.79492
8080.0 0.0001238 520.34906 7762.03418
11723.0 0.0000853 521.17078 10921.36328
10248.0 0.0000976 521.98541 10053.17383
4297.0 0.0002327 522.79291 4101.61670
1320.0 0.000758 523.59326 1150.83032
870.0 0.001149 524.38629 843.68420
918.0 0.001089 525.17194 994.10480
996.0 0.001004 525.95007 1140.63843
861.0 0.001161 526.72070 925.62891
633.0 0.001580 527.48364 619.67688
564.0 0.001773 528.23889 534.91467
532.0 0.001880 528.98627 529.13086
535.0 0.001869 529.72583 529.72729
512.0 0.001953 530.45740 530.45789
546.0 0.001832 531.18085 531.18140
547.0 0.001828 531.89624 531.89673
543.0 0.001842 532.60339 532.60388
539.0 0.001855 533.30225 533.30273
524.0 0.001908 533.99280 533.99323
513.0 0.001949 534.67487 534.67535
515.0 0.001942 535.34839 535.34888
539.0 0.001855 536.01343 536.01385
508.0 0.001969 536.66974 536.67023
480.0 0.002083 537.31744 537.31787
521.0 0.001919 537.95630 537.95679
522.0 0.001916 538.58636 538.58679
551.0 0.001815 539.20746 539.20795
529.0 0.001890 539.81970 539.82013
545.0 0.001835 540.42279 540.42322
540.0 0.001852 541.01691 541.01733
538.0 0.001859 541.60187 541.60229
541.0 0.001848 542.17761 542.17798
559.0 0.001789 542.74414 542.74451
499.0 0.002004 543.30133 543.30170
542.0 0.001845 543.84918 543.84955
554.0 0.001805 544.38763 544.38800
535.0 0.001869 544.91663 544.91699
549.0 0.001821 545.43616 545.43652
599.0 0.001669 545.94611 545.94647
579.0 0.001727 546.44647 546.44684
545.0 0.001835 546.93726 546.93756
575.0 0.001739 547.41833 547.41864
577.0 0.001733 547.88965 547.89001
587.0 0.001704 548.35132 548.35162
559.0 0.001789 548.80310 548.80341
544.0 0.001838 549.24512 549.24542
550.0 0.001818 549.67725 549.67755
571.0 0.001751 550.09949 550.09979
573.0 0.001745 550.51178 550.51208
554.0 0.001805 550.91418 550.91443
567.0 0.001764 551.30658 551.30682
562.0 0.001779 551.68890 551.68915
542.0 0.001845 552.06128 552.06152
566.0 0.001767 552.42352 552.42371
562.0 0.001779 552.77570 552.77594
544.0 0.001838 553.11780 553.11798
558.0 0.001792 553.44971 553.44989
564.0 0.001773 553.77148 553.77167
571.0 0.001751 554.08313 554.08331
590.0 0.001695 554.38452 554.38470
542.0 0.001845 554.67578 554.67596
554.0 0.001805 554.95673 554.95691
539.0 0.001855 555.22754 555.22766
519.0 0.001927 555.48810 555.48822
539.0 0.001855 555.73834 555.73853
554.0 0.001805 555.97839 555.97852
573.0 0.001745 556.20813 556.20825
594.0 0.001684 556.42761 556.42773
566.0 0.001767 556.63684 556.63696
590.0 0.001695 556.83575 556.83588
533.0 0.001876 557.02435 557.02448
569.0 0.001757 557.20270 557.20282
556.0 0.001799 557.37079 557.37085
547.0 0.001828 557.52850 557.52863
596.0 0.001678 557.67603 557.67609
619.0 0.001616 557.81317 557.81323
571.0 0.001751 557.94012 557.94019
561.0 0.001783 558.05676 558.05682
552.0 0.001812 558.16315 558.16321
580.0 0.001724 558.25928 558.25928
597.0 0.001675 558.34515 558.34515
578.0 0.001730 558.42078 558.42084
563.0 0.001776 558.48621 558.48621
565.0 0.001770 558.54144 558.54138
591.0 0.001692 558.58643 558.58643
603.0 0.001658 558.62122 558.62122
583.0 0.001715 558.64587 558.64587
573.0 0.001745 558.66040 558.66034
564.0 0.001773 558.66479 558.66473
555.0 0.001802 558.65906 558.65942
560.0 0.001786 558.64319 558.65955
601.0 0.001664 558.61731 558.81921
603.0 0.001658 558.58136 559.57501
609.0 0.001642 558.53540 561.15875
586.0 0.001706 558.47943 563.27368
615.0 0.001626 558.41351 565.68872
612.0 0.001634 558.33765 568.52728
591.0 0.001692 558.25189 572.15155
585.0 0.001709 558.15619 576.73010
555.0 0.001802 558.05066 582.13629
612.0 0.001634 557.93530 588.37256
629.0 0.001590 557.81012 595.64276
618.0 0.001618 557.67523 604.28290
665.0 0.001504 557.53064 614.81592
646.0 0.001548 557.37628 628.11761
631.0 0.001585 557.21228 645.83887
675.0 0.001481 557.03870 671.87018
718.0 0.001393 556.85553 718.55310
824.0 0.001214 556.66278 802.24384
771.0 0.001297 556.46057 830.51849
706.0 0.001416 556.24884 712.70605
640.0 0.001563 556.02777 639.76434
662.0 0.001511 555.79724 660.07422
682.0 0.001466 555.55737 712.29285
716.0 0.001397 555.30829 693.87360
639.0 0.001565 555.04993 600.69196
571.0 0.001751 554.78235 559.42072
634.0 0.001577 554.50562 554.64099
575.0 0.001739 554.21979 554.22064
590.0 0.001695 553.92487 553.92462
567.0 0.001764 553.62091 553.62073
508.0 0.001969 553.30804 553.30780
570.0 0.001754 552.98627 552.98602
570.0 0.001754 552.65564 552.65540
562.0 0.001779 552.31610 552.31586
576.0 0.001736 551.96783 551.96759
572.0 0.001748 551.61090 551.61066
590.0 0.001695 551.24536 551.24506
550.0 0.001818 550.87115 550.87085
553.0 0.001808 550.48840 550.48816
598.0 0.001672 550.09717 550.09686
562.0 0.001779 549.69751 549.69720
523.0 0.001912 549.28943 549.28918
578.0 0.001730 548.87305 548.87274
561.0 0.001783 548.44843 548.44818
559.0 0.001789 548.01562 548.01532
552.0 0.001812 547.57465 547.57434
589.0 0.001698 547.12561 547.12531
567.0 0.001764 546.66852 546.66821
561.0 0.001783 546.20343 546.20312
552.0 0.001812 545.73047 545.73016
552.0 0.001812 545.24969 545.24939
541.0 0.001848 544.76117 544.76086
550.0 0.001818 544.26483 544.26453
539.0 0.001855 543.76093 543.76062
547.0 0.001828 543.24939 543.24908
559.0 0.001789 542.73035 542.73004
536.0 0.001866 542.20386 542.20355
587.0 0.001704 541.66998 541.66962
586.0 0.001706 541.12872 541.12842
527.0 0.001898 540.58026 540.57996
562.0 0.001779 540.02454 540.03180
569.0 0.001757 539.46173 539.61499
541.0 0.001848 538.89191 540.00812
596.0 0.001678 538.31500 542.17053
582.0 0.001718 537.73120 546.27808
600.0 0.001667 537.14056 552.83044
591.0 0.001692 536.54315 563.27374
586.0 0.001706 535.93896 577.71356
690.0 0.001449 535.32819 596.01355
651.0 0.001536 534.71075 620.31323
695.0 0.001439 534.08685 652.11200
765.0 0.001307 533.45654 690.82239
775.0 0.001290 532.81982 736.76141
838.0 0.001193 532.17676 792.28741
928.0 0.001078 531.52753 861.93616
1086.0 0.000921 530.87213 955.38696
1299.0 0.000770 530.21063 1099.89868
1419.0 0.000705 529.54315 1331.21960
1535.0 0.000651 528.86969 1492.31213
1542.0 0.000649 528.19037 1454.94885
1638.0 0.000611 527.50525 1609.09875
1553.0 0.000644 526.81445 1710.41235
1402.0 0.000713 526.11792 1430.25391
1376.0 0.000727 525.41583 1456.25793
1486.0 0.000673 524.70831 1638.17017
1221.0 0.000819 523.99524 1201.75842
767.0 0.001304 523.27686 704.99493
647.0 0.001546 522.55322 593.46619
616.0 0.001623 521.82434 600.13092
625.0 0.001600 521.09027 618.51697
650.0 0.001538 520.35126 641.94293
657.0 0.001522 519.60712 672.80835
720.0 0.001389 518.85809 716.30304
820.0 0.001220 518.10431 786.13190
992.0 0.001008 517.34564 924.06079
1125.0 0.000889 516.58240 1135.03162
1150.0 0.000870 515.81439 1092.59277
859.0 0.001164 515.04193 731.13495
547.0 0.001828 514.26495 541.60626
498.0 0.002008 513.48358 515.81866
516.0 0.001938 512.69788 515.89117
503.0 0.001988 511.90793 517.60059
500.0 0.002000 511.11380 519.70441
506.0 0.001976 510.31555 522.20740
523.0 0.001912 509.51331 525.20782
520.0 0.001923 508.70706 528.84778
550.0 0.001818 507.89697 533.33472
557.0 0.001795 507.08301 538.98584
530.0 0.001887 506.26535 546.34314
555.0 0.001802 505.44406 556.60583
559.0 0.001789 504.61914 572.63354
599.0 0.001669 503.79068 600.65680
629.0 0.001590 502.95883 655.25153
714.0 0.001401 502.12360 724.89673
714.0 0.001401 501.28503 695.29791
585.0 0.001709 500.44330 587.89075
544.0 0.001838 499.59836 547.31750
509.0 0.001965 498.75037 551.88831
494.0 0.002024 497.89935 564.56940
582.0 0.001718 497.04544 580.97369
565.0 0.001770 496.18866 602.78308
625.0 0.001600 495.32907 633.88074
694.0 0.001441 494.46674 684.83630
785.0 0.001274 493.60184 785.96094
889.0 0.001125 492.73428 928.14954
853.0 0.001172 491.86423 880.70825
670.0 0.001493 490.99182 633.30469
518.0 0.001931 490.11697 508.23688
500.0 0.002000 489.23987 489.99255
455.0 0.002198 488.36053 488.37027
488.0 0.002049 487.47906 487.47888
484.0 0.002066 486.59555 486.59537
458.0 0.002183 485.70993 485.70975
469.0 0.002132 484.82239 484.82224
434.0 0.002304 483.93304 483.93289
463.0 0.002160 483.04184 483.04169
489.0 0.002045 482.14886 482.14871
446.0 0.002242 481.25430 481.25418
480.0 0.002083 480.35812 480.35797
448.0 0.002232 479.46039 479.46024
444.0 0.002252 478.56122 478.56110
487.0 0.002053 477.66058 477.66046
484.0 0.002066 476.75867 476.75858
449.0 0.002227 475.85553 475.85544
436.0 0.002294 474.95114 474.95105
461.0 0.002169 474.04565 474.04556
441.0 0.002268 473.13910 473.13901
426.0 0.002347 472.23145 472.23138
454.0 0.002203 471.32300 471.32291
414.0 0.002415 470.41360 470.41357
422.0 0.002370 469.50339 469.50519
461.0 0.002169 468.59247 468.61963
441.0 0.002268 467.68082 467.84964
449.0 0.002227 466.76855 467.32153
410.0 0.002439 465.85583 467.06680
416.0 0.002404 464.94254 467.39499
435.0 0.002299 464.02884 469.85556
491.0 0.002037 463.11472 476.41846
481.0 0.002079 462.20029 486.92212
515.0 0.001942 461.28568 500.03284
533.0 0.001876 460.37082 515.44751
497.0 0.002012 459.45584 533.72009
582.0 0.001718 458.54086 555.88342
609.0 0.001642 457.62579 583.82190
613.0 0.001631 456.71078 621.67957
691.0 0.001447 455.79593 675.57776
843.0 0.001186 454.88120 737.35559
873.0 0.001145 453.96664 798.32727
1004.0 0.000996 453.05249 926.36084
1148.0 0.000871 452.13858 1177.78491
1186.0 0.000843 451.22513 1266.33411
832.0 0.001202 450.31207 897.44800
546.0 0.001832 449.39948 558.00275
443.0 0.002257 448.48752 478.82108
448.0 0.002232 447.57614 481.24503
469.0 0.002132 446.66541 495.62003
453.0 0.002208 445.75543 520.75018
483.0 0.002070 444.84622 550.98486
491.0 0.002037 443.93777 550.44666
485.0 0.002062 443.03027 525.92841
470.0 0.002128 442.12369 524.35608
529.0 0.001890 441.21808 544.53442
558.0 0.001792 440.31348 578.15002
595.0 0.001681 439.40994 636.67029
673.0 0.001486 438.50760 738.40125
704.0 0.001420 437.60635 808.11432
709.0 0.001410 436.70639 721.51764
604.0 0.001656 435.80771 632.14398
584.0 0.001712 434.91031 638.16199
534.0 0.001873 434.01425 588.58728
449.0 0.002227 433.11969 491.69354
432.0 0.002315 432.22656 452.46732
453.0 0.002208 431.33490 451.38876
462.0 0.002165 430.44485 458.41080
444.0 0.002252 429.55637 470.74094
475.0 0.002105 428.66956 491.38855
522.0 0.001916 427.78439 505.55408
468.0 0.002137 426.90097 487.74298
420.0 0.002381 426.01935 464.38983
471.0 0.002123 425.13947 462.29828
428.0 0.002336 424.26147 472.45419
457.0 0.002188 423.38544 491.03540
490.0 0.002041 422.51129 526.29767
545.0 0.001835 421.63907 571.80359
578.0 0.001730 420.76898 562.00061
508.0 0.001969 419.90088 489.68423
438.0 0.002283 419.03491 444.33621
428.0 0.002336 418.17102 435.20673
394.0 0.002538 417.30933 437.41171
398.0 0.002513 416.44989 445.72632
430.0 0.002326 415.59262 460.98096
502.0 0.001992 414.73767 468.33484
436.0 0.002294 413.88507 447.27188
387.0 0.002584 413.03479 422.05167
390.0 0.002564 412.18686 413.15936
408.0 0.002451 411.34143 411.38211
408.0 0.002451 410.49838 410.49872
437.0 0.002288 409.65787 409.65820
431.0 0.002320 408.81989 408.82022
418.0 0.002392 407.98441 407.98474
388.0 0.002577 407.15158 407.15195
403.0 0.002481 406.32132 406.32169
397.0 0.002519 405.49371 405.49405
406.0 0.002463 404.66882 404.66916
383.0 0.002611 403.84656 403.84692
374.0 0.002674 403.02707 403.02747
385.0 0.002597 402.21039 402.21075
412.0 0.002427 401.39645 401.39682
368.0 0.002717 400.58533 400.58572
411.0 0.002433 399.77713 399.77753
364.0 0.002747 398.97171 398.97211
335.0 0.002985 398.16925 398.16965
393.0 0.002545 397.36969 397.37009
380.0 0.002632 396.57309 396.57349
393.0 0.002545 395.77948 395.77988
378.0 0.002646 394.98880 394.98923
367.0 0.002725 394.20120 394.20163
351.0 0.002849 393.41666 393.41708
355.0 0.002817 392.63516 392.63559
375.0 0.002667 391.85672 391.85715
374.0 0.002674 391.08148 391.08191
421.0 0.002375 390.30930 390.30972
407.0 0.002457 389.54028 389.54071
407.0 0.002457 388.77448 388.77493
369.0 0.002710 388.01184 388.01230
367.0 0.002725 387.25244 387.25290
377.0 0.002653 386.49622 386.49667
374.0 0.002674 385.74329 385.74374
396.0 0.002525 384.99362 384.99411
372.0 0.002688 384.24725 384.24774
380.0 0.002632 383.50412 383.50598
372.0 0.002688 382.76440 382.79266
374.0 0.002674 382.02795 382.29477
375.0 0.002667 381.29486 382.62363
368.0 0.002717 380.56519 384.55283
374.0 0.002674 379.83881 388.24619
397.0 0.002519 379.11591 393.39310
396.0 0.002525 378.39633 399.89459
398.0 0.002513 377.68024 408.00650
406.0 0.002463 376.96756 418.34238
406.0 0.002463 376.25830 431.85776
467.0 0.002141 375.55252 450.04559
501.0 0.001996 374.85022 476.25378
518.0 0.001931 374.15137 519.85077
609.0 0.001642 373.45602 596.48743
636.0 0.001572 372.76419 675.85199
574.0 0.001742 372.07581 650.32361
481.0 0.002079 371.39096 542.38098
459.0 0.002179 370.70972 481.65118
465.0 0.002151 370.03192 473.04108
467.0 0.002141 369.35773 491.84854
540.0 0.001852 368.68701 513.64734
524.0 0.001908 368.01990 513.37189
506.0 0.001976 367.35638 518.16003
556.0 0.001799 366.69638 554.96167
607.0 0.001647 366.03992 629.60565
715.0 0.001399 365.38715 767.99225
854.0 0.001171 364.73785 955.14404
922.0 0.001085 364.09219 976.23102
717.0 0.001395 363.45013 713.20435
484.0 0.002066 362.81165 463.38687
405.0 0.002469 362.17679 382.38843
364.0 0.002747 361.54550 374.25824
368.0 0.002717 360.91782 379.47800
400.0 0.002500 360.29379 386.81226
372.0 0.002688 359.67331 385.64322
383.0 0.002611 359.05646 372.86020
359.0 0.002786 358.44324 361.99744
375.0 0.002667 357.83359 358.25531
344.0 0.002907 357.22757 357.25055
351.0 0.002849 356.62521 356.62625
335.0 0.002985 356.02637 356.02692
352.0 0.002841 355.43118 355.43173
365.0 0.002740 354.83963 354.84018
356.0 0.002809 354.25165 354.25220
343.0 0.002915 353.66730 353.66782
340.0 0.002941 353.08652 353.08707
341.0 0.002933 352.50931 352.50986
358.0 0.002793 351.93576 351.93631
365.0 0.002740 351.36578 351.36630
367.0 0.002725 350.79935 350.79990
364.0 0.002747 350.23657 350.23718
361.0 0.002770 349.67731 349.67984
364.0 0.002747 349.12164 349.16205
398.0 0.002513 348.56955 348.97653
372.0 0.002688 348.02103 350.30219
372.0 0.002688 347.47607 355.26401
392.0 0.002551 346.93463 365.14954
376.0 0.002660 346.39673 379.35803
444.0 0.002252 345.86243 397.07498
481.0 0.002079 345.33160 418.62100
517.0 0.001934 344.80429 445.37003
537.0 0.001862 344.28055 479.95697
566.0 0.001767 343.76025 528.19464
703.0 0.001422 343.24350 605.36273
779.0 0.001284 342.73022 746.07837
1007.0 0.000993 342.22043 967.52441
1193.0 0.000838 341.71408 1117.98413
1011.0 0.000989 341.21124 979.13501
708.0 0.001412 340.71182 718.40692
637.0 0.001570 340.21588 618.46381
754.0 0.001326 339.72333 665.01727
887.0 0.001127 339.23422 776.89789
969.0 0.001032 338.74854 958.71960
1268.0 0.000789 338.26624 1279.54224
1676.0 0.000597 337.78732 1726.91980
1844.0 0.000542 337.31180 1883.13232
1254.0 0.000797 336.83963 1373.12646
650.0 0.001538 336.37079 707.70947
396.0 0.002525 335.90533 404.27765
388.0 0.002577 335.44321 343.85931
378.0 0.002646 334.98438 339.02789
364.0 0.002747 334.52884 339.99686
346.0 0.002890 334.07660 341.72861
357.0 0.002801 333.62766 344.37711
362.0 0.002762 333.18195 348.84525
380.0 0.002632 332.73947 355.66901
385.0 0.002597 332.30029 361.22690
383.0 0.002611 331.86426 360.45401
368.0 0.002717 331.43146 358.15680
374.0 0.002674 331.00186 358.54266
394.0 0.002538 330.57544 353.14087
343.0 0.002915 330.15216 341.10629
360.0 0.002778 329.73206 332.55441
362.0 0.002762 329.31503 329.68591
354.0 0.002825 328.90115 328.92587
317.0 0.003155 328.49036 328.49155
363.0 0.002755 328.08264 328.08304
341.0 0.002933 327.67801 327.67841
360.0 0.002778 327.27640 327.27676
340.0 0.002941 326.87784 326.87820
331.0 0.003021 326.48230 326.48267
361.0 0.002770 326.08972 326.09009
331.0 0.003021 325.70013 325.70050
336.0 0.002976 325.31354 325.31387
348.0 0.002874 324.92987 324.93021
332.0 0.003012 324.54913 324.54947
342.0 0.002924 324.17130 324.17163
341.0 0.002933 323.79633 323.79666
330.0 0.003030 323.42429 323.42459
347.0 0.002882 323.05505 323.05536
334.0 0.002994 322.68866 322.68896
317.0 0.003155 322.32513 322.32544
341.0 0.002933 321.96436 321.96466
351.0 0.002849 321.60635 321.60666
345.0 0.002899 321.25116 321.25143
344.0 0.002907 320.89868 320.89896
344.0 0.002907 320.54892 320.54919
334.0 0.002994 320.20187 320.20215
323.0 0.003096 319.85751 319.85800
353.0 0.002833 319.51584 319.52045
334.0 0.002994 319.17676 319.22134
315.0 0.003175 318.84033 319.10922
338.0 0.002959 318.50653 319.54120
333.0 0.003003 318.17529 320.92093
332.0 0.003012 317.84662 323.36273
358.0 0.002793 317.52051 326.74075
361.0 0.002770 317.19690 331.07678
356.0 0.002809 316.87582 336.84482
348.0 0.002874 316.55725 345.23697
399.0 0.002506 316.24109 358.39325
429.0 0.002331 315.92740 380.01892
434.0 0.002304 315.61615 415.16168
500.0 0.002000 315.30728 457.91638
517.0 0.001934 315.00082 475.37640
483.0 0.002070 314.69669 448.76038
414.0 0.002415 314.39493 419.51263
484.0 0.002066 314.09549 430.26010
567.0 0.001764 313.79834 484.17416
671.0 0.001490 313.50345 561.05310
691.0 0.001447 313.21085 602.14233
625.0 0.001600 312.92047 561.27759
539.0 0.001855 312.63232 497.64737
524.0 0.001908 312.34637 494.22028
590.0 0.001695 312.06259 566.50647
763.0 0.001311 311.78098 686.03186
830.0 0.001205 311.50143 757.40851
683.0 0.001464 311.22406 678.11957
510.0 0.001961 310.94876 518.53400
420.0 0.002381 310.67554 424.36246
409.0 0.002445 310.40436 418.03693
428.0 0.002336 310.13522 461.60141
505.0 0.001980 309.86807 538.27704
634.0 0.001577 309.60291 608.09351
650.0 0.001538 309.33972 587.65173
526.0 0.001901 309.07843 472.58661
392.0 0.002551 308.81912 366.44321
372.0 0.002688 308.56168 322.11130
317.0 0.003155 308.30609 313.21390
346.0 0.002890 308.05240 313.44193
337.0 0.002967 307.80054 315.78732
300.0 0.003333 307.55045 319.51740
322.0 0.003106 307.30222 322.43759
325.0 0.003077 307.05573 320.56174
341.0 0.002933 306.81097 314.44235
308.0 0.003247 306.56796 309.26971
330.0 0.003030 306.32666 307.18387
289.0 0.003460 306.08704 306.76416
319.0 0.003135 305.84909 306.79044
335.0 0.002985 305.61279 306.95364
317.0 0.003155 305.37808 307.26959
319.0 0.003135 305.14502 307.87552
329.0 0.003040 304.91354 309.03799
325.0 0.003077 304.68359 310.78787
334.0 0.002994 304.45520 311.92511
329.0 0.003040 304.22833 310.63242
306.0 0.003268 304.00293 307.47681
314.0 0.003185 303.77905 304.91000
319.0 0.003135 303.55661 303.77155
335.0 0.002985 303.33557 303.35889
316.0 0.003165 303.11603 303.11719
298.0 0.003356 302.89783 302.89761
301.0 0.003322 302.68100 302.68069
303.0 0.003300 302.46555 302.46521
300.0 0.003333 302.25140 302.25110
309.0 0.003236 302.03857 302.03824
317.0 0.003155 301.82706 301.82672
342.0 0.002924 301.61682 301.61649
336.0 0.002976 301.40787 301.40756
307.0 0.003257 301.20007 301.20047
335.0 0.002985 300.99353 301.00055
317.0 0.003155 300.78821 300.83270
324.0 0.003086 300.58401 300.76633
285.0 0.00351 300.38101 300.90869
308.0 0.003247 300.17911 301.34125
318.0 0.003145 299.97833 302.07645
302.0 0.003311 299.77869 303.10806
330.0 0.003030 299.58011 304.49408
331.0 0.003021 299.38254 306.42697
309.0 0.003236 299.18607 309.40274
332.0 0.003012 298.99060 314.52786
360.0 0.002778 298.79611 322.87646
323.0 0.003096 298.60260 332.13675
353.0 0.002833 298.41010 335.75977
378.0 0.002646 298.21851 332.35602
353.0 0.002833 298.02786 330.42740
343.0 0.002915 297.83810 337.22287
360.0 0.002778 297.64923 353.41229
381.0 0.002625 297.46124 379.77921
408.0 0.002451 297.27411 421.87228
487.0 0.002053 297.08780 483.05255
548.0 0.001825 296.90231 540.83282
535.0 0.001869 296.71765 547.69080
455.0 0.002198 296.53375 499.64944
401.0 0.002494 296.35062 458.22070
421.0 0.002375 296.16821 456.18921
434.0 0.002304 295.98657 457.90640
393.0 0.002545 295.80560 435.38913
375.0 0.002667 295.62534 413.10507
380.0 0.002632 295.44580 422.88489
459.0 0.002179 295.26685 472.79535
525.0 0.001905 295.08859 556.91016
634.0 0.001577 294.91095 638.20099
627.0 0.001595 294.73392 642.37231
495.0 0.002020 294.55746 543.00256
341.0 0.002933 294.38162 414.36407
299.0 0.003344 294.20633 333.95651
255.0 0.00392 294.03159 306.07202
291.0 0.003436 293.85739 302.07339
330.0 0.003030 293.68365 304.63486
316.0 0.003165 293.51047 309.42401
326.0 0.003067 293.33777 316.90939
315.0 0.003175 293.16550 328.99051
318.0 0.003145 292.99371 345.52637
309.0 0.003236 292.82236 358.01920
334.0 0.002994 292.65140 353.32443
321.0 0.003115 292.48090 332.63721
327.0 0.003058 292.31076 313.07516
338.0 0.002959 292.14102 304.98825
327.0 0.003058 291.97162 304.26459
351.0 0.002849 291.80261 303.29056
342.0 0.002924 291.63391 299.38782
294.0 0.003401 291.46552 294.92981
274.0 0.00365 291.29749 292.28998
262.0 0.00382 291.12970 291.30865
272.0 0.00368 290.96222 290.98163
265.0 0.00377 290.79498 290.79547
250.0 0.00400 290.62805 290.62711
254.0 0.00394 290.46130 290.46033
283.0 0.00353 290.29483 290.29382
294.0 0.003401 290.12854 290.12753
254.0 0.00394 289.96246 289.96146
261.0 0.00383 289.79660 289.79556
288.0 0.003472 289.63092 289.62988
272.0 0.00368 289.46536 289.46432
276.0 0.00362 289.29999 289.29892
301.0 0.003322 289.13477 289.13370
291.0 0.003436 288.96964 288.96857
257.0 0.00389 288.80466 288.80374
278.0 0.00360 288.63980 288.64017
273.0 0.00366 288.47501 288.48343
273.0 0.00366 288.31033 288.35541
264.0 0.00379 288.14572 288.32416
273.0 0.00366 287.98117 288.57468
277.0 0.00361 287.81665 289.51694
288.0 0.003472 287.65219 291.79236
302.0 0.003311 287.48776 296.03540
328.0 0.003049 287.32336 302.66449
328.0 0.003049 287.15897 312.22946
322.0 0.003106 286.99457 326.30994
351.0 0.002849 286.83017 348.22836
397.0 0.002519 286.66574 382.78995
490.0 0.002041 286.50131 433.96555
562.0 0.001779 286.33682 496.46634
606.0 0.001650 286.17230 546.35907
573.0 0.001745 286.00772 561.25854
511.0 0.001957 285.84305 562.50671
584.0 0.001712 285.67834 604.90631
704.0 0.001420 285.51355 711.89545
827.0 0.001209 285.34866 830.66821
929.0 0.001076 285.18365 856.54376
740.0 0.001351 285.01859 740.85583
498.0 0.002008 284.85336 563.01794
371.0 0.002695 284.68802 438.07147
402.0 0.002488 284.52258 394.95319
417.0 0.002398 284.35696 387.16965
373.0 0.002681 284.19125 371.40192
341.0 0.002933 284.02536 346.31152
349.0 0.002865 283.85931 332.48038
339.0 0.002950 283.69308 340.09253
352.0 0.002841 283.52670 366.72040
411.0 0.002433 283.36014 410.77551
475.0 0.002105 283.19336 473.85583
533.0 0.001876 283.02643 550.73749
624.0 0.001603 282.85928 625.52643
654.0 0.001529 282.69193 683.16827
698.0 0.001433 282.52438 704.30145
681.0 0.001468 282.35660 654.58923
499.0 0.002004 282.18860 532.86108
345.0 0.002899 282.02039 402.48181
313.0 0.003195 281.85193 321.69427
294.0 0.003401 281.68323 290.62485
271.0 0.00369 281.51431 282.90747
279.0 0.00358 281.34512 281.52997
280.0 0.00357 281.17569 281.21277
274.0 0.00365 281.00601 281.01602
286.0 0.003497 280.83606 280.83740
270.0 0.00370 280.66583 280.66495
263.0 0.00380 280.49536 280.49442
242.0 0.00413 280.32458 280.32449
262.0 0.00382 280.15353 280.15515
272.0 0.00368 279.98224 279.98654
261.0 0.00383 279.81067 279.81879
261.0 0.00383 279.63876 279.65216
246.0 0.00407 279.46658 279.48785
239.0 0.00418 279.29410 279.32794
256.0 0.00391 279.12134 279.17606
247.0 0.00405 278.94827 279.04044
278.0 0.00360 278.77490 278.95026
253.0 0.00395 278.60123 278.98044
271.0 0.00369 278.42725 279.24478
261.0 0.00383 278.25296 279.84268
246.0 0.00407 278.07834 280.83447
260.0 0.00385 277.90341 282.31497
300.0 0.003333 277.72818 284.56662
298.0 0.003356 277.55264 288.19186
288.0 0.003472 277.37674 293.80743
291.0 0.003436 277.20056 300.68079
300.0 0.003333 277.02405 305.49213
309.0 0.003236 276.84717 304.73752
315.0 0.003175 276.67001 299.61438
291.0 0.003436 276.49252 295.76517
284.0 0.00352 276.31470 297.52197
331.0 0.003021 276.13654 304.36752
335.0 0.002985 275.95807 311.48050
323.0 0.003096 275.77927 313.32706
264.0 0.00379 275.60013 309.58960
246.0 0.00407 275.42068 306.37610
261.0 0.00383 275.24091 310.22278
322.0 0.003106 275.06076 324.19336
325.0 0.003077 274.88031 348.44095
368.0 0.002717 274.69952 377.14993
392.0 0.002551 274.51840 394.76721
355.0 0.002817 274.33698 386.93900
311.0 0.003215 274.15521 359.67853
335.0 0.002985 273.97311 335.93420
349.0 0.002865 273.79071 331.40622
389.0 0.002571 273.60797 342.49213
402.0 0.002488 273.42490 352.87219
400.0 0.002500 273.24149 347.44058
310.0 0.003226 273.05780 326.06378
292.0 0.003425 272.87375 302.62497
274.0 0.00365 272.68939 288.95871
298.0 0.003356 272.50473 286.18994
270.0 0.00370 272.31973 289.93011
281.0 0.00356 272.13443 295.53745
280.0 0.00357 271.94882 298.79169
307.0 0.003257 271.76291 297.50525
246.0 0.00407 271.57669 293.55728
271.0 0.00369 271.39017 290.18280
276.0 0.00362 271.20331 287.72192
256.0 0.00391 271.01617 284.90829
271.0 0.00369 270.82874 282.83795
265.0 0.00377 270.64102 284.65683
303.0 0.003300 270.45300 292.45740
312.0 0.003205 270.26471 306.68378
328.0 0.003049 270.07611 328.24680
368.0 0.002717 269.88721 360.64612
424.0 0.002358 269.69806 409.31873
515.0 0.001942 269.50864 473.38000
590.0 0.001695 269.31891 531.17487
616.0 0.001623 269.12894 543.37909
509.0 0.001965 268.93869 491.17676
380.0 0.002632 268.74814 405.26279
324.0 0.003086 268.55737 335.80750
280.0 0.00357 268.36636 305.43188
309.0 0.003236 268.17508 306.51291
313.0 0.003195 267.98355 326.37198
353.0 0.002833 267.79178 361.50650
404.0 0.002475 267.59976 416.90286
492.0 0.002033 267.40753 497.45505
647.0 0.001546 267.21503 591.93219
763.0 0.001311 267.02231 664.70160
655.0 0.001527 266.82941 683.47980
560.0 0.001786 266.63626 661.51874
525.0 0.001905 266.44287 646.02429
595.0 0.001681 266.24933 662.71521
664.0 0.001506 266.05557 698.28046
648.0 0.001543 265.86160 722.08734
609.0 0.001642 265.66742 698.45581
511.0 0.001957 265.47305 607.63458
371.0 0.002695 265.27853 477.34717
323.0 0.003096 265.08377 364.18484
274.0 0.00365 264.88889 299.05133
265.0 0.00377 264.69385 273.27783
293.0 0.003413 264.49860 266.05927
270.0 0.00370 264.30322 264.50641
300.0 0.003333 264.10770 264.12518
266.0 0.00376 263.91199 263.91141
281.0 0.00356 263.71616 263.71426
266.0 0.00376 263.52020 263.51846
244.0 0.00410 263.32410 263.32327
235.0 0.00426 263.12787 263.13202
251.0 0.00398 262.93155 262.95721
258.0 0.00388 262.73508 262.83539
249.0 0.00402 262.53851 262.84854
236.0 0.00424 262.34186 263.13379
257.0 0.00389 262.14511 263.86304
295.0 0.003390 261.94827 265.21088
290.0 0.003448 261.75134 267.37701
276.0 0.00362 261.55432 270.69440
267.0 0.00375 261.35724 275.68127
314.0 0.003185 261.16013 282.64850
304.0 0.003289 260.96292 290.56302
320.0 0.003125 260.76566 296.12027
307.0 0.003257 260.56836 295.36401
293.0 0.003413 260.37103 287.74213
296.0 0.003378 260.17365 277.60577
246.0 0.00407 259.97626 270.38495
266.0 0.00376 259.77884 268.38422
294.0 0.003401 259.58139 270.81860
291.0 0.003436 259.38397 276.18698
269.0 0.00372 259.18655 283.97232
294.0 0.003401 258.98911 295.15198
308.0 0.003247 258.79169 311.09390
385.0 0.002597 258.59430 330.65744
391.0 0.002558 258.39691 348.50586
376.0 0.002660 258.19958 358.29465
363.0 0.002755 258.00229 357.95346
373.0 0.002681 257.80502 350.91354
354.0 0.002825 257.60785 344.06357
360.0 0.002778 257.41074 345.28198
400.0 0.002500 257.21365 357.98569
404.0 0.002475 257.01666 375.31818
390.0 0.002564 256.81979 384.63614
377.0 0.002653 256.62296 381.95682
363.0 0.002755 256.42624 378.01917
383.0 0.002611 256.22961 385.22366
433.0 0.002309 256.03314 402.34113
463.0 0.002160 255.83673 417.94308
424.0 0.002358 255.64047 426.11627
442.0 0.002262 255.44435 430.92169
446.0 0.002242 255.24834 434.50992
471.0 0.002123 255.05251 429.07578
425.0 0.002353 254.85683 406.42188
345.0 0.002899 254.66127 371.98395
310.0 0.003226 254.46593 343.17267
327.0 0.003058 254.27074 333.90179
329.0 0.003040 254.07573 344.11053
360.0 0.002778 253.88092 362.19269
353.0 0.002833 253.68631 373.13611
355.0 0.002817 253.49188 366.33878
313.0 0.003195 253.29768 341.47437
282.0 0.00355 253.10370 308.65634
263.0 0.00380 252.90993 280.60309
276.0 0.00362 252.71642 263.64255
269.0 0.00372 252.52313 256.36475
263.0 0.00380 252.33008 254.55872
280.0 0.00357 252.13731 255.25696
297.0 0.003367 251.94479 257.36786
300.0 0.003333 251.75253 260.89630
273.0 0.00366 251.56056 266.35495
302.0 0.003311 251.36888 274.22427
332.0 0.003012 251.17749 283.80280
320.0 0.003125 250.98639 291.97821
308.0 0.003247 250.79559 294.11981
307.0 0.003257 250.60512 287.86612
281.0 0.00356 250.41495 275.94730
260.0 0.00385 250.22513 263.99783
262.0 0.00382 250.03563 255.85272
243.0 0.00412 249.84647 251.76964
269.0 0.00372 249.65767 250.15686
253.0 0.00395 249.46922 249.57086
263.0 0.00380 249.28111 249.29654
270.0 0.00370 249.09341 249.09460
269.0 0.00372 248.90608 248.90927
262.0 0.00382 248.71912 248.74463
257.0 0.00389 248.53256 248.65431
236.0 0.00424 248.34641 248.79655
244.0 0.00410 248.16064 249.51575
276.0 0.00362 247.97530 251.38475
258.0 0.00388 247.79039 255.15527
288.0 0.003472 247.60588 261.70511
293.0 0.003413 247.42183 272.18976
310.0 0.003226 247.23822 288.31662
300.0 0.003333 247.05502 311.78180
355.0 0.002817 246.87233 341.47034
414.0 0.002415 246.69008 369.56436
445.0 0.002247 246.50830 382.55298
404.0 0.002475 246.32697 371.12332
349.0 0.002865 246.14615 340.12219
296.0 0.003378 245.96584 305.16672
286.0 0.003497 245.78596 279.25250
263.0 0.00380 245.60664 265.68573
272.0 0.00368 245.42781 262.19794
269.0 0.00372 245.24948 266.95773
269.0 0.00372 245.07172 280.23523
289.0 0.003460 244.89445 303.68750
289.0 0.003460 244.71771 339.73642
350.0 0.002857 244.54155 389.90558
407.0 0.002457 244.36592 449.99991
454.0 0.002203 244.19083 504.57706
522.0 0.001916 244.01633 530.19275
455.0 0.002198 243.84238 512.24384
396.0 0.002525 243.66899 459.77176
366.0 0.002732 243.49622 397.74069
311.0 0.003215 243.32402 345.26495
296.0 0.003378 243.15239 306.62744
271.0 0.00369 242.98140 279.28604
281.0 0.00356 242.81100 261.50098
281.0 0.00356 242.64120 252.10281
274.0 0.00365 242.47203 248.70546
251.0 0.00398 242.30350 248.28362
232.0 0.00431 242.13559 248.40921
234.0 0.00427 241.96829 247.77666
256.0 0.00391 241.80167 246.21902
273.0 0.00366 241.63568 244.32939
221.0 0.00452 241.47032 242.77272
249.0 0.00402 241.30566 241.80115
238.0 0.00420 241.14166 241.28876
254.0 0.00394 240.97830 241.01163
252.0 0.00397 240.81566 240.82120
253.0 0.00395 240.65369 240.65746
251.0 0.00398 240.49239 240.51260
254.0 0.00394 240.33180 240.41759
283.0 0.00353 240.17191 240.46207
264.0 0.00379 240.01271 240.82907
250.0 0.00400 239.85423 241.81404
237.0 0.00422 239.69647 243.81381
238.0 0.00420 239.53941 247.32817
242.0 0.00413 239.38312 253.02147
285.0 0.00351 239.22752 261.68860
274.0 0.00365 239.07266 273.64795
338.0 0.002959 238.91856 287.34503
364.0 0.002747 238.76521 298.41632
359.0 0.002786 238.61259 301.53763
305.0 0.003279 238.46074 294.90469
263.0 0.00380 238.30966 282.86130
259.0 0.00386 238.15933 273.05679
267.0 0.00375 238.00978 270.86441
275.0 0.00364 237.86099 276.55081
285.0 0.00351 237.71301 286.88864
276.0 0.00362 237.56580 299.05334
322.0 0.003106 237.41937 313.57043
355.0 0.002817 237.27374 333.18735
400.0 0.002500 237.12891 357.31494
383.0 0.002611 236.98489 377.41092
363.0 0.002755 236.84167 380.54883
367.0 0.002725 236.69925 360.39249
302.0 0.003311 236.55768 324.18518
252.0 0.00397 236.41690 287.14423
233.0 0.00429 236.27695 260.62076
245.0 0.00408 236.13783 246.55141
233.0 0.00429 235.99956 240.82112
255.0 0.00392 235.86209 238.78291
248.0 0.00403 235.72549 237.80595
235.0 0.00426 235.58972 237.05664
244.0 0.00410 235.45480 236.50029
233.0 0.00429 235.32076 236.22412
244.0 0.00410 235.18755 236.18675
218.0 0.00459 235.05518 236.25182
240.0 0.00417 234.92371 236.27304
221.0 0.00452 234.79308 236.19925
223.0 0.00448 234.66333 236.15041
224.0 0.00446 234.53444 236.41939
259.0 0.00386 234.40643 237.41922
240.0 0.00417 234.27933 239.63181
234.0 0.00427 234.15306 243.54976
239.0 0.00418 234.02771 249.58153
264.0 0.00379 233.90324 257.99814
278.0 0.00360 233.77966 268.93668
266.0 0.00376 233.65698 282.04971
303.0 0.003300 233.53520 295.41806
287.0 0.003484 233.41431 304.78134
337.0 0.002967 233.29433 305.25681
336.0 0.002976 233.17526 295.33328
273.0 0.00366 233.05708 279.03946
249.0 0.00402 232.93983 263.29105
255.0 0.00392 232.82349 253.14183
236.0 0.00424 232.70805 249.65923
250.0 0.00400 232.59354 251.06415
261.0 0.00383 232.47997 254.51163
262.0 0.00382 232.36728 257.12347
270.0 0.00370 232.25555 256.89810
241.0 0.00415 232.14474 253.68839
250.0 0.00400 232.03485 249.29805
253.0 0.00395 231.92590 246.23155
257.0 0.00389 231.81789 246.12527
252.0 0.00397 231.71080 248.96577
268.0 0.00373 231.60464 253.28511
254.0 0.00394 231.49945 257.04559
267.0 0.00375 231.39517 259.00772
253.0 0.00395 231.29184 259.89224
251.0 0.00398 231.18947 262.17728
280.0 0.00357 231.08804 268.22137
270.0 0.00370 230.98753 277.89435
308.0 0.003247 230.88800 287.57336
335.0 0.002985 230.78941 291.78247
336.0 0.002976 230.69176 286.97363
296.0 0.003378 230.59508 274.48990
251.0 0.00398 230.49934 259.71619
223.0 0.00448 230.40456 248.18468
251.0 0.00398 230.31075 242.50731
252.0 0.00397 230.21786 242.32184
235.0 0.00426 230.12595 245.84444
280.0 0.00357 230.03500 250.87973
269.0 0.00372 229.94501 255.08388
280.0 0.00357 229.85597 256.51746
269.0 0.00372 229.76790 254.66411
238.0 0.00420 229.68079 250.78162
246.0 0.00407 229.59462 246.85817
257.0 0.00389 229.50945 244.17099
233.0 0.00429 229.42522 242.88290
260.0 0.00385 229.34195 242.72762
261.0 0.00383 229.25964 243.67079
262.0 0.00382 229.17831 245.90279
276.0 0.00362 229.09795 249.45135
267.0 0.00375 229.01852 253.81584
260.0 0.00385 228.94008 257.77106
291.0 0.003436 228.86259 259.60159
260.0 0.00385 228.78607 258.05917
263.0 0.00380 228.71053 253.47722
235.0 0.00426 228.63593 247.90041
227.0 0.00441 228.56230 243.88182
255.0 0.00392 228.48964 243.01360
273.0 0.00366 228.41794 245.46692
269.0 0.00372 228.34720 250.73921
281.0 0.00356 228.27742 258.83524
300.0 0.003333 228.20860 270.83981
308.0 0.003247 228.14075 288.15350
330.0 0.003030 228.07385 310.52084
394.0 0.002538 228.00792 334.17319
409.0 0.002445 227.94293 351.99423
411.0 0.002433 227.87892 356.72650
405.0 0.002469 227.81586 345.69968
327.0 0.003058 227.75375 323.40112
268.0 0.00373 227.69261 299.13205
269.0 0.00372 227.63242 281.21207
306.0 0.003268 227.57318 272.42123
311.0 0.003215 227.51488 269.93005
287.0 0.003484 227.45755 268.87613
269.0 0.00372 227.40115 266.30014
283.0 0.00353 227.34572 262.72107
270.0 0.00370 227.29123 260.75653
244.0 0.00410 227.23769 262.28851
276.0 0.00362 227.18507 266.47815
278.0 0.00360 227.13342 270.08896
283.0 0.00353 227.08270 269.85144
258.0 0.00388 227.03293 265.05087
221.0 0.00452 226.98409 258.22522
246.0 0.00407 226.93619 253.46475
258.0 0.00388 226.88921 253.95981
282.0 0.00355 226.84319 260.67361
270.0 0.00370 226.79808 272.29031
306.0 0.003268 226.75389 285.48923
327.0 0.003058 226.71065 295.47607
387.0 0.002584 226.66833 297.69986
323.0 0.003096 226.62694 290.59109
279.0 0.00358 226.58646 277.09894
233.0 0.00429 226.54691 263.13226
237.0 0.00422 226.50826 254.03882
257.0 0.00389 226.47054 252.09901
241.0 0.00415 226.43372 256.40665
257.0 0.00389 226.39781 264.06631
254.0 0.00394 226.36282 271.40170
263.0 0.00380 226.32872 275.11850
241.0 0.00415 226.29553 273.67862
241.0 0.00415 226.26324 268.20193
264.0 0.00379 226.23186 261.88934
304.0 0.003289 226.20135 258.18845
279.0 0.00358 226.17175 259.11893
265.0 0.00377 226.14305 264.70807
304.0 0.003289 226.11522 273.24567
291.0 0.003436 226.08827 281.82303
297.0 0.003367 226.06221 287.22983
311.0 0.003215 226.03703 287.33542
273.0 0.00366 226.01273 282.32379
247.0 0.00405 225.98929 274.69321
286.0 0.003497 225.96672 267.67960
251.0 0.00398 225.94502 263.20016
280.0 0.00357 225.92419 260.99939
246.0 0.00407 225.90422 259.57242
252.0 0.00397 225.88510 257.76923
230.0 0.00435 225.86684 255.54967
231.0 0.00433 225.84943 253.45346
250.0 0.00400 225.83286 251.63348
232.0 0.00431 225.81714 249.54530
259.0 0.00386 225.80226 246.57114
243.0 0.00412 225.78821 242.87843
228.0 0.00439 225.77501 239.62962
244.0 0.00410 225.76263 238.39339
248.0 0.00403 225.75108 240.35997
243.0 0.00412 225.74036 245.88350
269.0 0.00372 225.73045 254.32980
267.0 0.00375 225.72136 264.10526
291.0 0.003436 225.71307 273.09891
283.0 0.00353 225.70561 279.67273
287.0 0.003484 225.69894 283.50787
281.0 0.00356 225.69308 285.28189
276.0 0.00362 225.68803 285.32483
342.0 0.002924 225.68376 282.83768
304.0 0.003289 225.68028 276.76108
315.0 0.003175 225.67758 267.31079
297.0 0.003367 225.67567 256.33533
235.0 0.00426 225.67455 246.15196
228.0 0.00439 225.67418 238.21571
229.0 0.00437 225.67459 232.78133
241.0 0.00415 225.67578 229.39560
219.0 0.00457 225.67772 227.45171
238.0 0.00420 225.68042 226.43611
236.0 0.00424 225.68387 225.96596
224.0 0.00446 225.68808 225.77902
227.0 0.00441 225.69302 225.71851
246.0 0.00407 225.69872 225.70667
234.0 0.00427 225.70515 225.71330
227.0 0.00441 225.71231 225.73186
228.0 0.00439 225.72021 225.76694
218.0 0.00459 225.72882 225.83034
224.0 0.00446 225.73816 225.93964
215.0 0.00465 225.74823 226.11580
229.0 0.00437 225.75899 226.37549
248.0 0.00403 225.77046 226.71648
247.0 0.00405 225.78264 227.10103
240.0 0.00417 225.79552 227.45247
197.0 0.00508 225.80908 227.67828
229.0 0.00437 225.82333 227.71239
230.0 0.00435 225.83827 227.54933
229.0 0.00437 225.85390 227.24681
216.0 0.00463 225.87019 226.90099
230.0 0.00435 225.88716 226.62106
262.0 0.00382 225.90480 226.52791
219.0 0.00457 225.92311 226.78598
217.0 0.00461 225.94206 227.66400
212.0 0.00472 225.96167 229.60524
239.0 0.00418 225.98193 233.27371
235.0 0.00426 226.00282 239.51299
246.0 0.00407 226.02437 249.10893
271.0 0.00369 226.04654 262.27252
271.0 0.00369 226.06934 278.01123
306.0 0.003268 226.09277 293.96210
308.0 0.003247 226.11682 307.27905
297.0 0.003367 226.14148 316.29611
305.0 0.003279 226.16675 321.57819
296.0 0.003378 226.19263 325.16104
296.0 0.003378 226.21910 328.54718
313.0 0.003195 226.24617 331.35999
352.0 0.002841 226.27383 331.72504
335.0 0.002985 226.30208 327.62668
326.0 0.003067 226.33092 318.01910
302.0 0.003311 226.36032 303.36078
280.0 0.00357 226.39030 285.69220
260.0 0.00385 226.42085 268.06927
246.0 0.00407 226.45195 253.32327
221.0 0.00452 226.48361 242.88861
236.0 0.00424 226.51582 236.57623
261.0 0.00383 226.54858 233.30775
200.0 0.00500 226.58188 232.04459
221.0 0.00452 226.61572 232.24420
241.0 0.00415 226.65009 233.77235
249.0 0.00402 226.68498 236.57726
229.0 0.00437 226.72041 240.40695
246.0 0.00407 226.75633 244.67691
233.0 0.00429 226.79279 248.49643
257.0 0.00389 226.82973 250.85599
271.0 0.00369 226.86719 250.96414
251.0 0.00398 226.90514 248.62387
239.0 0.00418 226.94357 244.41608
222.0 0.00450 226.98250 239.49866
230.0 0.00435 227.02191 235.10008
243.0 0.00412 227.06178 232.04373
248.0 0.00403 227.10214 230.59746
239.0 0.00418 227.14296 230.64882
234.0 0.00427 227.18423 231.96935
234.0 0.00427 227.22598 234.33748
241.0 0.00415 227.26817 237.46280
229.0 0.00437 227.31081 240.82973
216.0 0.00463 227.35388 243.66267
248.0 0.00403 227.39738 245.14275
265.0 0.00377 227.44131 244.79671
244.0 0.00410 227.48569 242.78679
238.0 0.00420 227.53047 239.86855
229.0 0.00437 227.57567 237.03706
239.0 0.00418 227.62128 235.10881
242.0 0.00413 227.66730 234.48634
221.0 0.00452 227.71371 235.18427
231.0 0.00433 227.76053 237.03377
227.0 0.00441 227.80771 239.91284
211.0 0.00474 227.85530 243.85550
253.0 0.00395 227.90326 248.96271
244.0 0.00410 227.95160 255.15561
254.0 0.00394 228.00031 261.91403
283.0 0.00353 228.04936 268.18011
270.0 0.00370 228.09880 272.57263
287.0 0.003484 228.14859 273.93155
258.0 0.00388 228.19872 271.96997
280.0 0.00357 228.24919 267.59042
264.0 0.00379 228.30000 262.53284
231.0 0.00433 228.35115 258.50656
241.0 0.00415 228.40263 256.38458
265.0 0.00377 228.45442 255.97433
258.0 0.00388 228.50655 256.41852
247.0 0.00405 228.55898 256.87231
243.0 0.00412 228.61172 257.02353
248.0 0.00403 228.66476 257.21191
234.0 0.00427 228.71811 258.14670
228.0 0.00439 228.77174 260.38498
273.0 0.00366 228.82567 263.80908
254.0 0.00394 228.87988 267.40631
257.0 0.00389 228.93436 269.62537
272.0 0.00368 228.98912 269.25977
257.0 0.00389 229.04414 266.30118
252.0 0.00397 229.09944 262.04752
252.0 0.00397 229.15498 258.28677
256.0 0.00391 229.21078 256.17719
242.0 0.00413 229.26685 255.69981
248.0 0.00403 229.32315 256.01059
265.0 0.00377 229.37968 256.24686
240.0 0.00417 229.43645 256.06073
237.0 0.00422 229.49345 255.55025
240.0 0.00417 229.55067 254.87157
234.0 0.00427 229.60812 254.04172
233.0 0.00429 229.66577 253.11444
216.0 0.00463 229.72365 252.43764
225.0 0.00444 229.78172 252.60161
247.0 0.00405 229.84000 254.03764
279.0 0.00358 229.89845 256.61588
257.0 0.00389 229.95711 259.60968
223.0 0.00448 230.01595 262.05185
250.0 0.00400 230.07498 263.18918
267.0 0.00375 230.13419 262.74258
257.0 0.00389 230.19356 260.92200
230.0 0.00435 230.25308 258.29822
250.0 0.00400 230.31279 255.58511
252.0 0.00397 230.37265 253.32979
261.0 0.00383 230.43265 251.62294
242.0 0.00413 230.49281 250.06267
220.0 0.00455 230.55312 248.07762
226.0 0.00442 230.61356 245.39590
232.0 0.00431 230.67412 242.29520
249.0 0.00402 230.73483 239.45828
236.0 0.00424 230.79565 237.58949
246.0 0.00407 230.85660 237.08109
233.0 0.00429 230.91766 237.88412
240.0 0.00417 230.97884 239.55251
241.0 0.00415 231.04012 241.38162
223.0 0.00448 231.10150 242.61975
235.0 0.00426 231.16298 242.73573
245.0 0.00408 231.22455 241.64673
220.0 0.00455 231.28622 239.76326
232.0 0.00431 231.34796 237.80547
207.0 0.00483 231.40979 236.50818
229.0 0.00437 231.47169 236.39162
223.0 0.00448 231.53366 237.67365
244.0 0.00410 231.59569 240.25998
240.0 0.00417 231.65779 243.72722
235.0 0.00426 231.71994 247.32001
234.0 0.00427 231.78217 250.08269
227.0 0.00441 231.84442 251.19252
220.0 0.00455 231.90672 250.37099
245.0 0.00408 231.96906 248.10017
241.0 0.00415 232.03145 245.45407
243.0 0.00412 232.09386 243.62076
232.0 0.00431 232.15630 243.39359
229.0 0.00437 232.21875 244.87935
235.0 0.00426 232.28123 247.49278
234.0 0.00427 232.34373 250.18382
236.0 0.00424 232.40623 251.82071
228.0 0.00439 232.46877 251.62648
213.0 0.00469 232.53127 249.49469
245.0 0.00408 232.59378 246.00558
252.0 0.00397 232.65631 242.11978
231.0 0.00433 232.71881 238.74638
237.0 0.00422 232.78128 236.45671
237.0 0.00422 232.84377 235.47734
227.0 0.00441 232.90620 235.88475
225.0 0.00444 232.96863 237.81696
247.0 0.00405 233.03102 241.54625
235.0 0.00426 233.09338 247.34918
253.0 0.00395 233.15570 255.20163
272.0 0.00368 233.21799 264.42978
276.0 0.00362 233.28023 273.54556
299.0 0.003344 233.34241 280.49670
333.0 0.003003 233.40456 283.36606
337.0 0.002967 233.46663 281.22122
299.0 0.003344 233.52864 274.60870
229.0 0.00437 233.59061 265.34842
240.0 0.00417 233.65248 255.74016
236.0 0.00424 233.71429 247.67876
243.0 0.00412 233.77603 242.16762
249.0 0.00402 233.83769 239.37019
256.0 0.00391 233.89928 238.97710
232.0 0.00431 233.96077 240.54695
232.0 0.00431 234.02217 243.61903
230.0 0.00435 234.08347 247.61555
254.0 0.00394 234.14468 251.71402
282.0 0.00355 234.20580 254.89012
286.0 0.003497 234.26680 256.20593
257.0 0.00389 234.32770 255.20866
248.0 0.00403 234.38849 252.16887
264.0 0.00379 234.44916 247.96391
238.0 0.00420 234.50970 243.66528
250.0 0.00400 234.57014 240.09618
238.0 0.00420 234.63045 237.61086
216.0 0.00463 234.69061 236.15028
239.0 0.00418 234.75067 235.44637
236.0 0.00424 234.81058 235.21231
235.0 0.00426 234.87035 235.23837
260.0 0.00385 234.92998 235.40199
219.0 0.00457 234.98947 235.64128
224.0 0.00446 235.04880 235.93065
202.0 0.00495 235.10799 236.27359
238.0 0.00420 235.16702 236.70557
237.0 0.00422 235.22589 237.28938
247.0 0.00405 235.28459 238.08630
248.0 0.00403 235.34315 239.10268
255.0 0.00392 235.40152 240.23795
246.0 0.00407 235.45973 241.27475
227.0 0.00441 235.51778 241.93951
246.0 0.00407 235.57562 242.01843
230.0 0.00435 235.63330 241.46591
216.0 0.00463 235.69080 240.43451
230.0 0.00435 235.74811 239.20395
232.0 0.00431 235.80522 238.05568
258.0 0.00388 235.86217 237.17070
222.0 0.00450 235.91888 236.59990
217.0 0.00461 235.97542 236.30072
243.0 0.00412 236.03175 236.19965
214.0 0.00467 236.08789 236.24445
221.0 0.00452 236.14381 236.43582
230.0 0.00435 236.19952 236.84406
262.0 0.00382 236.25504 237.61768
260.0 0.00385 236.31032 238.97729
264.0 0.00379 236.36539 241.17432
239.0 0.00418 236.42024 244.39317
248.0 0.00403 236.47485 248.60146
243.0 0.00412 236.52927 253.40816
260.0 0.00385 236.58344 258.04175
275.0 0.00364 236.63736 261.54785
237.0 0.00422 236.69107 263.18869
245.0 0.00408 236.74454 262.86316
253.0 0.00395 236.79776 261.29724
261.0 0.00383 236.85075 259.87100
248.0 0.00403 236.90350 260.16605
238.0 0.00420 236.95599 263.44760
259.0 0.00386 237.00824 270.24020
268.0 0.00373 237.06023 280.04233
296.0 0.003378 237.11197 291.22540
341.0 0.002933 237.16344 301.25995
327.0 0.003058 237.21466 307.40173
343.0 0.002915 237.26562 307.70248
291.0 0.003436 237.31631 301.86371
280.0 0.00357 237.36674 291.40048
263.0 0.00380 237.41690 278.97827
263.0 0.00380 237.46678 267.31903
263.0 0.00380 237.51639 258.29892
266.0 0.00376 237.56572 252.61795
259.0 0.00386 237.61478 249.99255
267.0 0.00375 237.66356 249.57510
270.0 0.00370 237.71204 250.33607
252.0 0.00397 237.76024 251.31799
252.0 0.00397 237.80815 251.79295
236.0 0.00424 237.85577 251.36530
229.0 0.00437 237.90311 250.01540
225.0 0.00444 237.95013 248.04985
259.0 0.00386 237.99689 245.94943
234.0 0.00427 238.04332 244.16727
249.0 0.00402 238.08946 242.96550
258.0 0.00388 238.13530 242.36122
249.0 0.00402 238.18083 242.19179
243.0 0.00412 238.22604 242.25046
266.0 0.00376 238.27097 242.42082
210.0 0.00476 238.31557 242.74945
238.0 0.00420 238.35985 243.43004
256.0 0.00391 238.40382 244.71133
237.0 0.00422 238.44748 246.77161
261.0 0.00383 238.49080 249.61877
296.0 0.003378 238.53381 253.06395
269.0 0.00372 238.57651 256.78418
276.0 0.00362 238.61887 260.44312
287.0 0.003484 238.66090 263.80435
264.0 0.00379 238.70261 266.78705
288.0 0.003472 238.74397 269.46994
300.0 0.003333 238.78502 272.10162
278.0 0.00360 238.82571 275.14581
266.0 0.00376 238.86609 279.29742
292.0 0.003425 238.90611 285.34021
293.0 0.003413 238.94580 293.78854
329.0 0.003040 238.98514 304.43991
330.0 0.003030 239.02414 316.13071
323.0 0.003096 239.06279 326.95410
369.0 0.002710 239.10109 334.93246
362.0 0.002762 239.13904 338.80081
346.0 0.002890 239.17665 338.42340
360.0 0.002778 239.21390 334.59375
345.0 0.002899 239.25078 328.40381
323.0 0.003096 239.28732 320.65671
320.0 0.003125 239.32350 311.70059
345.0 0.002899 239.35931 301.68939
312.0 0.003205 239.39478 290.96240
301.0 0.003322 239.42987 280.21396
286.0 0.003497 239.46460 270.34503
275.0 0.00364 239.49896 262.13373
257.0 0.00389 239.53294 255.95534
248.0 0.00403 239.56657 251.71156
247.0 0.00405 239.59982 248.97212
229.0 0.00437 239.63271 247.21227
236.0 0.00424 239.66521 246.00620
258.0 0.00388 239.69733 245.10364
228.0 0.00439 239.72908 244.40643
239.0 0.00418 239.76045 243.90999
253.0 0.00395 239.79144 243.66518
276.0 0.00362 239.82205 243.76874
252.0 0.00397 239.85226 244.35672
242.0 0.00413 239.88211 245.57207
250.0 0.00400 239.91156 247.50587
257.0 0.00389 239.94063 250.14154
240.0 0.00417 239.96930 253.33974
290.0 0.003448 239.99757 256.87729
287.0 0.003484 240.02547 260.51169
293.0 0.003413 240.05296 264.01740
282.0 0.00355 240.08006 267.16608
264.0 0.00379 240.10677 269.68182
286.0 0.003497 240.13307 271.24374
288.0 0.003472 240.15898 271.58136
275.0 0.00364 240.18449 270.61774
297.0 0.003367 240.20959 268.55872
275.0 0.00364 240.23430 265.84604
267.0 0.00375 240.25859 262.98868
264.0 0.00379 240.28247 260.36829
257.0 0.00389 240.30597 258.12735
250.0 0.00400 240.32904 256.19260
277.0 0.00361 240.35170 254.40480
238.0 0.00420 240.37395 252.66872
253.0 0.00395 240.39578 251.03145
257.0 0.00389 240.41722 249.64801
265.0 0.00377 240.43823 248.66534
274.0 0.00365 240.45882 248.10719
250.0 0.00400 240.47900 247.83505
259.0 0.00386 240.49875 247.60635
256.0 0.00391 240.51810 247.19063
263.0 0.00380 240.53702 246.47328
275.0 0.00364 240.55551 245.49429
265.0 0.00377 240.57358 244.41084
248.0 0.00403 240.59122 243.41640
271.0 0.00369 240.60844 242.66336
272.0 0.00368 240.62524 242.22450
226.0 0.00442 240.64160 242.09978
229.0 0.00437 240.65753 242.25519
259.0 0.00386 240.67303 242.66989
250.0 0.00400 240.68811 243.37161
251.0 0.00398 240.70276 244.44151
246.0 0.00407 240.71696 245.97890
251.0 0.00398 240.73073 248.02959
263.0 0.00380 240.74406 250.50485
278.0 0.00360 240.75696 253.13976
272.0 0.00368 240.76941 255.53575
297.0 0.003367 240.78143 257.29599
279.0 0.00358 240.79301 258.19901
265.0 0.00377 240.80415 258.31729
298.0 0.003356 240.81483 257.99698
275.0 0.00364 240.82509 257.69086
291.0 0.003436 240.83490 257.72559
258.0 0.00388 240.84425 258.13004
245.0 0.00408 240.85316 258.62366
279.0 0.00358 240.86162 258.77505
291.0 0.003436 240.86963 258.24533
283.0 0.00353 240.87720 256.99091
232.0 0.00431 240.88431 255.32582
244.0 0.00410 240.89096 253.82172
262.0 0.00382 240.89717 253.09674
275.0 0.00364 240.90292 253.58160
287.0 0.003484 240.90822 255.34285
270.0 0.00370 240.91306 258.01819
269.0 0.00372 240.91743 260.89316
281.0 0.00356 240.92136 263.11139
269.0 0.00372 240.92482 263.96567
282.0 0.00355 240.92783 263.15887
267.0 0.00375 240.93036 260.92294
262.0 0.00382 240.93243 257.93811
261.0 0.00383 240.93405 255.10229
280.0 0.00357 240.93520 253.27213
236.0 0.00424 240.93588 253.09547
260.0 0.00385 240.93611 254.97318
256.0 0.00391 240.93585 259.09445
262.0 0.00382 240.93513 265.44714
285.0 0.00351 240.93394 273.74152
277.0 0.00361 240.93230 283.28299
310.0 0.003226 240.93016 292.91791
310.0 0.003226 240.92757 301.18893
306.0 0.003268 240.92448 306.73492
286.0 0.003497 240.92094 308.79453
327.0 0.003058 240.91692 307.55078
316.0 0.003165 240.91241 304.08051
292.0 0.003425 240.90744 299.88452
277.0 0.00361 240.90199 296.21890
289.0 0.003460 240.89606 293.58411
311.0 0.003215 240.88963 291.63983
303.0 0.003300 240.88275 289.56250
288.0 0.003472 240.87537 286.61816
267.0 0.00375 240.86751 282.62610
277.0 0.00361 240.85918 278.08954
269.0 0.00372 240.85034 273.97375
247.0 0.00405 240.84103 271.28616
264.0 0.00379 240.83124 270.66403
278.0 0.00360 240.82095 272.11829
280.0 0.00357 240.81018 274.99448
285.0 0.00351 240.79892 278.15082
290.0 0.003448 240.78717 280.30762
275.0 0.00364 240.77493 280.46979
288.0 0.003472 240.76221 278.27219
247.0 0.00405 240.74898 274.09653
253.0 0.00395 240.73526 268.89859
264.0 0.00379 240.72104 263.82822
252.0 0.00397 240.70633 259.82861
259.0 0.00386 240.69113 257.39169
266.0 0.00376 240.67543 256.54126
244.0 0.00410 240.65923 256.98666
282.0 0.00355 240.64253 258.32336
254.0 0.00394 240.62534 260.16907
248.0 0.00403 240.60764 262.19467
275.0 0.00364 240.58943 264.08090
260.0 0.00385 240.57074 265.47369
274.0 0.00365 240.55153 266.00082
274.0 0.00365 240.53183 265.36401
279.0 0.00358 240.51161 263.46136
248.0 0.00403 240.49089 260.46790
238.0 0.00420 240.46968 256.81876
235.0 0.00426 240.44794 253.09596
223.0 0.00448 240.42570 249.87390
231.0 0.00433 240.40295 247.58974
238.0 0.00420 240.37970 246.47870
253.0 0.00395 240.35593 246.57053
250.0 0.00400 240.33163 247.71721
257.0 0.00389 240.30685 249.62784
270.0 0.00370 240.28154 251.90979
280.0 0.00357 240.25572 254.13109
260.0 0.00385 240.22939 255.90991
238.0 0.00420 240.20253 257.00732
242.0 0.00413 240.17517 257.38126
260.0 0.00385 240.14728 257.16565
258.0 0.00388 240.11888 256.57996
246.0 0.00407 240.08995 255.81711
245.0 0.00408 240.06050 254.96890
245.0 0.00408 240.03055 254.02377
241.0 0.00415 240.00006 252.92392
232.0 0.00431 239.96906 251.63727
200.0 0.00500 239.93752 250.20273
235.0 0.00426 239.90547 248.73273
226.0 0.00442 239.87288 247.38272
244.0 0.00410 239.83978 246.30942
260.0 0.00385 239.80615 245.63280
239.0 0.00418 239.77199 245.40775
254.0 0.00394 239.73730 245.60753
259.0 0.00386 239.70209 246.12132
234.0 0.00427 239.66634 246.77206
262.0 0.00382 239.63005 247.35696
278.0 0.00360 239.59325 247.70338
270.0 0.00370 239.55591 247.72400
263.0 0.00380 239.51804 247.44748
268.0 0.00373 239.47963 247.01003
249.0 0.00402 239.44069 246.60936
255.0 0.00392 239.40120 246.43980
265.0 0.00377 239.36119 246.63341
231.0 0.00433 239.32065 247.22775
260.0 0.00385 239.27956 248.16530
283.0 0.00353 239.23793 249.31743
264.0 0.00379 239.19577 250.52226
259.0 0.00386 239.15306 251.62637
251.0 0.00398 239.10982 252.51976
215.0 0.00465 239.06602 253.15457
243.0 0.00412 239.02170 253.53996
279.0 0.00358 238.97682 253.71266
239.0 0.00418 238.93141 253.69769
244.0 0.00410 238.88544 253.48083
244.0 0.00410 238.83894 253.01122
247.0 0.00405 238.79189 252.23280
263.0 0.00380 238.74428 251.12700
245.0 0.00408 238.69614 249.73930
265.0 0.00377 238.64745 248.17670
269.0 0.00372 238.59819 246.57841
244.0 0.00410 238.54840 245.08073
238.0 0.00420 238.49806 243.79153
226.0 0.00442 238.44716 242.78296
265.0 0.00377 238.39572 242.09790
267.0 0.00375 238.34372 241.76160
238.0 0.00420 238.29117 241.79134
250.0 0.00400 238.23805 242.20036
224.0 0.00446 238.18440 242.98993
243.0 0.00412 238.13019 244.13037
252.0 0.00397 238.07541 245.53571
267.0 0.00375 238.02008 247.04709
256.0 0.00391 237.96419 248.44176
243.0 0.00412 237.90775 249.48070
256.0 0.00391 237.85074 249.98161
263.0 0.00380 237.79318 249.89015
233.0 0.00429 237.73505 249.31412
227.0 0.00441 237.67638 248.49893
260.0 0.00385 237.61713 247.75145
229.0 0.00437 237.55731 247.34729
237.0 0.00422 237.49695 247.46072
263.0 0.00380 237.43602 248.14186
257.0 0.00389 237.37451 249.33659
262.0 0.00382 237.31245 250.92101
259.0 0.00386 237.24983 252.72308
247.0 0.00405 237.18663 254.52577
230.0 0.00435 237.12288 256.06949
229.0 0.00437 237.05855 257.08200
260.0 0.00385 236.99365 257.34354
247.0 0.00405 236.92819 256.76212
242.0 0.00413 236.86217 255.41632
231.0 0.00433 236.79556 253.53320
242.0 0.00413 236.72839 251.40637
229.0 0.00437 236.66066 249.29668
219.0 0.00457 236.59235 247.36250
221.0 0.00452 236.52345 245.65005
200.0 0.00500 236.45401 244.13226
236.0 0.00424 236.38399 242.76605
232.0 0.00431 236.31337 241.53578
229.0 0.00437 236.24220 240.46805
218.0 0.00459 236.17046 239.62054
220.0 0.00455 236.09813 239.05833
214.0 0.00467 236.02524 238.82764
240.0 0.00417 235.95177 238.93480
241.0 0.00415 235.87770 239.33331
243.0 0.00412 235.80309 239.92271
252.0 0.00397 235.72789 240.56415
239.0 0.00418 235.65210 241.10699
247.0 0.00405 235.57574 241.42912
246.0 0.00407 235.49881 241.46935
231.0 0.00433 235.42130 241.24091
245.0 0.00408 235.34320 240.81949
243.0 0.00412 235.26453 240.30980
252.0 0.00397 235.18527 239.80630
239.0 0.00418 235.10545 239.36649
244.0 0.00410 235.02501 239.00665
238.0 0.00420 234.94402 238.71806
243.0 0.00412 234.86244 238.48993
212.0 0.00472 234.78029 238.32625
215.0 0.00465 234.69756 238.24591
225.0 0.00444 234.61423 238.26891
242.0 0.00413 234.53030 238.39738
255.0 0.00392 234.44582 238.60480
244.0 0.00410 234.36075 238.83922
236.0 0.00424 234.27510 239.04134
263.0 0.00380 234.18886 239.16722
227.0 0.00441 234.10204 239.20287
236.0 0.00424 234.01462 239.16563
239.0 0.00418 233.92662 239.08992
230.0 0.00435 233.83804 239.01085
234.0 0.00427 233.74889 238.94856
234.0 0.00427 233.65915 238.91376
232.0 0.00431 233.56882 238.91763
227.0 0.00441 233.47791 238.99283
237.0 0.00422 233.38637 239.20610
233.0 0.00429 233.29428 239.66331
220.0 0.00455 233.20161 240.50096
250.0 0.00400 233.10835 241.86838
244.0 0.00410 233.01451 243.90402
230.0 0.00435 232.92007 246.70695
272.0 0.00368 232.82503 250.30698
257.0 0.00389 232.72942 254.63503
253.0 0.00395 232.63322 259.49985
287.0 0.003484 232.53644 264.57803
246.0 0.00407 232.43907 269.43097
263.0 0.00380 232.34113 273.55118
281.0 0.00356 232.24255 276.44153
256.0 0.00391 232.14343 277.71027
261.0 0.00383 232.04372 277.15738
258.0 0.00388 231.94342 274.82565
284.0 0.00352 231.84253 270.99673
277.0 0.00361 231.74106 266.13208
268.0 0.00373 231.63896 260.77600
229.0 0.00437 231.53632 255.45088
241.0 0.00415 231.43309 250.57259
245.0 0.00408 231.32927 246.40439
244.0 0.00410 231.22485 243.05255
229.0 0.00437 231.11987 240.49443
222.0 0.00450 231.01428 238.62508
209.0 0.00478 230.90810 237.30760
226.0 0.00442 230.80135 236.41467
261.0 0.00383 230.69402 235.85388
232.0 0.00431 230.58609 235.57155
259.0 0.00386 230.47758 235.54086
249.0 0.00402 230.36850 235.73991
222.0 0.00450 230.25879 236.12241
238.0 0.00420 230.14854 236.60617
251.0 0.00398 230.03769 237.07222
234.0 0.00427 229.92627 237.38138
234.0 0.00427 229.81427 237.40854
247.0 0.00405 229.70168 237.07860
226.0 0.00442 229.58847 236.39320
238.0 0.00420 229.47472 235.43523
246.0 0.00407 229.36038 234.35275
234.0 0.00427 229.24547 233.32808
214.0 0.00467 229.12997 232.54466
211.0 0.00474 229.01390 232.16179
227.0 0.00441 228.89720 232.29909
225.0 0.00444 228.77997 233.02472
234.0 0.00427 228.66216 234.33897
214.0 0.00467 228.54376 236.15453
240.0 0.00417 228.42479 238.28062
246.0 0.00407 228.30525 240.42946
275.0 0.00364 228.18512 242.25586
228.0 0.00439 228.06439 243.43074
265.0 0.00377 227.94312 243.72423
253.0 0.00395 227.82127 243.07187
238.0 0.00420 227.69885 241.59081
235.0 0.00426 227.57585 239.54234
242.0 0.00413 227.45229 237.25305
242.0 0.00413 227.32811 235.03206
240.0 0.00417 227.20340 233.11118
244.0 0.00410 227.07812 231.62297
253.0 0.00395 226.95227 230.61267
247.0 0.00405 226.82585 230.06496
239.0 0.00418 226.69887 229.92769
245.0 0.00408 226.57129 230.12344
246.0 0.00407 226.44318 230.55121
227.0 0.00441 226.31448 231.08716
230.0 0.00435 226.18524 231.59366
225.0 0.00444 226.05544 231.93987
229.0 0.00437 225.92505 232.02745
234.0 0.00427 225.79408 231.81187
236.0 0.00424 225.66260 231.31250
228.0 0.00439 225.53053 230.59668
255.0 0.00392 225.39793 229.76219
232.0 0.00431 225.26476 228.91017
217.0 0.00461 225.13103 228.12810
209.0 0.00478 224.99675 227.48431
237.0 0.00422 224.86188 227.03174
196.0 0.00510 224.72650 226.81516
226.0 0.00442 224.59056 226.87317
253.0 0.00395 224.45407 227.23306
232.0 0.00431 224.31703 227.89886
233.0 0.00429 224.17944 228.83849
218.0 0.00459 224.04128 229.97697
210.0 0.00476 223.90260 231.20201
241.0 0.00415 223.76338 232.38162
244.0 0.00410 223.62361 233.39069
256.0 0.00391 223.48331 234.13634
230.0 0.00435 223.34247 234.57556
249.0 0.00402 223.20105 234.71915
254.0 0.00394 223.05913 234.62503
224.0 0.00446 222.91667 234.38507
254.0 0.00394 222.77368 234.11031
231.0 0.00433 222.63014 233.91469
236.0 0.00424 222.48610 233.89738
235.0 0.00426 222.34148 234.12033
230.0 0.00435 222.19635 234.58682
252.0 0.00397 222.05072 235.22774
246.0 0.00407 221.90454 235.90593
235.0 0.00426 221.75786 236.44394
239.0 0.00418 221.61064 236.66971
249.0 0.00402 221.46292 236.46660
215.0 0.00465 221.31462 235.80942
232.0 0.00431 221.16586 234.77159
221.0 0.00452 221.01659 233.50389
249.0 0.00402 220.86679 232.18324
232.0 0.00431 220.71648 230.96594
210.0 0.00476 220.56566 229.94864
227.0 0.00441 220.41429 229.15556
256.0 0.00391 220.26247 228.55205
261.0 0.00383 220.11014 228.07375
252.0 0.00397 219.95731 227.65750
221.0 0.00452 219.80397 227.26378
226.0 0.00442 219.65013 226.88373
229.0 0.00437 219.49576 226.53296
230.0 0.00435 219.34093 226.23970
218.0 0.00459 219.18561 226.03296
248.0 0.00403 219.02980 225.93787
247.0 0.00405 218.87350 225.97546
258.0 0.00388 218.71672 226.16908
218.0 0.00459 218.55942 226.54056
214.0 0.00467 218.40167 227.11388
232.0 0.00431 218.24345 227.90668
237.0 0.00422 218.08475 228.92117
243.0 0.00412 217.92557 230.13150
247.0 0.00405 217.76591 231.47520
243.0 0.00412 217.60579 232.84877
240.0 0.00417 217.44516 234.11348
235.0 0.00426 217.28409 235.11229
237.0 0.00422 217.12257 235.69844
238.0 0.00420 216.96059 235.76994
235.0 0.00426 216.79814 235.30214
234.0 0.00427 216.63525 234.36546
231.0 0.00433 216.47185 233.12207
214.0 0.00467 216.30804 231.79689
223.0 0.00448 216.14380 230.62907
209.0 0.00478 215.97910 229.81767
194.0 0.00515 215.81395 229.47668
208.0 0.00481 215.64836 229.61188
263.0 0.00380 215.48230 230.12636
242.0 0.00413 215.31584 230.84938
208.0 0.00481 215.14894 231.57965
218.0 0.00459 214.98161 232.12936
209.0 0.00478 214.81386 232.35712
238.0 0.00420 214.64568 232.18698
235.0 0.00426 214.47704 231.61101
227.0 0.00441 214.30801 230.68083
218.0 0.00459 214.13857 229.49036
224.0 0.00446 213.96872 228.15401
209.0 0.00478 213.79845 226.78302
228.0 0.00439 213.62778 225.46385
223.0 0.00448 213.45670 224.24207
223.0 0.00448 213.28516 223.11919
212.0 0.00472 213.11328 222.06126
215.0 0.00465 212.94099 221.01822
225.0 0.00444 212.76831 219.94658
220.0 0.00455 212.59525 218.82758
205.0 0.00488 212.42180 217.67409
207.0 0.00483 212.24791 216.52551
194.0 0.00515 212.07368 215.43520
207.0 0.00483 211.89908 214.45380
181.0 0.00552 211.72411 213.61786
215.0 0.00465 211.54875 212.94415
240.0 0.00417 211.37303 212.43066
234.0 0.00427 211.19690 212.06203
214.0 0.00467 211.02045 211.81628
237.0 0.00422 210.84363 211.67091
226.0 0.00442 210.66646 211.60750
228.0 0.00439 210.48894 211.61388
205.0 0.00488 210.31107 211.68394
202.0 0.00495 210.13281 211.81580
205.0 0.00488 209.95424 212.00870
228.0 0.00439 209.77534 212.25941
215.0 0.00465 209.59610 212.56128
238.0 0.00420 209.41653 212.90457
236.0 0.00424 209.23662 213.27934
208.0 0.00481 209.05640 213.67891
229.0 0.00437 208.87579 214.10327
236.0 0.00424 208.69493 214.55965
234.0 0.00427 208.51373 215.06099
248.0 0.00403 208.33223 215.62134
220.0 0.00455 208.15042 216.24901
219.0 0.00457 207.96831 216.93770
225.0 0.00444 207.78584 217.65802
219.0 0.00457 207.60313 218.35320
221.0 0.00452 207.42012 218.94286
226.0 0.00442 207.23683 219.33795
215.0 0.00465 207.05324 219.46451
217.0 0.00461 206.86937 219.28842
208.0 0.00481 206.68517 218.83076
224.0 0.00446 206.50075 218.16556
232.0 0.00431 206.31604 217.39714
214.0 0.00467 206.13107 216.62621
220.0 0.00455 205.94585 215.91672
189.0 0.00529 205.76036 215.27774
230.0 0.00435 205.57455 214.66736
228.0 0.00439 205.38857 214.01657
232.0 0.00431 205.20230 213.26219
201.0 0.00498 205.01581 212.37570
200.0 0.00500 204.82907 211.37801
202.0 0.00495 204.64209 210.33495
207.0 0.00483 204.45490 209.33957
202.0 0.00495 204.26741 208.48708
196.0 0.00510 204.07974 207.85350
213.0 0.00469 203.89186 207.48065
199.0 0.00503 203.70377 207.37143
199.0 0.00503 203.51544 207.49089
208.0 0.00481 203.32692 207.77428
210.0 0.00476 203.13814 208.13707
231.0 0.00433 202.94922 208.48911
210.0 0.00476 202.76009 208.74893
201.0 0.00498 202.57077 208.85916
213.0 0.00469 202.38126 208.79655
211.0 0.00474 202.19156 208.57605
207.0 0.00483 202.00165 208.24564
209.0 0.00478 201.81160 207.87421
227.0 0.00441 201.62138 207.53468
195.0 0.00513 201.43098 207.28873
216.0 0.00463 201.24043 207.17537
194.0 0.00515 201.04973 207.20720
196.0 0.00510 200.85881 207.37190
219.0 0.00457 200.66780 207.63861
207.0 0.00483 200.47664 207.96486
213.0 0.00469 200.28534 208.30394
202.0 0.00495 200.09390 208.61159
192.0 0.00521 199.90233 208.85217
222.0 0.00450 199.71062 209.00404
207.0 0.00483 199.51874 209.06213
211.0 0.00474 199.32680 209.03673
225.0 0.00444 199.13474 208.94728
224.0 0.00446 198.94257 208.81346
226.0 0.00442 198.75029 208.64656
216.0 0.00463 198.55791 208.44510
211.0 0.00474 198.36539 208.19643
196.0 0.00510 198.17281 207.88254
198.0 0.00505 197.98015 207.48866
220.0 0.00455 197.78740 207.00960
214.0 0.00467 197.59459 206.45180
203.0 0.00493 197.40169 205.83208
199.0 0.00503 197.20866 205.17462
210.0 0.00476 197.01564 204.50780
200.0 0.00500 196.82254 203.86243
220.0 0.00455 196.62938 203.27071
212.0 0.00472 196.43617 202.76459
204.0 0.00490 196.24294 202.37155
209.0 0.00478 196.04958 202.11005
218.0 0.00459 195.85625 201.98434
198.0 0.00505 195.66289 201.98134
183.0 0.00546 195.46948 202.07089
195.0 0.00513 195.27606 202.20998
209.0 0.00478 195.08263 202.34918
221.0 0.00452 194.88916 202.44133
214.0 0.00467 194.69565 202.44919
220.0 0.00455 194.50217 202.35233
217.0 0.00461 194.30870 202.15039
220.0 0.00455 194.11522 201.86296
204.0 0.00490 193.92177 201.52420
203.0 0.00493 193.72832 201.17471
194.0 0.00515 193.53484 200.84991
225.0 0.00444 193.34142 200.57072
227.0 0.00441 193.14804 200.33652
214.0 0.00467 192.95468 200.12518
207.0 0.00483 192.76137 199.89909
184.0 0.00543 192.56810 199.61676
218.0 0.00459 192.37482 199.24611
212.0 0.00472 192.18164 198.77641
184.0 0.00543 191.98853 198.22371
202.0 0.00495 191.79546 197.62978
195.0 0.00513 191.60246 197.05389
192.0 0.00521 191.40953 196.56018
199.0 0.00503 191.21663 196.20454
213.0 0.00469 191.02386 196.02370
200.0 0.00500 190.83118 196.02782
186.0 0.00538 190.63858 196.19803
215.0 0.00465 190.44606 196.48840
188.0 0.00532 190.25366 196.83154
190.0 0.00526 190.06136 197.14967
202.0 0.00495 189.86911 197.36714
224.0 0.00446 189.67702 197.42583
200.0 0.00500 189.48505 197.29565
202.0 0.00495 189.29321 196.98033
205.0 0.00488 189.10149 196.51353
208.0 0.00481 188.90990 195.94720
209.0 0.00478 188.71840 195.33563
221.0 0.00452 188.52708 194.72179
192.0 0.00521 188.33592 194.12874
194.0 0.00515 188.14491 193.56059
191.0 0.00524 187.95406 193.01125
168.0 0.00595 187.76337 192.47688
184.0 0.00543 187.57278 191.96684
204.0 0.00490 187.38242 191.51045
198.0 0.00505 187.19223 191.15546
178.0 0.00562 187.00223 190.95924
187.0 0.00535 186.81241 190.97557
194.0 0.00515 186.62277 191.23927
212.0 0.00472 186.43327 191.75349
181.0 0.00552 186.24403 192.48216
161.0 0.00621 186.05499 193.34953
195.0 0.00513 185.86617 194.24876
204.0 0.00490 185.67754 195.05583
213.0 0.00469 185.48914 195.64897
194.0 0.00515 185.30096 195.92781
185.0 0.00541 185.11296 195.82968
196.0 0.00510 184.92523 195.33978
194.0 0.00515 184.73775 194.49225
205.0 0.00488 184.55051 193.36382
192.0 0.00521 184.36349 192.05986
169.0 0.00592 184.17676 190.69661
183.0 0.00546 183.99020 189.38295
177.0 0.00565 183.80397 188.20534
187.0 0.00535 183.61800 187.21779
194.0 0.00515 183.43230 186.43941
201.0 0.00498 183.24686 185.85791
183.0 0.00546 183.06171 185.43889
186.0 0.00538 182.87679 185.13670
185.0 0.00541 182.69221 184.90692
206.0 0.00485 182.50792 184.71495
177.0 0.00565 182.32391 184.54150
194.0 0.00515 182.14023 184.38353
192.0 0.00521 181.95683 184.25055
168.0 0.00595 181.77371 184.15881
164.0 0.00610 181.59094 184.12425
175.0 0.00571 181.40849 184.15721
169.0 0.00592 181.22636 184.25958
164.0 0.00610 181.04457 184.42488
174.0 0.00575 180.86310 184.64119
182.0 0.00549 180.68198 184.89372
191.0 0.00524 180.50114 185.16751
183.0 0.00546 180.32069 185.44678
180.0 0.00556 180.14061 185.71303
186.0 0.00538 179.96086 185.94174
176.0 0.00568 179.78149 186.10057
193.0 0.00518 179.60248 186.15071
172.0 0.00581 179.42378 186.05238
174.0 0.00575 179.24550 185.77386
200.0 0.00500 179.06760 185.30037
187.0 0.00535 178.89008 184.64095
181.0 0.00552 178.71294 183.83006
169.0 0.00592 178.53619 182.92224
176.0 0.00568 178.35979 181.98270
182.0 0.00549 178.18384 181.07545
162.0 0.00617 178.00827 180.25296
174.0 0.00575 177.83313 179.54982
189.0 0.00529 177.65839 178.98160
180.0 0.00556 177.48405 178.54790
191.0 0.00524 177.31010 178.23767
183.0 0.00546 177.13661 178.03571
200.0 0.00500 176.96355 177.92572
195.0 0.00513 176.79092 177.89310
182.0 0.00549 176.61873 177.92348
191.0 0.00524 176.44696 178.00148
183.0 0.00546 176.27563 178.10809
180.0 0.00556 176.10472 178.21962
188.0 0.00532 175.93431 178.30943
178.0 0.00562 175.76434 178.34985
189.0 0.00529 175.59483 178.31778
188.0 0.00532 175.42578 178.19841
185.0 0.00541 175.25720 177.98935
188.0 0.00532 175.08905 177.70111
202.0 0.00495 174.92140 177.35646
165.0 0.00606 174.75424 176.98579
176.0 0.00568 174.58755 176.62247
193.0 0.00518 174.42136 176.29790
167.0 0.00599 174.25565 176.03664
162.0 0.00617 174.09039 175.85403
163.0 0.00613 173.92567 175.75552
183.0 0.00546 173.76144 175.73717
183.0 0.00546 173.59773 175.78764
154.0 0.00649 173.43451 175.89079
168.0 0.00595 173.27180 176.02806
184.0 0.00543 173.10957 176.18022
172.0 0.00581 172.94791 176.32864
186.0 0.00538 172.78676 176.45613
185.0 0.00541 172.62613 176.54697
173.0 0.00578 172.46602 176.58699
161.0 0.00621 172.30644 176.56406
156.0 0.00641 172.14742 176.46907
177.0 0.00565 171.98888 176.29654
182.0 0.00549 171.83090 176.04655
165.0 0.00606 171.67349 175.72519
161.0 0.00621 171.51662 175.34517
175.0 0.00571 171.36031 174.92453
169.0 0.00592 171.20454 174.48468
141.0 0.00709 171.04929 174.04750
167.0 0.00599 170.89464 173.63231
162.0 0.00617 170.74055 173.25375
167.0 0.00599 170.58702 172.92096
172.0 0.00581 170.43407 172.63789
174.0 0.00575 170.28169 172.40450
166.0 0.00602 170.12985 172.21786
169.0 0.00592 169.97862 172.07349
198.0 0.00505 169.82797 171.96443
181.0 0.00552 169.67790 171.88116
173.0 0.00578 169.52843 171.81149
174.0 0.00575 169.37953 171.74097
150.0 0.00667 169.23119 171.65495
142.0 0.00704 169.08348 171.54146
165.0 0.00606 168.93639 171.39360
158.0 0.00633 168.78987 171.21094
148.0 0.00676 168.64397 170.99976
159.0 0.00629 168.49866 170.77045
162.0 0.00617 168.35397 170.53506
157.0 0.00637 168.20985 170.30341
178.0 0.00562 168.06638 170.08109
179.0 0.00559 167.92351 169.86804
164.0 0.00610 167.78128 169.65926
167.0 0.00599 167.63965 169.44675
148.0 0.00676 167.49866 169.22174
168.0 0.00595 167.35825 168.97752
178.0 0.00562 167.21849 168.71138
170.0 0.00588 167.07938 168.42526
154.0 0.00649 166.94087 168.12602
150.0 0.00667 166.80302 167.82407
160.0 0.00625 166.66580 167.53137
167.0 0.00599 166.52917 167.25955
166.0 0.00602 166.39323 167.01823
173.0 0.00578 166.25792 166.81363
155.0 0.00645 166.12326 166.64778
162.0 0.00617 165.98924 166.51918
159.0 0.00629 165.85587 166.42282
161.0 0.00621 165.72311 166.35110
167.0 0.00599 165.59105 166.29526
160.0 0.00625 165.45963 166.24591
155.0 0.00645 165.32886 166.19447
182.0 0.00549 165.19875 166.13425
165.0 0.00606 165.06929 166.06120
180.0 0.00556 164.94049 165.97437
172.0 0.00581 164.81232 165.87575
185.0 0.00541 164.68486 165.76945
161.0 0.00621 164.55804 165.66032
147.0 0.00680 164.43190 165.55257
163.0 0.00613 164.30641 165.44864
163.0 0.00613 164.18161 165.34883
150.0 0.00667 164.05743 165.25151
156.0 0.00641 163.93396 165.15434
156.0 0.00641 163.81116 165.05598
165.0 0.00606 163.68903 164.95755
148.0 0.00676 163.56757 164.86372
159.0 0.00629 163.44679 164.78236
181.0 0.00552 163.32664 164.72314
166.0 0.00602 163.20723 164.69550
147.0 0.00680 163.08847 164.70515
170.0 0.00588 162.97040 164.75235
166.0 0.00602 162.85301 164.83040
149.0 0.00671 162.73630 164.92610
169.0 0.00592 162.62022 165.02235
153.0 0.00654 162.50488 165.10138
159.0 0.00629 162.39021 165.14886
157.0 0.00637 162.27623 165.15706
180.0 0.00556 162.16293 165.12665
169.0 0.00592 162.05032 165.06648
175.0 0.00571 161.93839 164.99193
171.0 0.00585 161.82712 164.92110
162.0 0.00617 161.71655 164.87154
163.0 0.00613 161.60669 164.85556
173.0 0.00578 161.49751 164.87799
162.0 0.00617 161.38901 164.93350
157.0 0.00637 161.28120 165.00708
183.0 0.00546 161.17406 165.07483
159.0 0.00629 161.06763 165.10818
157.0 0.00637 160.96188 165.07805
169.0 0.00592 160.85683 164.96049
167.0 0.00599 160.75246 164.74150
171.0 0.00585 160.64877 164.42039
183.0 0.00546 160.54576 164.00999
165.0 0.00606 160.44347 163.53520
153.0 0.00654 160.34186 163.02870
154.0 0.00649 160.24094 162.52531
150.0 0.00667 160.14070 162.05728
149.0 0.00671 160.04115 161.64993
172.0 0.00581 159.94226 161.32010
175.0 0.00571 159.84410 161.07549
165.0 0.00606 159.74661 160.91661
161.0 0.00621 159.64981 160.83829
164.0 0.00610 159.55371 160.83212
154.0 0.00649 159.45828 160.88823
171.0 0.00585 159.36354 160.99622
144.0 0.00694 159.26945 161.14546
148.0 0.00676 159.17609 161.32605
157.0 0.00637 159.08340 161.52722
159.0 0.00629 158.99139 161.73877
165.0 0.00606 158.90007 161.94991
155.0 0.00645 158.80943 162.15007
170.0 0.00588 158.71945 162.32953
185.0 0.00541 158.63017 162.48004
176.0 0.00568 158.54156 162.59636
162.0 0.00617 158.45364 162.67696
148.0 0.00676 158.36641 162.72519
150.0 0.00667 158.27983 162.74812
165.0 0.00606 158.19391 162.75595
157.0 0.00637 158.10869 162.75876
175.0 0.00571 158.02414 162.76431
172.0 0.00581 157.94026 162.77484
159.0 0.00629 157.85706 162.78662
165.0 0.00606 157.77452 162.79012
169.0 0.00592 157.69263 162.77197
187.0 0.00535 157.61142 162.71889
192.0 0.00521 157.53088 162.62036
164.0 0.00610 157.45100 162.47112
170.0 0.00588 157.37178 162.27232
157.0 0.00637 157.29323 162.03085
172.0 0.00581 157.21533 161.75804
167.0 0.00599 157.13808 161.46700
152.0 0.00658 157.06149 161.17169
165.0 0.00606 156.98557 160.88460
175.0 0.00571 156.91028 160.61647
177.0 0.00565 156.83566 160.37538
170.0 0.00588 156.76167 160.16644
162.0 0.00617 156.68832 159.99094
153.0 0.00654 156.61563 159.84573
176.0 0.00568 156.54359 159.72296
151.0 0.00662 156.47218 159.61017
148.0 0.00676 156.40141 159.49193
151.0 0.00662 156.33130 159.35245
160.0 0.00625 156.26178 159.17815
148.0 0.00676 156.19292 158.96133
164.0 0.00610 156.12468 158.70184
169.0 0.00592 156.05708 158.40843
157.0 0.00637 155.99010 158.09811
168.0 0.00595 155.92374 157.79376
173.0 0.00578 155.85800 157.52164
154.0 0.00649 155.79288 157.30725
159.0 0.00629 155.72838 157.17293
150.0 0.00667 155.66449 157.13448
155.0 0.00645 155.60121 157.19933
151.0 0.00662 155.53856 157.36530
165.0 0.00606 155.47650 157.62025
155.0 0.00645 155.41502 157.94295
173.0 0.00578 155.35417 158.30502
172.0 0.00581 155.29391 158.67380
160.0 0.00625 155.23425 159.01659
180.0 0.00556 155.17519 159.30441
174.0 0.00575 155.11671 159.51605
159.0 0.00629 155.05881 159.63994
162.0 0.00617 155.00151 159.67531
156.0 0.00641 154.94478 159.63120
153.0 0.00654 154.88863 159.52399
152.0 0.00658 154.83307 159.37440
162.0 0.00617 154.77806 159.20428
158.0 0.00633 154.72363 159.03314
168.0 0.00595 154.66977 158.87624
153.0 0.00654 154.61647 158.74246
182.0 0.00549 154.56374 158.63412
183.0 0.00546 154.51155 158.54721
165.0 0.00606 154.45993 158.47304
157.0 0.00637 154.40883 158.39980
156.0 0.00641 154.35831 158.31580
157.0 0.00637 154.30832 158.21159
162.0 0.00617 154.25888 158.08296
172.0 0.00581 154.20998 157.93153
158.0 0.00633 154.16161 157.76561
162.0 0.00617 154.11375 157.59863
159.0 0.00629 154.06644 157.44635
148.0 0.00676 154.01965 157.32388
170.0 0.00588 153.97337 157.24155
168.0 0.00595 153.92763 157.20271
141.0 0.00709 153.88239 157.20230
143.0 0.00699 153.83765 157.22801
151.0 0.00662 153.79341 157.26213
156.0 0.00641 153.74969 157.28644
160.0 0.00625 153.70647 157.28586
155.0 0.00645 153.66374 157.25221
144.0 0.00694 153.62149 157.18622
171.0 0.00585 153.57974 157.09734
159.0 0.00629 153.53847 157.00162
158.0 0.00633 153.49767 156.91794
150.0 0.00667 153.45737 156.86388
138.0 0.00725 153.41751 156.85226
164.0 0.00610 153.37814 156.88770
155.0 0.00645 153.33923 156.96640
143.0 0.00699 153.30077 157.07584
157.0 0.00637 153.26277 157.19792
166.0 0.00602 153.22523 157.31117
161.0 0.00621 153.18813 157.39417
179.0 0.00559 153.15147 157.42870
174.0 0.00575 153.11526 157.40211
150.0 0.00667 153.07948 157.30852
157.0 0.00637 153.04413 157.14957
180.0 0.00556 153.00922 156.93414
148.0 0.00676 152.97472 156.67690
153.0 0.00654 152.94064 156.39682
148.0 0.00676 152.90698 156.11568
185.0 0.00541 152.87372 155.85472
161.0 0.00621 152.84087 155.63322
164.0 0.00610 152.80843 155.46548
166.0 0.00602 152.77638 155.35938
160.0 0.00625 152.74472 155.31453
149.0 0.00671 152.71346 155.32243
138.0 0.00725 152.68257 155.36707
147.0 0.00680 152.65207 155.42697
152.0 0.00658 152.62195 155.47820
159.0 0.00629 152.59218 155.49806
170.0 0.00588 152.56279 155.46819
161.0 0.00621 152.53377 155.37674
159.0 0.00629 152.50510 155.22032
157.0 0.00637 152.47678 155.00386
150.0 0.00667 152.44881 154.73869
168.0 0.00595 152.42119 154.44102
149.0 0.00671 152.39391 154.12917
160.0 0.00625 152.36696 153.82074
173.0 0.00578 152.34035 153.53082
185.0 0.00541 152.31404 153.27095
183.0 0.00546 152.28807 153.04836
156.0 0.00641 152.26242 152.86638
137.0 0.00730 152.23708 152.72519
156.0 0.00641 152.21204 152.62277
152.0 0.00658 152.18732 152.55583
170.0 0.00588 152.16287 152.52054
166.0 0.00602 152.13873 152.51294
156.0 0.00641 152.11488 152.52908
143.0 0.00699 152.09131 152.56476
148.0 0.00676 152.06802 152.61540
145.0 0.00690 152.04501 152.67627
134.0 0.00746 152.02226 152.74207
152.0 0.00658 151.99979 152.80760
163.0 0.00613 151.97757 152.86807
152.0 0.00658 151.95560 152.91998
152.0 0.00658 151.93390 152.96103
155.0 0.00645 151.91243 152.99130
145.0 0.00690 151.89120 153.01256
167.0 0.00599 151.87021 153.02869
164.0 0.00610 151.84946 153.04448
149.0 0.00671 151.82893 153.06525
162.0 0.00617 151.80862 153.09579
162.0 0.00617 151.78853 153.13918
148.0 0.00676 151.76866 153.19632
164.0 0.00610 151.74899 153.26556
150.0 0.00667 151.72952 153.34296
165.0 0.00606 151.71025 153.42258
168.0 0.00595 151.69118 153.49750
174.0 0.00575 151.67230 153.56097
156.0 0.00641 151.65359 153.60739
146.0 0.00685 151.63507 153.63310
157.0 0.00637 151.61673 153.63701
165.0 0.00606 151.59854 153.62068
143.0 0.00699 151.58054 153.58829
164.0 0.00610 151.56268 153.54591
149.0 0.00671 151.54498 153.50105
164.0 0.00610 151.52744 153.46179
148.0 0.00676 151.51003 153.43568
159.0 0.00629 151.49277 153.42903
173.0 0.00578 151.47563 153.44629
152.0 0.00658 151.45863 153.48915
164.0 0.00610 151.44177 153.55652
158.0 0.00633 151.42502 153.64462
140.0 0.00714 151.40839 153.74710
157.0 0.00637 151.39186 153.85600
168.0 0.00595 151.37546 153.96165
155.0 0.00645 151.35915 154.05450
153.0 0.00654 151.34293 154.12579
168.0 0.00595 151.32681 154.16797
163.0 0.00613 151.31078 154.17628
162.0 0.00617 151.29483 154.14899
174.0 0.00575 151.27896 154.08777
158.0 0.00633 151.26315 153.99727
146.0 0.00685 151.24742 153.88434
147.0 0.00680 151.23177 153.75668
162.0 0.00617 151.21617 153.62204
145.0 0.00690 151.20061 153.48631
145.0 0.00690 151.18512 153.35361
184.0 0.00543 151.16966 153.22600
180.0 0.00556 151.15425 153.10429
146.0 0.00685 151.13887 152.98888
150.0 0.00667 151.12354 152.88051
145.0 0.00690 151.10822 152.78149
133.0 0.00752 151.09293 152.69522
165.0 0.00606 151.07765 152.62662
165.0 0.00606 151.06238 152.58035
159.0 0.00629 151.04713 152.56053
140.0 0.00714 151.03189 152.56946
143.0 0.00699 151.01663 152.60695
174.0 0.00575 151.00137 152.67043
180.0 0.00556 150.98611 152.75475
132.0 0.00758 150.97084 152.85359
148.0 0.00676 150.95555 152.95953
179.0 0.00559 150.94023 153.06548
172.0 0.00581 150.92490 153.16470
157.0 0.00637 150.90952 153.25151
169.0 0.00592 150.89410 153.32098
170.0 0.00588 150.87866 153.36925
146.0 0.00685 150.86316 153.39287
152.0 0.00658 150.84763 153.38878
148.0 0.00676 150.83203 153.35516
155.0 0.00645 150.81636 153.29082
152.0 0.00658 150.80066 153.19604
159.0 0.00629 150.78488 153.07321
150.0 0.00667 150.76903 152.92625
151.0 0.00662 150.75310 152.76131
136.0 0.00735 150.73711 152.58562
141.0 0.00709 150.72101 152.40746
156.0 0.00641 150.70483 152.23486
154.0 0.00649 150.68858 152.07521
148.0 0.00676 150.67223 151.93427
157.0 0.00637 150.65578 151.81583
150.0 0.00667 150.63921 151.72159
145.0 0.00690 150.62254 151.65132
148.0 0.00676 150.60577 151.60309
149.0 0.00671 150.58888 151.57396
152.0 0.00658 150.57187 151.56042
134.0 0.00746 150.55475 151.55910
143.0 0.00699 150.53749 151.56696
141.0 0.00709 150.52010 151.58173
137.0 0.00730 150.50258 151.60159
147.0 0.00680 150.48492 151.62547
148.0 0.00676 150.46712 151.65224
158.0 0.00633 150.44917 151.68037
160.0 0.00625 150.43108 151.70830
162.0 0.00617 150.41284 151.73367
145.0 0.00690 150.39444 151.75346
153.0 0.00654 150.37587 151.76448
160.0 0.00625 150.35715 151.76364
162.0 0.00617 150.33826 151.74864
157.0 0.00637 150.31920 151.71782
148.0 0.00676 150.29996 151.67128
154.0 0.00649 150.28055 151.61053
136.0 0.00735 150.26096 151.53886
155.0 0.00645 150.24118 151.46124
153.0 0.00654 150.22122 151.38382
154.0 0.00649 150.20107 151.31366
129.0 0.00775 150.18071 151.25812
146.0 0.00685 150.16017 151.22409
147.0 0.00680 150.13942 151.21713
149.0 0.00671 150.11847 151.24084
148.0 0.00676 150.09732 151.29605
163.0 0.00613 150.07596 151.38033
140.0 0.00714 150.05438 151.48798
170.0 0.00588 150.03259 151.61020
154.0 0.00649 150.01057 151.73582
168.0 0.00595 149.98834 151.85246
171.0 0.00585 149.96590 151.94806
146.0 0.00685 149.94321 152.01208
153.0 0.00654 149.92030 152.03749
149.0 0.00671 149.89716 152.02112
152.0 0.00658 149.87376 151.96454
127.0 0.00787 149.85014 151.87350
158.0 0.00633 149.82629 151.75722
147.0 0.00680 149.80219 151.62680
155.0 0.00645 149.77783 151.49371
151.0 0.00662 149.75323 151.36832
137.0 0.00730 149.72838 151.25841
129.0 0.00775 149.70328 151.16858
148.0 0.00676 149.67792 151.10016
160.0 0.00625 149.65231 151.05122
168.0 0.00595 149.62643 151.01758
138.0 0.00725 149.60028 150.99339
137.0 0.00730 149.57388 150.97214
147.0 0.00680 149.54720 150.94803
167.0 0.00599 149.52026 150.91606
145.0 0.00690 149.49304 150.87323
156.0 0.00641 149.46555 150.81876
160.0 0.00625 149.43779 150.75333
152.0 0.00658 149.40974 150.67970
147.0 0.00680 149.38141 150.60135
133.0 0.00752 149.35280 150.52248
170.0 0.00588 149.32391 150.44646
133.0 0.00752 149.29474 150.37633
159.0 0.00629 149.26527 150.31320
148.0 0.00676 149.23552 150.25731
141.0 0.00709 149.20547 150.20776
153.0 0.00654 149.17514 150.16289
172.0 0.00581 149.14450 150.12114
151.0 0.00662 149.11359 150.08167
150.0 0.00667 149.08235 150.04451
153.0 0.00654 149.05083 150.01126
160.0 0.00625 149.01900 149.98447
164.0 0.00610 148.98688 149.96747
147.0 0.00680 148.95445 149.96370
144.0 0.00694 148.92171 149.97551
139.0 0.00719 148.88867 150.00369
145.0 0.00690 148.85533 150.04678
148.0 0.00676 148.82167 150.10074
152.0 0.00658 148.78770 150.15912
149.0 0.00671 148.75343 150.21391
147.0 0.00680 148.71884 150.25641
137.0 0.00730 148.68394 150.27873
136.0 0.00735 148.64874 150.27484
140.0 0.00714 148.61320 150.24168
154.0 0.00649 148.57736 150.17929
143.0 0.00699 148.54120 150.09146
145.0 0.00690 148.50473 149.98416
146.0 0.00685 148.46794 149.86520
151.0 0.00662 148.43083 149.74312
146.0 0.00685 148.39340 149.62532
156.0 0.00641 148.35565 149.51767
169.0 0.00592 148.31758 149.42409
159.0 0.00629 148.27919 149.34610
137.0 0.00730 148.24049 149.28322
143.0 0.00699 148.20146 149.23351
157.0 0.00637 148.16211 149.19391
129.0 0.00775 148.12242 149.16107
145.0 0.00690 148.08243 149.13191
157.0 0.00637 148.04211 149.10327
149.0 0.00671 148.00146 149.07300
147.0 0.00680 147.96049 149.03923
149.0 0.00671 147.91922 149.00095
136.0 0.00735 147.87759 148.95752
136.0 0.00735 147.83566 148.90910
135.0 0.00741 147.79341 148.85614
136.0 0.00735 147.75082 148.79944
151.0 0.00662 147.70793 148.74019
152.0 0.00658 147.66470 148.67935
164.0 0.00610 147.62115 148.61824
161.0 0.00621 147.57729 148.55753
156.0 0.00641 147.53310 148.49785
154.0 0.00649 147.48859 148.43942
147.0 0.00680 147.44376 148.38217
154.0 0.00649 147.39861 148.32608
150.0 0.00667 147.35313 148.27090
141.0 0.00709 147.30733 148.21675
170.0 0.00588 147.26122 148.16438
146.0 0.00685 147.21480 148.11484
145.0 0.00690 147.16805 148.06963
154.0 0.00649 147.12099 148.03059
146.0 0.00685 147.07361 147.99979
134.0 0.00746 147.02589 147.97876
144.0 0.00694 146.97791 147.96855
142.0 0.00704 146.92958 147.96927
151.0 0.00662 146.88095 147.98024
127.0 0.00787 146.83200 147.99966
152.0 0.00658 146.78275 148.02505
148.0 0.00676 146.73317 148.05367
152.0 0.00658 146.68330 148.08228
145.0 0.00690 146.63313 148.10791
156.0 0.00641 146.58264 148.12764
149.0 0.00671 146.53186 148.13866
146.0 0.00685 146.48076 148.13849
157.0 0.00637 146.42937 148.12457
133.0 0.00752 146.37767 148.09467
128.0 0.00781 146.32567 148.04703
160.0 0.00625 146.27338 147.98059
140.0 0.00714 146.22079 147.89511
131.0 0.00763 146.16791 147.79204
140.0 0.00714 146.11473 147.67366
148.0 0.00676 146.06126 147.54396
164.0 0.00610 146.00751 147.40775
135.0 0.00741 145.95346 147.27025
154.0 0.00649 145.89914 147.13670
148.0 0.00676 145.84453 147.01140
153.0 0.00654 145.78963 146.89771
132.0 0.00758 145.73444 146.79726
156.0 0.00641 145.67899 146.71066
145.0 0.00690 145.62325 146.63673
137.0 0.00730 145.56725 146.57359
150.0 0.00667 145.51097 146.51842
138.0 0.00725 145.45441 146.46848
155.0 0.00645 145.39758 146.42085
148.0 0.00676 145.34050 146.37323
141.0 0.00709 145.28314 146.32349
130.0 0.00769 145.22554 146.27028
140.0 0.00714 145.16766 146.21268
152.0 0.00658 145.10953 146.15047
145.0 0.00690 145.05115 146.08363
133.0 0.00752 144.99249 146.01297
145.0 0.00690 144.93361 145.93935
144.0 0.00694 144.87448 145.86382
127.0 0.00787 144.81509 145.78766
139.0 0.00719 144.75546 145.71191
130.0 0.00769 144.69560 145.63750
142.0 0.00704 144.63548 145.56445
152.0 0.00658 144.57513 145.49287
145.0 0.00690 144.51457 145.42197
177.0 0.00565 144.45377 145.35060
151.0 0.00662 144.39273 145.27769
167.0 0.00599 144.33148 145.20239
147.0 0.00680 144.26999 145.12440
162.0 0.00617 144.20828 145.04445
144.0 0.00694 144.14638 144.96414
138.0 0.00725 144.08426 144.88615
144.0 0.00694 144.02191 144.81375
130.0 0.00769 143.95937 144.75079
128.0 0.00781 143.89661 144.70062
133.0 0.00752 143.83365 144.66635
154.0 0.00649 143.77049 144.64972
161.0 0.00621 143.70715 144.65118
145.0 0.00690 143.64362 144.66994
168.0 0.00595 143.57988 144.70335
161.0 0.00621 143.51596 144.74773
153.0 0.00654 143.45184 144.79785
123.0 0.00813 143.38757 144.84801
125.0 0.00800 143.32310 144.89203
118.0 0.00847 143.25848 144.92313
125.0 0.00800 143.19368 144.93542
137.0 0.00730 143.12871 144.92383
145.0 0.00690 143.06355 144.88419
148.0 0.00676 142.99826 144.81464
137.0 0.00730 142.93280 144.71509
148.0 0.00676 142.86719 144.58751
149.0 0.00671 142.80144 144.43608
131.0 0.00763 142.73552 144.26636
149.0 0.00671 142.66945 144.08522
153.0 0.00654 142.60326 143.90001
137.0 0.00730 142.53693 143.71742
156.0 0.00641 142.47046 143.54353
148.0 0.00676 142.40387 143.38301
142.0 0.00704 142.33714 143.23888
138.0 0.00725 142.27028 143.11266
129.0 0.00775 142.20331 143.00424
145.0 0.00690 142.13625 142.91249
154.0 0.00649 142.06905 142.83560
139.0 0.00719 142.00174 142.77103
157.0 0.00637 141.93433 142.71642
133.0 0.00752 141.86681 142.66940
132.0 0.00758 141.79918 142.62799
145.0 0.00690 141.73148 142.59042
156.0 0.00641 141.66368 142.55510
140.0 0.00714 141.59579 142.52077
135.0 0.00741 141.52782 142.48660
148.0 0.00676 141.45976 142.45146
148.0 0.00676 141.39163 142.41478
149.0 0.00671 141.32343 142.37601
137.0 0.00730 141.25516 142.33498
124.0 0.00806 141.18683 142.29156
138.0 0.00725 141.11844 142.24586
150.0 0.00667 141.04997 142.19807
141.0 0.00709 140.98145 142.14827
146.0 0.00685 140.91289 142.09711
146.0 0.00685 140.84428 142.04460
131.0 0.00763 140.77563 141.99113
151.0 0.00662 140.70695 141.93678
140.0 0.00714 140.63823 141.88188
149.0 0.00671 140.56946 141.82669
144.0 0.00694 140.50067 141.77176
136.0 0.00735 140.43187 141.71739
118.0 0.00847 140.36304 141.66409
124.0 0.00806 140.29419 141.61255
152.0 0.00658 140.22533 141.56335
136.0 0.00735 140.15646 141.51683
147.0 0.00680 140.08759 141.47298
142.0 0.00704 140.01871 141.43164
141.0 0.00709 139.94983 141.39166
154.0 0.00649 139.88097 141.35165
152.0 0.00658 139.81212 141.30956
146.0 0.00685 139.74327 141.26308
132.0 0.00758 139.67444 141.20985
131.0 0.00763 139.60564 141.14781
134.0 0.00746 139.53687 141.07538
132.0 0.00758 139.46811 140.99165
142.0 0.00704 139.39940 140.89690
150.0 0.00667 139.33072 140.79181
141.0 0.00709 139.26205 140.67833
142.0 0.00704 139.19347 140.55830
144.0 0.00694 139.12491 140.43387
127.0 0.00787 139.05643 140.30713
146.0 0.00685 138.98798 140.17961
144.0 0.00694 138.91960 140.05251
145.0 0.00690 138.85126 139.92632
159.0 0.00629 138.78300 139.80159
161.0 0.00621 138.71481 139.67860
134.0 0.00746 138.64671 139.55733
139.0 0.00719 138.57867 139.43826
123.0 0.00813 138.51073 139.32187
141.0 0.00709 138.44286 139.20885
149.0 0.00671 138.37506 139.10027
144.0 0.00694 138.30737 138.99667
131.0 0.00763 138.23978 138.89905
138.0 0.00725 138.17229 138.80804
135.0 0.00741 138.10489 138.72420
133.0 0.00752 138.03761 138.64763
137.0 0.00730 137.97041 138.57840
141.0 0.00709 137.90335 138.51649
138.0 0.00725 137.83641 138.46184
141.0 0.00709 137.76958 138.41385
134.0 0.00746 137.70288 138.37241
138.0 0.00725 137.63631 138.33691
146.0 0.00685 137.56984 138.30688
144.0 0.00694 137.50352 138.28154
133.0 0.00752 137.43736 138.25990
143.0 0.00699 137.37132 138.24069
135.0 0.00741 137.30542 138.22194
160.0 0.00625 137.23969 138.20164
144.0 0.00694 137.17407 138.17741
143.0 0.00699 137.10863 138.14651
120.0 0.00833 137.04335 138.10657
122.0 0.00820 136.97823 138.05501
154.0 0.00649 136.91327 137.99036
148.0 0.00676 136.84846 137.91177
142.0 0.00704 136.78384 137.81943
122.0 0.00820 136.71938 137.71463
143.0 0.00699 136.65509 137.59970
139.0 0.00719 136.59100 137.47800
152.0 0.00658 136.52708 137.35313
153.0 0.00654 136.46335 137.22923
138.0 0.00725 136.39981 137.10988
149.0 0.00671 136.33644 136.99817
137.0 0.00730 136.27328 136.89630
116.0 0.00862 136.21031 136.80556
149.0 0.00671 136.14755 136.72560
154.0 0.00649 136.08499 136.65572
152.0 0.00658 136.02263 136.59366
152.0 0.00658 135.96046 136.53719
143.0 0.00699 135.89853 136.48358
161.0 0.00621 135.83681 136.43019
146.0 0.00685 135.77528 136.37512
134.0 0.00746 135.71399 136.31680
143.0 0.00699 135.65292 136.25455
166.0 0.00602 135.59206 136.18835
155.0 0.00645 135.53143 136.11893
137.0 0.00730 135.47104 136.04733
144.0 0.00694 135.41087 135.97495
145.0 0.00690 135.35094 135.90298
132.0 0.00758 135.29124 135.83246
143.0 0.00699 135.23178 135.76422
142.0 0.00704 135.17255 135.69836
137.0 0.00730 135.11357 135.63499
135.0 0.00741 135.05484 135.57365
134.0 0.00746 134.99637 135.51364
112.0 0.00893 134.93813 135.45430
128.0 0.00781 134.88014 135.39499
146.0 0.00685 134.82239 135.33524
160.0 0.00625 134.76491 135.27498
136.0 0.00735 134.70769 135.21408
140.0 0.00714 134.65071 135.15280
143.0 0.00699 134.59401 135.09157
131.0 0.00763 134.53758 135.03087
124.0 0.00806 134.48138 134.97107
129.0 0.00775 134.42548 134.91263
136.0 0.00735 134.36983 134.85562
133.0 0.00752 134.31445 134.80019
131.0 0.00763 134.25935 134.74588
138.0 0.00725 134.20451 134.69246
144.0 0.00694 134.14995 134.63947
154.0 0.00649 134.09566 134.58649
128.0 0.00781 134.04166 134.53311
135.0 0.00741 133.98793 134.47902
131.0 0.00763 133.93448 134.42412
139.0 0.00719 133.88130 134.36847
133.0 0.00752 133.82841 134.31207
127.0 0.00787 133.77580 134.25534
136.0 0.00735 133.72348 134.19844
139.0 0.00719 133.67146 134.14183
138.0 0.00725 133.61971 134.08604
153.0 0.00654 133.56824 134.03168
135.0 0.00741 133.51707 133.97937
138.0 0.00725 133.46617 133.92989
125.0 0.00800 133.41557 133.88425
140.0 0.00714 133.36528 133.84296
130.0 0.00769 133.31526 133.80702
137.0 0.00730 133.26555 133.77673
145.0 0.00690 133.21613 133.75226
153.0 0.00654 133.16698 133.73341
136.0 0.00735 133.11815 133.71950
141.0 0.00709 133.06960 133.70946
129.0 0.00775 133.02135 133.70207
142.0 0.00704 132.97340 133.69565
133.0 0.00752 132.92575 133.68867
129.0 0.00775 132.87837 133.67957
142.0 0.00704 132.83131 133.66713
137.0 0.00730 132.78453 133.65047
124.0 0.00806 132.73807 133.62906
120.0 0.00833 132.69189 133.60298
133.0 0.00752 132.64601 133.57248
141.0 0.00709 132.60043 133.53835
142.0 0.00704 132.55513 133.50140
151.0 0.00662 132.51015 133.46249
134.0 0.00746 132.46545 133.42230
132.0 0.00758 132.42107 133.38158
147.0 0.00680 132.37697 133.34036
142.0 0.00704 132.33316 133.29892
131.0 0.00763 132.28964 133.25667
129.0 0.00775 132.24643 133.21339
143.0 0.00699 132.20351 133.16850
136.0 0.00735 132.16089 133.12169
121.0 0.00826 132.11855 133.07236
127.0 0.00787 132.07651 133.02026
142.0 0.00704 132.03476 132.96526
144.0 0.00694 131.99330 132.90720
144.0 0.00694 131.95213 132.84616
120.0 0.00833 131.91125 132.78220
146.0 0.00685 131.87067 132.71559
144.0 0.00694 131.83037 132.64661
140.0 0.00714 131.79034 132.57559
130.0 0.00769 131.75063 132.50320
130.0 0.00769 131.71118 132.43010
145.0 0.00690 131.67201 132.35693
140.0 0.00714 131.63313 132.28458
135.0 0.00741 131.59454 132.21397
124.0 0.00806 131.55623 132.14580
137.0 0.00730 131.51819 132.08063
130.0 0.00769 131.48042 132.01894
134.0 0.00746 131.44295 131.96117
147.0 0.00680 131.40573 131.90718
135.0 0.00741 131.36879 131.85725
140.0 0.00714 131.33212 131.81128
153.0 0.00654 131.29572 131.76930
131.0 0.00763 131.25958 131.73167
122.0 0.00820 131.22372 131.69868
125.0 0.00800 131.18813 131.67097
139.0 0.00719 131.15279 131.64932
118.0 0.00847 131.11771 131.63446
129.0 0.00775 131.08287 131.62715
138.0 0.00725 131.04831 131.62784
130.0 0.00769 131.01399 131.63657
121.0 0.00826 130.97995 131.65289
119.0 0.00840 130.94614 131.67566
127.0 0.00787 130.91257 131.70309
120.0 0.00833 130.87926 131.73265
130.0 0.00769 130.84618 131.76128
132.0 0.00758 130.81334 131.78564
138.0 0.00725 130.78075 131.80223
146.0 0.00685 130.74840 131.80795
135.0 0.00741 130.71628 131.79999
119.0 0.00840 130.68439 131.77664
142.0 0.00704 130.65271 131.73729
137.0 0.00730 130.62128 131.68245
141.0 0.00709 130.59006 131.61398
124.0 0.00806 130.55907 131.53479
133.0 0.00752 130.52829 131.44872
111.0 0.00901 130.49774 131.35988
139.0 0.00719 130.46738 131.27296
145.0 0.00690 130.43724 131.19197
131.0 0.00763 130.40732 131.12029
137.0 0.00730 130.37758 131.06078
120.0 0.00833 130.34805 131.01489
123.0 0.00813 130.31873 130.98294
120.0 0.00833 130.28958 130.96442
145.0 0.00690 130.26064 130.95770
138.0 0.00725 130.23189 130.96054
130.0 0.00769 130.20331 130.96980
125.0 0.00800 130.17491 130.98273
138.0 0.00725 130.14671 130.99603
151.0 0.00662 130.11867 131.00665
120.0 0.00833 130.09079 131.01207
138.0 0.00725 130.06310 131.00999
132.0 0.00758 130.03557 130.99899
146.0 0.00685 130.00821 130.97818
119.0 0.00840 129.98099 130.94727
108.0 0.00926 129.95393 130.90700
95.0 0.01053 129.92702 130.85822
122.0 0.00820 129.90027 130.80270
132.0 0.00758 129.87366 130.74240
148.0 0.00676 129.84718 130.67929
150.0 0.00667 129.82085 130.61539
139.0 0.00719 129.79465 130.55257
117.0 0.00855 129.76855 130.49214
117.0 0.00855 129.74261 130.43509
130.0 0.00769 129.71678 130.38200
126.0 0.00794 129.69107 130.33301
135.0 0.00741 129.66548 130.28778
131.0 0.00763 129.63998 130.24591
144.0 0.00694 129.61459 130.20683
136.0 0.00735 129.58932 130.17030
128.0 0.00781 129.56415 130.13622
126.0 0.00794 129.53906 130.10486
157.0 0.00637 129.51407 130.07642
129.0 0.00775 129.48915 130.05177
123.0 0.00813 129.46432 130.03171
131.0 0.00763 129.43958 130.01695
111.0 0.00901 129.41490 130.00800
120.0 0.00833 129.39030 130.00465
124.0 0.00806 129.36577 130.00664
111.0 0.00901 129.34129 130.01297
133.0 0.00752 129.31686 130.02182
120.0 0.00833 129.29250 130.03140
124.0 0.00806 129.26819 130.03944
141.0 0.00709 129.24391 130.04364
148.0 0.00676 129.21968 130.04182
140.0 0.00714 129.19550 130.03232
134.0 0.00746 129.17133 130.01390
133.0 0.00752 129.14719 129.98587
159.0 0.00629 129.12308 129.94820
133.0 0.00752 129.09900 129.90155
127.0 0.00787 129.07492 129.84697
136.0 0.00735 129.05086 129.78610
134.0 0.00746 129.02681 129.72092
125.0 0.00800 129.00275 129.65321
144.0 0.00694 128.97868 129.58519
145.0 0.00690 128.95462 129.51907
128.0 0.00781 128.93054 129.45642
112.0 0.00893 128.90646 129.39897
140.0 0.00714 128.88235 129.34819
131.0 0.00763 128.85822 129.30464
116.0 0.00862 128.83405 129.26894
121.0 0.00826 128.80986 129.24104
124.0 0.00806 128.78563 129.22052
122.0 0.00820 128.76137 129.20653
121.0 0.00826 128.73705 129.19791
128.0 0.00781 128.71268 129.19304
122.0 0.00820 128.68826 129.19037
116.0 0.00862 128.66377 129.18799
121.0 0.00826 128.63924 129.18427
116.0 0.00862 128.61464 129.17766
151.0 0.00662 128.58995 129.16658
136.0 0.00735 128.56520 129.15031
127.0 0.00787 128.54036 129.12807
149.0 0.00671 128.51544 129.09979
137.0 0.00730 128.49043 129.06560
123.0 0.00813 128.46533 129.02596
132.0 0.00758 128.44014 128.98169
120.0 0.00833 128.41484 128.93396
129.0 0.00775 128.38943 128.88351
124.0 0.00806 128.36392 128.83160
125.0 0.00800 128.33829 128.77902
129.0 0.00775 128.31255 128.72655
114.0 0.00877 128.28667 128.67473
126.0 0.00794 128.26068 128.62395
138.0 0.00725 128.23454 128.57443
134.0 0.00746 128.20830 128.52631
130.0 0.00769 128.18190 128.47964
142.0 0.00704 128.15535 128.43445
146.0 0.00685 128.12866 128.39082
149.0 0.00671 128.10182 128.34882
120.0 0.00833 128.07483 128.30844
134.0 0.00746 128.04767 128.26994
131.0 0.00763 128.02036 128.23315
132.0 0.00758 127.99287 128.19820
141.0 0.00709 127.96523 128.16490
145.0 0.00690 127.93739 128.13316
135.0 0.00741 127.90939 128.10262
115.0 0.00870 127.88120 128.07303
114.0 0.00877 127.85282 128.04401
134.0 0.00746 127.82426 128.01535
136.0 0.00735 127.79551 127.98669
130.0 0.00769 127.76656 127.95782
118.0 0.00847 127.73740 127.92853
108.0 0.00926 127.70805 127.89881
137.0 0.00730 127.67848 127.86874
143.0 0.00699 127.64870 127.83833
133.0 0.00752 127.61871 127.80772
134.0 0.00746 127.58852 127.77709
115.0 0.00870 127.55808 127.74667
131.0 0.00763 127.52743 127.71651
113.0 0.00885 127.49654 127.68697
123.0 0.00813 127.46543 127.65807
139.0 0.00719 127.43408 127.63004
136.0 0.00735 127.40250 127.60287
143.0 0.00699 127.37067 127.57652
124.0 0.00806 127.33861 127.55090
130.0 0.00769 127.30629 127.52586
115.0 0.00870 127.27373 127.50108
112.0 0.00893 127.24091 127.47626
135.0 0.00741 127.20783 127.45093
138.0 0.00725 127.17450 127.42467
104.0 0.00962 127.14091 127.39725
112.0 0.00893 127.10705 127.36826
121.0 0.00826 127.07292 127.33763
121.0 0.00826 127.03854 127.30538
117.0 0.00855 127.00387 127.27171
119.0 0.00840 126.96893 127.23700
128.0 0.00781 126.93372 127.20181
140.0 0.00714 126.89822 127.16656
126.0 0.00794 126.86244 127.13200
135.0 0.00741 126.82639 127.09861
117.0 0.00855 126.79005 127.06689
122.0 0.00820 126.75342 127.03702
125.0 0.00800 126.71649 127.00914
127.0 0.00787 126.67928 126.98308
121.0 0.00826 126.64176 126.95856
132.0 0.00758 126.60396 126.93513
126.0 0.00794 126.56586 126.91232
133.0 0.00752 126.52746 126.88951
120.0 0.00833 126.48876 126.86624
125.0 0.00800 126.44976 126.84212
137.0 0.00730 126.41044 126.81689
119.0 0.00840 126.37083 126.79036
119.0 0.00840 126.33090 126.76254
127.0 0.00787 126.29067 126.73339
120.0 0.00833 126.25013 126.70307
127.0 0.00787 126.20929 126.67155
112.0 0.00893 126.16811 126.63885
139.0 0.00719 126.12663 126.60484
148.0 0.00676 126.08485 126.56931
120.0 0.00833 126.04274 126.53204
126.0 0.00794 126.00031 126.49260
125.0 0.00800 125.95757 126.45070
147.0 0.00680 125.91451 126.40611
123.0 0.00813 125.87113 126.35876
123.0 0.00813 125.82744 126.30858
115.0 0.00870 125.78342 126.25579
137.0 0.00730 125.73909 126.20082
128.0 0.00781 125.69444 126.14420
111.0 0.00901 125.64945 126.08640
121.0 0.00826 125.60416 126.02821
128.0 0.00781 125.55854 125.97031
134.0 0.00746 125.51260 125.91325
119.0 0.00840 125.46635 125.85756
122.0 0.00820 125.41977 125.80351
128.0 0.00781 125.37287 125.75130
134.0 0.00746 125.32565 125.70107
121.0 0.00826 125.27811 125.65276
132.0 0.00758 125.23025 125.60624
112.0 0.00893 125.18207 125.56131
117.0 0.00855 125.13358 125.51785
122.0 0.00820 125.08477 125.47553
125.0 0.00800 125.03563 125.43417
124.0 0.00806 124.98618 125.39352
128.0 0.00781 124.93642 125.35326
139.0 0.00719 124.88635 125.31293
138.0 0.00725 124.83597 125.27209
122.0 0.00820 124.78527 125.23018
126.0 0.00794 124.73425 125.18658
107.0 0.00935 124.68294 125.14056
128.0 0.00781 124.63132 125.09170
125.0 0.00800 124.57938 125.03944
126.0 0.00794 124.52715 124.98340
110.0 0.00909 124.47462 124.92360
127.0 0.00787 124.42176 124.86015
126.0 0.00794 124.36863 124.79336
132.0 0.00758 124.31519 124.72392
111.0 0.00901 124.26147 124.65253
120.0 0.00833 124.20745 124.58008
132.0 0.00758 124.15314 124.50735
137.0 0.00730 124.09853 124.43527
118.0 0.00847 124.04363 124.36459
131.0 0.00763 123.98846 124.29591
121.0 0.00826 123.93301 124.22975
118.0 0.00847 123.87728 124.16634
111.0 0.00901 123.82127 124.10587
121.0 0.00826 123.76499 124.04831
115.0 0.00870 123.70843 123.99348
133.0 0.00752 123.65161 123.94124
127.0 0.00787 123.59453 123.89124
144.0 0.00694 123.53719 123.84307
141.0 0.00709 123.47958 123.79644
120.0 0.00833 123.42173 123.75089
125.0 0.00800 123.36361 123.70617
123.0 0.00813 123.30525 123.66187
114.0 0.00877 123.24665 123.61773
126.0 0.00794 123.18781 123.57348
127.0 0.00787 123.12872 123.52900
114.0 0.00877 123.06941 123.48407
120.0 0.00833 123.00986 123.43859
122.0 0.00820 122.95009 123.39233
123.0 0.00813 122.89010 123.34510
128.0 0.00781 122.82990 123.29666
118.0 0.00847 122.76947 123.24657
116.0 0.00862 122.70884 123.19453
103.0 0.00971 122.64799 123.14008
129.0 0.00775 122.58694 123.08276
127.0 0.00787 122.52571 123.02218
130.0 0.00769 122.46429 122.95805
133.0 0.00752 122.40268 122.89008
112.0 0.00893 122.34088 122.81834
116.0 0.00862 122.27890 122.74290
131.0 0.00763 122.21674 122.66412
145.0 0.00690 122.15443 122.58270
129.0 0.00775 122.09195 122.49929
144.0 0.00694 122.02930 122.41463
124.0 0.00806 121.96652 122.32965
118.0 0.00847 121.90358 122.24512
118.0 0.00847 121.84048 122.16190
135.0 0.00741 121.77727 122.08053
128.0 0.00781 121.71391 122.00145
125.0 0.00800 121.65043 121.92505
131.0 0.00763 121.58683 121.85127
125.0 0.00800 121.52312 121.78001
123.0 0.00813 121.45927 121.71114
122.0 0.00820 121.39535 121.64442
113.0 0.00885 121.33132 121.57946
124.0 0.00806 121.26720 121.51610
130.0 0.00769 121.20298 121.45388
126.0 0.00794 121.13869 121.39289
125.0 0.00800 121.07433 121.33270
124.0 0.00806 121.00987 121.27347
132.0 0.00758 120.94538 121.21502
128.0 0.00781 120.88082 121.15732
127.0 0.00787 120.81622 121.10024
131.0 0.00763 120.75156 121.04362
101.0 0.00990 120.68687 120.98730
115.0 0.00870 120.62213 120.93095
126.0 0.00794 120.55738 120.87436
118.0 0.00847 120.49261 120.81726
112.0 0.00893 120.42783 120.75924
120.0 0.00833 120.36304 120.70016
126.0 0.00794 120.29825 120.63979
126.0 0.00794 120.23345 120.57803
119.0 0.00840 120.16869 120.51485
113.0 0.00885 120.10393 120.45029
108.0 0.00926 120.03921 120.38445
115.0 0.00870 119.97453 120.31741
120.0 0.00833 119.90987 120.24934
119.0 0.00840 119.84525 120.18031
121.0 0.00826 119.78070 120.11054
105.0 0.00952 119.71621 120.04009
112.0 0.00893 119.65179 119.96898
130.0 0.00769 119.58743 119.89726
132.0 0.00758 119.52316 119.82509
121.0 0.00826 119.45899 119.75243
125.0 0.00800 119.39489 119.67939
117.0 0.00855 119.33090 119.60615
119.0 0.00840 119.26703 119.53293
108.0 0.00926 119.20326 119.45993
123.0 0.00813 119.13963 119.38756
136.0 0.00735 119.07612 119.31617
141.0 0.00709 119.01273 119.24611
115.0 0.00870 118.94950 119.17780
133.0 0.00752 118.88644 119.11159
119.0 0.00840 118.82352 119.04776
107.0 0.00935 118.76077 118.98640
103.0 0.00971 118.69818 118.92764
105.0 0.00952 118.63576 118.87124
132.0 0.00758 118.57355 118.81705
134.0 0.00746 118.51152 118.76462
134.0 0.00746 118.44971 118.71348
127.0 0.00787 118.38808 118.66300
117.0 0.00855 118.32668 118.61253
112.0 0.00893 118.26549 118.56151
132.0 0.00758 118.20454 118.50932
115.0 0.00870 118.14382 118.45562
112.0 0.00893 118.08334 118.40005
127.0 0.00787 118.02312 118.34238
122.0 0.00820 117.96316 118.28263
124.0 0.00806 117.90345 118.22085
116.0 0.00862 117.84400 118.15734
119.0 0.00840 117.78484 118.09226
105.0 0.00952 117.72597 118.02602
111.0 0.00901 117.66738 117.95893
99.0 0.01010 117.60909 117.89138
104.0 0.00962 117.55112 117.82355
119.0 0.00840 117.49342 117.75581
113.0 0.00885 117.43607 117.68842
117.0 0.00855 117.37904 117.62154
104.0 0.00962 117.32234 117.55535
112.0 0.00893 117.26598 117.49007
107.0 0.00935 117.20995 117.42574
115.0 0.00870 117.15427 117.36256
116.0 0.00862 117.09895 117.30071
115.0 0.00870 117.04401 117.24017
116.0 0.00862 116.98943 117.18113
121.0 0.00826 116.93522 117.12350
110.0 0.00909 116.88139 117.06735
134.0 0.00746 116.82793 117.01263
118.0 0.00847 116.77489 116.95937
115.0 0.00870 116.72224 116.90736
118.0 0.00847 116.67000 116.85661
149.0 0.00671 116.61817 116.80703
128.0 0.00781 116.56676 116.75851
129.0 0.00775 116.51577 116.71096
122.0 0.00820 116.46519 116.66428
111.0 0.00901 116.41506 116.61850
119.0 0.00840 116.36536 116.57346
129.0 0.00775 116.31612 116.52917
119.0 0.00840 116.26733 116.48569
126.0 0.00794 116.21899 116.44284
119.0 0.00840 116.17109 116.40060
118.0 0.00847 116.12367 116.35899
130.0 0.00769 116.07672 116.31778
119.0 0.00840 116.03024 116.27693
105.0 0.00952 115.98425 116.23635
124.0 0.00806 115.93874 116.19593
143.0 0.00699 115.89370 116.15546
120.0 0.00833 115.84917 116.11494
117.0 0.00855 115.80514 116.07421
116.0 0.00862 115.76160 116.03326
105.0 0.00952 115.71857 115.99212
115.0 0.00870 115.67606 115.95070
123.0 0.00813 115.63404 115.90923
115.0 0.00870 115.59255 115.86769
101.0 0.00990 115.55158 115.82626
116.0 0.00862 115.51114 115.78513
126.0 0.00794 115.47122 115.74439
124.0 0.00806 115.43183 115.70422
130.0 0.00769 115.39297 115.66471
117.0 0.00855 115.35464 115.62602
122.0 0.00820 115.31686 115.58833
115.0 0.00870 115.27962 115.55159
125.0 0.00800 115.24294 115.51591
118.0 0.00847 115.20679 115.48135
102.0 0.00980 115.17120 115.44793
100.0 0.01000 115.13615 115.41564
109.0 0.00917 115.10165 115.38454
106.0 0.00943 115.06771 115.35448
102.0 0.00980 115.03433 115.32555
124.0 0.00806 115.00151 115.29758
117.0 0.00855 114.96925 115.27045
113.0 0.00885 114.93755 115.24409
130.0 0.00769 114.90642 115.21823
128.0 0.00781 114.87584 115.19282
111.0 0.00901 114.84583 115.16757
117.0 0.00855 114.81638 115.14241
124.0 0.00806 114.78751 115.11716
115.0 0.00870 114.75919 115.09162
129.0 0.00775 114.73144 115.06579
118.0 0.00847 114.70426 115.03956
120.0 0.00833 114.67765 115.01281
116.0 0.00862 114.65160 114.98560
108.0 0.00926 114.62611 114.95786
105.0 0.00952 114.60120 114.92973
104.0 0.00962 114.57684 114.90112
104.0 0.00962 114.55304 114.87213
104.0 0.00962 114.52982 114.84276
97.0 0.01031 114.50715 114.81316
113.0 0.00885 114.48504 114.78335
116.0 0.00862 114.46348 114.75339
120.0 0.00833 114.44247 114.72347
118.0 0.00847 114.42203 114.69361
120.0 0.00833 114.40214 114.66417
121.0 0.00826 114.38279 114.63523
115.0 0.00870 114.36400 114.60702
113.0 0.00885 114.34574 114.57974
117.0 0.00855 114.32802 114.55358
113.0 0.00885 114.31084 114.52885
109.0 0.00917 114.29420 114.50555
117.0 0.00855 114.27808 114.48387
112.0 0.00893 114.26250 114.46395
110.0 0.00909 114.24744 114.44571
117.0 0.00855 114.23289 114.42910
98.0 0.01020 114.21886 114.41406
103.0 0.00971 114.20535 114.40035
110.0 0.00909 114.19233 114.38773
105.0 0.00952 114.17982 114.37607
122.0 0.00820 114.16780 114.36497
123.0 0.00813 114.15628 114.35422
111.0 0.00901 114.14524 114.34349
116.0 0.00862 114.13469 114.33269
123.0 0.00813 114.12461 114.32166
108.0 0.00926 114.11499 114.31027
98.0 0.01020 114.10584 114.29844
105.0 0.00952 114.09715 114.28644
125.0 0.00800 114.08890 114.27424
143.0 0.00699 114.08110 114.26204
118.0 0.00847 114.07373 114.25011
116.0 0.00862 114.06680 114.23865
128.0 0.00781 114.06030 114.22795
130.0 0.00769 114.05419 114.21814
114.0 0.00877 114.04850 114.20937
114.0 0.00877 114.04321 114.20183
125.0 0.00800 114.03831 114.19552
112.0 0.00893 114.03380 114.19050
122.0 0.00820 114.02966 114.18663
118.0 0.00847 114.02589 114.18380
118.0 0.00847 114.02248 114.18184
141.0 0.00709 114.01942 114.18069
119.0 0.00840 114.01669 114.18007
104.0 0.00962 114.01431 114.17984
121.0 0.00826 114.01224 114.17985
112.0 0.00893 114.01048 114.17999
107.0 0.00935 114.00903 114.18015
117.0 0.00855 114.00787 114.18027
118.0 0.00847 114.00700 114.18024
114.0 0.00877 114.00639 114.18013
116.0 0.00862 114.00605 114.17989
117.0 0.00855 114.00597 114.17949
129.0 0.00775 114.00612 114.17887
113.0 0.00885 114.00651 114.17809
129.0 0.00775 114.00711 114.17705
108.0 0.00926 114.00793 114.17566
105.0 0.00952 114.00894 114.17395
126.0 0.00794 114.01014 114.17184
105.0 0.00952 114.01151 114.16927
104.0 0.00962 114.01305 114.16623
121.0 0.00826 114.01474 114.16273
121.0 0.00826 114.01657 114.15879
138.0 0.00725 114.01853 114.15453
125.0 0.00800 114.02061 114.15001
118.0 0.00847 114.02277 114.14533
96.0 0.01042 114.02504 114.14074
108.0 0.00926 114.02739 114.13628
110.0 0.00909 114.02979 114.13216
102.0 0.00980 114.03226 114.12846
116.0 0.00862 114.03475 114.12538
123.0 0.00813 114.03728 114.12292
121.0 0.00826 114.03983 114.12112
115.0 0.00870 114.04237 114.12001
122.0 0.00820 114.04490 114.11964
112.0 0.00893 114.04740 114.11980
119.0 0.00840 114.04987 114.12059
111.0 0.00901 114.05228 114.12177
129.0 0.00775 114.05462 114.12336
123.0 0.00813 114.05688 114.12524
117.0 0.00855 114.05905 114.12731
119.0 0.00840 114.06111 114.12946
115.0 0.00870 114.06305 114.13168
122.0 0.00820 114.06485 114.13387
141.0 0.00709 114.06650 114.13598
119.0 0.00840 114.06799 114.13800
122.0 0.00820 114.06930 114.13988
132.0 0.00758 114.07042 114.14162
125.0 0.00800 114.07133 114.14320
102.0 0.00980 114.07202 114.14460
115.0 0.00870 114.07248 114.14583
110.0 0.00909 114.07269 114.14700
116.0 0.00862 114.07263 114.14797
130.0 0.00769 114.07230 114.14888
105.0 0.00952 114.07168 114.14968
110.0 0.00909 114.07076 114.15026
110.0 0.00909 114.06951 114.15068
102.0 0.00980 114.06792 114.15092
107.0 0.00935 114.06599 114.15080
118.0 0.00847 114.06371 114.15036
122.0 0.00820 114.06104 114.14945
113.0 0.00885 114.05798 114.14801
106.0 0.00943 114.05453 114.14592
127.0 0.00787 114.05065 114.14314
113.0 0.00885 114.04634 114.13967
113.0 0.00885 114.04159 114.13544
118.0 0.00847 114.03637 114.13053
104.0 0.00962 114.03069 114.12499
99.0 0.01010 114.02451 114.11881
117.0 0.00855 114.01785 114.11220
102.0 0.00980 114.01066 114.10518
104.0 0.00962 114.00296 114.09784
100.0 0.01000 113.99471 114.09029
131.0 0.00763 113.98592 114.08257
115.0 0.00870 113.97655 114.07462
129.0 0.00775 113.96661 114.06654
113.0 0.00885 113.95609 114.05826
105.0 0.00952 113.94496 114.04961
110.0 0.00909 113.93322 114.04059
124.0 0.00806 113.92086 114.03098
120.0 0.00833 113.90785 114.02069
116.0 0.00862 113.89420 114.00957
114.0 0.00877 113.87989 113.99746
116.0 0.00862 113.86491 113.98418
119.0 0.00840 113.84924 113.96964
110.0 0.00909 113.83289 113.95377
121.0 0.00826 113.81583 113.93645
114.0 0.00877 113.79807 113.91763
120.0 0.00833 113.77956 113.89730
124.0 0.00806 113.76034 113.87547
103.0 0.00971 113.74036 113.85218
123.0 0.00813 113.71964 113.82748
102.0 0.00980 113.69816 113.80156
102.0 0.00980 113.67591 113.77451
104.0 0.00962 113.65289 113.74648
120.0 0.00833 113.62907 113.71767
103.0 0.00971 113.60447 113.68818
98.0 0.01020 113.57906 113.65827
106.0 0.00943 113.55285 113.62803
98.0 0.01020 113.52583 113.59781
103.0 0.00971 113.49798 113.56750
130.0 0.00769 113.46931 113.53738
110.0 0.00909 113.43980 113.50743
105.0 0.00952 113.40947 113.47781
119.0 0.00840 113.37829 113.44833
118.0 0.00847 113.34627 113.41898
109.0 0.00917 113.31339 113.38979
123.0 0.00813 113.27966 113.36052
102.0 0.00980 113.24506 113.33107
121.0 0.00826 113.20963 113.30129
117.0 0.00855 113.17332 113.27100
111.0 0.00901 113.13615 113.24000
111.0 0.00901 113.09812 113.20821
125.0 0.00800 113.05922 113.17542
117.0 0.00855 113.01945 113.14151
100.0 0.01000 112.97881 113.10647
111.0 0.00901 112.93732 113.07021
104.0 0.00962 112.89495 113.03266
109.0 0.00917 112.85173 112.99387
128.0 0.00781 112.80764 112.95382
115.0 0.00870 112.76269 112.91257
113.0 0.00885 112.71688 112.87017
100.0 0.01000 112.67023 112.82667
97.0 0.01031 112.62273 112.78210
121.0 0.00826 112.57438 112.73656
106.0 0.00943 112.52520 112.68996
110.0 0.00909 112.47517 112.64240
108.0 0.00926 112.42433 112.59370
120.0 0.00833 112.37267 112.54408
113.0 0.00885 112.32019 112.49329
117.0 0.00855 112.26691 112.44131
105.0 0.00952 112.21284 112.38813
112.0 0.00893 112.15798 112.33364
108.0 0.00926 112.10233 112.27782
104.0 0.00962 112.04594 112.22072
103.0 0.00971 111.98879 112.16228
102.0 0.00980 111.93089 112.10265
115.0 0.00870 111.87227 112.04180
114.0 0.00877 111.81292 111.97980
113.0 0.00885 111.75286 111.91688
125.0 0.00800 111.69212 111.85323
110.0 0.00909 111.63071 111.78892
99.0 0.01010 111.56864 111.72414
102.0 0.00980 111.50593 111.65900
105.0 0.00952 111.44259 111.59366
92.0 0.01087 111.37862 111.52827
96.0 0.01042 111.31409 111.46286
118.0 0.00847 111.24898 111.39745
121.0 0.00826 111.18331 111.33213
125.0 0.00800 111.11713 111.26691
114.0 0.00877 111.05042 111.20175
128.0 0.00781 110.98321 111.13659
102.0 0.00980 110.91555 111.07140
99.0 0.01010 110.84744 111.00614
107.0 0.00935 110.77892 110.94073
103.0 0.00971 110.70999 110.87508
98.0 0.01020 110.64069 110.80910
114.0 0.00877 110.57106 110.74274
121.0 0.00826 110.50108 110.67587
108.0 0.00926 110.43082 110.60848
100.0 0.01000 110.36031 110.54034
110.0 0.00909 110.28954 110.47154
105.0 0.00952 110.21857 110.40193
113.0 0.00885 110.14742 110.33141
95.0 0.01053 110.07611 110.26000
115.0 0.00870 110.00469 110.18766
127.0 0.00787 109.93320 110.11441
116.0 0.00862 109.86163 110.04034
103.0 0.00971 109.79005 109.96559
119.0 0.00840 109.71848 109.89014
135.0 0.00741 109.64693 109.81423
103.0 0.00971 109.57549 109.73809
108.0 0.00926 109.50414 109.66183
111.0 0.00901 109.43296 109.58578
103.0 0.00971 109.36196 109.51012
108.0 0.00926 109.29118 109.43501
118.0 0.00847 109.22063 109.36073
124.0 0.00806 109.15041 109.28732
119.0 0.00840 109.08052 109.21497
101.0 0.00990 109.01099 109.14374
111.0 0.00901 108.94189 109.07375
119.0 0.00840 108.87325 109.00484
111.0 0.00901 108.80508 108.93705
116.0 0.00862 108.73743 108.87024
122.0 0.00820 108.67037 108.80434
105.0 0.00952 108.60393 108.73921
104.0 0.00962 108.53814 108.67471
104.0 0.00962 108.47305 108.61066
133.0 0.00752 108.40869 108.54696
107.0 0.00935 108.34511 108.48347
111.0 0.00901 108.28237 108.42017
109.0 0.00917 108.22050 108.35705
117.0 0.00855 108.15953 108.29404
107.0 0.00935 108.09953 108.23128
108.0 0.00926 108.04051 108.16875
116.0 0.00862 107.98253 108.10668
108.0 0.00926 107.92564 108.04517
114.0 0.00877 107.86990 107.98446
114.0 0.00877 107.81532 107.92474
115.0 0.00870 107.76196 107.86613
117.0 0.00855 107.70985 107.80895
110.0 0.00909 107.65903 107.75335
132.0 0.00758 107.60958 107.69946
137.0 0.00730 107.56152 107.64750
113.0 0.00885 107.51489 107.59750
111.0 0.00901 107.46975 107.54969
109.0 0.00917 107.42612 107.50408
98.0 0.01020 107.38405 107.46060
98.0 0.01020 107.34357 107.41940
105.0 0.00952 107.30476 107.38043
106.0 0.00943 107.26762 107.34370
110.0 0.00909 107.23221 107.30914
107.0 0.00935 107.19857 107.27679
111.0 0.00901 107.16673 107.24648
93.0 0.01075 107.13673 107.21834
102.0 0.00980 107.10861 107.19219
104.0 0.00962 107.08241 107.16811
104.0 0.00962 107.05816 107.14590
104.0 0.00962 107.03590 107.12561
116.0 0.00862 107.01566 107.10728
108.0 0.00926 106.99746 107.09083
115.0 0.00870 106.98136 107.07622
104.0 0.00962 106.96738 107.06351
99.0 0.01010 106.95553 107.05268
107.0 0.00935 106.94585 107.04374
126.0 0.00794 106.93837 107.03672
105.0 0.00952 106.93311 107.03166
111.0 0.00901 106.93009 107.02863
124.0 0.00806 106.92934 107.02773
116.0 0.00862 106.93088 107.02896
124.0 0.00806 106.93471 107.03239
114.0 0.00877 106.94085 107.03814
121.0 0.00826 106.94933 107.04630
104.0 0.00962 106.96014 107.05686
100.0 0.01000 106.97330 107.06992
105.0 0.00952 106.98881 107.08543
100.0 0.01000 107.00668 107.10346
104.0 0.00962 107.02690 107.12399
112.0 0.00893 107.04948 107.14700
93.0 0.01075 107.07442 107.17253
101.0 0.00990 107.10168 107.20045
113.0 0.00885 107.13129 107.23071
112.0 0.00893 107.16321 107.26321
118.0 0.00847 107.19743 107.29795
105.0 0.00952 107.23393 107.33486
119.0 0.00840 107.27269 107.37378
124.0 0.00806 107.31367 107.41479
105.0 0.00952 107.35684 107.45768
103.0 0.00971 107.40217 107.50253
108.0 0.00926 107.44962 107.54919
110.0 0.00909 107.49913 107.59769
97.0 0.01031 107.55068 107.64802
106.0 0.00943 107.60419 107.70014
102.0 0.00980 107.65962 107.75412
101.0 0.00990 107.71689 107.80987
120.0 0.00833 107.77593 107.86745
104.0 0.00962 107.83669 107.92686
93.0 0.01075 107.89906 107.98803
112.0 0.00893 107.96299 108.05100
116.0 0.00862 108.02836 108.11582
110.0 0.00909 108.09508 108.18221
120.0 0.00833 108.16304 108.25031
114.0 0.00877 108.23215 108.31992
102.0 0.00980 108.30228 108.39095
107.0 0.00935 108.37334 108.46338
114.0 0.00877 108.44514 108.53691
109.0 0.00917 108.51758 108.61134
97.0 0.01031 108.59051 108.68660
96.0 0.01042 108.66378 108.76237
109.0 0.00917 108.73723 108.83845
99.0 0.01010 108.81071 108.91457
106.0 0.00943 108.88400 108.99051
93.0 0.01075 108.95694 109.06595
90.0 0.01111 109.02934 109.14061
115.0 0.00870 109.10100 109.21427
119.0 0.00840 109.17169 109.28664
129.0 0.00775 109.24123 109.35748
108.0 0.00926 109.30935 109.42642
111.0 0.00901 109.37581 109.49326
109.0 0.00917 109.44037 109.55768
108.0 0.00926 109.50276 109.61952
121.0 0.00826 109.56271 109.67835
113.0 0.00885 109.61995 109.73402
113.0 0.00885 109.67418 109.78619
111.0 0.00901 109.72508 109.83460
107.0 0.00935 109.77232 109.87903
100.0 0.01000 109.81560 109.91915
115.0 0.00870 109.85455 109.95469
123.0 0.00813 109.88882 109.98541
111.0 0.00901 109.91805 110.01104
111.0 0.00901 109.94184 110.03125
104.0 0.00962 109.95979 110.04569
91.0 0.01099 109.97150 110.05411
104.0 0.00962 109.97654 110.05613
111.0 0.00901 109.97445 110.05147
113.0 0.00885 109.96479 110.03960
113.0 0.00885 109.94707 110.02013
109.0 0.00917 109.92081 109.99268
106.0 0.00943 109.88551 109.95670
104.0 0.00962 109.84061 109.91167
119.0 0.00840 109.78562 109.85710
110.0 0.00909 109.71993 109.79230
107.0 0.00935 109.64300 109.71671
97.0 0.01031 109.55421 109.62962
114.0 0.00877 109.45296 109.53038
101.0 0.00990 109.33860 109.41836
106.0 0.00943 109.21049 109.29264
98.0 0.01020 109.06794 109.15252
108.0 0.00926 108.91022 108.99724
115.0 0.00870 108.73668 108.82594
115.0 0.00870 108.54655 108.63795
115.0 0.00870 108.33906 108.43224
114.0 0.00877 108.11343 108.20804
122.0 0.00820 107.86884 107.96452
117.0 0.00855 107.60442 107.70072
140.0 0.00714 107.31940 107.41588
107.0 0.00935 107.01287 107.10912
98.0 0.01020 106.68390 106.77959
117.0 0.00855 106.33157 106.42625
105.0 0.00952 105.95490 106.04836
89.0 0.01124 105.55280 105.64481
108.0 0.00926 105.12447 105.21490
110.0 0.00909 104.66875 104.75752
102.0 0.00980 104.18459 104.27164
94.0 0.01064 103.67086 103.75634
100.0 0.01000 103.12644 103.21043
94.0 0.01064 102.55002 102.63264
91.0 0.01099 101.94067 102.02211
102.0 0.00980 101.29704 101.37745
96.0 0.01042 100.61786 100.69739
92.0 0.01087 99.90184 99.98064
96.0 0.01042 99.14767 99.22591
113.0 0.00885 98.35394 98.43162
116.0 0.00862 97.51906 97.59618
107.0 0.00935 96.64201 96.71856
101.0 0.00990 95.72111 95.79701
100.0 . . .
loop_
_refln_index_h
_refln_index_k
_refln_index_l
_refln_observed_status
_refln_F_squared_meas
_refln_F_squared_calc
_refln_phase_calc
_refln_d_spacing
_gsas_i100_meas
1 0 0 o 2195.232 2123.921 180.00 7.40154 37.37
0 2 0 o 6155.313 6110.935 0.00 6.48317 80.06
1 1 0 o 0.029 0.029 180.00 6.42800 0.00
0 1 1 o 2206.727 2198.600 0.00 6.35273 55.27
1 2 0 o 2020.020 1946.451 180.00 4.87685 29.67
1 1 -1 o 6928.222 6733.267 180.00 4.84471 100.00
0 2 1 o 281.995 273.823 0.00 4.84373 4.11
1 1 1 o 395.599 411.756 0.00 4.79684 5.48
1 2 -1 o 283.404 203.277 0.00 4.06729 2.91
1 2 1 o 170.221 140.622 180.00 4.03884 1.70
1 3 0 o 595.014 460.473 0.00 3.73235 5.11
0 3 1 o 895.839 836.431 0.00 3.71744 7.60
2 0 0 o 2158.442 2176.583 180.00 3.70077 9.01
0 0 2 o 1515.898 1356.078 180.00 3.64364 6.13
2 1 0 o 203.303 224.730 180.00 3.55866 1.59
0 1 2 o 451.125 500.129 0.00 3.50777 3.41
1 3 -1 o 1.511 64.499 0.00 3.32984 0.01
1 3 1 o 1041.621 1025.950 180.00 3.31418 7.00
1 0 -2 o 70.749 183.353 0.00 3.28403 0.24
1 0 2 o 572.505 783.960 180.00 3.25417 1.87
0 4 0 o 365.427 505.156 180.00 3.24158 1.17
2 2 0 o 1.972 2.569 180.00 3.21400 0.01
2 1 -1 o 59.571 79.028 180.00 3.21180 0.38
2 1 1 o 105.197 134.686 0.00 3.18386 0.67
1 1 -2 o 50.968 64.285 0.00 3.18351 0.32
0 2 2 o 5.682 6.843 180.00 3.17636 0.03
1 1 2 o 21.891 74.181 180.00 3.15629 0.14
1 4 0 o 372.889 441.582 180.00 2.96930 2.00
0 4 1 o 53.219 65.126 0.00 2.96177 0.29
2 2 -1 o 100.459 106.528 180.00 2.95162 0.54
2 2 1 o 957.571 1030.873 180.00 2.92988 5.01
1 2 -2 o 12.429 13.295 180.00 2.92961 0.06
1 2 2 o 41.272 48.291 0.00 2.90836 0.20
2 3 0 o 1525.737 1256.530 180.00 2.81109 7.35
0 3 2 o 2889.083 2894.186 0.00 2.78580 13.64
1 4 -1 o 86.142 36.013 0.00 2.75424 0.40
1 4 1 o 166.140 50.727 180.00 2.74536 0.76
2 3 -1 o 462.131 278.370 0.00 2.63046 1.92
2 3 1 o 603.886 453.420 180.00 2.61504 2.48
1 3 -2 o 73.153 54.398 0.00 2.61484 0.31
2 0 -2 o 1.566 1.286 0.00 2.61149 0.00
1 3 2 o 1057.693 927.397 180.00 2.59970 4.33
2 0 2 o 1484.425 1359.379 0.00 2.58157 3.01
2 1 -2 o 76.162 34.840 180.00 2.56008 0.30
2 1 2 o 107.934 17.709 180.00 2.53188 0.42
3 0 0 o 477.822 154.560 0.00 2.46718 0.88
1 5 0 o 560.737 566.749 0.00 2.44740 2.04
0 5 1 o 4.812 5.602 180.00 2.44318 0.02
2 4 0 o 265.955 334.644 0.00 2.43843 0.95
3 1 0 o 568.606 681.992 0.00 2.42369 2.02
2 2 -2 o 70.052 89.995 180.00 2.42235 0.25
0 4 2 o 152.073 201.908 0.00 2.42187 0.54
2 2 2 o 125.603 172.323 0.00 2.39842 0.44
0 1 3 o 9.588 32.645 180.00 2.38756 0.04
1 5 -1 o -0.130 32.664 0.00 2.32272 0.00
2 4 -1 o 540.342 470.196 180.00 2.31771 1.76
1 5 1 o 58.195 51.032 180.00 2.31739 0.18
3 1 -1 o 621.039 619.785 0.00 2.30766 2.00
2 4 1 o 129.951 130.328 180.00 2.30714 0.42
1 4 -2 o 92.340 92.743 180.00 2.30701 0.29
3 2 0 o 887.353 907.093 0.00 2.30586 2.84
1 4 2 o 293.368 292.813 0.00 2.29658 0.93
3 1 1 o 2.298 2.205 0.00 2.29207 0.01
1 1 -3 o 436.178 447.628 0.00 2.27982 1.37
0 2 3 o 1094.166 1167.826 0.00 2.27467 3.41
1 1 3 o -0.038 0.198 180.00 2.26478 0.00
2 3 -2 o -0.058 0.181 180.00 2.23517 0.00
2 3 2 o 22.073 86.229 180.00 2.21632 0.07
3 2 -1 o 103.056 110.851 0.00 2.20527 0.30
3 2 1 o 267.556 390.323 0.00 2.19165 0.78
1 2 -3 o 350.514 278.648 0.00 2.18093 1.00
1 2 3 o 33.429 79.276 180.00 2.16775 0.10
0 6 0 o -2.303 103.277 180.00 2.16106 0.00
3 3 0 o 1135.404 1029.610 0.00 2.14267 3.13
2 5 0 o 1193.766 1217.533 180.00 2.12375 3.23
0 3 3 o 561.916 660.482 180.00 2.11757 1.50
0 5 2 o 1193.238 1503.360 0.00 2.11278 3.20
1 6 0 o 0.080 11.076 0.00 2.07444 0.00
0 6 1 o 178.863 137.076 0.00 2.07187 0.46
3 3 -1 o 24.880 20.060 180.00 2.06124 0.06
3 0 -2 o 623.702 491.691 0.00 2.05392 0.79
3 3 1 o 255.555 210.297 0.00 2.05010 0.64
2 5 -1 o 491.882 433.505 0.00 2.04256 1.22
1 3 -3 o 0.055 0.048 0.00 2.04132 0.00
2 5 1 o 211.134 193.883 180.00 2.03532 0.52
1 5 -2 o 234.024 214.598 0.00 2.03523 0.58
2 4 -2 o 5.095 4.658 0.00 2.03364 0.01
3 0 2 o 146.762 134.075 180.00 2.03207 0.18
1 3 3 o 173.897 160.267 0.00 2.03050 0.42
3 1 -2 o 27.357 25.937 180.00 2.02863 0.07
1 5 2 o 534.199 514.177 180.00 2.02806 1.31
2 4 2 o 166.959 194.488 180.00 2.01942 0.40
2 1 -3 o 316.396 376.778 180.00 2.01670 0.77
3 1 2 o 2.483 0.591 180.00 2.00756 0.01
1 6 -1 o 143.559 64.727 0.00 1.99688 0.34
2 1 3 o 272.530 129.771 0.00 1.99599 0.65
1 6 1 o 19.353 3.722 0.00 1.99348 0.05
3 4 0 o 853.026 637.425 0.00 1.96323 1.94
3 2 -2 o 55.069 48.802 0.00 1.95801 0.13
2 2 -3 o 57.285 74.020 0.00 1.94727 0.13
0 4 3 o 990.825 1253.510 0.00 1.94388 2.23
3 2 2 o 271.440 298.487 180.00 1.93905 0.61
2 2 3 o 68.835 30.839 0.00 1.92862 0.15
3 4 -1 o 545.658 320.787 0.00 1.90002 1.16
3 4 1 o 152.711 161.633 0.00 1.89129 0.33
1 4 -3 o 739.836 775.070 0.00 1.88439 1.56
1 4 3 o 27.569 12.092 180.00 1.87587 0.06
2 6 0 o -0.101 6.813 180.00 1.86618 0.00
0 6 2 o 0.097 0.642 180.00 1.85872 0.00
3 3 -2 o 38.242 44.586 180.00 1.85511 0.08
4 0 0 o 847.266 793.065 180.00 1.85038 0.86
2 3 -3 o 13.459 14.427 0.00 1.84597 0.03
2 5 -2 o 79.905 76.911 0.00 1.84013 0.16
3 3 2 o 72.495 67.144 0.00 1.83896 0.15
4 1 0 o 0.365 0.286 180.00 1.83183 0.00
2 3 3 o 147.341 125.405 0.00 1.83005 0.29
2 5 2 o 6.463 5.633 0.00 1.82957 0.01
0 0 4 o 922.097 722.598 180.00 1.82182 0.90
2 6 -1 o 209.945 147.182 180.00 1.81037 0.41
2 6 1 o 5.624 4.047 180.00 1.80532 0.01
1 6 -2 o 40.372 29.323 180.00 1.80525 0.08
0 1 4 o 25.584 17.315 0.00 1.80410 0.05
1 6 2 o 52.212 29.460 0.00 1.80025 0.10
1 7 0 o 55.478 35.517 0.00 1.79692 0.11
0 7 1 o 203.791 148.052 180.00 1.79524 0.39
3 5 0 o 112.579 70.342 0.00 1.78747 0.21
4 1 -1 o 365.479 254.832 180.00 1.78137 0.69
4 2 0 o 790.361 597.540 180.00 1.77933 1.47
1 0 -4 o 46.769 35.287 0.00 1.77377 0.04
0 5 3 o 23.010 17.205 180.00 1.77283 0.04
4 1 1 o 278.467 206.430 180.00 1.77178 0.51
1 0 4 o 537.677 551.566 0.00 1.76431 0.49
1 1 -4 o 34.545 29.203 0.00 1.75740 0.06
0 2 4 o 607.017 460.720 180.00 1.75389 1.10
1 1 4 o 1.679 2.173 180.00 1.74820 0.00
1 7 -1 o 30.632 43.494 180.00 1.74579 0.05
1 7 1 o 205.802 277.523 0.00 1.74353 0.37
3 5 -1 o 53.042 44.078 180.00 1.73937 0.09
3 4 -2 o 199.105 157.713 180.00 1.73497 0.35
4 2 -1 o 102.343 89.445 180.00 1.73298 0.18
3 5 1 o 213.000 189.092 0.00 1.73267 0.37
2 4 -3 o 70.814 80.871 0.00 1.72749 0.12
1 5 -3 o 45.092 52.057 180.00 1.72736 0.08
3 1 -3 o 41.616 56.540 0.00 1.72551 0.07
4 2 1 o 15.791 22.982 0.00 1.72415 0.03
3 4 2 o 2.507 3.531 180.00 1.72174 0.00
1 5 3 o 100.730 132.114 0.00 1.72079 0.17
2 4 3 o 1.846 1.585 0.00 1.71442 0.00
1 2 -4 o 319.242 270.946 0.00 1.71089 0.55
3 1 3 o 481.040 338.745 180.00 1.70609 0.82
1 2 4 o 95.674 47.911 0.00 1.70239 0.16
4 3 0 o 3.055 0.646 180.00 1.70105 0.01
3 2 -3 o 39.040 10.064 180.00 1.68142 0.06
0 3 4 o 20.135 6.053 180.00 1.67878 0.03
2 6 -2 o 442.369 497.766 0.00 1.66492 0.72
3 2 3 o 6.243 7.142 0.00 1.66343 0.01
4 3 -1 o 416.614 462.685 180.00 1.66042 0.67
4 0 -2 o 92.952 99.136 180.00 1.65756 0.08
2 6 2 o 357.655 384.251 180.00 1.65709 0.58
2 7 0 o 67.918 74.379 180.00 1.65643 0.11
4 3 1 o 8.616 12.021 0.00 1.65265 0.01
0 7 2 o 13.187 22.824 0.00 1.65121 0.02
4 1 -2 o 42.710 48.560 0.00 1.64418 0.07
4 0 2 o 29.437 29.869 0.00 1.64221 0.02
2 0 -4 o 105.416 106.022 180.00 1.64201 0.08
1 3 -4 o 112.609 106.364 0.00 1.64095 0.18
1 3 4 o 7.653 3.939 180.00 1.63345 0.01
4 1 2 o 68.670 70.311 180.00 1.62919 0.11
2 1 -4 o 44.016 45.406 0.00 1.62900 0.07
2 0 4 o 77.510 81.763 0.00 1.62709 0.06
3 6 0 o 0.132 0.144 0.00 1.62562 0.00
0 8 0 o 28.129 77.856 180.00 1.62079 0.02
2 7 -1 o 50.059 76.656 0.00 1.61703 0.08
3 3 -3 o 11.490 13.113 0.00 1.61490 0.02
0 6 3 o 91.989 102.834 0.00 1.61458 0.14
2 1 4 o 4.887 5.433 0.00 1.61443 0.01
2 7 1 o 35.469 38.435 180.00 1.61343 0.05
1 7 -2 o 166.103 179.705 0.00 1.61338 0.25
3 5 -2 o 27.410 33.048 180.00 1.61009 0.04
1 7 2 o 16.630 20.309 180.00 1.60981 0.03
4 4 0 o 105.984 146.529 180.00 1.60700 0.16
4 2 -2 o 0.956 1.485 180.00 1.60590 0.00
2 5 -3 o 55.632 91.805 0.00 1.60411 0.08
3 5 2 o 225.558 306.790 0.00 1.59950 0.34
3 3 3 o 15.239 20.373 180.00 1.59895 0.02
2 5 3 o 116.980 167.310 180.00 1.59363 0.17
4 2 2 o 2.554 4.491 0.00 1.59193 0.00
2 2 -4 o 6.290 11.552 180.00 1.59175 0.01
3 6 -1 o 35.019 110.866 0.00 1.58919 0.05
0 4 4 o 15.389 55.088 180.00 1.58818 0.02
3 6 1 o 1.863 3.654 0.00 1.58407 0.00
1 8 0 o 89.538 150.820 0.00 1.58328 0.13
0 8 1 o 16.705 26.068 0.00 1.58213 0.02
1 6 -3 o 114.587 171.190 0.00 1.58000 0.17
2 2 4 o 5.037 7.724 0.00 1.57814 0.01
1 6 3 o 79.377 144.990 180.00 1.57497 0.12
4 4 -1 o 1.849 2.687 0.00 1.57261 0.00
4 4 1 o 16.451 110.528 180.00 1.56600 0.03
1 4 -4 o 23.417 187.950 0.00 1.55605 0.03
1 4 4 o 1.672 13.273 180.00 1.54965 0.00
1 8 -1 o 6.082 45.717 0.00 1.54797 0.01
4 3 -2 o 19.102 137.095 0.00 1.54765 0.03
1 8 1 o 0.296 1.209 0.00 1.54639 0.00
4 3 2 o 250.035 209.286 180.00 1.53513 0.34
2 3 -4 o 81.357 67.525 0.00 1.53497 0.11
3 4 -3 o 303.285 250.138 180.00 1.53378 0.41
2 3 4 o 285.036 229.125 0.00 1.52276 0.38
3 4 3 o 0.865 0.891 180.00 1.52009 0.00
2 7 -2 o -0.134 8.241 180.00 1.51086 0.00
4 5 0 o 1.167 2.855 0.00 1.50625 0.00
2 7 2 o -0.158 68.810 0.00 1.50500 0.00
0 5 4 o 0.981 1.273 180.00 1.49073 0.00
3 6 -2 o 240.585 281.396 180.00 1.48878 0.31
2 8 0 o 19.730 27.582 180.00 1.48465 0.03
2 6 -3 o 21.215 27.630 180.00 1.48404 0.03
3 7 0 o 2.752 2.708 0.00 1.48130 0.00
0 8 2 o 22.889 22.042 180.00 1.48089 0.03
3 6 2 o 442.801 418.677 0.00 1.48039 0.56
5 0 0 o 688.687 649.474 0.00 1.48031 0.43
4 5 -1 o 74.577 64.438 180.00 1.47782 0.09
4 4 -2 o 0.252 0.185 0.00 1.47581 0.00
2 6 3 o 0.069 0.045 0.00 1.47573 0.00
3 0 -4 o 4.923 3.528 0.00 1.47370 0.00
0 7 3 o 59.943 46.441 0.00 1.47294 0.07
4 5 1 o 0.002 0.001 0.00 1.47234 0.00
5 1 0 o 108.801 124.727 180.00 1.47075 0.13
4 1 -3 o 2.176 2.528 0.00 1.47065 0.00
4 4 2 o 1.013 0.629 0.00 1.46494 0.00
2 4 -4 o 2.222 1.395 0.00 1.46481 0.00
3 1 -4 o 56.757 37.358 180.00 1.46427 0.07
1 5 -4 o 0.083 0.059 0.00 1.46405 0.00
1 5 4 o 22.393 13.525 180.00 1.45872 0.03
3 0 4 o 477.390 284.629 180.00 1.45756 0.29
2 8 -1 o 18.059 11.515 0.00 1.45608 0.02
4 1 3 o 160.265 114.270 0.00 1.45461 0.19
2 4 4 o 13.763 10.196 180.00 1.45418 0.02
3 7 -1 o 23.999 18.437 180.00 1.45358 0.03
2 8 1 o 2.352 1.840 0.00 1.45345 0.00
1 8 -2 o 160.076 125.192 180.00 1.45342 0.19
1 8 2 o 90.288 77.378 0.00 1.45080 0.11
3 7 1 o 70.965 60.906 0.00 1.44966 0.09
3 1 4 o 8.183 6.943 180.00 1.44843 0.01
0 1 5 o 980.672 832.296 180.00 1.44833 1.18
1 7 -3 o 36.666 30.235 180.00 1.44655 0.04
3 5 -3 o 181.659 146.641 180.00 1.44546 0.22
5 1 -1 o 399.515 317.392 0.00 1.44490 0.48
5 2 0 o 147.062 112.952 0.00 1.44317 0.18
4 2 -3 o 175.858 135.150 0.00 1.44307 0.21
1 7 3 o 103.995 80.340 0.00 1.44268 0.12
5 1 1 o 39.440 52.573 0.00 1.43849 0.05
3 2 -4 o 13.545 18.103 180.00 1.43704 0.02
3 5 3 o 48.503 26.713 0.00 1.43399 0.06
4 2 3 o 261.417 148.928 180.00 1.42790 0.30
1 1 -5 o 425.609 284.540 0.00 1.42445 0.49
3 2 4 o 74.499 55.080 180.00 1.42206 0.09
0 2 5 o 81.728 60.863 180.00 1.42197 0.09
5 2 -1 o 137.113 97.797 180.00 1.41871 0.16
1 1 5 o 52.683 35.816 0.00 1.41832 0.06
1 9 0 o 30.988 10.241 180.00 1.41416 0.04
0 9 1 o 91.177 25.460 180.00 1.41335 0.10
5 2 1 o 206.784 51.301 0.00 1.41265 0.23
4 6 0 o 45.725 16.092 0.00 1.40554 0.05
5 3 0 o 398.549 169.684 180.00 1.40045 0.44
4 3 -3 o 19.455 8.299 0.00 1.40036 0.02
1 2 -5 o 97.514 42.429 180.00 1.39935 0.11
4 5 -2 o 27.991 14.284 0.00 1.39663 0.03
3 3 -4 o 332.749 195.025 180.00 1.39484 0.37
1 2 5 o 23.525 14.450 180.00 1.39353 0.03
0 6 4 o 29.109 17.867 0.00 1.39290 0.03
1 9 -1 o 3.400 1.984 180.00 1.38884 0.00
1 9 1 o 142.320 85.204 0.00 1.38769 0.16
4 5 2 o 372.726 226.862 180.00 1.38741 0.41
2 5 -4 o 0.739 0.422 0.00 1.38730 0.00
4 3 3 o 14.456 9.222 0.00 1.38648 0.02
4 6 -1 o 17.928 15.285 0.00 1.38236 0.02
3 3 4 o 65.160 59.079 180.00 1.38113 0.07
0 3 5 o 10.785 9.798 180.00 1.38105 0.01
2 5 4 o 144.137 138.011 0.00 1.37826 0.16
5 3 -1 o 138.774 133.268 0.00 1.37807 0.15
4 6 1 o 194.307 187.079 180.00 1.37787 0.21
2 8 -2 o 443.910 431.734 0.00 1.37712 0.48
5 0 -2 o 5.192 5.059 180.00 1.37699 0.00
3 7 -2 o 52.047 51.495 180.00 1.37556 0.06
2 8 2 o 388.753 401.175 180.00 1.37268 0.42
5 3 1 o 0.914 0.950 0.00 1.37251 0.00
2 7 -3 o 174.324 185.370 0.00 1.37182 0.19
1 6 -4 o 9.659 10.585 180.00 1.37107 0.01
5 1 -2 o 0.300 0.340 180.00 1.36929 0.00
3 7 2 o 74.962 83.465 0.00 1.36894 0.08
1 6 4 o 11.373 12.087 0.00 1.36668 0.01
5 0 2 o 12.288 13.171 0.00 1.36597 0.01
2 7 3 o 504.128 549.803 180.00 1.36525 0.53
1 3 -5 o 77.277 78.007 0.00 1.36030 0.08
5 1 2 o 111.857 108.631 0.00 1.35845 0.12
3 6 -3 o 151.435 186.573 180.00 1.35576 0.16
1 3 5 o 28.037 43.671 0.00 1.35495 0.03
3 8 0 o 57.535 101.584 180.00 1.35463 0.06
2 1 -5 o 6.963 16.453 0.00 1.35400 0.01
0 8 3 o 10.004 8.732 180.00 1.34822 0.01
5 2 -2 o 5.710 5.024 0.00 1.34694 0.01
5 4 0 o 16.249 15.016 180.00 1.34655 0.02
4 4 -3 o 153.427 143.358 0.00 1.34647 0.16
3 6 3 o 53.652 51.796 0.00 1.34628 0.05
2 1 5 o 8.293 27.822 0.00 1.34351 0.01
2 9 0 o -0.125 95.730 0.00 1.34256 0.00
3 4 -4 o -0.155 39.333 180.00 1.34156 0.00
0 9 2 o -0.471 49.221 180.00 1.33977 0.00
5 2 2 o 21.485 14.733 0.00 1.33662 0.02
4 4 3 o 186.619 74.670 180.00 1.33412 0.19
3 8 -1 o 93.010 35.774 180.00 1.33333 0.09
2 2 -5 o 29.163 10.979 0.00 1.33238 0.03
3 8 1 o 2.178 0.969 180.00 1.33030 0.00
3 4 4 o 3.517 1.724 180.00 1.32935 0.00
0 4 5 o 79.876 39.610 180.00 1.32928 0.08
1 8 -3 o 25.639 15.746 180.00 1.32789 0.03
5 4 -1 o 136.413 108.972 180.00 1.32662 0.14
1 8 3 o 62.563 68.917 180.00 1.32490 0.06
2 2 5 o 145.614 135.638 0.00 1.32239 0.14
5 4 1 o 28.443 23.192 0.00 1.32166 0.03
2 9 -1 o 0.006 0.006 180.00 1.32132 0.00
2 9 1 o 81.872 46.532 180.00 1.31935 0.08
1 9 -2 o 0.010 0.004 180.00 1.31933 0.00
1 9 2 o 0.909 0.434 0.00 1.31737 0.00
4 6 -2 o 42.189 23.222 180.00 1.31523 0.04
5 3 -2 o 55.883 45.253 180.00 1.31201 0.05
1 4 -5 o 160.361 157.983 180.00 1.31074 0.16
4 7 0 o 0.033 0.041 180.00 1.30911 0.00
4 6 2 o 0.297 0.354 0.00 1.30752 0.00
2 6 -4 o 0.538 0.630 180.00 1.30742 0.00
1 4 5 o 63.017 73.295 180.00 1.30596 0.06
4 0 -4 o 71.315 83.983 0.00 1.30575 0.03
5 3 2 o 68.765 301.977 0.00 1.30247 0.07
2 6 4 o -0.072 3.539 180.00 1.29985 0.00
4 1 -4 o 0.091 6.050 180.00 1.29917 0.00
0 7 4 o -0.323 42.892 0.00 1.29887 0.00
2 3 -5 o -0.210 41.269 180.00 1.29854 0.00
0 10 0 o -0.984 54.557 180.00 1.29663 0.00
4 0 4 o 83.690 87.637 0.00 1.29079 0.04
4 7 -1 o 57.179 51.173 0.00 1.29031 0.05
2 3 5 o 7.779 6.136 180.00 1.28929 0.01
4 7 1 o 14.087 23.751 180.00 1.28666 0.01
5 5 0 o 0.038 0.184 0.00 1.28560 0.00
4 5 -3 o 2.699 26.537 0.00 1.28553 0.00
4 1 4 o -0.001 4.596 0.00 1.28444 0.00
3 5 -4 o 29.766 34.918 180.00 1.28126 0.03
1 7 -4 o 16.201 18.520 180.00 1.28112 0.01
4 2 -4 o 18.467 22.153 0.00 1.28004 0.02
1 7 4 o 2.642 14.338 180.00 1.27754 0.00
1 10 0 o 2.897 24.395 0.00 1.27718 0.00
0 10 1 o 1.124 19.653 180.00 1.27658 0.00
4 5 3 o 6.335 32.174 0.00 1.27477 0.01
3 8 -2 o 31.082 44.466 180.00 1.27235 0.03
3 5 4 o 84.447 94.926 180.00 1.27061 0.08
0 5 5 o 41.583 46.619 0.00 1.27055 0.04
2 8 -3 o 51.231 57.170 180.00 1.26939 0.05
3 7 -3 o 294.918 336.308 180.00 1.26860 0.27
5 5 -1 o 0.313 0.363 180.00 1.26822 0.00
5 4 -2 o 43.510 51.873 0.00 1.26738 0.04
3 8 2 o 261.993 317.091 0.00 1.26710 0.24
4 2 4 o 94.888 127.089 0.00 1.26594 0.09
5 1 -3 o 42.141 73.951 180.00 1.26454 0.04
2 8 3 o 0.198 0.378 0.00 1.26418 0.00
5 5 1 o 11.159 23.269 180.00 1.26389 0.01
2 9 -2 o 20.871 33.574 180.00 1.26147 0.02
3 7 3 o 21.712 26.211 0.00 1.26083 0.02
5 4 2 o 6.544 4.423 180.00 1.25877 0.01
1 10 -1 o 10.481 6.811 180.00 1.25843 0.01
2 9 2 o 8.472 5.505 0.00 1.25806 0.01
1 10 1 o 26.915 17.692 180.00 1.25758 0.02
3 1 -5 o 46.682 48.571 180.00 1.25531 0.04
2 4 -5 o 77.041 83.073 0.00 1.25523 0.07
1 5 -5 o 0.962 1.774 0.00 1.25433 0.00
5 1 3 o -0.037 1.955 180.00 1.25178 0.00
1 5 5 o -0.065 1.898 180.00 1.25014 0.00
4 3 -4 o -0.080 0.467 0.00 1.24995 0.00
5 2 -3 o 184.057 143.450 180.00 1.24688 0.16
2 4 5 o 222.208 172.108 0.00 1.24686 0.19
3 9 0 o 45.172 17.355 180.00 1.24412 0.04
3 1 5 o 48.323 14.839 180.00 1.24282 0.04
4 3 4 o 0.259 0.241 0.00 1.23681 0.00
4 7 -2 o 4.581 13.191 0.00 1.23521 0.00
5 2 3 o 1.694 11.900 0.00 1.23464 0.00
0 9 3 o 13.237 5.960 180.00 1.23915 0.01
6 0 0 o -0.016 0.870 180.00 1.23359 0.00
3 2 -5 o 187.291 113.973 180.00 1.23803 0.16
4 7 2 o 186.438 135.274 180.00 1.22882 0.16
2 7 -4 o 0.141 0.097 0.00 1.22874 0.00
6 1 0 o 0.447 0.313 180.00 1.22804 0.00
3 9 -1 o 55.770 36.935 180.00 1.22756 0.05
3 2 5 o 130.107 86.962 180.00 1.22604 0.11
3 9 1 o 58.757 40.890 0.00 1.22519 0.05
2 10 0 o 0.045 0.034 180.00 1.22370 0.00
1 9 -3 o 62.205 48.399 180.00 1.22331 0.05
2 7 4 o 14.183 11.801 180.00 1.22245 0.01
0 10 2 o 5.683 5.016 0.00 1.22159 0.00
5 6 0 o 22.049 19.754 180.00 1.22126 0.02
4 6 -3 o 127.960 115.084 0.00 1.22120 0.11
1 9 3 o 112.176 101.861 0.00 1.22097 0.09
4 8 0 o 40.456 33.176 0.00 1.21921 0.03
5 3 -3 o 30.570 24.369 180.00 1.21902 0.03
3 6 -4 o 6.777 4.128 180.00 1.21754 0.01
5 5 -2 o 213.481 109.043 180.00 1.21617 0.17
0 0 6 o 17.276 8.257 180.00 1.21455 0.01
6 1 -1 o 131.502 63.923 180.00 1.21325 0.11
4 6 3 o 3.783 1.834 180.00 1.21197 0.00
6 2 0 o 0.121 0.066 0.00 1.21185 0.00
4 4 -4 o 17.150 8.895 0.00 1.21118 0.01
0 8 4 o 45.829 23.963 0.00 1.21093 0.04
3 3 -5 o 64.992 34.762 180.00 1.21074 0.05
0 1 6 o 12.310 7.504 180.00 1.20925 0.01
6 1 1 o 3.417 2.153 180.00 1.20870 0.00
5 5 2 o 71.755 46.895 0.00 1.20856 0.06
3 6 4 o 38.706 26.020 180.00 1.20839 0.03
0 6 5 o 1.284 0.860 180.00 1.20834 0.00
5 3 3 o 46.405 34.328 180.00 1.20757 0.04
2 10 -1 o 34.212 25.275 0.00 1.20755 0.03
5 6 -1 o 27.512 25.176 180.00 1.20634 0.02
2 10 1 o 46.783 45.714 0.00 1.20605 0.04
1 10 -2 o 122.704 120.461 180.00 1.20603 0.10
2 5 -5 o 36.759 42.338 180.00 1.20542 0.03
1 10 2 o 88.017 134.020 0.00 1.20454 0.07
4 8 -1 o 2.623 4.749 180.00 1.20399 0.00
5 6 1 o 6.001 14.858 0.00 1.20260 0.00
4 8 1 o 3.757 8.168 180.00 1.20102 0.00
1 0 -6 o 122.912 255.341 0.00 1.20073 0.05
3 3 5 o 47.391 85.526 180.00 1.19952 0.04
4 4 4 o 41.636 73.310 0.00 1.19921 0.03
2 5 5 o 3.271 5.551 0.00 1.19801 0.00
6 2 -1 o 93.750 159.148 0.00 1.19763 0.07
1 8 -4 o 10.908 19.932 180.00 1.19651 0.01
1 0 6 o 18.312 32.826 180.00 1.19632 0.01
1 1 -6 o 10.956 23.052 180.00 1.19561 0.01
1 6 -5 o 8.253 32.667 180.00 1.19436 0.01
0 2 6 o 3.124 21.194 180.00 1.19378 0.00
1 8 4 o 1.259 8.306 0.00 1.19359 0.00
6 2 1 o 9.951 73.259 180.00 1.19325 0.01
1 1 6 o 11.619 5.891 180.00 1.19126 0.01
1 6 5 o 8.587 2.636 180.00 1.19074 0.01
3 8 -3 o 44.996 5.730 0.00 1.18629 0.03
6 3 0 o 68.397 8.590 0.00 1.18622 0.05
5 4 -3 o 223.898 58.298 180.00 1.18297 0.17
1 2 -6 o 100.816 35.819 0.00 1.18065 0.08
3 8 3 o 154.484 64.004 0.00 1.17993 0.12
3 9 -2 o 17.629 8.147 180.00 1.17947 0.01
2 9 -3 o 304.311 237.352 0.00 1.17711 0.23
1 2 6 o 0.395 0.326 0.00 1.17645 0.00
3 4 -5 o 35.749 32.126 180.00 1.17540 0.03
3 9 2 o 0.014 0.012 180.00 1.17529 0.00
2 9 3 o 73.632 86.374 180.00 1.17295 0.06
6 3 -1 o 0.474 0.566 180.00 1.17287 0.00
6 0 -2 o 4.032 5.240 180.00 1.17255 0.00
5 4 3 o 62.761 84.154 0.00 1.17250 0.05
0 3 6 o 5.159 15.405 180.00 1.16926 0.00
6 3 1 o 0.195 0.469 180.00 1.16876 0.00
6 1 -2 o 0.905 1.243 0.00 1.16779 0.00
4 5 -4 o 93.658 81.551 0.00 1.16625 0.07
3 4 5 o 61.517 48.699 180.00 1.16513 0.05
6 0 2 o 54.068 43.429 180.00 1.16437 0.02
1 11 0 o 10.448 8.526 180.00 1.16409 0.01
0 11 1 o 6.059 5.171 0.00 1.16363 0.00
2 10 -2 o 35.960 37.692 0.00 1.16136 0.03
5 6 -2 o 42.061 44.156 0.00 1.16128 0.03
6 1 2 o 5.264 5.032 0.00 1.15971 0.00
4 8 -2 o 0.072 0.064 180.00 1.15885 0.00
2 10 2 o 169.813 139.657 180.00 1.15869 0.12
2 0 -6 o 0.018 0.015 180.00 1.15795 0.00
1 3 -6 o 81.274 55.558 180.00 1.15691 0.06
5 7 0 o 1.284 0.878 0.00 1.15640 0.00
4 7 -3 o 7.863 5.354 0.00 1.15635 0.01
4 5 4 o 1.739 1.208 180.00 1.15556 0.00
5 0 -4 o 125.135 87.617 180.00 1.15540 0.05
5 6 2 o 142.749 103.985 180.00 1.15465 0.10
6 2 -2 o 13.082 9.759 180.00 1.15383 0.01
4 8 2 o 4.004 2.974 0.00 1.15357 0.00
2 8 -4 o 0.342 0.263 180.00 1.15350 0.00
2 1 -6 o 0.169 0.121 0.00 1.15336 0.00
3 7 -4 o 15.864 11.696 0.00 1.15324 0.01
1 3 6 o 3.877 2.818 180.00 1.15296 0.00
6 4 0 o 2.062 1.493 0.00 1.15293 0.00
2 6 -5 o 136.321 92.284 0.00 1.15191 0.10
5 1 -4 o 6.047 3.895 180.00 1.15084 0.00
2 0 6 o 57.184 36.239 180.00 1.15007 0.02
1 11 -1 o 0.000 0.000 180.00 1.14984 0.00
1 11 1 o 5.005 3.118 0.00 1.14919 0.00
4 7 3 o 71.029 43.638 0.00 1.14850 0.05
2 8 4 o 7.702 4.673 0.00 1.14829 0.01
3 10 0 o 20.456 11.701 180.00 1.14778 0.01
4 1 -5 o 118.066 60.918 0.00 1.14690 0.08
6 2 2 o 12.249 5.709 180.00 1.14604 0.01
2 1 6 o 32.287 14.697 0.00 1.14557 0.02
3 7 4 o 13.744 6.195 180.00 1.14546 0.01
2 6 5 o 125.415 56.429 0.00 1.14543 0.09
0 7 5 o 36.600 16.315 0.00 1.14541 0.03
0 10 3 o 34.463 14.937 180.00 1.14387 0.02
5 7 -1 o 48.148 21.005 180.00 1.14370 0.03
5 0 4 o 197.970 93.336 180.00 1.14244 0.07
5 5 -3 o 79.070 44.248 0.00 1.14100 0.06
6 4 -1 o 67.395 39.160 0.00 1.14066 0.05
5 7 1 o 70.406 41.672 180.00 1.14052 0.05
2 2 -6 o 2.902 1.864 180.00 1.13991 0.00
5 1 4 o 3.503 2.333 0.00 1.13803 0.00
5 2 -4 o 48.963 32.017 180.00 1.13747 0.03
0 4 6 o 7.581 4.950 180.00 1.13734 0.01
6 4 1 o 8.916 5.705 180.00 1.13688 0.01
4 9 0 o 10.589 6.706 180.00 1.13677 0.01
3 10 -1 o 182.709 98.074 180.00 1.13473 0.13
4 1 5 o 140.856 73.147 0.00 1.13422 0.10
3 5 -5 o 3.212 1.662 0.00 1.13421 0.00
4 2 -5 o 5.853 3.007 0.00 1.13367 0.00
1 7 -5 o 23.431 12.028 180.00 1.13349 0.02
3 10 1 o 0.002 0.001 0.00 1.13286 0.00
2 2 6 o 2.291 1.340 0.00 1.13239 0.00
6 3 -2 o 14.984 9.890 0.00 1.13165 0.01
5 5 3 o 29.616 19.937 180.00 1.13160 0.02
1 10 -3 o 11.846 8.437 180.00 1.13138 0.01
1 7 5 o 55.616 53.348 180.00 1.13039 0.04
0 9 4 o 1.746 1.846 0.00 1.13005 0.00
1 10 3 o 22.856 27.653 0.00 1.12952 0.02
1 4 -6 o 11.412 14.637 180.00 1.12597 0.01
5 2 4 o 53.569 66.517 180.00 1.12510 0.04
3 5 5 o 29.137 35.998 180.00 1.12497 0.02
4 9 -1 o 65.005 80.152 0.00 1.12440 0.04
6 3 2 o 0.545 0.677 180.00 1.12429 0.00
2 11 0 o 117.082 145.174 0.00 1.12316 0.08
1 4 6 o 8.792 10.186 0.00 1.12232 0.01
4 9 1 o 1.427 1.549 180.00 1.12198 0.00
0 11 2 o 5.976 5.837 180.00 1.12153 0.00
4 2 5 o 0.331 0.313 0.00 1.12142 0.00
2 3 -6 o 31.323 19.029 0.00 1.11850 0.02
1 9 -4 o 0.128 0.083 180.00 1.11830 0.00
4 6 -4 o 37.810 33.807 0.00 1.11758 0.03
5 3 -4 o -0.066 4.288 180.00 1.11620 0.00
1 9 4 o -0.001 0.000 0.00 1.11592 0.00
6 5 0 o -0.636 37.326 0.00 1.11398 0.00
4 3 -5 o -0.529 52.484 0.00 1.11261 0.00
2 3 6 o 0.924 23.851 0.00 1.11140 0.00
2 11 -1 o 0.066 0.326 0.00 1.11064 0.00
3 9 -3 o 26.048 76.596 180.00 1.10995 0.02
2 11 1 o 18.819 43.204 180.00 1.10947 0.01
1 11 -2 o 18.267 41.953 180.00 1.10945 0.01
1 11 2 o 1.662 1.590 0.00 1.10829 0.00
4 6 4 o 0.019 0.015 180.00 1.10816 0.00
5 7 -2 o 10.297 1.516 180.00 1.10509 0.01
3 9 3 o 17.105 2.295 0.00 1.10473 0.01
5 3 4 o 35.954 4.838 0.00 1.10450 0.02
6 5 -1 o 19.352 2.835 0.00 1.10290 0.01
6 4 -2 o 10.287 1.564 180.00 1.10263 0.01
6 1 -3 o 117.517 25.038 0.00 1.10105 0.08
4 3 5 o 144.761 31.290 0.00 1.10102 0.09
0 5 6 o 45.206 13.398 180.00 1.09989 0.03
6 5 1 o 56.347 19.584 0.00 1.09948 0.04
5 7 2 o 0.267 0.089 0.00 1.09937 0.00
2 7 -5 o 1.704 5.048 180.00 1.09701 0.00
3 10 -2 o -0.029 1.208 180.00 1.09643 0.00
6 4 2 o -0.037 8.273 0.00 1.09582 0.00
5 6 -3 o -0.120 2.865 180.00 1.09531 0.00
3 0 -6 o -1.023 65.299 180.00 1.09468 0.00
2 10 -3 o -0.013 0.554 180.00 1.09453 0.00
3 10 2 o -0.226 9.564 0.00 1.09307 0.00
5 8 0 o -0.299 7.542 180.00 1.09303 0.00
4 8 -3 o -0.182 38.334 0.00 1.09299 0.00
2 7 5 o -0.432 50.632 0.00 1.09141 0.00
2 10 3 o -0.044 0.957 180.00 1.09119 0.00
6 1 3 o 0.024 0.258 0.00 1.09092 0.00
3 1 -6 o 0.005 0.255 0.00 1.09080 0.00
2 4 -6 o -0.080 15.514 180.00 1.09046 0.00
3 8 -4 o -0.096 18.237 180.00 1.09036 0.00
1 5 -6 o -0.353 10.061 180.00 1.08960 0.00
6 2 -3 o 0.013 1.680 180.00 1.08933 0.00
3 6 -5 o 0.018 0.113 0.00 1.08929 0.00
5 4 -4 o -0.014 1.329 180.00 1.08833 0.00
4 9 -2 o 0.035 19.777 0.00 1.08737 0.00
5 6 3 o -0.369 16.685 0.00 1.08698 0.00
4 8 3 o -0.004 0.303 180.00 1.08636 0.00
1 5 6 o 0.001 0.005 180.00 1.08630 0.00
4 4 -5 o 0.009 0.140 180.00 1.08500 0.00
3 0 6 o -0.081 4.904 0.00 1.08472 0.00
2 4 6 o -0.222 55.216 0.00 1.08387 0.00
3 8 4 o 0.145 3.777 180.00 1.08378 0.00
0 8 5 o 0.001 0.263 0.00 1.08374 0.00
4 9 2 o 0.032 1.802 180.00 1.08301 0.00
2 9 -4 o -0.019 0.367 180.00 1.08295 0.00
5 8 -1 o -0.007 4.859 0.00 1.08229 0.00
3 6 5 o -0.384 19.151 180.00 1.08110 0.00
3 1 6 o -0.004 0.008 180.00 1.08095 0.00
0 12 0 o -0.011 5.673 0.00 1.08053 0.00
5 8 1 o -0.039 7.046 0.00 1.07959 0.00
6 2 3 o 0.057 1.160 0.00 1.07952 0.00
3 2 -6 o -0.168 5.205 180.00 1.07940 0.00
2 9 4 o -0.267 26.436 180.00 1.07864 0.00
5 4 4 o -0.006 0.761 180.00 1.07748 0.00
2 11 -2 o -0.009 0.041 0.00 1.07438 0.00
4 4 5 o -0.122 4.424 0.00 1.07425 0.00
1 8 -5 o 0.002 0.476 0.00 1.07362 0.00
2 11 2 o 6.776 21.241 180.00 1.07227 0.00
6 6 0 o 0.157 0.299 0.00 1.07133 0.00
1 8 5 o 2.378 7.384 0.00 1.07099 0.00
6 3 -3 o -0.033 0.855 0.00 1.07060 0.00
3 2 6 o 0.012 0.551 180.00 1.06985 0.00
1 12 0 o -0.005 3.472 180.00 1.06919 0.00
0 12 1 o -0.108 2.898 180.00 1.06884 0.00
6 5 -2 o -0.294 12.779 0.00 1.06841 0.00
4 7 -4 o -0.209 19.569 0.00 1.06724 0.00
3 11 0 o 16.332 63.989 180.00 1.06360 0.01
6 5 2 o 23.857 22.426 180.00 1.06221 0.01
4 10 0 o 3.685 3.045 0.00 1.06188 0.00
6 6 -1 o 1.470 1.088 0.00 1.06147 0.00
6 3 3 o 1.805 1.323 0.00 1.06129 0.00
3 3 -6 o 3.318 2.371 180.00 1.06117 0.00
0 11 3 o 44.737 30.695 180.00 1.06049 0.03
4 7 4 o 13.703 9.958 0.00 1.05902 0.01
0 6 6 o 18.624 13.754 0.00 1.05879 0.01
6 6 1 o 9.282 7.114 0.00 1.05842 0.01
1 12 -1 o 31.152 24.605 180.00 1.05812 0.02
1 12 1 o 24.950 21.000 180.00 1.05762 0.01
7 0 0 o 70.078 60.780 180.00 1.05736 0.02
2 5 -6 o 38.427 33.405 0.00 1.05733 0.02
0 10 4 o 3.108 2.898 180.00 1.05639 0.00
5 5 -4 o 2.115 1.834 180.00 1.05539 0.00
7 1 0 o 4.943 3.981 0.00 1.05386 0.00
3 11 -1 o 5.587 5.091 180.00 1.05320 0.00
4 5 -5 o 0.371 0.471 0.00 1.05235 0.00
3 3 6 o 4.092 6.004 180.00 1.05210 0.00
4 10 -1 o 0.300 0.494 0.00 1.05177 0.00
3 11 1 o 0.682 1.179 0.00 1.05170 0.00
2 5 6 o 2.091 4.053 0.00 1.05132 0.00
1 11 -3 o 22.095 37.600 180.00 1.05051 0.01
4 10 1 o 0.807 1.031 0.00 1.04979 0.00
1 6 -6 o 1.287 1.505 180.00 1.04960 0.00
5 8 -2 o 1.747 1.901 0.00 1.04940 0.00
1 11 3 o 36.223 34.980 0.00 1.04903 0.02
5 7 -3 o 104.650 77.299 0.00 1.04779 0.06
1 10 -4 o 5.253 3.263 0.00 1.04677 0.00
1 6 6 o 19.100 11.308 180.00 1.04665 0.01
6 4 -3 o 17.159 8.848 0.00 1.04593 0.01
5 5 4 o 15.207 7.157 0.00 1.04548 0.01
1 10 4 o 23.680 10.230 180.00 1.04482 0.01
7 1 -1 o 95.544 40.752 180.00 1.04471 0.06
5 8 2 o 123.624 51.726 180.00 1.04450 0.07
7 2 0 o 59.137 23.811 180.00 1.04357 0.03
4 5 5 o 9.449 3.852 180.00 1.04253 0.01
3 7 -5 o 108.688 44.483 0.00 1.04252 0.06
2 8 -5 o 2.358 0.969 0.00 1.04247 0.00
7 1 1 o 1.023 0.446 0.00 1.04132 0.00
5 1 -5 o 81.437 36.791 180.00 1.04122 0.05
5 7 3 o 3.641 1.860 180.00 1.04049 0.00
3 10 -3 o 56.791 32.551 0.00 1.03991 0.03
0 1 7 o 94.644 65.407 0.00 1.03770 0.05
2 8 5 o 3.229 2.222 180.00 1.03766 0.00
6 4 3 o 0.029 0.015 180.00 1.03724 0.00
2 12 0 o 4.652 2.974 180.00 1.03722 0.00
3 4 -6 o 30.395 19.149 0.00 1.03713 0.02
0 12 2 o 2.845 1.529 0.00 1.03594 0.00
3 10 3 o 0.904 0.477 180.00 1.03562 0.00
3 7 5 o 6.122 3.187 0.00 1.03533 0.00
7 2 -1 o 1.024 0.519 180.00 1.03469 0.00
5 9 0 o 0.946 0.438 0.00 1.03245 0.00
4 9 -3 o 5.538 2.587 180.00 1.03241 0.00
7 2 1 o 93.843 43.368 180.00 1.03139 0.05
5 2 -5 o 156.389 72.782 0.00 1.03130 0.09
6 6 -2 o 0.688 0.350 0.00 1.03062 0.00
3 9 -4 o 19.047 9.589 0.00 1.03020 0.01
5 1 5 o 104.026 54.114 180.00 1.02937 0.06
1 1 -7 o 22.845 11.863 180.00 1.02928 0.01
3 4 6 o 19.861 10.089 180.00 1.02866 0.01
0 2 7 o 24.021 11.327 180.00 1.02787 0.01
2 12 -1 o 36.074 16.393 0.00 1.02733 0.02
7 3 0 o 0.182 0.070 180.00 1.02707 0.00
6 0 -4 o 50.497 22.722 0.00 1.02696 0.01
4 9 3 o 0.876 0.379 180.00 1.02682 0.00
6 7 0 o 10.644 4.795 0.00 1.02674 0.01
2 12 1 o 34.920 15.855 0.00 1.02641 0.02
1 12 -2 o 24.702 11.301 180.00 1.02640 0.01
1 1 7 o 5.276 2.431 0.00 1.02603 0.00
1 12 2 o 46.758 23.385 0.00 1.02547 0.03
6 6 2 o 48.781 26.119 0.00 1.02505 0.03
3 9 4 o 33.956 20.011 0.00 1.02464 0.02
0 9 5 o 27.840 16.444 0.00 1.02460 0.02
6 1 -4 o 18.854 14.557 0.00 1.02376 0.01
5 9 -1 o 0.009 0.009 0.00 1.02338 0.00
3 11 -2 o 7.527 10.871 0.00 1.02236 0.00
4 10 -2 o 3.978 9.233 0.00 1.02128 0.00
5 9 1 o 9.749 23.876 180.00 1.02110 0.01
2 11 -3 o 15.868 40.419 0.00 1.02082 0.01
4 0 -6 o 5.368 14.085 0.00 1.02077 0.00
2 6 -6 o 7.020 18.238 180.00 1.02066 0.00
5 2 5 o 6.342 15.299 0.00 1.01977 0.00
1 2 -7 o 2.308 5.610 180.00 1.01968 0.00
3 11 2 o 1.541 3.712 180.00 1.01963 0.00
5 6 -4 o 0.052 0.112 0.00 1.01891 0.00
7 0 -2 o 0.253 0.454 180.00 1.01862 0.00
7 3 -1 o 4.760 7.816 180.00 1.01860 0.00
2 11 3 o 1.510 1.946 0.00 1.01810 0.00
6 7 -1 o 0.304 0.383 0.00 1.01805 0.00
4 10 2 o 0.141 0.148 180.00 1.01766 0.00
4 1 -6 o 9.283 9.590 0.00 1.01762 0.01
2 10 -4 o 12.610 12.981 0.00 1.01761 0.01
4 8 -4 o 19.011 13.955 0.00 1.01682 0.01
6 5 -3 o 35.932 24.091 180.00 1.01659 0.02
1 2 7 o 5.027 3.278 0.00 1.01653 0.00
4 6 -5 o 15.644 9.230 180.00 1.01618 0.01
6 0 4 o 22.016 12.444 0.00 1.01603 0.01
1 9 -5 o 10.242 5.756 180.00 1.01604 0.01
0 7 6 o 11.273 5.823 180.00 1.01568 0.01
7 1 -2 o 10.637 5.303 180.00 1.01549 0.01
7 3 1 o 0.409 0.206 180.00 1.01545 0.00
5 3 -5 o 12.659 6.128 180.00 1.01536 0.01
6 7 1 o 80.567 39.008 0.00 1.01535 0.04
2 6 6 o 28.321 13.467 0.00 1.01525 0.02
6 2 -4 o 31.242 13.471 0.00 1.01432 0.02
2 10 4 o 14.616 6.320 0.00 1.01403 0.01
1 9 5 o 79.954 34.131 180.00 1.01381 0.04
6 1 4 o 30.868 13.851 180.00 1.01293 0.02
7 0 2 o 30.146 14.428 0.00 1.01235 0.01
0 3 7 o 0.036 0.018 180.00 1.01209 0.00
4 0 6 o 59.410 25.339 0.00 1.01003 0.02
5 6 4 o 85.858 35.960 0.00 1.00999 0.05
4 8 4 o 62.412 22.892 180.00 1.00971 0.03
7 1 2 o 46.494 13.876 180.00 1.00928 0.02
6 5 3 o 9.676 2.076 180.00 1.00861 0.01
3 5 -6 o 119.859 24.183 180.00 1.00851 0.06
4 2 -6 o 80.758 15.018 0.00 1.00835 0.04
1 7 -6 o 27.188 3.673 180.00 1.00756 0.01
4 6 5 o 5.417 0.667 0.00 1.00733 0.00
4 1 6 o 11.680 1.391 180.00 1.00698 0.01
7 2 -2 o 0.992 0.087 180.00 1.00627 0.00
7 4 0 o 10.113 1.053 180.00 1.00524 0.01
1 7 6 o 6.435 0.709 180.00 1.00495 0.00
5 3 5 o 10.958 1.433 0.00 1.00436 0.01
1 3 -7 o 3.509 0.453 180.00 1.00427 0.00
6 2 4 o 1.502 0.248 0.00 1.00378 0.00
2 1 -7 o 4.473 2.683 180.00 1.00216 0.00
1 3 7 o 20.421 18.061 180.00 1.00126 0.01
3 5 6 o 8.064 5.484 180.00 1.00071 0.00
7 2 2 o 6.743 3.361 0.00 1.00023 0.00
5 8 -3 o 11.358 4.889 180.00 0.99996 0.01
6 3 -4 o 52.763 16.076 0.00 0.99915 0.03
2 12 -2 o 0.495 0.124 0.00 0.99844 0.00
4 2 6 o 0.249 0.064 180.00 0.99800 0.00
7 4 -1 o 49.599 11.534 180.00 0.99729 0.03
2 12 2 o 2.926 0.696 180.00 0.99674 0.00
2 1 7 o 152.046 38.133 180.00 0.99619 0.08
5 9 -2 o 46.462 12.868 0.00 0.99544 0.02
3 8 -5 o 3.979 1.119 0.00 0.99537 0.00
7 4 1 o 12.763 3.962 180.00 0.99433 0.01
5 4 -5 o 50.191 15.986 0.00 0.99425 0.03
4 11 0 o 17.022 5.527 180.00 0.99417 0.01
5 8 3 o 43.011 14.355 180.00 0.99361 0.02
4 3 -6 o 14.830 5.022 0.00 0.99344 0.01
2 2 -7 o 3.106 1.035 0.00 0.99330 0.00
7 3 -2 o 1.395 0.477 180.00 0.99145 0.00
5 9 2 o 4.575 1.566 180.00 0.99125 0.00
0 4 7 o 132.827 45.599 180.00 0.99118 0.07
6 7 -2 o 0.582 0.194 0.00 0.99074 0.00
3 12 0 o 13.499 4.694 0.00 0.98977 0.01
0 11 4 o 38.470 13.310 180.00 0.98967 0.02
2 9 -5 o 20.068 7.002 180.00 0.98952 0.01
3 8 5 o 11.865 4.165 180.00 0.98911 0.01
6 3 4 o 58.275 20.315 180.00 0.98907 0.03
1 13 0 o 129.696 46.379 180.00 0.98848 0.07
0 13 1 o 18.469 6.684 0.00 0.98820 0.01
2 2 7 o 3.531 1.331 180.00 0.98749 0.00
0 12 3 o 19.443 7.320 180.00 0.98726 0.01
4 11 -1 o 5.439 2.260 0.00 0.98586 0.00
6 7 2 o 0.333 0.143 0.00 0.98579 0.00
7 3 2 o 95.101 40.371 180.00 0.98567 0.05
2 9 5 o 21.825 9.370 0.00 0.98541 0.01
4 11 1 o 1.630 0.677 0.00 0.98423 0.00
5 4 5 o 1.727 0.690 0.00 0.98391 0.00
6 6 -3 o 15.880 6.337 0.00 0.98387 0.01
1 4 -7 o 18.198 7.126 180.00 0.98383 0.01
4 3 6 o 0.124 0.038 0.00 0.98354 0.00
2 7 -6 o 12.548 3.528 0.00 0.98188 0.01
1 11 -4 o 28.015 7.837 0.00 0.98174 0.01
6 8 0 o 29.243 8.052 0.00 0.98162 0.01
3 12 -1 o 70.774 19.436 180.00 0.98137 0.04
1 4 7 o 41.589 11.469 0.00 0.98099 0.02
5 7 -4 o 30.300 9.234 180.00 0.98032 0.02
3 12 1 o 0.013 0.007 0.00 0.98016 0.00
1 11 4 o 21.186 6.660 0.00 0.98013 0.01
1 13 -1 o 29.097 10.637 180.00 0.97971 0.01
1 13 1 o 2.866 1.268 0.00 0.97930 0.00
1 12 -3 o 0.032 0.017 0.00 0.97919 0.00
7 5 0 o 49.378 23.964 180.00 0.97910 0.02
2 3 -7 o 9.179 4.638 0.00 0.97904 0.00
6 4 -4 o 1.688 0.876 180.00 0.97901 0.00
1 12 3 o 32.245 45.168 0.00 0.97799 0.02
4 7 -5 o 3.226 5.450 180.00 0.97789 0.00
2 7 6 o -0.022 1.008 0.00 0.97706 0.00
6 6 3 o -0.097 3.617 180.00 0.97663 0.00
3 6 -6 o -0.271 16.305 0.00 0.97654 0.00
3 11 -3 o -0.003 0.014 180.00 0.97608 0.00
5 10 0 o -0.059 1.095 180.00 0.97537 0.00
4 10 -3 o -0.121 5.040 180.00 0.97534 0.00
6 8 -1 o -0.013 3.085 0.00 0.97401 0.00
4 4 -6 o -0.024 5.100 0.00 0.97364 0.00
2 3 7 o 0.009 0.120 0.00 0.97347 0.00
3 10 -4 o -0.063 12.117 180.00 0.97347 0.00
3 11 3 o -0.048 1.648 0.00 0.97252 0.00
5 7 4 o -0.030 1.483 0.00 0.97237 0.00
0 8 6 o -0.217 11.070 0.00 0.97194 0.00
7 4 -2 o -0.001 0.169 0.00 0.97177 0.00
7 5 -1 o -0.067 7.402 0.00 0.97175 0.00
6 8 1 o -0.001 0.065 0.00 0.97165 0.00
7 1 -3 o 0.030 0.152 0.00 0.97088 0.00
4 10 3 o 0.049 0.103 180.00 0.97062 0.00
4 7 5 o 22.852 24.138 180.00 0.96999 0.01
6 4 4 o 7.041 6.880 180.00 0.96952 0.00
3 6 6 o 3.207 3.169 180.00 0.96945 0.00
7 5 1 o 5.296 6.385 180.00 0.96902 0.00
5 5 -5 o 0.673 0.857 180.00 0.96894 0.00
3 10 4 o 4.252 6.479 0.00 0.96878 0.00
0 10 5 o 0.125 0.197 0.00 0.96875 0.00
5 10 -1 o -0.268 22.545 0.00 0.96772 0.00
4 9 -4 o -0.046 3.390 180.00 0.96750 0.00
7 4 2 o 0.000 0.089 180.00 0.96632 0.00
0 5 7 o 0.002 3.342 180.00 0.96610 0.00
5 10 1 o 0.206 1.089 180.00 0.96579 0.00
1 8 -6 o 0.919 0.800 0.00 0.96481 0.00
4 4 6 o 29.246 20.109 180.00 0.96431 0.01
2 13 0 o 29.155 25.663 0.00 0.96305 0.01
7 2 -3 o 20.082 21.562 0.00 0.96281 0.01
7 1 3 o 7.352 8.287 0.00 0.96277 0.00
1 8 6 o 18.237 28.369 180.00 0.96252 0.01
0 13 2 o 0.172 1.728 180.00 0.96202 0.00
1 10 -5 o -0.026 0.489 0.00 0.96150 0.00
4 9 4 o -0.036 7.122 0.00 0.96137 0.00
4 11 -2 o 0.026 0.348 0.00 0.96062 0.00
3 1 -7 o -0.080 1.727 180.00 0.96049 0.00
2 4 -7 o 0.034 4.645 180.00 0.96007 0.00
1 10 5 o -0.025 0.672 0.00 0.95961 0.00
5 5 5 o -0.202 21.826 0.00 0.95937 0.00
1 5 -7 o 0.004 0.118 180.00 0.95929 0.00
4 11 2 o 20.523 28.973 0.00 0.95761 0.01
2 11 -4 o 9.132 12.568 180.00 0.95757 0.00
1 5 7 o 10.437 9.175 180.00 0.95666 0.00
3 12 -2 o 2.416 1.828 180.00 0.95627 0.00
2 13 -1 o 4.259 2.068 0.00 0.95512 0.00
2 12 -3 o 2.195 1.033 0.00 0.95501 0.00
7 2 3 o 13.552 6.067 0.00 0.95490 0.01
6 5 -4 o 4.983 2.154 180.00 0.95482 0.00
2 4 7 o 0.138 0.060 180.00 0.95482 0.00
2 11 4 o 2.744 1.075 180.00 0.95458 0.00
2 13 1 o 9.233 3.566 180.00 0.95437 0.00
1 13 -2 o 1.476 0.540 180.00 0.95436 0.00
3 12 2 o 4.602 1.666 180.00 0.95404 0.00
1 13 2 o 28.880 10.006 0.00 0.95362 0.01
5 9 -3 o 12.027 4.507 0.00 0.95294 0.01
2 12 3 o 8.600 3.377 180.00 0.95279 0.00
3 2 -7 o 19.067 7.892 0.00 0.95268 0.01
3 1 7 o 12.883 5.379 0.00 0.95263 0.01
6 8 -2 o -0.218 12.401 180.00 0.95001 0.00
4 5 -6 o -0.091 6.744 180.00 0.94984 0.00
7 3 -3 o 0.016 0.954 0.00 0.94981 0.00
7 6 0 o 0.000 0.033 0.00 0.94977 0.00
6 7 -3 o -0.518 36.391 180.00 0.94900 0.00
3 9 -5 o -0.235 19.337 0.00 0.94897 0.00
7 5 -2 o -0.009 11.609 0.00 0.94810 0.00
5 9 3 o -0.003 1.766 180.00 0.94745 0.00
6 5 4 o 0.003 0.163 180.00 0.94601 0.00
6 8 2 o -0.413 23.428 0.00 0.94565 0.00
3 2 7 o 0.028 1.469 0.00 0.94501 0.00
6 1 -5 o -0.079 4.482 0.00 0.94447 0.00
5 0 -6 o -0.151 9.988 180.00 0.94430 0.00
5 10 -2 o -0.001 0.011 0.00 0.94399 0.00
3 9 5 o -0.065 6.667 0.00 0.94354 0.00
7 6 -1 o -0.165 12.719 180.00 0.94306 0.00
7 5 2 o -0.091 7.528 180.00 0.94304 0.00
6 7 3 o 0.011 0.116 180.00 0.94249 0.00
3 7 -6 o -0.016 1.938 180.00 0.94241 0.00
7 3 3 o 0.716 4.138 0.00 0.94221 0.00
2 8 -6 o 0.174 0.946 180.00 0.94220 0.00
5 1 -6 o 0.984 1.006 0.00 0.94181 0.00
4 5 6 o 24.588 11.011 0.00 0.94117 0.01
5 8 -4 o 17.193 6.162 0.00 0.94082 0.01
7 6 1 o 2.107 0.716 0.00 0.94056 0.00
5 6 -5 o 3.763 1.226 180.00 0.94049 0.00
5 10 2 o 4.610 1.433 180.00 0.94041 0.00
3 3 -7 o 10.224 3.112 0.00 0.94007 0.00
2 10 -5 o 50.634 19.997 180.00 0.93893 0.02
4 8 -5 o 3.667 1.731 180.00 0.93866 0.00
2 8 6 o 0.847 0.920 0.00 0.93794 0.00
0 6 7 o 7.842 9.262 180.00 0.93789 0.00
2 5 -7 o -0.005 0.033 180.00 0.93723 0.00
6 2 -5 o -0.032 0.552 180.00 0.93704 0.00
6 9 0 o -0.035 2.047 180.00 0.93703 0.00
3 7 6 o -0.011 0.120 180.00 0.93604 0.00
2 10 5 o -0.379 36.264 180.00 0.93542 0.00
5 2 -6 o -0.144 13.129 180.00 0.93444 0.00
6 1 5 o 0.054 4.443 180.00 0.93385 0.00
5 8 4 o -0.160 9.118 0.00 0.93378 0.00
5 0 6 o 0.039 0.697 0.00 0.93369 0.00
4 12 0 o -0.006 1.223 0.00 0.93309 0.00
3 3 7 o -0.204 25.449 0.00 0.93271 0.00
7 4 -3 o -0.144 11.372 0.00 0.93246 0.00
2 5 7 o -0.161 16.384 0.00 0.93234 0.00
2 13 -2 o -0.062 3.340 0.00 0.93176 0.00
5 6 5 o 0.002 0.751 180.00 0.93172 0.00
4 8 5 o -0.011 1.723 0.00 0.93168 0.00
1 6 -7 o -0.118 5.505 180.00 0.93165 0.00
5 1 6 o -0.041 4.563 180.00 0.93128 0.00
6 9 -1 o -0.005 0.356 180.00 0.93041 0.00
2 13 2 o -0.007 3.730 180.00 0.93038 0.00
0 12 4 o -0.043 12.493 180.00 0.92936 0.00
1 6 7 o -0.084 4.541 0.00 0.92925 0.00
0 9 6 o -0.009 0.449 0.00 0.92860 0.00
6 9 1 o -0.213 8.765 0.00 0.92835 0.00
6 6 -4 o -0.250 20.496 180.00 0.92756 0.00
6 2 5 o -0.007 0.044 180.00 0.92667 0.00
4 12 -1 o 0.011 6.877 0.00 0.92621 0.00
0 14 0 o -0.317 26.279 0.00 0.92617 0.00
7 4 3 o 0.018 2.994 180.00 0.92527 0.00
8 0 0 o -0.261 16.896 0.00 0.92519 0.00
6 3 -5 o -0.002 0.028 0.00 0.92504 0.00
4 12 1 o -0.034 0.395 0.00 0.92485 0.00
3 13 0 o 2.540 8.278 180.00 0.92470 0.00
5 2 6 o 1.584 0.919 0.00 0.92416 0.00
3 4 -7 o 5.745 1.648 0.00 0.92324 0.00
4 6 -6 o 6.642 1.794 180.00 0.92299 0.00
8 1 0 o 32.560 8.834 0.00 0.92285 0.01
1 12 -4 o 5.416 1.475 0.00 0.92279 0.00
0 13 3 o 5.385 1.460 180.00 0.92266 0.00
5 3 -6 o 37.413 10.197 0.00 0.92254 0.02
1 9 -6 o 4.222 1.207 180.00 0.92238 0.00
5 11 0 o 36.449 10.950 0.00 0.92212 0.02
4 11 -3 o 1.957 0.593 0.00 0.92209 0.00
1 12 4 o 1.846 0.737 180.00 0.92145 0.00
7 6 -2 o 1.335 0.531 0.00 0.92139 0.00
3 11 -4 o 0.122 0.080 0.00 0.92052 0.00
1 9 6 o 1.184 0.908 0.00 0.92038 0.00
4 10 -4 o 0.153 0.148 180.00 0.92006 0.00
6 6 4 o 1.791 3.448 180.00 0.91948 0.00
7 0 -4 o 0.112 0.566 0.00 0.91911 0.00
1 14 0 o 0.485 7.711 180.00 0.91900 0.00
0 14 1 o 0.042 18.735 0.00 0.91878 0.00
7 7 0 o -0.046 2.191 180.00 0.91829 0.00
4 11 3 o -0.042 3.748 180.00 0.91810 0.00
3 12 -3 o -0.108 4.153 0.00 0.91808 0.00
3 13 -1 o -0.048 3.909 0.00 0.91784 0.00
8 1 -1 o -0.536 41.829 0.00 0.91685 0.00
3 13 1 o -0.006 2.039 180.00 0.91685 0.00
7 1 -4 o -0.059 4.370 0.00 0.91681 0.00
7 6 2 o -0.053 1.445 180.00 0.91675 0.00
3 11 4 o -0.204 19.688 0.00 0.91654 0.00
0 11 5 o -0.064 4.181 0.00 0.91652 0.00
3 4 7 o -0.039 1.011 180.00 0.91626 0.00
1 13 -3 o 0.001 0.011 180.00 0.91606 0.00
8 2 0 o -0.115 6.709 0.00 0.91591 0.00
5 11 -1 o 0.036 0.190 0.00 0.91564 0.00
3 12 3 o 5.702 9.610 180.00 0.91512 0.00
6 3 5 o 0.706 1.106 180.00 0.91506 0.00
1 13 3 o 0.205 0.330 0.00 0.91508 0.00
4 6 6 o 0.832 1.273 180.00 0.91503 0.00
4 10 4 o 2.062 2.573 180.00 0.91478 0.00
8 1 1 o 1.615 1.545 180.00 0.91422 0.00
5 11 1 o 0.535 0.485 0.00 0.91401 0.00
6 8 -3 o 5.579 4.506 180.00 0.91302 0.00
5 3 6 o 8.950 7.098 180.00 0.91264 0.00
7 7 -1 o 9.401 7.406 0.00 0.91221 0.00
1 14 -1 o 7.695 6.082 180.00 0.91194 0.00
1 14 1 o 1.379 1.111 180.00 0.91162 0.00
7 5 -3 o 0.000 0.000 180.00 0.91149 0.00
2 6 -7 o 2.639 2.173 180.00 0.91140 0.00
0 0 8 o 3.275 2.888 0.00 0.91091 0.00
1 11 -5 o 3.858 3.876 0.00 0.91038 0.00
8 2 -1 o 1.000 1.113 180.00 0.91005 0.00
7 2 -4 o 0.007 0.008 0.00 0.91001 0.00
7 0 4 o 22.729 26.160 0.00 0.90996 0.00
7 7 1 o 7.789 8.984 180.00 0.90995 0.00
5 7 -5 o 0.569 0.665 180.00 0.90989 0.00
4 1 -7 o 0.005 0.006 180.00 0.90956 0.00
6 9 -2 o 2.272 3.229 180.00 0.90942 0.00
6 4 -5 o 2.836 4.966 180.00 0.90899 0.00
1 11 5 o 3.522 6.869 180.00 0.90877 0.00
0 1 8 o 1.530 3.161 180.00 0.90867 0.00
6 9 2 o -0.046 7.381 0.00 0.90559 0.00
1 0 -8 o -0.579 48.935 180.00 0.90535 0.00
4 12 -2 o 0.003 0.112 0.00 0.90518 0.00
7 1 4 o 0.065 0.348 0.00 0.90772 0.00
7 5 3 o 0.003 0.023 180.00 0.90477 0.00
0 7 7 o 0.127 0.898 0.00 0.90753 0.00
5 10 -3 o 0.048 0.253 180.00 0.90751 0.00
8 2 1 o 2.653 20.790 0.00 0.90748 0.00
8 3 0 o 2.519 10.899 0.00 0.90470 0.00
6 8 3 o 0.011 0.201 180.00 0.90723 0.00
3 8 -6 o 0.166 10.678 0.00 0.90715 0.00
2 6 7 o -0.008 1.810 180.00 0.90691 0.00
3 10 -5 o 3.761 7.368 0.00 0.90408 0.00
5 4 -6 o -0.026 4.299 180.00 0.90662 0.00
1 1 -8 o 0.279 0.321 180.00 0.90315 0.00
4 2 -7 o 4.196 4.375 180.00 0.90292 0.00
3 5 -7 o 18.838 19.278 0.00 0.90287 0.01
1 0 8 o 7.607 7.637 0.00 0.90283 0.00
5 10 3 o 6.559 6.401 180.00 0.90276 0.00
4 12 2 o 5.577 5.214 180.00 0.90266 0.00
2 12 -4 o 8.631 7.958 0.00 0.90263 0.00
2 9 -6 o 0.005 0.004 180.00 0.90256 0.00
0 2 8 o 15.542 10.955 0.00 0.90205 0.01
5 7 5 o 11.301 7.543 0.00 0.90194 0.00
1 7 -7 o 0.194 0.123 0.00 0.90188 0.00
3 8 6 o 2.049 1.083 180.00 0.90147 0.00
5 9 -4 o 5.727 2.893 180.00 0.90135 0.00
7 2 4 o 32.015 14.612 0.00 0.90112 0.01
4 1 7 o 14.741 5.736 180.00 0.90069 0.01
1 1 8 o 1.281 0.486 0.00 0.90065 0.00
2 12 4 o 1.680 0.579 0.00 0.90012 0.00
1 7 7 o 0.293 0.089 180.00 0.89969 0.00
6 4 5 o 19.439 6.475 180.00 0.89952 0.01
4 9 -5 o 0.960 0.307 180.00 0.89945 0.00
3 10 5 o 14.804 4.998 0.00 0.89938 0.01
8 0 -2 o 40.096 13.914 0.00 0.89921 0.01
8 3 -1 o 27.761 10.016 0.00 0.89904 0.01
7 3 -4 o 14.024 5.074 0.00 0.89900 0.01
2 9 6 o 1.549 0.597 180.00 0.89881 0.00
2 14 0 o 3.079 1.383 180.00 0.89846 0.00
6 7 -4 o 1.310 0.683 180.00 0.89816 0.00
0 14 2 o 1.475 1.102 180.00 0.89762 0.00
5 4 6 o 1.154 1.141 0.00 0.89722 0.00
3 13 -2 o 1.298 1.283 0.00 0.89721 0.00
8 1 -2 o 0.248 0.270 180.00 0.89706 0.00
1 2 -8 o 10.229 12.765 180.00 0.89665 0.00
8 3 1 o 0.034 0.042 0.00 0.89657 0.00
3 5 7 o 0.181 0.217 0.00 0.89634 0.00
2 13 -3 o 1.234 1.398 180.00 0.89617 0.00
5 11 -2 o 0.003 0.001 0.00 0.89547 0.00
3 13 2 o 1.985 1.350 180.00 0.89537 0.00
5 9 4 o 6.655 3.989 180.00 0.89515 0.00
2 13 3 o 1.188 0.481 0.00 0.89434 0.00
8 0 2 o 21.470 8.554 180.00 0.89428 0.00
4 2 7 o 26.611 10.447 0.00 0.89424 0.01
1 2 8 o 1.282 0.499 0.00 0.89420 0.00
4 7 -6 o 6.945 2.554 180.00 0.89401 0.00
6 10 0 o 8.815 3.020 0.00 0.89374 0.00
4 9 5 o 8.820 2.761 180.00 0.89330 0.00
7 7 -2 o 0.050 0.014 0.00 0.89256 0.00
5 11 2 o 13.017 3.510 180.00 0.89241 0.01
8 1 2 o 2.536 0.666 180.00 0.89216 0.00
4 3 -7 o 14.287 3.712 180.00 0.89217 0.01
2 14 -1 o 113.189 28.018 0.00 0.89201 0.05
2 14 1 o 5.363 1.128 180.00 0.89140 0.00
1 14 -2 o 6.889 1.403 0.00 0.89140 0.00
0 3 8 o 60.070 11.920 180.00 0.89133 0.02
2 11 -5 o 7.789 1.459 180.00 0.89115 0.00
6 7 4 o 7.849 1.273 180.00 0.89082 0.00
1 14 2 o 4.111 0.652 180.00 0.89079 0.00
8 2 -2 o 50.993 7.860 0.00 0.89068 0.02
7 3 4 o 54.240 7.546 0.00 0.89044 0.02
8 4 0 o 13.766 1.424 0.00 0.88966 0.01
6 5 -5 o 3.780 0.377 0.00 0.88953 0.00
7 7 2 o 0.028 0.002 180.00 0.88834 0.00
2 11 5 o 3.013 0.196 0.00 0.88814 0.00
6 10 -1 o 40.887 2.590 180.00 0.88799 0.02
7 6 -3 o 20.776 1.268 0.00 0.88768 0.01
5 5 -6 o 242.777 14.456 0.00 0.88731 0.10
2 0 -8 o 132.500 7.826 0.00 0.88688 0.03
4 7 6 o 59.292 3.540 0.00 0.88677 0.02
0 10 6 o 11.668 0.706 0.00 0.88641 0.00
6 10 1 o 2.346 0.147 180.00 0.88620 0.00
1 3 -8 o 147.029 9.580 180.00 0.88612 0.06
8 2 2 o 42.681 2.903 180.00 0.88589 0.02
7 8 0 o 10.387 0.778 0.00 0.88558 0.00
2 1 -8 o 3.599 0.355 180.00 0.88482 0.00
8 4 -1 o 28.810 3.661 0.00 0.88429 0.01
7 4 -4 o 2.014 0.260 0.00 0.88425 0.00
4 3 7 o 20.126 3.263 180.00 0.88379 0.01
1 3 8 o 2.204 0.343 0.00 0.88375 0.00
2 7 -7 o 67.386 12.621 180.00 0.88347 0.03
2 0 8 o 6.833 1.955 180.00 0.88215 0.00
8 4 1 o 39.284 11.776 0.00 0.88193 0.02
7 6 3 o 15.737 5.005 180.00 0.88147 0.01
1 10 -6 o 0.111 0.035 180.00 0.88100 0.00
6 5 5 o 0.115 0.037 0.00 0.88065 0.00
8 3 -2 o 2.511 0.728 180.00 0.88036 0.00
7 8 -1 o 0.523 0.148 180.00 0.88013 0.00
2 1 8 o 1.628 0.455 180.00 0.88012 0.00
3 6 -7 o 1.057 0.270 0.00 0.87972 0.00
2 7 7 o 56.835 13.584 0.00 0.87938 0.02
1 10 6 o 20.342 4.707 180.00 0.87925 0.01
2 2 -8 o 14.450 2.953 0.00 0.87870 0.01
5 5 6 o 3.181 0.615 180.00 0.87849 0.00
7 8 1 o 2.686 0.488 180.00 0.87809 0.00
5 8 -5 o 0.454 0.082 180.00 0.87804 0.00
4 13 0 o 5.083 0.892 0.00 0.87798 0.00
4 4 -7 o 0.051 0.005 180.00 0.87774 0.00
0 4 8 o 43.217 6.333 0.00 0.87694 0.02
6 9 -3 o 75.208 10.696 180.00 0.87682 0.03
7 4 4 o 0.709 0.093 0.00 0.87609 0.00
0 8 7 o 12.011 1.586 0.00 0.87592 0.00
8 3 2 o 18.745 2.398 0.00 0.87573 0.01
4 11 -4 o 11.095 1.460 180.00 0.87497 0.00
0 13 4 o 0.021 0.002 180.00 0.87488 0.00
2 2 8 o 68.344 10.626 180.00 0.87410 0.03
3 6 7 o 33.386 5.791 180.00 0.87367 0.01
2 14 -2 o 0.224 0.052 0.00 0.87290 0.00
5 12 0 o 4.228 0.943 0.00 0.87276 0.00
4 12 -3 o 88.829 19.703 180.00 0.87273 0.03
4 13 -1 o 20.050 4.823 180.00 0.87225 0.01
1 4 -8 o 1.370 0.340 0.00 0.87198 0.00
2 14 2 o 11.842 2.906 0.00 0.87176 0.00
6 9 3 o 41.911 10.346 0.00 0.87168 0.02
3 9 -6 o 31.575 7.825 0.00 0.87161 0.01
8 5 0 o 2.394 0.609 180.00 0.87140 0.00
3 12 -4 o 1.352 0.335 0.00 0.87139 0.00
4 13 1 o 0.966 0.232 180.00 0.87111 0.00
5 8 5 o 1.719 0.414 0.00 0.87089 0.00
1 8 -7 o 1.087 0.259 180.00 0.87084 0.00
6 0 -6 o 19.203 4.529 0.00 0.87050 0.00
4 11 4 o 9.045 2.129 180.00 0.87042 0.00
4 4 7 o 31.717 7.146 0.00 0.86976 0.01
1 4 8 o 15.230 3.470 180.00 0.86973 0.01
6 10 -2 o 69.681 15.777 180.00 0.86969 0.03
1 13 -4 o 12.698 2.836 0.00 0.86939 0.00
4 12 3 o 3.039 0.659 0.00 0.86935 0.00
1 8 7 o 1.423 0.306 0.00 0.86887 0.00
2 3 -8 o 7.158 1.518 180.00 0.86878 0.00
6 1 -6 o 62.616 12.989 180.00 0.86854 0.02
1 13 4 o 33.574 6.656 0.00 0.86827 0.01
3 12 4 o 0.105 0.020 0.00 0.86802 0.00
0 12 5 o 0.135 0.027 180.00 0.86800 0.00
6 8 -4 o 31.820 5.615 180.00 0.86749 0.01
6 6 -5 o 13.415 2.322 180.00 0.86736 0.01
5 12 -1 o 20.865 3.555 0.00 0.86726 0.01
3 14 0 o 32.791 5.510 0.00 0.86708 0.01
3 9 6 o 10.098 1.610 180.00 0.86657 0.00
8 4 -2 o 0.508 0.080 180.00 0.86649 0.00
8 5 -1 o 0.165 0.024 180.00 0.86634 0.00
6 10 2 o 109.237 16.706 0.00 0.86633 0.04
7 5 -4 o 2.501 0.405 180.00 0.86631 0.00
8 1 -3 o 1.063 0.154 0.00 0.86600 0.00
5 12 1 o 10.887 1.595 180.00 0.86587 0.00
3 13 -3 o 0.935 0.134 0.00 0.86545 0.00
0 14 3 o 29.831 4.265 180.00 0.86540 0.01
5 6 -6 o 2.867 0.409 0.00 0.86530 0.00
2 3 8 o 9.259 1.451 180.00 0.86433 0.00
5 11 -3 o 0.556 0.097 180.00 0.86415 0.00
8 5 1 o 2.248 0.381 0.00 0.86413 0.00
4 8 -6 o 70.918 13.895 180.00 0.86374 0.03
2 10 -6 o 0.784 0.153 180.00 0.86368 0.00
3 13 3 o 0.444 0.169 0.00 0.86296 0.00
1 12 -5 o 6.017 2.883 0.00 0.86278 0.00
6 2 -6 o 5.914 2.974 0.00 0.86275 0.00
5 10 -4 o 0.908 0.580 0.00 0.86262 0.00
7 8 -2 o 1.175 1.211 0.00 0.86244 0.00
8 4 2 o 0.000 0.039 0.00 0.86208 0.00
7 7 -3 o -0.083 3.002 0.00 0.86181 0.00
3 14 -1 o -0.002 0.011 180.00 0.86142 0.00
1 12 5 o -0.048 2.139 0.00 0.86141 0.00
3 11 -5 o 0.003 0.095 180.00 0.86119 0.00
4 10 -5 o 0.005 0.526 0.00 0.86096 0.00
6 8 4 o -0.010 1.274 180.00 0.86087 0.00
3 14 1 o -0.074 3.165 180.00 0.86060 0.00
6 0 6 o 0.074 5.357 180.00 0.86052 0.00
2 10 6 o -0.068 3.069 0.00 0.86039 0.00
8 2 -3 o -0.021 0.406 180.00 0.86026 0.00
4 5 -7 o -0.015 1.123 180.00 0.86018 0.00
5 11 3 o -0.024 5.829 180.00 0.86005 0.00
1 14 -3 o -0.014 0.697 180.00 0.85995 0.00
8 1 3 o 0.555 9.410 180.00 0.85941 0.00
0 5 8 o 0.119 4.043 180.00 0.85943 0.00
6 6 5 o 1.820 4.195 180.00 0.85912 0.00
1 14 3 o 0.185 0.470 0.00 0.85913 0.00
7 1 -5 o 1.746 2.012 0.00 0.85869 0.00
6 1 6 o 1.884 2.063 0.00 0.85864 0.00
7 5 4 o 9.469 10.340 0.00 0.85863 0.00
7 8 2 o 11.750 12.774 180.00 0.85863 0.00
1 15 0 o 24.454 25.750 180.00 0.85859 0.01
0 15 1 o 1.498 1.398 0.00 0.85840 0.00
3 0 -8 o 0.143 0.112 0.00 0.85774 0.00
4 8 6 o 0.875 0.655 0.00 0.85721 0.00
5 10 4 o 0.775 0.581 180.00 0.85718 0.00
3 11 5 o 0.033 0.024 180.00 0.85713 0.00
5 6 6 o 2.798 2.066 0.00 0.85711 0.00
7 7 3 o 1.488 1.061 180.00 0.85613 0.00
3 1 -8 o 0.001 0.000 180.00 0.85587 0.00
4 10 5 o 7.812 5.713 0.00 0.85555 0.00
2 4 -8 o 0.535 0.396 0.00 0.85544 0.00
1 5 -8 o 12.076 11.325 180.00 0.85476 0.00
4 13 -2 o 3.060 3.174 180.00 0.85462 0.00
3 7 -7 o 6.473 7.287 0.00 0.85452 0.00
5 1 -7 o 1.026 1.401 0.00 0.85434 0.00
2 8 -7 o 2.707 4.305 0.00 0.85423 0.00
8 2 3 o 0.011 0.042 180.00 0.85380 0.00
6 3 -6 o -0.282 23.630 180.00 0.85336 0.00
7 2 -5 o 0.051 6.901 180.00 0.85310 0.00
6 2 6 o 0.011 0.206 180.00 0.85304 0.00
1 15 -1 o -0.043 4.724 180.00 0.85282 0.00
4 5 7 o -0.005 1.315 180.00 0.85267 0.00
1 5 8 o -0.041 0.884 0.00 0.85263 0.00
1 15 1 o -0.029 0.497 180.00 0.85256 0.00
4 13 2 o -0.134 7.316 0.00 0.85249 0.00
2 13 -4 o -0.061 2.327 180.00 0.85246 0.00
7 9 0 o -0.037 3.038 0.00 0.85242 0.00
6 11 0 o -0.082 3.775 180.00 0.85223 0.00
3 0 8 o 4.347 7.307 0.00 0.85134 0.00
2 4 8 o 3.511 4.397 180.00 0.85120 0.00
8 3 -3 o 1.608 1.431 180.00 0.85095 0.00
8 6 0 o 1.820 1.157 0.00 0.85052 0.00
2 8 7 o 1.109 0.701 180.00 0.85052 0.00
2 13 4 o 6.957 4.030 180.00 0.85036 0.00
3 2 -8 o 0.451 0.259 180.00 0.85033 0.00
5 12 -2 o 3.235 1.764 0.00 0.85006 0.00
8 5 -2 o 0.000 0.000 0.00 0.84958 0.00
3 1 8 o 0.205 0.124 180.00 0.84952 0.00
7 1 5 o 16.124 10.576 0.00 0.84938 0.01
3 7 7 o 14.825 14.698 180.00 0.84898 0.01
5 2 -7 o 1.621 2.062 180.00 0.84883 0.00
7 9 -1 o 0.017 0.554 180.00 0.84756 0.00
5 12 2 o -0.007 0.712 180.00 0.84744 0.00
6 11 -1 o -0.007 1.093 180.00 0.84724 0.00
2 12 -5 o 22.481 14.013 180.00 0.84636 0.01
0 11 6 o 4.453 1.432 0.00 0.84588 0.00
8 6 -1 o 7.850 2.427 0.00 0.84582 0.00
7 6 -4 o 14.988 4.486 0.00 0.84579 0.01
7 9 1 o 13.548 3.889 180.00 0.84574 0.00
5 9 -5 o 0.195 0.059 180.00 0.84569 0.00
6 11 1 o 11.377 3.122 0.00 0.84569 0.00
8 5 2 o 93.402 21.721 0.00 0.84542 0.03
5 1 7 o 10.838 2.290 0.00 0.84517 0.00
8 3 3 o 17.809 3.450 180.00 0.84470 0.01
3 14 -2 o 1.861 0.399 180.00 0.84430 0.00
3 2 8 o 17.700 3.942 0.00 0.84410 0.01
7 3 -5 o 3.483 0.820 0.00 0.84401 0.00
7 2 5 o 0.072 0.015 0.00 0.84396 0.00
6 3 6 o 13.144 3.220 0.00 0.84396 0.00
0 9 7 o 3.694 1.010 0.00 0.84380 0.00
2 12 5 o 46.330 12.860 180.00 0.84378 0.02
8 6 1 o 4.574 1.277 0.00 0.84376 0.00
2 14 -3 o 3.353 1.443 180.00 0.84343 0.00
6 7 -5 o 0.258 0.201 0.00 0.84319 0.00
3 14 2 o -0.011 0.323 180.00 0.84276 0.00
2 14 3 o -0.031 1.527 180.00 0.84190 0.00
2 15 0 o -0.022 0.730 0.00 0.84176 0.00
3 3 -8 o -0.088 4.698 0.00 0.84134 0.00
5 7 -6 o -0.021 1.081 0.00 0.84129 0.00
1 11 -6 o -0.021 0.317 0.00 0.84117 0.00
0 15 2 o -0.008 0.219 180.00 0.84108 0.00
6 10 -3 o -0.009 1.243 180.00 0.84104 0.00
6 4 -6 o -0.005 0.554 0.00 0.84071 0.00
4 6 -7 o 0.011 0.177 0.00 0.84009 0.00
5 3 -7 o 0.000 0.077 180.00 0.83988 0.00
5 2 7 o -0.161 15.179 180.00 0.83983 0.00
1 11 6 o -0.013 4.494 0.00 0.83965 0.00
0 6 8 o -0.015 1.034 180.00 0.83939 0.00
5 9 5 o -0.077 2.757 0.00 0.83930 0.00
1 9 -7 o -0.070 5.649 0.00 0.83925 0.00
2 5 -8 o -0.001 0.009 180.00 0.83917 0.00
7 6 4 o 3.187 2.555 180.00 0.83864 0.00
8 4 -3 o 29.794 14.892 180.00 0.83840 0.01
1 9 7 o 19.535 3.364 180.00 0.83749 0.01
6 10 3 o 18.745 1.537 0.00 0.83650 0.01
2 15 -1 o 10.708 0.880 0.00 0.83645 0.00
3 10 -6 o 56.184 4.478 0.00 0.83645 0.02
6 9 -4 o 10.014 0.725 0.00 0.83625 0.00
2 15 1 o 1.996 0.120 0.00 0.83595 0.00
1 15 -2 o 60.307 3.888 0.00 0.83595 0.02
6 7 5 o 13.175 0.736 180.00 0.83561 0.00
1 15 2 o 61.498 3.405 0.00 0.83545 0.02
3 3 8 o 0.018 0.001 180.00 0.83529 0.00
7 3 5 o 8.259 0.440 0.00 0.83516 0.00
2 5 8 o 1.339 0.066 180.00 0.83515 0.00
1 6 -8 o 9.607 0.496 0.00 0.83504 0.00
7 8 -3 o 1.756 0.095 0.00 0.83461 0.00
5 7 6 o 2.792 0.188 180.00 0.83376 0.00
4 6 7 o 41.455 4.040 0.00 0.83308 0.01
1 6 8 o 40.690 4.087 180.00 0.83305 0.01
4 9 -6 o 1.918 0.215 180.00 0.83290 0.00
4 12 -4 o 1.215 0.186 180.00 0.83246 0.00
8 4 3 o 5.446 0.868 180.00 0.83242 0.00
3 10 6 o 1.663 0.359 180.00 0.83198 0.00
7 4 -5 o 0.055 0.011 0.00 0.83177 0.00
7 9 -2 o 11.992 3.155 180.00 0.83173 0.00
6 4 6 o 0.729 0.193 0.00 0.83172 0.00
6 11 -2 o 2.773 0.960 180.00 0.83130 0.00
5 3 7 o 0.842 0.329 180.00 0.83116 0.00
6 9 4 o 0.784 1.202 180.00 0.83032 0.00
8 6 -2 o 1.476 5.127 180.00 0.83021 0.00
7 8 3 o -0.005 1.510 0.00 0.82944 0.00
3 4 -8 o 0.000 0.008 180.00 0.82921 0.00
8 0 -4 o -0.020 1.206 180.00 0.82878 0.00
4 12 4 o -0.004 1.283 0.00 0.82854 0.00
6 11 2 o -0.005 0.155 0.00 0.82837 0.00
7 9 2 o -0.002 0.247 0.00 0.82831 0.00
4 14 0 o -0.038 1.626 180.00 0.82821 0.00
3 8 -7 o -0.001 0.113 0.00 0.82798 0.00
5 4 -7 o -0.052 1.449 0.00 0.82781 0.00
8 7 0 o 0.007 0.772 180.00 0.82769 0.00
5 13 0 o -0.053 5.778 0.00 0.82717 0.00
4 13 -3 o -0.019 3.884 0.00 0.82715 0.00
8 1 -4 o -0.045 4.344 180.00 0.82709 0.00
4 9 6 o 0.001 0.004 0.00 0.82704 0.00
8 6 2 o -0.009 0.436 0.00 0.82632 0.00
2 11 -6 o -0.010 0.107 180.00 0.82605 0.00
3 13 -4 o -0.023 0.297 0.00 0.82601 0.00
0 14 4 o -0.038 1.790 180.00 0.82560 0.00
6 5 -6 o -0.030 0.628 180.00 0.82524 0.00
5 11 -4 o -0.009 0.897 0.00 0.82512 0.00
2 9 -7 o -0.102 5.140 180.00 0.82436 0.00
4 13 3 o -0.013 0.893 0.00 0.82426 0.00
4 11 -5 o -0.018 1.044 180.00 0.82367 0.00
3 4 8 o -0.008 0.978 0.00 0.82342 0.00
4 14 -1 o 0.001 0.096 0.00 0.82339 0.00
8 7 -1 o -0.074 3.840 180.00 0.82336 0.00
7 7 -4 o 0.000 0.001 180.00 0.82333 0.00
7 4 5 o -0.106 5.132 0.00 0.82329 0.00
2 11 6 o -0.034 2.055 180.00 0.82318 0.00
3 13 4 o -0.020 0.695 0.00 0.82313 0.00
5 12 -3 o -0.041 1.639 0.00 0.82313 0.00
0 13 5 o -0.034 3.034 180.00 0.82312 0.00
8 5 -3 o -0.011 1.041 180.00 0.82306 0.00
3 8 7 o -0.010 1.651 180.00 0.82293 0.00
5 13 -1 o 0.001 0.003 180.00 0.82248 0.00
4 14 1 o 0.113 0.484 0.00 0.82244 0.00
9 0 0 o 0.021 0.086 180.00 0.82239 0.00
8 2 -4 o 0.980 1.300 180.00 0.82209 0.00
8 7 1 o 2.339 1.652 0.00 0.82145 0.00
5 13 1 o 5.714 3.786 0.00 0.82130 0.00
8 0 4 o 17.493 11.111 180.00 0.82110 0.00
2 9 7 o 7.215 4.550 0.00 0.82103 0.00
4 0 -8 o 0.447 0.282 180.00 0.82101 0.00
1 14 -4 o 0.023 0.014 0.00 0.82099 0.00
9 1 0 o 0.250 0.163 180.00 0.82074 0.00
2 15 -2 o 0.691 0.465 0.00 0.82063 0.00
3 12 -5 o 7.621 5.264 0.00 0.82057 0.00
2 6 -8 o 0.017 0.013 0.00 0.82048 0.00
5 11 4 o 7.131 5.518 180.00 0.82037 0.00
1 14 4 o 2.829 2.945 0.00 0.82004 0.00
2 15 2 o 0.145 0.278 0.00 0.81969 0.00
5 12 3 o 0.064 0.148 0.00 0.81958 0.00
8 1 4 o 0.031 0.134 0.00 0.81946 0.00
5 4 7 o 1.929 9.272 180.00 0.81946 0.00
7 10 0 o 0.006 0.032 180.00 0.81944 0.00
4 1 -8 o 0.125 1.406 180.00 0.81937 0.00
4 11 5 o -0.002 0.012 180.00 0.81894 0.00
1 13 -5 o -0.046 5.642 0.00 0.81866 0.00
4 7 -7 o -0.003 0.021 180.00 0.81806 0.00
3 14 -3 o -0.016 0.415 0.00 0.81767 0.00
6 8 -5 o -0.001 0.253 0.00 0.81765 0.00
1 13 5 o 0.001 0.032 180.00 0.81749 0.00
8 5 3 o -0.005 0.269 0.00 0.81740 0.00
0 7 8 o -0.006 0.171 180.00 0.81742 0.00
3 12 5 o -0.114 6.877 0.00 0.81705 0.00
7 5 -5 o 0.000 0.036 0.00 0.81678 0.00
6 5 6 o -0.004 0.184 180.00 0.81673 0.00
7 7 4 o -0.010 0.411 0.00 0.81673 0.00
2 6 8 o -0.067 6.171 0.00 0.81673 0.00
9 1 -1 o -0.104 6.327 180.00 0.81663 0.00
5 8 -6 o -0.002 0.012 0.00 0.81592 0.00
9 2 0 o -0.015 0.274 180.00 0.81586 0.00
3 15 0 o 0.008 0.314 0.00 0.81580 0.00
3 14 3 o 0.000 0.054 0.00 0.81557 0.00
7 10 -1 o -0.041 2.649 0.00 0.81512 0.00
8 2 4 o -0.083 5.178 180.00 0.81460 0.00
9 1 1 o 0.016 0.747 0.00 0.81455 0.00
4 2 -8 o -0.009 0.758 180.00 0.81450 0.00
0 15 3 o 0.004 0.102 0.00 0.81439 0.00
3 5 -8 o -0.146 12.406 0.00 0.81435 0.00
8 3 -4 o -0.140 10.175 180.00 0.81395 0.00
4 0 8 o -0.094 5.460 180.00 0.81354 0.00
7 10 1 o 0.002 0.022 180.00 0.81350 0.00
5 10 -5 o -0.010 0.639 180.00 0.81346 0.00
1 7 -8 o 0.001 0.069 0.00 0.81340 0.00
5 5 -7 o -0.016 3.042 180.00 0.81303 0.00
6 12 0 o -0.003 1.713 180.00 0.81281 0.00
4 1 8 o 0.943 1.988 0.00 0.81195 0.00
9 2 -1 o 0.704 0.986 180.00 0.81182 0.00
0 10 7 o 0.296 0.378 0.00 0.81177 0.00
4 7 7 o 1.053 0.923 180.00 0.81159 0.00
1 7 8 o 4.414 3.679 0.00 0.81156 0.00
3 15 -1 o 1.577 0.718 0.00 0.81108 0.00
6 8 5 o 0.001 0.000 180.00 0.81073 0.00
0 16 0 o 16.447 5.208 0.00 0.81040 0.00
3 15 1 o 3.429 1.098 0.00 0.81039 0.00
1 15 -3 o 16.020 4.983 0.00 0.80985 0.01
9 2 1 o 3.810 1.227 0.00 0.80977 0.00
1 15 3 o 1.651 0.704 180.00 0.80917 0.00
5 8 6 o 8.477 3.962 0.00 0.80905 0.00
8 7 -2 o 0.047 0.025 0.00 0.80893 0.00
3 5 8 o 0.314 0.175 180.00 0.80887 0.00
7 5 5 o 0.012 0.008 0.00 0.80875 0.00
4 14 -2 o 0.499 0.417 180.00 0.80852 0.00
6 12 -1 o 14.949 13.115 180.00 0.80848 0.00
0 1 9 o 0.745 0.952 0.00 0.80812 0.00
9 3 0 o 0.013 0.017 0.00 0.80790 0.00
5 10 5 o 0.177 0.219 180.00 0.80777 0.00
5 13 -2 o 1.000 1.226 180.00 0.80777 0.00
1 10 -7 o 0.949 1.127 0.00 0.80772 0.00
6 6 -6 o 0.053 0.044 0.00 0.80745 0.00
0 12 6 o 0.608 0.389 0.00 0.80729 0.00
4 2 8 o 0.779 0.436 180.00 0.80721 0.00
6 12 1 o 0.086 0.044 0.00 0.80712 0.00
4 14 2 o 0.020 0.006 180.00 0.80671 0.00
8 3 4 o 3.548 0.951 180.00 0.80667 0.00
7 9 -3 o 52.643 14.207 0.00 0.80668 0.02
2 14 -4 o 0.205 0.054 180.00 0.80669 0.00
4 3 -8 o 14.072 3.378 180.00 0.80658 0.00
6 11 -3 o 26.209 4.284 180.00 0.80618 0.01
1 10 7 o 0.023 0.003 180.00 0.80615 0.00
1 16 0 o 28.712 3.111 180.00 0.80558 0.01
5 13 2 o 18.150 1.903 180.00 0.80552 0.01
0 16 1 o 26.648 2.718 0.00 0.80543 0.01
8 6 -3 o 94.030 9.411 180.00 0.80540 0.03
8 7 2 o 27.724 2.692 0.00 0.80534 0.01
5 5 7 o 4.522 0.402 0.00 0.80511 0.00
6 10 -4 o 0.483 0.038 180.00 0.80505 0.00
2 14 4 o 0.744 0.064 180.00 0.80490 0.00
2 13 -5 o 7.995 0.631 0.00 0.80459 0.00
1 1 -9 o 21.153 1.568 180.00 0.80435 0.01
9 0 -2 o 18.303 1.354 180.00 0.80421 0.00
9 3 -1 o 16.611 1.211 180.00 0.80398 0.01
8 8 0 o 1.784 0.125 180.00 0.80350 0.00
0 2 9 o 7.885 0.588 0.00 0.80345 0.00
1 12 -6 o 8.185 0.612 0.00 0.80319 0.00
8 4 -4 o 3.575 0.272 180.00 0.80295 0.00
9 1 -2 o 6.869 0.535 0.00 0.80266 0.00
2 13 5 o 10.031 0.830 0.00 0.80238 0.00
1 1 9 o 6.599 0.539 180.00 0.80235 0.00
6 11 3 o 27.673 2.363 0.00 0.80218 0.01
3 11 -6 o 58.205 5.033 0.00 0.80213 0.02
7 0 -6 o 3.820 0.323 0.00 0.80208 0.00
4 10 -6 o 51.360 4.499 180.00 0.80205 0.02
7 9 3 o 0.374 0.038 0.00 0.80201 0.00
9 3 1 o 1.075 0.095 180.00 0.80198 0.00
1 12 6 o 9.859 0.911 180.00 0.80187 0.00
7 10 -2 o 7.524 1.006 0.00 0.80101 0.00
1 16 -1 o 1.160 0.181 180.00 0.80081 0.00
3 9 -7 o 0.147 0.030 180.00 0.80069 0.00
1 16 1 o 2.845 0.544 180.00 0.80059 0.00
7 1 -6 o 0.190 0.039 180.00 0.80055 0.00
9 0 2 o 0.681 0.204 180.00 0.80023 0.00
8 6 3 o 0.136 0.053 180.00 0.80010 0.00
2 7 -8 o 1.485 0.885 0.00 0.79992 0.00
6 10 4 o 1.258 1.540 180.00 0.79975 0.00
1 2 -9 o 1.651 2.074 180.00 0.79974 0.00
8 8 -1 o -0.009 2.006 180.00 0.79953 0.00
7 6 -5 o -0.040 2.106 0.00 0.79952 0.00
7 8 -4 o -0.041 3.082 0.00 0.79950 0.00
4 3 8 o -0.067 5.954 0.00 0.79950 0.00
6 6 6 o -0.035 1.468 180.00 0.79947 0.00
9 1 2 o -0.005 0.154 180.00 0.79872 0.00
6 1 -7 o 0.015 0.883 0.00 0.79863 0.00
3 11 6 o 0.032 3.052 180.00 0.79819 0.00
9 2 -2 o -0.026 2.210 180.00 0.79809 0.00
7 10 2 o -0.093 7.392 180.00 0.79795 0.00
8 8 1 o -0.001 0.070 0.00 0.79779 0.00
1 2 9 o 0.011 0.468 180.00 0.79778 0.00
3 6 -8 o -0.042 3.783 0.00 0.79724 0.00
9 4 0 o 0.079 0.230 180.00 0.79714 0.00
4 10 6 o 0.101 0.051 180.00 0.79681 0.00
3 15 -2 o 2.962 1.277 180.00 0.79674 0.00
2 7 8 o 2.172 0.574 0.00 0.79645 0.00
3 9 7 o 17.641 3.229 180.00 0.79612 0.01
7 2 -6 o 3.504 0.581 0.00 0.79601 0.00
5 6 -7 o 16.588 2.748 0.00 0.79600 0.01
2 15 -3 o 13.862 2.300 180.00 0.79601 0.00
8 4 4 o 5.160 0.838 180.00 0.79596 0.00
4 4 -8 o 22.466 3.443 180.00 0.79588 0.01
0 3 9 o 6.502 0.971 0.00 0.79585 0.00
3 15 2 o 1.003 0.121 180.00 0.79544 0.00
2 15 3 o 0.016 0.001 0.00 0.79472 0.00
4 8 -7 o 24.623 2.568 180.00 0.79468 0.01
6 12 -2 o 1.565 0.161 180.00 0.79459 0.00
2 10 -7 o 28.454 2.935 0.00 0.79442 0.01
9 2 2 o 1.377 0.142 0.00 0.79421 0.00
6 2 -7 o 2.913 0.294 180.00 0.79413 0.00
0 8 8 o 1.840 0.185 180.00 0.79409 0.00
7 8 4 o 3.007 0.344 0.00 0.79346 0.00
9 4 -1 o 6.673 0.749 0.00 0.79337 0.00
7 0 6 o 18.100 2.329 180.00 0.79298 0.00
4 13 -4 o 1.327 0.203 180.00 0.79262 0.00
1 3 -9 o 17.355 4.110 180.00 0.79225 0.01
3 6 8 o 1.902 0.600 0.00 0.79210 0.00
6 12 2 o 16.200 5.810 0.00 0.79203 0.00
7 6 5 o 10.095 4.130 0.00 0.79198 0.00
2 16 0 o -0.008 0.811 0.00 0.79164 0.00
7 1 6 o -0.025 2.675 0.00 0.79150 0.00
9 4 1 o -0.049 2.971 180.00 0.79146 0.00
2 10 7 o -0.019 3.442 0.00 0.79144 0.00
2 1 -9 o -0.031 1.728 0.00 0.79142 0.00
6 9 -5 o -0.003 0.047 180.00 0.79134 0.00
0 16 2 o 0.003 0.378 180.00 0.79107 0.00
9 3 -2 o -0.002 0.006 0.00 0.79064 0.00
1 8 -8 o 0.000 0.000 180.00 0.79040 0.00
1 3 9 o 0.000 1.770 0.00 0.79034 0.00
2 12 -6 o -0.016 2.419 180.00 0.79000 0.00
5 9 -6 o -0.014 1.353 180.00 0.78977 0.00
6 1 7 o -0.046 2.340 0.00 0.78965 0.00
8 5 -4 o -0.044 1.786 180.00 0.78944 0.00
4 13 4 o -0.001 1.911 180.00 0.78924 0.00
5 12 -4 o -0.014 4.072 180.00 0.78919 0.00
4 4 8 o 0.000 0.000 0.00 0.78907 0.00
4 8 7 o -0.005 0.824 0.00 0.78875 0.00
1 8 8 o -0.013 1.355 180.00 0.78872 0.00
7 3 -6 o -0.002 0.008 0.00 0.78862 0.00
5 6 7 o -0.004 0.030 180.00 0.78857 0.00
4 12 -5 o 0.758 0.228 0.00 0.78792 0.00
6 7 -6 o 0.004 0.001 0.00 0.78784 0.00
2 1 9 o 4.127 0.527 180.00 0.78763 0.00
2 12 6 o 7.711 0.766 0.00 0.78749 0.00
2 16 -1 o 36.681 2.608 0.00 0.78722 0.01
7 2 6 o 7.630 0.484 180.00 0.78711 0.00
7 11 0 o 11.347 0.703 0.00 0.78710 0.00
2 2 -9 o 3.356 0.195 180.00 0.78703 0.00
9 3 2 o 8.174 0.420 180.00 0.78686 0.00
2 16 1 o 2.078 0.108 180.00 0.78680 0.00
6 3 -7 o 16.879 0.864 0.00 0.78678 0.00
1 16 -2 o 29.265 1.486 0.00 0.78679 0.01
1 16 2 o 43.523 1.815 180.00 0.78638 0.01
8 8 -2 o 0.004 0.000 0.00 0.78630 0.00
8 7 -3 o 0.031 0.001 180.00 0.78594 0.00
0 4 9 o 53.801 2.017 0.00 0.78556 0.02
6 2 7 o 36.491 1.379 180.00 0.78529 0.01
5 14 0 o 32.926 1.229 0.00 0.78516 0.01
4 14 -3 o 38.838 1.452 180.00 0.78514 0.01
6 9 5 o 116.077 4.406 180.00 0.78507 0.03
5 12 4 o 1.061 0.041 180.00 0.78502 0.00
5 13 -3 o 0.052 0.002 0.00 0.78456 0.00
3 14 -4 o 5.044 0.235 0.00 0.78416 0.00
9 5 0 o 10.344 0.521 0.00 0.78392 0.00
8 1 -5 o 96.780 5.041 180.00 0.78377 0.03
4 12 5 o 8.172 0.438 0.00 0.78377 0.00
5 9 6 o 2.804 0.159 0.00 0.78353 0.00
2 2 9 o 23.396 1.435 180.00 0.78331 0.01
7 11 -1 o 0.789 0.052 180.00 0.78326 0.00
4 15 0 o 27.053 1.769 0.00 0.78318 0.01
8 8 2 o 0.001 0.000 180.00 0.78300 0.00
8 5 4 o 73.981 5.631 180.00 0.78280 0.02
4 5 -8 o 19.942 1.544 180.00 0.78272 0.01
4 14 3 o 13.319 1.059 0.00 0.78267 0.00
3 13 -5 o 19.693 1.815 180.00 0.78234 0.01
1 4 -9 o 1.275 0.134 180.00 0.78209 0.00
7 11 1 o 34.101 3.912 180.00 0.78183 0.01
5 11 -5 o 0.222 0.027 180.00 0.78179 0.00
3 14 4 o 15.023 1.816 180.00 0.78170 0.00
0 14 5 o 5.326 0.657 180.00 0.78169 0.00
5 13 3 o 12.000 1.633 180.00 0.78148 0.00
5 14 -1 o 2.550 0.430 180.00 0.78115 0.00
8 7 3 o 0.353 0.059 0.00 0.78100 0.00
0 15 4 o 10.900 2.019 0.00 0.78097 0.00
9 4 -2 o 8.629 2.223 180.00 0.78054 0.00
7 7 -5 o 1.713 0.474 180.00 0.78046 0.00
6 7 6 o 1.462 0.422 180.00 0.78042 0.00
9 5 -1 o 3.401 1.076 180.00 0.78033 0.00
9 1 -3 o 0.062 0.020 0.00 0.78028 0.00
0 11 7 o 0.261 0.085 0.00 0.78030 0.00
1 4 9 o 0.006 0.003 180.00 0.78026 0.00
5 14 1 o 1.876 0.735 0.00 0.78013 0.00
7 3 6 o 6.234 2.919 0.00 0.77996 0.00
2 3 -9 o 0.265 0.134 0.00 0.77988 0.00
5 0 -8 o 11.893 6.520 0.00 0.77982 0.00
8 2 -5 o 2.756 1.993 180.00 0.77951 0.00
3 13 5 o 0.897 0.712 180.00 0.77929 0.00
4 15 -1 o 4.593 3.583 180.00 0.77910 0.00
7 4 -6 o 0.069 0.040 180.00 0.77860 0.00
7 10 -3 o 0.916 0.518 180.00 0.77856 0.00
9 5 1 o 0.000 0.000 0.00 0.77851 0.00
8 9 0 o 0.223 0.122 0.00 0.77849 0.00
5 1 -8 o 1.961 1.008 0.00 0.77841 0.00
3 7 -8 o 0.040 0.019 0.00 0.77834 0.00
4 15 1 o 0.253 0.120 180.00 0.77829 0.00
6 3 7 o 0.001 0.000 180.00 0.77819 0.00
2 8 -8 o 7.016 3.067 180.00 0.77802 0.00
1 14 -5 o 18.877 8.182 0.00 0.77787 0.01
5 7 -7 o 0.979 0.695 180.00 0.77719 0.00
1 15 -4 o 0.237 0.231 0.00 0.77706 0.00
9 4 2 o 0.474 0.868 0.00 0.77691 0.00
1 14 5 o 3.426 9.134 0.00 0.77686 0.00
6 4 -7 o 0.456 1.713 180.00 0.77684 0.00
5 11 5 o -0.012 0.501 0.00 0.77674 0.00
1 11 -7 o -0.014 1.541 0.00 0.77669 0.00
2 3 9 o -0.001 0.013 180.00 0.77626 0.00
1 15 4 o -0.026 1.781 0.00 0.77626 0.00
4 5 8 o -0.013 0.520 0.00 0.77624 0.00
9 2 -3 o -0.009 0.192 0.00 0.77608 0.00
8 1 5 o -0.006 0.113 180.00 0.77567 0.00
6 13 0 o -0.072 4.878 180.00 0.77560 0.00
1 11 7 o -0.037 3.830 180.00 0.77530 0.00
8 9 -1 o -0.042 2.131 180.00 0.77488 0.00
9 1 3 o -0.007 0.191 0.00 0.77486 0.00
7 9 -4 o 0.004 0.654 0.00 0.77486 0.00
2 8 8 o -0.069 5.601 0.00 0.77482 0.00
7 10 3 o 0.003 0.468 0.00 0.77436 0.00
6 11 -4 o -0.002 0.022 0.00 0.77431 0.00
5 2 -8 o -0.050 4.166 0.00 0.77424 0.00
3 15 -3 o 0.001 0.013 180.00 0.77424 0.00
2 16 -2 o -0.004 0.021 180.00 0.77399 0.00
8 6 -4 o 0.000 0.077 180.00 0.77382 0.00
3 7 8 o -0.011 2.625 180.00 0.77355 0.00
7 7 5 o 0.000 0.005 0.00 0.77345 0.00
8 9 1 o -0.008 2.996 0.00 0.77329 0.00
2 16 2 o -0.009 0.102 0.00 0.77319 0.00
3 10 -7 o -0.009 0.768 180.00 0.77317 0.00
0 5 9 o 0.002 0.222 0.00 0.77290 0.00
8 3 -5 o -0.006 0.182 180.00 0.77256 0.00
6 12 -3 o -0.001 1.610 0.00 0.77257 0.00
3 15 3 o -0.026 0.844 180.00 0.77246 0.00
5 0 8 o 0.003 0.243 180.00 0.77184 0.00
6 13 -1 o -0.003 0.643 180.00 0.77184 0.00
4 11 -6 o 0.003 1.188 180.00 0.77165 0.00
8 2 5 o -0.040 3.218 180.00 0.77154 0.00
0 13 6 o 9.505 2.284 180.00 0.77080 0.00
9 2 3 o 4.650 0.927 180.00 0.77074 0.00
7 11 -2 o 1.898 0.358 0.00 0.77072 0.00
6 13 1 o 10.754 1.794 0.00 0.77066 0.00
3 1 -9 o 0.120 0.018 180.00 0.77060 0.00
5 1 8 o 1.002 0.120 0.00 0.77047 0.00
4 9 -7 o 5.967 0.681 180.00 0.77046 0.00
7 4 6 o 5.843 0.513 0.00 0.77026 0.00
5 7 7 o 41.805 3.654 0.00 0.77027 0.01
2 4 -9 o 11.890 0.977 0.00 0.77019 0.00
0 9 8 o 0.120 0.007 0.00 0.76992 0.00
3 16 0 o 35.208 2.172 0.00 0.76992 0.01
6 11 4 o 53.006 2.572 0.00 0.76960 0.01
1 5 -9 o 2.238 0.112 180.00 0.76959 0.00
7 9 4 o 20.961 0.898 180.00 0.76935 0.01
9 3 -3 o 1.464 0.060 180.00 0.76922 0.00
3 10 7 o 3.395 0.134 180.00 0.76906 0.00
6 12 3 o 24.376 0.914 0.00 0.76905 0.01
3 12 -6 o 3.657 0.140 180.00 0.76900 0.00
0 16 3 o 0.331 0.012 0.00 0.76874 0.00
9 6 0 o 1.016 0.038 180.00 0.76862 0.00
6 4 7 o 9.487 0.321 0.00 0.76856 0.00
5 14 -2 o 14.265 0.488 0.00 0.76851 0.00
9 5 -2 o 28.218 0.968 180.00 0.76812 0.01
7 11 2 o 3.604 0.119 0.00 0.76799 0.00
1 5 9 o 0.995 0.033 0.00 0.76785 0.00
8 6 4 o 0.481 0.019 180.00 0.76757 0.00
4 6 -8 o 93.423 3.313 180.00 0.76749 0.03
5 3 -8 o 22.638 0.797 0.00 0.76742 0.01
1 13 -6 o 5.081 0.179 0.00 0.76724 0.00
4 11 6 o 1.585 0.067 0.00 0.76698 0.00
6 8 -6 o 9.045 0.359 0.00 0.76689 0.00
2 4 9 o 56.967 2.367 180.00 0.76670 0.02
5 14 2 o 6.004 0.266 180.00 0.76657 0.00
1 9 -8 o 42.748 1.870 0.00 0.76656 0.01
3 2 -9 o 35.198 1.526 0.00 0.76655 0.01
4 15 -2 o 8.330 0.371 180.00 0.76646 0.00
5 2 8 o 1.787 0.080 0.00 0.76642 0.00
7 5 -6 o 17.736 0.830 0.00 0.76627 0.00
1 13 6 o 2.702 0.135 0.00 0.76608 0.00
3 16 -1 o 1.045 0.053 180.00 0.76595 0.00
2 14 -5 o 37.678 2.008 180.00 0.76577 0.01
3 12 6 o 2.208 0.127 0.00 0.76553 0.00
3 1 9 o 16.427 0.951 0.00 0.76538 0.00
3 16 1 o 2.206 0.129 180.00 0.76538 0.00
9 6 -1 o 47.016 2.837 0.00 0.76524 0.01
8 8 -3 o 9.905 0.614 0.00 0.76513 0.00
4 9 7 o 1.596 0.101 180.00 0.76505 0.00
1 9 8 o 0.193 0.013 0.00 0.76503 0.00
4 15 2 o 2.812 0.184 180.00 0.76492 0.00
1 16 -3 o 1.718 0.110 0.00 0.76492 0.00
2 15 -4 o 0.497 0.034 0.00 0.76490 0.00
2 11 -7 o 6.745 0.430 180.00 0.76484 0.00
8 3 5 o 4.432 0.286 180.00 0.76480 0.00
6 10 -5 o 18.171 1.179 0.00 0.76474 0.00
9 5 2 o 3.719 0.237 180.00 0.76466 0.00
6 5 -7 o 0.218 0.014 0.00 0.76458 0.00
1 16 3 o 0.287 0.020 180.00 0.76434 0.00
9 3 3 o 17.076 1.197 0.00 0.76402 0.00
2 14 5 o 0.253 0.016 180.00 0.76386 0.00
9 6 1 o 92.474 6.411 180.00 0.76352 0.03
2 15 4 o 59.619 4.049 180.00 0.76338 0.02
5 10 -6 o 0.204 0.015 180.00 0.76333 0.00
8 4 -5 o 0.013 0.001 0.00 0.76314 0.00
8 9 -2 o 6.304 0.366 180.00 0.76282 0.00
2 11 7 o 4.631 0.184 0.00 0.76218 0.00
3 2 9 o 3.583 0.086 0.00 0.76141 0.00
4 6 8 o 96.187 2.385 180.00 0.76138 0.03
8 8 3 o 41.965 0.705 0.00 0.76058 0.01
7 8 -5 o 4.051 0.059 180.00 0.76008 0.00
6 8 6 o 100.066 1.426 180.00 0.76004 0.03
3 3 -9 o 0.453 0.006 0.00 0.75994 0.00
9 4 -3 o 26.143 0.359 0.00 0.75992 0.01
5 3 8 o 7.038 0.093 180.00 0.75981 0.00
8 9 2 o 93.553 1.314 180.00 0.75980 0.03
6 13 -2 o 4.470 0.067 0.00 0.75973 0.00
6 10 5 o 10.612 0.152 0.00 0.75908 0.00
1 17 0 o 14.153 0.232 0.00 0.75871 0.00
0 17 1 o 9.685 0.160 0.00 0.75858 0.00
7 5 6 o 10.426 0.216 180.00 0.75832 0.00
2 5 -9 o 7.531 0.158 0.00 0.75825 0.00
0 6 9 o 0.010 0.000 0.00 0.75822 0.00
5 4 -8 o 4.553 0.098 0.00 0.75819 0.00
3 8 -8 o 164.429 3.688 0.00 0.75813 0.04
5 10 6 o 25.140 0.821 0.00 0.75769 0.01
6 13 2 o 0.348 0.016 180.00 0.75749 0.00
5 8 -7 o 0.208 0.020 180.00 0.75706 0.00
6 5 7 o 0.907 0.589 180.00 0.75669 0.00
8 7 -4 o -0.003 0.086 180.00 0.75651 0.00
7 12 0 o -0.015 2.870 180.00 0.75573 0.00
2 13 -6 o -0.043 2.767 180.00 0.75571 0.00
8 4 5 o -0.006 0.070 180.00 0.75565 0.00
4 14 -4 o -0.008 0.322 0.00 0.75543 0.00
2 9 -8 o -0.002 0.148 0.00 0.75525 0.00
1 6 -9 o -0.007 0.674 0.00 0.75510 0.00
5 13 -4 o -0.005 0.635 0.00 0.75500 0.00
3 3 9 o 0.001 0.024 180.00 0.75493 0.00
9 4 3 o 0.012 0.504 0.00 0.75491 0.00
2 5 9 o -0.002 0.377 180.00 0.75491 0.00
1 17 -1 o -0.006 0.447 180.00 0.75472 0.00
1 17 1 o -0.025 0.865 180.00 0.75454 0.00
4 13 -5 o 0.004 0.480 180.00 0.75389 0.00
3 16 -2 o -0.006 0.067 0.00 0.75384 0.00
9 6 -2 o 0.001 0.184 180.00 0.75371 0.00
3 8 8 o 0.009 0.216 0.00 0.75370 0.00
7 8 5 o 0.000 0.286 180.00 0.75360 0.00
2 13 6 o 0.004 0.161 0.00 0.75351 0.00
1 6 9 o -0.001 0.008 0.00 0.75345 0.00
2 16 -3 o -0.003 0.357 180.00 0.75322 0.00
8 10 0 o -0.006 0.228 180.00 0.75313 0.00
9 0 -4 o 0.332 0.232 180.00 0.75282 0.00
3 16 2 o 0.397 0.212 180.00 0.75274 0.00
4 14 4 o 3.444 1.330 0.00 0.75250 0.00
7 12 -1 o 8.560 3.354 0.00 0.75233 0.00
2 9 8 o 1.535 0.604 0.00 0.75232 0.00
2 16 3 o 0.611 0.323 180.00 0.75213 0.00
7 6 -6 o 1.661 2.102 180.00 0.75196 0.00
9 7 0 o -0.001 0.151 180.00 0.75164 0.00
9 1 -4 o 0.001 0.140 180.00 0.75156 0.00
8 5 -5 o 0.000 0.013 180.00 0.75151 0.00
5 13 4 o -0.006 0.085 180.00 0.75135 0.00
7 12 1 o -0.007 0.117 0.00 0.75106 0.00
5 12 -5 o -0.018 1.552 180.00 0.75102 0.00
3 4 -9 o -0.019 0.541 0.00 0.75096 0.00
5 4 8 o -0.002 0.402 0.00 0.75084 0.00
8 7 4 o -0.001 0.051 180.00 0.75066 0.00
7 11 -3 o -0.028 2.455 0.00 0.75066 0.00
5 8 7 o -0.002 0.525 0.00 0.75065 0.00
4 7 -8 o -0.014 1.050 180.00 0.75058 0.00
9 6 2 o -0.007 0.650 0.00 0.75044 0.00
6 6 -7 o -0.008 0.343 180.00 0.75037 0.00
4 13 5 o 0.000 0.004 0.00 0.75025 0.00
8 10 -1 o -0.007 1.117 180.00 0.74986 0.00
7 10 -4 o -0.018 1.577 0.00 0.74983 0.00
0 12 7 o 0.002 0.017 180.00 0.74970 0.00
9 7 -1 o 0.006 0.172 180.00 0.74848 0.00
9 5 -3 o 0.000 0.029 0.00 0.74844 0.00
5 14 -3 o -0.008 0.358 0.00 0.74844 0.00
8 10 1 o -0.006 0.165 180.00 0.74842 0.00
9 2 -4 o -0.009 0.300 0.00 0.74780 0.00
2 17 0 o 0.001 0.320 0.00 0.74702 0.00
7 11 3 o 0.004 0.722 0.00 0.74689 0.00
9 7 1 o -0.014 0.587 0.00 0.74687 0.00
5 5 -8 o 0.004 0.114 180.00 0.74678 0.00
5 12 5 o -0.021 3.019 180.00 0.74654 0.00
0 17 2 o -0.016 1.539 0.00 0.74654 0.00
3 14 -5 o -0.002 0.009 0.00 0.74651 0.00
1 12 -7 o 0.000 0.000 180.00 0.74650 0.00
5 15 0 o -0.003 0.206 0.00 0.74647 0.00
4 15 -3 o 0.000 0.009 0.00 0.74646 0.00
9 0 4 o -0.026 1.076 0.00 0.74634 0.00
3 4 9 o -0.009 0.297 0.00 0.74613 0.00
4 10 -7 o 0.008 1.477 180.00 0.74585 0.00
3 11 -7 o -0.002 0.030 0.00 0.74583 0.00
5 14 3 o 0.001 0.004 0.00 0.74576 0.00
3 15 -4 o -0.010 0.503 0.00 0.74562 0.00
0 10 8 o -0.001 2.458 0.00 0.74536 0.00
1 12 7 o -0.022 1.192 180.00 0.74526 0.00
9 1 4 o 0.001 0.230 0.00 0.74511 0.00
6 9 -6 o 0.000 0.000 0.00 0.74506 0.00
7 1 -7 o 0.012 0.730 180.00 0.74491 0.00
4 7 8 o 0.002 0.504 180.00 0.74487 0.00
7 10 4 o 0.002 2.221 0.00 0.74484 0.00
7 6 6 o -0.014 0.983 0.00 0.74444 0.00
6 12 -4 o -0.001 0.113 180.00 0.74439 0.00
8 5 5 o 0.001 0.643 180.00 0.74436 0.00
2 6 -9 o 0.006 0.363 0.00 0.74437 0.00
4 15 3 o -0.014 0.563 0.00 0.74433 0.00
3 14 5 o -0.003 0.038 0.00 0.74386 0.00
4 1 -9 o -0.003 0.028 180.00 0.74372 0.00
9 5 3 o -0.005 1.797 0.00 0.74365 0.00
3 15 4 o 0.002 0.178 180.00 0.74350 0.00
0 15 5 o -0.045 2.818 180.00 0.74349 0.00
8 9 -3 o 0.000 0.002 0.00 0.74345 0.00
2 17 -1 o 0.004 0.417 0.00 0.74331 0.00
5 15 -1 o -0.032 2.674 0.00 0.74302 0.00
2 17 1 o -0.004 0.052 0.00 0.74296 0.00
1 17 -2 o 0.000 0.000 0.00 0.74295 0.00
6 6 7 o -0.009 0.793 0.00 0.74290 0.00
1 17 2 o -0.009 1.086 180.00 0.74260 0.00
4 16 0 o -0.094 8.197 180.00 0.74232 0.00
1 10 -8 o -0.005 0.112 0.00 0.74231 0.00
5 15 1 o 0.009 0.467 180.00 0.74215 0.00
3 11 7 o 0.002 0.102 0.00 0.74213 0.00
4 12 -6 o 0.000 0.095 0.00 0.74202 0.00
0 7 9 o -0.002 0.015 180.00 0.74191 0.00
9 3 -4 o -0.007 0.275 0.00 0.74165 0.00
9 2 4 o -0.010 0.373 0.00 0.74145 0.00
7 2 -7 o -0.008 1.813 0.00 0.74125 0.00
2 6 9 o 0.003 0.055 0.00 0.74122 0.00
7 12 -2 o -0.002 0.175 0.00 0.74119 0.00
4 10 7 o -0.022 1.485 180.00 0.74094 0.00
1 10 8 o -0.004 0.408 180.00 0.74092 0.00
6 14 0 o -0.003 0.111 180.00 0.74065 0.00
0 16 4 o 0.002 0.011 0.00 0.74044 0.00
6 13 -3 o 0.001 0.778 180.00 0.74041 0.00
6 12 4 o -0.001 0.111 180.00 0.74019 0.00
1 15 -5 o -0.009 0.311 0.00 0.74020 0.00
10 0 0 o 0.011 0.836 180.00 0.74015 0.00
8 0 -6 o -0.053 3.216 180.00 0.74010 0.00
4 2 -9 o 0.005 0.375 0.00 0.74008 0.00
3 5 -9 o -0.002 0.313 180.00 0.73988 0.00
5 5 8 o -0.020 0.816 180.00 0.73976 0.00
1 15 5 o -0.025 1.480 0.00 0.73933 0.00
8 9 3 o 0.014 2.067 180.00 0.73927 0.00
1 7 -9 o -0.010 0.325 0.00 0.73899 0.00
10 1 0 o -0.011 1.391 180.00 0.73895 0.00
8 10 -2 o 0.009 1.530 0.00 0.73891 0.00
8 1 -6 o -0.004 0.901 0.00 0.73890 0.00
4 16 -1 o 0.000 0.003 180.00 0.73885 0.00
7 9 -5 o -0.005 0.607 180.00 0.73881 0.00
6 9 6 o 0.000 0.019 0.00 0.73877 0.00
7 12 2 o 0.000 0.201 0.00 0.73877 0.00
6 11 -5 o -0.001 1.209 0.00 0.73826 0.00
4 16 1 o 0.000 0.002 0.00 0.73816 0.00
8 6 -5 o 0.005 1.144 0.00 0.73800 0.00
8 8 -4 o 1.016 1.986 180.00 0.73790 0.00
4 12 6 o 0.005 0.006 180.00 0.73787 0.00
9 7 -2 o 0.826 0.318 0.00 0.73768 0.00
4 1 9 o 0.590 0.122 180.00 0.73747 0.00
1 7 9 o 4.725 0.960 180.00 0.73744 0.00
6 14 -1 o 19.819 3.453 180.00 0.73737 0.00
6 13 3 o 2.210 0.348 180.00 0.73731 0.00
3 13 -6 o 2.385 0.350 0.00 0.73727 0.00
1 16 -4 o 2.839 0.326 0.00 0.73711 0.00
3 9 -8 o 38.681 4.082 180.00 0.73701 0.01
5 11 -6 o 6.112 0.615 180.00 0.73698 0.00
6 0 -8 o 21.585 1.907 180.00 0.73685 0.00
0 14 6 o 0.014 0.001 0.00 0.73647 0.00
1 16 4 o 16.557 1.064 0.00 0.73642 0.00
7 1 7 o 59.718 3.777 180.00 0.73640 0.01
6 14 1 o 0.237 0.014 180.00 0.73634 0.00
8 10 2 o 8.133 0.461 180.00 0.73617 0.00
10 1 -1 o 1.630 0.084 0.00 0.73603 0.00
7 7 -6 o 11.224 0.590 0.00 0.73604 0.00
5 9 -7 o 8.557 0.453 0.00 0.73603 0.00
2 12 -7 o 0.333 0.018 0.00 0.73596 0.00
6 1 -8 o 8.534 0.391 0.00 0.73566 0.00
9 3 4 o 0.002 0.000 180.00 0.73546 0.00
10 2 0 o 0.789 0.035 180.00 0.73538 0.00
8 2 -6 o 53.270 2.192 180.00 0.73532 0.01
7 3 -7 o 18.021 0.743 180.00 0.73526 0.00
3 5 9 o 21.051 0.862 0.00 0.73525 0.01
9 6 -3 o 3.010 0.114 0.00 0.73509 0.00
3 16 -3 o 0.175 0.006 0.00 0.73470 0.00
9 7 2 o 9.482 0.337 180.00 0.73461 0.00
6 7 -7 o 3.025 0.103 0.00 0.73455 0.00
10 1 1 o 22.531 0.765 0.00 0.73433 0.01
3 13 6 o 1.631 0.051 0.00 0.73421 0.00
4 3 -9 o 2.167 0.071 180.00 0.73412 0.00
4 2 9 o 3.370 0.109 180.00 0.73392 0.00
2 12 7 o 97.791 2.984 0.00 0.73359 0.02
5 6 -8 o 39.730 1.190 180.00 0.73352 0.01
9 8 0 o 11.171 0.339 180.00 0.73339 0.00
1 14 -6 o 39.534 1.152 0.00 0.73335 0.01
9 4 -4 o 50.642 1.462 0.00 0.73331 0.01
3 16 3 o 17.026 0.478 0.00 0.73318 0.00
6 11 5 o 22.518 0.623 180.00 0.73315 0.01
3 9 8 o 9.792 0.261 180.00 0.73294 0.00
7 2 7 o 55.826 1.459 0.00 0.73286 0.01
7 9 5 o 4.876 0.128 180.00 0.73285 0.00
10 2 -1 o 42.863 1.021 180.00 0.73250 0.01
8 8 4 o 29.988 0.704 0.00 0.73247 0.01
4 8 -8 o 0.391 0.009 0.00 0.73240 0.00
1 14 6 o 10.557 0.252 180.00 0.73235 0.00
6 2 -8 o 49.786 1.102 180.00 0.73213 0.01
2 17 -2 o 0.384 0.009 0.00 0.73214 0.00
5 15 -2 o 3.276 0.075 180.00 0.73212 0.00
2 10 -8 o 189.235 4.141 180.00 0.73203 0.05
8 0 6 o 137.518 2.984 0.00 0.73192 0.02
5 11 6 o 41.525 0.892 0.00 0.73190 0.01
2 17 2 o 6.854 0.144 180.00 0.73147 0.00
8 6 5 o 16.477 0.360 0.00 0.73123 0.00
10 2 1 o 9.739 0.225 0.00 0.73083 0.00
8 1 6 o 8.891 0.207 180.00 0.73076 0.00
9 6 3 o 28.403 0.738 0.00 0.73055 0.01
9 8 -1 o 0.352 0.009 0.00 0.73045 0.00
5 15 2 o 0.765 0.020 180.00 0.73045 0.00
5 9 7 o 22.002 0.702 0.00 0.73014 0.01
2 15 -5 o 0.306 0.013 180.00 0.72975 0.00
10 3 0 o 24.909 1.370 180.00 0.72953 0.01
8 3 -6 o 12.221 0.715 0.00 0.72948 0.00
2 10 8 o 1.430 0.099 180.00 0.72936 0.00
7 7 6 o 0.630 0.066 180.00 0.72899 0.00
9 8 1 o 1.071 0.112 180.00 0.72895 0.00
2 7 -9 o 7.100 0.775 0.00 0.72892 0.00
6 0 8 o 5.475 0.656 0.00 0.72878 0.00
0 0 10 o 25.903 3.194 0.00 0.72873 0.00
3 17 0 o 0.898 0.114 180.00 0.72870 0.00
4 3 9 o 13.492 1.359 180.00 0.72811 0.00
2 15 5 o 0.763 0.077 0.00 0.72810 0.00
4 16 -2 o 0.424 0.042 0.00 0.72804 0.00
8 11 0 o 1.138 0.087 0.00 0.72779 0.00
0 17 3 o 0.721 0.050 0.00 0.72770 0.00
6 1 8 o 4.790 0.308 180.00 0.72763 0.00
0 1 10 o 17.435 1.057 0.00 0.72758 0.00
6 7 7 o 5.612 0.320 180.00 0.72754 0.00
9 4 4 o 3.034 0.149 0.00 0.72731 0.00
8 2 6 o 15.387 0.749 0.00 0.72730 0.00
7 4 -7 o 0.410 0.018 180.00 0.72713 0.00
4 8 8 o 27.061 1.163 180.00 0.72709 0.01
7 3 7 o 5.349 0.222 180.00 0.72708 0.00
10 0 -2 o 21.044 0.846 0.00 0.72698 0.00
3 6 -9 o 7.793 0.319 180.00 0.72698 0.00
5 6 8 o 0.850 0.032 180.00 0.72687 0.00
6 14 -2 o 0.821 0.029 0.00 0.72679 0.00
10 3 -1 o 0.484 0.017 0.00 0.72672 0.00
4 16 2 o 63.550 2.294 0.00 0.72673 0.02
2 16 -4 o 31.487 1.120 180.00 0.72671 0.01
6 3 -8 o 3.555 0.119 0.00 0.72637 0.00
1 0 -10 o 32.731 1.075 180.00 0.72604 0.00
4 4 -9 o 30.499 1.002 180.00 0.72602 0.01
2 7 9 o 42.626 1.427 180.00 0.72596 0.01
10 1 -2 o 1.387 0.048 0.00 0.72584 0.00
7 13 0 o 0.782 0.025 0.00 0.72554 0.00
2 16 4 o 6.208 0.238 180.00 0.72540 0.00
3 17 -1 o 0.656 0.028 180.00 0.72533 0.00
10 3 1 o 6.405 0.276 180.00 0.72509 0.00
1 1 -10 o 2.220 0.102 0.00 0.72490 0.00
8 11 -1 o 5.357 0.260 0.00 0.72484 0.00
3 17 1 o 42.643 2.047 0.00 0.72484 0.01
6 14 2 o 0.344 0.015 180.00 0.72483 0.00
7 11 -4 o 2.603 0.121 180.00 0.72481 0.00
1 17 -3 o 32.335 1.867 0.00 0.72445 0.01
1 0 10 o 1.357 0.085 0.00 0.72441 0.00
0 8 9 o 12.689 0.784 180.00 0.72434 0.00
6 2 8 o 1.767 0.114 0.00 0.72422 0.00
0 2 10 o 2.057 0.135 0.00 0.72417 0.00
1 17 3 o 4.502 0.340 180.00 0.72396 0.00
10 0 2 o 21.953 1.907 0.00 0.72371 0.00
8 11 1 o 0.029 0.003 180.00 0.72354 0.00
7 12 -3 o 6.596 0.749 180.00 0.72330 0.00
1 1 10 o 0.900 0.104 0.00 0.72328 0.00
2 14 -6 o 6.828 0.801 180.00 0.72327 0.00
9 5 -4 o 23.749 3.526 0.00 0.72297 0.01
8 7 -5 o 0.503 0.080 180.00 0.72294 0.00
6 10 -6 o 4.209 0.802 0.00 0.72273 0.00
5 14 -4 o 3.909 0.816 180.00 0.72265 0.00
10 1 2 o 2.549 0.580 0.00 0.72259 0.00
3 6 9 o 3.242 0.742 0.00 0.72258 0.00
7 13 -1 o 1.113 0.275 0.00 0.72254 0.00
10 2 -2 o 0.557 0.158 0.00 0.72245 0.00
4 14 -5 o -0.002 0.106 180.00 0.72167 0.00
8 3 6 o -0.014 0.506 180.00 0.72165 0.00
1 8 -9 o -0.001 0.133 0.00 0.72162 0.00
10 4 0 o 0.000 0.016 0.00 0.72158 0.00
8 4 -6 o -0.001 0.126 180.00 0.72153 0.00
1 2 -10 o -0.009 0.583 180.00 0.72153 0.00
7 13 1 o -0.004 1.177 180.00 0.72141 0.00
5 13 -5 o -0.004 0.243 180.00 0.72138 0.00
2 14 6 o 0.002 0.051 0.00 0.72134 0.00
8 10 -3 o -0.017 1.390 0.00 0.72126 0.00
4 11 -7 o -0.002 0.102 180.00 0.72122 0.00
4 15 -4 o -0.004 0.223 180.00 0.72079 0.00
0 11 8 o -0.008 0.258 0.00 0.72077 0.00
9 8 -2 o -0.003 0.187 0.00 0.72040 0.00
0 18 0 o -0.015 0.687 0.00 0.72035 0.00
7 11 4 o -0.014 0.703 180.00 0.72030 0.00
4 4 9 o 0.000 0.000 0.00 0.72021 0.00
9 7 -3 o -0.003 0.129 180.00 0.72020 0.00
0 13 7 o -0.002 0.401 0.00 0.72021 0.00
1 8 9 o 0.000 0.096 180.00 0.72018 0.00
7 12 3 o -0.010 0.965 180.00 0.71993 0.00
1 2 10 o -0.002 0.023 180.00 0.71993 0.00
5 14 4 o -0.003 0.076 180.00 0.71945 0.00
10 2 2 o -0.003 0.106 0.00 0.71925 0.00
7 4 7 o -0.008 1.008 0.00 0.71921 0.00
7 5 -7 o -0.002 0.029 180.00 0.71705 0.00
3 12 -7 o -0.006 0.484 180.00 0.71897 0.00
7 10 -5 o -0.006 0.209 180.00 0.71703 0.00
6 10 6 o -0.010 0.364 180.00 0.71699 0.00
1 18 0 o -0.012 0.683 180.00 0.71696 0.00
10 4 -1 o -0.040 2.905 180.00 0.71886 0.00
7 8 -6 o -0.012 0.474 180.00 0.71887 0.00
10 3 -2 o -0.001 0.006 180.00 0.71691 0.00
0 18 1 o 0.004 1.104 180.00 0.71686 0.00
5 7 -8 o -0.004 0.246 0.00 0.71872 0.00
4 11 7 o -0.001 0.241 0.00 0.71677 0.00
9 1 -5 o -0.010 0.259 0.00 0.71869 0.00
1 11 8 o -0.041 3.059 180.00 0.71675 0.00
6 3 8 o 0.010 1.008 180.00 0.71863 0.00
0 3 10 o -0.015 2.041 0.00 0.71858 0.00
6 4 -8 o 0.000 0.082 0.00 0.71852 0.00
8 7 5 o 0.000 0.000 0.00 0.71656 0.00
2 0 -10 o -0.001 0.247 180.00 0.71656 0.00
4 14 5 o -0.009 0.947 180.00 0.71848 0.00
8 9 -4 o -0.003 0.168 0.00 0.71839 0.00
4 15 4 o 0.000 0.005 0.00 0.71824 0.00
1 13 7 o 0.000 0.115 180.00 0.71627 0.00
1 11 -8 o 0.000 0.000 180.00 0.71801 0.00
1 3 -10 o -0.023 1.555 0.00 0.71601 0.00
4 5 -9 o -0.001 0.671 180.00 0.71599 0.00
9 7 3 o 0.002 0.223 0.00 0.71593 0.00
3 12 7 o 0.000 0.001 0.00 0.71566 0.00
9 8 2 o -0.017 2.397 0.00 0.71754 0.00
6 8 -7 o -0.001 0.362 0.00 0.71748 0.00
8 10 3 o 0.001 0.352 0.00 0.71745 0.00
6 13 -4 o -0.001 0.019 0.00 0.71550 0.00
5 13 5 o -0.002 0.129 180.00 0.71740 0.00
2 1 -10 o 0.002 0.273 0.00 0.71547 0.00
1 13 -7 o -0.003 0.356 180.00 0.71737 0.00
9 2 -5 o -0.002 0.432 0.00 0.71540 0.00
3 10 -8 o -0.005 0.252 0.00 0.71538 0.00
10 4 1 o -0.002 0.229 0.00 0.71728 0.00
9 5 4 o -0.010 1.006 180.00 0.71723 0.00
3 17 -2 o -0.001 0.077 180.00 0.71502 0.00
8 11 -2 o 0.002 0.582 180.00 0.71494 0.00
5 15 -3 o -0.005 0.214 180.00 0.71471 0.00
5 10 -7 o 0.000 0.002 0.00 0.71449 0.00
2 17 -3 o -0.010 0.312 180.00 0.71449 0.00
1 3 10 o -0.009 0.778 0.00 0.71444 0.00
9 9 0 o -0.003 0.552 180.00 0.71422 0.00
3 17 2 o -0.004 0.319 0.00 0.71408 0.00
8 4 6 o 0.000 0.001 0.00 0.71395 0.00
10 3 2 o -0.006 0.254 0.00 0.71378 0.00
1 18 -1 o -0.003 0.083 0.00 0.71360 0.00
2 17 3 o 0.000 0.001 0.00 0.71356 0.00
2 0 10 o 0.848 0.357 180.00 0.71344 0.00
1 18 1 o 1.628 0.688 180.00 0.71344 0.00
4 13 -6 o 0.504 0.158 180.00 0.71339 0.00
8 9 4 o 4.784 1.381 0.00 0.71338 0.00
4 9 -8 o 0.045 0.010 180.00 0.71331 0.00
3 15 -5 o 1.719 0.184 180.00 0.71303 0.00
5 1 -9 o 7.086 0.541 0.00 0.71277 0.00
7 13 -2 o 27.515 1.944 0.00 0.71265 0.01
3 7 -9 o 0.686 0.045 180.00 0.71256 0.00
5 7 8 o 1.889 0.121 0.00 0.71246 0.00
8 11 2 o 5.315 0.327 180.00 0.71245 0.00
5 15 3 o 0.750 0.046 0.00 0.71238 0.00
2 1 10 o 8.140 0.488 180.00 0.71236 0.00
7 8 6 o 1.566 0.090 0.00 0.71230 0.00
2 8 -9 o 8.630 0.504 180.00 0.71224 0.00
2 2 -10 o 2.459 0.143 0.00 0.71223 0.00
6 12 -5 o 10.371 0.589 0.00 0.71218 0.00
6 13 4 o 68.216 4.075 0.00 0.71177 0.02
10 5 0 o 6.313 0.389 0.00 0.71173 0.00
8 5 -6 o 3.218 0.200 180.00 0.71169 0.00
9 1 5 o 0.778 0.052 180.00 0.71166 0.00
3 10 8 o 0.847 0.051 180.00 0.71166 0.00
7 10 5 o 11.628 0.749 180.00 0.71158 0.00
9 9 -1 o 12.747 0.851 0.00 0.71151 0.00
5 12 -6 o 4.581 0.450 0.00 0.71104 0.00
6 4 8 o 0.549 0.054 0.00 0.71103 0.00
0 4 10 o 6.321 0.657 180.00 0.71098 0.00
6 8 7 o 1.527 0.165 180.00 0.71094 0.00
9 6 -4 o 0.235 0.027 0.00 0.71092 0.00
5 16 0 o 0.574 0.066 0.00 0.71085 0.00
4 16 -3 o 0.817 0.100 0.00 0.71083 0.00
3 15 5 o 6.845 0.956 180.00 0.71071 0.00
7 13 2 o 0.008 0.001 180.00 0.71050 0.00
4 5 9 o 0.387 0.076 180.00 0.71041 0.00
9 9 1 o 1.584 0.338 0.00 0.71013 0.00
3 16 -4 o 3.581 0.775 180.00 0.71011 0.00
9 3 -5 o 1.235 0.256 0.00 0.71002 0.00
6 14 -3 o 4.648 0.839 0.00 0.70982 0.00
4 13 6 o 0.398 0.065 0.00 0.70970 0.00
5 2 -9 o 0.280 0.036 0.00 0.70956 0.00
2 8 9 o 11.575 1.343 0.00 0.70947 0.00
7 5 7 o 0.099 0.011 0.00 0.70945 0.00
10 4 -2 o 1.676 0.165 0.00 0.70936 0.00
10 1 -3 o 7.755 0.649 180.00 0.70924 0.00
2 2 10 o 0.047 0.003 0.00 0.70916 0.00
10 5 -1 o 0.061 0.004 180.00 0.70912 0.00
5 10 7 o 5.355 0.373 0.00 0.70909 0.00
4 16 3 o 0.033 0.002 180.00 0.70900 0.00
6 5 -8 o 7.666 0.388 180.00 0.70879 0.00
2 11 -8 o 0.000 0.000 180.00 0.70869 0.00
