#------------------------------------------------------------------------------
#$Date: 2017-07-25 11:54:36 +0300 (Tue, 25 Jul 2017) $
#$Revision: 199062 $
#$URL: file:///home/coder/svn-repositories/cod/cif/2/10/81/2108120.cif $
#------------------------------------------------------------------------------
#
# This file is available in the Crystallography Open Database (COD),
# http://www.crystallography.net/. The original data for this entry
# were provided by IUCr Journals, http://journals.iucr.org/.
#
# The file may be used within the scientific community so long as
# proper attribution is given to the journal article from which the
# data were obtained.
#
data_2108120
loop_
_publ_author_name
'Brozdowska, Agnieszka'
'Chojnacki, Jaros\/law'
_publ_section_title
;
 Chiral and achiral crystals, charge-assisted hydrogen-bond patterns and
 self-organization of selected solid diaminium thiosulfates
;
_journal_coeditor_code           EB5057
_journal_issue                   3
_journal_name_full               'Acta Crystallographica Section B'
_journal_page_first              507
_journal_page_last               518
_journal_paper_doi               10.1107/S2052520617004802
_journal_volume                  73
_journal_year                    2017
_chemical_formula_moiety         'C4  H14  N2 2+,  O3  S2 2-'
_chemical_formula_sum            'C4 H14 N2 O3 S2'
_chemical_formula_weight         202.29
_chemical_name_systematic
;
 ?
;
_space_group_IT_number           2
_symmetry_cell_setting           triclinic
_symmetry_space_group_name_Hall  '-P 1'
_symmetry_space_group_name_H-M   'P -1'
_atom_sites_solution_hydrogens   mixed
_atom_sites_solution_primary     direct
_atom_sites_solution_secondary   difmap
_audit_creation_method           'WinGX routine CIF_UPDATE'
_cell_angle_alpha                73.623(7)
_cell_angle_beta                 82.681(7)
_cell_angle_gamma                84.207(7)
_cell_formula_units_Z            2
_cell_length_a                   6.0538(5)
_cell_length_b                   8.5273(6)
_cell_length_c                   9.3869(8)
_cell_measurement_reflns_used    1508
_cell_measurement_temperature    120(2)
_cell_measurement_theta_max      28.4398
_cell_measurement_theta_min      2.4903
_cell_volume                     460.05(7)
_computing_cell_refinement       'CrysAlisPro (Agilent Technologies, 2011)'
_computing_data_collection       'CrysAlisPro (Agilent Technologies, 2011)'
_computing_data_reduction        'CrysAlisPro (Agilent Technologies, 2011)'
_computing_molecular_graphics    'Ortep for Windows (Farrugia, 2012)'
_computing_publication_material  'WinGX publication routines (Farrugia, 2012)'
_computing_structure_refinement  'SHELXL-2014 (Sheldrick, 2014)'
_computing_structure_solution    'SHELXS-2013 (Sheldrick, 2013)'
_diffrn_ambient_temperature      120(2)
_diffrn_measured_fraction_theta_full 0.984
_diffrn_measured_fraction_theta_max 0.981
_diffrn_measurement_device_type  'KUMA KM4CCD, Sapphire2, large Be window'
_diffrn_measurement_method       '\w scans'
_diffrn_radiation_type           MoK\a
_diffrn_radiation_wavelength     0.71073
_diffrn_reflns_av_R_equivalents  0.0309
_diffrn_reflns_limit_h_max       7
_diffrn_reflns_limit_h_min       -7
_diffrn_reflns_limit_k_max       10
_diffrn_reflns_limit_k_min       -10
_diffrn_reflns_limit_l_max       11
_diffrn_reflns_limit_l_min       -10
_diffrn_reflns_number            2675
_diffrn_reflns_theta_full        25.242
_diffrn_reflns_theta_max         25.999
_diffrn_reflns_theta_min         2.495
_exptl_absorpt_coefficient_mu    0.546
_exptl_absorpt_correction_T_max  1
_exptl_absorpt_correction_T_min  0.77539
_exptl_absorpt_correction_type   multi-scan
_exptl_absorpt_process_details
;
        CrysAlisPro, Agilent Technologies,
        Version 1.171.35.15 (release 03-08-2011 CrysAlis171 .NET)
        Empirical absorption correction using spherical harmonics,
 implemented in SCALE3 ABSPACK scaling algorithm.
;
_exptl_crystal_colour            colourless
_exptl_crystal_density_diffrn    1.46
_exptl_crystal_density_method    'not measured'
_exptl_crystal_description       prism
_exptl_crystal_F_000             216
_exptl_crystal_size_max          0.56
_exptl_crystal_size_mid          0.41
_exptl_crystal_size_min          0.33
_refine_diff_density_max         0.566
_refine_diff_density_min         -0.515
_refine_ls_extinction_method     none
_refine_ls_goodness_of_fit_ref   1.058
_refine_ls_hydrogen_treatment    mixed
_refine_ls_matrix_type           full
_refine_ls_number_parameters     124
_refine_ls_number_reflns         1786
_refine_ls_number_restraints     6
_refine_ls_restrained_S_all      1.056
_refine_ls_R_factor_all          0.0725
_refine_ls_R_factor_gt           0.0529
_refine_ls_shift/su_max          0
_refine_ls_shift/su_mean         0
_refine_ls_structure_factor_coef Fsqd
_refine_ls_weighting_details
'w=1/[\s^2^(Fo^2^)+(0.0448P)^2^+1.0795P] where P=(Fo^2^+2Fc^2^)/3'
_refine_ls_weighting_scheme      calc
_refine_ls_wR_factor_gt          0.114
_refine_ls_wR_factor_ref         0.1335
_reflns_number_gt                1416
_reflns_number_total             1786
_reflns_threshold_expression     'I > 2\s(I)'
_cod_data_source_file            eb5057sup1.cif
_cod_data_source_block           Comp_3
_cod_database_code               2108120
_shelx_hkl_file
;
   0   0   2 23795.1 900.625   3
   0   0   2 23034.8 870.139   2
   0   0  -2 22476.6 922.063   3
   0   0  -3 13543.6 874.019   3
   0   0   3 13814.0 804.334   2
   0   0   4 158317. 3152.46   2
   0   0  -4 162686. 3467.45   3
   0   0  -5 2388.80 476.956   3
   0   0   5 2996.18 512.140   2
   0   0   6 33531.9 1796.03   2
   0   0  -6 33858.9 2037.30   3
   0   0   7 1481.04 430.700   2
   0   0  -7 610.336 350.159   3
   0   0   8 3255.45 725.216   2
   0   0  -8 3057.44 748.083   3
   0   0   9 291.746 330.792   2
   0   0  -9 362.201 398.049   3
   0   0  10 25197.7 2099.25   2
   0   0  11 805.809 499.328   2
   0   1 -10 2032.61 828.882   3
   0  -1  10 2895.31 734.107   2
   0  -1   9 281.554 258.563   2
   0   1  -9-312.687 412.704   3
   0  -1   8 671.107 408.120   2
   0   1  -8 330.473 373.711   3
   0  -1   7 6753.48 894.480   2
   0   1  -7 6165.86 983.292   3
   0  -1   6 3155.19 567.394   2
   0   1  -6 3335.16 669.797   3
   0  -1   5 60398.2 2145.41   2
   0   1  -5 60629.8 2614.93   3
   0  -1   4 258038. 3938.69   2
   0   1  -4 264455. 4834.79   3
   0   1  -3 40907.9 1651.30   3
   0  -1   3 43227.4 1387.55   2
   0  -1   2 134055. 2047.54   2
   0   1  -2 136466. 2591.74   3
   0   1  -1 106157. 1773.52   3
   0  -1   1 100054. 1721.16   3
   0  -1   1 101510. 1256.26   2
   0  -1   1 106834. 1686.23   1
   0   1  -1 107983. 1273.29   2
   0  -1   0 126565. 1395.78   3
   0   1   0 118739. 1587.61   1
   0  -1  -1 53433.3 915.775   1
   0   1   1 27563.3 746.848   1
   0  -1  -2 336262. 2762.70   1
   0   1   2 333454. 2817.75   1
   0   1   3 264165. 2857.50   1
   0   1   4 938.337 218.715   1
   0   1   4 384.307 173.572   2
   0  -1  -5 18603.7 1291.96   3
   0   1   5 18606.6 1260.63   2
   0   1   5 17609.9 948.815   1
   0  -1  -6 793.328 319.964   3
   0   1   6 871.697 248.808   1
   0   1   6 694.421 343.951   2
   0   1   7 6928.73 725.758   1
   0   1   7 6948.94 946.420   2
   0   1   8 11265.3 979.959   1
   0   1   8 10848.6 1252.31   2
   0   1   9 6753.80 1075.73   2
   0   1  10 4646.64 973.689   2
   0   1  11 28091.3 2419.59   2
   0   2 -10 290.100 563.001   3
   0   2  -9 162.085 425.864   3
   0  -2   8 1225.24 435.768   2
   0   2  -8 932.009 509.101   3
   0  -2   7 28979.2 1757.10   2
   0   2  -7 25161.8 2123.49   3
   0   2  -6 117.075 172.128   3
   0  -2   6 68.9143 237.734   2
   0  -2   5 16065.0 1086.72   2
   0   2  -5 15780.8 1434.91   3
   0  -2   4 1197.10 284.881   2
   0   2  -4 340.578 225.542   3
   0  -2   3 73576.8 1796.51   2
   0   2  -3 72019.5 2428.53   3
   0   2  -2 7223.37 687.585   3
   0   2  -2 7614.00 491.268   2
   0  -2   2 6993.48 457.694   2
   0   2  -1 158128. 2715.11   3
   0   2  -1 162505. 2763.16   1
   0  -2   1 160128. 1700.94   2
   0   2  -1 161607. 1756.48   2
   0   2   0 5789.19 331.504   2
   0   2   0 4559.67 403.957   3
   0  -2   0 5083.19 421.251   3
   0   2   0 5393.68 477.242   1
   0   2   1 87985.2 1607.82   3
   0  -2  -1 87830.0 1780.87   1
   0   2   1 89074.0 1801.65   1
   0  -2  -2 96363.7 1440.08   4
   0  -2  -2 92342.6 1825.17   1
   0   2   2 97701.0 1919.10   1
   0   2   3 71559.1 1274.66   4
   0   2   3 66066.9 1581.15   1
   0   2   4 29526.7 1177.29   1
   0   2   5 6997.73 792.215   2
   0   2   5 8420.89 691.663   1
   0   2   6 10641.5 834.951   1
   0   2   6 9611.76 1029.68   2
   0   2   7 116865. 3779.99   2
   0   2   7 118132. 2973.48   1
   0   2   8 7735.35 823.781   1
   0   2   8 6526.24 1009.48   2
   0   2   9 28976.3 2185.03   2
   0   2  10 1837.94 662.784   2
   0   2  11 30015.2 2555.66   2
   0   3  -9-465.857 640.352   3
   0   3  -8 4155.19 993.217   3
   0  -3   7 2814.76 537.606   2
   0   3  -7 1813.08 638.839   3
   0   3  -6 50843.5 2970.18   3
   0  -3   6 50367.5 2113.67   2
   0  -3   5-135.662 161.953   2
   0  -3   4 59118.1 1826.49   2
   0   3  -4 60053.8 2678.75   3
   0   3  -3 32402.6 1785.69   3
   0  -3   3 30700.6 1131.23   2
   0   3  -2 221.937 149.485   2
   0   3  -2 368.141 256.911   3
   0  -3   2 191.684 99.4767   2
   0   3  -1 44661.5 1662.12   3
   0   3  -1 45760.4 1069.62   2
   0  -3   1 45554.0 1085.15   2
   0   3  -1 46180.4 1768.94   1
   0   3   0 80842.2 1538.14   2
   0   3   0 77312.7 2198.33   1
   0   3   1 21642.9 994.306   3
   0   3   1 22272.1 1140.98   1
   0   3   2 48832.0 1632.42   1
   0   3   3 18867.2 1028.73   1
   0  -3  -3 16984.2 760.503   4
   0   3   4 8760.01 545.050   4
   0   3   4 8429.06 720.229   1
   0   3   5 1025.45 233.814   1
   0   3   6 45594.1 1761.35   1
   0   3   6 50150.8 2369.00   2
   0   3   7 13407.8 1021.94   1
   0   3   7 13180.2 1341.69   2
   0   3   8 27982.8 2045.26   2
   0   3   8 29913.1 1607.01   1
   0   3   9 5711.12 1043.50   2
   0   3  10 12841.4 1627.34   2
   0   3  11 3688.50 938.166   2
   0   4  -9 8837.16 1644.27   3
   0   4  -8 7355.20 1397.81   3
   0   4  -7 16298.0 1898.00   3
   0   4  -6 12511.9 1556.27   3
   0  -4   5 16318.5 1045.88   2
   0   4  -5 13024.6 1456.76   3
   0  -4   4 11332.3 771.500   2
   0   4  -4 9810.85 1204.10   3
   0   4  -3 13502.7 1279.42   3
   0  -4   3 13488.0 759.015   2
   0  -4   2 103.595 104.824   2
   0   4  -2 313.060 280.996   3
   0   4  -1 7927.85 805.426   3
   0   4  -1 7367.52 840.270   1
   0   4  -1 6847.52 476.853   2
   0   4   0 53324.4 2141.30   1
   0   4   0 49639.8 1867.54   3
   0   4   1 44.6393 132.711   3
   0   4   1-57.8293 183.204   1
   0   4   2 22664.0 1315.38   1
   0   4   2 22595.6 1155.41   3
   0   4   3 55923.9 2022.99   1
   0  -4  -3 54801.9 1655.63   4
   0   4   4 15544.1 1068.65   1
   0   4   5 16090.1 1133.65   1
   0   4   6 989.893 367.393   1
   0   4   6 282.150 299.109   2
   0   4   7 18720.9 1284.35   1
   0   4   7 15952.1 1482.94   2
   0   4   8 17726.6 1261.22   1
   0   4   8 17057.7 1689.51   2
   0   4   9 520.969 379.110   2
   0   4  10 1172.46 651.374   2
   0   4  11 2290.48 784.547   2
   0   5  -8 8161.11 1572.89   3
   0   5  -7 8445.18 1485.50   3
   0   5  -5 5140.09 964.514   3
   0   5  -4 4377.81 902.878   3
   0   5  -3 117.930 251.881   3
   0   5  -2 4418.00 751.946   3
   0   5  -1 29741.9 1857.31   1
   0   5  -1 32117.5 1803.78   3
   0   5   0 4347.00 726.581   1
   0   5   0 4910.88 671.695   3
   0   5   1 59861.2 2183.65   3
   0   5   1 62342.8 2529.59   1
   0   5   2 160996. 3976.16   1
   0   5   2 152505. 3425.63   3
   0   5   3 27916.0 1641.01   1
   0   5   3 27932.9 1460.95   3
   0  -5  -4 540.042 256.170   4
   0   5   4 819.521 339.753   1
   0   5   5 32870.8 1756.82   1
   0   5   6 73457.0 2637.89   1
   0   5   7 32193.6 1820.08   1
   0   5   7 27397.3 2001.64   2
   0   5   8-850.532 505.265   2
   0   5   8-131.650 204.061   1
   0   5   9 3141.37 877.362   2
   0   5  10 531.872 467.329   2
   0   5  11 1189.69 739.274   2
   0   6  -7-934.800 533.463   3
   0   6  -6 6197.61 1222.25   3
   0   6  -5 1531.51 693.078   3
   0   6  -4 25009.3 2186.71   3
   0   6  -3 837.141 505.932   3
   0   6  -2 49532.5 2658.24   3
   0   6  -1 5286.07 858.433   3
   0   6  -1 3298.17 729.165   1
   0   6   0 57239.5 2759.48   1
   0   6   0 53223.2 2399.48   3
   0   6   1 1871.76 465.433   3
   0   6   1 1408.82 507.919   1
   0   6   2 218535. 5260.83   1
   0   6   2 214237. 4433.16   3
   0   6   3 13632.8 1140.70   3
   0   6   3 12394.6 1237.16   1
   0  -6  -4 84807.1 2575.88   4
   0   6   4 80473.2 2760.64   3
   0   6   4 84718.3 3154.12   1
   0   6   5 2943.57 629.458   1
   0   6   6 3884.45 713.416   1
   0   6   7-768.244 449.421   2
   0   6   7 1980.46 508.676   1
   0   6   8 16449.2 1691.09   2
   0   6   8 20855.9 1587.30   1
   0   6   9 2335.91 768.938   2
   0   6  10 5726.72 1186.01   2
   0   6  11 982.789 740.435   2
   0   7  -5 1630.04 650.256   3
   0   7  -4 5568.57 1165.61   3
   0   7  -3 1203.88 601.540   3
   0   7  -2 63449.9 3261.23   3
   0   7  -1 36658.2 2379.07   3
   0   7   0 57859.3 2739.79   3
   0   7   0 57179.0 3052.12   1
   0   7   1 6978.96 1091.23   1
   0   7   1 6504.23 903.762   3
   0   7   2 30033.7 1853.40   3
   0   7   2 29177.3 2106.73   1
   0   7   3 14052.1 1217.73   3
   0   7   3 14975.7 1503.70   1
   0   7   4 30895.3 2110.98   1
   0  -7  -4 28270.9 1702.80   4
   0   7   4 32312.6 1926.65   3
   0   7   5 4785.69 832.918   1
   0  -7  -5 4087.60 662.511   4
   0   7   5 5441.34 791.343   3
   0   7   6 1158.28 435.920   1
   0   7   6 1488.14 466.708   3
   0   7   7-231.391 277.221   1
   0   7   8 1041.89 460.331   2
   0   7   8 3029.09 672.455   1
   0   7   9 20847.3 2104.49   2
   0   7  10 12912.2 1766.71   2
   0   8  -5 12714.0 1884.66   3
   0   8  -4 615.475 646.876   3
   0   8  -3 22952.1 2260.96   3
   0   8  -2 1783.88 665.484   3
   0   8  -1 15862.4 1696.23   3
   0   8   0 204.641 280.699   3
   0   8   0-921.251 495.052   1
   0   8   1 33680.6 2518.47   1
   0   8   1 34360.6 2206.00   3
   0   8   2-28.0756 312.760   1
   0   8   2 260.397 294.780   3
   0   8   3 9000.53 1280.33   1
   0   8   3 8808.76 1070.75   3
   0   8   4 4677.09 769.524   3
   0   8   4 5824.85 1017.84   1
   0  -8  -4 3301.92 694.885   4
   0   8   5 10470.7 1190.85   3
   0   8   5 11133.8 1391.97   1
   0   8   6 4505.46 875.010   1
   0   8   7 1821.68 574.762   1
   0   8   8-44.8361 789.521   2
   0   8   9 28714.7 2554.04   2
   0   8  10 628.312 709.586   2
   0   9  -3 7063.03 1380.33   3
   0   9  -2 12388.6 1704.26   3
   0   9  -1 6572.84 1215.27   3
   0   9   0 1795.65 685.389   3
   0   9   1 587.445 387.421   3
   0   9   1-793.468 502.272   1
   0   9   2 3100.63 812.706   1
   0   9   2 2202.72 618.294   3
   0   9   3 2996.91 874.166   1
   0   9   3 2786.76 683.540   3
   0   9   4 386.989 443.692   1
   0   9   5-103.879 279.171   1
   0   9   6 10780.7 1490.99   1
   0   9   6 3902.54 691.815   2
   0   9   7 17477.1 1834.85   1
   0   9   7 5502.34 966.447   2
   0   9   8 8669.37 1350.44   2
   0   9   9 9547.15 1580.15   2
   0  10  -2 554.828 525.532   3
   0  10  -1 3707.17 965.867   3
   0  10   0 3869.80 920.268   3
   0  10   1 1255.45 563.986   3
   0  10   2-1226.00 631.127   1
   0  10   3 2812.27 912.072   1
   0  10   4 4566.50 1142.81   1
   0  10   5-149.934 364.247   1
   0  10   6 20183.9 2127.75   1
   0  10   7 3481.92 931.339   1
  -1  10   7 996.829 612.958   1
  -1  10   6 2795.91 920.007   1
  -1  10   5 673.293 531.582   1
  -1  10   4 46689.1 3405.73   1
   1 -10  -3-133.515 583.974   4
  -1  10   3 349.471 445.408   1
  -1  10   2 7480.59 1457.92   1
  -1  10   1 397.761 448.231   1
  -1  10   0 7817.16 1492.12   1
  -1   9   8 6810.21 1244.61   1
  -1   9   7 20236.8 2098.63   1
  -1   9   6 8400.47 1350.48   1
  -1   9   5 28461.0 2490.26   1
  -1   9   4 11944.0 1649.90   1
   1  -9  -4 6787.72 1109.65   4
  -1   9   3 10310.9 1557.72   1
   1  -9  -3 6599.14 1183.31   4
  -1   9   2 6443.95 1274.93   1
  -1   9   1 6618.33 1248.40   1
  -1   9   0 1159.02 613.374   1
  -1   9  -1 3962.10 878.001   3
  -1   9  -1 1821.52 734.442   1
  -1   9  -2 3049.35 864.822   3
  -1   9  -3 5025.63 1095.97   3
  -1   9  -4 8560.71 1518.37   3
  -1   8   9 22950.1 2264.87   2
  -1   8   8 2857.98 818.861   1
  -1   8   7 43176.6 2846.56   1
  -1   8   6 191.465 360.592   1
  -1   8   5 10366.6 1418.65   1
   1  -8  -5 10216.8 1303.62   4
  -1   8   4 10632.0 1398.95   1
   1  -8  -4 7646.72 1095.84   4
  -1   8   3 50274.6 3083.65   1
   1  -8  -3 44172.7 2627.25   4
  -1   8   2 5842.93 813.675   3
  -1   8   2 5467.88 1062.79   1
  -1   8   1 162.133 230.241   3
  -1   8   1-181.710 379.956   1
  -1   8   0 784.550 523.533   1
  -1   8   0 221.671 262.955   3
  -1   8  -1 1607.24 614.375   1
  -1   8  -1 2178.39 632.444   3
  -1   8  -2 1789.22 608.592   3
  -1   8  -3 5329.81 1081.19   3
  -1   8  -5 4814.23 1164.23   3
  -1   7  10 11184.3 1652.43   2
  -1   7   8 10402.3 1332.07   1
  -1   7   7 16699.7 1679.12   1
  -1   7   6 19692.1 1805.85   1
  -1   7   5 3137.95 807.705   1
  -1   7   4 26.6874 352.346   1
   1  -7  -4 330.858 335.682   4
   1  -7  -3 3903.10 765.241   4
  -1   7   3 4068.17 887.154   1
  -1   7   3 5662.63 721.480   3
  -1   7   2 14255.9 1548.42   1
  -1   7   2 16706.1 1244.60   3
  -1   7   1 1042.33 349.282   3
  -1   7   1 885.530 503.597   1
  -1   7   0 3211.91 824.032   1
  -1   7   0 4548.25 760.010   3
  -1   7  -1 4847.48 864.798   3
  -1   7  -1 4415.64 954.493   1
  -1   7  -2 33910.3 2295.18   3
  -1   7  -2 31042.7 2388.70   1
  -1   7  -3 543.327 404.987   3
  -1   7  -4 50319.4 3169.52   3
  -1   7  -6 337.118 466.228   3
  -1   6  10 11125.4 1637.70   2
  -1   6   9 3792.46 804.793   1
  -1   6   9 36.2132 343.794   2
  -1   6   8 3189.74 754.254   1
  -1   6   7 84.9612 287.171   1
  -1   6   6 15141.5 1461.20   1
  -1   6   5 10452.6 909.945   3
  -1   6   5 12064.9 1298.90   1
   1  -6  -4 534.704 397.273   4
  -1   6   4 677.774 253.693   3
  -1   6   4 700.534 452.077   1
   1  -6  -3 2836.48 619.145   4
  -1   6   3 3287.06 728.296   1
  -1   6   3 3458.88 499.497   3
  -1   6   2 18401.2 1604.28   1
  -1   6   2 17550.1 1140.93   3
  -1   6   1 135827. 4307.46   1
  -1   6   1 135162. 3299.67   3
  -1   6   0 91368.1 3563.22   1
  -1   6   0 91888.9 3035.90   3
  -1   6  -1 13607.8 1256.88   3
  -1   6  -1 12589.7 1387.52   1
  -1   6  -2 816.196 444.998   3
  -1   6  -2 199.873 342.059   1
  -1   6  -3 34745.8 2331.02   3
  -1   6  -4 20402.0 1881.50   3
  -1   6  -5 2125.99 657.434   3
  -1   6  -6 7016.56 1339.48   3
  -1   6  -7 3629.08 1008.89   3
  -1   5  11 1670.90 855.430   2
  -1   5  10 5880.73 1172.19   2
  -1   5   9 3520.37 720.096   1
  -1   5   9 1549.07 526.715   2
  -1   5   8 1857.95 564.827   1
  -1   5   7 697.469 379.410   1
  -1   5   6 358.745 400.212   1
  -1   5   5 66158.6 2808.07   1
  -1   5   4 7699.99 951.551   1
  -1   5   4 9093.84 738.666   3
  -1   5   3 87495.1 2218.64   3
   1  -5  -3 84921.3 2710.83   4
  -1   5   3 89510.7 3092.44   1
   1  -5  -2 31443.0 1750.38   4
  -1   5   2 35577.4 1430.60   3
  -1   5   2 33616.1 1921.26   1
  -1   5   1 41308.0 2174.88   1
  -1   5   1 41185.7 1600.84   3
  -1   5   0 9923.07 899.254   3
  -1   5   0 7974.55 978.855   1
  -1   5  -1 89550.8 2891.23   3
  -1   5  -1 89780.1 3296.64   1
  -1   5  -2 18398.5 1556.55   1
   1  -5   2 18875.8 1192.68   2
  -1   5  -2 20437.4 1511.76   3
  -1   5  -3 35142.7 2166.27   3
   1  -5   3 34308.6 1661.77   2
  -1   5  -4 824.827 301.372   3
   1  -5   4 1137.06 344.460   2
  -1   5  -6 412.966 359.065   3
  -1   5  -7 607.880 461.588   3
  -1   5  -8 1029.10 697.733   3
  -1   4  11 2385.74 853.876   2
  -1   4  10 12124.3 1629.50   2
  -1   4   9-22.1053 173.572   1
  -1   4   8 8778.38 1029.88   1
  -1   4   7 8575.82 952.344   1
  -1   4   6 9061.44 936.168   1
  -1   4   5 5490.93 703.313   1
  -1   4   4 33374.1 1838.83   1
  -1   4   3 8675.64 916.533   1
  -1   4   3 7317.57 565.425   3
   1  -4  -3 7075.79 724.987   4
   1  -4  -2 190228. 3812.52   4
  -1   4   2 180649. 2651.69   3
  -1   4   2 184038. 3979.95   1
  -1   4   1 24515.5 1070.12   3
  -1   4   1 24513.8 1500.55   1
  -1   4   0 89057.6 2337.84   3
  -1   4   0 91060.5 2878.61   1
  -1   4  -1 287.364 269.631   1
   1  -4   1 263.067 150.502   2
  -1   4  -1 526.187 231.511   3
  -1   4  -2 141.550 194.060   3
   1  -4   2 109.332 156.856   2
  -1   4  -2 552.327 325.468   1
  -1   4  -3 1459.66 414.776   3
   1  -4   3 1291.90 333.226   2
   1  -4   4 8947.36 833.645   2
  -1   4  -4 8705.83 1110.69   3
  -1   4  -5 916.617 279.532   3
   1  -4   5 658.377 259.702   2
  -1   4  -6 32178.8 2475.54   3
   1  -4   6 34596.5 1827.06   2
  -1   4  -7 10695.6 1533.40   3
  -1   4  -8 11558.8 1689.62   3
  -1   4  -9-121.835 405.905   3
  -1   3  11 363.070 413.518   2
  -1   3  10 514.133 475.966   2
  -1   3   9 54.6377 391.366   2
  -1   3   9 814.417 332.806   1
  -1   3   8 4176.53 824.118   2
  -1   3   8 4876.92 757.423   1
  -1   3   7 23298.7 1578.26   1
  -1   3   6 60145.6 2402.06   1
  -1   3   5 32316.5 1665.30   1
  -1   3   4 67166.4 2287.29   1
  -1   3   3 37094.5 1564.54   1
  -1   3   2 36560.1 985.592   3
   1  -3  -2 33797.4 1409.63   4
  -1   3   1 168495. 2236.20   3
   1  -3  -1 166149. 2260.45   3
  -1   3   0 87066.7 2439.72   1
  -1   3   0 89399.3 1932.73   3
   1  -3   1 14889.0 933.417   2
  -1   3  -1 15461.9 947.686   3
  -1   3  -1 15044.6 1070.05   1
   1  -3   2 20652.6 1075.59   2
  -1   3  -2 20795.0 1291.18   1
  -1   3  -2 21360.8 1285.18   3
   1  -3   3 38458.0 1553.56   2
  -1   3  -3 41832.9 2000.84   3
  -1   3  -4-425.309 285.412   3
   1  -3   4 267.218 213.701   2
   1  -3   5 10935.9 977.049   2
  -1   3  -5 10484.6 1238.38   3
   1  -3   6 56779.8 2381.50   2
  -1   3  -6 60910.4 3230.05   3
   1  -3   7 251.312 298.807   2
  -1   3  -7 207.205 326.479   3
  -1   3  -8 25332.2 2410.22   3
  -1   3  -9 7886.66 1461.37   3
  -1   2  11 8923.91 1452.83   2
  -1   2  10 564.564 466.551   2
  -1   2   9 16902.8 1735.81   2
  -1   2   9 18156.6 1525.70   1
  -1   2   8 111.458 324.961   2
  -1   2   8 53.0092 200.547   1
  -1   2   7 78337.8 2792.54   1
  -1   2   6 12636.6 1052.99   1
  -1   2   5 179826. 3796.24   1
  -1   2   4 207.578 154.031   1
  -1   2   3 135921. 2962.00   1
  -1   2   3 145191. 2099.70   3
  -1   2   2 346.154 204.694   1
   1  -2  -1 213985. 3155.23   4
  -1   2   1 206288. 3196.59   1
  -1   2   1 213610. 1653.97   3
   1  -2   0 6379.68 549.702   2
  -1   2   0 7525.73 452.518   3
   1  -2   0 5852.15 388.786   3
  -1   2   0 6882.63 602.600   1
   1  -2   1 20809.1 957.643   2
  -1   2  -1 21483.4 1054.85   1
  -1   2  -1 21897.8 963.805   3
  -1   2  -2 14633.1 980.174   3
  -1   2  -2 13422.0 866.840   1
   1  -2   2 14468.2 837.791   2
   1  -2   3 4116.91 506.084   2
  -1   2  -3 3721.21 572.946   3
   1  -2   4 1928.18 391.540   2
  -1   2  -4 2009.72 463.795   3
   1  -2   5 29023.2 1578.47   2
  -1   2  -5 28788.0 1910.73   3
  -1   2  -6 515.174 304.142   3
   1  -2   6 611.701 312.284   2
   1  -2   7 24037.7 1695.13   2
  -1   2  -7 22567.5 2007.41   3
  -1   2  -8 1534.49 602.744   3
   1  -2   8 1269.68 439.827   2
  -1   2  -9 29833.7 2758.09   3
   1  -2   9 34111.3 2289.01   2
  -1   2 -10 493.271 591.141   3
  -1   1  11 13945.5 1716.50   2
  -1   1  10 5033.27 1013.80   2
  -1   1   9 5265.14 826.260   1
  -1   1   9 5405.85 948.928   2
   1  -1  -8 31414.0 2240.85   3
  -1   1   8 32742.2 2215.19   2
  -1   1   8 33963.9 1934.70   1
  -1   1   7 27070.6 1858.20   2
  -1   1   7 23877.1 1530.87   1
   1  -1  -7 24795.9 1813.57   3
  -1   1   6 6455.64 736.106   1
   1  -1  -6 5505.61 779.892   3
   1  -1  -5 37909.3 1769.56   3
  -1   1   5 37881.4 1662.61   1
   1  -1  -4 4852.24 541.790   3
  -1   1   4 5065.54 569.018   1
   1  -1  -3 170913. 2628.90   3
  -1   1   3 166141. 3005.49   1
   1  -1  -2 20851.2 666.713   3
  -1   1   2 21424.8 988.271   1
  -1   1   2 23106.7 662.193   3
  -1   1   1 4969.76 447.089   4
  -1   1   1 4469.08 425.558   1
   1  -1   0 189431. 2478.10   1
   1  -1   0 179686. 2597.20   2
   1  -1   0 190858. 1593.88   3
   1  -1   0 192525. 2662.42   4
  -1   1   0 182616. 2315.50   1
  -1   1   0 185252. 2520.72   2
  -1   1   0 186492. 1690.00   3
   1  -1   1 65082.0 1523.13   2
  -1   1  -1 63296.1 1401.17   1
  -1   1  -1 66077.2 1547.20   2
   1  -1   1 60609.4 1400.10   3
   1  -1   1 69755.3 1501.53   1
  -1   1  -1 64400.2 1456.17   3
  -1   1  -2 9315.74 571.303   1
   1  -1   2 10387.7 686.259   2
   1  -1   2 9473.72 552.380   1
  -1   1  -2 10278.3 732.228   3
   1  -1   3 5873.00 591.120   2
  -1   1  -3 5128.79 607.147   3
   1  -1   4 14233.2 1030.81   2
  -1   1  -4 13376.7 1118.37   3
   1  -1   5 1301.01 377.749   2
  -1   1  -5 762.330 294.195   3
  -1   1  -6 115841. 4054.22   3
   1  -1   6 112768. 3405.70   2
   1  -1   7 41946.8 2250.43   2
  -1   1  -7 43152.4 2671.99   3
  -1   1  -8 424.021 364.941   3
   1  -1   8-59.2292 235.008   2
  -1   1  -9 344.760 436.489   3
   1  -1   9-209.705 311.361   2
   1  -1  10 5708.62 1047.47   2
   1  -1  11 8777.93 1381.34   2
   1   0 -10 799.126 592.413   3
  -1   0  10 1363.41 534.460   2
  -1   0   9 120.014 342.280   2
  -1   0   9 330.744 217.923   1
   1   0  -9-148.272 412.245   3
  -1   0   8 21088.9 1734.66   2
   1   0  -8 19162.6 1833.08   3
  -1   0   8 21883.0 1571.60   1
  -1   0   7 3162.37 659.187   2
   1   0  -7 2915.17 655.316   3
  -1   0   6 15916.1 1285.13   2
   1   0  -6 16333.9 1395.29   3
   1   0  -5 19267.8 1355.63   3
   1   0  -4 53530.2 1995.07   3
   1   0  -3 16031.7 904.022   3
  -1   0   2 1322.68 216.940   3
   1   0  -2 1395.87 242.682   3
   1   0  -1 118362. 1536.61   3
  -1   0   1 120044. 1478.73   3
   1   0   0 565.441 149.546   2
  -1   0   0 625.718 131.837   1
  -1   0   0 584.269 151.568   2
   1   0   1 107090. 1211.15   1
   1   0   1 108843. 1802.05   2
   1   0   1 106676. 1582.00   4
  -1   0  -1 108363. 1227.95   1
   1   0   2 986290. 6639.93   2
   1   0   2 982644. 3337.73   1
  -1   0  -2 999999. 3522.23   1
  -1   0  -3 85780.3 2383.82   3
   1   0   3 88286.1 1259.10   1
   1   0   3 87776.8 2194.32   2
   1   0   4 2308.79 437.486   2
  -1   0  -4 2222.05 441.971   3
   1   0   4 2386.02 259.900   1
  -1   0  -5 11259.6 1095.59   3
   1   0   5 11707.8 1005.47   2
   1   0   6 66744.2 2587.59   2
  -1   0  -6 66102.9 2927.96   3
   1   0   7 1381.34 476.820   2
  -1   0  -7 1425.92 484.948   3
   1   0   8 14182.3 1402.80   2
   1   0   9 864.327 431.389   2
   1   0  10 1143.15 586.981   2
   1   0  11 4747.75 1036.77   2
   1   1 -10 2741.38 993.167   3
   1   1  -9 2746.56 835.128   3
  -1  -1   9 4259.76 825.947   2
   1   1  -8 16327.6 1753.48   3
  -1  -1   8 19215.9 1580.66   2
   1   1  -7 466.072 315.872   3
  -1  -1   7 204.452 235.898   2
   1   1  -6 4404.12 773.289   3
  -1  -1   6 4983.92 691.876   2
   1   1  -5 2328.49 495.120   3
  -1  -1   5 3357.54 536.166   2
   1   1  -4 11511.5 1008.02   3
  -1  -1   4 12007.7 860.634   2
   1   1  -3 102215. 2615.26   3
   1   1  -2 2339.70 369.241   3
   1   1  -1 529190. 4504.16   3
  -1  -1   1 529172. 4169.10   3
   1   1   0 21388.8 610.415   2
  -1  -1   0 21346.3 805.132   3
  -1  -1   0 23055.6 619.804   2
   1   1   0 21955.2 829.429   3
  -1  -1  -1 64969.2 1330.45   2
   1   1   1 62913.4 1335.07   2
   1   1   2 980.956 247.540   2
   1   1   2 1219.97 132.713   4
   1   1   3 86995.7 2205.82   2
   1   1   4 8054.43 371.569   1
   1   1   4 8369.18 782.031   2
   1   1   5 113286. 3121.11   2
   1   1   5 105446. 1678.36   1
   1   1   6 319.792 301.793   2
   1   1   6 289.954 129.669   1
   1   1   7 9243.16 1091.64   2
   1   1   7 8827.29 654.448   1
   1   1   8 9618.87 1178.71   2
   1   1   9 5539.84 996.086   2
   1   1  10 1880.68 646.701   2
   1   1  11 1451.99 665.744   2
   1   2 -10 2326.32 942.845   3
   1   2  -9 272.385 451.809   3
   1   2  -8 5254.82 1069.85   3
  -1  -2   7 1017.85 386.172   2
   1   2  -7 731.991 442.695   3
  -1  -2   6 12818.5 1055.61   2
   1   2  -6 7366.94 1094.28   3
  -1  -2   5 45318.7 1776.30   2
   1   2  -5 41151.7 2285.84   3
   1   2  -4 19140.8 1455.37   3
  -1  -2   4 22629.4 1096.31   2
   1   2  -3 7220.75 813.387   3
  -1  -2   3 9421.26 594.719   2
   1   2  -2 14012.0 977.796   3
  -1  -2   2 13963.1 576.744   2
   1   2  -1 27558.5 1241.88   3
  -1  -2   0 415670. 2245.26   2
   1   2   0 415007. 2152.18   2
  -1  -2  -1 122090. 1811.77   2
  -1  -2  -1 122643. 2081.51   1
   1   2   1 118553. 1775.48   2
   1   2   2 41770.3 1061.93   1
  -1  -2  -2 43577.9 1096.81   1
   1   2   2 40483.3 1299.12   2
  -1  -2  -3 2371.34 237.185   1
   1   2   3 2373.45 240.614   1
   1   2   3 2036.31 387.906   2
  -1  -2  -4 7487.52 425.533   1
   1   2   4 7864.84 429.845   1
   1   2   5 28649.5 1597.59   2
   1   2   5 28818.1 882.469   1
   1   2   6 3860.73 376.794   1
   1   2   6 3119.00 604.376   2
   1   2   7 1182.59 453.735   2
   1   2   7 1762.13 286.318   1
   1   2   8 28984.0 2060.10   2
   1   2   9 34386.4 2393.88   2
   1   2  10 26445.2 2257.76   2
   1   2  11 4916.32 1053.27   2
   1   3  -9 323.895 571.255   3
   1   3  -8 7511.17 1360.51   3
   1   3  -7-197.300 761.641   3
  -1  -3   6 1304.78 345.516   2
  -1  -3   5 35665.7 1475.86   2
   1   3  -5 33278.3 2271.13   3
   1   3  -4 140700. 4188.79   3
  -1  -3   4 150187. 2593.26   2
  -1  -3   3 7409.63 471.362   2
   1   3  -3 6211.87 832.911   3
  -1  -3   2 65885.4 924.035   2
   1   3  -2 79132.4 2594.10   3
   1   3  -1 27521.3 1430.09   3
   1   3   0 90532.6 2374.37   3
   1   3   1 99795.7 1669.14   2
   1   3   1 96818.2 2448.98   3
   1   3   2 9845.92 672.891   2
   1   3   2 10490.7 724.639   1
   1   3   3 60714.3 1632.26   1
   1   3   3 59846.4 1917.33   2
   1   3   4 4106.63 423.636   1
   1   3   4 3516.97 558.480   2
   1   3   5 3039.67 373.330   1
   1   3   5 2493.00 539.944   2
   1   3   6 34970.9 1954.64   2
   1   3   6 38333.7 1318.54   1
   1   3   7 303.413 335.198   2
   1   3   7 80.9892 138.942   1
   1   3   8 66074.7 3115.32   2
   1   3   9 82.8642 326.665   2
   1   3  10 37400.2 2685.81   2
   1   3  11 3831.12 1002.05   2
   1   4  -9 10901.5 1853.29   3
   1   4  -8 877.390 634.578   3
   1   4  -7 12505.2 1746.49   3
   1   4  -6 1777.59 655.712   3
   1   4  -5 80550.5 3715.24   3
   1   4  -4 35124.5 2301.63   3
   1   4  -3 51652.6 2564.43   3
  -1  -4   3 52929.4 989.748   2
   1   4  -2 1690.07 458.938   3
   1   4  -1 234232. 4690.74   3
   1   4   0 5109.86 668.104   3
   1   4   1 14220.0 1047.94   1
   1   4   1 14330.4 1093.99   3
   1   4   1 13880.0 667.944   2
   1   4   2 17076.8 1095.77   1
   1   4   2 16660.2 1159.81   3
   1   4   2 18412.1 972.080   2
   1   4   3 24782.3 1258.47   1
   1   4   3 24457.1 1280.04   2
  -1  -4  -4 58135.2 1049.69   4
   1   4   4 59356.4 2184.79   2
   1   4   4 58530.3 1871.45   1
   1   4   5 5697.22 589.653   1
   1   4   5 4943.99 716.898   2
   1   4   6 7712.62 680.267   1
   1   4   6 6909.26 929.917   2
   1   4   7 26152.3 1871.41   2
   1   4   7 27324.3 1291.61   1
   1   4   8 2630.65 695.781   2
   1   4   9 40812.2 2706.55   2
   1   4  10 15094.8 1752.55   2
   1   4  11 9533.07 1492.63   2
   1   5  -8 842.992 644.886   3
   1   5  -7 14560.8 1943.07   3
   1   5  -6 24008.9 2338.49   3
   1   5  -5 21641.1 2084.13   3
   1   5  -4 3893.03 887.511   3
   1   5  -3 77850.3 3427.34   3
   1   5  -2 2422.29 586.615   3
   1   5  -1 15703.2 1339.08   3
   1   5   0 9734.70 388.299   2
   1   5   0 7809.35 385.729   2
   1   5   1 7104.02 856.684   1
   1   5   1 6809.90 815.422   3
   1   5   1 6252.40 503.944   2
   1   5   2 9765.53 982.513   1
   1   5   2 8890.72 711.775   2
   1   5   2 8528.69 927.829   3
   1   5   3 10283.9 1008.73   3
   1   5   3 11515.6 1012.12   1
   1   5   3 9703.08 853.461   2
   1   5   4 30628.3 1607.25   1
   1   5   4 27612.2 1583.42   2
   1   5   5 1639.41 388.448   1
   1   5   5 1680.32 487.524   2
   1   5   6 845.273 297.635   1
   1   5   6 637.740 348.521   2
   1   5   7 50803.6 1993.33   1
   1   5   7 44322.0 2494.12   2
   1   5   8 38880.4 2505.68   2
   1   5   9 17192.6 1790.01   2
   1   5  10 1537.44 694.184   2
   1   5  11 2259.74 808.812   2
   1   6  -6 92.0914 517.582   3
   1   6  -5 2788.66 907.657   3
   1   6  -4 29194.7 2453.64   3
   1   6  -3 1142.37 514.278   3
   1   6  -2 15268.9 1604.99   3
   1   6  -1 4976.28 836.095   3
   1   6   0 44.9411 69.8421   2
   1   6   0 117.070 231.377   3
   1   6   1 25436.3 1016.67   2
   1   6   1 25582.9 1747.09   3
   1   6   2 43469.7 2271.74   1
   1   6   2 45079.7 2272.25   3
   1   6   2 47815.3 1698.24   2
   1   6   3-571.207 289.753   2
   1   6   3 30.3010 230.456   3
   1   6   3-60.5866 218.738   1
   1   6   4 74748.5 2785.21   1
   1   6   4 75201.0 2670.08   2
   1   6   4 69621.5 2864.56   3
   1   6   5 2558.00 563.907   1
   1   6   5 1965.35 514.192   2
  -1  -6  -5 2018.09 352.735   4
   1   6   6 61871.6 2491.24   1
   1   6   6 57231.6 2700.97   2
   1   6   7 1567.59 566.033   2
   1   6   7 2389.39 506.956   1
   1   6   8 8485.80 1258.32   2
   1   6   9 2730.76 810.252   2
   1   6  10 21805.5 2178.16   2
   1   6  11 724.272 701.600   2
   1   7  -6-340.727 653.317   3
   1   7  -5 900.329 741.188   3
   1   7  -4 2026.38 773.443   3
   1   7  -3 12767.1 1659.44   3
   1   7  -2 1102.05 599.178   3
   1   7  -1 3718.54 792.109   3
   1   7   0 12647.7 1384.90   3
   1   7   1 65787.6 3036.47   3
   1   7   2 3519.99 694.098   3
   1   7   2 3052.77 507.308   2
   1   7   2 2911.17 677.118   1
   1   7   3 32619.6 2120.42   1
   1   7   3 30584.5 2031.80   3
   1   7   3 28825.0 1573.56   2
   1   7   4 18949.8 1591.72   3
   1   7   4 17607.9 1535.19   1
   1   7   4 15589.6 1282.36   2
   1   7   5 13840.4 1327.62   1
   1   7   5 12125.2 1299.47   3
   1   7   5 13558.7 1312.00   2
   1   7   6 6861.64 925.159   1
   1   7   6 6744.39 992.938   2
   1   7   7 20959.4 1604.53   1
   1   7   7 18424.8 1710.30   2
   1   7   8 7047.67 1198.10   2
   1   7   9 635.436 623.695   2
   1   7  10 1016.75 651.873   2
   1   8  -4 1067.32 695.251   3
   1   8  -3 4286.61 1072.08   3
   1   8  -2 13988.7 1751.36   3
   1   8  -1 25186.5 2202.28   3
   1   8   0 751.518 397.396   3
   1   8   1 3862.86 857.298   3
   1   8   2 28597.8 2118.52   3
   1   8   2 27030.2 2176.44   1
   1   8   3 36439.2 2439.95   1
   1   8   3 36175.0 2308.62   3
   1   8   4 442.103 393.935   2
   1   8   4 534.001 353.113   1
   1   8   4 242.082 311.831   3
   1   8   5 295.033 316.942   1
   1   8   5 948.085 505.678   3
   1   8   5 896.500 523.516   2
   1   8   6 524.647 438.159   3
   1   8   6 483.128 492.814   2
   1   8   6 619.879 367.175   1
   1   8   7 1111.81 586.721   2
   1   8   7 437.151 307.120   1
   1   8   7 263.035 329.308   3
   1   8   8 1216.03 654.497   2
   1   8   9 2016.04 851.308   2
   1   8  10 4070.65 1147.22   2
   1   9  -3 4923.39 1197.41   3
   1   9  -2 34069.7 2878.21   3
   1   9  -1 1053.04 581.211   3
   1   9   0 22162.5 2109.49   3
   1   9   1 598.105 441.964   3
   1   9   2 16573.6 1757.46   3
   1   9   3 243.576 343.443   1
   1   9   3 577.217 400.131   3
   1   9   4 1611.65 589.126   1
   1   9   4 440.003 343.397   3
   1   9   5 10009.0 1385.25   1
   1   9   5 9222.55 1267.45   3
   1   9   6 816.484 401.059   3
   1   9   6 735.145 444.940   1
   1   9   7 1252.02 623.115   2
   1   9   8 12729.1 1668.51   2
   1   9   9 1192.75 739.290   2
   1  10  -1 19068.1 2245.56   3
   1  10   0 857.579 546.909   3
   1  10   1 17695.2 1948.61   3
   1  10   2 693.974 455.856   3
   1  10   3 5906.03 1104.36   3
   1  10   4 3372.91 862.454   3
   1  10   4 1979.13 700.821   1
   1  10   5 3744.92 916.952   1
   1  10   5 3751.02 862.820   3
   1  10   6 13709.7 1676.83   1
   1  11   1 3164.34 903.726   3
   1  11   2 5416.37 1126.09   3
   2 -10  -3 69.1847 627.497   4
   2 -10  -2 13903.4 1936.59   4
   2 -10  -1 4746.24 1260.19   4
  -2   9   7 11176.2 1718.72   1
  -2   9   6 330.265 540.986   1
  -2   9   5 29918.3 2678.32   1
  -2   9   4 171.029 374.553   1
   2  -9  -4 914.024 792.077   4
  -2   9   3 31915.9 2780.29   1
   2  -9  -3 22391.3 2131.84   4
   2  -9  -2-87.9963 631.776   4
  -2   9   2-58.3880 413.767   1
  -2   9   1 18781.8 2195.61   1
   2  -9  -1 14423.6 1825.51   4
  -2   9   0-601.878 556.585   1
  -2   9  -1 3015.56 934.989   1
  -2   9  -2 3.43581 512.076   1
  -2   8   9 3976.01 989.915   1
  -2   8   8 13985.3 1781.48   1
  -2   8   7 27783.9 2482.33   1
  -2   8   6 24212.4 2313.16   1
  -2   8   5 19339.5 2050.14   1
  -2   8   4 39356.7 2833.36   1
   2  -8  -4 33013.0 2385.53   4
  -2   8   3 12584.4 1648.02   1
   2  -8  -3 9152.51 1301.93   4
   2  -8  -2 23168.4 2097.17   4
  -2   8   2 28226.8 2462.66   1
  -2   8   1 11522.6 1594.48   1
   2  -8  -1 12511.2 1571.09   4
  -2   8   0 7070.56 1327.98   1
  -2   8  -1-81.2635 451.622   1
  -2   8  -2-775.699 545.697   1
  -2   8  -3 3008.05 794.567   3
  -2   8  -4 3494.21 906.731   3
  -2   8  -5 4323.22 1098.29   3
  -2   7   9-253.423 354.916   1
  -2   7   8 52607.5 3248.24   1
  -2   7   7-372.566 455.544   1
  -2   7   6 19784.9 1921.61   1
  -2   7   5 254.384 415.204   1
   2  -7  -4 99590.2 3843.52   4
  -2   7   4 101076. 4237.03   1
  -2   7   3 305.214 469.280   1
   2  -7  -3-30.7618 345.774   4
  -2   7   2 5453.03 1021.71   1
   2  -7  -2 4212.60 884.760   4
  -2   7   1 421.682 412.427   1
   2  -7  -1 19.5961 470.448   4
  -2   7   0 195.066 194.501   3
  -2   7   0-156.055 365.017   1
  -2   7  -1-257.769 248.989   3
  -2   7  -1-375.501 465.087   1
  -2   7  -2 91.9702 162.944   3
  -2   7  -2 171.515 388.793   1
  -2   7  -3 1697.80 551.743   3
  -2   7  -3-59.9815 322.514   1
  -2   7  -4 22954.9 2145.73   3
  -2   7  -5 2573.51 778.589   3
  -2   7  -6 50215.6 3606.11   3
  -2   6   9 27866.4 2356.02   1
  -2   6   8 21961.6 2137.09   1
  -2   6   7 24872.2 2168.42   1
  -2   6   6 8088.43 1230.30   1
  -2   6   5 8876.61 1250.54   1
  -2   6   4 469.376 492.724   1
  -2   6   3 1250.80 549.958   1
   2  -6  -3 1460.06 529.168   4
  -2   6   2 12987.1 1460.54   1
   2  -6  -2 11731.1 1274.76   4
   2  -6  -1 360.064 340.146   4
  -2   6   1 970.593 289.636   3
  -2   6   0 8349.97 1157.10   1
  -2   6   0 10561.4 970.922   3
  -2   6  -1 55981.5 2995.04   1
  -2   6  -1 64670.5 2600.38   3
  -2   6  -2 18407.4 1518.37   3
  -2   6  -2 13166.0 1507.95   1
   2  -6   3 19225.8 1495.41   2
  -2   6  -3 19766.6 1742.22   3
  -2   6  -4 1886.36 607.978   3
  -2   6  -5 29276.7 2444.57   3
  -2   6  -6 10485.0 1571.45   3
  -2   6  -7 21603.5 2381.03   3
  -2   5   9 126.127 222.663   1
  -2   5   8 10625.7 1214.07   1
  -2   5   7 18895.5 1629.26   1
  -2   5   6 612.598 305.927   1
  -2   5   5 5540.81 943.881   1
  -2   5   4 3207.91 758.521   1
  -2   5   3 726.263 431.122   1
  -2   5   3 945.180 170.083   3
   2  -5  -3 1178.45 469.030   4
   2  -5  -2 4184.28 718.721   4
  -2   5   2 4967.80 437.378   3
  -2   5   2 2874.72 670.093   1
   2  -5  -1 55178.6 2592.00   4
  -2   5   1 62190.6 1783.05   3
  -2   5   1 57483.6 2743.88   1
  -2   5   0 1543.27 505.690   1
  -2   5   0 1257.04 311.803   3
  -2   5  -1 497.023 213.398   3
  -2   5  -1 391.395 316.432   1
  -2   5  -2 468.987 198.435   3
   2  -5   2 725.505 333.645   2
  -2   5  -2 376.781 344.837   1
  -2   5  -3 90485.7 3445.68   3
   2  -5   3 86472.8 3120.64   2
  -2   5  -3 86547.1 3491.85   1
   2  -5   4 21969.4 1595.70   2
  -2   5  -4 21415.1 1832.53   3
   2  -5   5 36444.7 2081.04   2
  -2   5  -5 32453.1 2432.31   3
  -2   5  -6 277.513 247.178   3
  -2   5  -7 4326.17 1023.95   3
  -2   5  -8-40.4443 408.900   3
  -2   4  10 8682.79 1457.42   2
  -2   4   9 169.291 242.899   1
  -2   4   8 41844.5 2513.79   1
  -2   4   7 3617.46 707.795   1
  -2   4   6 14220.2 1356.46   1
  -2   4   5 2479.53 586.604   1
  -2   4   4 5653.94 360.594   3
  -2   4   4 4958.78 706.925   1
  -2   4   3 8801.10 990.063   1
  -2   4   3 8971.93 334.673   3
  -2   4   2 9104.85 1062.10   1
   2  -4  -2 8848.64 948.487   4
  -2   4   2 9422.47 438.100   3
   2  -4  -1 2391.79 525.861   4
   2  -4  -1 2331.41 337.588   3
  -2   4   1 2140.27 549.957   1
  -2   4   1 3307.23 346.710   3
  -2   4   0 84687.8 2966.23   1
   2  -4   0 85316.8 3003.35   4
  -2   4   0 83828.1 2092.72   3
   2  -4   1 3848.82 635.475   2
  -2   4  -1 3341.73 644.912   1
  -2   4  -1 4056.57 547.933   3
   2  -4   2 16542.8 1292.47   2
  -2   4  -2 13066.3 1224.00   1
  -2   4  -2 16569.2 1243.67   3
  -2   4  -3 156.828 134.470   3
  -2   4  -3 113.401 236.870   1
   2  -4   3 90.6584 176.273   2
  -2   4  -4 2045.08 526.979   3
  -2   4  -4 1149.08 413.209   1
   2  -4   4 2497.56 551.872   2
  -2   4  -5 1119.81 437.747   3
   2  -4   5 1163.27 421.398   2
   2  -4   6 14943.0 1375.81   2
  -2   4  -6 14303.1 1654.89   3
  -2   4  -7 1568.54 625.145   3
  -2   4  -8 6230.03 1269.10   3
  -2   4  -9 769.808 658.261   3
  -2   3  11 462.605 628.919   2
  -2   3  10 511.828 375.537   1
  -2   3   9 388.756 327.819   1
  -2   3   8 836.241 349.356   1
  -2   3   7 825.799 334.307   1
  -2   3   6 7124.89 958.653   1
  -2   3   5 69431.8 2810.94   1
  -2   3   4 7890.31 905.673   1
  -2   3   4 10331.6 501.823   3
  -2   3   3 72018.5 2621.82   1
  -2   3   2 2182.47 430.550   1
  -2   3   1 61726.4 1179.48   3
   2  -3  -1 61021.5 1087.47   3
   2  -3   0 288.647 142.316   3
  -2   3   0 724.983 179.772   3
  -2   3   0 580.299 327.060   1
   2  -3   0 637.163 277.415   4
   2  -3   1 42129.0 1929.18   2
  -2   3  -1 41443.8 1866.26   1
  -2   3  -1 40944.2 1577.39   3
   2  -3   2 4252.77 625.713   2
  -2   3  -2 3809.12 608.270   1
  -2   3  -2 4825.62 615.646   3
  -2   3  -3 21245.0 1383.80   1
   2  -3   3 23648.0 1463.07   2
  -2   3  -3 22843.0 1502.04   3
  -2   3  -4 38.9089 59.1045   3
  -2   3  -4-167.288 196.165   1
   2  -3   4 67.3864 181.545   2
  -2   3  -5 1023.35 381.704   3
   2  -3   5 884.793 336.640   2
  -2   3  -6 340.781 290.234   3
   2  -3   6 817.644 364.209   2
   2  -3   7 9553.43 1145.45   2
  -2   3  -7 9227.25 1375.39   3
   2  -3   8 3324.84 715.462   2
  -2   3  -8 2201.00 743.752   3
  -2   3  -9 4571.99 1151.64   3
  -2   2  11 2253.72 791.894   2
  -2   2  10 1614.08 684.792   2
  -2   2  10 2351.01 660.375   1
  -2   2   9 5963.55 995.475   1
  -2   2   9 6465.99 1111.74   2
  -2   2   8 6816.38 984.834   1
  -2   2   7 19561.9 1574.81   1
  -2   2   6 35313.6 2014.63   1
  -2   2   5 104556. 3301.68   1
  -2   2   4 13465.4 1141.08   1
  -2   2   3 43632.0 1964.06   1
  -2   2   3 44491.9 876.278   3
  -2   2   2 357388. 5329.41   1
  -2   2   1 244737. 4118.24   1
   2  -2   0 2657.05 469.739   2
   2  -2   0 2537.99 432.320   4
   2  -2   0 2097.08 258.495   3
  -2   2   0 2128.58 359.986   1
   2  -2   1 12281.9 969.539   2
  -2   2  -1 11855.9 779.807   3
  -2   2  -1 11357.8 869.126   1
   2  -2   1 11147.5 930.502   4
   2  -2   2 28177.0 1466.17   2
  -2   2  -2 30766.0 1435.86   3
  -2   2  -2 28959.5 1372.92   1
  -2   2  -3 273.035 175.250   3
   2  -2   3 342.139 203.431   2
  -2   2  -3 291.732 204.488   1
   2  -2   4 2447.03 500.645   2
  -2   2  -4 1592.48 341.403   1
  -2   2  -4 2709.08 533.295   3
   2  -2   5 8021.11 913.425   2
  -2   2  -5 9943.62 1155.83   3
   2  -2   6 7224.33 933.518   2
  -2   2  -6 6658.40 1016.33   3
   2  -2   7 15784.3 1458.19   2
  -2   2  -7 17207.1 1803.49   3
   2  -2   8 8895.68 1183.47   2
  -2   2  -8 7768.22 1335.24   3
   2  -2   9 14010.6 1542.36   2
   2  -2  10 2845.24 741.454   2
  -2   1  11 876.053 471.585   2
  -2   1  10 3467.61 867.365   2
  -2   1  10 3324.36 772.029   1
  -2   1   9 16858.4 1599.10   1
  -2   1   9 16276.6 1748.72   2
   2  -1  -9 11835.5 1532.11   3
  -2   1   8 24610.6 1836.10   1
   2  -1  -8 20455.8 1769.99   3
   2  -1  -7 8.31668 198.073   3
  -2   1   7 407.659 279.529   1
  -2   1   6 149264. 4055.53   1
   2  -1  -6 144991. 3816.88   3
  -2   1   5 9749.32 989.959   1
   2  -1  -5 9105.63 854.430   3
   2  -1  -4 89964.8 2309.57   3
  -2   1   4 84849.3 2743.87   1
  -2   1   3 5178.64 654.041   1
   2  -1  -3 2975.55 334.779   3
  -2   1   2 132404. 2999.81   1
  -2   1   2 134940. 1653.72   3
   2  -1  -2 132530. 1699.62   3
   2  -1  -1 64.7370 65.9340   3
  -2   1   1 97.1033 112.129   1
  -2   1   0 178526. 3115.91   1
   2  -1   0 175994. 3440.02   2
   2  -1   1 13349.7 928.663   2
   2  -1   1 13889.2 905.986   4
  -2   1  -1 10843.1 663.421   1
   2  -1   2 65906.2 2115.94   2
   2  -1   2 67109.7 2053.32   4
  -2   1  -2 67009.1 1701.02   1
  -2   1  -3 1942.78 311.899   1
   2  -1   3 3008.53 496.420   2
   2  -1   4 2526.28 490.957   2
  -2   1  -4 2546.32 493.053   3
  -2   1  -5 227.835 208.107   3
   2  -1   5-95.3574 174.745   2
   2  -1   6 65770.9 2770.93   2
  -2   1  -6 74198.0 3300.55   3
   2  -1   7 57.6156 279.406   2
   2  -1   8 74070.4 3329.19   2
   2  -1   9-538.068 379.233   2
   2  -1  10 10395.1 1425.41   2
   2  -1  11 1186.65 564.205   2
   2   0 -11 719.203 847.241   3
  -2   0  10 13237.5 1563.32   2
  -2   0  10 11868.3 1435.29   1
  -2   0   9 21428.5 1819.28   1
  -2   0   9 22433.0 1931.31   2
   2   0  -9 18079.5 1932.28   3
  -2   0   8 6671.38 958.146   1
   2   0  -8 4122.70 886.718   3
  -2   0   8 6528.13 982.761   2
   2   0  -7 754.501 426.568   3
  -2   0   7 1720.36 488.677   1
   2   0  -6 59048.2 2664.04   3
   2   0  -5 64410.5 2478.47   3
   2   0  -4 44440.7 1811.30   3
   2   0  -3 2207.46 386.737   3
   2   0  -2 8534.33 584.856   3
   2   0  -1 22638.0 845.794   3
  -2   0   1 22479.5 1107.13   1
  -2   0   0 49762.2 1479.49   1
   2   0   0 52788.7 1702.96   2
  -2   0  -1 65188.7 1548.21   1
   2   0   1 65351.4 1904.90   2
   2   0   2 99727.2 2137.97   4
   2   0   2 97079.5 2424.73   2
   2   0   2 98209.3 1608.38   1
  -2   0  -2 95929.6 1606.08   1
   2   0   3 2796.33 245.453   1
   2   0   3 2459.02 377.615   4
   2   0   3 2291.30 437.392   2
  -2   0  -3 2166.64 231.801   1
   2   0   4 95033.1 2818.56   2
   2   0   4 91946.6 1320.80   1
   2   0   5 184098. 4264.81   2
   2   0   5 176385. 2046.21   1
   2   0   6 26397.3 1780.70   2
   2   0   7 19653.2 1661.56   2
   2   0   8 33997.1 2333.58   2
   2   0   9 41107.3 2730.50   2
   2   0  10 8493.48 1308.42   2
   2   0  11 9385.40 1431.21   2
   2   1 -10 242.948 656.143   3
   2   1  -9 16794.8 1945.12   3
  -2  -1   8 504.709 255.399   2
   2   1  -8 640.237 517.618   3
  -2  -1   7 27409.3 1863.48   2
   2   1  -7 22117.1 1940.36   3
   2   1  -6 16593.8 1529.47   3
   2   1  -5 14089.9 1274.78   3
   2   1  -4 19062.7 1332.40   3
   2   1  -3 11150.0 921.793   3
   2   1  -2 98720.0 2384.51   3
   2   1  -1 4800.78 484.508   3
   2   1   0 8875.15 647.110   2
   2   1   0 8818.76 654.588   3
   2   1   1 279523. 3665.45   2
   2   1   2 23826.8 1180.33   2
  -2  -1  -2 23056.6 920.315   4
  -2  -1  -2 22788.4 719.049   1
   2   1   3 59916.3 2052.15   2
   2   1   3 57817.4 1418.93   4
   2   1   4 461.914 249.012   2
   2   1   4 792.068 197.479   4
   2   1   5 122635. 3519.21   2
   2   1   6-144.670 233.441   2
   2   1   7 137461. 4275.03   2
   2   1   8 68.3499 336.823   2
   2   1   9 1906.80 635.281   2
   2   1  10 385.445 388.596   2
   2   1  11 2144.03 758.024   2
   2   2 -10 6018.17 1403.87   3
   2   2  -9 38.9886 626.243   3
   2   2  -8 9293.29 1452.01   3
   2   2  -7-182.141 754.328   3
   2   2  -6 17947.7 1663.44   3
  -2  -2   6 22342.0 1505.36   2
  -2  -2   5 8654.09 827.232   2
   2   2  -5 7087.58 1012.34   3
   2   2  -4 50.8955 262.476   3
   2   2  -3 5388.05 746.084   3
   2   2  -2 6163.35 704.407   3
  -2  -2   1 2732.84 302.679   2
   2   2  -1 1666.06 345.927   3
   2   2   0 18449.9 824.991   2
  -2  -2   0 21310.0 851.692   2
   2   2   0 19825.1 1141.79   3
   2   2   1 601.733 191.685   2
   2   2   2 229169. 3593.91   2
  -2  -2  -3 102378. 1519.95   1
  -2  -2  -3 96090.7 1590.50   4
   2   2   3 100812. 2675.45   2
   2   2   4 2650.46 523.637   2
   2   2   5 7004.86 396.292   4
   2   2   5 6407.02 809.436   2
   2   2   6 11113.0 1127.45   2
   2   2   6 11017.6 579.325   4
   2   2   7 9011.25 1114.51   2
   2   2   8 2704.45 719.744   2
   2   2   9 3237.42 813.406   2
   2   2  10 863.389 568.570   2
   2   2  11-378.406 460.904   2
   2   3  -9-22.0955 667.091   3
   2   3  -8 800.383 475.945   3
   2   3  -6 190.911 474.539   3
   2   3  -5 964.537 526.620   3
   2   3  -4 5839.57 927.258   3
  -2  -3   4 5195.98 508.419   2
  -2  -3   3 55328.6 1428.77   2
   2   3  -3 58137.5 2644.30   3
  -2  -3   2 19918.0 711.880   2
   2   3  -2 21699.2 1454.89   3
  -2  -3   1 18243.4 629.269   2
   2   3  -1 18012.2 1257.27   3
  -2  -3   0 122.121 92.0973   2
   2   3   0 49.6079 112.872   2
   2   3   0 110.578 206.681   3
   2   3   1 62885.9 1565.66   2
   2   3   1 66337.4 2297.97   3
   2   3   2 39085.6 1482.44   2
   2   3   3 1512.97 362.088   2
   2   3   4 1968.77 469.970   2
  -2  -3  -4 1827.76 277.548   1
  -2  -3  -5 29948.3 847.988   1
   2   3   5 32939.8 1830.51   2
   2   3   6 10160.9 1106.69   2
   2   3   7 13204.6 1347.69   2
   2   3   8 4081.98 849.707   2
   2   3   9 4588.89 955.566   2
   2   3  10 7570.46 1258.29   2
   2   3  11 2511.86 887.035   2
   2   4  -7 835.107 799.858   3
   2   4  -6 19404.2 2054.40   3
   2   4  -5 26725.7 2233.52   3
   2   4  -4 6528.02 1065.62   3
   2   4  -3 77693.5 3310.92   3
   2   4  -2 1957.90 515.942   3
   2   4  -1 39443.5 2103.23   3
   2   4   0 106171. 1414.18   2
   2   4   0 103414. 3175.14   3
   2   4   1 135830. 2244.88   2
   2   4   1 136383. 3659.62   3
  -2  -4  -1 138542. 2254.45   2
   2   4   2 3452.18 445.844   2
   2   4   2 4281.00 681.652   3
   2   4   3 5596.90 654.723   2
   2   4   4 2282.88 492.693   2
   2   4   5 107.034 228.896   2
   2   4   6 15612.5 780.481   1
   2   4   6 14069.1 1316.92   2
   2   4   7 2746.68 677.974   2
   2   4   8 8378.06 1186.86   2
   2   4   9 18194.9 1813.67   2
   2   4  10 1458.43 691.742   2
   2   4  11 15024.5 1855.96   2
   2   5  -7 65.2809 953.934   3
   2   5  -6 4172.09 1138.53   3
   2   5  -5 10029.5 1523.73   3
   2   5  -4 104123. 4385.57   3
   2   5  -3 879.815 565.785   3
   2   5  -2 55321.6 2781.60   3
   2   5  -1 53168.2 2664.26   3
   2   5   0 16525.9 1419.61   3
   2   5   1-32.1011 207.368   3
   2   5   1 181.197 85.9497   2
   2   5   2 44278.7 1546.26   2
   2   5   2 44960.9 2270.16   3
   2   5   3 804.683 340.238   2
   2   5   3 962.401 410.458   3
   2   5   4 14579.3 1169.47   2
   2   5   5 3598.68 515.167   1
   2   5   5 2742.43 570.262   2
   2   5   6 21208.9 1148.92   1
   2   5   6 20021.1 1590.18   2
   2   5   7 2595.93 666.394   2
   2   5   8 34381.9 2369.51   2
   2   5   9 22266.6 2076.09   2
   2   5  10 30090.8 2485.73   2
   2   5  11 1087.11 698.413   2
   2   6  -6 19655.8 2357.74   3
   2   6  -5 3901.67 1105.11   3
   2   6  -4 18962.3 2046.80   3
   2   6  -3 1354.87 728.033   3
   2   6  -2 33308.7 2368.92   3
   2   6  -1 23977.8 1930.75   3
   2   6   0 3268.91 737.349   3
   2   6   1 1725.13 215.967   2
   2   6   1 1410.06 460.182   3
   2   6   2 3893.76 497.377   2
   2   6   2 5728.66 925.039   3
   2   6   3 15752.7 1092.28   2
   2   6   3 18753.4 1587.27   3
   2   6   4 49040.9 2600.86   3
   2   6   4 53099.3 2223.98   2
   2   6   5 1483.50 477.825   2
   2   6   5 2085.58 458.531   1
   2   6   6 41656.6 1869.85   1
   2   6   6 35391.3 2142.09   2
   2   6   7 38599.6 2403.18   2
   2   6   8 39690.9 2596.36   2
   2   6   9 21942.3 2092.36   2
   2   6  10 12197.8 1668.74   2
   2   6  11 2107.86 903.198   2
   2   7  -5 23248.2 2601.89   3
   2   7  -4 3.17101 503.709   3
   2   7  -3 9804.38 1537.64   3
   2   7  -2 423.401 467.387   3
   2   7  -1-69.5015 373.016   3
   2   7   0 315.273 285.638   3
   2   7   1 797.661 411.454   3
   2   7   2 11464.6 1324.60   3
   2   7   3 52156.9 1983.20   2
   2   7   3 58860.9 3028.06   3
   2   7   4 336.442 325.840   2
   2   7   4 305.676 332.538   3
   2   7   5 52942.5 2475.67   2
   2   7   5 53608.8 2916.49   3
   2   7   6 11958.2 1159.47   1
   2   7   6 8943.17 1136.07   2
   2   7   7 39657.9 2463.18   2
   2   7   8 243.979 377.605   2
   2   7   9 53205.0 3235.21   2
   2   7  10 1543.76 757.025   2
   2   8  -4 2634.24 1062.81   3
   2   8  -3 1085.23 815.433   3
   2   8  -2 2187.97 851.430   3
   2   8  -1 570.049 435.712   3
   2   8   0 2054.64 651.151   3
   2   8   1 5485.59 1046.04   3
   2   8   2 3396.51 828.052   3
   2   8   3 7161.69 1143.98   3
   2   8   4 20571.7 1928.01   3
   2   8   5 38889.1 2623.02   3
   2   8   5 35754.4 2089.81   2
   2   8   6 7311.23 1009.26   1
   2   8   6 5143.97 922.237   2
   2   8   6 6315.94 1131.09   3
   2   8   7 4119.55 887.085   2
   2   8   7 4302.70 980.291   3
   2   8   8 3992.54 940.989   2
   2   8   9 8734.68 1434.23   2
   2   8  10 477.233 597.731   2
   2   9  -2 3021.48 1043.90   3
   2   9  -1 3748.43 1022.57   3
   2   9   0 3419.14 936.610   3
   2   9   1 4857.66 1062.71   3
   2   9   2 11812.2 1573.47   3
   2   9   3 1594.71 595.470   3
   2   9   4 11504.9 1511.90   3
   2   9   5 635.834 484.532   3
   2   9   6 4773.95 1023.04   3
   2   9   7 2058.78 740.814   3
   2   9   8 1821.16 767.802   2
   2   9   8 1109.26 555.140   3
   2   9   9 2095.17 892.858   2
   2   9   9 2640.71 794.047   3
   2   9  10 992.113 819.034   2
   2  10   0 1380.38 710.614   3
   2  10   1 27587.7 2570.57   3
   2  10   2 2554.57 835.572   3
   2  10   3 12541.1 1682.49   3
   2  10   4 221.204 417.721   3
   2  10   5 6700.43 1213.35   3
   2  10   6 4823.28 1052.34   3
   2  10   7 1924.53 737.106   3
   2  11   3 11107.7 1713.89   3
   2  11   4 4600.34 1121.24   3
   2  11   5 1174.65 632.281   3
  -3   9   5 429.626 645.466   1
  -3   9   4 1709.30 788.259   1
  -3   9   3 4014.88 1112.46   1
   3  -9  -3 4776.48 1196.80   4
  -3   9   2 764.032 682.555   1
   3  -9  -2 606.672 750.834   4
   3  -9  -1 8305.25 1498.31   4
  -3   9   1 10317.3 1735.10   1
   3  -9   0 421.930 640.011   4
  -3   9   0 1451.27 780.993   1
  -3   9  -1 8460.77 1622.63   1
  -3   8   7 34.4419 594.825   1
  -3   8   6 7851.15 1496.98   1
  -3   8   5 3022.17 1054.88   1
  -3   8   4 15432.0 1998.28   1
  -3   8   3 812.337 652.381   1
   3  -8  -3 1701.43 837.377   4
   3  -8  -2 38704.2 2815.98   4
  -3   8   2 50462.0 3432.36   1
  -3   8   1 6087.06 1233.60   1
   3  -8  -1 6233.10 1222.42   4
  -3   8   0 7099.02 1337.37   1
   3  -8   0 7139.39 1333.15   4
   3  -8   1-203.512 689.726   4
  -3   8  -1 362.391 608.420   1
  -3   8  -2 13463.8 1866.48   1
  -3   8  -3 1683.48 791.719   1
  -3   7   8 2935.98 1000.75   1
  -3   7   7 15576.3 1935.28   1
  -3   7   6 26333.6 2443.88   1
  -3   7   5 6922.90 1276.90   1
  -3   7   4 4748.45 1083.91   1
   3  -7  -3 12133.9 1607.11   4
  -3   7   3 12958.3 1689.32   1
  -3   7   2 58186.4 3399.78   1
   3  -7  -2 48788.8 2978.34   4
  -3   7   1 7301.23 1281.64   1
   3  -7  -1 6964.28 1192.39   4
  -3   7   0 1245.39 676.135   1
   3  -7   0 844.201 520.418   4
   3  -7   1-2.70029 406.089   4
  -3   7  -1 13.5962 519.235   1
  -3   7  -2 832.503 575.321   1
  -3   7  -3 99.8773 467.255   1
  -3   7  -5 5287.07 1164.25   3
  -3   7  -6 2712.68 826.958   3
  -3   6   9 3933.49 968.839   1
  -3   6   8-162.858 582.294   1
  -3   6   7 26953.6 2393.38   1
  -3   6   6 211.330 537.122   1
  -3   6   5 45623.6 3018.83   1
  -3   6   4 1139.79 611.150   1
  -3   6   3 11618.9 1470.39   1
  -3   6   2 5626.25 1062.27   1
   3  -6  -2 6197.32 1029.68   4
  -3   6   1 3576.52 926.716   1
   3  -6  -1 2310.69 687.888   4
  -3   6   0 11363.0 1425.23   1
   3  -6   0 9233.87 1286.84   4
  -3   6  -1-214.391 354.482   1
   3  -6   1-794.156 511.186   4
  -3   6  -2 5403.40 842.865   3
  -3   6  -2 2647.48 795.137   1
   3  -6   3 27532.8 2063.48   2
  -3   6  -3 25619.5 2193.95   1
  -3   6  -4 4647.65 929.929   1
  -3   6  -4 8155.09 1215.45   3
  -3   6  -5 28260.9 2383.08   3
  -3   6  -6 213.927 360.363   3
  -3   6  -7 9026.04 1542.35   3
  -3   5  10 5922.24 1100.48   1
  -3   5   9 12262.1 1561.98   1
  -3   5   8 47899.8 2977.46   1
  -3   5   7 282.463 330.543   1
  -3   5   6 29101.8 2126.68   1
  -3   5   5 3529.34 751.340   1
  -3   5   4 25389.4 2050.16   1
  -3   5   3 78.3413 409.844   1
  -3   5   2 24419.0 1954.87   1
   3  -5  -2 23004.9 1815.21   4
  -3   5   1 1339.39 585.089   1
   3  -5  -1 1613.86 560.633   4
   3  -5   0 15807.6 1546.92   4
  -3   5   0 14857.5 1539.61   1
  -3   5  -1 47412.6 2639.41   1
   3  -5   1 49241.0 2783.95   4
   3  -5   2 4307.59 828.851   2
  -3   5  -2 4342.71 886.898   1
  -3   5  -2 6618.59 830.787   3
  -3   5  -3 315.476 217.686   3
   3  -5   3 260.521 342.148   2
  -3   5  -3 3.92159 298.476   1
   3  -5   4 31685.6 2186.59   2
  -3   5  -4 28625.0 2126.00   1
  -3   5  -4 34406.9 2335.39   3
   3  -5   5 36710.3 2397.63   2
  -3   5  -5 38058.4 2633.39   3
  -3   5  -6 61630.7 3609.24   3
  -3   5  -7 3594.59 962.632   3
  -3   4  10 10384.2 1470.33   1
  -3   4   9 21696.1 2066.13   1
  -3   4   8 39297.3 2694.64   1
  -3   4   7 7280.29 1142.27   1
  -3   4   6 64925.8 3218.57   1
  -3   4   5 10196.4 1228.94   1
  -3   4   4 768.684 340.669   1
  -3   4   3 17238.1 1450.12   1
  -3   4   2 5197.95 867.142   1
   3  -4  -1 1012.02 451.965   4
  -3   4   1 1142.42 487.439   1
   3  -4   0 13566.3 1320.56   4
  -3   4   0 10490.1 1176.25   1
   3  -4   1 3855.61 750.175   2
  -3   4  -1 3064.52 723.429   1
   3  -4   1 3214.63 696.012   4
  -3   4  -1 4128.30 548.488   3
   3  -4   2 80764.7 3416.47   2
  -3   4  -2 81718.0 3180.36   1
   3  -4   2 88053.3 3492.46   4
  -3   4  -2 90318.5 2954.18   3
  -3   4  -3 1177.26 378.175   3
   3  -4   3 716.376 399.876   2
  -3   4  -3 412.107 388.916   1
  -3   4  -4 26823.1 1890.09   1
   3  -4   4 30547.9 2052.11   2
   3  -4   5 10367.6 1225.16   2
  -3   4  -5 12496.7 1444.40   3
   3  -4   6 18357.3 1681.52   2
  -3   4  -6 17978.2 1875.03   3
  -3   4  -7 868.354 477.480   3
   3  -4   7 1335.20 529.975   2
  -3   4  -8 15603.7 2008.40   3
  -3   3  10 4558.21 961.385   1
  -3   3   9 18161.5 1871.89   1
  -3   3   8 1308.06 443.717   1
  -3   3   7 20395.4 1844.83   1
  -3   3   6-63.1803 105.490   1
  -3   3   5 21243.5 1737.66   1
  -3   3   4 6951.93 965.912   1
  -3   3   3 2024.37 521.360   1
  -3   3   2 1677.99 444.886   1
  -3   3   1 20213.5 1399.92   1
   3  -3   0 782.165 265.643   3
   3  -3   0 175.079 251.822   4
  -3   3   0-48.9940 352.395   1
   3  -3   1 51914.1 2548.32   2
  -3   3  -1 46527.1 2164.95   1
   3  -3   1 48748.2 2345.08   4
   3  -3   2 4651.24 788.215   2
  -3   3  -2 5725.24 814.517   1
   3  -3   2 5372.89 819.216   4
   3  -3   3 36896.5 2097.65   2
  -3   3  -3 36063.4 1933.07   1
  -3   3  -3 39157.7 2066.56   3
  -3   3  -4 4162.15 694.692   1
   3  -3   4 5821.07 878.147   2
  -3   3  -4 6224.13 898.948   3
   3  -3   5 76183.9 3203.69   2
  -3   3  -5 78951.6 3499.19   3
   3  -3   6 10254.8 1238.65   2
  -3   3  -6 10104.3 1356.10   3
   3  -3   7 58.2948 277.732   2
   3  -3   8 2809.71 723.766   2
   3  -3   9 1215.23 566.246   2
  -3   2  10 4470.33 990.485   2
  -3   2  10 4083.48 901.531   1
  -3   2   9 3271.39 791.518   1
  -3   2   8-169.292 197.157   1
  -3   2   7 8372.60 1153.87   1
  -3   2   6 13108.1 1381.49   1
  -3   2   5 2123.97 522.033   1
   3  -2  -5 1941.36 356.681   3
  -3   2   4 7694.78 975.720   1
   3  -2  -4 4501.30 404.464   3
  -3   2   3 6904.37 897.115   1
  -3   2   2 16649.9 1320.85   1
   3  -2  -1 1713.96 182.635   3
   3  -2  -1 816.438 124.961   3
   3  -2   0 205849. 4657.37   2
   3  -2   0 200356. 2746.31   3
   3  -2   1 75044.1 2872.81   2
   3  -2   1 74999.4 2680.40   4
  -3   2  -1 76997.8 2561.24   1
  -3   2  -2 1458.78 407.203   1
   3  -2   2 1919.41 482.743   4
   3  -2   2 1902.00 491.091   2
   3  -2   3 32641.1 1890.74   2
   3  -2   3 31807.0 1831.54   4
  -3   2  -3 30220.3 1542.83   1
  -3   2  -4 30670.6 1541.55   1
   3  -2   4 32409.9 1966.74   2
  -3   2  -5 6765.61 720.039   1
   3  -2   5 9513.73 1103.05   2
   3  -2   6 6346.71 959.021   2
   3  -2   7 1047.27 424.860   2
   3  -2   8 872.968 443.661   2
   3  -2   9 417.314 387.260   2
   3  -2  10 1486.12 638.234   2
  -3   1  10 3941.77 962.397   2
  -3   1  10 3718.38 884.655   1
  -3   1   9 552.214 382.761   1
  -3   1   8 1138.95 455.152   1
   3  -1  -7-4.83811 349.036   3
  -3   1   7 838.640 412.844   1
  -3   1   6 15117.4 1465.92   1
   3  -1  -6 11792.9 1086.13   3
  -3   1   5 17095.7 1470.55   1
   3  -1  -5 14480.7 1083.74   3
  -3   1   4 58431.3 2582.14   1
   3  -1  -4 52612.4 1755.26   3
  -3   1   3 5267.40 741.658   1
   3  -1  -3 5393.20 493.748   3
  -3   1   2 65628.4 2479.21   1
   3  -1  -2 63772.9 1377.82   3
   3  -1  -1 1817.65 268.516   3
  -3   1   1 1191.42 320.773   1
  -3   1   0 56681.3 2111.47   1
   3  -1   0 59121.5 2403.24   2
  -3   1  -1 677.179 216.593   1
   3  -1   1 944.596 352.398   2
   3  -1   2 88491.5 2868.04   2
   3  -1   2 81819.7 2613.64   4
  -3   1  -2 86995.5 2335.77   1
  -3   1  -3 229.567 252.244   1
   3  -1   3 71.5273 197.996   4
   3  -1   3 66.3252 272.398   2
   3  -1   4 235.666 198.571   4
   3  -1   4 424.532 272.434   2
  -3   1  -4 210.018 164.419   1
   3  -1   5 14793.6 1354.49   2
   3  -1   6 11439.0 1265.73   2
   3  -1   7 6394.39 1010.26   2
   3  -1   8 19320.4 1803.38   2
   3  -1   9 628.077 426.285   2
   3  -1  10 2575.65 797.067   2
  -3   0  10-103.149 332.212   1
  -3   0   9 1913.23 626.527   1
  -3   0   9 1693.44 574.538   2
   3   0  -8 232.287 414.805   3
  -3   0   8 306.206 254.230   1
  -3   0   7 39816.1 2450.62   1
   3   0  -7 31441.6 2185.44   3
  -3   0   6 944.074 426.989   1
  -3   0   5 9228.64 1072.86   1
   3   0  -5 6978.16 804.332   3
  -3   0   4 20571.1 1499.32   1
   3   0  -4 19222.6 1241.00   3
  -3   0   3 55723.3 2319.71   1
   3   0  -3 56949.8 1925.30   3
   3   0  -2 4278.72 484.607   3
  -3   0   2 4002.37 603.557   1
  -3   0   1 20825.0 1264.41   1
   3   0  -1 20185.9 997.569   3
  -3   0   0 1547.25 340.864   1
   3   0   0 1065.14 366.440   2
  -3   0  -1-58.7880 80.3710   1
   3   0   1 271.376 263.818   2
  -3   0  -2 38987.9 1428.32   1
   3   0   2 38116.5 1825.66   2
   3   0   3 36468.1 1821.92   2
   3   0   3 33552.3 1547.61   4
  -3   0  -3 36912.3 1297.35   1
   3   0   4 2510.05 447.795   4
   3   0   4 2296.71 518.092   2
  -3   0  -4 1939.40 280.152   1
   3   0   4 2784.03 291.063   1
   3   0   5 6270.59 868.658   2
   3   0   5 6748.38 740.093   4
   3   0   6 2738.09 519.495   4
   3   0   6 1623.33 524.446   2
   3   0   7 124488. 4316.24   2
   3   0   8 374.746 334.609   2
   3   0   9 5349.12 1012.61   2
   3   0  10 402.953 418.878   2
   3   0  11 29150.8 2593.53   2
  -3  -1  10 9239.99 1390.49   1
   3   1  -9 5019.98 1193.13   3
  -3  -1   9 9702.89 1365.09   1
   3   1  -8 1570.70 710.365   3
  -3  -1   8 2254.64 624.330   1
   3   1  -6 41035.6 2454.88   3
   3   1  -5 22737.3 1695.03   3
   3   1  -4 40097.3 2006.78   3
   3   1  -3 1567.25 410.017   3
   3   1  -2 250.302 188.850   3
   3   1  -1 7138.11 697.971   3
   3   1   0 41051.7 1788.61   2
   3   1   0 40877.1 1632.51   3
   3   1   1 50501.9 1949.47   2
  -3  -1  -1 47487.9 1617.28   1
   3   1   2 39428.2 1781.57   2
  -3  -1  -2 38940.3 1342.16   1
  -3  -1  -3 85244.3 1735.50   1
   3   1   3 79215.1 2672.26   2
   3   1   4 27215.5 1660.04   2
  -3  -1  -4 23996.5 660.648   1
   3   1   5 26491.3 1759.40   2
   3   1   5 26871.8 1265.32   4
   3   1   6 37883.8 2235.12   2
   3   1   6 39098.1 1559.80   4
   3   1   7 26681.6 1993.57   2
   3   1   8 33602.3 2352.48   2
   3   1   9 35263.4 2544.92   2
   3   1  10 10101.4 1466.34   2
   3   1  11-1303.88 647.800   2
   3   2  -9 709.026 763.241   3
   3   2  -8 14245.5 1804.61   3
   3   2  -7-57.6682 914.816   3
   3   2  -6 44373.4 2779.30   3
   3   2  -5 1516.92 609.049   3
   3   2  -4 35845.4 2132.21   3
   3   2  -3 14150.1 1208.60   3
   3   2  -2 3899.74 618.184   3
   3   2  -1 29989.7 1571.86   3
   3   2   0 11246.7 882.989   2
   3   2   0 12176.1 1006.84   3
   3   2   1 253.118 199.415   2
   3   2   2 12293.3 961.806   2
   3   2   3 237.992 212.878   2
  -3  -2  -4 179613. 1934.51   1
  -3  -2  -4 183412. 1907.30   1
   3   2   5-1.48748 258.746   2
   3   2   6 45188.8 2413.94   2
   3   2   7 3762.00 810.064   2
   3   2   8 44202.7 2763.52   2
   3   2  10 1691.84 569.843   2
   3   2  11 1057.17 524.184   2
   3   3  -9 12288.3 1953.28   3
   3   3  -8-10.2100 997.737   3
   3   3  -7 7150.71 1219.72   3
   3   3  -6 3286.28 973.839   3
   3   3  -5 23737.4 2023.59   3
   3   3  -4 9035.07 1223.47   3
   3   3  -3 539.518 356.478   3
   3   3  -2 195.574 242.807   3
   3   3  -1-466.809 295.222   3
   3   3   0 170.048 158.443   2
   3   3   0 664.735 366.448   3
   3   3   1 57580.6 1902.29   2
   3   3   1 62366.0 2466.53   3
   3   3   2 24468.3 1318.21   2
   3   3   3 40947.2 1883.14   2
   3   3   4 19203.1 1375.16   2
   3   3   5 40846.5 2199.48   2
  -3  -3  -5 32021.8 681.464   1
   3   3   7 71206.4 3289.50   2
   3   3   8 8648.16 1234.11   2
   3   3   9-530.126 446.231   2
   3   3  10-792.955 508.831   2
   3   3  11-529.793 516.436   2
   3   4  -7 2005.04 968.058   3
   3   4  -6 5702.66 1246.76   3
   3   4  -5 4510.93 1068.91   3
   3   4  -4 25554.8 2154.42   3
   3   4  -3 5323.46 931.923   3
   3   4  -2 45.8014 254.592   3
   3   4  -1 12028.7 1248.51   3
   3   4   0 17037.0 910.484   2
   3   4   0 16297.3 1399.29   3
   3   4   1 40649.2 1506.89   2
   3   4   1 42503.9 2219.98   3
   3   4   2 70937.6 2180.17   2
   3   4   2 71941.4 2918.99   3
   3   4   3 93884.7 2799.67   2
   3   4   4 14520.2 1190.62   2
   3   4   5 43569.9 2287.93   2
   3   4   6 610.689 366.935   2
   3   4   7 4572.17 847.000   2
   3   4   8 21287.7 1920.58   2
   3   4   9 55.5470 475.550   2
   3   4  10 1113.74 611.783   2
   3   4  11 1273.34 644.181   2
   3   5  -7 84.3395 736.398   3
   3   5  -6 2001.59 926.470   3
   3   5  -5 145.548 528.546   3
   3   5  -4 2363.24 842.024   3
   3   5  -3 888.749 505.969   3
   3   5  -2 82461.7 3621.86   3
   3   5  -1 4426.06 851.774   3
   3   5   0 26919.5 1908.07   3
   3   5   1 19457.0 974.291   2
   3   5   1 20640.9 1722.05   3
   3   5   2 69508.9 2114.89   2
   3   5   2 69308.5 3086.56   3
   3   5   3 3983.79 799.802   3
   3   5   3 3939.34 575.344   2
   3   5   4 34388.1 1877.48   2
   3   5   6 5703.94 911.501   2
   3   5   7 4465.08 870.443   2
   3   5   8 543.649 521.132   2
   3   5   9 7110.17 1254.14   2
   3   5  10 6566.31 1275.89   2
   3   5  11 5568.20 1242.50   2
   3   6  -6 1019.79 953.997   3
   3   6  -5 9689.58 1711.43   3
   3   6  -4 1433.22 788.464   3
   3   6  -3 14377.0 1779.79   3
   3   6  -2 22759.0 2063.45   3
   3   6  -1 105.733 349.053   3
   3   6   0 3416.12 802.641   3
   3   6   1 61611.0 3089.89   3
   3   6   2 2897.38 428.964   2
   3   6   2 2930.13 765.377   3
   3   6   3 9118.91 855.100   2
   3   6   3 10759.0 1325.42   3
   3   6   4 20309.7 1470.11   2
   3   6   4 19114.9 1789.74   3
   3   6   5 4227.95 712.226   2
   3   6   6 1324.63 499.211   2
   3   6   7 5912.66 1039.16   2
   3   6   8 1192.64 606.343   2
   3   6   9 24276.9 2232.85   2
   3   6  10 1052.04 718.007   2
   3   7  -5 2493.83 1096.92   3
   3   7  -4 17015.4 2177.08   3
   3   7  -3 16184.2 2067.80   3
   3   7  -2 5017.08 1083.12   3
   3   7  -1 2293.68 684.843   3
   3   7   0 127.083 379.221   3
   3   7   1-138.158 488.257   3
   3   7   2 236.179 365.057   3
   3   7   3 2104.86 735.394   3
   3   7   4-181.530 391.112   3
   3   7   5 25396.8 1762.38   2
   3   7   5 27545.2 2265.83   3
   3   7   6 24603.4 1862.49   2
   3   7   7 15666.2 1592.76   2
   3   7   8 3871.46 986.849   2
   3   7   9 25705.1 2287.01   2
   3   7  10 6437.10 1309.81   2
   3   8  -3 780.737 812.126   3
   3   8  -2 9665.83 1598.16   3
   3   8  -1 663.202 490.152   3
   3   8   0 208.134 421.214   3
   3   8   1 3196.60 863.485   3
   3   8   2-215.858 481.047   3
   3   8   3 779.872 503.033   3
   3   8   4 36257.8 2717.55   3
   3   8   5 6099.21 1159.65   3
   3   8   6 21120.4 2093.24   3
   3   8   7 2187.98 812.775   2
   3   8   7 850.938 538.418   3
   3   8   8 27318.0 2259.70   2
   3   8   9 2168.65 1013.67   2
   3   8  10 10107.7 1636.00   2
   3   9  -1 93.9303 482.349   3
   3   9   0 4296.23 1064.71   3
   3   9   1 514.009 508.055   3
   3   9   2 345.344 419.683   3
   3   9   3 10636.2 1519.25   3
   3   9   4 11027.4 1595.95   3
   3   9   5 14066.3 1807.07   3
   3   9   6 8989.67 1458.83   3
   3   9   7 12921.7 1765.12   3
   3   9   8 3989.36 1039.17   3
   3   9   9 8048.29 1478.14   3
   3  10   1 4246.06 1112.38   3
   3  10   2-686.698 562.822   3
   3  10   3 32051.4 2841.22   3
   3  10   4 9647.42 1539.95   3
   3  10   5 18461.9 2193.67   3
   3  10   6 1196.05 690.982   3
   3  10   7 11988.2 1789.63   3
  -4   8   4 899.912 899.995   1
  -4   8   3 310.274 895.643   1
  -4   8   2 13968.2 1976.58   1
   4  -8  -2 15057.3 2052.66   4
  -4   8   1 2747.32 922.752   1
   4  -8  -1 3307.19 1099.41   4
  -4   8   0 40315.8 3238.57   1
   4  -8   0 44986.3 3296.35   4
   4  -8   1-809.497 577.090   4
  -4   8  -1-721.536 673.135   1
  -4   8  -2 10540.4 1835.17   1
  -4   8  -3 2316.20 1030.36   1
  -4   7   6 2025.00 948.860   1
  -4   7   5 2807.14 1057.96   1
  -4   7   4 3964.69 1148.47   1
  -4   7   3 17095.2 2061.10   1
  -4   7   2 11042.6 1721.40   1
  -4   7   1 7698.56 1480.97   1
   4  -7  -1 10728.1 1588.14   4
  -4   7   0 20986.5 2225.82   1
   4  -7   0 21325.2 2173.49   4
  -4   7  -1 35431.0 2875.53   1
   4  -7   1 37938.3 2912.89   4
   4  -7   2 3160.26 976.642   4
  -4   7  -2 1368.50 725.536   1
  -4   7  -3 6952.86 1364.69   1
   4  -7   3 10105.4 1622.02   4
  -4   6   7-80.0444 643.051   1
  -4   6   6 727.371 714.303   1
  -4   6   5 7087.56 1457.13   1
  -4   6   4 880.250 706.290   1
  -4   6   3 23455.6 2249.83   1
  -4   6   2 5908.16 1204.51   1
   4  -6  -1 21955.4 2095.96   4
  -4   6   1 22135.2 2130.47   1
  -4   6   0 1767.34 926.942   1
   4  -6   0 1299.06 599.973   4
  -4   6  -1 10425.5 1510.06   1
   4  -6   1 13000.4 1624.99   4
  -4   6  -2 776.922 612.534   1
   4  -6   2 1066.71 609.102   4
   4  -6   3 11350.8 1518.01   2
  -4   6  -3 10310.1 1473.06   1
   4  -6   3 10530.4 1566.40   4
   4  -6   4 2986.88 913.947   4
   4  -6   4 3360.95 916.236   2
  -4   6  -4 1841.68 755.703   1
   4  -6   5-53.9106 459.374   4
  -4   5   8 121.608 384.114   1
  -4   5   7 327.929 397.693   1
  -4   5   6 44149.5 2889.17   1
  -4   5   5 1315.65 523.494   1
  -4   5   4 4103.21 890.139   1
  -4   5   3-453.920 700.548   1
  -4   5   2 34466.7 2533.32   1
  -4   5   1 237.371 458.559   1
   4  -5  -1 2134.80 757.333   4
   4  -5   0 6597.15 1121.14   4
  -4   5   0 6315.64 1109.57   1
  -4   5  -1 203.623 568.437   1
   4  -5   1 186.494 391.741   4
  -4   5  -2 996.100 547.353   1
   4  -5   2 743.002 468.134   4
   4  -5   2 628.138 425.949   2
  -4   5  -3-44.2913 424.786   1
   4  -5   3 179.476 361.537   4
   4  -5   3 557.118 466.580   2
   4  -5   4 115.208 392.662   4
   4  -5   4 937.131 402.812   2
  -4   5  -4 376.743 472.885   1
   4  -5   5 6471.73 1173.76   4
   4  -5   5 4197.56 994.407   2
   4  -5   6 5741.06 1068.17   2
   4  -5   6 5243.48 1138.35   4
  -4   4   9 8847.14 1414.91   1
  -4   4   8 962.549 575.327   1
  -4   4   7 51524.9 3240.85   1
  -4   4   6 12778.1 1576.08   1
  -4   4   5 16881.3 1722.79   1
  -4   4   4 6716.62 1069.66   1
  -4   4   3 39166.9 2416.01   1
  -4   4   2-233.628 290.789   1
  -4   4   1-104.810 510.249   1
  -4   4   0 2017.22 699.430   1
   4  -4   0 2887.55 730.186   4
   4  -4   1-679.437 420.814   2
  -4   4  -1-40.2537 431.102   1
   4  -4   1 211.480 331.323   4
  -4   4  -2 390.837 524.046   1
   4  -4   2 301.423 318.580   4
   4  -4   2 479.865 375.991   2
   4  -4   3 15007.6 1707.02   2
  -4   4  -3 12660.8 1400.01   1
   4  -4   3 12173.5 1450.75   4
   4  -4   4 8321.79 1246.71   2
  -4   4  -4 5638.37 962.216   1
   4  -4   4 7235.93 1150.91   4
   4  -4   5 11841.7 1524.99   2
   4  -4   5 11314.8 1471.65   4
   4  -4   6 2239.99 702.783   4
   4  -4   6 3286.35 914.779   2
   4  -4   7 11012.9 1537.64   2
   4  -4   8 1077.78 564.933   2
  -4   3   9 24952.4 2414.40   1
  -4   3   8 5470.53 1131.40   1
  -4   3   7 33217.1 2584.10   1
  -4   3   6 6335.42 1092.15   1
  -4   3   5 18851.7 1810.64   1
  -4   3   4 3864.10 831.211   1
  -4   3   3 7586.52 1056.63   1
  -4   3   2 203.801 246.290   1
  -4   3   1 48.1313 183.523   1
  -4   3   0 7632.07 980.889   1
   4  -3   1 34142.9 2314.44   2
   4  -3   1 30529.8 2061.23   4
  -4   3  -1 31911.7 2035.28   1
  -4   3  -2 1310.08 526.069   1
   4  -3   2 2126.56 612.871   4
   4  -3   2 1971.72 626.136   2
   4  -3   3 11314.1 1403.99   2
  -4   3  -3 9666.64 1106.96   1
   4  -3   3 12124.2 1331.77   4
   4  -3   4 16485.6 1648.70   2
  -4   3  -4 12242.3 1223.20   1
   4  -3   4 16602.7 1594.48   4
   4  -3   5 22733.1 1954.21   2
   4  -3   5 23057.3 1948.22   4
   4  -3   6 22623.2 2014.19   2
   4  -3   6 22518.9 1967.39   4
   4  -3   7 26555.0 2267.30   2
   4  -3   7 28827.0 2276.75   4
   4  -3   8-408.278 405.581   2
   4  -3   9 38.2348 323.662   2
  -4   2   9 1912.14 657.921   1
  -4   2   8 22785.6 2179.42   1
  -4   2   7-667.186 405.627   1
  -4   2   6 22466.0 1987.06   1
  -4   2   5 8788.86 1190.42   1
  -4   2   4 9158.14 1177.41   1
  -4   2   3 11730.6 1280.22   1
  -4   2   2 619.072 378.618   1
  -4   2   1 728.541 320.453   1
   4  -2  -1 412.000 167.260   3
   4  -2   0 75753.5 3261.00   2
  -4   2   0 72588.8 2838.30   1
   4  -2   1 367.291 409.189   2
  -4   2  -1 157.972 212.562   1
   4  -2   2 152905. 4740.65   2
   4  -2   2 160711. 4439.61   4
  -4   2  -2 162524. 4140.38   1
  -4   2  -3 125.965 362.394   1
   4  -2   3 121.206 263.481   4
   4  -2   3 380.792 443.022   2
   4  -2   4 52356.4 2802.49   2
  -4   2  -4 47150.7 2100.02   1
   4  -2   4 51636.7 2580.27   4
   4  -2   5 1890.06 528.360   4
   4  -2   5 1379.44 551.662   2
   4  -2   6 35870.6 2480.07   2
   4  -2   6 38347.6 2379.15   4
   4  -2   7 1915.03 581.972   4
   4  -2   7 1924.12 637.041   2
   4  -2   8 13467.7 1612.58   2
   4  -2   9-137.180 315.851   2
  -4   1   9 380.041 282.964   1
  -4   1   8-101.383 173.254   1
  -4   1   7 1974.16 598.218   1
  -4   1   6 3376.09 742.465   1
  -4   1   5 3377.45 714.759   1
  -4   1   4 18289.2 1625.43   1
  -4   1   3 8259.58 1040.71   1
   4  -1  -3 6229.26 592.666   3
  -4   1   2 30451.9 1911.73   1
   4  -1  -2 29145.6 1109.22   3
  -4   1   1 38558.9 2079.30   1
   4  -1  -1 41219.5 1401.67   3
  -4   1   0 100098. 3246.50   1
   4  -1   0 96222.7 3527.22   2
  -4   1  -1 16989.6 1275.58   1
   4  -1   1 17036.7 1497.08   2
   4  -1   2 86641.5 3340.44   2
  -4   1  -2 77247.2 2393.00   1
   4  -1   3 43506.9 2388.25   2
   4  -1   3 43864.9 2206.17   4
  -4   1  -3 42984.0 1873.83   1
   4  -1   4 31397.2 2104.34   2
  -4   1  -4 30802.9 1513.08   1
   4  -1   4 34559.0 1957.26   4
   4  -1   5 47486.2 2677.66   2
   4  -1   5 50530.1 2396.90   4
   4  -1   6 7876.16 1146.74   2
   4  -1   6 7579.21 975.627   4
   4  -1   7 70.9006 225.423   4
   4  -1   7 221.364 270.525   2
   4  -1   8 3368.24 841.973   2
   4  -1   9 777.522 508.578   2
   4  -1  10 10638.6 1553.10   2
  -4   0   9 10747.6 1514.76   1
  -4   0   8 2353.73 664.708   1
  -4   0   7 1276.29 519.341   1
  -4   0   6 69.6400 118.968   1
  -4   0   5 13888.0 1458.26   1
   4   0  -5 9200.06 1044.38   3
   4   0  -4 484.979 374.705   3
  -4   0   4 303.155 260.142   1
  -4   0   3 14396.3 1352.48   1
   4   0  -3 12621.0 1013.53   3
  -4   0   2 40569.7 2172.15   1
   4   0  -2 43373.9 1693.62   3
  -4   0   1 53151.6 2324.74   1
   4   0  -1 53336.7 1870.94   3
   4   0   0 28930.5 1873.14   2
  -4   0   0 27613.7 1615.74   1
   4   0   0 30458.2 1461.60   3
  -4   0  -1 139626. 3483.30   1
   4   0   1 143089. 4148.13   2
  -4   0  -2 19930.9 1251.21   1
   4   0   2 18107.6 1479.43   2
   4   0   3 17284.1 1481.38   2
  -4   0  -3 16237.7 1001.24   1
  -4   0  -4 446.996 287.375   1
   4   0   4 556.288 276.001   2
   4   0   5 10650.6 1230.12   2
   4   0   5 14496.6 1198.61   4
   4   0   6 448.136 231.254   4
   4   0   6 718.467 432.681   2
   4   0   7 84.9330 269.263   2
   4   0   8 143.113 254.979   2
   4   0   9 17309.6 1892.41   2
   4   0  10 3391.07 932.669   2
  -4  -1   8 1849.84 618.758   1
  -4  -1   7 1252.03 470.563   1
   4   1  -6-493.564 581.050   3
  -4  -1   6 317.649 257.483   1
  -4  -1   5 1482.78 467.182   1
   4   1  -5 596.632 526.005   3
   4   1  -4 46210.3 2285.44   3
   4   1  -3 11091.7 1040.19   3
  -4  -1   2 12281.4 1184.47   1
   4   1  -2 12377.8 1068.85   3
  -4  -1   1 467.627 224.687   1
   4   1  -1-99.6518 236.233   3
   4   1   0 7365.99 947.734   2
  -4  -1   0 6769.00 781.087   1
   4   1   0 7214.18 811.965   3
   4   1   1 52137.5 2382.75   2
  -4  -1  -1 47376.6 1946.21   1
   4   1   2 15515.7 1314.83   2
  -4  -1  -2 15378.8 1042.26   1
  -4  -1  -3 1645.48 362.255   1
   4   1   3 1014.78 393.115   2
  -4  -1  -4 210.593 171.484   1
   4   1   4 325.327 240.684   2
   4   1   5 1300.41 466.712   2
   4   1   6 5195.96 916.879   2
   4   1   7 1261.94 520.536   2
   4   1   8 11625.4 1485.61   2
   4   1   9 5559.39 1067.15   2
   4   1  10 16278.1 1922.45   2
  -4  -2   8 4441.40 955.482   1
   4   2  -7 7880.14 1126.92   3
   4   2  -6 3300.16 932.015   3
   4   2  -5 12663.4 1484.96   3
   4   2  -4 18873.9 1655.09   3
   4   2  -3 5027.21 790.834   3
   4   2  -2 12746.2 1223.58   3
   4   2  -1 15976.3 1241.67   3
   4   2   0 3390.95 635.049   2
   4   2   0 4320.69 698.220   3
   4   2   1 5716.09 794.515   2
   4   2   1 4414.29 718.501   3
   4   2   2 3254.24 612.425   2
   4   2   3 8631.18 973.035   2
  -4  -2  -3 8308.19 703.124   1
  -4  -2  -4 2423.26 332.766   1
   4   2   4 3532.40 673.934   2
   4   2   5 35.2317 210.472   2
   4   2   6 8450.14 1124.04   2
   4   2   7 18344.2 1759.16   2
   4   2   8 14504.4 1654.00   2
   4   2   9 2968.24 819.213   2
   4   2  10 8886.91 1444.86   2
   4   3  -7 10995.7 1739.59   3
   4   3  -6 766.429 728.176   3
   4   3  -5 21177.6 2028.98   3
   4   3  -4 2658.15 849.366   3
   4   3  -3 26946.1 1961.50   3
   4   3  -2 6037.08 932.154   3
   4   3  -1-148.499 396.977   3
   4   3   0 675.210 345.316   2
   4   3   0 1361.44 533.150   3
   4   3   1 2336.85 522.981   2
   4   3   1 2279.82 602.856   3
   4   3   2 28999.6 1689.82   2
   4   3   3 48210.6 2247.47   2
   4   3   4 260.126 206.983   2
   4   3   5 7357.29 988.143   2
   4   3   6 6468.79 1004.32   2
   4   3   7 32960.6 2343.02   2
   4   3   8 2203.31 653.047   2
   4   3   9 16413.1 1828.03   2
   4   3  10-213.205 316.570   2
   4   4  -7 3506.69 1260.62   3
   4   4  -6 5236.36 1295.96   3
   4   4  -5 2860.63 988.336   3
   4   4  -4 10456.7 1485.95   3
   4   4  -3 934.874 491.226   3
   4   4  -2 12658.0 1422.89   3
   4   4  -1 301.823 336.132   3
   4   4   0 2688.55 461.376   2
   4   4   0 2515.11 629.853   3
   4   4   1 659.871 364.860   2
   4   4   1 686.540 445.987   3
   4   4   2 55857.8 2296.59   2
   4   4   2 59301.8 2886.81   3
   4   4   3 2048.89 471.311   2
   4   4   4 100784. 3402.72   2
   4   4   5 3514.53 719.807   2
   4   4   6 44340.3 2563.04   2
   4   4   7 2072.59 577.386   2
   4   4   8 10986.7 1438.57   2
   4   4   9-968.900 548.124   2
   4   4  10 5751.64 1142.11   2
   4   5  -6 1292.61 942.401   3
   4   5  -5 450.024 709.876   3
   4   5  -4 809.820 733.796   3
   4   5  -3 245.075 472.414   3
   4   5  -2 3860.85 908.913   3
   4   5  -1 923.551 525.349   3
   4   5   0 86330.4 3678.10   3
   4   5   1 31695.1 1567.71   2
   4   5   1 35347.4 2428.19   3
   4   5   2 33293.6 1686.46   2
   4   5   2 35113.0 2353.02   3
   4   5   3 4868.45 702.438   2
   4   5   3 6998.85 1106.92   3
   4   5   4 104936. 3472.02   2
   4   5   5 5153.23 842.299   2
   4   5   6 9008.75 1170.67   2
   4   5   7 29245.2 2193.06   2
   4   5   8 16939.3 1794.95   2
   4   5   9-946.323 573.860   2
   4   6  -5 205.799 799.631   3
   4   6  -4 1663.57 968.993   3
   4   6  -3 7674.38 1374.55   3
   4   6  -2 151.597 462.751   3
   4   6  -1 27735.3 2370.54   3
   4   6   0 20755.9 1986.86   3
   4   6   1 10433.6 1412.23   3
   4   6   2 599.081 506.225   3
   4   6   3 117025. 3295.03   2
   4   6   3 124384. 4726.40   3
   4   6   4 1859.59 496.313   2
   4   6   4 1841.88 688.514   3
   4   6   5 1886.49 487.183   2
   4   6   6 5729.14 902.444   2
   4   6   7 3667.88 792.510   2
   4   6   9-17.4222 710.442   2
   4   7  -4 2669.75 1159.08   3
   4   7  -3 3070.71 1053.62   3
   4   7  -2 9603.40 1556.38   3
   4   7  -1 4823.98 1146.05   3
   4   7   0 14696.8 1806.30   3
   4   7   1 14322.5 1719.09   3
   4   7   2 888.957 568.811   3
   4   7   3 8386.23 1370.03   3
   4   7   4 1559.54 707.242   3
   4   7   5 600.534 563.470   3
   4   7   5 655.607 293.013   2
   4   7   6 544.078 290.248   2
   4   7   7-281.177 433.418   2
   4   7   8 5961.29 1049.71   2
   4   7  10 4627.04 1147.50   2
   4   8  -2 8327.13 1592.49   3
   4   8  -1-447.428 692.815   3
   4   8   0 11046.7 1732.73   3
   4   8   1 2741.79 860.091   3
   4   8   2 3015.58 824.999   3
   4   8   3 1655.29 774.223   3
   4   8   4 4082.55 1099.52   3
   4   8   5 7292.94 1368.47   3
   4   8   6 13265.7 1793.57   3
   4   8   7 2642.79 949.755   3
   4   9   1 848.688 651.833   3
   4   9   2-155.093 518.213   3
   4   9   4 241.857 460.671   3
   4   9   5 5096.34 1250.40   3
   4   9   6 750.040 679.293   3
   4   9   7 6144.84 1366.31   3
  -5   7   3 2786.20 1113.84   1
  -5   7   2 2152.59 1171.27   1
  -5   7   1 24742.0 2657.70   1
  -5   7   0 2420.22 900.650   1
   5  -7   0 4072.33 1222.79   4
  -5   7  -1 6697.30 1412.44   1
  -5   7  -2 75.8405 739.477   1
  -5   6   5 904.717 819.720   1
  -5   6   4 332.864 872.178   1
  -5   6   3 8084.90 1576.51   1
  -5   6   2 5930.04 1363.65   1
  -5   6   1 4741.09 1228.19   1
  -5   6   0 39373.3 3073.68   1
  -5   6  -1 9981.08 1613.46   1
   5  -6   1 14255.2 1916.91   4
  -5   6  -2 5338.24 1234.19   1
   5  -6   2 8639.16 1460.68   4
   5  -6   3 1092.23 662.507   4
  -5   6  -3 438.276 603.734   1
   5  -6   4 6505.77 1322.73   2
   5  -6   5 5400.58 1170.87   2
  -5   5   6-259.088 476.920   1
  -5   5   5 781.079 543.761   1
  -5   5   4 38628.2 2862.60   1
  -5   5   3 3783.32 1034.73   1
  -5   5   2 5514.14 1266.68   1
  -5   5   1 2101.65 908.598   1
  -5   5   0 51458.5 3172.91   1
  -5   5  -1 4016.82 1147.11   1
   5  -5   1 5336.71 1086.04   4
  -5   5  -2 6050.64 1127.98   1
   5  -5   2 7591.93 1301.78   4
   5  -5   3 15434.3 1863.29   2
   5  -5   3 12637.6 1659.79   4
   5  -5   4 2873.54 925.097   4
   5  -5   4 4354.51 1059.38   2
   5  -5   5-180.600 425.312   4
   5  -5   5-989.531 645.767   2
   5  -5   6 1859.77 763.333   2
  -5   4   7 10593.1 1622.44   1
  -5   4   6 295.741 588.070   1
  -5   4   5 25439.1 2355.90   1
  -5   4   4 3154.60 869.040   1
  -5   4   3 25060.1 2107.19   1
  -5   4   2 2.24162 373.696   1
  -5   4   1 89719.6 4079.47   1
  -5   4   0-82.5726 616.668   1
  -5   4  -1 8899.39 1346.76   1
  -5   4  -2 1285.52 816.310   1
   5  -4   2 1437.70 740.706   4
   5  -4   2 911.062 520.794   2
   5  -4   3 11635.5 1698.23   2
  -5   4  -3 9174.33 1318.00   1
   5  -4   3 11124.3 1480.48   4
   5  -4   4 1471.26 614.506   4
   5  -4   4 840.195 589.884   2
   5  -4   5 188.057 354.086   4
   5  -4   5 344.910 439.289   2
   5  -4   6 1016.07 491.023   4
   5  -4   6 1299.98 604.909   2
   5  -4   7 9456.82 1612.02   2
   5  -4   7 7194.69 1313.95   4
  -5   3   7 7859.12 1383.75   1
  -5   3   6 12587.0 1671.92   1
  -5   3   5 22167.3 2144.76   1
  -5   3   4 13958.9 1677.76   1
  -5   3   3 26020.6 2188.22   1
  -5   3   2 10346.8 1347.68   1
  -5   3   1 15614.3 1599.70   1
  -5   3   0 6609.58 1008.75   1
   5  -3   1 15464.2 1759.90   2
  -5   3  -1 17275.6 1728.93   1
  -5   3  -2 824.076 550.791   1
   5  -3   2 1821.40 644.132   2
  -5   3  -3 3059.28 920.964   1
   5  -3   3 3158.53 797.780   4
   5  -3   3 2443.39 797.046   2
   5  -3   4 1061.13 518.606   4
   5  -3   4-460.504 481.021   2
   5  -3   5 665.263 422.241   4
   5  -3   5 599.391 531.704   2
   5  -3   6 9029.45 1444.33   2
   5  -3   6 9656.01 1349.26   4
   5  -3   7 11590.9 1705.25   2
   5  -3   7 12611.6 1579.40   4
  -5   2   7-1464.97 692.441   1
  -5   2   6 28573.7 2490.69   1
  -5   2   5 186.524 397.089   1
  -5   2   4 18130.5 1830.73   1
  -5   2   3 5804.06 1036.28   1
  -5   2   2 331.882 473.386   1
  -5   2   1 72.5666 302.721   1
  -5   2   0 4747.79 840.691   1
   5  -2   1 8109.51 1292.54   2
  -5   2  -1 7312.49 958.790   1
   5  -2   2 8912.28 1371.91   2
  -5   2  -2 8625.34 1208.35   1
  -5   2  -3 3367.26 766.125   1
   5  -2   3 3492.57 899.631   2
   5  -2   4 17944.0 1859.88   2
   5  -2   4 17678.1 1686.69   4
   5  -2   5 11477.9 1539.19   2
   5  -2   5 9546.40 1247.14   4
   5  -2   6 18655.4 1997.58   2
   5  -2   6 17852.6 1721.19   4
   5  -2   7 19.8954 280.971   4
   5  -2   7-31.8072 408.084   2
   5  -2   8 8916.14 1510.69   2
  -5   1   7 8639.05 1300.07   1
  -5   1   5-656.397 354.030   1
  -5   1   4 211.249 203.926   1
  -5   1   3 1342.24 479.064   1
  -5   1   2 87.1868 125.367   1
  -5   1   1 23897.3 1882.71   1
  -5   1   0 1113.74 464.636   1
   5  -1   0 778.327 354.076   3
   5  -1   1 50902.8 3004.52   2
  -5   1  -1 48974.6 2459.31   1
   5  -1   2 2825.18 786.508   2
  -5   1  -2 2946.47 600.152   1
   5  -1   3 28167.6 2242.75   2
  -5   1  -3 26327.1 1786.95   1
   5  -1   4 5170.42 1042.41   2
   5  -1   5 29650.9 2364.71   2
   5  -1   6 421.298 312.207   4
   5  -1   6-1104.69 603.650   2
   5  -1   7 40854.3 2915.88   2
   5  -1   8 4852.61 1070.47   2
  -5   0   7 4578.87 1016.67   1
  -5   0   6 8491.07 1284.26   1
  -5   0   5 1703.58 567.830   1
  -5   0   4 2237.78 605.884   1
  -5   0   3 15318.5 1555.90   1
  -5   0   2 4108.77 756.365   1
   5   0  -2 4093.42 601.819   3
  -5   0   1 7113.32 958.189   1
   5   0  -1 5087.49 640.775   3
   5   0   0 140.010 332.866   3
  -5   0  -1 33173.5 1997.18   1
   5   0   1 33421.4 2347.28   2
  -5   0  -2 109099. 3366.73   1
   5   0   2 113318. 4251.64   2
   5   0   3 37908.8 2463.47   2
  -5   0  -3 34763.9 1756.68   1
   5   0   4 1308.05 604.078   2
   5   0   5 5286.03 989.513   2
   5   0   6 4369.13 917.983   2
   5   0   7 4658.21 985.484   2
   5   0   8 510.712 418.291   2
   5   0   9 1185.18 603.684   2
  -5  -1   7 1297.93 533.453   1
  -5  -1   6 1201.12 482.014   1
  -5  -1   5 915.484 413.253   1
  -5  -1   4 1918.79 567.436   1
   5   1  -3-155.951 361.100   3
  -5  -1   3 52.5349 157.686   1
  -5  -1   2 37263.3 2279.90   1
   5   1  -2 31051.9 1826.79   3
  -5  -1   1 2987.15 616.751   1
   5   1  -1 950.072 291.610   3
   5   1   0 67974.4 3122.98   2
  -5  -1   0 62435.9 2731.06   1
   5   1   0 59152.7 2498.46   3
  -5  -1  -1 1991.90 459.865   1
   5   1   1 1447.80 554.516   2
   5   1   1 2161.93 589.156   3
  -5  -1  -2 21341.6 1427.62   1
   5   1   2 24441.0 1929.42   2
  -5  -1  -3 145.260 279.874   1
   5   1   3 396.837 458.220   2
   5   1   4 25563.5 2019.97   2
   5   1   5 22059.0 1928.27   2
   5   1   6 153.399 217.531   2
   5   1   7 1193.93 507.692   2
   5   1   8 3115.53 814.910   2
   5   1   9 416.772 488.355   2
  -5  -2   7 1416.29 548.612   1
  -5  -2   6 504.535 369.402   1
  -5  -2   5 33514.0 2487.79   1
   5   2  -5 26383.5 2193.94   3
   5   2  -4 4128.37 984.860   3
   5   2  -3 13792.4 1369.74   3
   5   2  -2 11880.4 1257.55   3
   5   2  -1 32096.3 1963.90   3
  -5  -2   0 4446.81 721.347   1
   5   2   0 4133.54 800.960   3
   5   2   0 2704.92 606.754   2
   5   2   1 81190.8 3409.77   2
  -5  -2  -1 76208.8 2843.63   1
   5   2   1 84836.1 3235.72   3
   5   2   2 3521.76 784.645   2
  -5  -2  -2 3076.95 581.650   1
   5   2   3 27887.3 2031.34   2
  -5  -2  -3 28512.7 1537.23   1
   5   2   5-323.343 288.802   2
   5   2   6 4972.79 987.279   2
   5   2   7 2745.34 748.497   2
   5   2   8 2903.73 794.309   2
   5   2   9 23806.9 2338.77   2
   5   3  -6 1113.51 949.611   3
   5   3  -5 6896.09 1337.67   3
   5   3  -4 9406.91 1420.80   3
   5   3  -3 40384.4 2563.50   3
   5   3  -2 5714.27 992.958   3
   5   3  -1 44124.4 2521.16   3
   5   3   0 790.092 372.404   2
   5   3   0 1863.44 655.203   3
   5   3   1 25629.9 1877.61   2
   5   3   1 29408.7 2062.36   3
   5   3   2 4629.96 868.236   2
   5   3   2 4326.91 871.733   3
   5   3   3 8214.58 1095.66   2
  -5  -3  -3 8886.73 878.988   1
   5   3   5 1285.09 482.559   2
   5   3   6 781.149 356.254   2
   5   3   7 3361.20 796.159   2
   5   3   8 4792.97 992.274   2
   5   3   9 24444.9 2379.53   2
   5   4  -6 4671.00 1372.19   3
   5   4  -5 116.986 780.124   3
   5   4  -4 27578.2 2494.81   3
   5   4  -3 8978.20 1333.57   3
   5   4  -2 5962.29 1090.38   3
   5   4  -1-185.766 442.372   3
   5   4   0 2662.92 676.313   3
   5   4   1 12113.0 1239.94   2
   5   4   1 15677.9 1640.98   3
   5   4   2 1631.30 565.051   2
   5   4   2 1131.97 606.274   3
   5   4   3 1280.12 623.264   3
   5   4   3 968.940 466.707   2
   5   4   4 6939.13 1003.85   2
   5   4   5 483.029 264.642   2
   5   4   6 19863.0 1844.50   2
   5   4   7 531.346 324.131   2
   5   4   8 15721.9 1791.86   2
   5   4   9 1139.69 527.859   2
   5   5  -5 2110.78 1153.45   3
   5   5  -4 4322.10 1281.06   3
   5   5  -3-305.076 571.160   3
   5   5  -2 2823.99 832.683   3
   5   5  -1 292.005 508.494   3
   5   5   1 4465.48 986.465   3
   5   5   2 3353.72 713.878   2
   5   5   2 4969.38 1039.95   3
   5   5   3 38723.2 2251.51   2
   5   5   3 44719.7 2882.59   3
   5   5   4 1006.19 671.503   3
   5   5   4-686.124 300.885   2
   5   5   5 7298.12 1039.20   2
   5   5   6 25944.6 2076.54   2
   5   5   7 13385.0 1562.64   2
   5   5   8 2800.59 740.825   2
   5   5   9 17931.9 1975.08   2
   5   6  -4 8474.64 1720.82   3
   5   6  -3-235.735 592.264   3
   5   6  -2 4052.45 1085.90   3
   5   6  -1 6955.83 1342.06   3
   5   6   0 223.245 472.543   3
   5   6   1 5093.90 1040.41   3
   5   6   2 1970.62 832.503   3
   5   6   3 26477.8 2360.15   3
   5   6   4 3884.25 1042.75   3
   5   6   5 30078.3 2097.27   2
   5   6   5 40036.6 2949.25   3
   5   6   6 5160.38 901.915   2
   5   6   7 4078.83 858.020   2
   5   6   8 3277.24 819.239   2
   5   6   9 4788.19 1034.81   2
   5   7  -2 409.274 645.314   3
   5   7  -1 2705.31 991.171   3
   5   7   0 16945.0 2062.92   3
   5   7   1 934.352 604.153   3
   5   7   2 30490.9 2694.04   3
   5   7   3 1635.86 877.933   3
   5   7   4 10901.9 1672.99   3
   5   7   5 498.942 691.064   3
   5   7   6 4998.20 1228.90   3
   5   7   7 1524.27 536.140   2
   5   7   8 1365.09 531.553   2
   5   7   9-6.07181 189.761   2
   5   8   0 8948.15 1663.71   3
   5   8   1 2905.89 991.774   3
   5   8   2 749.508 605.248   3
   5   8   3 32254.5 2902.12   3
   5   8   4 5366.86 1316.76   3
   5   8   5 5483.29 1310.90   3
   5   8   6 771.534 761.703   3
  -6   6   2 1231.09 1042.11   1
  -6   6   1 499.731 943.977   1
  -6   6   0 3616.12 1429.11   1
  -6   6  -1-232.182 1101.14   1
  -6   5   3-225.179 997.470   1
  -6   5   2 1086.61 1012.37   1
  -6   5   1 21044.0 2343.72   1
  -6   5   0-37.9875 868.930   1
  -6   5  -1 2191.93 1180.54   1
  -6   4   4 600.781 689.184   1
  -6   4   3 4031.17 996.785   1
  -6   4   2 5591.28 1187.26   1
  -6   4   1 16454.4 2014.42   1
  -6   4   0 8080.22 1527.67   1
  -6   4  -1 31367.4 2593.26   1
  -6   4  -2 8208.96 1478.03   1
   6  -4   3 4002.99 1036.99   2
   6  -4   4 2664.45 818.970   4
   6  -4   4 326.875 631.442   2
   6  -4   5 4169.72 1067.07   4
  -6   3   5 1659.07 823.106   1
  -6   3   4 35868.2 2867.44   1
  -6   3   3 2686.84 912.341   1
  -6   3   2 41300.5 2897.89   1
  -6   3   1 2147.28 770.601   1
  -6   3   0 36290.7 2575.96   1
  -6   3  -1-12.7136 815.914   1
   6  -3   2 16207.7 2008.79   2
  -6   3  -2 16711.8 1797.58   1
   6  -3   3 797.377 563.650   2
   6  -3   4 566.761 508.686   2
   6  -3   5-150.273 530.509   2
   6  -3   6-105.852 366.010   4
  -6   2   5 7750.61 1449.31   1
  -6   2   4 47579.9 3285.44   1
  -6   2   3 6205.13 1211.75   1
  -6   2   2 8036.02 1298.52   1
  -6   2   1 14706.2 1687.76   1
  -6   2   0 23523.9 1991.10   1
   6  -2   1 340.256 447.978   2
  -6   2  -1 2087.39 668.938   1
  -6   2  -2 639.171 782.730   1
   6  -2   2 1654.85 708.541   2
   6  -2   3-705.422 561.800   2
   6  -2   4 637.288 505.774   2
   6  -2   5 2631.99 959.212   2
   6  -2   6 7671.63 1517.73   2
  -6   1   5 24515.9 2361.27   1
  -6   1   3 6343.57 1172.54   1
  -6   1   2 240.520 496.613   1
  -6   1   1 27556.6 2247.17   1
  -6   1   0 2036.55 699.830   1
  -6   1  -1 1518.71 630.088   1
   6  -1   1 380.095 427.002   2
   6  -1   2 1838.91 740.395   2
  -6   1  -2 1348.39 526.002   1
   6  -1   3 5165.10 1078.49   2
   6  -1   4 1512.53 680.990   2
   6  -1   5 13493.7 1810.12   2
   6  -1   6 1017.48 821.255   2
   6  -1   7 29107.1 2770.38   2
  -6   0   5 918.616 487.891   1
  -6   0   4 14848.0 1749.98   1
  -6   0   3 1185.82 491.977   1
  -6   0   1-810.751 419.315   1
  -6   0   0 100.766 457.285   1
  -6   0  -1 403.781 458.649   1
   6   0   1 463.176 452.484   2
  -6   0  -2 340.818 496.394   1
   6   0   2-929.410 615.290   2
   6   0   3 16323.6 1932.95   2
   6   0   4 31608.9 2657.42   2
   6   0   5 3294.77 975.599   2
   6   0   6 7669.00 1411.72   2
   6   0   7 12511.5 1771.72   2
  -6  -1   5 1682.82 623.961   1
  -6  -1   4 15828.4 1825.11   1
  -6  -1   3 1260.50 503.778   1
  -6  -1   2 1207.76 508.418   1
  -6  -1   1 808.847 396.281   1
   6   1   0 1505.02 648.794   3
   6   1   1 24118.2 2172.63   2
  -6  -1  -1 20356.6 1690.10   1
   6   1   1 21286.2 1688.43   3
  -6  -1  -2 25028.0 1857.61   1
   6   1   2 23469.0 2209.77   2
   6   1   3 574.353 570.228   2
   6   1   4 3072.30 926.919   2
   6   1   5 682.429 650.214   2
   6   1   6 14585.1 1842.17   2
   6   1   7 7279.86 1282.28   2
   6   1   8 1282.35 655.631   2
  -6  -2   5 3556.86 910.844   1
  -6  -2   4 6222.89 1121.83   1
  -6  -2   3 21834.9 2043.80   1
  -6  -2   2 3017.27 740.889   1
  -6  -2   1 7257.95 1099.84   1
   6   2  -1 6099.95 1007.54   3
  -6  -2   0 1576.32 517.094   1
   6   2   0 190.358 479.660   3
   6   2   1 15604.9 1718.40   2
  -6  -2  -1 16967.5 1544.28   1
   6   2   1 18254.3 1670.65   3
   6   2   2 6600.93 1158.05   2
  -6  -2  -2 7466.08 966.109   1
   6   2   2 8485.66 1210.42   3
   6   2   3 43253.0 2873.77   2
   6   2   4 759.011 683.124   2
   6   2   5 7939.48 1316.12   2
   6   2   8-844.099 500.447   2
  -6  -3   4 4663.71 1001.97   1
  -6  -3   3 1651.75 616.213   1
  -6  -3   2 36590.1 2542.77   1
   6   3  -2 36493.9 2525.06   3
  -6  -3   1 10776.0 1363.63   1
   6   3  -1 10197.1 1346.84   3
  -6  -3   0 30978.8 2170.15   1
   6   3   0 29310.8 2175.81   3
   6   3   1 5448.68 1045.36   2
  -6  -3  -1 3821.97 755.711   1
   6   3   2 30166.5 2315.99   2
  -6  -3  -2 29753.9 1924.80   1
   6   3   2 33739.7 2408.92   3
   6   3   3 9200.33 1338.47   2
   6   3   3 9604.18 1398.39   3
   6   3   4 3225.02 864.456   2
   6   3   5-103.734 618.782   2
   6   3   6-1115.43 563.805   2
   6   3   7-19.8294 69.2002   2
   6   3   8 2896.97 805.154   2
   6   4  -3 1828.75 762.082   3
   6   4  -2 43133.3 2947.64   3
   6   4  -1-183.483 573.801   3
   6   4   0 6087.66 1092.05   3
   6   4   1 16568.6 1888.65   3
   6   4   2 10359.8 1352.19   2
   6   4   2 18818.6 1954.66   3
   6   4   3 1455.54 651.471   2
   6   4   3 410.619 651.771   3
   6   4   4 3758.27 966.155   2
   6   4   6 4152.87 855.539   2
   6   4   7-686.184 412.640   2
   6   4   8 7432.00 1287.19   2
   6   5  -4 4048.04 1417.94   3
   6   5  -3 6282.97 1348.26   3
   6   5  -2-377.431 744.963   3
   6   5  -1 11357.0 1672.85   3
   6   5   0 2625.18 893.537   3
   6   5   1 1430.35 734.173   3
   6   5   2 1277.24 844.239   3
   6   5   3 613.226 657.935   3
   6   5   4 1258.76 701.258   2
   6   5   4-181.772 709.963   3
   6   5   5 16759.6 1702.16   2
   6   5   7 3306.78 823.810   2
   6   5   8 2644.69 757.847   2
   6   6  -2 11027.6 1787.24   3
   6   6  -1-213.410 670.187   3
   6   6   0-627.004 866.422   3
   6   6   2 630.983 696.538   3
   6   6   3 1385.84 894.675   3
   6   6   4 3508.98 1139.69   3
   6   6   5 25040.9 2529.53   3
   6   6   7 9111.02 1362.83   2
   6   6   8 12531.6 1643.36   2
   6   7   0 583.449 788.275   3
   6   7   1 530.559 671.956   3
   6   7   2 4033.32 1063.32   3
   6   7   3 5039.37 1359.60   3
   6   7   4 12048.0 1870.41   3
   6   7   5 290.946 767.868   3
  -7   4   1-962.289 1446.09   1
  -7   4   0 1538.71 1209.51   1
  -7   3   2 8608.66 1543.22   1
  -7   3   1 581.615 700.247   1
  -7   3   0 8308.12 1520.31   1
  -7   2   3 10675.1 1735.44   1
  -7   2   2 8123.97 1495.21   1
  -7   2   1 7788.91 1426.49   1
  -7   2   0 7.48496 652.821   1
   7  -2   2 8250.46 1575.07   2
   7  -2   3 790.194 669.184   2
  -7   1   3 8238.10 1574.19   1
  -7   1   2 4676.08 1209.18   1
  -7   1   1 5963.14 1245.87   1
  -7   1   0 3247.40 1000.03   1
  -7   1  -1 8872.76 1374.26   1
   7  -1   2 3289.73 1010.19   2
   7  -1   3 1205.78 757.391   2
   7  -1   4 2175.84 904.967   2
  -7   0   2 15841.1 1887.03   1
  -7   0   1 1178.37 769.680   1
  -7   0   0 748.769 708.195   1
  -7   0  -1 2265.84 841.814   1
   7   0   2 399.984 667.669   2
   7   0   3-1774.37 898.962   2
   7   0   4 3670.55 1088.26   2
   7   0   5 5943.10 1407.22   2
  -7  -1   3 2935.07 899.030   1
  -7  -1   2 3754.23 920.501   1
  -7  -1   1 5507.52 1059.23   1
  -7  -1  -1 636.999 711.772   1
   7   1   2 617.834 495.945   2
   7   1   3 8578.91 1567.01   2
   7   1   4 8692.18 1555.06   2
   7   1   5 3063.75 1170.92   2
   7   1   6 3361.91 1171.55   2
  -7  -2   3 12185.6 1671.85   1
  -7  -2   2 2786.37 852.381   1
  -7  -2   1 2194.72 694.144   1
  -7  -2   0 935.304 539.822   1
  -7  -2  -1-301.682 621.657   1
   7   2   2 2479.56 796.584   2
   7   2   3 6941.83 1314.72   3
   7   2   3 5994.44 1267.29   2
   7   2   4 5105.73 1306.87   2
   7   2   5 26202.6 2625.98   2
   7   2   6 1852.51 953.888   2
  -7  -3   2 1371.28 617.236   1
  -7  -3   1 1816.98 703.526   1
  -7  -3   0 9297.95 1353.78   1
   7   3   1 591.283 819.547   3
   7   3   2 21964.2 2292.19   2
   7   3   2 22574.4 2183.21   3
   7   3   3 178.531 877.917   2
   7   3   3 679.567 744.680   3
   7   3   4 23647.1 2389.82   2
   7   3   4 24375.5 2354.30   3
   7   3   5 5198.74 1356.12   2
   7   3   6 6880.92 1473.36   2
  -7  -4   2 4494.28 1061.41   1
  -7  -4   1 2677.60 821.002   1
  -7  -4   0 9312.86 1342.05   1
   7   4   0 7301.91 1339.84   3
   7   4   1 1768.29 763.911   3
   7   4   2 4556.46 1258.63   3
   7   4   3 9889.77 1636.63   3
   7   4   4 6786.90 1355.37   2
   7   4   4 6687.03 1430.89   3
   7   4   5 1443.69 880.514   2
   7   4   6 9594.64 1613.96   2
   7   5  -1 1196.22 776.710   3
   7   5   0-331.838 924.662   3
   7   5   1 8036.86 1362.16   3
   7   5   2 2237.91 1107.65   3
   7   5   3 4298.71 1298.72   3
   7   5   4-559.289 889.425   3
   7   5   5-33.9824 866.450   3
   7   5   6 2220.37 987.499   2
   7   5   7 325.821 1105.40   2
   0   0   0    0.00    0.00   0
;
_shelx_hkl_checksum              62074
_shelx_res_file
;
TITL exp_1593
CELL  0.71073   6.0538   8.5273   9.3869   73.623   82.681   84.207
ZERR     2.00   0.0005   0.0006   0.0008    0.007    0.007    0.007
LATT   1
SFAC  C    H    N    O    S
UNIT  8    28   4    6    4
MERG   2
OMIT    -2.00  52.00
SADI N1 H1N N1 H1M N1 H1Q
SADI N2 H2N N2 H2M N2 H2Q
FMAP   2
PLAN   10
ACTA
BOND   $H
CONF
EQIV  $1 -x+1, -y+1, -z
EQIV  $2 -x+1, -y+1, -z+1
EQIV  $3 -x, -y+1, -z
EQIV  $4 x+1, y, z
EQIV  $5 1-x,-y, 1-z
EQIV  $6 1-x, -y, -z
RTAB D1 N1 N1_$5
RTAB D2 N2 N2_$6
RTAB D3 C2 C2_$5
RTAB D4 C4 C4_$6
HTAB  N1 O2
HTAB  N1 O2_$2
HTAB  N1 O3_$4
HTAB  N2 O1_$1
HTAB  N2 O3
HTAB  N2 O1
HTAB  N2 S2_$3
L.S.   4
TEMP  -153.16
WGHT    0.044800    1.079500
FVAR       9.34848
S1    5    0.191504    0.585230    0.212773    11.00000    0.01903    0.01620 =
         0.01757   -0.00634   -0.00322    0.00023
S2    5   -0.048457    0.730960    0.287147    11.00000    0.02259    0.02080 =
         0.02231   -0.00987   -0.00570    0.00429
O1    4    0.246404    0.646394    0.048784    11.00000    0.02581    0.02449 =
         0.01593   -0.00205   -0.00329   -0.00248
O2    4    0.393354    0.582114    0.289051    11.00000    0.01859    0.02242 =
         0.02019   -0.00747   -0.00758    0.00408
O3    4    0.114088    0.416654    0.248750    11.00000    0.02980    0.01941 =
         0.03175   -0.01295    0.00420   -0.00376
N1    3    0.711055    0.342345    0.424316    11.00000    0.02138    0.01529 =
         0.02214   -0.00571   -0.00570   -0.00052
N2    3    0.288179    0.288711    0.001984    11.00000    0.02059    0.01348 =
         0.02038   -0.00495   -0.00115    0.00152
C1    1    0.496786    0.090761    0.498461    11.00000    0.02648    0.01494 =
         0.01627   -0.00331   -0.00443   -0.00010
AFIX  23
H1A   2    0.370732    0.151481    0.444235    11.00000   -1.20000
H1B   2    0.471351    0.100692    0.601943    11.00000   -1.20000
AFIX   0
C2    1    0.713861    0.166693    0.422747    11.00000    0.02645    0.01595 =
         0.02574   -0.00842   -0.00029    0.00040
AFIX  23
H2A   2    0.840459    0.103529    0.474826    11.00000   -1.20000
H2B   2    0.736574    0.160202    0.318182    11.00000   -1.20000
AFIX   0
C3    1    0.474667    0.006811    0.079630    11.00000    0.02578    0.01337 =
         0.01472   -0.00404   -0.00232    0.00058
AFIX  23
H3A   2    0.604202    0.050058    0.107000    11.00000   -1.20000
H3B   2    0.455020   -0.104047    0.147897    11.00000   -1.20000
AFIX   0
C4    1    0.265960    0.117591    0.102282    11.00000    0.02609    0.01500 =
         0.02077   -0.00534   -0.00037   -0.00246
AFIX  23
H4A   2    0.134132    0.071825    0.080546    11.00000   -1.20000
H4B   2    0.242336    0.121001    0.207714    11.00000   -1.20000
AFIX   0
H2N   2    0.430138    0.319777   -0.009798    11.00000    0.01177
H2Q   2    0.196099    0.353903    0.049865    11.00000    0.02558
H1N   2    0.598057    0.407336    0.377673    11.00000    0.03383
H1M   2    0.680753    0.350963    0.519236    11.00000    0.05327
H2M   2    0.257954    0.304241   -0.094189    11.00000    0.06953
H1Q   2    0.848132    0.378601    0.383797    11.00000    0.04735
HKLF 4
REM  exp_1593
REM R1 =  0.0529 for    1416 Fo > 4sig(Fo)  and  0.0725 for all    1786 data
REM    124 parameters refined using      6 restraints
END
WGHT      0.0446      1.0829
REM Highest difference peak  0.566,  deepest hole -0.515,  1-sigma level  0.112
Q1    1   0.6715  0.1012  0.2968  11.00000  0.05    0.57
Q2    1   0.1450  0.4865  0.2354  11.00000  0.05    0.56
Q3    1   0.2920  0.1362  0.6300  11.00000  0.05    0.55
Q4    1   0.0840  0.6315  0.2542  11.00000  0.05    0.52
Q5    1   0.4229  0.4305  0.1445  11.00000  0.05    0.51
Q6    1   0.0648  0.6793  0.2380  11.00000  0.05    0.51
Q7    1   0.0413  0.4639  0.3149  11.00000  0.05    0.46
Q8    1   0.2619  0.5427  0.1404  11.00000  0.05    0.43
Q9    1   0.3508  0.5649  0.0376  11.00000  0.05    0.42
Q10   1  -0.0734  0.8132  0.1738  11.00000  0.05    0.41
;
_shelx_res_checksum              9522
_shelxl_version_number           2.014
loop_
_symmetry_equiv_pos_as_xyz
'x, y, z'
'-x, -y, -z'
loop_
_atom_site_type_symbol
_atom_site_label
_atom_site_fract_x
_atom_site_fract_y
_atom_site_fract_z
_atom_site_U_iso_or_equiv
_atom_site_adp_type
_atom_site_calc_flag
_atom_site_occupancy
S S1 0.19150(15) 0.58523(11) 0.21277(10) 0.0172(3) Uani d 1
S S2 -0.04846(16) 0.73096(12) 0.28715(11) 0.0212(3) Uani d 1
O O1 0.2464(4) 0.6464(3) 0.0488(3) 0.0226(6) Uani d 1
O O2 0.3934(4) 0.5821(3) 0.2891(3) 0.0200(6) Uani d 1
O O3 0.1141(5) 0.4167(3) 0.2488(3) 0.0263(7) Uani d 1
N N1 0.7111(6) 0.3423(4) 0.4243(4) 0.0192(7) Uani d 1
N N2 0.2882(5) 0.2887(4) 0.0020(4) 0.0184(7) Uani d 1
C C1 0.4968(6) 0.0908(4) 0.4985(4) 0.0193(8) Uani d 1
H H1A 0.3707 0.1515 0.4442 0.023 Uiso calc 1
H H1B 0.4714 0.1007 0.6019 0.023 Uiso calc 1
C C2 0.7139(7) 0.1667(4) 0.4227(4) 0.0225(9) Uani d 1
H H2A 0.8405 0.1035 0.4748 0.027 Uiso calc 1
H H2B 0.7366 0.1602 0.3182 0.027 Uiso calc 1
C C3 0.4747(6) 0.0068(4) 0.0796(4) 0.0180(8) Uani d 1
H H3A 0.6042 0.0501 0.107 0.022 Uiso calc 1
H H3B 0.455 -0.104 0.1479 0.022 Uiso calc 1
C C4 0.2660(6) 0.1176(4) 0.1023(4) 0.0206(8) Uani d 1
H H4A 0.1341 0.0718 0.0805 0.025 Uiso calc 1
H H4B 0.2423 0.121 0.2077 0.025 Uiso calc 1
H H2N 0.430(4) 0.320(4) -0.010(4) 0.012(9) Uiso d 1
H H2Q 0.196(6) 0.354(5) 0.050(4) 0.026(11) Uiso d 1
H H1N 0.598(6) 0.407(5) 0.378(5) 0.034(12) Uiso d 1
H H1M 0.681(9) 0.351(6) 0.519(3) 0.053(16) Uiso d 1
H H2M 0.258(9) 0.304(7) -0.094(4) 0.070(19) Uiso d 1
H H1Q 0.848(5) 0.379(6) 0.384(5) 0.047(15) Uiso d 1
loop_
_atom_site_aniso_label
_atom_site_aniso_U_11
_atom_site_aniso_U_22
_atom_site_aniso_U_33
_atom_site_aniso_U_12
_atom_site_aniso_U_13
_atom_site_aniso_U_23
S1 0.0190(5) 0.0162(5) 0.0176(5) 0.0002(4) -0.0032(4) -0.0063(4)
S2 0.0226(5) 0.0208(5) 0.0223(5) 0.0043(4) -0.0057(4) -0.0099(4)
O1 0.0258(15) 0.0245(15) 0.0159(13) -0.0025(12) -0.0033(11) -0.0020(11)
O2 0.0186(14) 0.0224(14) 0.0202(14) 0.0041(11) -0.0076(11) -0.0075(11)
O3 0.0298(16) 0.0194(15) 0.0318(16) -0.0038(12) 0.0042(12) -0.0130(12)
N1 0.0214(18) 0.0153(17) 0.0221(18) -0.0005(14) -0.0057(14) -0.0057(14)
N2 0.0206(18) 0.0135(16) 0.0204(17) 0.0015(13) -0.0012(14) -0.0049(14)
C1 0.026(2) 0.015(2) 0.0163(18) -0.0001(16) -0.0044(16) -0.0033(15)
C2 0.026(2) 0.016(2) 0.026(2) 0.0004(16) -0.0003(17) -0.0084(17)
C3 0.026(2) 0.0134(18) 0.0147(19) 0.0006(15) -0.0023(15) -0.0040(15)
C4 0.026(2) 0.0150(19) 0.0208(19) -0.0025(16) -0.0004(16) -0.0053(16)
loop_
_atom_type_symbol
_atom_type_description
_atom_type_scat_dispersion_real
_atom_type_scat_dispersion_imag
_atom_type_scat_source
C C 0.0033 0.0016 'International Tables Vol C Tables 4.2.6.8 and 6.1.1.4'
H H 0 0 'International Tables Vol C Tables 4.2.6.8 and 6.1.1.4'
N N 0.0061 0.0033 'International Tables Vol C Tables 4.2.6.8 and 6.1.1.4'
O O 0.0106 0.006 'International Tables Vol C Tables 4.2.6.8 and 6.1.1.4'
S S 0.1246 0.1234 'International Tables Vol C Tables 4.2.6.8 and 6.1.1.4'
loop_
_geom_angle_atom_site_label_1
_geom_angle_atom_site_label_2
_geom_angle_atom_site_label_3
_geom_angle_site_symmetry_1
_geom_angle_site_symmetry_3
_geom_angle
O1 S1 O2 . . 109.55(15)
O1 S1 O3 . . 108.95(16)
O2 S1 O3 . . 109.82(16)
O1 S1 S2 . . 111.03(11)
O2 S1 S2 . . 108.18(11)
O3 S1 S2 . . 109.30(12)
C2 N1 H1N . . 114(3)
C2 N1 H1M . . 110(3)
H1N N1 H1M . . 102(4)
C2 N1 H1Q . . 107(3)
H1N N1 H1Q . . 112(4)
H1M N1 H1Q . . 111(4)
C4 N2 H2N . . 112(2)
C4 N2 H2Q . . 105(3)
H2N N2 H2Q . . 109(3)
C4 N2 H2M . . 116(4)
H2N N2 H2M . . 103(4)
H2Q N2 H2M . . 112(4)
C2 C1 C1 . 2_656 111.5(4)
C2 C1 H1A . . 109.3
C1 C1 H1A 2_656 . 109.3
C2 C1 H1B . . 109.3
C1 C1 H1B 2_656 . 109.3
H1A C1 H1B . . 108
N1 C2 C1 . . 111.6(3)
N1 C2 H2A . . 109.3
C1 C2 H2A . . 109.3
N1 C2 H2B . . 109.3
C1 C2 H2B . . 109.3
H2A C2 H2B . . 108
C3 C3 C4 2_655 . 113.5(4)
C3 C3 H3A 2_655 . 108.9
C4 C3 H3A . . 108.9
C3 C3 H3B 2_655 . 108.9
C4 C3 H3B . . 108.9
H3A C3 H3B . . 107.7
N2 C4 C3 . . 111.1(3)
N2 C4 H4A . . 109.4
C3 C4 H4A . . 109.4
N2 C4 H4B . . 109.4
C3 C4 H4B . . 109.4
H4A C4 H4B . . 108
loop_
_geom_bond_atom_site_label_1
_geom_bond_atom_site_label_2
_geom_bond_site_symmetry_2
_geom_bond_distance
S1 O1 . 1.485(3)
S1 O2 . 1.487(3)
S1 O3 . 1.491(3)
S1 S2 . 2.0021(13)
N1 C2 . 1.500(5)
N1 H1N . 0.91(3)
N1 H1M . 0.91(3)
N1 H1Q . 0.91(3)
N2 C4 . 1.505(5)
N2 H2N . 0.91(2)
N2 H2Q . 0.91(2)
N2 H2M . 0.91(3)
C1 C2 . 1.525(5)
C1 C1 2_656 1.537(7)
C1 H1A . 0.99
C1 H1B . 0.99
C2 H2A . 0.99
C2 H2B . 0.99
C3 C3 2_655 1.522(7)
C3 C4 . 1.529(5)
C3 H3A . 0.99
C3 H3B . 0.99
C4 H4A . 0.99
C4 H4B . 0.99
loop_
_geom_hbond_atom_site_label_D
_geom_hbond_atom_site_label_H
_geom_hbond_atom_site_label_A
_geom_hbond_site_symmetry_A
_geom_hbond_distance_DH
_geom_hbond_distance_HA
_geom_hbond_distance_DA
_geom_hbond_angle_DHA
N1 H1N O2 . 0.91(3) 1.91(3) 2.803(4) 167(4)
N1 H1M O2 2_666 0.91(3) 2.02(3) 2.918(4) 169(5)
N1 H1Q O3 1_655 0.91(3) 1.91(3) 2.787(4) 160(5)
N2 H2N O1 2_665 0.91(2) 1.98(3) 2.880(4) 170(3)
N2 H2Q O3 . 0.91(2) 2.07(3) 2.870(4) 145(3)
N2 H2Q O1 . 0.91(2) 2.54(4) 3.183(4) 128(3)
N2 H2M S2 2_565 0.91(3) 2.44(3) 3.288(3) 155(5)
loop_
_geom_torsion_atom_site_label_1
_geom_torsion_atom_site_label_2
_geom_torsion_atom_site_label_3
_geom_torsion_atom_site_label_4
_geom_torsion_site_symmetry_1
_geom_torsion
C1 C1 C2 N1 2_656 -178.0(4)
C3 C3 C4 N2 2_655 -59.2(5)

_cod_database_fobs_code 2108120
