#------------------------------------------------------------------------------
#$Date: 2021-02-05 16:52:16 +0200 (Fri, 05 Feb 2021) $
#$Revision: 261797 $
#$URL: file:///home/coder/svn-repositories/cod/cif/2/10/87/2108743.cif $
#------------------------------------------------------------------------------
#
# This file is available in the Crystallography Open Database (COD),
# http://www.crystallography.net/. The original data for this entry
# were provided by IUCr Journals, http://journals.iucr.org/.
#
# The file may be used within the scientific community so long as
# proper attribution is given to the journal article from which the
# data were obtained.
#
data_2108743
loop_
_publ_author_name
'\/Lawniczak, Pawe\/l'
'Pogorzelec-Glaser, Katarzyna'
'Pietraszko, Adam'
'Hilczer, Bo\.zena'
_publ_section_title
;
 Effect of disordered imidazole substructure on proton dynamics in
 imidazolium malonic acid salt
;
_journal_issue                   1
_journal_name_full               'Acta Crystallographica Section B'
_journal_page_first              31
_journal_page_last               40
_journal_paper_doi               10.1107/S2052520620014365
_journal_volume                  77
_journal_year                    2021
_chemical_formula_moiety         'C6 H5 O8, 3(C3 H5 N2)'
_chemical_formula_sum            'C7.5 H10 N3 O4'
_chemical_formula_weight         206.18
_space_group_crystal_system      triclinic
_space_group_IT_number           2
_space_group_name_Hall           '-P 1'
_space_group_name_H-M_alt        'P -1'
_atom_sites_solution_hydrogens   difmap
_audit_creation_method           SHELXL-2013
_cell_angle_alpha                116.22(3)
_cell_angle_beta                 101.88(3)
_cell_angle_gamma                91.18(3)
_cell_formula_units_Z            2
_cell_length_a                   6.9990(10)
_cell_length_b                   8.378(2)
_cell_length_c                   9.249(2)
_cell_measurement_reflns_used    4533
_cell_measurement_temperature    120(2)
_cell_measurement_theta_max      56.07
_cell_measurement_theta_min      4
_cell_volume                     472.3(2)
_computing_cell_refinement       'CrysAlis v171.33.42'
_computing_data_collection       'CrysAlis v171.33.42'
_computing_data_reduction        'CrysAlis v171.33.42'
_computing_molecular_graphics    'Diamond 3.2'
_computing_structure_refinement  'SHELXL-2013 (Sheldrick, 2013)'
_computing_structure_solution    'SHELXS-97 (Sheldrick, 1990)'
_diffrn_ambient_temperature      120(2)
_diffrn_measured_fraction_theta_full 0.994
_diffrn_measured_fraction_theta_max 0.920
_diffrn_measurement_device_type  'Xcalibur-Oxford Diffraction'
_diffrn_measurement_method       CCD
_diffrn_radiation_type           MoK\a
_diffrn_radiation_wavelength     0.71073
_diffrn_reflns_av_R_equivalents  0.0231
_diffrn_reflns_av_unetI/netI     0.0299
_diffrn_reflns_Laue_measured_fraction_full 0.994
_diffrn_reflns_Laue_measured_fraction_max 0.920
_diffrn_reflns_limit_h_max       8
_diffrn_reflns_limit_h_min       -9
_diffrn_reflns_limit_k_max       11
_diffrn_reflns_limit_k_min       -11
_diffrn_reflns_limit_l_max       11
_diffrn_reflns_limit_l_min       -11
_diffrn_reflns_number            4533
_diffrn_reflns_point_group_measured_fraction_full 0.994
_diffrn_reflns_point_group_measured_fraction_max 0.920
_diffrn_reflns_theta_full        25.242
_diffrn_reflns_theta_max         28.034
_diffrn_reflns_theta_min         2.749
_diffrn_source                   'fine-focus sealed tube'
_exptl_absorpt_coefficient_mu    0.119
_exptl_absorpt_correction_T_max  1.1201
_exptl_absorpt_correction_T_min  0.9552
_exptl_absorpt_correction_type   numerical
_exptl_absorpt_process_details   'CrysAlis v171.33.42'
_exptl_crystal_colour            colorless
_exptl_crystal_density_diffrn    1.450
_exptl_crystal_description       unshaped
_exptl_crystal_F_000             216
_exptl_crystal_size_max          0.34
_exptl_crystal_size_mid          0.32
_exptl_crystal_size_min          0.21
_refine_diff_density_max         0.280
_refine_diff_density_min         -0.222
_refine_diff_density_rms         0.039
_refine_ls_extinction_coef       0.038(3)
_refine_ls_extinction_expression Fc^*^=kFc[1+0.001xFc^2^\l^3^/sin(2\q)]^-1/4^
_refine_ls_extinction_method     SHELXL
_refine_ls_goodness_of_fit_ref   1.271
_refine_ls_hydrogen_treatment    refall
_refine_ls_matrix_type           full
_refine_ls_number_parameters     204
_refine_ls_number_reflns         2104
_refine_ls_number_restraints     6
_refine_ls_restrained_S_all      1.269
_refine_ls_R_factor_all          0.0408
_refine_ls_R_factor_gt           0.0314
_refine_ls_shift/su_max          0.069
_refine_ls_shift/su_mean         0.009
_refine_ls_structure_factor_coef Fsqd
_refine_ls_weighting_details
;
 w=1/[\s^2^(Fo^2^)+(0.0322P)^2^]
 where P=(Fo^2^+2Fc^2^)/3
;
_refine_ls_weighting_scheme      calc
_refine_ls_wR_factor_gt          0.0721
_refine_ls_wR_factor_ref         0.0752
_reflns_Friedel_coverage         0.000
_reflns_number_gt                1657
_reflns_number_total             2104
_reflns_threshold_expression     'I > 2\s(I)'
_cod_data_source_file            lo5078sup1.cif
_cod_data_source_block           m120
_cod_depositor_comments
'Adding full bibliography for 2108742--2108745.cif.'
_cod_original_formula_sum        'C7.50 H10 N3 O4'
_cod_database_code               2108743
_cod_database_fobs_code          2108743
_shelx_space_group_comment
;
The symmetry employed for this shelxl refinement is uniquely defined
by the following loop, which should always be used as a source of
symmetry information in preference to the above space-group names.
They are only intended as comments.
;
_shelxl_version_number           2013-2
_shelx_res_file
;
TITL k1000 in P-1 at 120K
CELL 0.71073   6.999   8.378  9.249 116.22 101.88  91.18
ZERR    2.00   0.001   0.002   0.002   0.03   0.03   0.03
LATT  1
SFAC C H N O
UNIT 15 20 6 8

L.S. 31
DAMP  2500
ACTA
BOND $H
FMAP 2
PLAN 20
HTAB 2.5
EQIV $1 -x, -y, -z+1
HTAB O4 O3_$1
HTAB O4 O4_$1
EQIV $2 -x+1, -y+1, -z+1
HTAB C2 O1_$2
EQIV $3 -x+1, -y, -z+1
HTAB C2 O3_$3
HTAB N1A1 O1
EQIV $4 -x, -y+1, -z+1
HTAB C1A O4_$4
EQIV $5 x, y+1, z+1
HTAB N1A2 O2_$5
EQIV $6 -x+1, -y+1, -z+2
HTAB C2A O3_$6
HTAB C3A O3
EQIV $7 x, y, z+1
HTAB C3B O1_$7
HTAB C2B O2_$4
HTAB C2B O4_$5
HTAB N1B2 O1_$4
HTAB N1B2 O2_$4
HTAB N1B1 O1_$7
HTAB N1B1 O2_$7
HTAB C1B O3
HTAB C1B O4_$1

MPLA C1B C2B C3B N1B1 N1B2
MPLA C1 C2 O1 O2
MPLA C1A C2A C3A N1A1 N1A2
MPLA C1B C2B C3B N1B1 N1B2
MPLA C2 C3 O3 O4
MPLA C1A C2A C3A N1A1 N1A2
MPLA C1 C2 O1 O2
MPLA C2 C3 O3 O4

WGHT    0.032200
EXTI    0.038158
FVAR       9.23087
O1    4    0.222351    0.423893    0.388544    11.00000    0.03022    0.01590 =
         0.01657    0.00527    0.00415    0.00613
O2    4    0.215795    0.171485    0.162686    11.00000    0.03173    0.01995 =
         0.01319    0.00565    0.00393    0.00705
O3    4    0.334275    0.147450    0.651794    11.00000    0.03303    0.03204 =
         0.01615    0.01299   -0.00064    0.00080
O4    4    0.087031    0.058410    0.427264    11.00000    0.02685    0.04083 =
         0.02477    0.02315   -0.00412   -0.00979
C1    1    0.267176    0.266921    0.317312    11.00000    0.01702    0.01767 =
         0.01550    0.00852    0.00485    0.00053
C2    1    0.387503    0.193160    0.425113    11.00000    0.01946    0.02255 =
         0.01832    0.01034    0.00119    0.00316
C3    1    0.264208    0.130919    0.512550    11.00000    0.02507    0.01442 =
         0.01605    0.00776    0.00171    0.00539
FLAT  N1A1 C1A N1A2 C2A C3A
N1A1  3    0.291138    0.627206    0.717233    11.00000    0.02192    0.01732 =
         0.01364    0.00523    0.00327    0.00221
C1A   1    0.231651    0.787636    0.788114    11.00000    0.01817    0.01880 =
         0.01716    0.00794    0.00333    0.00157
N1A2  3    0.299382    0.856895    0.951135    11.00000    0.02176    0.01581 =
         0.01434    0.00430    0.00396    0.00274
C2A   1    0.405774    0.736381    0.986514    11.00000    0.02236    0.02187 =
         0.01846    0.01045    0.00225    0.00202
C3A   1    0.400319    0.593337    0.840271    11.00000    0.02243    0.01965 =
         0.01966    0.00926    0.00420    0.00459
PART 1
FLAT  N1B1 C1B N1B2 C2B C3B
DFIX  0.98 0.05 N1B1 H1B1 N1B2 H1B2
N1B1  3    0.070939    0.407919    1.049152    10.50000    0.02295    0.01509 =
         0.02359    0.01054    0.00643    0.00607
C1B   1    0.004459    0.377924    0.892127    10.50000    0.02770    0.01701 =
         0.02040    0.01539    0.00432    0.00824
N1B2  3   -0.061344    0.524662    0.892931    10.50000    0.02102    0.01622 =
         0.01894    0.01202    0.00358    0.00630
C2B   1   -0.038202    0.654487    1.054962    10.50000    0.02582    0.01604 =
         0.01903    0.00929    0.00544    0.00812
C3B   1    0.043668    0.580375    1.151211    10.50000    0.02673    0.01804 =
         0.01906    0.01386    0.00589    0.00735
H3B   2    0.075526    0.630659    1.271290    10.50000    0.01836
H2B   2   -0.076511    0.762381    1.074390    10.50000    0.01680
H1B2  2   -0.120932    0.527711    0.791721    10.50000    0.04136
H1B1  2    0.123272    0.322124    1.082478    10.50000    0.04595
H1B   2    0.013493    0.271611    0.798981    10.50000    0.03240
PART  0
H1A1  2    0.266472    0.550805    0.600691    11.00000    0.03853
H1A   2    0.151274    0.842461    0.730418    11.00000    0.02798
H1A2  2    0.274933    0.964727    1.030370    11.00000    0.03595
H2A   2    0.466316    0.764105    1.097513    11.00000    0.02668
H3A   2    0.451951    0.485242    0.815873    11.00000    0.02971
H4    2    0.000000    0.000000    0.500000    10.50000    0.10057
H21   2    0.493165    0.281694    0.505400    11.00000    0.02477
H22   2    0.443482    0.088223    0.356346    11.00000    0.02481
HKLF 4 1 1 0 0 0 -1 0 0 1 -1

REM  k1000 in P-1 at 120K
REM R1 =  0.0314 for    1657 Fo > 4sig(Fo)  and  0.0408 for all    2104 data
REM    204 parameters refined using      6 restraints

END

WGHT      0.0412      0.0196

REM Instructions for potential hydrogen bonds
HTAB C3B O1_$7
HTAB C2B O2_$4
HTAB C2B O4_$5
HTAB N1B2 O1_$4
HTAB N1B2 O2_$4
HTAB N1B1 O1_$7
HTAB N1B1 O2_$7
HTAB C1B O3
HTAB C1B O4_$1
HTAB N1A1 O1
HTAB C1A O4_$4
HTAB N1A2 O2_$5
HTAB C2A O3_$6
HTAB C3A O3
HTAB O4 O3_$1
HTAB C2 O1_$2
HTAB C2 O3_$3

REM Highest difference peak  0.280,  deepest hole -0.222,  1-sigma level  0.039
Q1    1   0.3208  0.2278  0.3729  11.00000  0.05    0.28
Q2    1   0.3191  0.1616  0.4590  11.00000  0.05    0.19
Q3    1   0.3672  0.8005  0.9688  11.00000  0.05    0.19
Q4    1   0.3034  0.5894  0.7779  11.00000  0.05    0.18
Q5    1   0.3631  0.6316  0.9251  11.00000  0.05    0.17
Q6    1   0.4744  0.7010  0.9058  11.00000  0.05    0.15
Q7    1   0.2159  0.6843  0.7444  11.00000  0.05    0.14
Q8    1   0.0774  0.1784  0.5142  11.00000  0.05    0.14
Q9    1   0.0374  0.0713  0.3225  11.00000  0.05    0.14
Q10   1   0.2439  1.0601  1.0997  11.00000  0.05    0.13
Q11   1  -0.1197  0.5590  0.7163  11.00000  0.05    0.12
Q12   1  -0.0034  0.9900  0.8247  11.00000  0.05    0.12
Q13   1   0.7069  0.2412  0.4786  11.00000  0.05    0.12
Q14   1   0.1164  0.6161  0.7614  11.00000  0.05    0.12
Q15   1   0.2883  0.8413  0.8707  11.00000  0.05    0.11
Q16   1   0.4129  0.4819  0.4806  11.00000  0.05    0.11
Q17   1   0.2093  0.4832  1.0910  11.00000  0.05    0.11
Q18   1   0.3170  0.7549  1.2257  11.00000  0.05    0.11
Q19   1   0.3881 -0.0005  0.2432  11.00000  0.05    0.11
Q20   1   0.4765  0.6800  1.1745  11.00000  0.05    0.11
;
_shelx_res_checksum              88217
_shelx_hkl_file
;
   0   0  -2 14386.6 165.916   2 0.35526-0.31306 0.86145-0.77931-0.08804-0.08805
   0   0  -3 1733.87 116.142   2 0.35087-0.28759 0.88258-0.75937-0.13207-0.13208
   0   0  -3 1747.77 81.3148   1 0.03201 0.03128 0.93821-0.81500-0.13207-0.13208
   0   0  -3 1793.62 95.3523   3 0.98858-0.92529 0.13659-0.01338-0.13208-0.13207
   0   0  -4 15704.2 247.285   2 0.34569-0.26131 0.90191-0.73763-0.17610-0.17610
   0   0  -4 15445.1 205.038   3 0.99585-0.91146 0.12112 0.04316-0.17610-0.17609
   0   0  -5 4943.37 160.073   1 0.12109-0.01561 0.96181-0.75646-0.22012-0.22012
   0   0  -5 5192.82 183.999   2 0.33970-0.23421 0.91939-0.71404-0.22012-0.22012
   0   0  -5 5250.00 169.744   3 0.99954-0.89406 0.10497 0.10038-0.22012-0.22012
   0   0  -6 3252.41 184.090   2 0.33286-0.20628 0.93498-0.68856-0.26414-0.26415
   0   0  -6 3419.16 162.930   3 0.99948-0.87290 0.08811 0.15831-0.26415-0.26414
   0   0  -7 1468.44 130.161   1 0.21157-0.06389 0.97307-0.68558-0.30817-0.30817
   0   0  -7 1732.73 186.850   2 0.32514-0.17747 0.94860-0.66111-0.30817-0.30817
   0   0  -8 1582.33 221.495   2 0.31651-0.14774 0.96015-0.63159-0.35219-0.35220
   0   0  -9 2972.59 300.581   2 0.30691-0.11704 0.96952-0.59989-0.39621-0.39622
   0   0 -10 64.0259 130.123   2 0.29628-0.08531 0.97656-0.56586-0.44024-0.44025
   0   1  -9 55.9354 83.5710   2 0.32072-0.12186 0.95493-0.48956-0.33129-0.50580
   0   1  -8 2.98040 80.5148   2 0.33091-0.15313 0.93877-0.51448-0.27576-0.47328
   0   1  -7 6276.63 271.757   2 0.34006-0.18339 0.91844-0.53522-0.21760-0.44340
   0   1  -6 881.311 132.948   2 0.34820-0.21262 0.89314-0.55099-0.15562-0.41733
   0   1  -6 909.290 116.652   1 0.04662 0.08896 0.94291-0.60076-0.14660-0.42634
   0   1  -5 3526.72 160.038   1-0.02429 0.13877 0.91711-0.61602-0.07575-0.40914
   0   1  -5 3617.85 197.279   2 0.35527-0.24079 0.86136-0.56028-0.08787-0.39702
   0   1  -4 17315.5 244.542   1-0.10426 0.19765 0.87890-0.61888 0.00514-0.40199
   0   1  -4 18309.1 290.198   2 0.36105-0.26766 0.82013-0.56012-0.01083-0.38602
   0   1  -4 18489.9 208.217   3 0.99858-0.90519 0.11113 0.14888-0.20356-0.19329
   0   1  -3 21.2505 41.9064   3 0.99132-0.91903 0.13164 0.08730-0.14637-0.16243
   0   1  -3 4.34667 23.0129   1-0.19981 0.27210 0.82022-0.60128 0.10320-0.41200
   0   1  -3 11.5225 39.5945   2 0.36486-0.29257 0.76302-0.54408 0.08247-0.39127
   0   1  -2 395.567 60.7257   1-0.32400 0.37520 0.72086-0.54298 0.23317-0.45392
   0   1  -2 405.113 77.6484   2 0.36440-0.31321 0.67387-0.49599 0.20762-0.42837
   0  -1   2 434.340 49.5468   5 0.81992-0.87111-0.46821 0.29034-0.09582 0.31657
   0  -1   1 35276.9 201.353   5 0.91069-0.94078-0.29572 0.15891-0.18081 0.31352
   0   1  -1 35516.9 219.837   2 0.34961-0.31951 0.50170-0.36490 0.40477-0.53747
   0  -1   0 24048.5 139.100   5 0.98145-0.99045-0.04787-0.04787-0.28465 0.32930
   0  -1  -2 335798. 2474.20   3 0.99049-0.95730 0.13322-0.14681-0.14184 0.01040
   0  -1  -3 12527.6 169.465   2 0.29127-0.23698 0.97886-0.95139-0.45953 0.24004
   0  -1  -3 12488.5 173.012   3 0.99227-0.93798 0.12974-0.10227-0.15179-0.06770
   0  -1  -4 2575.09 115.503   3 0.99599-0.92061 0.12070-0.05216-0.17727-0.13027
   0  -1  -4 2636.74 119.442   2 0.30403-0.22864 0.97174-0.90319-0.40859 0.10105
   0  -1  -4 2687.39 106.030   1 0.31586-0.24047 0.96876-0.90022-0.40778 0.10024
   0  -1  -5 22474.0 306.243   2 0.30679-0.21031 0.96961-0.86000-0.39672 0.00114
   0  -1  -5 21741.2 282.028   3 0.99899-0.90251 0.10891 0.00071-0.20956-0.18603
   0  -1  -6 742.058 97.1437   1 0.31166-0.19409 0.96932-0.81864-0.40382-0.07982
   0  -1  -6 829.344 101.102   3 0.99998-0.88240 0.09536 0.05532-0.24545-0.23819
   0  -1  -6 919.727 106.766   2 0.30508-0.18750 0.97095-0.82027-0.40411-0.07952
   0  -1  -7 52.6772 112.857   2 0.30075-0.16208 0.97397-0.78221-0.42223-0.14945
   0  -1  -7 38.3619 61.3870   3 0.99821-0.85954 0.08048 0.11127-0.28345-0.28823
   0  -1  -8 6863.58 253.288   3 0.99312-0.83335 0.06446 0.16837-0.32281-0.33693
   0  -1  -8 6372.37 268.283   2 0.29458-0.13481 0.97741-0.74458-0.44688-0.21285
   0  -1  -9 22141.3 462.368   2 0.28688-0.10601 0.98042-0.70652-0.47579-0.27199
   0  -1 -10 6528.56 384.614   2 0.27781-0.07585 0.98239-0.66742-0.50760-0.32823
   0  -1 -11 3259.06 352.619   2 0.26742-0.04436 0.98282-0.62679-0.54149-0.38239
   0   2  -9 1140.55 299.159   2 0.32994-0.12207 0.94056-0.37946-0.28140-0.60035
   0   2  -8 3450.41 261.089   2 0.34003-0.15325 0.91853-0.39851-0.21784-0.57585
   0   2  -7 7962.30 372.386   2 0.34881-0.18313 0.89087-0.41192-0.15046-0.55519
   0   2  -6 5642.70 222.364   1-0.04149 0.18607 0.90971-0.47182-0.05845-0.55915
   0   2  -6 5771.11 260.948   2 0.35616-0.21158 0.85628-0.41840-0.07781-0.53979
   0   2  -5 2887.02 177.761   2 0.36180-0.23831 0.81255-0.41573 0.00233-0.53188
   0   2  -5 2926.58 165.331   1-0.12491 0.24839 0.86744-0.47062 0.02620-0.55575
   0  -2   4 13170.9 232.532   5 0.71132-0.81371-0.61156 0.25581-0.01502 0.45652
   0   2  -4 12811.0 269.489   2 0.36508-0.26269 0.75579-0.40005 0.09343-0.53493
   0   2  -3 15689.4 242.194   1-0.32318 0.40447 0.72161-0.40693 0.23229-0.58575
   0  -2   3 16671.1 226.113   5 0.79486-0.87616-0.50563 0.19096-0.07574 0.42919
   0   2  -3 16885.7 277.220   2 0.36459-0.28329 0.67877-0.36410 0.20123-0.55469
   0   2  -2 98483.8 516.588   2 0.35695-0.29675 0.56720-0.29359 0.33525-0.60066
   0  -2   2 96883.8 460.959   5 0.86809-0.92829-0.38571 0.11210-0.13793 0.40334
   0  -2   1 438.283 83.1649   5 0.92878-0.96788-0.24975 0.01721-0.20159 0.37895
   0   2  -1 387.979 63.9589   2 0.33345-0.29435 0.39143-0.15889 0.50968-0.68704
   0   2  -1 396.884 59.7139   1-0.58486 0.62396 0.39563-0.16309 0.51880-0.69616
   0  -2   0 127713. 445.697   5 0.97277-0.99077-0.09573-0.09574-0.26612 0.35543
   0   2   0 128436. 437.410   1-0.71988 0.73788 0.09573 0.09573 0.68092-0.77023
   0   2   1 32759.5 230.417   1-0.78496 0.78187-0.28599 0.43639 0.78481-0.78607
   0  -2  -1 32949.7 214.161   5 0.99324-0.99015 0.07663-0.22703-0.32952 0.33079
   0  -2  -2 22860.1 176.303   5 0.98147-0.95728 0.26154-0.37087-0.38720 0.30041
   0  -2  -2 22661.5 194.473   3 0.99944-0.97525 0.10581-0.21514-0.21788 0.13109
   0  -2  -3 1142.55 57.6969   5 0.93310-0.88781 0.44107-0.50933-0.43187 0.25704
   0  -2  -3 1101.58 98.8783   3 0.99788-0.95259 0.11428-0.18253-0.19499 0.02016
   0  -2  -4 29922.8 292.620   3 0.99830-0.93192 0.11245-0.13964-0.19997-0.06292
   0  -2  -4 30567.5 182.145   5 0.86055-0.79416 0.58720-0.61439-0.45806 0.19518
   0  -2  -5 16595.9 259.742   3 0.99947-0.91199 0.10562-0.09174-0.21839-0.13255
   0  -2  -5 17503.1 267.431   2 0.24807-0.16059 0.97926-0.96538-0.59834 0.24741
   0  -2  -6 39.9775 57.4283   2 0.25957-0.15100 0.98201-0.92706-0.56544 0.12646
   0  -2  -6 62.4443 63.0223   3 0.99999-0.89141 0.09582-0.04087-0.24426-0.19472
   0  -2  -7 6097.85 215.426   3 0.99888-0.86921 0.08397 0.01206-0.27468-0.25234
   0  -2  -7 6213.13 262.174   2 0.26343-0.13376 0.98253-0.88650-0.55382 0.02679
   0  -2  -8 6668.71 262.122   3 0.99543-0.84466 0.07053 0.06656-0.30808-0.30700
   0  -2  -8 6350.89 288.340   2 0.26273-0.11196 0.98245-0.84536-0.55596-0.05912
   0  -2  -9 157.193 104.133   3 0.98903-0.81717 0.05575 0.12241-0.34351-0.35961
   0  -2  -9 124.313 169.010   2 0.25895-0.08708 0.98191-0.80375-0.56729-0.13584
   0  -2 -10 187.459 177.006   2 0.25284-0.05988 0.98062-0.76139-0.58499-0.20618
   0  -2 -11 202.887 197.412   2 0.24480-0.03074 0.97817-0.71787-0.60725-0.27197
   0   3  -8-31.8790 86.7935   2 0.34560-0.14982 0.90222-0.28646-0.17684-0.66151
   0   3  -7 570.807 219.369   2 0.35376-0.17908 0.86930-0.29461-0.10397-0.64633
   0   3  -6 179.617 116.004   1-0.10158 0.25517 0.88033-0.34671 0.00242-0.66467
   0   3  -6 65.9819 89.7292   2 0.36012-0.20653 0.82853-0.29491-0.02575-0.63651
   0   3  -5 9517.16 285.146   2 0.36425-0.23176 0.77774-0.28519 0.05961-0.63382
   0   3  -5 9150.49 265.989   1-0.18907 0.32156 0.82754-0.33499 0.09210-0.66631
   0   3  -4 270.991 100.777   1-0.28302 0.39441 0.75675-0.30527 0.18994-0.67610
   0  -3   4 193.822 95.8047   4 0.88314-0.99453-0.25572-0.19576 0.21863 0.26753
   0  -3   4 341.196 119.313   5 0.74539-0.85678-0.57138 0.11990-0.03878 0.52494
   0   3  -4 292.552 125.301   2 0.36539-0.25400 0.71342-0.26194 0.15460-0.64076
   0  -3   3 5583.70 196.509   5 0.81636-0.90666-0.47372 0.06331-0.09290 0.49101
   0   3  -3 5375.87 222.266   2 0.36209-0.27180 0.62989-0.21948 0.26269-0.66080
   0   3  -3 5131.94 187.197   1-0.38433 0.47462 0.66186-0.25144 0.29746-0.69557
   0   3  -2 30.2363 51.8758   1-0.49251 0.56171 0.53426-0.16492 0.41513-0.72519
   0  -3   2 21.3270 39.1746   5 0.87663-0.94582-0.36925-0.00010-0.14600 0.45606
   0   3  -2 57.3876 85.7126   0-0.81072 0.87992 0.42230-0.05296 0.23253-0.54259
   0   3  -2 59.9543 70.2334   2 0.35158-0.28238 0.51778-0.14844 0.38825-0.69831
   0   3  -1 4482.96 152.121   2 0.32848-0.28038 0.36225-0.03398 0.53520-0.75721
   0   3  -1 4839.79 148.084   0-0.79797 0.84607 0.32181 0.00646 0.40332-0.62533
   0   3  -1 4239.36 147.106   1-0.60316 0.65126 0.36367-0.03540 0.53983-0.76184
   0  -3   1 4470.83 143.529   5 0.92543-0.97353-0.25874-0.06953-0.19759 0.41960
   0   3   0 85350.4 444.909   2 0.28315-0.25614 0.14360 0.14360 0.70066-0.83463
   0   3   0 86244.7 447.210   1-0.70349 0.73049 0.14361 0.14360 0.65999-0.79396
   0  -3   0 84178.2 456.948   5 0.96175-0.98876-0.14360-0.14360-0.24688 0.38085
   0   3   1 5406.84 139.357   1-0.77032 0.77623-0.11456 0.36069 0.75215-0.79807
   0   3   1 5424.68 142.766   2 0.20329-0.19738-0.14693 0.39306 0.85773-0.90365
   0  -3  -1 5478.81 131.960   5 0.98461-0.99052-0.02627-0.21986-0.29278 0.33869
   0   3   1 5601.70 107.949   0-0.48572 0.49162-0.16496 0.41110 0.91655-0.96246
   0  -3  -2 7113.49 148.819   5 0.99356-0.97838 0.08922-0.29428-0.33380 0.29166
   0  -3  -2 6979.47 139.522   4 0.88585-0.87067-0.24741 0.04235 0.21522-0.25735
   0  -3  -2 7078.29 139.853   3 0.99582-0.98063 0.07170-0.27676-0.30522 0.26309
   0   3   2 7168.87 132.107   0-0.06094 0.04575-0.48743 0.69250 0.98326-0.94113
   0   3   2 6971.99 153.478   1-0.78265 0.76746-0.36998 0.57505 0.79171-0.74958
   0  -3  -3 65035.9 304.816   4 0.82694-0.79065-0.39404 0.23005 0.27419-0.40437
   0   3   3 63443.7 345.218   0 0.26471-0.30100-0.62915 0.79314 0.83832-0.70814
   0  -3  -3 65643.0 332.860   5 0.98969-0.95341 0.19686-0.36085-0.36828 0.23810
   0  -3  -3 63776.7 389.845   3 0.99983-0.96355 0.09197-0.25596-0.25424 0.12406
   0  -3  -4 1868.06 136.319   3 0.99999-0.94261 0.09783-0.22075-0.23901 0.02078
   0  -3  -4 1897.75 82.8170   5 0.97662-0.91923 0.28881-0.41173-0.39475 0.17652
   0  -3  -5 1064.98 107.445   3 0.99999-0.92152 0.09641-0.17826-0.24273-0.06355
   0  -3  -5 1019.64 65.0888   5 0.96088-0.88240 0.35634-0.43820-0.41231 0.10603
   0  -3  -6 468.721 111.573   2 0.19486-0.09529 0.94735-0.98814-0.72327 0.32894
   0  -3  -6 459.613 107.180   3 0.99974-0.90017 0.09069-0.13147-0.25755-0.13678
   0  -3  -7 6703.62 259.219   2 0.21142-0.09075 0.96022-0.95994-0.68856 0.20619
   0  -3  -7 6247.47 235.056   3 0.99854-0.87787 0.08210-0.08182-0.27938-0.20299
   0  -3  -8 4840.51 241.457   2 0.21945-0.07768 0.96558-0.92422-0.67048 0.10005
   0  -3  -8 4675.15 208.736   3 0.99573-0.85396 0.07142-0.03006-0.30590-0.26452
   0  -3  -9 4080.00 230.915   3 0.99069-0.82783 0.05906 0.02337-0.33570-0.32277
   0  -3  -9 4433.17 249.638   2 0.22189-0.05903 0.96709-0.88466-0.66480 0.00633
   0  -3 -10 8637.64 350.038   3 0.98289-0.79893 0.04526 0.07823-0.36788-0.37864
   0  -3 -10 8780.77 364.022   2 0.22041-0.03645 0.96617-0.84268-0.66827-0.07825
   0  -3 -11 4946.11 368.976   2 0.21592-0.01087 0.96330-0.79873-0.67853-0.15603
   0  -3 -11 4712.71 285.458   3 0.97178-0.76672 0.03016 0.13441-0.40183-0.43274
   0   4  -7 135.025 185.270   2 0.35643-0.17275 0.85470-0.18428-0.07471-0.72024
   0   4  -6 16005.7 500.315   2 0.36199-0.19941 0.81046-0.18110 0.00592-0.71283
   0   4  -5 21139.0 438.962   2 0.36506-0.22357 0.75634-0.16806 0.09260-0.71146
   0   4  -5 20110.8 388.061   1-0.22692 0.36841 0.80086-0.21257 0.13132-0.75019
   0  -4   4 7427.43 284.224   4 0.86743-0.98782-0.30002-0.24720 0.23669 0.29412
   0   4  -4 7571.07 301.569   2 0.36493-0.24454 0.68963-0.14241 0.18693-0.71774
   0   4  -4 7268.91 253.443   1-0.31800 0.43839 0.72631-0.17910 0.22682-0.75763
   0  -4   4 7084.44 272.831   5 0.75479-0.87518-0.55961 0.01239-0.04557 0.57638
   0   4  -3 2057.44 150.621   1-0.41232 0.51161 0.63174-0.12560 0.32759-0.77035
   0   4  -3 2062.01 162.662   2 0.36040-0.26110 0.60632-0.10018 0.29073-0.73349
   0  -4   3 2168.92 145.318   5 0.81819-0.91749-0.47089-0.03525-0.09440 0.53717
   0  -4   3 2024.23 162.761   4 0.88333-0.98262-0.25514-0.25101 0.21839 0.22437
   0   4  -2 20148.5 314.379   0-0.81073 0.88893 0.42161 0.04346 0.23381-0.58852
   0  -4   2 18636.8 324.792   5 0.87159-0.94979-0.37904-0.08604-0.14122 0.49593
   0   4  -2 18401.1 304.758   1-0.50819 0.58639 0.51298-0.04791 0.43249-0.78721
   0   4  -2 19394.5 325.721   2 0.34948-0.27128 0.50071-0.03563 0.40578-0.76050
   0   4  -1 6167.29 188.047   2 0.32898-0.27188 0.36515 0.05886 0.53271-0.79937
   0   4  -1 5993.32 177.283   1-0.60164 0.65874 0.36639 0.05762 0.53808-0.80475
   0   4  -1 6456.11 163.801   0-0.80030 0.85741 0.33180 0.09221 0.38768-0.65435
   0  -4   1 6036.13 184.144   5 0.91499-0.97209-0.28533-0.13868-0.18558 0.45224
   0   4   0 17507.7 274.437   2 0.29421-0.25821 0.19147 0.19147 0.66809-0.84671
   0  -4   0 17147.8 256.485   5 0.94837-0.98438-0.19147-0.19147-0.22692 0.40554
   0   4   0 16986.3 259.305   1-0.68523 0.72123 0.19147 0.19146 0.63728-0.81590
   0  -4  -1 5207.56 111.113   3 0.89071-0.90562-0.03701-0.30485-0.53714 0.62772
   0   4   1 5279.03 126.040   0-0.60969 0.62460-0.02701 0.36887 0.81559-0.90616
   0  -4  -1 4987.91 156.383   5 0.97194-0.98685-0.09969-0.24218-0.26456 0.35513
   0   4   1 4993.09 154.649   2 0.23992-0.22502-0.02326 0.36513 0.79933-0.88990
   0   4   1 4801.71 165.583   1-0.74836 0.76327-0.00483 0.34670 0.71917-0.80974
   0  -4  -2 24850.4 274.161   4 0.88530-0.87912-0.24911-0.05169 0.21592-0.21339
   0   4   2 25100.3 223.968   0-0.33482 0.32863-0.30048 0.60128 0.97922-0.98174
   0  -4  -2 24293.4 280.614   5 0.98633-0.98014-0.01290-0.28790-0.29773 0.30026
   0   4   2 23644.3 303.515   1-0.78117 0.77498-0.20538 0.50618 0.77242-0.77494
   0  -4  -2 25060.6 239.166   3 0.97371-0.96752 0.03254-0.33334-0.39656 0.39908
   0  -4  -3 14289.9 205.169   4 0.85505-0.82777-0.33134 0.07161 0.24931-0.33484
   0  -4  -3 14200.7 223.421   3 0.99294-0.96566 0.06402-0.32375-0.32385 0.23832
   0  -4  -3 13560.7 216.016   5 0.99281-0.96553 0.06525-0.32498-0.32562 0.24010
   0   4   3 13029.5 186.986   0-0.01665-0.01064-0.51175 0.77148 0.97292-0.88740
   0  -4  -4 44694.7 330.296   5 0.99350-0.94512 0.13038-0.34904-0.34742 0.17384
   0  -4  -4 44377.0 297.741   4 0.78793-0.73956-0.46747 0.24881 0.30261-0.47619
   0  -4  -4 45139.2 391.771   3 0.99758-0.94920 0.07777-0.29643-0.29022 0.11665
   0  -4  -5 16051.1 212.394   5 0.99129-0.92181 0.17735-0.35493-0.36231 0.10068
   0   4   5 16138.8 244.584   0 0.34765-0.41713-0.65038 0.82797 0.77377-0.51215
   0  -4  -5 15980.3 291.038   3 0.99854-0.92906 0.08208-0.25967-0.27944 0.01782
   0  -4  -6 7319.51 246.801   3 0.99826-0.90769 0.08073-0.21725-0.28283-0.06684
   0  -4  -7 3566.59 218.647   3 0.99701-0.88534 0.07564-0.17109-0.29551-0.14221
   0  -4  -8 985.985 157.039   3 0.99447-0.86171 0.06787-0.12224-0.31456-0.21121
   0  -4  -9 2359.82 206.975   2 0.17574-0.02188 0.92970-0.94301-0.75939 0.14558
   0  -4  -9 2413.14 224.211   3 0.99019-0.83633 0.05802-0.07133-0.33816-0.27565
   0  -4 -10 1369.57 175.774   3 0.98367-0.80871 0.04647-0.01871-0.36511-0.33676
   0  -4 -10 1833.34 268.359   2 0.18028-0.00533 0.93415-0.90639-0.75117 0.04931
   0  -4 -11 185.534 154.993   3 0.97442-0.77836 0.03344 0.03539-0.39457-0.39534
   0  -4 -11 211.252 137.862   2 0.18050 0.01555 0.93436-0.86553-0.75077-0.03914
   0   5  -6 616.243 234.263   2 0.36277-0.19118 0.80115-0.07606 0.02163-0.77319
   0   5  -5 1424.82 234.530   2 0.36529-0.21480 0.74621-0.06219 0.10771-0.77123
   0   5  -5 1800.72 189.234   1-0.24617 0.39666 0.78635-0.10233 0.15137-0.81489
   0  -5   4 5559.87 259.407   4 0.84907-0.97846-0.34556-0.29739 0.25500 0.32046
   0  -5   4 5552.22 296.306   5 0.75084-0.88023-0.56460-0.07835-0.04270 0.61817
   0   5  -4 5692.36 303.587   2 0.36463-0.23524 0.68004-0.03709 0.19958-0.77505
   0   5  -4 5735.19 253.141   1-0.33346 0.46285 0.71211-0.06916 0.24319-0.81866
   0   5  -3 12639.5 314.077   1-0.42137 0.52967 0.62160-0.01972 0.33738-0.82480
   0  -5   3 13346.2 356.367   4 0.86594-0.97423-0.30394-0.29794 0.23828 0.24914
   0  -5   3 13555.9 348.995   5 0.80978-0.91807-0.48374-0.11814-0.08756 0.57498
   0   5  -3 13014.8 349.771   2 0.35989-0.25159 0.59995 0.00193 0.29814-0.78556
   0  -5   2 1683.05 156.752   4 0.87791-0.96511-0.27112-0.28969 0.22494 0.17443
   0   5  -2 1819.81 154.377   2 0.34971-0.26251 0.50249 0.05832 0.40397-0.80334
   0  -5   2 1536.70 171.181   5 0.85948-0.94668-0.40169-0.15912-0.13000 0.52937
   0   5  -2 1649.18 156.514   1-0.50820 0.59540 0.51298 0.04783 0.43249-0.83186
   0   5  -1 38.4217 50.7243   2 0.33214-0.26603 0.38354 0.13620 0.51667-0.82799
   0  -5   1 41.4399 57.2974   4 0.88540-0.95151-0.24881-0.27093 0.21579 0.09553
   0  -5   1 116.915 81.4341   5 0.90028-0.96639-0.31971-0.20003-0.16967 0.48100
   0   5  -1 37.1234 43.5857   1-0.59094 0.65704 0.38522 0.13452 0.52576-0.83709
   0   5  -1 123.733 85.0233   0-0.80461 0.87071 0.35341 0.16633 0.35290-0.66422
   0  -5   0 5556.52 208.663   5 0.93255-0.97756-0.23933-0.23934-0.20620 0.42948
   0   5   0 5493.22 195.011   2 0.30466-0.25965 0.23934 0.23933 0.63353-0.85681
   0   5   0 5440.89 198.666   1-0.66506 0.71006 0.23934 0.23933 0.61272-0.83600
   0   5   0 5769.82 163.020   0-0.77120 0.81621 0.23933 0.23934 0.52306-0.74633
   0  -5  -1 8850.12 221.894   4 0.88636-0.91027-0.24584-0.19176 0.21457-0.07934
   0   5   1 8416.98 228.861   2 0.26466-0.24075 0.06883 0.36877 0.74770-0.88293
   0  -5  -1 8680.85 228.102   5 0.95679-0.98070-0.16237-0.27523-0.23914 0.37437
   0   5   1 8420.32 239.217   1-0.72489 0.74880 0.07992 0.35768 0.68744-0.82267
   0   5   1 9148.07 178.422   0-0.68315 0.70706 0.07389 0.36371 0.72016-0.85538
   0  -5  -2 2834.48 136.207   5 0.97373-0.97654-0.09100-0.30553-0.26799 0.31517
   0   5   2 2811.82 152.252   1-0.76518 0.76800-0.08409 0.48062 0.74391-0.79109
   0  -5  -2 3010.38 153.796   4 0.87741-0.88023-0.27256-0.12398 0.22552-0.17835
   0  -5  -2 3014.49 125.417   3 0.92884-0.93166-0.01050-0.38603-0.48679 0.53397
   0   5   2 3120.65 132.367   0-0.50790 0.51071-0.14242 0.53895 0.90245-0.94963
   0   5   2 2927.25 141.928   2 0.21099-0.20818-0.12200 0.51854 0.84698-0.89416
   0  -5  -3 83237.3 484.127   3 0.97273-0.95444 0.03132-0.38678-0.39927 0.35840
   0  -5  -3 79627.7 497.088   4 0.85755-0.83926-0.32524-0.03022 0.24687-0.28774
   0   5   3 82286.3 442.797   0-0.25913 0.24085-0.35887 0.71433 0.99284-0.95197
   0  -5  -3 77974.5 505.765   5 0.98441-0.96612-0.02775-0.32771-0.29222 0.25135
   0   5   3 80388.0 562.910   1-0.78352 0.76524-0.24059 0.59605 0.77850-0.73762
   0  -5  -4 9595.93 228.193   3 0.98752-0.94814 0.05295-0.36735-0.35008 0.22116
   0   5   4 9138.96 187.733   0-0.01736-0.02202-0.51137 0.82576 0.97311-0.84419
   0  -5  -4 9601.97 207.058   5 0.99019-0.95081 0.02441-0.33880-0.31128 0.18236
   0  -5  -4 9917.98 197.155   4 0.81836-0.77898-0.41135 0.09696 0.28096-0.40988
   0  -5  -5 26031.6 299.336   5 0.99266-0.93219 0.06202-0.33534-0.32451 0.10754
   0   5   5 26786.3 339.986   0 0.16076-0.22124-0.59347 0.86679 0.90235-0.68538
   0  -5  -5 25904.4 364.427   3 0.99259-0.93212 0.06321-0.33653-0.32580 0.10884
   0  -5  -6 1194.96 140.165   3 0.99394-0.91237 0.06647-0.29872-0.31795 0.01294
   0   5   6 1104.56 163.831   0 0.27550-0.35707-0.63230 0.86455 0.83064-0.52562
   0  -5  -7 2530.59 188.285   3 0.99338-0.89071 0.06508-0.25626-0.32131-0.07175
   0   5   7 2647.02 171.458   0 0.34558-0.44825-0.64994 0.84112 0.77554-0.38247
   0  -5  -8 13426.3 338.884   3 0.99132-0.86755 0.06037-0.21048-0.33259-0.14852
   0  -5  -9 2504.68 211.269   3 0.98763-0.84277 0.05315-0.16219-0.34962-0.21954
   0  -5 -10 5859.23 282.970   3 0.98201-0.81605 0.04392-0.11189-0.37096-0.28625
   0  -5 -11 983.553 196.676   3 0.97406-0.78701 0.03298-0.05989-0.39558-0.34968
   0   6  -5 592.939 244.595   2 0.36531-0.20582 0.74509 0.03467 0.10937-0.81754
   0  -6   4 3848.18 318.059   4 0.82799-0.96638-0.39186-0.34682 0.27334 0.34679
   0   6  -4 3804.13 282.258   1-0.33569 0.47409 0.71002 0.02867 0.24556-0.86569
   0   6  -4 4003.52 305.395   2 0.36466-0.22627 0.68103 0.05765 0.19828-0.81840
   0  -6   3 630.258 185.108   4 0.84603-0.96332-0.35259-0.34502 0.25781 0.27427
   0  -6   3 630.127 160.062   5 0.79468-0.91197-0.50590-0.19171-0.07559 0.60766
   0   6  -3 559.590 106.333   1-0.41849 0.53578 0.62485 0.07276 0.33426-0.86633
   0   6  -3 620.113 170.806   2 0.36032-0.24303 0.60536 0.09225 0.29185-0.82392
   0   6  -2 291.422 118.073   1-0.49886 0.59506 0.52575 0.13079 0.42214-0.86617
   0  -6   2 296.206 154.770   4 0.85919-0.95539-0.32116-0.33539 0.24523 0.19880
   0   6  -2 235.198 110.495   2 0.35136-0.25516 0.51595 0.14060 0.39015-0.83417
   0  -6   2 203.151 116.482   5 0.84247-0.93867-0.43155-0.22499-0.11488 0.55891
   0  -6   1 1096.02 151.526   4 0.86788-0.94299-0.29882-0.31666 0.23621 0.11977
   0   6  -1 1089.06 140.601   1-0.57463 0.64974 0.41276 0.20272 0.50713-0.86310
   0   6  -1 1268.74 155.173   2 0.33656-0.26145 0.41052 0.20495 0.49251-0.84848
   0  -6   1 1115.62 153.107   5 0.88215-0.95726-0.35822-0.25725-0.15135 0.50733
   0   6   0 739.351 138.574   2 0.31446-0.26045 0.28720 0.28720 0.59693-0.86486
   0   6   0 703.859 112.647   1-0.64290 0.69690 0.28721 0.28720 0.58626-0.85419
   0  -6   0 726.791 98.8384   4 0.87219-0.92619-0.28720-0.28720 0.23149 0.03643
   0  -6   0 801.225 139.585   5 0.91422-0.96823-0.28720-0.28721-0.18472 0.45265
   0   6   1 2448.94 166.997   1-0.70030 0.73321 0.15233 0.38100 0.65599-0.83587
   0   6   1 2426.28 167.633   2 0.28364-0.25073 0.14569 0.38764 0.69928-0.87916
   0  -6  -1 2477.61 162.864   4 0.87173-0.90465-0.28845-0.24489 0.23200-0.05212
   0  -6  -1 2371.80 160.755   5 0.93925-0.97216-0.21997-0.31336-0.21467 0.39455
   0   6   2 16311.5 317.159   2 0.24334-0.23153-0.01101 0.50327 0.79286-0.88469
   0  -6  -2 16379.1 320.818   5 0.95792-0.96974-0.15821-0.33406-0.24087 0.33270
   0  -6  -2 15905.8 290.983   4 0.86543-0.87724-0.30528-0.18699 0.23882-0.14699
   0   6   2 15820.8 319.320   1-0.74375 0.75557 0.01355 0.47871 0.71275-0.80458
   0  -6  -3 8372.67 238.550   5 0.97107-0.96179-0.10382-0.34738-0.26292 0.26671
   0  -6  -3 8420.57 222.730   4 0.85093-0.84165-0.34119-0.11000 0.25326-0.24948
   0  -6  -3 8754.52 220.671   3 0.93518-0.92589-0.00547-0.44572-0.47678 0.48056
   0  -6  -4 10584.8 248.009   5 0.97964-0.94927-0.05895-0.35117-0.28042 0.19616
   0  -6  -4 10923.9 250.405   3 0.96639-0.93601 0.02389-0.43402-0.41554 0.33127
   0  -6  -4 11051.7 232.384   4 0.82373-0.79336-0.40059-0.00954 0.27676-0.36102
   0   6   4 10400.5 289.611   1-0.78383 0.75346-0.24705 0.65717 0.77950-0.69523
   0  -6  -5 10431.6 270.565   3 0.97947-0.92800 0.04021-0.40927-0.37938 0.20707
   0  -6  -5 10721.4 223.024   4 0.77535-0.72388-0.48867 0.11961 0.31066-0.48298
   0  -6  -5 10322.8 240.856   5 0.98463-0.93315-0.02613-0.34293-0.29283 0.12052
   0   6   5 10102.5 264.450   1-0.78352 0.73205-0.35568 0.72473 0.79099-0.61868
   0  -6  -6 1157.49 150.109   3 0.98478-0.91221 0.04827-0.37625-0.36097 0.10061
   0   6   6 1125.68 145.091   0 0.10588-0.17845-0.57090 0.89889 0.92923-0.66887
   0  -6  -7 1602.08 192.890   3 0.98627-0.89260 0.05075-0.33767-0.35521 0.00680
   0   6   7 1668.41 158.868   0 0.20611-0.29977-0.61020 0.89712 0.87659-0.52818
   0   6   8 2325.75 189.246   0 0.27188-0.38664-0.63125 0.87710 0.83324-0.39678
   0  -6  -8 2266.04 205.124   3 0.98539-0.87063 0.04927-0.29512-0.35865-0.07781
   0   6   9 19.6267 94.4673   0 0.31322-0.44907-0.64240 0.84718 0.80213-0.27762
   0  -6  -9 46.3209 99.4053   3 0.98259-0.84673 0.04480-0.24957-0.36895-0.15556
   0  -6 -10 5524.94 284.306   3 0.97786-0.82090 0.03797-0.20167-0.38445-0.22811
   0   6  10 5579.19 308.097   0 0.33735-0.49430-0.64812 0.81183 0.78250-0.16994
   0  -6 -11 1465.88 213.723   3 0.97097-0.79292 0.02918-0.15182-0.40398-0.29662
   0   6  11 1879.57 279.683   0 0.34905-0.52710-0.65068 0.77332 0.77257-0.07196
   0   6  12 196.111 239.278   0 0.35144-0.55059-0.65118 0.73275 0.77051 0.01814
   0  -7   4 3087.51 386.770   4 0.80405-0.95145-0.43867-0.39575 0.29156 0.37321
   0   7  -4 2863.23 286.082   2 0.36494-0.21754 0.68993 0.14449 0.18652-0.85130
   0   7  -4 2985.75 322.115   1-0.32835 0.47575 0.71686 0.11756 0.23778-0.90255
   0  -7   3 1266.74 245.232   5 0.77441-0.90070-0.53401-0.25934-0.06006 0.63679
   0   7  -3 1153.60 199.199   1-0.40727 0.53357 0.63731 0.15603 0.32214-0.89887
   0  -7   3 1341.75 248.468   4 0.82345-0.94975-0.40116-0.39218 0.27698 0.29974
   0   7  -3 1382.56 205.083   2 0.36135-0.23505 0.61902 0.17432 0.27573-0.85246
   0  -7   2 12360.0 446.359   4 0.83793-0.94313-0.37071-0.38157 0.26500 0.22368
   0   7  -2 11628.2 352.100   1-0.48307 0.58827 0.54670 0.20558 0.40472-0.89340
   0  -7   2 11583.7 378.801   5 0.82143-0.92663-0.46585-0.28643-0.09707 0.58575
   0   7  -2 11799.0 353.085   2 0.35380-0.24860 0.53705 0.21523 0.36799-0.85667
   0  -7   1 708.226 142.028   4 0.84790-0.93201-0.34828-0.36293 0.25609 0.14454
   0   7  -1 858.869 169.281   1-0.55419 0.63829 0.44551 0.26570 0.48395-0.88458
   0  -7   1 764.481 173.512   5 0.86086-0.94497-0.39917-0.31204-0.13125 0.53189
   0   7  -1 968.673 170.838   2 0.34151-0.25740 0.44271 0.26850 0.46264-0.86327
   0   7   0 12250.2 347.362   1-0.61867 0.68168 0.33507 0.33507 0.55782-0.87040
   0  -7   0 12724.2 385.975   4 0.85350-0.91651-0.33507-0.33507 0.25081 0.06177
   0  -7   0 12531.5 365.666   5 0.89327-0.95628-0.33507-0.33507-0.16243 0.47502
   0   7   0 12263.3 319.924   2 0.32360-0.26059 0.33507 0.33506 0.55819-0.87077
   0  -7  -1 9614.95 280.454   5 0.91923-0.96114-0.27477-0.35430-0.19038 0.41491
   0  -7  -1 9983.55 292.384   4 0.85452-0.89644-0.33261-0.29646 0.24983-0.02529
   0   7   1 9511.08 309.253   1-0.67437 0.71629 0.21780 0.41127 0.62400-0.84854
   0   7   1 9930.03 310.400   2 0.29923-0.25732 0.21412 0.41495 0.65199-0.87652
   0  -7  -2 23.5956 69.5401   5 0.93937-0.96019-0.21961-0.36839-0.21483 0.35132
   0   7   2 11.8575 44.9027   1-0.71936 0.74018 0.09731 0.49068 0.68026-0.81674
   0  -7  -2 3.64757 46.9418   4 0.85025-0.87107-0.34279-0.24521 0.25390-0.11741
   0   7   3 23921.3 416.805   2 0.22999-0.23027-0.05814 0.60507 0.81707-0.86551
   0  -7  -3 24731.3 418.108   4 0.83919-0.83891-0.36794-0.17899 0.26390-0.21546
   0  -7  -3 24115.8 378.231   5 0.95436-0.95408-0.17109-0.37584-0.23551 0.28395
   0   7   3 23128.5 413.498   1-0.75238 0.75210-0.02180 0.56873 0.72487-0.77331
   0  -7  -4 13640.6 311.744   5 0.96492-0.94354-0.13085-0.37500-0.25208 0.21247
   0   7   4 13390.9 324.447   1-0.77330 0.75192-0.13460 0.64046 0.75718-0.71757
   0  -7  -5 7961.76 231.874   4 0.78353-0.74105-0.47502 0.01023 0.30549-0.43315
   0  -7  -5 7938.96 243.075   3 0.95636-0.91389 0.01340-0.47819-0.43798 0.31032
   0  -7  -5 7828.62 256.194   5 0.97171-0.92924-0.10081-0.36397-0.26411 0.13646
   0   7   5 7528.24 263.773   1-0.78331 0.74084-0.23669 0.70148 0.77787-0.65021
   0  -7  -6-3.66172 48.0055   3 0.96860-0.90503 0.02640-0.45012-0.41008 0.19438
   0  -7  -6 10.2809 42.2137   5 0.97526-0.91169-0.08321-0.34050-0.27104 0.05533
   0  -7  -7 6288.79 296.882   3 0.97401-0.88935 0.03293-0.41558-0.39571 0.09195
   0  -7  -8 8.79708 64.9892   3 0.97549-0.86972 0.03481-0.37639-0.39151-0.00029
   0  -7  -9 89.2442 86.9040   3 0.97424-0.84738 0.03321-0.33372-0.39508-0.08477
   0  -7 -10-14.2998 114.792   3 0.97071-0.82276 0.02887-0.28831-0.40466-0.16324
   0  -7 -11 817.345 211.847   3 0.96496-0.79591 0.02231-0.24068-0.41896-0.23699
   0  -8   3 233.242 201.690   4 0.79802-0.93332-0.44968-0.43940 0.29580 0.32558
   0   8  -3 50.0761 108.542   1-0.38966 0.52496 0.65626 0.23282 0.30319-0.92457
   0  -8   2 82.8146 87.8894   5 0.79666-0.91086-0.50306-0.34496-0.07714 0.61048
   0  -8   2 206.152 175.903   4 0.81395-0.92816-0.41995-0.42806 0.28431 0.24902
   0   8  -2 99.3631 133.728   1-0.46228 0.57648 0.57313 0.27488 0.38190-0.91523
   0   8  -2 104.714 114.483   2 0.35657-0.24237 0.56338 0.28463 0.33947-0.87281
   0   8  -1 122.756 113.440   2 0.34655-0.25345 0.47830 0.32864 0.42823-0.87352
   0  -8   1 21.5725 94.1152   5 0.83643-0.92954-0.44168-0.36527-0.10968 0.55496
   0  -8   1 21.4188 98.0557   4 0.82530-0.91841-0.39740-0.40955 0.27551 0.16978
   0   8  -1 109.266 121.190   1-0.53026 0.62336 0.48161 0.32533 0.45707-0.90235
   0  -8   0 25965.5 561.477   5 0.86956-0.94157-0.38293-0.38294-0.13930 0.49654
   0   8   0 24438.9 470.337   1-0.59225 0.66426 0.38294 0.38294 0.52727-0.88451
   0  -8   0 26056.0 496.569   4 0.83225-0.90426-0.38294-0.38293 0.26983 0.08741
   0   8   0 27371.4 504.288   2 0.33203-0.26002 0.38294 0.38294 0.51720-0.87444
   0  -8  -1 60.8338 75.1214   4 0.83470-0.88561-0.37771-0.34709 0.26777 0.00142
   0   8   1 54.7098 88.2541   2 0.31251-0.26160 0.27742 0.44738 0.60458-0.87377
   0   8   1 110.789 95.2511   1-0.64684 0.69776 0.27899 0.44581 0.59094-0.86013
   0  -8  -2 9489.76 294.483   4 0.83217-0.86199-0.38310-0.30064 0.26989-0.08875
   0  -8  -2 9723.03 312.264   5 0.91812-0.94794-0.27756-0.40618-0.18911 0.37025
   0   8   2 9370.46 302.768   1-0.69274 0.72255 0.17238 0.51135 0.64655-0.82769
   0   8   2 9727.39 300.687   2 0.28768-0.25786 0.16291 0.52083 0.68776-0.86890
   0  -8  -3 12584.0 330.976   4 0.82365-0.83237-0.40076-0.24191 0.27682-0.18373
   0  -8  -3 12328.8 324.481   5 0.93471-0.94343-0.23323-0.40943-0.20889 0.30198
   0   8   3 11620.3 329.421   1-0.72904 0.73776 0.06630 0.57636 0.69291-0.78600
   0   8   3 12043.8 344.874   2 0.25767-0.24895 0.04196 0.60070 0.76348-0.85657
   0   8   4 13513.3 385.866   1-0.75552 0.74315-0.03578 0.63738 0.72940-0.73444
   0   8   4 13340.7 340.505   2 0.22324-0.23561-0.08126 0.68285 0.82829-0.83333
   0  -8  -4 14546.6 347.867   4 0.80729-0.79492-0.43264-0.16895 0.28924-0.28419
   0  -8  -4 13930.8 353.048   5 0.94691-0.93454-0.19621-0.40538-0.22490 0.22994
   0   8   5 12461.9 349.226   1-0.77272 0.73925-0.13056 0.69108 0.75619-0.67319
   0  -8  -5 13075.1 315.875   4 0.77996-0.74648-0.48104-0.07949 0.30777-0.39078
   0  -8  -5 12491.1 314.914   5 0.95523-0.92176-0.16800-0.39253-0.23680 0.15380
   0   8   6 1181.97 187.043   1-0.78194 0.72737-0.21533 0.73479 0.77424-0.60319
   0  -8  -6 1247.99 188.238   3 0.94296-0.88840 0.00106-0.52051-0.46358 0.29253
   0  -8  -6 1191.96 150.563   5 0.96002-0.90545-0.15032-0.36913-0.24412 0.07307
   0  -8  -7 3735.18 235.020   3 0.95470-0.87903 0.01177-0.49016-0.44140 0.18230
   0   8   7 3567.25 258.573   1-0.78499 0.70932-0.28835 0.76674 0.78509-0.52599
   0  -8  -8 382.639 198.989   3 0.96011-0.86335 0.01717-0.45449-0.42998 0.08283
   0   8   8 459.657 200.825   1-0.78387 0.68711-0.34881 0.78612 0.79058-0.44343
   0  -8  -9 80.7097 118.580   3 0.96145-0.84360 0.01856-0.41481-0.42701-0.00818
   0  -8 -10 82.1635 123.810   3 0.95977-0.82082 0.01682-0.37200-0.43072-0.09252
   0   9  -1 434.080 145.716   1-0.50310 0.60521 0.51999 0.38269 0.42684-0.91678
   0   9   0 43.3286 108.358   1-0.56351 0.64452 0.43081 0.43080 0.49450-0.89639
   0   9   0 262.298 157.764   2 0.33972-0.25871 0.43081 0.43080 0.47382-0.87571
   0  -9   0 239.638 185.806   4 0.80827-0.88928-0.43081-0.43080 0.28852 0.11337
   0   9   1 3230.71 271.777   2 0.32402-0.26411 0.33739 0.48315 0.55626-0.87010
   0  -9  -1 3160.83 308.409   5 0.87117-0.93109-0.37984-0.44070-0.14082 0.45467
   0   9   1 3190.30 287.465   1-0.61745 0.67736 0.33737 0.48316 0.55639-0.87024
   0  -9  -1 3473.21 263.029   4 0.81215-0.87207-0.42343-0.39711 0.28566 0.02818
   0   9   2 5882.96 315.998   1-0.66401 0.70283 0.24169 0.53778 0.61147-0.83726
   0  -9  -2 6004.31 323.790   4 0.81123-0.85005-0.42518-0.35428 0.28635-0.06055
   0  -9  -2 6271.30 309.486   5 0.89409-0.93291-0.33329-0.44618-0.16328 0.38907
   0   9   2 5976.80 285.572   2 0.30412-0.26530 0.23679 0.54267 0.63542-0.86121
   0  -9  -3 6211.30 305.648   5 0.91218-0.92990-0.29214-0.44625-0.18246 0.32020
   0   9   3 6125.91 319.927   2 0.28006-0.26234 0.13069 0.60771 0.70912-0.84687
   0   9   3 5618.58 277.167   1-0.70258 0.72030 0.14610 0.59230 0.65885-0.79660
   0  -9  -3 6258.14 292.984   4 0.80479-0.82251-0.43731-0.30109 0.29104-0.15329
   0   9   4 1391.76 208.115   2 0.25228-0.25565 0.02173 0.67560 0.77497-0.82467
   0  -9  -4 1588.95 203.891   4 0.79152-0.78815-0.46123-0.23610 0.30023-0.25053
   0  -9  -4 1480.22 210.194   5 0.92589-0.92252-0.25751-0.43981-0.19814 0.24784
   0   9   5 11113.4 379.720   1-0.75525 0.73078-0.03456 0.69082 0.72901-0.69066
   0  -9  -5 11798.6 370.957   4 0.76926-0.74479-0.49857-0.15768 0.31440-0.35275
   0  -9  -5 10984.9 335.262   5 0.93562-0.91115-0.23061-0.42565-0.21004 0.17169
   0   9   5 10895.9 340.749   2 0.22166-0.24613-0.08658 0.74283 0.83080-0.79246
   0   9   6 4765.33 306.437   1-0.77037 0.72481-0.11488 0.73007 0.75224-0.62584
   0  -9  -6 4596.94 244.975   5 0.94162-0.89605-0.21282-0.40237-0.21777 0.09137
   0   9   7 1925.36 302.246   1-0.77943 0.71277-0.18609 0.76021 0.76866-0.55421
   0   9   8 2258.37 297.968   1-0.78384 0.69608-0.24709 0.78014 0.77951-0.47701
   0  -9  -8 2505.75 298.506   3 0.93752-0.84976-0.00355-0.52950-0.47292 0.17042
   0   9   9 4132.04 356.832   1-0.78503 0.67618-0.29742 0.78940 0.78612-0.39558
   0  -9  -9 4169.30 388.559   3 0.94285-0.83400 0.00096-0.49294-0.46378 0.07323
   0   9  10 127.105 176.246   1-0.78435 0.65440-0.33708 0.78799 0.78977-0.31118
   0  -9 -10 89.1856 150.706   3 0.94397-0.81402 0.00193-0.45284-0.46180-0.01679
   0  10   2 403.827 180.484   1-0.63313 0.68095 0.30701 0.56819 0.57474-0.84519
   0 -10  -2 531.905 168.742   4 0.78736-0.83518-0.46846-0.40674 0.30299-0.03254
   0  10   2 311.726 152.827   2 0.31806-0.27024 0.30562 0.56958 0.58228-0.85273
   0 -10  -3 1161.17 223.377   4 0.78275-0.80948-0.47633-0.35780 0.30599-0.12359
   0  10   3 1460.00 309.887   2 0.29866-0.27193 0.21149 0.62264 0.65388-0.83628
   0  10   4 3095.24 290.527   1-0.70659 0.71222 0.13493 0.65813 0.66392-0.75827
   0 -10  -4 3588.99 276.710   4 0.77194-0.77757-0.49424-0.29882 0.31277-0.21841
   0 -10  -4 3987.02 293.181   5 0.90187-0.90750-0.31614-0.47692-0.17134 0.26570
   0  10   4 3590.30 273.095   2 0.27612-0.27049 0.11447 0.67860 0.71955-0.81390
   0  10   5 964.244 209.047   2 0.25099-0.26646 0.01694 0.73505 0.77764-0.78395
   0 -10  -5 889.281 200.885   5 0.91297-0.89750-0.29024-0.46175-0.18333 0.18964
   0 -10  -5 885.867 217.374   4 0.75336-0.73789-0.52340-0.22859 0.32369-0.31739
   0 -10  -6 723.550 180.257   5 0.92018-0.88362-0.27235-0.43857-0.19147 0.10973
   0  10   6 604.771 250.554   1-0.75243 0.71587-0.02203 0.73295 0.72494-0.64320
   0  10   6 562.493 166.825   2 0.22412-0.26068-0.07827 0.78919 0.82686-0.74512
   0  10   7 1974.16 334.539   1-0.76633 0.70867-0.09051 0.76036 0.74571-0.57592
   0  10   8 819.162 331.488   1-0.77544 0.69669-0.15066 0.77945 0.76099-0.50315
   0  10   9 668.667 279.859   1-0.78087 0.68101-0.20179 0.78950 0.77174-0.42585
   0 -11  -5 60.8446 93.0051   4 0.73308-0.72662-0.55312-0.29460 0.33467-0.28371
   0  11   5 42.5812 144.137   2 0.27543-0.28190 0.11166 0.73607 0.72133-0.77229
   0  11   6 63.7143 126.428   2 0.25308-0.28064 0.02469 0.78196 0.77331-0.73622
  -1  10   8 3241.80 350.833   1-0.78315 0.59999-0.23388 0.85285 0.77742-0.49456
  -1  10   7 1033.48 252.893   1-0.77851 0.61644-0.17700 0.83703 0.76678-0.57198
  -1  10   6 1973.96 320.010   1-0.76972 0.62875-0.11076 0.81187 0.75117-0.64441
   1 -10  -6 1782.07 248.981   5 0.96073-0.81976-0.14758-0.55352-0.24525 0.13849
   1 -10  -5 1947.61 255.190   5 0.95492-0.83505-0.16910-0.57307-0.23634 0.21763
  -1  10   5 2206.81 289.001   1-0.75555 0.63568-0.03591 0.77809 0.72944-0.71073
   1 -10  -4 6101.94 342.282   4 0.82639-0.72761-0.39517-0.38808 0.27464-0.20530
  -1  10   4 5776.19 327.489   1-0.73486 0.63609 0.04635 0.73690 0.70066-0.77000
   1 -10  -4 6103.56 338.731   5 0.94613-0.84735-0.19873-0.58452-0.22382 0.29316
  -1  10   3 95.1567 83.7049   2 0.30840-0.38608 0.25722 0.56710 0.62010-0.77749
  -1  10   3 113.885 89.6988   1-0.70680 0.62912 0.13434 0.68997 0.66418-0.82157
   1 -10  -3 220.602 162.481   4 0.83480-0.75712-0.37750-0.44681 0.26768-0.11030
  -1  10   2 339.519 122.825   1-0.67085 0.61427 0.22605 0.63933 0.61973-0.86516
  -1  10   2 1511.58 214.682   2 0.32596-0.38255 0.34809 0.51730 0.54727-0.79271
   1 -10  -2 1491.49 258.976   4 0.83800-0.78142-0.37055-0.49483 0.26494-0.01950
  -1  10   1 6716.83 376.841   2 0.34014-0.37563 0.43359 0.47287 0.47122-0.80471
   1  -9  -9 274.775 148.408   3 0.97506-0.76180 0.03426-0.51642-0.39274-0.02282
  -1   9   8 847.865 220.719   1-0.78448 0.59232-0.33335 0.85658 0.78949-0.46198
   1  -9  -8 420.286 166.801   3 0.97444-0.78228 0.03347-0.55670-0.39451 0.06700
  -1   9   7 37.6902 119.349   1-0.78483 0.61376-0.27760 0.84190 0.78377-0.54431
   1  -9  -6 6257.60 289.684   5 0.97763-0.82766-0.07051-0.53486-0.27597 0.12456
  -1   9   6 5749.90 321.829   1-0.78159 0.63162-0.21073 0.81610 0.77341-0.62199
   1  -9  -5 47.8486 68.4087   5 0.97339-0.84452-0.09267-0.55377-0.26733 0.20396
  -1   9   5 85.8464 111.963   1-0.77309 0.64422-0.13316 0.77961 0.75683-0.69347
   1  -9  -4 33.9990 96.0703   5 0.96656-0.85879-0.12393-0.56358-0.25488 0.27956
   1  -9  -4 48.5482 66.1551   4 0.84851-0.74073-0.34687-0.34064 0.25553-0.23084
  -1   9   4 79.3246 100.941   1-0.75773 0.64995-0.04605 0.73356 0.73263-0.75732
  -1   9   4 73.5474 106.016   2 0.26567-0.37345 0.07277 0.61474 0.74534-0.77002
  -1   9   3 3563.42 248.148   2 0.29172-0.37840 0.18044 0.54814 0.67577-0.78850
   1  -9  -3 3140.25 227.073   5 0.95658-0.86990-0.16313-0.56545-0.23883 0.35156
  -1   9   3 3095.45 247.341   1-0.73417 0.64749 0.04878 0.67980 0.69973-0.81246
   1  -9  -3 3138.96 244.513   4 0.85813-0.77145-0.32379-0.40480 0.24628-0.13355
  -1   9   2 65.4972 94.2260   2 0.31378-0.37936 0.28375 0.48590 0.59964-0.80042
   1  -9  -2 37.7341 87.0348   4 0.86233-0.79674-0.31326-0.45639 0.24204-0.04126
  -1   9   2 28.1530 69.2710   1-0.70157 0.63598 0.14887 0.62078 0.65758-0.85836
   1  -9  -2 34.4051 94.8745   5 0.94279-0.87721-0.20921-0.56044-0.21933 0.42011
  -1   9   1 54.5747 83.8640   2 0.33161-0.37609 0.38040 0.43032 0.51943-0.80826
  -1   9   1 51.8325 86.4074   1-0.65965 0.61516 0.25142 0.55930 0.60623-0.89506
   1  -9  -1 10.8544 68.2580   4 0.86220-0.81772-0.31357-0.49715 0.24217 0.04666
   1  -9  -1 57.9866 117.255   5 0.92450-0.88001-0.26119-0.54953-0.19649 0.48532
   1  -9   0 1060.31 240.322   5 0.90099-0.87759-0.31813-0.53366-0.17041 0.54729
   1  -9   0 1126.18 218.556   4 0.85833-0.83493-0.32331-0.52848 0.24609 0.13079
  -1   9   0 1596.99 256.970   2 0.34530-0.36869 0.46916 0.38264 0.43722-0.81410
  -1   9   0 737.971 194.744   1-0.60873 0.58534 0.35355 0.49824 0.54628-0.92315
   1  -9   1 921.012 245.188   4 0.85087-0.84857-0.34134-0.55152 0.25332 0.21161
  -1   9  -1 874.692 212.793   2 0.35516-0.35746 0.54959 0.34327 0.35453-0.81946
  -1   9  -1 182.235 105.743   1-0.54957 0.54727 0.45266 0.44020 0.47875-0.94367
   1  -8 -10 2412.84 324.375   3 0.98419-0.74083 0.04730-0.39266-0.36320-0.18506
   1  -8  -9 9302.30 413.140   3 0.98709-0.76483 0.05219-0.43861-0.35187-0.10834
   1  -8  -8 6323.20 330.030   3 0.98842-0.78725 0.05459-0.48209-0.34625-0.02591
   1  -8  -7 163.520 113.633   3 0.98802-0.80795 0.05385-0.52242-0.34799 0.06387
   1  -8  -6 549.230 161.447   5 0.98922-0.83024 0.01362-0.52326-0.30741 0.11134
  -1   8   6 562.319 191.059   1-0.78488 0.62590-0.31736 0.82700 0.78813-0.59206
   1  -8  -6 445.190 158.611   3 0.98519-0.82622 0.04894-0.55858-0.35941 0.16334
  -1   8   5 5609.82 232.196   2 0.20216-0.34003-0.15056 0.70127 0.85925-0.75124
  -1   8   5 5238.52 283.695   1-0.78340 0.64552-0.23828 0.78899 0.77813-0.67011
   1  -8  -5 5755.06 253.470   5 0.98675-0.84888-0.00939-0.54132-0.29903 0.19101
   1  -8  -4 2946.77 197.593   4 0.86791-0.75113-0.29873-0.29304 0.23617-0.25614
  -1   8   4 2995.51 196.477   2 0.23869-0.35547-0.02765 0.61942 0.80161-0.78164
   1  -8  -4 2977.95 225.510   5 0.98224-0.86546-0.04275-0.54903-0.28659 0.26662
  -1   8   4 2733.54 230.581   1-0.77494 0.65816-0.14672 0.73850 0.76007-0.74010
  -1   8   3 1615.61 177.568   2 0.27157-0.36725 0.09608 0.53677 0.73110-0.79918
   1  -8  -3 1563.39 172.460   4 0.87877-0.78309-0.26864-0.36421 0.22392-0.15585
  -1   8   3 1557.22 208.653   1-0.75742 0.66173-0.04457 0.67741 0.73217-0.80025
   1  -8  -3 1556.23 189.138   5 0.97490-0.87922-0.08508-0.54777-0.27031 0.33839
  -1   8   2 782.393 182.446   2 0.29946-0.37405 0.21518 0.45873 0.65122-0.80735
   1  -8  -2 556.179 130.971   5 0.96387-0.88929-0.13514-0.53878-0.25034 0.40646
  -1   8   2 661.528 152.521   1-0.72936 0.65477 0.06525 0.60866 0.69332-0.84945
   1  -8  -2 784.277 168.614   4 0.88381-0.80922-0.25369-0.42023 0.21780-0.06167
   1  -8  -1 203.865 94.3400   4 0.88454-0.83105-0.25146-0.46353 0.21688 0.02729
  -1   8   1 123.425 96.7535   1-0.69014 0.63665 0.17906 0.53593 0.64334-0.88752
  -1   8   1 123.907 83.3691   2 0.32191-0.37540 0.32595 0.38904 0.56574-0.80991
   1  -8  -1 73.5383 69.8114   5 0.94828-0.89479-0.19176-0.52323-0.22679 0.47097
   1  -8   0 4073.49 242.485   4 0.88169-0.84930-0.26004-0.49601 0.22041 0.11182
  -1   8   0 4248.81 291.500   1-0.64008 0.60769 0.29298 0.46307 0.58294-0.91516
   1  -8   0 4157.47 286.015   5 0.92727-0.89488-0.25383-0.50223-0.19978 0.53200
   1  -8   1 777.620 218.087   4 0.87551-0.86421-0.27796-0.51916 0.22773 0.19254
  -1   8  -1 735.767 203.893   2 0.35139-0.36269 0.51622 0.28091 0.38987-0.81014
  -1   8  -1 669.499 155.065   1-0.58024 0.56894 0.40343 0.39370 0.51352-0.93379
   1  -8   1 855.381 242.542   5 0.90003-0.88873-0.32027-0.47685-0.16941 0.58968
  -1   8  -2 652.406 198.742   1-0.51214 0.52193 0.50751 0.33069 0.43687-0.94519
   1  -8   2 598.913 224.513   5 0.86578-0.87558-0.39006-0.44814-0.13578 0.64410
   1  -8   2 422.349 214.267   4 0.86590-0.87570-0.30404-0.53416 0.23832 0.27000
  -1   8  -2 470.997 173.845   2 0.35953-0.34973 0.59559 0.24260 0.30318-0.81150
  -1   8  -3 1.65549 111.341   2 0.36405-0.33316 0.66538 0.21389 0.21855-0.81492
   1  -8   3 47.0709 139.723   4 0.85256-0.88345-0.33734-0.54193 0.25172 0.34465
  -1   7  11 555.624 246.874   0 0.21112-0.48457-0.61194 0.82050 0.87354-0.19258
  -1   7  10 2645.47 259.910   0 0.18703-0.43939-0.60338 0.85300 0.88783-0.29491
   1  -7 -10 3047.38 310.616   3 0.99098-0.73862 0.05965-0.30927-0.33431-0.25861
   1  -7  -9 478.605 232.704   3 0.99419-0.76293 0.06712-0.35782-0.31636-0.18850
  -1   7   9 262.102 181.204   0 0.14932-0.38058-0.58897 0.87967 0.90833-0.40347
   1  -7  -8 14623.7 382.533   3 0.99609-0.78592 0.07253-0.40430-0.30317-0.11365
   1  -7  -7 8937.94 339.333   3 0.99694-0.80787 0.07537-0.44821-0.29617-0.03260
   1  -7  -6 1364.44 200.466   3 0.99679-0.82882 0.07486-0.48876-0.29744 0.05672
   1  -7  -6 1292.70 151.366   5 0.99375-0.82577 0.10799-0.52190-0.34008 0.09935
   1  -7  -5 316.406 143.672   3 0.99514-0.84826 0.06969-0.52467-0.31012 0.15745
   1  -7  -5 179.925 82.7221   5 0.99344-0.84657 0.08377-0.53875-0.33195 0.17928
  -1   7   5 255.208 124.143   1-0.78369 0.63681-0.35253 0.80750 0.79081-0.63813
   1  -7  -4 1421.35 129.753   4 0.88475-0.75897-0.25081-0.24524 0.21661-0.28124
  -1   7   4 1377.64 172.314   1-0.78428 0.65850-0.25790 0.75394 0.78111-0.71648
   1  -7  -4 1537.36 179.742   5 0.99189-0.86610 0.04765-0.54369-0.31950 0.25488
  -1   7   3 21.4409 59.1544   1-0.77516 0.67047-0.14842 0.68553 0.76047-0.78389
  -1   7   3 44.1643 58.0295   2 0.24649-0.35117 0.00040 0.53671 0.78672-0.81015
   1  -7  -3 71.1871 80.9919   5 0.98796-0.88327 0.00123-0.53834-0.30291 0.32634
  -1   7   2 13147.3 309.149   1-0.75366 0.67007-0.02742 0.60560 0.72671-0.83818
  -1   7   2 13615.7 306.955   2 0.28235-0.36594 0.14025 0.43794 0.70287-0.81435
   1  -7  -2 14190.1 359.640   5 0.98046-0.89687-0.05402-0.52416-0.28231 0.39378
   1  -7  -1 1618.74 178.575   5 0.96824-0.90575-0.11666-0.50259-0.25780 0.45732
  -1   7   1 1700.29 160.207   2 0.31093-0.37342 0.26960 0.34965 0.61063-0.81015
   1  -7   0 14338.1 421.467   5 0.95022-0.90882-0.18534-0.47498-0.22951 0.51708
  -1   7   0 13355.0 321.325   1-0.66954 0.62815 0.22908 0.43125 0.61814-0.90571
  -1   7   0 14422.3 343.900   2 0.33241-0.37381 0.38518 0.27514 0.51523-0.80280
  -1   7  -1 2814.04 217.617   2 0.34762-0.36792 0.48633 0.21506 0.42026-0.79588
   1  -7   1 2800.08 216.466   5 0.92543-0.90513-0.25873-0.44266-0.19759 0.57321
  -1   7  -1 2365.81 227.248   1-0.60855 0.58825 0.35389 0.34750 0.54606-0.92168
  -1   7  -2 3054.38 245.101   1-0.53771 0.53850 0.47062 0.27184 0.46541-0.92907
   1  -7   2 3177.27 252.237   5 0.89303-0.89383-0.33558-0.40689-0.16219 0.62586
  -1   7  -2 3324.69 248.700   2 0.35760-0.35680 0.57393 0.16853 0.32776-0.79143
   1  -7   3 285.475 113.091   4 0.87721-0.89910-0.27314-0.51039 0.22576 0.32595
  -1   7  -3 378.986 164.291   1-0.45952 0.48141 0.57654 0.20699 0.37888-0.93059
   1  -7   3 328.798 155.737   5 0.85223-0.87412-0.41468-0.36885-0.12347 0.67518
  -1   7  -3 263.108 136.278   2 0.36327-0.34137 0.64946 0.13407 0.23864-0.79036
  -1   7  -4 433.401 176.427   2 0.36540-0.32241 0.71448 0.11012 0.15314-0.79290
   1  -7   4 444.802 236.436   4 0.86155-0.90454-0.31522-0.50938 0.24284 0.39693
  -1   6  11 1232.62 266.952   0 0.28983-0.57229-0.63630 0.74912 0.82010-0.09448
   1  -6 -11 1343.43 280.963   3 0.99002-0.70756 0.05768-0.17050-0.33898-0.38664
   1  -6 -10 9452.12 384.053   3 0.99493-0.73357 0.06909-0.22298-0.31158-0.32599
  -1   6  10 9725.37 442.426   0 0.27647-0.53783-0.63257 0.78646 0.82993-0.19236
   1  -6  -9 550.286 200.489   3 0.99788-0.75762 0.07904-0.27400-0.28707-0.26245
  -1   6   9 514.177 176.320   0 0.25142-0.49169-0.62513 0.82009 0.84751-0.29798
   1  -6  -8 24414.0 508.581   3 0.99938-0.78021 0.08728-0.32331-0.26627-0.19521
  -1   6   8 24547.8 484.084   0 0.21113-0.43030-0.61195 0.84798 0.87354-0.41206
  -1   6   7 2702.03 217.841   0 0.15077-0.34884-0.58954 0.86664 0.90759-0.53416
   1  -6  -7 2702.35 219.802   3 0.99992-0.80185 0.09348-0.37058-0.25035-0.12308
  -1   6   6 4118.11 232.970   0 0.06459-0.24157-0.55231 0.87048 0.94644-0.66106
   1  -6  -6 4168.13 221.589   3 1.00000-0.82302 0.09705-0.41522-0.24105-0.04433
   1  -6  -6 4025.01 182.584   5 0.98756-0.81059 0.21751-0.53568-0.37447 0.08910
  -1   6   5 4109.55 194.869   0-0.05226-0.10362-0.49232 0.85156 0.98147-0.78414
   1  -6  -5 3897.19 187.073   5 0.99016-0.83428 0.19161-0.55085-0.36669 0.16936
   1  -6  -5 4075.87 210.200   3 1.00000-0.84412 0.09707-0.45631-0.24100 0.04368
   1  -6  -4 28.3216 46.5185   5 0.99278-0.85799 0.15177-0.55208-0.35429 0.24501
  -1   6   4 44.1790 75.1869   0-0.19917 0.06439-0.40131 0.80162 0.99652-0.88724
   1  -6  -3 7115.77 236.350   5 0.99371-0.88003 0.09986-0.54124-0.33737 0.31614
  -1   6   3 6826.73 236.329   1-0.78456 0.67088-0.26645 0.70782 0.78230-0.76107
   1  -6  -3 7211.93 204.389   3 0.99771-0.88402 0.07830-0.51968-0.28891 0.26768
  -1   6   3 7559.22 226.070   0-0.36354 0.24986-0.27679 0.71817 0.97120-0.94997
  -1   6   3 7791.60 219.233   2 0.21378-0.32747-0.11285 0.55423 0.84290-0.82167
  -1   6   2 4860.05 201.353   0-0.52052 0.42794-0.12922 0.61167 0.89376-0.96057
   1  -6  -2 4921.98 199.117   5 0.99122-0.89863 0.03765-0.52009-0.31599 0.38280
  -1   6   2 4590.53 194.383   1-0.77309 0.68050-0.13314 0.61559 0.75683-0.82364
  -1   6   2 4748.14 196.292   2 0.26113-0.35371 0.05515 0.42730 0.75581-0.82263
  -1   6   1 6659.68 223.735   2 0.29839-0.36988 0.21026 0.31326 0.65476-0.80963
  -1   6   1 6157.93 229.395   1-0.74421 0.67272 0.01177 0.51175 0.71338-0.86825
   1  -6  -1 6282.72 234.761   5 0.98366-0.91216-0.03311-0.49041-0.29022 0.44508
  -1   6   1 6423.02 217.932   0-0.64605 0.57456 0.02048 0.50304 0.77292-0.92779
   1  -6   0 10059.7 276.598   5 0.96959-0.91919-0.11064-0.45395-0.26021 0.50312
  -1   6   0 10638.5 243.459   0-0.73105 0.68065 0.15400 0.41059 0.63132-0.87424
  -1   6   0 10132.9 280.698   1-0.69740 0.64700 0.16012 0.40447 0.65236-0.89528
  -1   6   0 10171.8 300.964   2 0.32560-0.37600 0.34606 0.21853 0.54899-0.79190
   1  -6   1 4.63245 46.6484   5 0.94783-0.91853-0.19325-0.41241-0.22616 0.55712
  -1   6  -1 28.4012 58.9056   0-0.78052 0.75122 0.26394 0.34171 0.48899-0.81995
  -1   6  -1 17.3321 52.1673   1-0.63470 0.60540 0.30388 0.30178 0.57658-0.90755
  -1   6  -1 43.5598 84.2676   2 0.34424-0.37354 0.46158 0.14408 0.44458-0.77554
  -1   6  -2 18177.5 381.844   2 0.35611-0.36431 0.55871 0.08801 0.34460-0.76361
   1  -6   2 19125.8 426.596   5 0.91742-0.90921-0.27932-0.36741-0.18831 0.60732
  -1   6  -2 17046.0 340.660   1-0.55969 0.55148 0.43688 0.20984 0.49017-0.90918
   1  -6   3 84.9734 135.387   5 0.87758-0.89047-0.36737-0.32043-0.14692 0.65398
  -1   6  -3 73.2633 105.884   1-0.47631 0.48920 0.55543 0.13236 0.39728-0.90434
  -1   6  -3 18.3566 78.3952   2 0.36274-0.34985 0.64024 0.04755 0.25006-0.75711
  -1   6  -4 6970.30 339.872   2 0.36534-0.33135 0.70886 0.02001 0.16091-0.75602
   1  -6   4 6826.97 340.288   4 0.88493-0.91892-0.25027-0.47860 0.21639 0.37872
  -1   6  -5-8.35408 91.6260   2 0.36472-0.30964 0.76680 0.00313 0.07666-0.75982
  -1   5  11 3849.71 401.907   0 0.35674-0.64820-0.65228 0.66936 0.76590 0.00438
   1  -5 -11 3999.84 318.640   3 0.99205-0.70059 0.06197-0.07906-0.32876-0.44152
   1  -5 -10 852.040 224.703   3 0.99698-0.72662 0.07553-0.13368-0.29579-0.38643
  -1   5  10 645.269 217.895   0 0.35314-0.62351-0.65154 0.70969 0.76903-0.08681
   1  -5  -9 1304.59 199.396   3 0.99945-0.75018 0.08783-0.18706-0.26486-0.32932
  -1   5   9 1247.36 237.782   0 0.34012-0.58939-0.64874 0.74797 0.78017-0.18599
  -1   5   8 31184.3 498.817   0 0.31457-0.54274-0.64274 0.78304 0.80105-0.29492
   1  -5  -8 31194.0 507.836   3 0.99997-0.77180 0.09877-0.23906-0.23655-0.26958
   1  -5  -7 1165.60 162.358   3 0.99912-0.79205 0.10811-0.28947-0.21172-0.20636
  -1   5   7 1123.59 167.370   0 0.27180-0.47888-0.63123 0.81260 0.83329-0.41521
  -1   5   6 2901.81 182.218   0 0.20504-0.39101-0.60983 0.83226 0.87724-0.54721
   1  -5  -6 3057.69 229.708   3 0.99757-0.81159 0.11549-0.33793-0.19166-0.13837
   1  -5  -5 58.4537 56.0586   5 0.96966-0.80478 0.32157-0.58507-0.40347 0.16149
   1  -5  -5 47.9607 76.3601   3 0.99613-0.83125 0.12030-0.38381-0.17837-0.06362
  -1   5   5 96.4120 82.4581   0 0.10552-0.27040-0.57075 0.83425 0.92939-0.68741
  -1   5   4 3204.07 145.668   0-0.03454-0.10925-0.50211 0.80669 0.97745-0.82351
   1  -5  -4 3268.81 161.732   3 0.99573-0.85195 0.12146-0.42603-0.17515 0.02122
   1  -5  -4 3514.27 142.395   5 0.97883-0.83505 0.27695-0.58153-0.39150 0.23756
   1  -5  -3 3.94662 43.4169   3 0.99720-0.87451 0.11684-0.46248-0.18795 0.12207
  -1   5   3 38.4926 62.2628   0-0.21299 0.09031-0.39181 0.73745 0.99620-0.93032
   1  -5  -3 7.61941 25.7527   5 0.98754-0.86485 0.21770-0.56334-0.37453 0.30864
   1  -5  -2 20551.9 312.622   5 0.99302-0.89143 0.14588-0.53260-0.35241 0.37457
  -1   5   2 22097.7 283.242   0-0.40611 0.30452-0.23997 0.62669 0.95615-0.97831
   1  -5  -2 21402.9 250.316   3 0.99983-0.89824 0.10180-0.48851-0.22856 0.25072
  -1   5   2 20381.8 279.169   2 0.23308-0.33467-0.04743 0.43414 0.81173-0.83389
  -1   5   2 20547.1 320.690   1-0.78429 0.68270-0.25807 0.64479 0.78113-0.80329
  -1   5   1 1114.21 124.299   2 0.28367-0.36416 0.14579 0.28199 0.69921-0.80942
  -1   5   1 1004.16 105.129   0-0.57471 0.49421-0.06920 0.49698 0.85014-0.96035
   1  -5  -1 1030.93 127.750   5 0.99274-0.91225 0.06380-0.49159-0.32512 0.43533
  -1   5   1 1015.59 109.109   1-0.76657 0.68608-0.09190 0.51969 0.74609-0.85631
  -1   5   0 16604.8 299.173   2 0.31899-0.37839 0.31049 0.15837 0.57836-0.77662
  -1   5   0 15992.4 301.763   1-0.72392 0.66453 0.08301 0.38585 0.68618-0.88444
  -1   5   0 17236.8 291.241   0-0.69333 0.63393 0.08968 0.37918 0.70358-0.90184
   1  -5   0 16321.0 291.543   5 0.98463-0.92523-0.02614-0.44272-0.29282 0.49108
  -1   5  -1 43760.1 462.356   1-0.65889 0.62059 0.25310 0.25682 0.60531-0.89162
   1  -5   1 44281.3 488.168   5 0.96711-0.92881-0.12159-0.38834-0.25582 0.54213
  -1   5  -1 45363.3 441.297   0-0.76314 0.72484 0.21998 0.28994 0.54892-0.83522
  -1   5  -1 45513.6 489.271   2 0.34181-0.38012 0.44477 0.06515 0.46069-0.74700
   1  -5   2 22239.4 376.534   5 0.93913-0.92193-0.22031-0.33068-0.21452 0.58888
  -1   5  -2 21861.6 358.807   1-0.57748 0.56027 0.40804 0.14295 0.51037-0.88473
  -1   5  -2 23473.8 360.378   0-0.79778 0.78058 0.32104 0.22995 0.40452-0.77887
  -1   5  -2 23151.0 391.112   2 0.35551-0.37271 0.55289-0.00190 0.35095-0.72531
  -1   5  -3 22013.8 426.197   0-0.81004 0.81393 0.39863 0.19343 0.27567-0.73807
  -1   5  -3 21732.8 404.238   2 0.36274-0.35885 0.64028-0.04822 0.25001-0.71241
   1  -5   3 21374.6 393.951   5 0.89999-0.90388-0.32035-0.27171-0.16937 0.63177
  -1   5  -4 25.6841 61.0922   1-0.39078 0.41577 0.65507-0.02194 0.30439-0.85485
  -1   5  -4 25.1546 54.6298   2 0.36537-0.34038 0.71163-0.07849 0.15709-0.70755
   1  -5   4 9.94725 66.0575   5 0.84920-0.87419-0.41999-0.21315-0.12078 0.67123
  -1   5  -5 1043.88 198.284   2 0.36458-0.31849 0.77048-0.09628 0.07097-0.70947
  -1   5  -6 39.4253 82.6188   2 0.36112-0.29394 0.81942-0.10415-0.00959-0.71696
   1  -4 -11 956.001 222.900   3 0.99255-0.69209 0.06310 0.01555-0.32607-0.48886
   1  -4 -10 6723.96 330.011   3 0.99782-0.71845 0.07876-0.04118-0.28777-0.43911
   1  -4  -9 168.613 95.0692   3 0.99991-0.74165 0.09336-0.09685-0.25065-0.38818
   1  -4  -8 9677.01 292.772   3 0.99930-0.76213 0.10686-0.15143-0.21506-0.33572
  -1   4   7 1583.24 167.970   0 0.37693-0.59301-0.65617 0.74180 0.74780-0.28507
   1  -4  -7 1560.17 153.547   3 0.99650-0.78042 0.11917-0.20480-0.18151-0.28122
   1  -4  -6 2497.01 159.825   3 0.99209-0.79712 0.13010-0.25680-0.15077-0.22391
  -1   4   6 2465.41 160.046   0 0.33190-0.52688-0.64689 0.77359 0.78703-0.41234
   1  -4  -5 37841.2 407.993   3 0.98689-0.81300 0.13934-0.30711-0.12406-0.16258
   1  -4  -5 39553.1 344.668   5 0.91539-0.74151 0.48374-0.65151-0.44058 0.15395
  -1   4   5 39333.4 403.945   0 0.25750-0.43138-0.62699 0.79476 0.84335-0.55671
  -1   4   4 4580.93 164.179   0 0.13982-0.29260-0.58515 0.79399 0.91315-0.71456
   1  -4  -4 4405.78 183.112   3 0.98201-0.82922 0.14630-0.35514-0.10344-0.09515
   1  -4  -4 4197.12 140.921   5 0.93563-0.78284 0.43441-0.64325-0.43044 0.23185
   1  -4  -3 30.1564 55.6882   3 0.97917-0.84748 0.14987-0.39978-0.09270-0.01784
   1  -4  -3 8.06818 31.8790   5 0.95810-0.82641 0.36628-0.61619-0.41475 0.30421
  -1   4   3 19.8487 38.0847   0-0.03403-0.09766-0.50239 0.75230 0.97733-0.86679
   1  -4  -2 35988.1 325.227   5 0.97800-0.86740 0.28152-0.57250-0.39276 0.37026
  -1   4   2 36543.3 324.745   0-0.25641 0.14582-0.36087 0.65185 0.99314-0.97065
  -1   4   1 5036.18 167.457   1-0.78233 0.69283-0.22085 0.55290 0.77521-0.84077
  -1   4   1 5523.96 158.019   2 0.26534-0.35484 0.07148 0.26057 0.74611-0.81167
  -1   4   1 5273.29 165.373   0-0.47906 0.38957-0.17158 0.50363 0.92049-0.98605
   1  -4  -1 5207.33 168.725   5 0.99085-0.90136 0.18318-0.51523-0.36411 0.42966
   1  -4  -1 5455.63 120.588   3 0.99086-0.90136 0.13253-0.46458-0.14382 0.20937
  -1   4   0 21238.0 284.556   1-0.74922 0.68082-0.00838 0.38150 0.72038-0.87398
   1  -4   0 21674.6 299.764   5 0.99318-0.92478 0.07490-0.44802-0.32893 0.48254
  -1   4   0 21108.3 271.594   2 0.31329-0.38169 0.28130 0.09182 0.60156-0.75516
  -1   4   0 21860.8 279.099   0-0.64561 0.57721 0.01986 0.35326 0.77350-0.92710
  -1   4  -1 5164.27 168.419   1-0.68137 0.63406 0.20100 0.21319 0.63254-0.87419
  -1   4  -1 5489.56 169.773   0-0.74321 0.69590 0.17737 0.23682 0.60312-0.84478
   1  -4   1 5548.44 203.514   5 0.98272-0.93541-0.03956-0.37463-0.28779 0.52944
  -1   4  -1 5655.54 192.631   2 0.34127-0.38857 0.44110-0.02691 0.46416-0.70581
  -1   4  -2 9316.65 219.436   1-0.58970 0.56349 0.38736 0.06790 0.52434-0.85404
  -1   4  -2 9608.03 260.127   0-0.79080 0.76459 0.29535 0.15991 0.44351-0.77321
   1  -4   2 9418.65 233.892   5 0.95831-0.93210-0.15677-0.29849-0.24146 0.57116
  -1   4  -2 9172.16 228.112   2 0.35637-0.38258 0.56133-0.10607 0.34173-0.67143
  -1   4  -3 2846.09 166.023   0-0.80867 0.80356 0.38233 0.11400 0.30426-0.72200
  -1   4  -3 2723.20 155.509   1-0.48657 0.48146 0.54212-0.04579 0.40858-0.82633
  -1   4  -3 2701.58 161.362   2 0.36347-0.36858 0.65332-0.15699 0.23381-0.65156
   1  -4   3 2952.86 171.346   5 0.91960-0.91449-0.27383-0.22250-0.19080 0.60855
   1  -4   4 8281.20 261.407   5 0.86664-0.88263-0.38844-0.14896-0.13658 0.64238
  -1   4  -4 8094.37 261.849   2 0.36546-0.34947 0.72544-0.18805 0.13775-0.64354
  -1   4  -4 8119.98 238.910   1-0.38087 0.39686 0.66545-0.12805 0.29376-0.79956
  -1   4  -5 6806.51 292.248   2 0.36396-0.32688 0.78324-0.20477 0.05087-0.64472
  -1   4  -6 58.6772 119.743   2 0.35990-0.30172 0.83033-0.21079-0.02899-0.65291
  -1   4  -7 435.267 197.667   2 0.35381-0.27454 0.86905-0.20844-0.10346-0.66648
   1  -3 -11 120.180 136.444   3 0.99148-0.68202 0.06072 0.11366-0.33174-0.52784
   1  -3 -10 148.681 120.413   3 0.99775-0.70939 0.07850 0.05482-0.28842-0.48312
   1  -3  -9 7130.31 287.367   3 0.99998-0.73271 0.09536-0.00312-0.24545-0.43804
   1  -3  -8 20711.5 403.153   3 0.99854-0.75236 0.11136-0.06019-0.20293-0.39251
   1  -3  -8 20079.2 357.733   2 0.22101 0.02516 0.96655-0.91537-0.66686 0.07142
   1  -3  -7 4011.58 204.044   3 0.99375-0.76868 0.12650-0.11639-0.16101-0.34638
   1  -3  -7 4238.92 188.801   2 0.21418 0.01090 0.96213-0.95203-0.68245 0.17507
   1  -3  -6 1704.73 135.886   3 0.98596-0.78198 0.14075-0.17172-0.11991-0.29943
   1  -3  -6 1935.78 154.855   2 0.19861 0.00537 0.95047-0.98144-0.71571 0.29637
   1  -3  -5 18463.6 274.319   3 0.97555-0.79267 0.15406-0.22609-0.07998-0.25131
   1  -3  -5 18721.9 221.767   5 0.79150-0.60861 0.68284-0.75488-0.46859 0.13730
   1  -3  -4 2102.92 104.741   5 0.82843-0.66664 0.63520-0.74831-0.46412 0.22088
   1  -3  -4 2118.23 127.978   3 0.96304-0.80126 0.16628-0.27939-0.04183-0.20141
  -1   3   4 2306.30 139.824   0 0.30832-0.47010-0.64117 0.75428 0.80598-0.56273
  -1   3   3 336.972 95.0341   0 0.16395-0.30464-0.59470 0.74888 0.90064-0.74545
   1  -3  -3 255.684 88.0253   3 0.94930-0.80861 0.17715-0.33133-0.00662-0.14858
   1  -3  -3 340.697 70.0707   5 0.87553-0.73484 0.56212-0.71629-0.45434 0.29914
   1  -3  -2 136.130 61.1700   3 0.93601-0.81641 0.18606-0.38130 0.02325-0.09040
   1  -3  -2 180.332 68.5597   5 0.92405-0.80446 0.46366-0.65891-0.43658 0.36944
  -1   3   2 128.741 40.4345   0-0.06316-0.05643-0.48617 0.68141 0.98371-0.91656
  -1   3   1 98201.0 442.600   0-0.34522 0.24672-0.29201 0.52832 0.97651-0.99741
  -1   3   1 93222.8 401.071   2 0.23927-0.33777-0.02558 0.26190 0.80054-0.82144
   1  -3  -1 101591. 377.598   3 0.92708-0.82858 0.19139-0.42771 0.04162-0.02072
   1  -3  -1 97240.7 472.124   5 0.96439-0.86589 0.34311-0.57943-0.40900 0.42990
  -1   3   0 60543.0 368.204   2 0.31009-0.38750 0.26549 0.01189 0.61379-0.72274
   1  -3   0 59326.6 393.221   5 0.98874-0.91134 0.20667-0.48405-0.37124 0.48019
  -1   3   0 59124.5 371.276   1-0.77235 0.69495-0.12801 0.40539 0.75556-0.86451
  -1   3  -1 9734.32 202.181   2 0.34419-0.40049 0.46119-0.14274 0.44496-0.64196
  -1   3  -1 9069.42 177.567   1-0.70253 0.64622 0.14624 0.17221 0.65879-0.85579
  -1   3  -1 9868.39 202.044   0-0.72166 0.66535 0.13696 0.18149 0.65121-0.84821
   1  -3   1 9402.50 195.685   5 0.99265-0.93635 0.06174-0.38020-0.32441 0.52141
  -1   3  -2 3497.12 130.265   2 0.35925-0.39446 0.59234-0.23281 0.30692-0.59197
  -1   3  -2 3973.27 170.520   0-0.78495 0.74974 0.27679 0.08274 0.47067-0.75572
  -1   3  -2 3670.29 140.772   1-0.59292 0.55771 0.38178-0.02225 0.52804-0.81309
   1  -3   2 3705.07 155.401   5 0.97493-0.93972-0.08491-0.27461-0.27037 0.55542
  -1   3  -3 20527.3 316.753   2 0.36479-0.37890 0.68482-0.28423 0.19329-0.56639
   1  -3   3 21113.0 295.941   5 0.93647-0.92235-0.22816-0.17243-0.21111 0.58420
  -1   3  -3 20564.7 276.534   1-0.47045 0.45634 0.56289-0.16230 0.39085-0.76395
  -1   3  -3 21361.9 322.853   0-0.80770 0.79359 0.37391 0.02669 0.31868-0.69178
  -1   3  -4 10938.1 238.898   1-0.35079 0.35778 0.69561-0.25394 0.26162-0.72276
   1  -3   4 11552.8 265.873   5 0.87898-0.88596-0.36459-0.07707-0.14827 0.60941
  -1   3  -4 11400.7 276.143   2 0.36513-0.35815 0.75362-0.31196 0.09669-0.55783
  -1   3  -5 53351.3 601.158   2 0.36229-0.33421 0.80699-0.32426 0.01181-0.56100
  -1   3  -6 54.1777 111.651   2 0.35725-0.30807 0.84961-0.32580-0.06486-0.57238
  -1   3  -7 156.941 159.863   2 0.35048-0.28021 0.88421-0.31934-0.13564-0.58965
  -1   3  -8 37.9287 151.706   2 0.34225-0.25088 0.91247-0.30652-0.20211-0.61122
   1  -2  -9 22.8486 65.7724   3 0.99992-0.72365 0.09346 0.09452-0.25040-0.47774
   1  -2  -9 36.2126 112.960   2 0.26054 0.01573 0.98216-0.79419-0.56254-0.16560
   1  -2  -8 19551.3 391.358   3 0.99842-0.74325 0.11191 0.03499-0.20143-0.43867
   1  -2  -8 19930.9 405.884   2 0.26573-0.01056 0.98273-0.83582-0.54673-0.09337
   1  -2  -7 5456.52 246.086   2 0.26811-0.03403 0.98285-0.87701-0.53931-0.01273
   1  -2  -7 5284.15 222.252   3 0.99224-0.75817 0.12979-0.02396-0.15165-0.40039
   1  -2  -6 754.224 135.509   3 0.98131-0.76833 0.14721-0.08244-0.10073-0.36327
   1  -2  -6 889.545 120.155   2 0.26634-0.05336 0.98277-0.91800-0.54485 0.08085
   1  -2  -5 8777.53 154.512   5 0.54690-0.35502 0.88339-0.85969-0.46007 0.08413
   1  -2  -5 8899.56 203.099   3 0.96528-0.77339 0.16430-0.14060-0.04812-0.32783
   1  -2  -5 9015.99 198.579   2 0.25754-0.06565 0.98166-0.95796-0.57143 0.19549
   1  -2  -4 47203.4 331.310   2 0.23458-0.06380 0.97394-0.99131-0.63392 0.34602
   1  -2  -4 45925.9 381.458   3 0.94338-0.77259 0.18128-0.19865 0.00712-0.29502
   1  -2  -4 44542.2 291.041   5 0.59096-0.42018 0.85763-0.87500-0.46504 0.17714
   1  -2  -3 3188.33 104.473   2 0.17775-0.02806 0.93169-0.99013-0.75577 0.55592
   1  -2  -3 3053.20 105.103   5 0.66629-0.51660 0.80462-0.86307-0.47057 0.27072
  -1   2   3 3046.63 148.750   0 0.35772-0.50741-0.65248 0.71092 0.76504-0.56519
   1  -2  -3 3011.19 115.368   3 0.91398-0.76429 0.19850-0.25694 0.06668-0.26653
  -1   2   2 689.810 74.1545   0 0.16956-0.29815-0.59685 0.69636 0.89761-0.78580
   1  -2  -2 672.477 99.5019   3 0.87333-0.74474 0.21660-0.31612 0.13415-0.24595
   1  -2  -2 637.785 61.9876   5 0.76466-0.63607 0.71347-0.81299-0.47052 0.35871
   1  -2  -1 116193. 426.236   5 0.86652-0.75902 0.57744-0.71802-0.45666 0.43290
  -1   2   1 115832. 416.777   0-0.14950 0.04200-0.43408 0.57466 0.99515-0.97139
   1  -2  -1 120598. 393.392   3 0.81132-0.70382 0.23700-0.37758 0.21819-0.24195
  -1   2   0 102594. 366.993   2 0.31416-0.40056 0.28569-0.10404 0.59811-0.66241
  -1   2   0 100158. 400.188   0-0.49506 0.40865-0.15557 0.33722 0.91079-0.97509
   1  -2   0 96406.1 409.372   5 0.94706-0.86066 0.40204-0.58369-0.42322 0.48751
  -1   2   0 95291.8 364.698   1-0.78493 0.69853-0.31363 0.49528 0.78778-0.85208
   1  -2   1 89503.3 410.563   5 0.98894-0.92364 0.20463-0.42735-0.37063 0.52297
  -1   2  -1 88537.4 370.503   1-0.72331 0.65800 0.08497 0.13776 0.68538-0.83772
  -1   2  -1 87053.7 409.525   0-0.70015 0.63485 0.10057 0.12215 0.69188-0.84422
  -1   2  -1 92420.8 419.936   2 0.35295-0.41826 0.52954-0.30682 0.37594-0.52829
  -1   2  -2 3772.88 150.581   0-0.78258 0.73837 0.26982-0.00603 0.48065-0.72105
  -1   2  -2 3597.73 149.097   2 0.36381-0.40802 0.66008-0.39629 0.22529-0.46568
  -1   2  -2 3546.57 111.068   1-0.57704 0.53283 0.40878-0.14499 0.50987-0.75026
   1  -2   2 3554.57 135.518   5 0.98832-0.94411 0.00467-0.26847-0.30417 0.54456
  -1   2  -3 15868.8 205.831   1-0.42168 0.39857 0.62125-0.31639 0.33772-0.66616
  -1   2  -3 16211.4 254.307   2 0.36535-0.38847 0.74188-0.43702 0.11407-0.44251
   1  -2   3 16073.0 223.105   5 0.95055-0.92743-0.18424-0.12062-0.22998 0.55842
   1  -2   4 17104.4 241.610   5 0.88345-0.88144-0.35558 0.00965-0.15263 0.56911
  -1   2  -4 16765.0 252.663   1-0.28532 0.28330 0.75482-0.40889 0.19236-0.60885
  -1   2  -4 17019.7 309.040   2 0.36290-0.36492 0.79945-0.45352 0.02446-0.44095
  -1   2  -5 4148.06 167.573   1-0.16915 0.18823 0.84064-0.45364 0.07156-0.57610
  -1   2  -5 4534.85 226.691   2 0.35822-0.33914 0.84307-0.45607-0.05245-0.45209
  -1   2  -6 430.908 130.610   2 0.35201-0.31183 0.87762-0.44954-0.12139-0.47120
  -1   2  -7 8568.76 341.123   2 0.34454-0.28327 0.90560-0.43646-0.18503-0.49560
  -1   2  -8 921.061 163.131   2 0.33594-0.25357 0.92844-0.41823-0.24500-0.52368
  -1   2  -9 676.018 281.034   2 0.32621-0.22275 0.94691-0.39563-0.30234-0.55439
   1  -1  -9 296.225 141.855   2 0.28891-0.00364 0.97975-0.69604-0.46835-0.30445
   1  -1  -8 2884.72 189.291   3 0.99914-0.73497 0.10799 0.13465-0.21205-0.47270
   1  -1  -8 3001.49 227.903   2 0.29787-0.03369 0.97569-0.73305-0.43392-0.25083
   1  -1  -7 401.567 110.606   1 0.30922-0.06615 0.96963-0.76806-0.40151-0.19519
   1  -1  -7 394.703 139.422   3 0.99281-0.74974 0.12859 0.07298-0.15508-0.44162
   1  -1  -7 451.385 147.193   2 0.30550-0.06243 0.97063-0.76906-0.40230-0.19440
   1  -1  -6 8231.88 227.340   2 0.31165-0.08967 0.96529-0.80479-0.37505-0.13360
   1  -1  -6 8268.46 212.110   3 0.97982-0.75784 0.14908 0.01142-0.09510-0.41355
   1  -1  -6 7617.94 215.167   1 0.28759-0.06561 0.97189-0.81139-0.38100-0.12765
   1  -1  -5 85124.3 542.569   3 0.95891-0.75802 0.16978-0.05034-0.03065-0.38995
   1  -1  -5 84351.8 514.170   2 0.31589-0.11501 0.96085-0.84142-0.35516-0.06544
   1  -1  -4 4902.77 154.601   2 0.31716-0.13737 0.95939-0.88103-0.34904 0.01648
   1  -1  -4 4550.13 150.153   3 0.92753-0.74774 0.19114-0.11277 0.04073-0.37328
   1  -1  -4 4490.54 145.611   1 0.27197-0.09218 0.97297-0.89461-0.36613 0.03357
   1  -1  -3 6860.64 145.336   3 0.88024-0.72155 0.21386-0.17657 0.12355-0.36805
   1  -1  -3 6680.13 144.796   1 0.29081-0.13212 0.97161-0.93432-0.38405 0.13955
   1  -1  -2 34785.8 218.462   5 0.36010-0.22251 0.95883-0.96261-0.42781 0.27136
   1  -1  -2 34692.7 261.069   3 0.80419-0.66660 0.23896-0.24274 0.22684-0.38330
  -1   1   1 69874.1 298.852   0 0.13204-0.24854-0.58197 0.62682 0.91699-0.84858
   1  -1  -1 65516.4 279.687   5 0.53615-0.41965 0.88916-0.93401-0.45869 0.39028
   1  -1   0 16546.2 155.805   5 0.75285-0.65744 0.72606-0.81198-0.47106 0.49070
  -1   1  -1 10925.8 140.494   2 0.36527-0.43958 0.70489-0.57790 0.16635-0.27404
   1  -1   1 10762.9 131.780   5 0.92681-0.85251 0.45696-0.58394-0.43521 0.54290
  -1   1  -1 11008.3 150.727   0-0.68240 0.60809 0.07275 0.05424 0.72134-0.82903
  -1   1  -2 51362.1 334.305   0-0.78706 0.73385 0.28326-0.11520 0.46130-0.65704
  -1   1  -2 50898.9 323.682   2 0.36395-0.41717 0.78332-0.61526 0.05075-0.24648
  -1   1  -3 25212.8 281.991   2 0.35998-0.39210 0.82964-0.62051-0.02773-0.25605
  -1   1  -3 25462.2 193.290   3 0.87940-0.91151-0.04395 0.25307-0.54965 0.26587
   1  -1   3 25498.3 210.833   5 0.96144-0.92932-0.14484-0.06428-0.24637 0.53016
  -1   1  -3 23652.9 203.741   1-0.29346 0.26134 0.74791-0.53878 0.20092-0.48471
  -1   1  -3 26862.8 298.912   0-0.80996 0.77784 0.39731-0.18819 0.27800-0.56179
  -1   1  -4 3488.97 174.057   2 0.35489-0.36591 0.86345-0.61325-0.09205-0.27978
  -1   1  -4 3485.45 103.561   3 0.92059-0.93161-0.01675 0.26694-0.49900 0.12717
  -1   1  -4 3162.27 111.801   1-0.15311 0.14209 0.85071-0.60052 0.05508-0.42691
   1  -1   4 3266.55 108.003   5 0.87042-0.85941-0.38128 0.13108-0.14012 0.51195
  -1   1  -5 12453.7 205.038   1-0.04804 0.05812 0.90677-0.61550-0.05184-0.40804
  -1   1  -5 36068.7 435.316   2 0.34892-0.33884 0.89046-0.59919-0.14952-0.31036
  -1   1  -6 7104.12 248.862   2 0.34210-0.31093 0.91288-0.58055-0.20317-0.34475
  -1   1  -7 14.1381 82.6585   2 0.33443-0.28216 0.93173-0.55832-0.25449-0.38149
  -1   1  -8 1362.91 274.879   2 0.32586-0.25249 0.94747-0.53299-0.30427-0.41976
  -1   1  -9 107.892 117.837   2 0.31634-0.22188 0.96034-0.50479-0.35299-0.45909
   1   0  -9 2794.48 282.445   2 0.30891-0.01464 0.96782-0.58838-0.38741-0.43004
   1   0  -8 4949.87 297.971   2 0.31948-0.04630 0.95655-0.61818-0.33759-0.39181
   1   0  -8 4314.64 220.625   1 0.25250 0.02068 0.97370-0.63533-0.34752-0.38188
   1   0  -7 1712.65 208.620   2 0.32909-0.07701 0.94208-0.64477-0.28628-0.35508
   1   0  -7 1741.37 158.134   1 0.20982 0.04226 0.97298-0.67567-0.30648-0.33487
   1   0  -6 2628.33 174.894   1 0.16828 0.06270 0.96933-0.71309-0.26622-0.28709
   1   0  -6 2442.30 167.977   2 0.33783-0.10684 0.92405-0.66781-0.23271-0.32059
   1   0  -6 2796.67 160.747   3 0.98248-0.75150 0.14567 0.11056-0.10531-0.44799
   1   0  -5 3820.03 146.223   3 0.95872-0.74883 0.16993 0.04524-0.03015-0.43510
   1   0  -5 3779.85 194.324   2 0.34577-0.13588 0.90166-0.68650-0.17552-0.28974
   1   0  -5 3694.02 159.992   1 0.12822 0.08167 0.96317-0.74800-0.22711-0.23815
  -1   0   4 11104.1 146.949   4 0.59146-0.78025-0.71746 0.54336 0.39192-0.01471
   1   0  -4 10003.6 209.856   1 0.09029 0.09850 0.95502-0.78092-0.18982-0.18739
   1   0  -4 10861.1 206.370   3 0.91967-0.73088 0.19551-0.02141 0.05604-0.43325
   1   0  -4 11033.2 227.900   2 0.35297-0.16418 0.87314-0.69905-0.11195-0.26526
   1   0  -3 86778.3 428.574   2 0.35945-0.19175 0.83400-0.70097-0.03565-0.25352
   1   0  -3 87910.4 430.993   3 0.85538-0.68768 0.22323-0.09021 0.16037-0.44953
   1   0  -2 17532.6 203.156   1 0.02758 0.11902 0.93672-0.84477-0.12766-0.07346
   1   0  -2 18124.6 188.986   3 0.74190-0.59530 0.25354-0.16159 0.29585-0.49696
   1   0  -1 7163.56 125.447   1 0.01410 0.11140 0.93202-0.88113-0.11422 0.00115
  -1   0  -2 4368.91 118.346   2 0.32864-0.39085 0.94286-0.87054-0.28883 0.13774
  -1   0  -2 4232.64 109.191   0-0.80122 0.73901 0.33598-0.26366 0.38105-0.53213
  -1   0  -3 5919.83 132.879   3 0.92462-0.96573-0.01374 0.12713-0.49315 0.25402
  -1   0  -3 5665.61 138.685   2 0.33361-0.37473 0.93344-0.82005-0.25955 0.02042
  -1   0  -4 67950.0 458.092   2 0.33269-0.35271 0.93532-0.78086-0.26517-0.06200
   1   0   4 66800.5 244.994   5 0.78082-0.76080-0.52531 0.37084-0.06491 0.39209
  -1   0  -4 66954.3 376.924   3 0.95112-0.97114 0.00838 0.14609-0.44850 0.12133
  -1   0  -5 19436.8 313.228   2 0.32921-0.32814 0.94186-0.74632-0.28556-0.12967
  -1   0  -5 16961.6 209.870   1 0.14277-0.14169 0.96570-0.77017-0.24134-0.17388
  -1   0  -5 19529.1 244.050   3 0.95794-0.95687 0.01497 0.18057-0.43466 0.01944
  -1   0  -6 20445.2 340.088   2 0.32414-0.30197 0.95011-0.71351-0.31350-0.18977
  -1   0  -6 22098.9 292.533   3 0.95616-0.93398 0.01320 0.22341-0.43841-0.06487
  -1   0  -7 3215.66 205.829   2 0.31781-0.27455 0.95861-0.68094-0.34583-0.24549
  -1   0  -8 1671.65 200.221   2 0.31036-0.24599 0.96651-0.64777-0.38091-0.29846
  -1   0  -9 4217.01 305.002   2 0.30182-0.21636 0.97328-0.61346-0.41784-0.34958
  -1   0 -10 395.454 194.824   2 0.29219-0.18563 0.97848-0.57760-0.45606-0.39941
   1   1  -9 730.230 258.551   2 0.32250-0.01922 0.95250-0.47732-0.32217-0.53994
   1   1  -8 745.745 160.763   1 0.18108 0.10109 0.97075-0.53664-0.27866-0.49540
   1   1  -8 621.142 155.813   2 0.33336-0.05118 0.93396-0.49985-0.26109-0.51296
   1   1  -7 19711.6 447.985   2 0.34306-0.08198 0.91011-0.51707-0.19616-0.48985
   1   1  -7 18998.4 384.656   1 0.12585 0.13523 0.96273-0.56969-0.22478-0.46123
   1   1  -6 436.430 116.651   1 0.06908 0.17091 0.94950-0.59753-0.16887-0.42909
   1   1  -6 605.435 155.745   2 0.35156-0.11157 0.87963-0.52766-0.12570-0.47226
   1   1  -5 38016.4 431.276   1 0.00990 0.20899 0.93049-0.61959-0.11002-0.39989
   1   1  -5 41378.2 461.332   2 0.35864-0.13975 0.84014-0.52924-0.04697-0.46295
  -1  -1   4 242.087 74.8911   4 0.72533-0.92312-0.56398 0.29415 0.33864 0.08322
   1   1  -4 201.762 79.7693   1-0.05305 0.25084 0.90448-0.63465-0.04679-0.37508
   1   1  -4 211.752 61.7034   3 0.92315-0.72535 0.19361 0.07622 0.04936-0.47123
   1   1  -4 205.514 79.8128   2 0.36374-0.16595 0.78700-0.51717 0.04483-0.46670
   1   1  -3 3565.46 154.022   2 0.36536-0.18866 0.71051-0.48175 0.15863-0.49245
   1   1  -3 3333.25 149.619   1-0.12216 0.29886 0.86900-0.64024 0.02339-0.35721
   1   1  -3 3459.20 110.509   3 0.84613-0.66944 0.22639 0.00237 0.17320-0.50702
  -1  -1   3 3365.28 105.692   4 0.73455-0.91125-0.55104 0.32228 0.33391-0.00009
   1   1  -2 2829.73 113.750   2 0.35885-0.20325 0.58770-0.40001 0.31223-0.55799
   1   1  -2 2633.93 124.866   1-0.20191 0.35751 0.81876-0.63107 0.10538-0.35115
  -1  -1   2 2923.45 95.1355   4 0.72271-0.87831-0.56758 0.37989 0.33995-0.09419
   1   1  -1 32924.7 241.860   1-0.30163 0.43614 0.74084-0.59422 0.20953-0.36725
  -1  -1   1 32491.1 226.735   4 0.67719-0.81169-0.62587 0.47925 0.36081-0.20309
  -1  -1  -2 179499. 483.739   3 0.86461-0.93583-0.05253 0.02912-0.56474 0.45832
  -1  -1  -2 164309. 468.701   2 0.19879-0.27000 0.95062-0.97403-0.71534 0.60892
  -1  -1  -3 24703.3 235.660   2 0.26044-0.31056 0.98215-0.96449-0.56284 0.36836
  -1  -1  -3 23551.2 228.514   3 0.93740-0.98751-0.00365 0.02131-0.47313 0.27865
  -1  -1  -4 31302.6 280.694   3 0.96123-0.99025 0.01833 0.04040-0.42751 0.14499
  -1  -1  -4 33286.9 324.689   2 0.28338-0.31240 0.98137-0.92264-0.48834 0.20582
  -1  -1  -5 41401.9 355.247   3 0.96835-0.97628 0.02611 0.07368-0.41070 0.04013
  -1  -1  -5 41328.5 380.091   2 0.29184-0.29976 0.97863-0.87883-0.45739 0.08682
  -1  -1  -6 6036.25 235.477   2 0.29365-0.28048 0.97784-0.83697-0.45047-0.00815
  -1  -1  -6 6119.25 181.759   3 0.96813-0.95496 0.02586 0.11501-0.41126-0.04736
  -1  -1  -7 465.202 106.841   3 0.96336-0.92909 0.02058 0.16136-0.42269-0.12398
  -1  -1  -7 411.895 127.822   2 0.29175-0.25748 0.97867-0.79673-0.45773-0.08894
  -1  -1  -8 5749.33 293.326   2 0.28739-0.23203 0.98026-0.75725-0.47392-0.16079
  -1  -1  -8 5892.61 228.294   3 0.95478-0.89942 0.01186 0.21115-0.44123-0.19349
  -1  -1  -9 4373.33 280.019   2 0.28118-0.20472 0.98184-0.71776-0.49605-0.22671
  -1  -1 -10 1560.40 249.219   2 0.27340-0.17584 0.98279-0.67765-0.52231-0.28851
  -1  -1 -11-11.5274 100.372   2 0.26418-0.14553 0.98260-0.63638-0.55153-0.34734
   1   2  -9 791.308 264.260   2 0.33143-0.01916 0.93777-0.36686-0.27267-0.63409
   1   2  -8 225.339 155.622   2 0.34199-0.05081 0.91321-0.38337-0.20402-0.61469
   1   2  -7 531.819 136.378   1 0.05993 0.21015 0.94691-0.45813-0.15981-0.57085
   1   2  -7 680.350 234.002   2 0.35102-0.08094 0.88194-0.39317-0.13068-0.59998
   1   2  -6 1569.52 163.031   1-0.00670 0.25569 0.92421-0.47651-0.09340-0.54921
   1   2  -6 1772.91 224.528   2 0.35834-0.10935 0.84228-0.39457-0.05096-0.59166
   1   2  -5 40605.5 478.728   2 0.36346-0.13558 0.79142-0.38479 0.03767-0.59224
   1   2  -5 38712.1 448.803   1-0.07697 0.30485 0.89303-0.48640-0.02259-0.53198
   1   2  -4 4262.54 193.331   2 0.36546-0.15866 0.72458-0.35902 0.13897-0.60549
  -1  -2   4 4496.31 173.808   4 0.76593-0.97272-0.50389 0.13832 0.31640 0.15012
   1   2  -4 4006.68 179.476   1-0.15236 0.35915 0.85118-0.48561 0.05430-0.52082
  -1  -2   3 47568.9 378.460   4 0.78201-0.96771-0.47758 0.15308 0.30646 0.07201
   1   2  -3 46401.1 303.820   3 0.85795-0.67225 0.22232 0.10217 0.15672-0.53519
   1   2  -3 44059.9 416.869   2 0.36231-0.17661 0.63322-0.30872 0.25865-0.63712
   1   2  -3 42863.9 403.630   1-0.23500 0.42070 0.79484-0.47035 0.13973-0.51820
  -1  -2   2 5018.21 155.892   4 0.78654-0.95114-0.46987 0.18645 0.30353-0.01311
   1   2  -2 4799.88 154.733   1-0.32794 0.49254 0.71724-0.43381 0.23734-0.52776
  -1  -2   2 4981.20 153.717   5 0.66139-0.82599-0.66441 0.38099 0.01780 0.27262
   1   2  -2 5278.50 157.652   2 0.34961-0.18501 0.50174-0.21832 0.40473-0.69515
  -1  -2   1 23168.4 239.258   5 0.71631-0.85982-0.60590 0.36355-0.01843 0.22080
  -1  -2   1 24359.4 260.587   4 0.77612-0.91963-0.48740 0.24505 0.31019-0.10781
   1   2  -1 22982.1 252.662   1-0.43498 0.57849 0.60596-0.36361 0.35214-0.55452
   1   2  -1 23733.6 255.258   2 0.31748-0.17397 0.30261-0.06025 0.58470-0.78708
   1   2   0 17185.6 204.126   2 0.24630-0.12389-0.00028 0.20157 0.78709-0.90142
  -1  -2   0 17278.1 213.786   4 0.74284-0.86524-0.53908 0.33779 0.32951-0.21518
   1   2   0 16618.4 196.663   1-0.55859 0.68100 0.43861-0.23733 0.48893-0.60325
  -1  -2   0 17611.0 211.392   5 0.76246-0.88487-0.54977 0.34849-0.05118 0.16550
  -1  -2  -1 8408.53 139.225   4 0.67004-0.77135-0.63434 0.47413 0.36378-0.33750
  -1  -2  -1 8380.36 136.395   5 0.79816-0.89947-0.50089 0.34068-0.07832 0.10460
  -1  -2  -1 8206.08 126.266   3 0.65651-0.75782-0.14106-0.01916-0.69285 0.71913
   1   2   1 7895.38 142.153   1-0.68891 0.79022 0.18220-0.02198 0.64182-0.66810
  -1  -2  -2 208193. 566.078   3 0.85990-0.94012-0.05516-0.06398-0.56928 0.50751
  -1  -2  -2 204724. 487.868   5 0.81947-0.89969-0.46890 0.34976-0.09545 0.03368
   1   2   2 197018. 499.467   1-0.77774 0.85795-0.16990 0.28904 0.76528-0.70350
  -1  -2  -2 202223. 517.865   4 0.52704-0.60726-0.77421 0.65506 0.40987-0.47165
  -1  -2  -3 108997. 360.688   4 0.27348-0.33259-0.92654 0.84847 0.44863-0.59845
  -1  -2  -3 110242. 474.945   3 0.93372-0.99284-0.00665-0.07143-0.47913 0.32931
  -1  -2  -4 809.117 55.6368   4-0.09831 0.06029-0.99942 0.96241 0.43784-0.67571
  -1  -2  -4 751.096 93.7148   3 0.96057-0.99859 0.01764-0.05465-0.42897 0.19110
  -1  -2  -4 809.967 94.7828   2 0.20058-0.23860 0.95206-0.98907-0.71167 0.47380
  -1  -2  -5 469.291 93.5398   2 0.23141-0.24834 0.97238-0.96832-0.64186 0.31595
  -1  -2  -5 469.912 96.4873   3 0.97006-0.98698 0.02810-0.02404-0.40636 0.08044
  -1  -2  -6 130.506 73.7187   3 0.97192-0.96775 0.03033 0.01481-0.40146-0.01250
  -1  -2  -6 203.589 104.152   2 0.24676-0.24259 0.97884-0.93371-0.60192 0.18795
  -1  -2  -7 5209.69 223.994   2 0.25350-0.22824 0.98078-0.89458-0.58310 0.08109
  -1  -2  -7 5070.85 203.070   3 0.96936-0.94409 0.02728 0.05893-0.40816-0.09385
  -1  -2  -8 32706.7 480.717   2 0.25501-0.20865 0.98113-0.85386-0.57879-0.01128
  -1  -2  -8 32926.3 445.005   3 0.96336-0.91700 0.02058 0.10669-0.42268-0.16738
  -1  -2  -9 1813.63 190.569   3 0.95407-0.88661 0.01117 0.15718-0.44267-0.23544
  -1  -2  -9 1975.41 241.679   2 0.25300-0.18554 0.98066-0.81231-0.58455-0.09356
  -1  -2 -10 273.234 191.830   2 0.24838-0.15982 0.97936-0.76995-0.59748-0.16868
  -1  -2 -11 747.978 277.429   2 0.24166-0.13201 0.97700-0.72651-0.61562-0.23858
   1   3  -8 550.486 197.027   2 0.34716-0.04698 0.89691-0.27133-0.16431-0.69906
   1   3  -7 276.562 188.242   2 0.35542-0.07633 0.86056-0.27605-0.08627-0.68905
   1   3  -7 235.375 113.607   1 0.01154 0.26754 0.93109-0.34658-0.11165-0.66367
   1   3  -6 280.317 115.413   1-0.06069 0.31868 0.90092-0.35748-0.03906-0.64821
   1   3  -6 240.099 140.453   2 0.36155-0.10356 0.81519-0.27175-0.00222-0.68505
   1   3  -5 15577.6 370.319   1-0.13621 0.37310 0.86089-0.35852 0.03776-0.63698
   1   3  -5 16774.9 405.548   2 0.36501-0.12812 0.75828-0.25591 0.08967-0.68890
  -1  -3   4 18312.4 322.625   4 0.77696-0.99276-0.48601 0.02471 0.30966 0.20151
   1   3  -4 17304.4 344.314   2 0.36482-0.14903 0.68592-0.22463 0.19184-0.70301
   1   3  -4 16348.3 351.279   1-0.21594 0.43174 0.80885-0.34755 0.11992-0.63109
   1   3  -3 18277.5 315.226   2 0.35923-0.16453 0.59207-0.17184 0.30723-0.73036
  -1  -3   3 17625.8 293.949   5 0.66153-0.85623-0.66427 0.24404 0.01771 0.40541
   1   3  -3 17045.8 288.734   1-0.30091 0.49561 0.74147-0.32125 0.20877-0.63190
  -1  -3   3 19698.9 322.594   4 0.79499-0.98969-0.45511 0.03488 0.29789 0.12524
  -1  -3   2 51626.5 445.005   5 0.72166-0.89526-0.59975 0.22059-0.02210 0.35718
   1   3  -2 50027.0 432.131   1-0.39199 0.56559 0.65379-0.27463 0.30569-0.64077
  -1  -3   2 51695.0 433.462   4 0.80454-0.97814-0.43777 0.05861 0.29122 0.04386
   1   3  -2 51460.2 439.649   2 0.34507-0.17147 0.46749-0.08833 0.43884-0.77392
   1   3  -1 31648.7 331.985   2 0.31687-0.16436 0.29947 0.03862 0.58721-0.83424
  -1  -3   1 31425.0 332.694   4 0.80452-0.95702-0.43781 0.09972 0.29123-0.04420
   1   3  -1 29995.9 330.338   1-0.48922 0.64173 0.53863-0.20054 0.41150-0.65853
  -1  -3   1 31514.0 333.210   5 0.77412-0.92663-0.53439 0.19630-0.05985 0.30688
   1   3   0 12582.4 206.109   2 0.26639-0.13498 0.07556 0.22146 0.74366-0.90264
   1   3   0 12597.3 214.038   1-0.58998 0.72139 0.38687-0.08985 0.52467-0.68365
  -1  -3   0 12865.8 212.816   5 0.81875-0.95016-0.47003 0.17301-0.09486 0.25384
  -1  -3  -1 30516.2 284.849   4 0.76098-0.87129-0.51168 0.25573 0.31932-0.24839
  -1  -3  -1 30014.2 225.186   3 0.62845-0.73876-0.15017-0.10578-0.70274 0.77367
  -1  -3  -1 28596.1 265.322   5 0.85522-0.96553-0.40937 0.15342-0.12614 0.19707
   1   3   1 28502.8 269.698   1-0.68547 0.79578 0.19088 0.06507 0.63757-0.70850
   1   3   2 34207.7 292.829   1-0.75744 0.84666-0.04470 0.25958 0.73221-0.71510
  -1  -3  -2 34150.5 273.434   5 0.88295-0.97217-0.35659 0.14171-0.15214 0.13502
  -1  -3  -2 34514.7 278.538   4 0.69940-0.78862-0.59842 0.38354 0.35108-0.36819
  -1  -3  -2 35446.0 275.112   3 0.83397-0.92318-0.06890-0.14598-0.59231 0.57519
  -1  -3  -3 35339.4 253.834   5 0.90080-0.96892-0.31856 0.14475-0.17021 0.06505
   1   3   3 34383.1 290.499   1-0.78499 0.85311-0.28913 0.46294 0.78518-0.68001
  -1  -3  -3 35571.3 263.772   4 0.58595-0.65407-0.72267 0.54886 0.39362-0.49878
  -1  -3  -3 36113.8 310.226   3 0.91782-0.98594-0.01876-0.15504-0.50291 0.39774
  -1  -3  -4 24530.7 209.522   4 0.38813-0.43515-0.86986 0.73712 0.43658-0.62980
  -1  -3  -4 25580.0 305.866   3 0.95179-0.99881 0.00900-0.14174-0.44719 0.25398
  -1  -3  -4 24544.6 197.364   5 0.90562-0.95264-0.30760 0.17486-0.17532-0.01789
  -1  -3  -5 47317.2 408.251   3 0.96555-0.99148 0.02296-0.11463-0.41756 0.13630
  -1  -3  -5 46704.9 261.237   4 0.07397-0.09990-0.98547 0.89380 0.45175-0.73301
  -1  -3  -6 26.1358 48.1301   3 0.97020-0.97503 0.02827-0.07887-0.40599 0.03668
  -1  -3  -6 66.2126 78.5892   2 0.18372-0.18855 0.93741-0.98801-0.74481 0.37550
  -1  -3  -7 1227.66 155.081   3 0.96988-0.95362 0.02789-0.03742-0.40681-0.05055
  -1  -3  -7 1291.76 150.582   2 0.20231-0.18605 0.95344-0.96297-0.70807 0.25071
  -1  -3  -8 5636.19 235.413   3 0.96608-0.92871 0.02354 0.00800-0.41629-0.12911
  -1  -3  -8 5739.12 282.375   2 0.21226-0.17490 0.96081-0.92927-0.68672 0.14131
  -1  -3  -9 26.5063 104.879   3 0.95920-0.90074 0.01623 0.05637-0.43198-0.20148
  -1  -3  -9 37.9889 71.9350   2 0.21639-0.15793 0.96361-0.89100-0.67747 0.04401
  -1  -3 -10 1773.36 195.108   3 0.94919-0.86964 0.00660 0.10708-0.45220-0.26931
  -1  -3 -10 1587.53 220.165   2 0.21639-0.13684 0.96361-0.84993-0.67747-0.04403
  -1  -3 -11 775.285 219.778   2 0.21325-0.11260 0.96150-0.80675-0.68451-0.12504
  -1  -3 -11 941.627 199.539   3 0.93577-0.83512-0.00498 0.15973-0.47580-0.33375
   1   4  -7 3317.46 338.457   2 0.35771-0.06962 0.84660-0.16636-0.05911-0.76087
   1   4  -6 690.955 222.041   2 0.36299-0.09600 0.79829-0.15912 0.02639-0.75831
   1   4  -6 619.224 180.297   1-0.09635 0.36334 0.88311-0.24394-0.00291-0.72902
   1   4  -5 20.4854 66.2283   2 0.36539-0.11950 0.73902-0.14092 0.11825-0.76213
   1   4  -5 8.91978 63.9721   1-0.17370 0.41960 0.83770-0.23960 0.07625-0.72013
   1   4  -4 25.3514 75.6813   2 0.36407-0.13928 0.66590-0.10886 0.21788-0.77371
  -1  -4   4 37.0592 88.8373   4 0.77464-0.99944-0.48984-0.06720 0.31111 0.24472
  -1  -4   3 8720.88 270.247   5 0.68957-0.89327-0.63540 0.11944-0.00045 0.46823
   1   4  -3 8604.34 266.572   1-0.33673 0.54043 0.70904-0.19308 0.24667-0.71445
  -1  -4   3 8983.90 265.295   4 0.79370-0.99740-0.45740-0.05857 0.29876 0.16902
   1   4  -3 8567.28 269.574   2 0.35769-0.15399 0.57491-0.05894 0.32667-0.79445
   1   4  -2 1217.84 151.145   2 0.34411-0.16151 0.46068 0.01421 0.44545-0.82518
  -1  -4   2 1114.84 129.707   4 0.80563-0.98824-0.43574-0.03915 0.29043 0.08930
   1   4  -2 899.676 105.805   1-0.42238 0.60498 0.62046-0.14556 0.33847-0.71821
  -1  -4   2 1040.05 120.975   5 0.74576-0.92836-0.57093 0.09603-0.03904 0.41878
  -1  -4   1 3314.84 151.598   5 0.79436-0.95586-0.50636 0.07254-0.07534 0.36702
  -1  -4   1 3320.38 174.594   4 0.81012-0.97162-0.42731-0.00651 0.28717 0.00451
   1   4  -1 3271.75 151.616   2 0.32022-0.15871 0.31694 0.11688 0.57312-0.86481
   1   4  -1 3188.15 155.746   1-0.50951 0.67102 0.51116-0.07734 0.43395-0.72564
   1   4   0 65050.4 479.194   2 0.28197-0.14156 0.13864 0.25411 0.70393-0.90756
  -1  -4   0 65114.2 492.984   4 0.80590-0.94631-0.43524 0.04249 0.29024-0.08661
  -1  -4   0 64128.4 485.139   5 0.83546-0.97587-0.44330 0.05054-0.10884 0.31248
   1   4   1 28.5283 37.6954   0-0.78928 0.90859 0.29032 0.06136 0.45095-0.56654
  -1  -4  -1 35.6394 38.7901   5 0.86908-0.98839-0.38384 0.03216-0.13885 0.25444
  -1  -4  -1 27.5103 63.9875   4 0.79022-0.90953-0.46350 0.11182 0.30110-0.18551
  -1  -4  -1 49.1202 53.4263   3 0.56831-0.68763-0.16820-0.18348-0.72004 0.83563
   1   4   1 25.7985 59.5760   1-0.67377 0.79309 0.21921 0.13247 0.62327-0.73886
   1   4   2 4984.18 176.014   1-0.73668 0.83490 0.03989 0.27073 0.70311-0.73065
  -1  -4  -2 4902.04 160.183   4 0.75776-0.85598-0.51666 0.20605 0.32118-0.29365
  -1  -4  -2 5226.68 160.072   5 0.89524-0.99345-0.33082 0.02020-0.16444 0.19198
  -1  -4  -2 5320.10 138.977   3 0.78951-0.88773-0.09001-0.22060-0.62543 0.65296
   1   4   3 17479.5 266.696   1-0.77495 0.85208-0.14687 0.41641 0.76011-0.69959
  -1  -4  -3 17748.5 230.795   5 0.91381-0.99093-0.28819 0.01865-0.18427 0.12375
  -1  -4  -3 17693.6 229.651   4 0.69892-0.77604-0.59903 0.32949 0.35130-0.41181
  -1  -4  -3 18170.7 251.653   3 0.88984-0.96696-0.03756-0.23198-0.53814 0.47763
   1   4   4 9813.24 203.499   1-0.78481 0.84083-0.32099 0.54947 0.78846-0.63990
  -1  -4  -4 10262.2 185.465   4 0.59734-0.65336-0.71181 0.48333 0.39007-0.53863
  -1  -4  -4 9782.26 199.043   3 0.93472-0.99074-0.00584-0.22263-0.47752 0.32896
  -1  -4  -4 9690.88 169.719   5 0.92431-0.98034-0.26168 0.03321-0.19627 0.04771
   1   4   4 9686.07 152.571   0 0.29967-0.24364-0.63893 0.86741 0.81267-0.66411
  -1  -4  -5 6620.85 136.005   5 0.92486-0.95979-0.26024 0.07284-0.19692-0.03969
  -1  -4  -5 6600.81 140.014   4 0.42762-0.46255-0.84594 0.65854 0.43046-0.66707
  -1  -4  -5 6363.04 190.215   3 0.95495-0.98988 0.01202-0.19943-0.44088 0.20427
  -1  -4  -6 11087.6 280.494   3 0.96356-0.97739 0.02079-0.16713-0.42223 0.09757
  -1  -4  -7 2443.53 158.054   3 0.96595-0.95868 0.02340-0.12866-0.41660 0.00390
  -1  -4  -8 44654.3 541.088   3 0.96434-0.93598 0.02163-0.08583-0.42042-0.08034
  -1  -4  -9 1123.70 174.271   3 0.95956-0.91011 0.01661-0.03973-0.43118-0.15762
  -1  -4  -9 1228.40 197.066   2 0.17165-0.12219 0.92556-0.94869-0.76661 0.17781
  -1  -4 -10 350.756 140.901   3 0.95182-0.88127 0.00903 0.00891-0.44713-0.22972
  -1  -4 -10 403.156 150.556   2 0.17739-0.10684 0.93134-0.91339-0.75643 0.07958
  -1  -4 -11 181.538 140.556   3 0.94099-0.84934-0.00063 0.05965-0.46702-0.29787
  -1  -4 -11 32.3681 169.442   2 0.17880-0.08715 0.93271-0.87369-0.75389-0.01101
  -1  -4 -12 3528.26 337.875   3 0.92676-0.81402-0.01211 0.11220-0.48995-0.36299
  -1  -4 -12 3832.21 452.673   2 0.17677-0.06402 0.93072-0.83063-0.75755-0.09540
   1   5  -6 251.193 156.018   1-0.11716 0.39315 0.87182-0.13691 0.01828-0.79486
   1   5  -6 356.107 238.170   2 0.36354-0.08755 0.79033-0.05542 0.03945-0.81603
   1   5  -5 4275.67 256.712   1-0.19463 0.44952 0.82378-0.12994 0.09784-0.78637
   1   5  -5 4477.97 341.056   2 0.36545-0.11056 0.73102-0.03718 0.12980-0.81833
  -1  -5   4 15987.2 410.042   4 0.76451-0.99831-0.50613-0.14664 0.31724 0.28324
   1   5  -4 15659.1 382.380   1-0.27338 0.50718 0.76473-0.11196 0.17983-0.78031
   1   5  -4 15699.9 437.750   2 0.36379-0.12999 0.65963-0.00686 0.22586-0.82635
   1   5  -3 3182.53 223.612   1-0.35321 0.56591 0.69326-0.08156 0.26419-0.77662
   1   5  -3 3595.35 217.058   2 0.35756-0.14486 0.57355 0.03814 0.32819-0.84062
  -1  -5   3 3499.79 206.175   5 0.69818-0.91088-0.62612 0.01442-0.00617 0.51860
  -1  -5   3 3560.29 229.347   4 0.78452-0.99722-0.47333-0.13837 0.30485 0.20759
   1   5  -2 882.694 152.398   2 0.34537-0.15376 0.46963 0.10100 0.43676-0.86114
   1   5  -2 791.518 109.666   1-0.43345 0.62505 0.60775-0.03712 0.35048-0.77486
  -1  -5   2 939.433 193.300   5 0.75133-0.94293-0.56398-0.00664-0.04305 0.46744
  -1  -5   2 890.071 188.418   4 0.79810-0.98970-0.44955-0.12108 0.29575 0.12863
   1   5  -1 30331.5 441.671   2 0.32533-0.15482 0.34457 0.18499 0.55024-0.88658
  -1  -5   1 29944.7 407.518   5 0.79710-0.96761-0.50242-0.02714-0.07749 0.41383
  -1  -5   1 29907.4 424.680   4 0.80524-0.97575-0.43647-0.09309 0.29071 0.04562
   1   5   0 5869.58 218.151   2 0.29526-0.14585 0.19614 0.29235 0.66480-0.91309
  -1  -5   0 5839.47 234.763   4 0.80538-0.95479-0.43621-0.05228 0.29061-0.04232
   1   5   0 5366.99 206.819   1-0.58877 0.73818 0.38896 0.09953 0.52327-0.77156
  -1  -5   0 5471.14 207.687   5 0.83574-0.98515-0.44282-0.04567-0.10909 0.35738
   1   5   1 3992.13 183.110   2 0.25331-0.12499 0.02556 0.42186 0.77282-0.93306
   1   5   1 4125.95 182.271   1-0.65787 0.78619 0.25534 0.19208 0.60409-0.76433
  -1  -5  -1 4017.26 170.347   5 0.86746-0.99577-0.38691-0.06051-0.13734 0.29758
  -1  -5  -1 4196.63 176.124   4 0.79709-0.92541-0.45135 0.00393 0.29645-0.13620
  -1  -5  -2 13597.7 262.245   5 0.89246-0.99968-0.33679-0.06956-0.16162 0.23381
  -1  -5  -2 14067.6 212.701   3 0.72601-0.83323-0.11623-0.29012-0.66245 0.73465
   1   5   2 13012.0 255.174   1-0.71544 0.82266 0.10924 0.29711 0.67519-0.74739
  -1  -5  -2 13749.7 270.953   4 0.77759-0.88481-0.48497 0.07862 0.30927-0.23707
  -1  -5  -3 2801.68 136.940   3 0.84836-0.93448-0.06142-0.30385-0.57992 0.56407
  -1  -5  -3 2959.27 154.123   4 0.74198-0.82810-0.54033 0.17505 0.32997-0.34582
   1   5   3 2840.56 174.475   1-0.75689 0.84302-0.04212 0.40739 0.73140-0.71555
  -1  -5  -3 2868.95 155.451   5 0.91092-0.99704-0.29517-0.07011-0.18107 0.16521
  -1  -5  -4 5718.79 175.335   4 0.68193-0.74696-0.62016 0.29595 0.35880-0.46270
  -1  -5  -4 5274.58 191.397   3 0.90797-0.97300-0.02570-0.29851-0.51614 0.41224
   1   5   4 5369.49 207.420   1-0.77966 0.84469-0.18843 0.51264 0.76913-0.66523
  -1  -5  -4 5299.02 165.491   5 0.92282-0.98785-0.26557-0.05863-0.19452 0.09062
   1   5   5 614.952 108.919   1-0.78484 0.82877-0.31919 0.60233 0.78830-0.59635
  -1  -5  -5 602.090 86.8487   4 0.58391-0.62784-0.72458 0.44144 0.39424-0.58619
  -1  -5  -5 514.135 111.381   3 0.93728-0.98121-0.00375-0.27939-0.47332 0.28136
  -1  -5  -5 593.330 80.7808   5 0.92765-0.97158-0.25280-0.03034-0.20024 0.00829
   1   5   6 53.0484 46.1899   0 0.34913-0.32629-0.65070 0.89276 0.77251-0.49250
  -1  -5  -6 7.48060 43.1245   3 0.95146-0.97430 0.00870-0.25077-0.44783 0.16783
  -1  -5  -7 601.346 134.095   3 0.95747-0.95921 0.01449-0.21549-0.43567 0.06762
  -1  -5  -8 21315.1 403.852   3 0.95847-0.93911 0.01549-0.17542-0.43355-0.02255
  -1  -5  -9 578.679 153.545   3 0.95585-0.91540 0.01290-0.13176-0.43903-0.10511
  -1  -5 -10 5177.09 295.726   3 0.95017-0.88862 0.00750-0.08528-0.45033-0.18186
  -1  -5 -11 795.847 199.480   3 0.94151-0.85886-0.00020-0.03652-0.46613-0.25411
  -1  -5 -12 150.404 210.798   3 0.92971-0.82597-0.00983 0.01418-0.48545-0.32284
   1   6  -5 565.475 186.337   1-0.20285 0.46674 0.81811-0.02854 0.10635-0.83953
   1   6  -5 900.575 273.993   2 0.36544-0.10155 0.73187 0.05770 0.12859-0.86177
   1   6  -4 127.056 118.350   1-0.27986 0.52265 0.75938-0.01088 0.18662-0.83176
  -1  -6   4 48.5874 101.467   4 0.74884-0.99164-0.53019-0.21831 0.32622 0.31892
   1   6  -4 63.1064 119.968   2 0.36396-0.12117 0.66345 0.08505 0.22101-0.86614
   1   6  -3 119.175 113.920   2 0.35842-0.13672 0.58290 0.12453 0.31767-0.87476
  -1  -6   3 16.6801 68.3730   4 0.76992-0.99162-0.49751-0.20992 0.31400 0.24309
  -1  -6   3 78.9831 117.966   5 0.69464-0.91634-0.62996-0.07747-0.00381 0.56090
   1   6  -3 35.4817 96.9775   1-0.35661 0.57831 0.68993 0.01750 0.26781-0.82490
  -1  -6   2 331.903 170.650   4 0.78494-0.98554-0.47261-0.19375 0.30457 0.16447
  -1  -6   2 356.724 175.878   5 0.74582-0.94642-0.57085-0.09551-0.03909 0.50813
   1   6  -2 193.627 136.031   2 0.34789-0.14728 0.48831 0.17805 0.41828-0.88732
   1   6  -2 144.872 77.2956   1-0.43238 0.63299 0.60899 0.05737 0.34932-0.81836
   1   6  -1 6403.14 258.372   2 0.33118-0.15167 0.37792 0.24737 0.52161-0.90260
   1   6  -1 6034.93 265.546   1-0.50597 0.68548 0.51605 0.10924 0.43003-0.81102
  -1  -6   1 6601.53 278.587   4 0.79407-0.97358-0.45674-0.16855 0.29851 0.08248
  -1  -6   1 6837.93 308.253   5 0.78986-0.96937-0.51274-0.11255-0.07185 0.45284
   1   6   0 3857.37 205.347   1-0.57561 0.73403 0.41113 0.17309 0.50824-0.80119
  -1  -6   0 4134.22 231.991   5 0.82712-0.98553-0.45684-0.12738-0.10179 0.39474
   1   6   0 4013.80 227.679   2 0.30704-0.14863 0.25070 0.33352 0.62503-0.91797
  -1  -6  -1 15406.9 326.074   5 0.85788-0.99520-0.40458-0.13857-0.12855 0.33344
   1   6   1 15276.2 347.477   2 0.27441-0.13709 0.10751 0.43564 0.72395-0.92884
  -1  -6  -1 15452.1 309.218   4 0.79315-0.93046-0.45837-0.08478 0.29914-0.09424
   1   6   1 14802.4 312.329   1-0.63893 0.77624 0.29534 0.24781 0.58157-0.78647
  -1  -6  -2 5689.51 218.589   5 0.88246-0.99868-0.35759-0.14449-0.15165 0.26850
  -1  -6  -2 5958.50 223.038   4 0.78069-0.89691-0.47981-0.02228 0.30731-0.19046
   1   6   2 5818.71 218.974   2 0.23305-0.11682-0.04753 0.54962 0.81178-0.92863
   1   6   2 5647.49 213.847   1-0.69315 0.80937 0.17131 0.33077 0.64707-0.76392
  -1  -6  -3 1378.30 140.971   5 0.90109-0.99622-0.31789-0.14312-0.17052 0.19932
   1   6   3 1330.83 143.564   1-0.73566 0.83078 0.04355 0.41746 0.70172-0.73052
  -1  -6  -3 1485.66 124.706   3 0.79120-0.88632-0.08925-0.37176-0.62429 0.65309
  -1  -6  -3 1273.31 120.202   4 0.75687-0.85199-0.51804 0.05702 0.32169-0.29290
   1   6   4 4165.67 214.949   1-0.76478 0.83881-0.08187 0.50181 0.74329-0.68404
  -1  -6  -4 4206.17 187.311   4 0.71699-0.79101-0.57536 0.15542 0.34278-0.40203
  -1  -6  -4 4244.27 181.641   5 0.91392-0.98795-0.28792-0.13202-0.18439 0.12514
  -1  -6  -4 4231.11 200.896   3 0.86961-0.94363-0.04969-0.37025-0.55979 0.50054
  -1  -6  -5 16087.3 268.714   5 0.92081-0.97374-0.27076-0.10811-0.19219 0.04489
  -1  -6  -5 16348.1 282.934   4 0.65347-0.70640-0.65334 0.27447 0.37037-0.51767
   1   6   5 15227.5 319.198   1-0.78058 0.83351-0.19842 0.57729 0.77110-0.62380
  -1  -6  -5 15637.6 308.148   3 0.91094-0.96387-0.02365-0.35522-0.51226 0.36496
  -1  -6  -6 7948.80 278.347   3 0.93273-0.96457-0.00744-0.33036-0.48071 0.24536
   1   6   6 7216.06 237.461   1-0.78503 0.81687-0.30061 0.63842 0.78646-0.55112
  -1  -6  -7 13468.7 325.739   3 0.94369-0.95443 0.00168-0.29842-0.46230 0.13891
  -1  -6  -8 28136.8 450.069   3 0.94809-0.93773 0.00559-0.26125-0.45428 0.04284
  -1  -6  -9 652.253 178.649   3 0.94804-0.91658 0.00555-0.22014-0.45437-0.04512
  -1  -6 -10 4655.68 288.024   3 0.94452-0.89197 0.00241-0.17593-0.46082-0.12672
  -1  -6 -11 45.6549 151.234   3 0.93790-0.86425-0.00323-0.12922-0.47228-0.20330
   1   7  -4 67.8652 125.813   1-0.27641 0.52821 0.76224 0.08200 0.18301-0.87280
  -1  -7   3 20.1094 82.9713   5 0.68253-0.91324-0.64283-0.16033 0.00417 0.59758
   1   7  -3-31.6790 80.6548   2 0.35987-0.12917 0.59971 0.20345 0.29842-0.90017
  -1  -7   3 5.33988 87.1166   4 0.75095-0.98166-0.52703-0.27614 0.32504 0.27670
   1   7  -3 42.4372 133.434   1-0.35059 0.58129 0.69580 0.10737 0.26140-0.86315
   1   7  -2 92.0275 154.045   2 0.35105-0.14144 0.51340 0.24870 0.39279-0.90648
  -1  -7   2 94.0227 125.895   4 0.76741-0.97702-0.50153-0.26057 0.31551 0.19818
   1   7  -2 61.5228 105.034   1-0.42292 0.63252 0.61985 0.14225 0.33905-0.85275
   1   7  -1 589.954 186.985   2 0.33724-0.14873 0.41482 0.30621 0.48859-0.91423
  -1  -7   1 771.764 224.268   4 0.77827-0.96679-0.48384-0.23719 0.30884 0.11681
  -1  -7   1 690.254 198.063   5 0.77585-0.96436-0.53206-0.18896-0.06115 0.48680
   1   7  -1 612.998 189.883   1-0.49241 0.68092 0.53441 0.18662 0.41502-0.84066
  -1  -7   0 17847.6 400.086   4 0.78349-0.95090-0.47508-0.20487 0.30551 0.03208
  -1  -7   0 17281.5 414.795   5 0.81252-0.97993-0.47960-0.20035-0.08978 0.42738
   1   7   0 16363.8 370.375   1-0.55776 0.72518 0.43992 0.24004 0.48799-0.82559
   1   7   0 17068.6 385.725   2 0.31766-0.15024 0.30353 0.37642 0.58396-0.92156
   1   7   1 1683.94 184.780   2 0.29166-0.14534 0.18020 0.45869 0.67593-0.92548
  -1  -7  -1 1562.04 178.397   4 0.78260-0.92892-0.47659-0.16230 0.30609-0.05654
   1   7   1 1220.95 180.153   1-0.61736 0.76368 0.33754 0.30135 0.55629-0.80584
  -1  -7  -1 1297.48 161.145   5 0.84302-0.98934-0.43063-0.20826-0.11536 0.36491
  -1  -7  -2 721.243 135.775   4 0.77461-0.89983-0.48988-0.10793 0.31112-0.14962
  -1  -7  -2 641.256 132.285   5 0.86769-0.99291-0.38648-0.21134-0.13755 0.29905
   1   7   2 653.158 140.233   2 0.25906-0.13384 0.04726 0.55055 0.76041-0.92191
   1   7   2 736.042 152.867   1-0.66943 0.79465 0.22934 0.36847 0.61800-0.77951
  -1  -7  -3 552.711 130.480   5 0.88680-0.99092-0.34870-0.20804-0.15593 0.22938
   1   7   3 475.785 125.072   2 0.22048-0.11636-0.09055 0.64730 0.83267-0.90612
  -1  -7  -3 559.949 120.654   4 0.75776-0.86189-0.51666-0.04008 0.32118-0.24773
  -1  -7  -4 263.148 89.1515   4 0.72912-0.81215-0.55870 0.04302 0.33671-0.35131
   1   7   4 225.457 136.033   1-0.74499 0.82802 0.00872 0.50695 0.71446-0.69987
   1   7   5 52.6914 81.5833   1-0.76718 0.82911-0.09541 0.57001 0.74706-0.64441
  -1  -7  -5 28.5042 56.9049   3 0.87396-0.93589-0.04716-0.42744-0.55536 0.45271
  -1  -7  -5 5.86027 49.7881   4 0.68409-0.74603-0.61752 0.14292 0.35787-0.46051
  -1  -7  -5 15.7713 72.4667   5 0.90891-0.97084-0.29994-0.17467-0.17887 0.07623
   1   7   6 276.181 109.819   1-0.77981 0.82064-0.18997 0.62350 0.76944-0.57875
  -1  -7  -6 201.556 107.266   3 0.90582-0.94666-0.02717-0.40637-0.51890 0.32821
   1   7   7 86.4775 133.738   1-0.78471 0.80445-0.27197 0.66444 0.78305-0.50431
  -1  -7  -7 79.5193 87.5095   3 0.92342-0.94316-0.01464-0.37783-0.49491 0.21617
   1   7   8 436.848 183.982   1-0.78425 0.78290-0.33980 0.69119 0.78997-0.42318
  -1  -7  -8 331.918 188.109   3 0.93237-0.93101-0.00773-0.34367-0.48129 0.11450
  -1  -7  -9 6368.34 325.492   3 0.93560-0.91315-0.00513-0.30520-0.47609 0.02125
  -1  -7 -10 6629.25 341.860   3 0.93464-0.89109-0.00591-0.26335-0.47766-0.06523
  -1  -7 -11 254.108 200.701   3 0.93022-0.86557-0.00943-0.21875-0.48467-0.14626
   1   8  -2 0.34875 72.5870   2 0.35444-0.13583 0.54287 0.31496 0.36177-0.92012
  -1  -8   2 56.0092 135.235   4 0.74605-0.96466-0.53435-0.32348 0.32776 0.23059
   1   8  -2 32.8173 102.275   1-0.40708 0.62569 0.63752 0.22031 0.32194-0.88029
   1   8  -1 1794.52 230.128   2 0.34317-0.14565 0.45404 0.36272 0.45185-0.92215
   1   8  -1 1861.78 257.467   1-0.47368 0.67119 0.55879 0.25797 0.39440-0.86470
  -1  -8   1 1556.14 237.481   4 0.75857-0.95608-0.51542-0.30134 0.32072 0.14958
  -1  -8   1 1682.53 270.452   5 0.75654-0.95405-0.55739-0.25937-0.04684 0.51714
  -1  -8   0 2984.38 318.076   4 0.76570-0.94212-0.50425-0.27144 0.31654 0.06572
   1   8   0 3022.47 240.593   1-0.53613 0.71255 0.47296 0.30273 0.46365-0.84590
   1   8   0 3255.16 221.921   2 0.32725-0.15083 0.35526 0.42043 0.54118-0.92344
   1   8   1 1687.20 200.792   1-0.59330 0.74862 0.38111 0.35351 0.52848-0.82268
   1   8   1 1617.72 200.636   2 0.30628-0.15096 0.24706 0.48756 0.62777-0.92197
  -1  -8  -1 1892.03 231.735   4 0.76721-0.92252-0.50186-0.23276 0.31564-0.02143
  -1  -8  -1 1698.40 224.362   5 0.82394-0.97926-0.46190-0.27272-0.09914 0.39335
  -1  -8  -2 1632.98 184.713   4 0.76245-0.89667-0.50938-0.18417 0.31846-0.11230
  -1  -8  -2 1250.74 156.157   5 0.84907-0.98329-0.42022-0.27333-0.12066 0.32682
   1   8   2 1402.59 175.006   1-0.64400 0.77822 0.28492 0.40863 0.58757-0.79373
   1   8   2 1522.91 189.726   2 0.28014-0.14592 0.13104 0.56251 0.70889-0.91505
   1   8   3 1780.12 174.965   2 0.24914-0.13601 0.01012 0.64236 0.78141-0.89952
  -1  -8  -3 2045.51 198.199   4 0.75024-0.86337-0.52810-0.12438 0.32544-0.20733
  -1  -8  -3 1713.30 169.963   5 0.86889-0.98201-0.38420-0.26828-0.13867 0.25678
   1   8   3 1908.45 236.141   1-0.68715 0.80028 0.18665 0.46583 0.63965-0.75776
   1   8   4 2228.97 208.005   1-0.72200 0.81403 0.08910 0.52231 0.68368-0.71374
  -1  -8  -4 2249.03 176.411   4 0.72866-0.82069-0.55935-0.05206 0.33695-0.30689
   1   8   4 2313.37 178.850   2 0.21420-0.12217-0.11146 0.72287 0.84227-0.87233
  -1  -8  -4 2277.19 191.717   5 0.88361-0.97564-0.35526-0.25615-0.15278 0.18284
  -1  -8  -5 3098.06 216.997   4 0.69467-0.76560-0.60441 0.03407 0.35322-0.41121
   1   8   5 3144.32 263.214   1-0.74832 0.81926-0.00468 0.57502 0.71912-0.66113
  -1  -8  -5 3089.91 213.656   5 0.89326-0.96420-0.33507-0.23527-0.16243 0.10444
   1   8   6 17615.5 397.873   1-0.76654 0.81638-0.09172 0.62099 0.74604-0.60001
  -1  -8  -6 18362.8 367.908   5 0.89760-0.94744-0.32565-0.20362-0.16688 0.02085
   1   8   7 59.1271 78.1348   1-0.77770 0.80644-0.16953 0.65773 0.76520-0.53111
  -1  -8  -7 120.833 98.0562   3 0.89517-0.92391-0.03418-0.45402-0.53196 0.29787
   1   8   8 354.801 146.533   1-0.78329 0.79094-0.23637 0.68350 0.77782-0.45569
  -1  -8  -8 220.810 107.410   3 0.91015-0.91779-0.02420-0.42293-0.51330 0.19117
   1   8   9 8110.42 347.406   1-0.78501 0.77156-0.29134 0.69740 0.78544-0.37525
  -1  -8  -9 7911.99 375.849   3 0.91769-0.90423-0.01887-0.38720-0.50310 0.09292
  -1  -8 -10 117.952 223.761   3 0.91995-0.88540-0.01722-0.34778-0.49991 0.00168
   1   9   0 24.8499 104.591   1-0.51114 0.69656 0.50889 0.36254 0.43577-0.86268
   1   9   0 25.2724 100.707   2 0.33587-0.15046 0.40625 0.46517 0.49638-0.92329
  -1  -9   0 41.6297 127.986   4 0.74417-0.92959-0.53712-0.33430 0.32878 0.09813
   1   9   1 9.02210 85.1055   1-0.56676 0.73108 0.42559 0.40477 0.49818-0.83704
  -1  -9  -1-8.62542 47.4473   4 0.74775-0.91207-0.53183-0.29853 0.32682 0.01204
   1   9   1 1.42462 58.6810   2 0.31891-0.15458 0.31004 0.52032 0.57872-0.91758
  -1  -9  -2 1060.30 185.333   5 0.82695-0.97017-0.45711-0.33217-0.10165 0.35247
  -1  -9  -2 1202.25 207.935   4 0.74556-0.88878-0.53508-0.25421 0.32803-0.07721
   1   9   2 1036.72 179.949   1-0.61664 0.75987 0.33889 0.45040 0.55546-0.80627
   1   9   3 3670.79 259.844   2 0.27259-0.15046 0.10018 0.64804 0.72855-0.89131
  -1  -9  -3 3465.23 247.201   4 0.73679-0.85891-0.54784-0.20037 0.33274-0.16997
  -1  -9  -3 3448.33 243.509   5 0.84766-0.96979-0.42266-0.32556-0.11942 0.28219
   1   9   3 3609.47 284.702   1-0.66005 0.78218 0.25054 0.49767 0.60670-0.76947
  -1  -9  -4 9695.04 352.865   4 0.72008-0.82111-0.57118-0.13597 0.34126-0.26655
   1   9   4 9326.20 338.375   2 0.24397-0.14294-0.00873 0.71588 0.79164-0.86636
  -1  -9  -4 9468.63 345.336   5 0.86343-0.96446-0.39443-0.31271-0.13361 0.20833
   1   9   4 9124.43 344.847   1-0.69645 0.79748 0.16264 0.54450 0.65118-0.72589
   1   9   5 4028.35 239.108   2 0.21286-0.13292-0.11588 0.78196 0.84426-0.83093
   1   9   5 3285.30 285.802   1-0.72565 0.80559 0.07745 0.58862 0.68844-0.67511
  -1  -9  -5 4124.52 259.243   4 0.69334-0.77327-0.60609-0.05999 0.35381-0.36715
  -1  -9  -5 4036.75 253.381   5 0.87432-0.95426-0.37375-0.29232-0.14380 0.13047
   1   9   6 979.044 303.636   1-0.74785 0.80669-0.00275 0.62775 0.71845-0.61707
  -1  -9  -6 734.952 174.651   5 0.88019-0.93903-0.36217-0.26283-0.14944 0.04806
   1   9   7 147.214 150.503   1-0.76368 0.80143-0.07594 0.65987 0.74159-0.55216
  -1  -9  -8 723.183 209.622   3 0.87995-0.89660-0.04362-0.49925-0.54906 0.27158
   1   9   8 902.495 191.928   1-0.77411 0.79076-0.14051 0.68338 0.75860-0.48113
  -1  -9  -9-9.79437 96.2642   3 0.89313-0.88868-0.03549-0.46631-0.53435 0.16882
   1   9   9 58.4619 84.8258   1-0.78031 0.77586-0.19538 0.69717 0.77051-0.40498
  -1  -9 -10 1158.31 251.424   3 0.89956-0.87401-0.03134-0.42939-0.52670 0.07312
  -1 -10  -3 3660.34 301.816   4 0.71856-0.84969-0.57324-0.27071 0.34201-0.13459
   1  10   3 4033.19 326.349   2 0.29221-0.16108 0.18260 0.66135 0.67427-0.88169
   1  10   4 78.9479 84.8579   2 0.26869-0.15866 0.08462 0.71825 0.73815-0.85752
  -1 -10  -4 6.60113 70.9075   4 0.70551-0.81554-0.59054-0.21233 0.34826-0.22889
  -1 -10  -4-25.6633 64.3223   5 0.84008-0.95011-0.43560-0.36728-0.11281 0.23218
   1  10   4 86.8049 138.912   1-0.66852 0.77855 0.23144 0.57144 0.61690-0.73627
  -1 -10  -5 925.881 202.593   4 0.68391-0.77285-0.61775-0.14406 0.35795-0.32663
   1  10   5 834.968 178.964   2 0.24278-0.15385-0.01301 0.77482 0.79392-0.82525
  -1 -10  -5 908.016 210.577   5 0.85220-0.94114-0.41472-0.34709-0.12345 0.15477
   1  10   5 949.092 229.699   1-0.69988 0.78882 0.15346 0.60835 0.65547-0.68679
   1  10   6 962.472 183.890   2 0.21537-0.14753-0.10759 0.82833 0.84052-0.78380
   1  10   6 372.720 226.431   1-0.72508 0.79292 0.07931 0.64143 0.68769-0.63097
  -1 -10  -6 637.502 182.360   5 0.85946-0.92730-0.40172-0.31902-0.12998 0.07325
   1  10   7 549.826 224.459   1-0.74450 0.79124 0.01065 0.66902 0.71378-0.56900
   1  10   8 743.949 234.363   1-0.75878 0.78443-0.05110 0.68970 0.73419-0.50137
   1  10   9 252.614 191.908   1-0.76876 0.77331-0.10482 0.70235 0.74960-0.42873
  -2  10   6 396.589 143.226   1-0.77936 0.53398-0.18531 0.87659 0.76850-0.63673
   2 -10  -6 1180.69 246.892   5 0.98348-0.73810-0.03436-0.65693-0.28975 0.15798
  -2  10   5 5275.93 354.464   1-0.77007 0.54579-0.11296 0.84532 0.75174-0.70801
  -2  10   4 859.560 257.996   1-0.75463 0.55145-0.03173 0.80516 0.72810-0.77243
   2 -10  -4 622.305 173.689   4 0.86813-0.66494-0.29817-0.47526 0.23595-0.19162
  -2  10   3 2305.75 243.326   1-0.73178 0.54970 0.05705 0.75745 0.69654-0.82891
   2 -10  -3 3559.79 272.579   4 0.87430-0.69221-0.28137-0.53313 0.22912-0.09675
   2 -10  -2 269.782 145.893   4 0.87633-0.71534-0.27565-0.57992 0.22679-0.00637
  -2  10   2 22.1434 85.4799   1-0.70059 0.53960 0.15153 0.70404 0.65636-0.87678
  -2  10   1 162.713 138.947   1-0.66053 0.52064 0.24947 0.64717 0.60729-0.91575
   2  -9  -9 145.770 210.169   3 0.99255-0.67489 0.06312-0.53546-0.32602-0.11456
   2  -9  -8 1143.34 235.950   3 0.99361-0.69704 0.06563-0.57905-0.31996-0.03256
  -2   9   7 6002.89 366.211   1-0.78380 0.50832-0.35033 0.90482 0.79067-0.52620
  -2   9   6 78.8160 126.878   1-0.78499 0.53062-0.28897 0.88453 0.78516-0.60873
   2  -9  -6 22.2178 58.5693   5 0.99233-0.73795 0.05536-0.65091-0.32219 0.14577
  -2   9   5 7299.69 308.457   1-0.78199 0.54871-0.21602 0.85264 0.77436-0.68598
   2  -9  -5 7765.84 320.179   5 0.99074-0.75746 0.03125-0.66787-0.31372 0.22534
  -2   9   4 7940.45 322.558   1-0.77292 0.56073-0.13193 0.80962 0.75653-0.75620
   2  -9  -4 8749.75 347.200   5 0.98761-0.77543-0.00193-0.67577-0.30176 0.30143
  -2   9   3 6800.37 314.275   1-0.75599 0.56491-0.03795 0.75671 0.73009-0.81781
   2  -9  -3 7011.09 309.705   5 0.98216-0.79107-0.04326-0.67550-0.28639 0.37411
  -2   9   2 3777.67 266.094   1-0.72976 0.55977 0.06389 0.69595 0.69386-0.86963
   2  -9  -2 4094.62 287.860   5 0.97354-0.80355-0.09191-0.66792-0.26763 0.44339
  -2   9   1 7957.19 353.064   1-0.69333 0.54443 0.17084 0.63006 0.64729-0.91110
   2  -9  -1 8037.94 408.321   5 0.96087-0.81197-0.14706-0.65384-0.24546 0.50928
  -2   9   1 8773.39 364.102   2 0.34113-0.49003 0.44016 0.36074 0.46504-0.72886
  -2   9   0 407.256 166.349   2 0.35205-0.47985 0.52180 0.32018 0.38407-0.73593
  -2   9   0 128.812 128.216   1-0.64645 0.51866 0.27981 0.56217 0.59048-0.94234
  -2   9  -1 8668.80 418.511   2 0.35949-0.46619 0.59509 0.28795 0.30376-0.74367
   2  -8  -9 87.6876 148.182   3 0.99827-0.67161 0.08079-0.45740-0.28268-0.20255
   2  -8  -8 3207.46 301.441   3 0.99926-0.69369 0.08635-0.50404-0.26863-0.12855
   2  -8  -7 37.5198 155.978   3 0.99964-0.71516 0.08957-0.54832-0.26042-0.04872
   2  -8  -6 885.394 146.716   5 0.99271-0.72933 0.15331-0.65313-0.35477 0.13369
   2  -8  -5 891.626 166.653   5 0.99354-0.75126 0.12853-0.66942-0.34682 0.21378
  -2   8   5 1064.90 165.109   1-0.78470 0.54242-0.32569 0.86658 0.78887-0.65583
   2  -8  -4 2532.40 220.665   5 0.99364-0.77245 0.09361-0.67558-0.33528 0.29029
  -2   8   4 2257.16 197.063   1-0.78349 0.56231-0.24010 0.82206 0.77842-0.73343
   2  -8  -3 5321.13 287.621   5 0.99200-0.79191 0.04952-0.67255-0.32016 0.36322
  -2   8   3 4751.07 250.988   1-0.77423 0.57415-0.14144 0.76447 0.75883-0.80189
  -2   8   2 557.319 155.896   1-0.75464 0.57565-0.03179 0.69589 0.72812-0.85923
  -2   8   2 421.671 128.078   2 0.31515-0.49414 0.29068 0.37342 0.59419-0.72530
   2  -8  -2 531.488 159.797   5 0.98751-0.80852-0.00283-0.66127-0.30143 0.43254
  -2   8   1 663.249 156.649   2 0.33392-0.49181 0.39425 0.31092 0.50717-0.72633
  -2   8   1 556.996 128.882   1-0.72311 0.56522 0.08560 0.61957 0.68512-0.90428
   2  -8  -1 711.661 209.892   5 0.97904-0.82114-0.06250-0.64267-0.27906 0.49822
  -2   8   0 290.563 131.216   2 0.34765-0.48445 0.48656 0.25968 0.42003-0.72724
   2  -8   0 292.960 187.458   5 0.96547-0.82867-0.12854-0.61770-0.25302 0.56022
  -2   8   0 284.446 140.255   1-0.67905 0.54225 0.20663 0.53961 0.62970-0.93691
   2  -8   1 5872.37 372.315   5 0.94574-0.83004-0.19996-0.58735-0.22329 0.61855
  -2   8  -1 6275.44 308.744   2 0.35702-0.47273 0.56794 0.21937 0.33443-0.72969
   2  -8   2 774.870 203.846   5 0.91882-0.82421-0.27580-0.55258-0.18991 0.67321
  -2   8  -2 902.338 218.861   2 0.36269-0.45729 0.63930 0.18908 0.25122-0.73452
  -2   8  -3 4568.11 349.519   2 0.36522-0.43873 0.70171 0.16773 0.17067-0.74203
   2  -7 -10 1072.23 245.555   3 0.99914-0.64237 0.08554-0.32535-0.27069-0.34724
  -2   7  10 1184.41 315.341   0 0.13224-0.48901-0.58205 0.82186 0.91689-0.29896
   2  -7  -9 322.003 187.498   3 0.99998-0.66432 0.09547-0.37635-0.24517-0.28471
  -2   7   9 408.655 190.708   0 0.09713-0.43280-0.56708 0.84796 0.93309-0.40320
  -2   7   8 111.460 151.553   0 0.04777-0.36234-0.54434 0.86629 0.95272-0.51089
   2  -7  -8 27.3680 127.650   3 0.99966-0.68509 0.10384-0.42579-0.22314-0.21869
  -2   7   7 1374.28 175.902   0-0.01819-0.27529-0.51093 0.87395 0.97333-0.61955
   2  -7  -7 1597.83 237.478   3 0.99873-0.70525 0.11037-0.47339-0.20561-0.14818
   2  -7  -6 12982.0 363.768   3 0.99779-0.72541 0.11463-0.51872-0.19402-0.07172
   2  -7  -6 13062.4 324.028   5 0.98141-0.70903 0.26190-0.66599-0.38730 0.12156
  -2   7   6 12493.9 365.954   0-0.10228-0.17009-0.46332 0.86740 0.99029-0.72455
   2  -7  -5 9768.25 345.825   3 0.99746-0.74618 0.11589-0.56105-0.19056 0.01287
  -2   7   5 9662.43 314.281   0-0.20393-0.04735-0.39806 0.84321 0.99645-0.81876
   2  -7  -5 9377.03 279.546   5 0.98519-0.73390 0.23656-0.68172-0.38006 0.20237
  -2   7   4 1244.97 159.958   1-0.78343 0.55325-0.35733 0.84356 0.79108-0.70144
  -2   7   4 1098.80 152.549   0-0.31870 0.08852-0.31340 0.79962 0.98301-0.89337
   2  -7  -4 1134.05 146.638   5 0.98942-0.75923 0.19979-0.68601-0.36917 0.27953
  -2   7   3 23441.1 413.632   0-0.43765 0.22856-0.21128 0.73858 0.94237-0.94077
  -2   7   3 21140.4 375.431   1-0.78419 0.57511-0.25556 0.78286 0.78077-0.77918
   2  -7  -3 22416.8 428.300   5 0.99274-0.78365 0.15254-0.67983-0.35453 0.35294
  -2   7   2 274.228 99.3166   1-0.77379 0.58580-0.13819 0.70656 0.75805-0.84451
  -2   7   2 367.675 119.057   2 0.30213-0.49012 0.22748 0.34089 0.64228-0.72874
   2  -7  -2 347.685 126.774   5 0.99367-0.80568 0.09581-0.66417-0.33601 0.42247
  -2   7   1 2001.26 168.135   1-0.74935 0.58245-0.00891 0.61834 0.72056-0.89506
  -2   7   1 2141.96 167.781   2 0.32614-0.49304 0.34909 0.26035 0.54643-0.72093
  -2   7   1 2005.15 165.154   0-0.64334 0.47644 0.01678 0.59265 0.77639-0.95089
   2  -7  -1 2025.93 188.500   5 0.99070-0.82380 0.03063-0.64006-0.31350 0.48800
  -2   7   0 2729.53 196.979   2 0.34329-0.48910 0.45494 0.19557 0.45099-0.71354
  -2   7   0 2738.74 199.723   0-0.71492 0.56912 0.12520 0.52530 0.66463-0.92718
   2  -7   0 2608.41 224.873   5 0.98237-0.83657-0.04187-0.60864-0.28692 0.54947
  -2   7  -1 253.838 124.226   1-0.65427 0.52956 0.26319 0.42839 0.59978-0.95038
  -2   7  -1 33.8507 81.7961   2 0.35477-0.47947 0.54590 0.14568 0.35852-0.70912
  -2   7  -1 30.1743 86.1475   0-0.76400 0.63929 0.22197 0.46961 0.54630-0.89690
   2  -7   1 42.2921 95.2859   5 0.96736-0.84266-0.12050-0.57108-0.25626 0.60686
  -2   7  -2 449.504 178.343   2 0.36168-0.46529 0.62376 0.10888 0.27007-0.70872
   2  -7   2 526.096 192.714   5 0.94446-0.84085-0.20403-0.52862-0.22155 0.66020
  -2   7  -3 824.777 214.472   2 0.36495-0.44747 0.69047 0.08324 0.18580-0.71250
   2  -7   3 1014.27 233.026   5 0.91255-0.83004-0.29125-0.48247-0.18287 0.70956
  -2   7  -4 2511.04 329.183   2 0.36526-0.42667 0.74774 0.06705 0.10545-0.72020
  -2   6  10 1442.89 293.248   0 0.21353-0.57930-0.61278 0.75685 0.87206-0.20947
   2  -6 -10 1591.87 213.592   3 0.99997-0.63421 0.09497-0.23904-0.24647-0.41612
  -2   6   9 605.951 144.746   0 0.18829-0.53296-0.60384 0.78898 0.88710-0.31256
   2  -6  -9 933.357 239.612   3 0.99926-0.65459 0.10719-0.29234-0.21418-0.36036
  -2   6   8 1776.62 265.395   0 0.14962-0.47319-0.58909 0.81530 0.90818-0.42169
   2  -6  -8 1664.37 218.885   3 0.99681-0.67324 0.11816-0.34438-0.18430-0.30219
   2  -6  -7 513.904 134.941   3 0.99321-0.69074 0.12772-0.39500-0.15755-0.24089
  -2   6   7 446.199 134.749   0 0.09432-0.39680-0.56584 0.83312 0.93430-0.53586
   2  -6  -6 3032.40 167.907   5 0.95294-0.67156 0.38365-0.69201-0.41892 0.10853
  -2   6   6 3025.05 199.576   0 0.01906-0.30044-0.53022 0.83858 0.96248-0.65209
   2  -6  -6 3291.27 254.272   3 0.98916-0.70778 0.13561-0.44396-0.13492-0.17547
   2  -6  -5 5496.56 216.232   5 0.96035-0.70007 0.35825-0.70767-0.41278 0.19043
   2  -6  -5 5855.58 259.313   3 0.98551-0.72523 0.14142-0.49084-0.11794-0.10441
  -2   6   5 5537.34 234.752   0-0.07843-0.18186-0.47740 0.82682 0.98655-0.76420
   2  -6  -4 430.343 127.823   3 0.98340-0.74421 0.14443-0.53493-0.10901-0.02529
  -2   6   4 366.070 125.651   0-0.19704-0.04215-0.40276 0.79325 0.99654-0.86225
   2  -6  -4 413.981 113.324   5 0.97005-0.73086 0.31986-0.71035-0.40303 0.26873
  -2   6   3 4163.25 186.884   2 0.24373-0.46182-0.00959 0.44116 0.79210-0.74585
   2  -6  -3 4209.50 194.212   5 0.98017-0.76208 0.26932-0.70088-0.38938 0.34313
  -2   6   3 4045.68 189.954   0-0.32964 0.11155-0.30466 0.73622 0.98049-0.93425
   2  -6  -3 4218.12 174.064   3 0.98418-0.76609 0.14334-0.57490-0.11226 0.06601
  -2   6   2 4810.34 195.060   2 0.28655-0.48354 0.15802 0.31461 0.69105-0.73285
  -2   6   2 4367.21 198.514   1-0.78432 0.58732-0.25891 0.73154 0.78125-0.82305
  -2   6   2 4653.25 217.064   0-0.46274 0.26575-0.18751 0.66014 0.92965-0.97146
   2  -6  -2 4331.84 220.322   5 0.98864-0.79165 0.20758-0.68021-0.37151 0.41332
  -2   6   1 858.551 155.177   0-0.58105 0.40515-0.06177 0.57548 0.84429-0.97414
  -2   6   1 779.725 104.827   2 0.31797-0.49386 0.30514 0.20856 0.58266-0.71251
   2  -6  -1 810.236 136.746   5 0.99336-0.81746 0.13577-0.64947-0.34916 0.47901
  -2   6   1 844.489 114.961   1-0.77065 0.59475-0.11665 0.63036 0.75269-0.88254
  -2   6   0 2765.84 190.702   1-0.73735 0.58255 0.03748 0.51729 0.70401-0.92191
  -2   6   0 3217.59 197.605   2 0.33943-0.49423 0.42892 0.12585 0.47558-0.69348
  -2   6   0 2782.16 197.208   0-0.67419 0.51939 0.06044 0.49433 0.73393-0.95183
   2  -6   0 3084.57 213.151   5 0.99232-0.83752 0.05521-0.60998-0.32214 0.54004
  -2   6  -1 284.255 104.559   2 0.35316-0.48687 0.53139 0.06445 0.37400-0.67994
  -2   6  -1 272.282 137.599   0-0.73972 0.60601 0.17050 0.42534 0.61152-0.91747
  -2   6  -1 261.404 94.7632   1-0.68402 0.55031 0.19448 0.40136 0.63579-0.94174
   2  -6   1 207.485 135.632   5 0.98373-0.85003-0.03257-0.56327-0.29042 0.59636
  -2   6  -2 18.7160 60.6885   2 0.36114-0.47375 0.61618 0.02073 0.27912-0.67311
  -2   6  -2 43.0223 104.781   0-0.78087 0.66826 0.26493 0.37198 0.48760-0.88159
  -2   6  -2 38.0463 65.5897   1-0.61312 0.50051 0.34547 0.29144 0.55136-0.94536
   2  -6   2 21.9469 82.4862   5 0.96607-0.85347-0.12601-0.51090-0.25404 0.64803
  -2   6  -3 1153.56 190.744   2 0.36485-0.45636 0.68679-0.00881 0.19069-0.67274
  -2   6  -3 1321.61 204.778   0-0.80285 0.71134 0.34396 0.33402 0.36828-0.85032
   2  -6   3 1165.58 207.896   5 0.93807-0.84656-0.22347-0.45451-0.21315 0.69520
  -2   6  -4 11224.0 390.028   2 0.36529-0.43571 0.74606-0.02701 0.10792-0.67802
  -2   6  -4 11364.9 405.110   0-0.81055 0.74014 0.40948 0.30957 0.25613-0.82622
  -2   6  -5 4821.59 313.859   2 0.36314-0.41246 0.79616-0.03604 0.02991-0.68805
  -2   5  10 5734.00 370.195   0 0.28474-0.65950-0.63490 0.68324 0.82389-0.11665
   2  -5 -10 5850.30 332.581   3 0.99985-0.62508 0.10153-0.14987-0.22928-0.47796
  -2   5   9-0.69110 69.8998   0 0.26935-0.62302-0.63052 0.71993 0.83504-0.21585
   2  -5  -9 8.27089 56.3044   3 0.99745-0.64378 0.11595-0.20536-0.19041-0.42878
  -2   5   8 303.504 120.097   0 0.24208-0.57465-0.62220 0.75268 0.85379-0.32264
   2  -5  -8 332.066 121.658   3 0.99245-0.65988 0.12935-0.25983-0.15290-0.37824
  -2   5   7 12938.4 364.154   0 0.19945-0.51092-0.60786 0.77941 0.88058-0.43749
   2  -5  -7 12791.1 364.931   3 0.98533-0.67385 0.14169-0.31324-0.11715-0.32595
   2  -5  -6 962.711 125.042   5 0.89822-0.60784 0.51996-0.73257-0.44732 0.09228
   2  -5  -6 1032.88 162.030   3 0.97664-0.68626 0.15284-0.36546-0.08370-0.27135
   2  -5  -5 14549.7 321.135   3 0.96710-0.69781 0.16262-0.41631-0.05340-0.21360
   2  -5  -5 14386.6 295.011   5 0.90985-0.64057 0.49591-0.74959-0.44292 0.17592
  -2   5   5 14297.1 326.330   0 0.04992-0.31921-0.54537 0.79906 0.95194-0.68494
  -2   5   4 14997.5 287.851   0-0.06506-0.18313-0.48509 0.77985 0.98408-0.80513
   2  -5  -4 15007.3 302.513   3 0.95773-0.70955 0.17073-0.46549-0.02757-0.15138
   2  -5  -4 15266.5 278.708   5 0.92673-0.67854 0.45717-0.75193-0.43525 0.25630
  -2   5   3 34976.9 316.854   2 0.20567-0.43276-0.13928 0.47511 0.85449-0.76359
   2  -5  -3 34909.0 384.483   3 0.95008-0.72298 0.17659-0.51242-0.00846-0.08244
   2  -5  -3 34597.1 414.184   5 0.94637-0.71928 0.40412-0.73995-0.42369 0.33279
  -2   5   3 36371.4 417.967   0-0.20551-0.02158-0.39697 0.73280 0.99641-0.90551
  -2   5   2 1894.63 104.744   2 0.26676-0.47275 0.07702 0.29988 0.74278-0.73992
   2  -5  -2 1882.09 134.317   5 0.96585-0.75986 0.33736-0.71425-0.40754 0.40469
  -2   5   2 1990.38 140.360   0-0.35908 0.15309-0.28053 0.65742 0.97256-0.96970
   2  -5  -2 2008.99 132.274   3 0.94657-0.74058 0.17909-0.55599-0.00020-0.00265
  -2   5   1 11152.4 257.087   0-0.50517 0.32027-0.14523 0.56320 0.90426-0.98946
  -2   5   1 10551.3 257.301   1-0.78367 0.59877-0.24367 0.66164 0.77898-0.86417
  -2   5   1 11018.8 226.611   2 0.30966-0.49456 0.26336 0.15461 0.61542-0.70062
   2  -5  -1 10770.7 256.835   5 0.98204-0.79715 0.25796-0.67593-0.38619 0.47138
   2  -5   0 17078.3 320.661   5 0.99194-0.82814 0.16747-0.62651-0.35923 0.53248
  -2   5   0 17556.7 283.997   2 0.33682-0.50063 0.41218 0.04686 0.49099-0.66424
  -2   5   0 17188.9 295.053   1-0.76201 0.59820-0.06716 0.52620 0.73903-0.91227
  -2   5  -1 353.420 98.1265   1-0.71252 0.56981 0.11790 0.38220 0.67145-0.93274
  -2   5  -1 375.978 99.0294   2 0.35283-0.49554 0.52848-0.02838 0.37706-0.63835
  -2   5  -1 423.357 122.263   0-0.71107 0.56836 0.11863 0.38148 0.67201-0.93330
   2  -5   1 454.388 159.614   5 0.99292-0.85021 0.06787-0.56798-0.32652 0.58782
  -2   5  -2 475.562 100.897   2 0.36142-0.48303 0.62004-0.07886 0.27453-0.62387
   2  -5   2 519.843 148.988   5 0.98286-0.86125-0.03862-0.50256-0.28814 0.63749
  -2   5  -2 532.496 125.112   1-0.63830 0.51669 0.29661 0.24457 0.58083-0.93017
  -2   5  -3 8913.81 298.463   2 0.36503-0.46554 0.69336-0.11112 0.18194-0.61933
   2  -5   3 8754.56 297.392   5 0.96018-0.85966-0.14972-0.43253-0.24437 0.68176
  -2   5  -3 9166.02 334.618   0-0.79623 0.69571 0.31487 0.26738 0.41404-0.85142
  -2   5  -4 975.687 159.239   2 0.36514-0.44456 0.75319-0.12987 0.09733-0.62277
  -2   5  -4 820.266 133.775   0-0.80915 0.72973 0.38709 0.23623 0.29599-0.82143
  -2   5  -5 10438.9 341.364   2 0.36265-0.42097 0.80271-0.13833 0.01902-0.63250
  -2   5  -6 8653.84 408.797   2 0.35807-0.39530 0.84412-0.13866-0.05441-0.64712
   2  -4 -10 19.1569 85.4643   3 0.99953-0.61576 0.10509-0.05769-0.21981-0.53209
  -2   4  10 69.7858 183.104   0 0.34538-0.72915-0.64989 0.60250 0.77571-0.02381
  -2   4   9 1418.87 230.172   0 0.33919-0.70186-0.64854 0.64221 0.78095-0.11711
   2  -4  -9 1421.24 152.611   3 0.99566-0.63299 0.12165-0.11533-0.17461-0.48924
   2  -4  -8 10180.0 333.880   3 0.98810-0.64653 0.13739-0.17213-0.12975-0.44605
  -2   4   8 10446.3 379.306   0 0.32303-0.66461-0.64480 0.67955 0.79428-0.21848
  -2   4   7 1477.31 188.835   0 0.29369-0.61417-0.63735 0.71316 0.81720-0.32945
   2  -4  -7 1656.02 184.919   3 0.97710-0.65662 0.15231-0.22812-0.08531-0.40244
   2  -4  -6 100.125 105.251   3 0.96289-0.66351 0.16641-0.28330-0.04142-0.35829
  -2   4   6 95.2746 68.2588   0 0.24650-0.54588-0.62360 0.74048 0.85083-0.45113
  -2   4   5 4656.69 182.583   0 0.17509-0.45338-0.59895 0.75690 0.89456-0.58291
   2  -4  -5 4722.61 169.117   5 0.81917-0.54089 0.64781-0.80577-0.46546 0.15381
   2  -4  -5 4642.67 200.707   3 0.94573-0.66744 0.17968-0.33763 0.00176-0.31341
   2  -4  -4 3558.11 186.852   3 0.92593-0.66874 0.19205-0.39107 0.04391-0.26751
  -2   4   4 3647.40 161.666   0 0.07223-0.32942-0.55585 0.75488 0.94345-0.71984
   2  -4  -4 3802.10 151.321   5 0.84433-0.58714 0.61231-0.81134-0.46141 0.23781
   2  -4  -3 4415.50 183.607   3 0.90398-0.66789 0.20344-0.44353 0.08455-0.22010
  -2   4   3 4232.77 177.693   0-0.06664-0.16945-0.48419 0.72428 0.98438-0.84883
   2  -4  -3 4394.29 154.800   5 0.87671-0.64061 0.56007-0.80016-0.45402 0.31847
  -2   4   2 2258.94 107.004   2 0.23837-0.45337-0.02880 0.30996 0.80221-0.75470
   2  -4  -2 2066.96 115.168   5 0.91231-0.69732 0.49056-0.77173-0.44190 0.39439
   2  -4  -2 2273.40 131.729   3 0.88073-0.66573 0.21366-0.49483 0.12279-0.17030
  -2   4   2 2029.48 139.194   0-0.23560 0.02061-0.37591 0.65707 0.99500-0.94750
   2  -4  -1 218.647 64.4991   5 0.94636-0.75246 0.40414-0.72638-0.42370 0.46424
  -2   4   1 174.526 67.7915   2 0.30180-0.49570 0.22596 0.09628 0.64339-0.68393
  -2   4   1 213.778 98.7167   0-0.41206 0.21816-0.23466 0.55689 0.95373-0.99427
   2  -4  -1 169.003 79.4985   3 0.85783-0.66393 0.22237-0.54460 0.15689-0.11635
  -2   4   0 24059.4 323.446   0-0.56563 0.39283-0.07967 0.44297 0.85822-0.98681
   2  -4   0 23158.8 333.417   5 0.97390-0.80110 0.30229-0.66560-0.39839 0.52697
  -2   4   0 23991.3 277.268   2 0.33687-0.50967 0.41246-0.04916 0.49074-0.61933
  -2   4   0 23381.4 300.572   1-0.78043 0.60763-0.19679 0.56009 0.77078-0.89937
  -2   4  -1 2389.84 117.965   1-0.74004 0.58833 0.02763 0.37674 0.70766-0.92430
  -2   4  -1 2445.53 134.826   2 0.35463-0.50633 0.54459-0.14021 0.35993-0.57657
  -2   4  -1 2585.22 170.293   0-0.67802 0.52632 0.06615 0.33822 0.72812-0.94476
   2  -4   1 2367.20 149.555   5 0.99050-0.83879 0.18762-0.59199-0.36547 0.58211
  -2   4  -2 16809.2 295.037   2 0.36278-0.49339 0.64085-0.19541 0.24931-0.55399
  -2   4  -2 16273.4 258.861   1-0.66143 0.53081 0.24748 0.19796 0.60836-0.91304
  -2   4  -2 16806.2 325.236   0-0.74939 0.61878 0.18993 0.25551 0.58752-0.89221
   2  -4   2 16774.9 322.598   5 0.99273-0.86212 0.06348-0.50892-0.32501 0.62970
  -2   4  -3 11978.4 279.469   2 0.36540-0.47491 0.71395-0.22744 0.15387-0.54661
  -2   4  -3 11715.0 251.117   1-0.55714 0.44763 0.44089 0.04562 0.48729-0.88002
   2  -4   3 12196.6 291.817   5 0.97834-0.86882-0.06652-0.42000-0.27751 0.67025
  -2   4  -4 17323.7 413.213   0-0.80709 0.71867 0.36925 0.15833 0.32658-0.80736
   2  -4   4 16606.4 330.560   5 0.94608-0.85766-0.19889-0.32869-0.22375 0.70453
  -2   4  -4 16987.6 360.514   2 0.36453-0.45295 0.77153-0.24395 0.06934-0.55012
  -2   4  -5 26854.1 475.020   2 0.36125-0.42857 0.81816-0.24950-0.00738-0.56145
  -2   4  -6 179.271 124.485   2 0.35611-0.40234 0.85659-0.24686-0.07840-0.57848
  -2   4  -7 5853.16 336.587   2 0.34941-0.37454 0.88854-0.23775-0.14521-0.59971
   2  -3 -10 7087.10 335.062   3 0.99949-0.60672 0.10544 0.03769-0.21887-0.57768
   2  -3  -9 15338.0 394.338   3 0.99472-0.62305 0.12415-0.02209-0.16761-0.54089
   2  -3  -8 683.374 185.213   3 0.98500-0.63443 0.14217-0.08118-0.11573-0.50472
  -2   3   7 10396.9 336.053   0 0.37467-0.70415-0.65575 0.63583 0.74988-0.21747
   2  -3  -7 9724.53 267.125   3 0.97029-0.64081 0.15955-0.13964-0.06300-0.46940
  -2   3   6 734.555 164.783   0 0.34319-0.65157-0.64942 0.67057 0.77758-0.33322
   2  -3  -6 654.369 120.092   3 0.95036-0.64197 0.17639-0.19754-0.00914-0.43522
  -2   3   5 7728.07 229.439   0 0.29051-0.57780-0.63648 0.69870 0.81960-0.46329
   2  -3  -5 7913.88 213.013   3 0.92472-0.63743 0.19273-0.25495 0.04629-0.40259
   2  -3  -5 8032.58 198.395   5 0.67102-0.38373 0.80087-0.86309-0.47077 0.11447
  -2   3   4 8979.54 220.482   0 0.20721-0.47340-0.61059 0.71388 0.87592-0.60766
   2  -3  -4 9753.27 244.238   3 0.89255-0.62636 0.20866-0.31195 0.10386-0.37212
   2  -3  -4 9665.86 195.894   5 0.70137-0.43518 0.77540-0.87869-0.47164 0.20338
   2  -3  -3 2886.78 116.664   5 0.74682-0.50173 0.73228-0.87664-0.47128 0.29107
   2  -3  -3 3108.84 160.859   3 0.85241-0.60731 0.22426-0.36862 0.16454-0.34475
  -2   3   3 3096.84 156.495   0 0.08199-0.32708-0.56031 0.70467 0.93950-0.75929
  -2   3   2 8543.12 204.149   0-0.09107-0.13293-0.46999 0.65542 0.98863-0.89647
   2  -3  -2 8377.17 170.105   3 0.80174-0.57774 0.23962-0.42504 0.22978-0.32194
   2  -3  -2 8387.26 190.932   5 0.80337-0.57937 0.66828-0.85371-0.46740 0.37524
   2  -3  -1 882.184 99.7176   5 0.86438-0.66148 0.58097-0.80747-0.45717 0.45305
  -2   3   1 972.678 69.5136   2 0.29610-0.49901 0.19993 0.02656 0.66212-0.65801
  -2   3   1 901.138 90.8906   0-0.29657 0.09367-0.33069 0.55719 0.98741-0.98330
   2  -3  -1 829.880 85.7715   3 0.73584-0.53293 0.25476-0.48126 0.30202-0.30613
  -2   3   0 10509.1 172.096   2 0.34241-0.52422 0.44882-0.18125 0.45684-0.54077
  -2   3   0 9691.98 166.117   1-0.78271 0.60090-0.36919 0.63676 0.79167-0.87561
  -2   3   0 10070.0 220.571   0-0.49247 0.31067-0.15818 0.42575 0.91241-0.99634
   2  -3   0 9719.03 209.223   5 0.92138-0.73957 0.47001-0.73758-0.43787 0.52180
  -2   3  -1 7427.50 167.905   2 0.35939-0.52010 0.59393-0.28529 0.30509-0.47708
  -2   3  -1 7184.69 193.891   0-0.64033 0.47962 0.01272 0.29592 0.78016-0.95215
  -2   3  -1 7273.20 162.180   1-0.76613 0.60542-0.08939 0.39803 0.74540-0.91738
   2  -3   1 7285.06 182.757   5 0.96569-0.80498 0.33801-0.64665-0.40770 0.57969
   2  -3   2 23153.7 308.124   5 0.99029-0.85068 0.19011-0.53982-0.36623 0.62626
  -2   3  -2 22319.8 317.352   0-0.73280 0.59318 0.15726 0.19245 0.62745-0.88748
  -2   3  -2 23589.6 299.994   2 0.36486-0.50447 0.68719-0.33748 0.19016-0.45019
  -2   3  -2 22827.7 254.706   1-0.68267 0.54305 0.19781 0.15190 0.63413-0.89416
  -2   3  -3 5682.84 196.715   2 0.36514-0.48366 0.75334-0.36256 0.09711-0.44519
  -2   3  -3 6236.81 221.239   0-0.78283 0.66431 0.27053 0.12025 0.47965-0.82773
  -2   3  -3 5519.59 163.953   1-0.55674 0.43823 0.44152-0.05074 0.48684-0.83492
   2  -3   3 5894.76 188.283   5 0.99087-0.87235 0.03282-0.42360-0.31428 0.66236
   2  -3   4 5634.39 206.202   5 0.96574-0.86832-0.12743-0.30442-0.25346 0.68959
  -2   3  -4 5900.57 229.104   0-0.80532 0.70790 0.35758 0.07426 0.34604-0.78217
  -2   3  -4 5801.10 213.819   2 0.36257-0.45999 0.80368-0.37183 0.01740-0.45352
  -2   3  -5 867.365 173.608   0-0.81070 0.73437 0.42505 0.04786 0.22737-0.75155
  -2   3  -5 776.670 148.995   2 0.35812-0.43444 0.84380-0.37089-0.05382-0.47035
  -2   3  -6 6543.22 264.076   2 0.35222-0.40745 0.87666-0.36267-0.11936-0.49286
  -2   3  -7 1467.03 187.065   2 0.34507-0.37921 0.90392-0.34886-0.18094-0.51933
  -2   3  -8 239.132 143.558   2 0.33676-0.34980 0.92655-0.33042-0.23967-0.54866
   2  -2  -9 2276.40 219.262   3 0.99510-0.61443 0.12317 0.07463-0.17038-0.58277
   2  -2  -8 14437.1 360.188   3 0.98408-0.62450 0.14348 0.01324-0.11183-0.55328
   2  -2  -7 2525.03 181.139   3 0.96636-0.62788 0.16331-0.04765-0.05124-0.52582
   2  -2  -6 25.0083 51.1874   3 0.94117-0.62378 0.18275-0.10817 0.01205-0.50106
   2  -2  -5 9825.81 200.503   5 0.46039-0.16410 0.92455-0.89103-0.44720 0.04623
   2  -2  -5 9959.37 238.373   3 0.90715-0.61086 0.20191-0.16840 0.07899-0.47995
   2  -2  -5 10475.6 205.708   2 0.25879 0.03750 0.98188-0.94837-0.56775 0.16679
  -2   2   4 9649.13 230.179   0 0.33091-0.60611-0.64666 0.65421 0.78784-0.47493
   2  -2  -4 9931.53 199.431   5 0.48318-0.20799 0.91482-0.92238-0.45096 0.13804
   2  -2  -4 10237.9 169.394   2 0.23615 0.03905 0.97466-0.98222-0.62995 0.31704
   2  -2  -4 9875.44 223.547   3 0.86200-0.58681 0.22087-0.22842 0.15090-0.46382
   2  -2  -3 32086.3 300.190   5 0.53038-0.27628 0.89217-0.94080-0.45792 0.23305
  -2   2   3 32273.8 222.682   4-0.65804 0.40395-0.77297 0.82160 0.27059-0.04573
  -2   2   3 33817.3 345.603   0 0.23071-0.48481-0.61854 0.66716 0.86123-0.63636
   2  -2  -3 31139.8 317.764   3 0.80182-0.54772 0.23959-0.28822 0.22968-0.45455
  -2   2   2 107802. 523.166   0 0.07132-0.30432-0.55543 0.64513 0.94381-0.80699
   2  -2  -2 105538. 498.001   3 0.71983-0.48683 0.25781-0.34750 0.31793-0.45474
   2  -2  -2 105416. 496.023   5 0.60212-0.36912 0.85053-0.94023-0.46611 0.32929
  -2   2   1 35265.0 310.452   0-0.15266-0.05924-0.43205 0.56282 0.99535-0.94658
   2  -2  -1 36072.5 303.763   5 0.69413-0.48223 0.78169-0.91246-0.47150 0.42274
  -2   2   0 273753. 763.474   0-0.39956 0.20875-0.24578 0.41762 0.95873-0.99801
   2  -2   0 278134. 768.274   5 0.79568-0.60487 0.67779-0.84962-0.46820 0.50748
  -2   2  -1 34686.7 304.395   0-0.59735 0.42764-0.04224 0.25514 0.82842-0.95575
  -2   2  -1 33520.2 235.921   1-0.78460 0.61488-0.26757 0.48047 0.78246-0.90978
  -2   2  -1 35793.3 266.055   2 0.36526-0.53497 0.70380-0.49089 0.16784-0.29517
   2  -2   1 33709.1 297.914   5 0.89017-0.72046 0.53558-0.74848-0.45003 0.57736
  -2   2  -2 21211.0 254.163   2 0.36459-0.51320 0.77026-0.51629 0.07131-0.28669
   2  -2   2 20388.9 247.764   5 0.95992-0.81131 0.35981-0.61379-0.41316 0.62854
  -2   2  -2 20939.5 197.494   1-0.70233 0.55371 0.14680 0.10718 0.65853-0.87391
  -2   2  -2 21841.1 288.768   0-0.71783 0.56922 0.13024 0.12374 0.65892-0.87429
  -2   2  -3 408.696 88.9207   2 0.36148-0.48900 0.81587-0.52083-0.00341-0.30002
  -2   2  -3 436.379 78.1367   0-0.77898 0.65146 0.25968 0.03536 0.49499-0.79841
   2  -2   3 435.020 85.5576   5 0.99224-0.86472 0.16237-0.45742-0.35764 0.66106
  -2   2  -3 455.028 57.9360   3 0.35378-0.48130-0.21957 0.51461-0.74787 0.44445
  -2   2  -3 428.333 54.8180   1-0.53181 0.40429 0.47934-0.18429 0.45881-0.76223
  -2   2  -4 342.323 121.718   0-0.80479 0.69837 0.35445-0.01834 0.35120-0.74267
   2  -2   4 386.346 85.4609   5 0.98230-0.87588-0.04232-0.29380-0.28675 0.67822
  -2   2  -4 329.678 105.479   2 0.35702-0.46344 0.85106-0.51494-0.06764-0.32383
  -2   2  -5 19893.5 354.561   2 0.35151-0.43684 0.87982-0.50263-0.12610-0.35343
  -2   2  -5 20854.6 398.091   0-0.81070 0.72537 0.42506-0.04787 0.22737-0.70689
  -2   2  -6 2018.30 166.939   2 0.34506-0.40929 0.90396-0.48571-0.18104-0.38653
  -2   2  -7 877.479 161.805   2 0.33768-0.38081 0.92440-0.46508-0.23369-0.42193
  -2   2  -8 140.253 130.188   2 0.32935-0.35139 0.94162-0.44122-0.28479-0.45888
  -2   2  -9 138.916 190.685   2 0.32004-0.32098 0.95583-0.41437-0.33477-0.49694
   2  -1  -8 37.9802 90.2547   3 0.98582-0.61724 0.14096 0.11149-0.11928-0.59049
   2  -1  -7 5457.49 229.246   1 0.30741 0.04007 0.96986-0.75847-0.39980-0.22192
   2  -1  -7 6334.29 248.560   3 0.96637-0.61889 0.16330 0.04809-0.05127-0.57044
   2  -1  -6 20.3365 57.2851   1 0.28565 0.04074 0.97205-0.80173-0.37915-0.15452
   2  -1  -6 91.2844 91.5790   2 0.31348 0.01291 0.96346-0.79314-0.36659-0.16708
   2  -1  -6 26.1594 52.4202   3 0.93711-0.61072 0.18537-0.01505 0.02090-0.55457
   2  -1  -5 981.525 120.722   1 0.27031 0.03498 0.97306-0.84381-0.36454-0.08108
   2  -1  -5 1056.16 118.962   3 0.89572-0.59043 0.20726-0.07801 0.09862-0.54424
   2  -1  -4 1778.35 108.092   2 0.32330-0.03911 0.95135-0.86317-0.31796-0.03961
   2  -1  -4 1691.65 114.185   3 0.83832-0.55412 0.22894-0.14076 0.18374-0.54131
  -2   1   3 4319.33 106.285   4-0.21371-0.04939-0.98972 0.94261 0.41998-0.15046
   2  -1  -3 3822.69 136.683   1 0.27295-0.00985 0.97292-0.92581-0.36706 0.09754
   2  -1  -3 4004.11 130.293   3 0.75836-0.49526 0.25008-0.20297 0.27864-0.54816
   2  -1  -3 4334.85 111.931   2 0.32293-0.05983 0.95189-0.90478-0.31993 0.05041
  -2   1   3 4111.33 133.491   0 0.36662-0.62972-0.65424 0.60713 0.75715-0.48763
  -2   1   2 25814.4 212.590   4-0.30305 0.06105-0.97107 0.96503 0.40114-0.21967
   2  -1  -2 24601.9 268.272   1 0.30537-0.06337 0.97010-0.96406-0.39786 0.21639
  -2   1   2 25949.2 264.072   0 0.24005-0.48205-0.62156 0.61552 0.85513-0.67366
   2  -1  -1 54641.2 342.845   5 0.39057-0.16967 0.94981-0.98484-0.43416 0.34074
  -2   1   1 58283.5 311.923   4-0.40973 0.18882-0.93474 0.96977 0.37233-0.27891
  -2   1   1 58354.3 341.640   0 0.02310-0.24400-0.53225 0.56728 0.96118-0.86776
  -2   1   0 650077. 4016.22   4-0.52008 0.32027-0.87841 0.95451 0.33411-0.32874
  -2   1   0 652090. 4072.23   0-0.27610 0.07630-0.34626 0.42237 0.99069-0.98531
  -2   1  -1 176427. 581.438   4-0.62371 0.44500-0.80367 0.92084 0.28840-0.37107
  -2   1  -1 187280. 588.982   0-0.54766 0.36895-0.09988 0.21705 0.87326-0.95593
  -2   1  -1 186381. 462.598   2 0.34711-0.52582 0.89709-0.77992-0.16473 0.08206
   2  -1   1 171792. 541.706   5 0.69176-0.51305 0.78373-0.90090-0.47145 0.55412
  -2   1  -2 57322.1 307.147   3 0.34212-0.49974-0.22188 0.38012-0.74812 0.57740
  -2   1  -2 63319.0 356.170   2 0.34875-0.50637 0.89108-0.73284-0.15093-0.01979
   2  -1   2 61290.2 333.094   5 0.85110-0.69349 0.60206-0.76030-0.46009 0.63081
  -2   1  -2 64941.4 390.058   0-0.70758 0.54997 0.11278 0.04546 0.67852-0.84924
  -2   1  -3 14864.4 181.509   3 0.55794-0.69446-0.17113 0.37044-0.72254 0.46377
  -2   1  -3 15116.2 234.691   0-0.77978 0.64326 0.26189-0.06258 0.49188-0.75065
   2  -1   3 15159.7 187.294   5 0.96132-0.82480 0.35473-0.55404-0.41191 0.67068
  -2   1  -4 6803.70 199.289   2 0.34305-0.45847 0.91015-0.66977-0.19628-0.15054
  -2   1  -4 7322.82 199.796   0-0.80623 0.69081 0.36335-0.12297 0.33647-0.68329
   2  -1   4 6780.00 146.287   5 0.99314-0.87772 0.07364-0.31402-0.32850 0.67532
  -2   1  -4 6963.73 144.576   3 0.68432-0.79974-0.13154 0.37192-0.68177 0.33495
  -2   1  -5 11446.5 272.214   2 0.33822-0.43255 0.92309-0.64164-0.23009-0.20477
  -2   1  -6 18.6201 81.7042   2 0.33239-0.40562 0.93590-0.61338-0.26693-0.25598
  -2   1  -7 5320.32 261.494   2 0.32561-0.37774 0.94787-0.58428-0.30563-0.30533
  -2   1  -8 8142.98 323.699   2 0.31787-0.34891 0.95854-0.55388-0.34555-0.35346
  -2   1  -9 4725.83 315.450   2 0.30915-0.31909 0.96761-0.52188-0.38633-0.40073
  -2   1 -10 474.623 206.278   2 0.29941-0.28826 0.97480-0.48800-0.42771-0.44740
   2   0  -9 73.3976 130.163   1 0.30159 0.09709 0.97053-0.58127-0.39428-0.44818
   2   0  -8 2100.80 187.657   1 0.26112 0.11646 0.97346-0.62527-0.35577-0.39865
   2   0  -7 19.3861 94.3021   2 0.32987 0.02662 0.94069-0.63356-0.28181-0.38455
   2   0  -7-1.25184 69.1423   1 0.22210 0.13439 0.97350-0.66638-0.31832-0.34805
   2   0  -6 9498.85 265.152   2 0.33953-0.00414 0.91981-0.65376-0.22124-0.35708
   2   0  -6 9225.59 281.472   1 0.18489 0.15049 0.97113-0.70507-0.28236-0.29596
   2   0  -6 9352.12 247.296   3 0.93943-0.60404 0.18388 0.08217 0.01587-0.59419
   2   0  -5 753.925 94.1083   2 0.34834-0.03405 0.89263-0.66765-0.15445-0.33583
   2   0  -5 864.872 113.595   1 0.15008 0.16421 0.96685-0.74186-0.24849-0.24179
   2   0  -5 958.443 135.154   3 0.89264-0.57835 0.20862 0.01636 0.10372-0.59399
   2   0  -4 1830.03 118.285   1 0.11862 0.17457 0.96132-0.77741-0.21770-0.18453
   2   0  -4 1818.15 119.087   3 0.82500-0.53180 0.23305-0.04914 0.20110-0.60332
   2   0  -4 1856.61 120.112   2 0.35625-0.06305 0.85577-0.67186-0.07681-0.32541
  -2   0   3 42791.3 288.393   4 0.23560-0.50770-0.94143 0.79859 0.45088-0.13671
   2   0  -3 38997.2 370.126   1 0.09222 0.17988 0.95549-0.81265-0.19173-0.12245
   2   0  -3 42277.9 315.953   2 0.36279-0.09070 0.80083-0.65799 0.02216-0.33633
   2   0  -3 39637.1 345.342   3 0.72745-0.45535 0.25638-0.11354 0.31042-0.62460
  -2   0   2 18423.7 197.854   4 0.16118-0.41218-0.96554 0.86376 0.45300-0.22687
   2   0  -2 16739.5 232.054   1 0.07418 0.17682 0.95089-0.84912-0.17392-0.05221
   2   0  -2 18252.3 180.689   2 0.36521-0.11421 0.70135-0.59957 0.17117-0.39730
  -2   0   1 8790.09 157.121   4 0.04590-0.27581-0.99003 0.92933 0.45051-0.31243
   2   0  -1 8275.31 149.643   1 0.07174 0.15816 0.95023-0.88953-0.17150 0.03343
  -2   0   1 9211.15 150.007   0 0.22155-0.45145-0.61550 0.55479 0.86706-0.72899
  -2   0   0 108009. 387.020   0-0.10441-0.10440-0.46204 0.44241 0.99058-0.94055
  -2   0   0 100265. 406.620   4-0.10440-0.10441-0.99929 0.97966 0.43708-0.38705
   2   0   0 94485.7 356.947   1 0.10440 0.10441 0.95831-0.93868-0.20372 0.15369
  -2   0  -1 237699. 563.438   0-0.48781 0.30010-0.16286 0.18430 0.91528-0.95329
  -2   0  -1 219918. 591.047   4-0.27383 0.08611-0.97829 0.99973 0.40781-0.44583
   2   0   2 61797.0 290.245   5 0.52163-0.35502 0.89664-0.95914-0.45672 0.58278
  -2   0  -2 54895.9 316.671   4-0.44188 0.27526-0.92046 0.98296 0.36215-0.48822
  -2   0  -2 57008.5 323.647   3 0.48471-0.65132-0.19039 0.25290-0.73657 0.61050
  -2   0  -2 60248.6 328.926   0-0.70801 0.54139 0.11349-0.05099 0.67772-0.80379
  -2   0  -2 59213.9 313.847   2 0.28135-0.44797 0.98181-0.91930-0.49544 0.36937
  -2   0  -3 2707.68 114.575   4-0.59213 0.44661-0.82908 0.93266 0.30352-0.51763
  -2   0  -3 2710.37 98.3627   3 0.66444-0.80997-0.13839 0.24197-0.68983 0.47571
  -2   0  -3 2805.10 111.285   0-0.78775 0.64223 0.28541-0.18184 0.45815-0.67227
  -2   0  -3 2781.33 100.217   2 0.30476-0.45028 0.97120-0.86762-0.40549 0.19137
   2   0   3 2679.69 81.4428   5 0.79992-0.65440 0.67258-0.77616-0.46777 0.68189
  -2   0  -4 101.385 61.5142   3 0.76453-0.88895-0.10080 0.24545-0.64124 0.33908
   2   0   4 64.6080 32.0272   5 0.97842-0.85399 0.27922-0.42387-0.39212 0.69429
  -2   0  -4 96.5979 72.5924   0-0.80936 0.68493 0.38944-0.24479 0.29189-0.59405
  -2   0  -5 5068.53 157.645   3 0.81593-0.91925-0.07779 0.26351-0.60661 0.21640
  -2   0  -5 4723.67 172.642   2 0.31315-0.41648 0.96380-0.77808-0.36814-0.02208
  -2   0  -6 3610.97 152.155   3 0.83987-0.92210-0.06587 0.29266-0.58734 0.10908
  -2   0  -6 3729.15 202.580   2 0.31094-0.39317 0.96597-0.73918-0.37828-0.09998
  -2   0  -7 11879.6 343.152   2 0.30664-0.36777 0.96974-0.70188-0.39740-0.16891
  -2   0  -8 3513.17 232.331   2 0.30075-0.34079 0.97397-0.66505-0.42226-0.23209
  -2   0  -9 14269.7 451.610   2 0.29350-0.31244 0.97791-0.62791-0.45104-0.29137
  -2   0 -10 1580.85 304.507   2 0.28500-0.28285 0.98096-0.58989-0.48256-0.34790
   2   1  -8 328.510 135.238   1 0.19887 0.18771 0.97229-0.52836-0.29590-0.50317
   2   1  -7 27.4943 92.2747   2 0.34373 0.02176 0.90812-0.50526-0.19120-0.51982
   2   1  -7 40.1501 66.2570   1 0.14948 0.21600 0.96676-0.56390-0.24790-0.46312
   2   1  -6 2815.86 207.982   2 0.35272-0.00833 0.87434-0.51256-0.11447-0.50851
   2   1  -6 2651.14 182.404   1 0.09995 0.24444 0.95731-0.59552-0.19934-0.42363
   2   1  -5 11133.7 295.278   2 0.35998-0.03668 0.82969-0.50898-0.02784-0.50709
   2   1  -5 10824.8 237.631   3 0.89946-0.57617 0.20555 0.11516 0.09231-0.62724
   2   1  -4 4767.04 175.403   2 0.36466-0.06246 0.76849-0.48884 0.07406-0.52094
   2   1  -4 4400.27 176.218   1-0.00059 0.30279 0.92657-0.64692-0.09952-0.34736
   2   1  -4 4476.91 150.238   3 0.82480-0.52261 0.23311 0.04653 0.20135-0.64823
  -2  -1   3 418.253 75.7401   4 0.48086-0.76196-0.80971 0.57114 0.42042-0.06159
   2   1  -3 430.827 85.2965   1-0.05249 0.33359 0.90474-0.66616-0.04735-0.31148
   2   1  -3 488.133 85.7536   3 0.71346-0.43236 0.25896-0.02038 0.32410-0.68293
   2   1  -2 11074.3 185.659   2 0.35378-0.09378 0.53690-0.33939 0.36815-0.63894
  -2  -1   2 11135.4 186.135   4 0.45092-0.71092-0.83067 0.63316 0.42633-0.15555
   2   1  -2 9838.94 200.562   1-0.10659 0.36659 0.87764-0.68013 0.00751-0.27829
   2   1  -1 1278.51 107.195   1-0.16466 0.40357 0.84350-0.68706 0.06694-0.24968
   2   1  -1 1365.47 84.3707   2 0.31434-0.07544 0.28661-0.13017 0.59740-0.78013
  -2  -1   0 56623.7 336.476   4 0.28683-0.50464-0.92086 0.80549 0.44764-0.35295
   2   1   0 56214.2 278.315   2 0.20306 0.01475-0.14767 0.26304 0.85804-0.95273
   2   1   0 53231.9 315.889   1-0.23058 0.44839 0.79815-0.68278 0.13513-0.22981
  -2  -1  -1 378.733 75.3132   3 0.30633-0.50305-0.22868 0.15439-0.74815 0.75479
   2   1   1 390.034 67.2661   1-0.31454 0.51125 0.72944-0.65514 0.22315-0.22979
  -2  -1  -1 415.157 65.4591   4 0.14021-0.33693-0.97113 0.89684 0.45306-0.44642
  -2  -1  -2 43935.5 300.911   4-0.04601-0.12961-0.99873 0.96551 0.44366-0.52507
  -2  -1  -2 42616.0 302.082   3 0.55802-0.73364-0.17110 0.13788-0.72252 0.64111
  -2  -1  -2 42715.6 231.342   0-0.73191 0.55629 0.15560-0.18883 0.62943-0.71084
  -2  -1  -3 1037.10 74.5019   4-0.25349 0.09897-0.98267 0.99051 0.41215-0.58161
  -2  -1  -3 1035.67 87.0392   3 0.71637-0.87090-0.11989 0.12773-0.66723 0.49777
  -2  -1  -3 1102.49 88.2788   0-0.80322 0.64870 0.34585-0.33800 0.36523-0.53469
  -2  -1  -3 1075.33 89.1158   2 0.22025-0.37477 0.96608-0.95824-0.66863 0.49917
  -2  -1  -4 17339.2 224.982   3 0.80381-0.93724-0.08351 0.13242-0.61553 0.35802
  -2  -1  -4 17945.0 247.405   2 0.25480-0.38822 0.98109-0.93217-0.57940 0.32189
  -2  -1  -4 17651.4 197.884   4-0.45650 0.32307-0.91341 0.96232 0.35728-0.61479
  -2  -1  -5 3741.64 121.867   4-0.63312 0.52079-0.79558 0.88557 0.28367-0.62922
  -2  -1  -5 3638.33 144.896   3 0.84921-0.96154-0.06097 0.15095-0.57916 0.23361
  -2  -1  -5 3492.30 140.437   2 0.27051-0.38284 0.98288-0.89290-0.53167 0.18611
  -2  -1  -6 8367.06 224.773   2 0.27696-0.36820 0.98249-0.85144-0.51047 0.07686
  -2  -1  -6 9103.29 233.165   3 0.87101-0.96224-0.04888 0.17993-0.55837 0.12477
  -2  -1  -7 791.576 106.797   3 0.87887-0.94900-0.04426 0.21639-0.55022 0.02856
  -2  -1  -7 743.264 125.481   2 0.27823-0.34837 0.98233-0.81021-0.50618-0.01547
  -2  -1  -8 17382.7 340.794   3 0.87752-0.92656-0.04507 0.25826-0.55164-0.05806
  -2  -1  -8 17736.3 375.493   2 0.27619-0.32523 0.98258-0.76939-0.51305-0.09665
  -2  -1  -9 449.679 176.810   2 0.27179-0.29973 0.98286-0.72860-0.52755-0.17020
  -2  -1 -10 6449.76 352.818   2 0.26550-0.27235 0.98271-0.68738-0.54746-0.23833
  -2  -1 -11 2881.27 358.909   2 0.25758-0.24333 0.98166-0.64526-0.57132-0.30252
   2   2  -8 1988.60 251.567   1 0.14860 0.24698 0.96662-0.42696-0.24704-0.59669
   2   2  -7 5745.13 309.159   1 0.09145 0.28304 0.95530-0.45671-0.19097-0.56471
   2   2  -7 6380.08 335.760   2 0.35149 0.02299 0.87991-0.38132-0.12629-0.62939
   2   2  -6 10368.2 302.229   1 0.03320 0.32019 0.93861-0.48109-0.13326-0.53437
   2   2  -6 10994.3 341.927   2 0.35905-0.00566 0.83706-0.37954-0.04127-0.62636
   2   2  -5 22.1656 84.5862   1-0.02666 0.35895 0.91611-0.49966-0.07337-0.50621
   2   2  -5 39.1271 71.4960   2 0.36405-0.03175 0.78162-0.36517 0.05346-0.63304
   2   2  -4 21.3876 57.1740   2 0.36533-0.05413 0.70834-0.33296 0.16162-0.65315
   2   2  -4 84.7934 87.9689   1-0.08886 0.40006 0.88701-0.51163-0.01052-0.48102
   2   2  -3 3853.84 155.109   2 0.36055-0.07045 0.60832-0.27401 0.28839-0.69188
  -2  -2   3 3775.00 155.430   4 0.59526-0.88536-0.71381 0.37950 0.39073 0.01276
   2   2  -3 3362.29 164.767   1-0.15442 0.44452 0.84991-0.51560 0.05642-0.45991
   2   2  -3 3833.70 130.115   3 0.71958-0.42948 0.25785 0.07646 0.31817-0.72165
  -2  -2   2 23256.5 284.710   4 0.58910-0.85811-0.71970 0.42646 0.39265-0.07721
   2   2  -2 22915.5 303.133   1-0.22485 0.49386 0.80238-0.50914 0.12917-0.44461
   2   2  -1 49362.6 361.652   2 0.30907-0.06116 0.26050-0.00833 0.61760-0.84499
  -2  -2   1 49388.7 378.527   4 0.56310-0.81101-0.74356 0.49139 0.40033-0.17294
   2   2  -1 47103.7 387.782   1-0.30245 0.55035 0.74014-0.48796 0.21039-0.43778
  -2  -2   0 92796.7 478.051   4 0.51126-0.73807-0.78680 0.57570 0.41368-0.27434
   2   2   0 89232.1 465.758   1-0.39063 0.61744 0.65524-0.44413 0.30423-0.44357
  -2  -2  -1 10516.3 194.397   4 0.42534-0.63105-0.84739 0.67736 0.43085-0.37955
  -2  -2  -1 10301.2 177.556   3 0.34783-0.55355-0.22075 0.05072-0.74801 0.79930
  -2  -2  -2 264.133 68.5325   4 0.29664-0.48126-0.91653 0.78757 0.44684-0.48360
   2   2   2 240.757 62.0749   1-0.61411 0.79873 0.34363-0.21467 0.55251-0.51576
  -2  -2  -2 234.193 60.2996   3 0.58600-0.77062-0.16309 0.03413-0.71547 0.67871
   2   2   3 8810.23 126.423   1-0.73205 0.89557 0.05613 0.03176 0.69690-0.57209
  -2  -2  -3 9418.97 163.653   4 0.12087-0.28439-0.97584 0.88795 0.45291-0.57772
  -2  -2  -3 8706.40 187.230   3 0.73477-0.89829-0.11284 0.02495-0.65794 0.53313
   2   2   4 19861.0 177.979   1-0.78501 0.92744-0.29193 0.33875 0.78550-0.57265
  -2  -2  -4 19787.4 259.223   3 0.81826-0.96069-0.07667 0.02985-0.60483 0.39197
  -2  -2  -4 18983.0 211.397   4-0.09493-0.04750-0.99947 0.95265 0.43826-0.65112
  -2  -2  -5 10339.1 165.638   4-0.32916 0.20782-0.96366 0.95791 0.39476-0.69566
  -2  -2  -5 10030.3 204.170   3 0.86285-0.98418-0.05352 0.04777-0.56646 0.26555
  -2  -2  -6 6476.29 186.366   3 0.88534-0.98557-0.04035 0.07567-0.54319 0.15424
  -2  -2  -6 6753.07 226.423   2 0.22816-0.32839 0.97068-0.93536-0.64986 0.26091
  -2  -2  -7 15.5686 43.2626   3 0.89474-0.97388-0.03446 0.11084-0.53246 0.05546
  -2  -2  -7 41.1156 62.9189   2 0.23848-0.31762 0.97569-0.89931-0.62394 0.14694
  -2  -2  -8 1860.86 158.070   3 0.89561-0.95365-0.03390 0.15136-0.53144-0.03361
  -2  -2  -8 2174.41 189.468   2 0.24273-0.30077 0.97741-0.85995-0.61280 0.04775
  -2  -2  -9 1534.90 154.355   3 0.89015-0.92709-0.03737 0.19589-0.53779-0.11531
  -2  -2  -9 1671.61 211.518   2 0.24286-0.27981 0.97746-0.81893-0.61243-0.04066
  -2  -2 -10 1873.45 256.380   2 0.24001-0.25585 0.97633-0.77674-0.61998-0.12117
  -2  -2 -11 156.165 186.130   2 0.23478-0.22954 0.97403-0.73336-0.63341-0.19578
   2   3  -7 986.616 189.891   1 0.04786 0.33563 0.94329-0.34897-0.14783-0.65250
   2   3  -7 1267.53 270.846   2 0.35572 0.02777 0.85885-0.26453-0.08288-0.71746
   2   3  -6 1799.60 253.645   2 0.36197 0.00042 0.81063-0.25738 0.00562-0.71790
   2   3  -6 1728.88 197.989   1-0.01603 0.37842 0.92050-0.36725-0.08405-0.62823
   2   3  -5 34746.8 517.091   1-0.08168 0.42297 0.89067-0.37849-0.01781-0.60643
   2   3  -5 36317.4 554.803   2 0.36522-0.02392 0.74987-0.23768 0.10229-0.72653
   2   3  -4 7820.39 287.167   2 0.36435-0.04415 0.67254-0.20142 0.20934-0.74553
   2   3  -4 7047.27 253.978   1-0.14970 0.46990 0.85280-0.38169 0.05158-0.58777
   2   3  -3 151.093 64.5239   2 0.35748-0.05837 0.57268-0.14263 0.32916-0.77730
  -2  -3   3 202.708 104.727   4 0.64847-0.94757-0.65891 0.22886 0.37229 0.07585
   2   3  -3 147.808 86.9965   1-0.22082 0.51992 0.80532-0.37528 0.12498-0.57312
   2   3  -2 171.387 95.7956   2 0.34139-0.06338 0.44188-0.05291 0.46342-0.82351
  -2  -3   2 64.4026 46.4457   4 0.65317-0.93118-0.65367 0.26470 0.37049-0.01040
   2   3  -2 180.307 114.113   1-0.29588 0.57389 0.74583-0.35685 0.20347-0.56357
   2   3  -1-3.17261 29.7928   2 0.31102-0.05411 0.27003 0.07788 0.61031-0.88235
   2   3  -1 1.74525 29.3662   1-0.37581 0.63272 0.67066-0.32276 0.28833-0.56037
  -2  -3   0 28697.5 318.727   4 0.61961-0.85542-0.68963 0.38279 0.38271-0.19872
   2   3   0 27689.5 336.148   1-0.46120 0.69702 0.57446-0.26763 0.38072-0.56472
   2   3   0 27862.4 312.581   2 0.25984-0.02403 0.05023 0.25661 0.75869-0.94268
  -2  -3  -1 37886.4 302.031   3 0.34886-0.56357-0.22055-0.04522-0.74799 0.84394
  -2  -3  -1 37642.8 345.457   4 0.57298-0.78770-0.73467 0.46891 0.39749-0.30155
   2   3   1 36408.4 340.571   1-0.55146 0.76618 0.44975-0.18398 0.48087-0.57682
  -2  -3  -2 965.684 92.9265   3 0.58213-0.77575-0.16423-0.06047-0.71650 0.72440
   2   3   2 900.380 93.3896   1-0.64238 0.83600 0.28827-0.06357 0.58565-0.59355
  -2  -3  -2 865.786 109.562   4 0.49734-0.69096-0.79750 0.57281 0.41686-0.40896
   2   3   3 152584. 561.313   1-0.72259 0.89511 0.08725 0.09637 0.68444-0.60429
  -2  -3  -3 152993. 607.258   4 0.38364-0.55616-0.87243 0.68880 0.43721-0.51736
  -2  -3  -3 154412. 640.454   3 0.72998-0.90250-0.11470-0.06892-0.66043 0.58028
  -2  -3  -4 3520.84 121.786   4 0.22376-0.37519-0.94572 0.80316 0.45142-0.61962
  -2  -3  -4 3615.72 164.744   3 0.81546-0.96689-0.07802-0.06454-0.60696 0.43876
   2   3   4 3613.57 123.707   1-0.77368 0.92511-0.13739 0.27994 0.75786-0.58966
   2   3   5 156.828 75.5076   1-0.78394 0.91428-0.34721 0.44869 0.79047-0.53423
  -2  -3  -5 134.820 88.7009   3 0.86284-0.99317-0.05353-0.04796-0.56647 0.31022
  -2  -3  -5 104.653 49.5947   4 0.01588-0.14621-0.99392 0.89243 0.44874-0.70499
  -2  -3  -6 6779.14 207.951   3 0.88807-0.99730-0.03867-0.02175-0.54015 0.19585
  -2  -3  -7 9419.38 261.917   3 0.90006-0.98820-0.03101 0.01166-0.52609 0.09374
  -2  -3  -7 9969.38 305.355   2 0.18753-0.27567 0.94092-0.96027-0.73759 0.30525
  -2  -3  -8 12294.4 312.029   3 0.90350-0.97055-0.02872 0.05045-0.52183 0.00144
  -2  -3  -8 11878.5 344.465   2 0.19995-0.26700 0.95156-0.92984-0.71296 0.19257
  -2  -3  -9 542.568 120.698   3 0.90079-0.94674-0.03053 0.09332-0.52519-0.08325
  -2  -3  -9 520.417 168.376   2 0.20620-0.25215 0.95643-0.89363-0.69987 0.09143
  -2  -3 -10 14117.4 417.925   2 0.20801-0.23286 0.95777-0.85391-0.69599-0.00050
  -2  -3 -10 12403.7 363.738   3 0.89305-0.91790-0.03554 0.13940-0.53445-0.16204
  -2  -3 -11 596.233 184.817   3 0.88070-0.88446-0.04317 0.18810-0.54826-0.23628
  -2  -3 -11 589.990 195.330   2 0.20644-0.21020 0.95660-0.81167-0.69936-0.08518
   2   4  -7 47.4619 138.082   1 0.01749 0.37500 0.93322-0.24317-0.11760-0.72739
   2   4  -7 134.372 149.931   2 0.35788 0.03460 0.84540-0.15534-0.05684-0.78815
   2   4  -6 1330.27 258.499   2 0.36325 0.00814 0.79460-0.14561 0.03248-0.78942
   2   4  -6 1296.16 194.905   1-0.04980 0.42120 0.90597-0.25698-0.05006-0.70688
   2   4  -5 290.457 163.690   2 0.36544-0.01515 0.73211-0.12419 0.12823-0.79712
   2   4  -5 330.703 159.781   1-0.11846 0.46875 0.87109-0.26317 0.01961-0.68850
   2   4  -4 6387.62 283.458   2 0.36356-0.03436 0.65507-0.08822 0.23162-0.81246
   2   4  -4 5670.36 277.377   1-0.18882 0.51802 0.82771-0.26086 0.09184-0.67269
   2   4  -3 3832.09 208.110   2 0.35620-0.04809 0.55964-0.03386 0.34359-0.83639
  -2  -4   3 3752.43 196.970   4 0.67156-0.97966-0.63255 0.10677 0.36315 0.12964
   2   4  -3 3533.64 200.227   1-0.26122 0.56933 0.77455-0.24877 0.16709-0.65989
   2   4  -2 744.082 162.693   2 0.34126-0.05426 0.44106 0.04365 0.46420-0.86895
   2   4  -2 758.078 136.729   1-0.33589 0.62289 0.70984-0.22513 0.24577-0.65052
  -2  -4   2 825.320 130.208   4 0.68174-0.96875-0.62038 0.13567 0.35888 0.04587
   2   4  -1 2036.62 152.309   2 0.31588-0.04997 0.29442 0.14922 0.59123-0.90792
   2   4  -1 1929.49 131.919   1-0.41277 0.67868 0.63124-0.18760 0.32808-0.64478
   2   4   0 1842.66 157.297   1-0.49127 0.73608 0.53592-0.13335 0.41376-0.64241
  -2  -4   0 1682.10 135.463   4 0.67059-0.91540-0.63370 0.23113 0.36355-0.13490
   2   4   0 1913.87 149.596   2 0.27677-0.03195 0.11712 0.28545 0.71786-0.94651
  -2  -4   0 1643.86 137.501   5 0.68418-0.92900-0.64110 0.23853 0.00309 0.22556
  -2  -4  -1 11094.3 237.335   5 0.71235-0.93607-0.61040 0.24890-0.01572 0.15632
   2   4   1 11446.6 237.323   2 0.22174 0.00198-0.08633 0.44783 0.83069-0.97129
  -2  -4  -1 11250.0 189.326   3 0.31742-0.54114-0.22662-0.13488-0.74826 0.88886
  -2  -4  -1 11236.0 233.758   4 0.64470-0.86842-0.66306 0.30156 0.37371-0.23311
  -2  -4  -2 9772.71 194.866   5 0.73098-0.93361-0.58882 0.26839-0.02858 0.08114
  -2  -4  -2 10253.6 215.609   4 0.59977-0.80239-0.70945 0.38902 0.38929-0.33674
   2   4   2 9778.49 222.838   1-0.64428 0.84690 0.28434 0.03609 0.58790-0.64045
   2   4   3 2845.94 123.734   1-0.70905 0.89058 0.12794 0.15142 0.66704-0.63154
  -2  -4  -3 3081.31 138.021   5 0.73777-0.91929-0.58070 0.30134-0.03336-0.00214
  -2  -4  -3 3055.70 136.656   4 0.52929-0.71082-0.77237 0.49301 0.40931-0.44481
  -2  -4  -3 3083.75 132.340   3 0.70681-0.88834-0.12344-0.15592-0.67178 0.63628
   2   4   4 25412.5 301.969   1-0.75641 0.91684-0.03988 0.27817 0.73070-0.60715
  -2  -4  -4 25113.4 285.155   4 0.42485-0.58528-0.84770 0.60941 0.43093-0.55447
  -2  -4  -4 25483.0 330.890   3 0.79875-0.95918-0.08584-0.15245-0.61911 0.49556
  -2  -4  -4 25191.2 270.910   5 0.72805-0.88848-0.59229 0.35400-0.02654-0.09701
  -2  -4  -5 118434. 568.133   4 0.27736-0.41669-0.92491 0.72769 0.44835-0.65994
   2   4   5 119220. 575.701   1-0.78101 0.92034-0.20350 0.40072 0.77206-0.56047
  -2  -4  -5 119685. 496.657   5 0.69154-0.83087-0.63330 0.43608-0.00175-0.20984
   2   4   6 8970.34 206.100   1-0.78400 0.90224-0.34590 0.50205 0.79039-0.49075
  -2  -4  -6 8600.34 247.415   3 0.88157-0.99981-0.04264-0.11351-0.54732 0.24768
  -2  -4  -7 31.5323 48.6781   3 0.89718-0.99432-0.03289-0.08219-0.52957 0.14188
  -2  -4  -8 12991.8 335.709   3 0.90369-0.97973-0.02860-0.04541-0.52160 0.04586
  -2  -4  -9 1998.81 174.477   3 0.90380-0.95874-0.02853-0.00441-0.52146-0.04233
  -2  -4 -10 3919.23 294.056   3 0.89888-0.93274-0.03178 0.03991-0.52751-0.12432
  -2  -4 -10 3804.27 276.851   2 0.16966-0.20352 0.92351-0.91539-0.77005 0.11821
  -2  -4 -11 7.32234 74.0245   3 0.88956-0.90232-0.03773 0.08693-0.53845-0.20143
  -2  -4 -11 72.2773 156.064   2 0.17252-0.18528 0.92646-0.87726-0.76508 0.02520
  -2  -4 -12 588.897 250.094   2 0.17185-0.16350 0.92576-0.83550-0.76627-0.06166
  -2  -4 -12 370.714 167.043   3 0.87599-0.86765-0.04597 0.13624-0.55324-0.27469
   2   5  -6 517.338 170.549   1-0.07048 0.45087 0.89622-0.15150-0.02916-0.77243
   2   5  -5 1056.98 208.805   2 0.36546-0.00616 0.72551-0.02186 0.13765-0.85120
   2   5  -5 882.211 203.008   1-0.14049 0.49978 0.85836-0.15470 0.04213-0.75568
   2   5  -4 1715.44 232.046   2 0.36335-0.02514 0.65092 0.01166 0.23682-0.86232
   2   5  -4 1536.60 194.976   1-0.21137 0.54957 0.81212-0.14953 0.11517-0.74067
   2   5  -3 2755.57 223.159   2 0.35637-0.03926 0.56133 0.06018 0.34173-0.87918
  -2  -5   3 2763.49 243.196   4 0.67791-0.99502-0.62500 0.00349 0.36051 0.17694
   2   5  -3 2743.05 223.337   1-0.28316 0.60026 0.75663-0.13512 0.19009-0.72754
  -2  -5   2 34.0743 68.4122   4 0.69136-0.98737-0.60856 0.02811 0.35469 0.09471
   2   5  -2 12.8328 61.8036   1-0.35572 0.65173 0.69080-0.11035 0.26687-0.71627
  -2  -5   1 10.1268 56.7120   5 0.67182-0.94674-0.65390 0.11453 0.01112 0.35023
   2   5  -1 20.3371 67.0429   2 0.32200-0.04708 0.32642 0.21296 0.56536-0.92671
   2   5  -1 22.0294 54.5189   1-0.42860 0.70352 0.61335-0.07398 0.34522-0.70657
  -2  -5   1 38.3650 45.3266   4 0.69661-0.97152-0.60196 0.06259 0.35234 0.00901
   2   5   0 14119.1 306.305   1-0.50088 0.75469 0.52301-0.02471 0.42438-0.69768
  -2  -5   0 14653.3 335.993   5 0.70924-0.96306-0.61390 0.11560-0.01361 0.28691
  -2  -5   0 14416.3 319.662   4 0.69281-0.94663-0.60674 0.10844 0.35405-0.08074
   2   5   0 14638.6 310.761   2 0.29106-0.03724 0.17755 0.32076 0.67776-0.95107
  -2  -5  -1 139.074 96.8166   4 0.67831-0.91103-0.62452 0.16729 0.36034-0.17508
   2   5   1 210.061 99.5885   2 0.24909-0.01637 0.00993 0.44731 0.78152-0.96678
  -2  -5  -1 166.683 94.4937   5 0.73952-0.97224-0.57857 0.12134-0.03460 0.21985
   2   5   1 160.187 93.3544   1-0.57090 0.80362 0.41888 0.03835 0.50288-0.68813
  -2  -5  -2 15068.5 281.956   5 0.76221-0.97384-0.55010 0.13393-0.05099 0.14820
   2   5   2 14545.1 319.784   1-0.63607 0.84769 0.30112 0.11504 0.57820-0.67541
  -2  -5  -2 15509.8 301.201   4 0.65039-0.86202-0.65678 0.24061 0.37156-0.27435
  -2  -5  -2 15603.2 255.617   3 0.50288-0.71450-0.18583-0.23034-0.73365 0.83086
  -2  -5  -3 49367.5 449.246   4 0.60494-0.79547-0.70437 0.32928 0.38762-0.37846
  -2  -5  -3 49011.5 427.833   3 0.66710-0.85763-0.13749-0.23760-0.68879 0.69795
  -2  -5  -3 48388.8 445.371   5 0.77642-0.96695-0.53129 0.15620-0.06158 0.07074
   2   5   3 47436.3 434.423   1-0.69291 0.88343 0.17194 0.20315 0.64677-0.65593
   2   5   4 7497.65 227.513   1-0.73762 0.90705 0.03650 0.29752 0.70438-0.62549
  -2  -5  -4 7912.67 204.681   5 0.78039-0.94982-0.52589 0.19187-0.06459-0.01430
  -2  -5  -4 7566.62 223.627   3 0.76922-0.93866-0.09882-0.23520-0.63840 0.55951
  -2  -5  -4 7589.84 195.464   4 0.53611-0.70554-0.76675 0.43273 0.40759-0.48648
   2   5   5 259.501 96.5311   1-0.76747 0.91581-0.09712 0.39007 0.74752-0.58059
  -2  -5  -5 294.783 79.0671   4 0.43619-0.58452-0.84043 0.54747 0.42899-0.59593
  -2  -5  -5 278.300 108.125   3 0.83058-0.97892-0.07060-0.22235-0.59509 0.42815
  -2  -5  -5 287.396 87.0619   5 0.77056-0.91890-0.53915 0.24619-0.05718-0.10976
   2   5   6 426.359 96.2935   1-0.78225 0.90949-0.21970 0.47159 0.77501-0.52003
  -2  -5  -6 512.535 138.499   3 0.86665-0.99389-0.05138-0.20051-0.56274 0.30776
  -2  -5  -7 636.506 114.486   3 0.88701-0.99315-0.03932-0.17150-0.54133 0.19830
  -2  -5  -8 187.479 109.829   3 0.89725-0.98229-0.03284-0.13690-0.52949 0.09840
  -2  -5  -9 427.749 152.523   3 0.90048-0.96443-0.03073-0.09795-0.52557 0.00644
  -2  -5 -10 10366.6 389.871   3 0.89840-0.94126-0.03209-0.05551-0.52810-0.07908
  -2  -5 -11 1060.16 197.863   3 0.89187-0.91363-0.03628-0.01025-0.53581-0.15942
  -2  -5 -12-34.9986 71.0344   3 0.88123-0.88189-0.04285 0.03738-0.54768-0.23559
   2   6  -4 7206.78 401.684   2 0.36363-0.01643 0.65647 0.10185 0.22986-0.90001
   2   6  -4 6494.49 317.701   1-0.22123 0.56843 0.80503-0.04671 0.12540-0.79556
   2   6  -3 115.345 93.9630   2 0.35751-0.03140 0.57299 0.14426 0.32881-0.91092
  -2  -6   3 194.684 147.101   4 0.67368-0.99979-0.63005-0.08720 0.36228 0.21983
   2   6  -3 257.396 146.409   1-0.29175 0.61786 0.74937-0.03212 0.19913-0.78123
   2   6  -2 16893.2 438.396   2 0.34618-0.04117 0.47554 0.20064 0.43096-0.92501
  -2  -6   2 17100.8 444.355   4 0.68947-0.99448-0.61091-0.06527 0.35553 0.13853
   2   6  -2 15106.4 396.620   1-0.36193 0.66694 0.68467-0.00849 0.27349-0.76755
  -2  -6   1 37.6181 102.898   5 0.67927-0.96318-0.64624 0.01113 0.00630 0.39971
   2   6  -1 36.5684 76.3588   2 0.32857-0.04466 0.36280 0.27230 0.53473-0.94073
  -2  -6   1 31.3104 79.7007   4 0.69805-0.98197-0.60013-0.03498 0.35169 0.05432
   2   6  -1 14.2071 59.7450   1-0.43119 0.71510 0.61037 0.02474 0.34802-0.75403
   2   6   0 63.8815 87.7612   2 0.30361-0.04079 0.23442 0.35962 0.63717-0.95513
  -2  -6   0 80.7596 89.0350   4 0.69902-0.96184-0.59890 0.00486 0.35125-0.03329
   2   6   0 42.7454 96.6226   1-0.49863 0.76145 0.52606 0.06798 0.42189-0.73985
  -2  -6   0 54.2964 72.2410   5 0.71679-0.97961-0.60536 0.01132-0.01875 0.33671
   2   6   1 455.488 146.354   2 0.27055-0.02882 0.09200 0.46097 0.73362-0.96353
  -2  -6  -1 308.397 109.439   4 0.69140-0.93312-0.60851 0.05554 0.35468-0.12476
  -2  -6  -1 424.647 131.924   5 0.74778-0.98950-0.56842 0.01545-0.04049 0.27040
   2   6   1 320.913 118.597   1-0.56293 0.80465 0.43174 0.12123 0.49383-0.72374
  -2  -6  -2 8473.33 240.514   5 0.77210-0.99273-0.53710 0.02520-0.05833 0.20020
  -2  -6  -2 8489.75 252.531   4 0.67352-0.89415-0.63023 0.11833 0.36234-0.22048
   2   6   2 8410.06 292.233   2 0.22949-0.00886-0.05987 0.57177 0.81793-0.95979
   2   6   2 8083.34 248.641   1-0.62227 0.84289 0.32822 0.18368 0.56201-0.70388
  -2  -6  -3 28655.8 398.446   4 0.64277-0.84230-0.66516 0.19433 0.37443-0.32062
  -2  -6  -3 29894.8 372.767   3 0.61086-0.81039-0.15564-0.31519-0.70832 0.76214
  -2  -6  -3 27881.0 402.512   5 0.78940-0.98893-0.51339 0.04256-0.07149 0.12531
   2   6   3 27605.5 409.229   1-0.67451 0.87404 0.21748 0.25335 0.62417-0.67798
   2   6   4 9863.69 285.562   1-0.71750 0.89593 0.10302 0.32674 0.67785-0.64361
  -2  -6  -4 10220.4 244.901   3 0.72666-0.90509-0.11598-0.31378-0.66213 0.62789
  -2  -6  -4 10053.1 243.512   5 0.79888-0.97731-0.49985 0.07009-0.07888 0.04465
  -2  -6  -5 26505.9 412.691   3 0.79888-0.95621-0.08578-0.30291-0.61902 0.49674
   2   6   5 26226.5 381.604   1-0.74968 0.90701-0.01028 0.39897 0.72102-0.59874
  -2  -6  -5 26133.1 361.321   4 0.52569-0.68303-0.77530 0.38661 0.41021-0.53249
  -2  -6  -5 26383.5 348.105   5 0.79896-0.95629-0.49973 0.11104-0.07895-0.04333
   2   6   6 473.252 138.240   1-0.77068 0.90692-0.11686 0.46447 0.75274-0.54241
  -2  -6  -6 477.712 95.0560   4 0.42678-0.56302-0.84648 0.49886 0.43060-0.64093
  -2  -6  -6 466.261 121.504   3 0.84313-0.97937-0.06418-0.28344-0.58453 0.37420
   2   6   7 3167.60 201.616   1-0.78166 0.89680-0.21160 0.51815 0.77356-0.47518
  -2  -6  -7 3413.55 237.577   3 0.86958-0.98472-0.04970-0.25684-0.55982 0.26144
  -2  -6  -8 127.625 70.1260   3 0.88442-0.97847-0.04091-0.22457-0.54421 0.15778
  -2  -6  -9 31.2304 89.0514   3 0.89129-0.96424-0.03665-0.18776-0.53648 0.06200
  -2  -6 -10-0.05934 74.8708   3 0.89229-0.94414-0.03602-0.14732-0.53533-0.02720
  -2  -6 -11 1277.03 196.084   3 0.88855-0.91931-0.03836-0.10391-0.53960-0.11097
   2   7  -3 2022.23 249.262   2 0.35919-0.02408 0.59161 0.22137 0.30775-0.93451
  -2  -7   3 2111.53 344.862   4 0.66190-0.99701-0.64378-0.16920 0.36707 0.25969
   2   7  -3 2393.31 301.808   1-0.29033 0.62543 0.75058 0.06240 0.19762-0.82438
   2   7  -2 3617.50 311.688   2 0.34974-0.03573 0.50276 0.26915 0.40369-0.94240
  -2  -7   2 2913.40 289.727   4 0.67966-0.99367-0.62290-0.14901 0.35977 0.17894
   2   7  -2 2917.96 264.865   1-0.35837 0.67238 0.68819 0.08372 0.26970-0.80841
  -2  -7   1 1387.55 219.576   5 0.67560-0.96852-0.65003-0.08081 0.00868 0.44198
   2   7  -1 1472.22 235.534   2 0.33518-0.04226 0.40195 0.32889 0.50026-0.95093
  -2  -7   1 1517.30 242.594   4 0.69079-0.98370-0.60927-0.12157 0.35495 0.09572
   2   7   0 5977.82 322.844   2 0.31484-0.04302 0.28913 0.40064 0.59541-0.95802
  -2  -7   0 5991.44 307.602   4 0.69513-0.96695-0.60383-0.08594 0.35301 0.00960
  -2  -7   0 5798.09 306.622   5 0.71319-0.98501-0.60946-0.08032-0.01629 0.37890
  -2  -7  -1 15665.4 363.333   5 0.74460-0.99532-0.57236-0.07634-0.03821 0.31278
   2   7   1 15903.2 421.710   2 0.28827-0.03754 0.16542 0.48328 0.68606-0.96062
  -2  -7  -1 15911.9 407.687   4 0.69213-0.94285-0.60760-0.04110 0.35435-0.07979
   2   7   1 14996.6 369.009   1-0.54895 0.79967 0.45361 0.19509 0.47804-0.75261
  -2  -7  -2 555.412 160.835   4 0.68072-0.91035-0.62162 0.01398 0.35931-0.17280
   2   7   2 497.279 153.786   2 0.25546-0.02583 0.03361 0.57402 0.76826-0.95478
  -2  -7  -2 396.978 147.200   5 0.76986-0.99949-0.54008-0.06756-0.05666 0.24318
   2   7   2 476.072 153.666   1-0.60454 0.83416 0.36118 0.24645 0.54142-0.72794
   2   7   3 5155.74 248.480   1-0.65395 0.86248 0.26387 0.30269 0.59941-0.69787
  -2  -7  -3 5634.50 228.526   4 0.65919-0.86773-0.64687 0.08031 0.36814-0.26967
   2   7   3 5409.99 241.580   2 0.21720-0.00867-0.10152 0.66809 0.83776-0.93622
  -2  -7  -3 5161.69 230.084   5 0.78886-0.99739-0.51415-0.05241-0.07108 0.16955
   2   7   4 14816.7 354.544   1-0.69586 0.88330 0.16420 0.36130 0.65044-0.66086
  -2  -7  -4 14634.0 317.850   5 0.80122-0.98866-0.49643-0.02906-0.08074 0.09116
  -2  -7  -4 15280.9 334.604   4 0.62496-0.81239-0.68411 0.15861 0.38086-0.37044
  -2  -7  -5 25555.7 398.954   3 0.75573-0.92207-0.10445-0.37997-0.64641 0.56878
  -2  -7  -5 25166.2 396.608   4 0.57432-0.74066-0.73345 0.24903 0.39710-0.47473
  -2  -7  -5 25337.7 391.495   5 0.80613-0.97246-0.48920 0.00478-0.08464 0.00701
   2   7   6 118.764 101.226   1-0.75394 0.89919-0.02867 0.47203 0.72711-0.56144
  -2  -7  -6 53.4390 51.5149   4 0.50214-0.64738-0.79385 0.35050 0.41578-0.58146
  -2  -7  -6 68.0430 96.6116   3 0.81023-0.95547-0.08050-0.36285-0.61087 0.44519
  -2  -7  -7 13424.8 368.482   3 0.84430-0.96845-0.06357-0.33871-0.58351 0.32979
   2   7   7 13075.9 331.426   1-0.77033 0.89447-0.11459 0.51687 0.75216-0.49844
  -2  -7  -8 2811.76 233.344   3 0.86485-0.96790-0.05240-0.30882-0.56451 0.22274
  -2  -7  -9 309.804 140.702   3 0.87611-0.95807-0.04590-0.27425-0.55312 0.12330
  -2  -7 -10-4.75831 73.1372   3 0.88064-0.94150-0.04320-0.23587-0.54832 0.03045
  -2  -7 -11 139.573 158.952   3 0.87992-0.91968-0.04364-0.19437-0.54909-0.05682
  -2  -8   2 40.4495 151.200   4 0.66375-0.98676-0.64166-0.22599 0.36633 0.21703
  -2  -8   1 419.831 184.429   5 0.66379-0.96570-0.66202-0.16456 0.01627 0.47904
   2   8  -1 643.930 222.964   2 0.34155-0.03963 0.44296 0.38361 0.46240-0.95772
  -2  -8   1 620.810 218.214   4 0.67705-0.97897-0.62603-0.20055 0.36087 0.13445
   2   8  -1 191.190 104.484   1-0.41149 0.71340 0.63266 0.19391 0.32670-0.82201
  -2  -8   0 124.823 84.6065   4 0.68408-0.96490-0.61754-0.16796 0.35788 0.04939
   2   8   0 340.155 181.888   1-0.47278 0.75360 0.55994 0.22557 0.39341-0.80068
  -2  -8   0 185.844 148.400   5 0.70165-0.98247-0.62233-0.16318-0.00849 0.41576
   2   8   0 242.606 142.959   2 0.32494-0.04412 0.34244 0.44306 0.55203-0.95930
   2   8   1 1085.29 244.776   2 0.30336-0.04363 0.23321 0.51122 0.63807-0.95729
  -2  -8  -1 930.609 166.876   4 0.68450-0.94422-0.61703-0.12741 0.35769-0.03847
  -2  -8  -1 1108.12 202.141   5 0.73355-0.99327-0.58577-0.15866-0.03038 0.34960
   2   8   1 868.864 238.983   1-0.53045 0.79018 0.48133 0.26311 0.45729-0.77651
   2   8   2 372.679 201.713   2 0.27677-0.03814 0.11713 0.58624 0.71785-0.94902
  -2  -8  -2 203.737 109.099   4 0.67765-0.91628-0.62531-0.07806 0.36061-0.12944
  -2  -8  -2 319.207 148.081   5 0.75962-0.99825-0.55345-0.14992-0.04909 0.28026
   2   8   2 181.346 130.318   1-0.58359 0.82221 0.39780 0.30557 0.51734-0.74851
  -2  -8  -3 19290.1 429.176   5 0.77987-0.99740-0.52661-0.13569-0.06419 0.20732
  -2  -8  -3 19197.4 410.372   4 0.66236-0.87990-0.64325-0.01905 0.36688-0.22376
   2   8   3 18841.7 409.151   2 0.24562-0.02808-0.00277 0.66507 0.78844-0.93156
   2   8   3 18547.2 428.469   1-0.63123 0.84877 0.31077 0.35153 0.57251-0.71564
   2   8   4 6845.87 340.969   1-0.67251 0.86895 0.22217 0.39905 0.62174-0.67682
   2   8   4 7125.67 296.372   2 0.21090-0.01446-0.12232 0.74355 0.84712-0.90219
  -2  -8  -4 6980.93 296.897   4 0.63686-0.83329-0.67155 0.05032 0.37661-0.32154
  -2  -8  -5 4823.48 238.588   4 0.59853-0.77387-0.71065 0.13049 0.38969-0.42266
   2   8   5 4700.84 278.373   1-0.70679 0.88213 0.13438 0.44577 0.66416-0.63119
  -2  -8  -5 4552.25 236.742   5 0.80195-0.97729-0.49536-0.08479-0.08132 0.04834
  -2  -8  -6 742.207 182.063   3 0.76667-0.92091-0.09990-0.43918-0.63995 0.51893
  -2  -8  -6 675.817 153.090   4 0.54375-0.69799-0.76034 0.22125 0.40560-0.52662
   2   8   6 600.375 175.128   1-0.73381 0.88805 0.05005 0.48904 0.69925-0.57823
   2   8   7 2198.63 242.829   1-0.75384 0.88699-0.02821 0.52623 0.72696-0.51789
  -2  -8  -7 2239.70 223.280   3 0.81017-0.94331-0.08053-0.41748-0.61091 0.40184
  -2  -8  -8 410.482 161.147   3 0.83777-0.94982-0.06696-0.38999-0.58913 0.29201
  -2  -8  -9 6964.89 371.370   3 0.85440-0.94535-0.05818-0.35770-0.57444 0.18927
  -2  -8 -10 22.8461 105.379   3 0.86314-0.93299-0.05336-0.32145-0.56618 0.09297
  -2  -8 -11-27.9358 89.1412   3 0.86585-0.91461-0.05183-0.28191-0.56353 0.00226
   2   9   1 2449.70 323.387   2 0.31642-0.04770 0.29718 0.54299 0.58904-0.95291
  -2  -9  -1 2563.45 318.003   4 0.67057-0.93929-0.63372-0.20645 0.36356 0.00031
  -2  -9  -2 3805.03 284.692   5 0.74335-0.99098-0.57389-0.22521-0.03732 0.31315
  -2  -9  -2 3824.26 283.458   4 0.66720-0.91483-0.63765-0.16145 0.36494-0.08911
   2   9   2 3648.55 286.383   2 0.29472-0.04709 0.19373 0.60537 0.66650-0.94233
  -2  -9  -3 185.502 148.513   4 0.65647-0.88300-0.64997-0.10806 0.36921-0.18143
  -2  -9  -3 227.268 153.171   5 0.76474-0.99128-0.54681-0.21122-0.05286 0.24064
  -2  -9  -4 4851.78 286.423   5 0.78053-0.98597-0.52571-0.19126-0.06469 0.16442
  -2  -9  -4 5178.50 311.145   4 0.63709-0.84253-0.67130-0.04566 0.37653-0.27680
   2   9   4 4730.76 278.539   2 0.24038-0.03494-0.02165 0.73861 0.79848-0.89821
   2   9   4 4951.16 355.022   1-0.64727 0.85271 0.27810 0.43886 0.59145-0.69118
  -2  -9  -5 3188.92 228.771   4 0.60721-0.79155-0.70214 0.02624 0.38688-0.37520
   2   9   5 2988.45 244.991   2 0.20934-0.02500-0.12741 0.80330 0.84936-0.86104
  -2  -9  -5 3007.16 229.881   5 0.79045-0.97479-0.51192-0.16397-0.07230 0.08398
  -2  -9  -6 3789.47 242.600   4 0.56417-0.72742-0.74260 0.10778 0.40002-0.47639
   2   9   6 3432.53 286.738   1-0.71097 0.87421 0.12243 0.51240 0.66947-0.59310
   2   9   7 67.1981 138.035   1-0.73363 0.87578 0.05068 0.54307 0.69901-0.53459
   2   9   8 5152.24 342.125   1-0.75067 0.87172-0.01447 0.56716 0.72243-0.46997
  -2  -9  -8 5234.99 348.741   3 0.80203-0.92308-0.08433-0.46835-0.61680 0.36433
  -2  -9  -9 282.110 204.732   3 0.82526-0.92522-0.07325-0.43836-0.59937 0.25886
  -2  -9 -10 46.4952 138.276   3 0.83910-0.91796-0.06627-0.40427-0.58800 0.15944
   2  10   3 736.061 244.408   2 0.28905-0.05351 0.16880 0.68497 0.68376-0.91619
  -2 -10  -3 504.028 198.496   4 0.64372-0.87926-0.66412-0.18964 0.37408-0.14165
  -2 -10  -4 2104.54 288.675   4 0.62894-0.84337-0.67995-0.13274 0.37946-0.23507
   2  10   4 1968.26 278.405   2 0.26514-0.05070 0.07069 0.74201 0.74659-0.89097
   2  10   4 1924.43 323.176   1-0.61995 0.83439 0.33263 0.48006 0.55932-0.70370
  -2 -10  -5 143.530 106.778   4 0.60516-0.79850-0.70416-0.06746 0.38755-0.33121
   2  10   5 68.3735 93.0281   2 0.23900-0.04566-0.02655 0.79817 0.80104-0.85738
   2  10   5 62.3018 110.355   1-0.65555 0.84889 0.26041 0.51121 0.60131-0.65765
  -2 -10  -5 62.3461 130.614   5 0.77340-0.96674-0.53536-0.23626-0.05931 0.11564
  -2 -10  -6 102.228 167.087   4 0.57043-0.74267-0.73699 0.00643 0.39823-0.42994
   2  10   6 197.475 141.621   2 0.21152-0.03927-0.12029 0.85085 0.84622-0.81451
  -2 -10  -6 29.3710 105.843   5 0.77911-0.95136-0.52764-0.20291-0.06361 0.03190
   2  10   6 8.12224 98.5005   1-0.68566 0.85790 0.19040 0.54015 0.63780-0.60609
   2  10   7 17.0753 118.846   1-0.71035 0.86150 0.12422 0.56527 0.66868-0.54892
   2  10   8 105.448 184.445   1-0.72992 0.85997 0.06337 0.58504 0.69407-0.48626
  -3  10   5 31.1375 79.5417   1-0.77844 0.44976-0.17639 0.89893 0.76666-0.69792
  -3  10   4 155.993 121.243   1-0.76755 0.45997-0.09760 0.86121 0.74766-0.76696
  -3  10   3 4899.97 361.381   1-0.74954 0.46305-0.00972 0.81440 0.72083-0.82819
  -3  10   2 7.20408 66.3605   1-0.72307 0.45767 0.08574 0.76001 0.68506-0.88047
   3  -9  -8 4.48970 155.780   3 0.99984-0.59887 0.09208-0.59568-0.25396-0.12358
  -3   9   6 3913.98 309.861   1-0.78382 0.42504-0.34988 0.93561 0.79064-0.58920
   3  -9  -6 3421.35 273.190   5 0.99239-0.63361 0.15969-0.74542-0.35679 0.15535
  -3   9   5 3611.69 302.151   1-0.78491 0.44723-0.28236 0.90917 0.78437-0.67097
   3  -9  -5 3454.19 269.707   5 0.99336-0.65568 0.13577-0.76257-0.34916 0.23577
  -3   9   4 173.010 106.489   1-0.78095 0.46436-0.20276 0.87064 0.77192-0.74658
   3  -9  -4 264.040 129.881   5 0.99373-0.67715 0.10290-0.77078-0.33838 0.31304
  -3   9   3 540.036 183.425   1-0.76986 0.47437-0.11165 0.82060 0.75140-0.81410
   3  -9  -3 532.734 178.898   5 0.99265-0.69716 0.06174-0.77069-0.32441 0.38711
  -3   9   2 1337.39 222.207   1-0.74971 0.47532-0.01043 0.76045 0.72107-0.87182
   3  -9  -2 1098.85 226.201   5 0.98914-0.71475 0.01288-0.76289-0.30714 0.45789
  -3   9   1 1.72179 82.2742   1-0.71896 0.46566 0.09856 0.69253 0.67973-0.91853
  -3   8   9 216.833 139.259   0-0.04468-0.38639-0.49654 0.86334 0.97980-0.46956
   3  -8  -9 196.400 146.206   3 0.99965-0.56858 0.10393-0.47073-0.22289-0.28735
  -3   8   8 18606.8 525.222   0-0.09580-0.31417-0.46719 0.87505 0.98935-0.56716
   3  -8  -8 19167.5 542.945   3 0.99844-0.58846 0.11184-0.51971-0.20162-0.22057
  -3   8   7 40.3869 117.136   0-0.15908-0.22980-0.42792 0.87685 0.99571-0.66157
   3  -8  -7-7.12515 104.385   3 0.99687-0.60799 0.11798-0.56691-0.18482-0.14933
  -3   8   6 66.1188 124.961   0-0.23402-0.13376-0.37704 0.86704 0.99512-0.74902
   3  -8  -6 199.187 132.569   5 0.98112-0.61334 0.26366-0.75366-0.38779 0.14170
   3  -8  -5 1521.52 187.804   5 0.98473-0.63804 0.23989-0.77096-0.38102 0.22297
  -3   8   5 1159.94 221.648   0-0.31857-0.02812-0.31350 0.84458 0.98304-0.82499
  -3   8   4 308.312 109.734   1-0.78492 0.45933-0.31457 0.88671 0.78787-0.71787
  -3   8   4 319.915 150.787   0-0.40875 0.08316-0.23762 0.80977 0.95509-0.88509
   3  -8  -4 261.567 106.365   5 0.98878-0.66319 0.20630-0.77844-0.37113 0.30113
  -3   8   3 730.990 143.285   0-0.49898 0.19449-0.15158 0.76479 0.90830-0.92634
  -3   8   3 524.649 117.521   1-0.78238 0.47789-0.22162 0.83483 0.77535-0.79339
   3  -8  -3 530.439 136.187   5 0.99218-0.68769 0.16348-0.77669-0.35798 0.37603
  -3   8   2 7164.69 300.621   0-0.58317 0.29977-0.05927 0.71355 0.84229-0.94839
  -3   8   2 6891.49 284.807   1-0.77041 0.48702-0.11515 0.76943 0.75231-0.85840
   3  -8  -2 6845.41 312.622   5 0.99374-0.71034 0.11201-0.76630-0.34141 0.44750
  -3   8   1 687.087 189.363   1-0.74657 0.48427 0.00244 0.69291 0.71666-0.91080
   3  -8  -1 545.653 191.392   5 0.99217-0.72987 0.05254-0.74789-0.32121 0.51536
  -3   8   1 378.783 151.826   0-0.65617 0.39387 0.03447 0.66088 0.75959-0.95373
  -3   8   0 347.647 93.4640   1-0.70921 0.46800 0.12749 0.60893 0.66723-0.94943
   3  -8   0 1316.81 250.875   5 0.98617-0.74496-0.01423-0.72220-0.29725 0.57944
   3  -8   1 368.005 210.529   5 0.97443-0.75432-0.08750-0.69000-0.26936 0.63960
   3  -8   2 1692.19 325.213   5 0.95567-0.75666-0.16642-0.65214-0.23746 0.69574
  -3   8  -3 3427.00 344.247   2 0.36528-0.54319 0.74670 0.11293 0.10699-0.65333
   3  -7  -9 3510.46 334.177   3 0.99687-0.55679 0.11798-0.38905-0.18480-0.37010
  -3   7   9 3479.25 351.457   0 0.04301-0.48308-0.54204 0.81311 0.95443-0.39953
  -3   7   8 12265.9 446.496   0-0.00159-0.41739-0.51966 0.83179 0.96875-0.50190
   3  -7  -8 13598.7 434.017   3 0.99291-0.57394 0.12838-0.44051-0.15568-0.31117
  -3   7   7 1654.96 210.299   0-0.05963-0.33825-0.48817 0.84137 0.98300-0.60420
   3  -7  -7 1838.16 239.473   3 0.98810-0.59022 0.13739-0.49059-0.12976-0.24905
  -3   7   6 4056.31 269.572   0-0.13185-0.24493-0.44522 0.83949 0.99373-0.70298
   3  -7  -6 3808.23 226.127   5 0.95542-0.57863 0.37547-0.76974-0.41697 0.12622
   3  -7  -6 4406.84 269.686   3 0.98313-0.60635 0.14480-0.53907-0.10793-0.18282
   3  -7  -5 272.867 164.066   3 0.97885-0.62316 0.15026-0.58560-0.09153-0.11117
  -3   7   5 222.285 167.078   0-0.21756-0.13813-0.38864 0.82398 0.99603-0.79332
   3  -7  -5 173.579 143.282   5 0.96193-0.60625 0.35245-0.78779-0.41134 0.20864
   3  -7  -4 1166.23 190.706   5 0.97033-0.63574 0.31864-0.79505-0.40271 0.28805
  -3   7   4 1052.73 176.667   0-0.31376-0.02083-0.31730 0.79371 0.98407-0.86942
   3  -7  -3 3161.96 209.170   5 0.97927-0.66577 0.27450-0.79198-0.39082 0.36421
  -3   7   3 3009.60 210.761   1-0.78422 0.47072-0.34069 0.85817 0.79003-0.76342
  -3   7   3 3094.75 211.294   0-0.41488 0.10138-0.23213 0.74961 0.95256-0.92595
  -3   7   2 268.563 112.493   0-0.51348 0.22108-0.13661 0.69516 0.89867-0.96011
  -3   7   2 301.996 127.926   1-0.78296 0.49056-0.23055 0.78910 0.77687-0.83831
   3  -7  -2 368.795 128.319   5 0.98721-0.69481 0.22052-0.77906-0.37536 0.43680
  -3   7   1 3094.01 219.299   0-0.60222 0.33092-0.03628 0.63589 0.82345-0.97294
  -3   7   1 3058.98 226.802   1-0.76868 0.49738-0.10435 0.70397 0.74947-0.89896
   3  -7  -1 2988.52 235.415   5 0.99251-0.72121 0.15728-0.75690-0.35603 0.50552
  -3   7   0 7566.22 290.736   1-0.73839 0.48819 0.03370 0.60699 0.70542-0.94296
  -3   7   0 7887.24 337.390   0-0.67586 0.42566 0.06292 0.57777 0.73141-0.96895
   3  -7   0 7694.76 348.255   5 0.99349-0.74328 0.08553-0.72622-0.33255 0.57009
  -3   7  -1 5232.39 314.393   0-0.73222 0.50311 0.15618 0.52557 0.62873-0.95432
   3  -7   1 5034.27 309.203   5 0.98848-0.75937 0.00616-0.68792-0.30471 0.63029
  -3   7  -2 639.860 200.959   0-0.77173 0.56372 0.24065 0.48218 0.52127-0.93490
   3  -7   2 546.419 178.677   5 0.97591-0.76790-0.07981-0.64302-0.27236 0.68600
  -3   7  -3 10308.1 368.642   2 0.36537-0.55228 0.74084 0.02306 0.11559-0.61728
  -3   7  -3 10459.0 399.396   0-0.79633 0.60941 0.31526 0.44863 0.41343-0.91511
   3  -7   3 10349.6 416.129   5 0.95431-0.76739-0.17127-0.59263-0.23543 0.73712
  -3   7  -4 121.581 96.5416   2 0.36365-0.52947 0.78848 0.01649 0.04245-0.63218
  -3   7  -4 164.287 204.392   0-0.80844 0.64262 0.38018 0.42478 0.30795-0.89768
  -3   6  10 2131.34 350.382   0 0.14911-0.61928-0.58889 0.72314 0.90844-0.22084
   3  -6  -9 1039.31 256.297   3 0.99254-0.54346 0.12918-0.30450-0.15340-0.44615
  -3   6   9 1214.79 262.433   0 0.12430-0.57337-0.57875 0.75408 0.92072-0.32117
   3  -6  -8 10165.1 420.222   3 0.98523-0.55725 0.14184-0.35823-0.11671-0.39480
  -3   6   8 9755.18 399.566   0 0.08767-0.51565-0.56287 0.77927 0.93713-0.42563
  -3   6   7 70.8029 112.205   0 0.03715-0.44403-0.53919 0.79666 0.95648-0.53302
   3  -6  -7 118.944 126.884   3 0.97614-0.56926 0.15340-0.41086-0.08199-0.34146
  -3   6   6 6087.20 264.831   0-0.02920-0.35658-0.50501 0.80355 0.97615-0.64074
   3  -6  -6 6300.59 288.599   3 0.96586-0.58007 0.16377-0.46230-0.04979-0.28562
   3  -6  -6 6547.91 251.785   5 0.91033-0.52454 0.49488-0.79342-0.44272 0.10732
   3  -6  -5 6514.14 234.537   5 0.91980-0.55511 0.47369-0.81330-0.43861 0.19125
  -3   6   5 6197.77 281.722   0-0.11235-0.25234-0.45724 0.79684 0.99161-0.74425
   3  -6  -5 6429.81 298.573   3 0.95512-0.59043 0.17279-0.51240-0.02088-0.22648
   3  -6  -4 8865.75 264.523   3 0.94494-0.60135 0.18022-0.56089 0.00357-0.16288
  -3   6   4 8741.00 269.707   0-0.21111-0.13248-0.39311 0.77379 0.99626-0.83695
   3  -6  -4 8590.04 273.093   5 0.93321-0.58962 0.44077-0.82145-0.43181 0.27250
  -3   6   3 1993.88 184.342   0-0.32092-0.00157-0.31163 0.73338 0.98252-0.91125
   3  -6  -3 2033.94 153.953   3 0.93672-0.61423 0.18561-0.60735 0.02172-0.09298
   3  -6  -3 2149.03 165.061   5 0.94895-0.62646 0.39628-0.81802-0.42188 0.35062
  -3   6   2 1833.95 153.530   0-0.43369 0.13229-0.21496 0.67777 0.94423-0.96102
  -3   6   2 1822.72 159.011   1-0.78336 0.48196-0.35869 0.82150 0.79116-0.80794
   3  -6  -2 1701.19 152.244   5 0.96508-0.66368 0.34042-0.80323-0.40832 0.42510
  -3   6   1 3651.29 204.437   0-0.53960 0.25930-0.10874 0.61263 0.87962-0.98445
  -3   6   1 3412.45 206.144   1-0.78263 0.50233-0.22537 0.72926 0.77599-0.88083
   3  -6  -1 3665.39 236.137   5 0.97943-0.69912 0.27361-0.77749-0.39057 0.49541
  -3   6   0 1632.87 145.004   1-0.76312 0.50392-0.07297 0.61792 0.74073-0.93361
  -3   6   0 1609.77 136.317   0-0.63033 0.37112-0.00057 0.54552 0.79232-0.98521
   3  -6   0 1436.18 177.868   5 0.98972-0.73052 0.19654-0.74149-0.36819 0.56107
  -3   6  -1 11081.7 273.636   1-0.72148 0.48337 0.09075 0.49528 0.68300-0.96393
  -3   6  -1 12129.9 309.714   2 0.36133-0.59944 0.61880-0.03278 0.27600-0.55693
  -3   6  -1 12340.4 360.907   0-0.70145 0.46334 0.10268 0.48335 0.68960-0.97053
   3  -6   1 11434.5 378.145   5 0.99375-0.75564 0.11017-0.69620-0.34080 0.62173
  -3   6  -2 1975.15 168.879   2 0.36485-0.58186 0.68671-0.05962 0.19079-0.55977
  -3   6  -2 1709.24 202.885   0-0.75252 0.53551 0.19651 0.43059 0.57923-0.94821
   3  -6   2 1857.01 212.910   5 0.98942-0.77240 0.01577-0.64286-0.30818 0.67716
  -3   6  -3 12.0802 66.6059   2 0.36533-0.56125 0.74330-0.07513 0.11200-0.56903
   3  -6   3 35.8813 87.8324   5 0.97486-0.77894-0.08527-0.58289-0.27023 0.72726
  -3   6  -4 4662.87 289.602   2 0.36349-0.53831 0.79105-0.08182 0.03827-0.58335
  -3   6  -4 4831.69 357.806   0-0.80407 0.62925 0.35037 0.35887 0.35788-0.90296
  -3   6  -5 2970.84 342.853   0-0.81061 0.65688 0.41136 0.33894 0.25272-0.88584
  -3   6  -5 3303.64 293.968   2 0.35973-0.51346 0.83171-0.08141-0.03149-0.60164
   3  -5 -10 44.1570 125.436   3 0.99557-0.51640 0.12189-0.16042-0.17394-0.55832
  -3   5  10 100.649 135.140   0 0.21451-0.69368-0.61311 0.65163 0.87145-0.13920
  -3   5   9 160.943 109.072   0 0.19770-0.65577-0.60724 0.68683 0.88162-0.23741
   3  -5  -9 534.586 218.157   3 0.98800-0.52992 0.13756-0.21715-0.12925-0.51495
  -3   5   8 13051.3 448.951   0 0.16986-0.60684-0.59697 0.71763 0.89744-0.34128
   3  -5  -8 13131.4 399.975   3 0.97709-0.54011 0.15232-0.27298-0.08527-0.47089
  -3   5   7 110.723 101.280   0 0.12852-0.54440-0.58051 0.74225 0.91870-0.45059
   3  -5  -7 64.6338 112.614   3 0.96315-0.54727 0.16618-0.32792-0.04214-0.42597
   3  -5  -6 203.268 89.1374   5 0.83960-0.44481 0.61929-0.82209-0.46227 0.08221
   3  -5  -6 187.224 143.149   3 0.94652-0.55173 0.17913-0.38193-0.00007-0.37999
  -3   5   6 327.588 169.326   0 0.07084-0.46562-0.55521 0.75801 0.94400-0.56394
  -3   5   5 257.342 85.7683   0-0.00586-0.36783-0.51744 0.76131 0.96997-0.67795
   3  -5  -5 388.049 132.602   3 0.92758-0.55389 0.19111-0.43498 0.04062-0.33264
   3  -5  -5 419.570 137.876   5 0.85134-0.47765 0.60170-0.84557-0.46004 0.16803
  -3   5   4 6976.86 276.185   0-0.10275-0.24984-0.46304 0.74798 0.99035-0.78639
   3  -5  -4 7257.21 252.244   5 0.86992-0.51733 0.57174-0.85668-0.45581 0.25184
   3  -5  -4 7047.45 239.227   3 0.90687-0.55427 0.20205-0.48699 0.07949-0.28345
   3  -5  -3 1627.72 169.717   3 0.88516-0.55366 0.21183-0.53785 0.11582-0.23174
  -3   5   3 1437.04 170.101   0-0.21762-0.11387-0.38859 0.71460 0.99603-0.88011
   3  -5  -3 1543.25 141.437   5 0.89361-0.56211 0.52900-0.85501-0.44891 0.33299
  -3   5   2 9119.22 261.901   0-0.34311 0.03271-0.29374 0.66082 0.97708-0.94921
   3  -5  -2 9483.49 244.266   3 0.86365-0.55325 0.22026-0.58734 0.14851-0.17638
   3  -5  -2 9040.40 237.634   5 0.92005-0.60965 0.47312-0.84020-0.43849 0.41062
  -3   5   1 7470.21 265.989   0-0.46728 0.17797-0.18312 0.59127 0.92718-0.98736
  -3   5   1 7097.00 199.791   1-0.78300 0.49369-0.36474 0.77289 0.79147-0.85165
   3  -5  -1 6999.47 242.150   5 0.94641-0.65710 0.40401-0.81216-0.42367 0.48385
  -3   5   0 2028.32 127.978   2 0.35460-0.62281 0.54439-0.09517 0.36013-0.50836
  -3   5   0 1807.67 133.512   1-0.78057 0.51237-0.19840 0.64762 0.77109-0.91932
   3  -5   0 1947.88 151.258   5 0.96954-0.70134 0.32206-0.77128-0.40360 0.55183
  -3   5  -1 55.8809 56.2067   2 0.36226-0.60938 0.63251-0.14221 0.25951-0.49579
   3  -5   1 83.4485 99.5886   5 0.98628-0.73917 0.22818-0.71847-0.37762 0.61389
  -3   5  -1 68.5947 88.0992   0-0.66628 0.41917 0.04887 0.44142 0.74550-0.98178
  -3   5  -2 9896.59 270.428   2 0.36521-0.59122 0.70127-0.16991 0.17128-0.49561
  -3   5  -2 9791.31 296.089   0-0.73080 0.50479 0.15354 0.37782 0.63186-0.95619
   3  -5   2 9477.08 305.910   5 0.99362-0.76761 0.12386-0.65522-0.34530 0.66962
  -3   5  -3 5651.26 252.526   2 0.36505-0.56997 0.75671-0.18428 0.09205-0.50442
  -3   5  -3 5324.61 261.418   0-0.77350 0.56858 0.24516 0.32727 0.51512-0.92749
   3  -5   3 5307.77 242.512   5 0.98896-0.78404 0.01098-0.58341-0.30645 0.71883
  -3   5  -4 1282.32 170.586   2 0.36266-0.54648 0.80252-0.18902 0.01934-0.51976
  -3   5  -4 1463.09 203.473   0-0.79837 0.61455 0.32345 0.29005 0.40077-0.90119
  -3   5  -5 3951.29 315.728   0-0.80937 0.64665 0.38965 0.26492 0.29153-0.88000
  -3   5  -5 4353.35 301.555   2 0.35851-0.52124 0.84102-0.18645-0.04861-0.53986
  -3   5  -6 131.162 115.599   2 0.35287-0.49450 0.87365-0.17801-0.11301-0.56351
   3  -4 -10 940.023 227.654   3 0.99417-0.50599 0.12552-0.06830-0.16378-0.61313
  -3   4   9 7833.66 400.395   0 0.26214-0.72922-0.62839 0.61225 0.84012-0.15126
   3  -4  -9 8128.17 356.861   3 0.98434-0.51727 0.14311-0.12697-0.11293-0.57593
   3  -4  -8 17990.2 402.062   3 0.96995-0.52397 0.15989-0.18482-0.06196-0.53885
  -3   4   8 16959.0 431.763   0 0.24328-0.68926-0.62259 0.64751 0.85298-0.25217
  -3   4   7 480.022 154.718   0 0.21202-0.63690-0.61225 0.67825 0.87299-0.36023
   3  -4  -7 635.321 149.000   3 0.95105-0.52617 0.17588-0.24187-0.01081-0.50196
  -3   4   6 351.121 143.759   0 0.16501-0.56880-0.59511 0.70218 0.90007-0.47535
   3  -4  -6 280.793 107.819   3 0.92760-0.52381 0.19109-0.29816 0.04058-0.46530
   3  -4  -6 426.508 121.421   5 0.73725-0.33346 0.74191-0.84897-0.47154 0.04682
   3  -4  -5 172.904 105.529   3 0.89949-0.51680 0.20554-0.35368 0.09227-0.42894
   3  -4  -5 193.207 98.1485   5 0.74888-0.36619 0.73017-0.87830-0.47121 0.13454
  -3   4   5 161.702 119.115   0 0.09832-0.48101-0.56760 0.71574 0.93257-0.59590
   3  -4  -4 24953.5 345.497   5 0.77115-0.40956 0.70633-0.89554-0.47014 0.22152
  -3   4   4 23955.9 366.437   0 0.00825-0.36984-0.52474 0.71394 0.96584-0.71722
   3  -4  -4 25929.7 400.030   3 0.86652-0.50492 0.21920-0.40841 0.14431-0.39293
  -3   4   3 8291.90 257.721   0-0.10647-0.23403-0.46080 0.69107 0.99085-0.83028
   3  -4  -3 7910.30 235.046   5 0.80264-0.46214 0.66920-0.89947-0.46748 0.30691
   3  -4  -3 8365.74 247.838   3 0.82837-0.48787 0.23204-0.46232 0.19677-0.35735
   3  -4  -2 512.965 110.355   3 0.78465-0.46524 0.24399-0.51534 0.24968-0.32221
  -3   4   2 423.793 87.6492   0-0.24135-0.07805-0.37179 0.64314 0.99456-0.92204
   3  -4  -2 446.566 104.304   5 0.84094-0.52154 0.61733-0.88868-0.46204 0.38951
   3  -4  -1 556.326 105.078   5 0.88263-0.58432 0.54952-0.86194-0.45234 0.46787
  -3   4   1 515.736 105.356   0-0.38397 0.08566-0.25939 0.57181 0.96447-0.97999
   3  -4  -1 607.488 111.845   3 0.73484-0.43654 0.25495-0.56737 0.30302-0.28750
  -3   4   0 3639.57 123.036   2 0.35846-0.63567 0.58331-0.22982 0.31721-0.42078
  -3   4   0 3571.17 189.544   0-0.51709 0.23988-0.13284 0.48632 0.89617-0.99975
  -3   4   0 3470.67 139.983   1-0.78377 0.50656-0.35095 0.70444 0.79071-0.89428
   3  -4   0 3727.39 184.244   5 0.92342-0.64621 0.46518-0.81867-0.43689 0.54047
  -3   4  -1 32185.2 346.512   2 0.36428-0.62039 0.67069-0.27613 0.21173-0.40335
  -3   4  -1 31260.5 355.230   1-0.77326 0.51714-0.13433 0.52889 0.75712-0.94874
   3  -4   1 31176.5 412.229   5 0.95855-0.70243 0.36471-0.75926-0.41436 0.60598
  -3   4  -1 32558.1 430.334   0-0.62667 0.37055-0.00536 0.39991 0.79663-0.98825
  -3   4  -2 68.5213 99.8494   2 0.36543-0.60045 0.73451-0.29889 0.12478-0.40445
   3  -4   2 23.3050 48.5205   5 0.98334-0.74832 0.24958-0.68520-0.38381 0.66348
  -3   4  -2 118.619 110.273   0-0.70720 0.47218 0.11214 0.32349 0.67922-0.95889
   3  -4   3 10294.9 263.272   5 0.99365-0.77973 0.12226-0.59896-0.34477 0.71249
  -3   4  -3 10083.0 332.812   0-0.76065 0.54673 0.21428 0.26241 0.55638-0.92410
  -3   4  -4 1493.01 156.085   2 0.36055-0.55337 0.82475-0.30699-0.01900-0.43677
  -3   4  -4 1443.76 190.623   0-0.79226 0.59944 0.30035 0.21741 0.43605-0.89181
  -3   4  -5 9974.05 351.499   0-0.80745 0.63572 0.37197 0.18687 0.32198-0.86580
  -3   4  -5 9447.82 300.603   2 0.35577-0.52749 0.85858-0.29974-0.08233-0.46148
  -3   4  -6 1575.23 235.132   2 0.34975-0.50038 0.88721-0.28731-0.14226-0.48960
  -3   4  -7 1585.22 203.187   2 0.34258-0.47211 0.91153-0.27055-0.19974-0.52017
   3  -3 -10 45.1425 114.400   3 0.99388-0.49671 0.12619 0.02676-0.16188-0.65969
   3  -3  -9 912.963 209.457   3 0.98242-0.50635 0.14575-0.03387-0.10509-0.62843
  -3   3   9 991.384 202.101   0 0.31707-0.79315-0.64336 0.53148 0.79907-0.06555
  -3   3   8 1412.87 204.845   0 0.30681-0.76179-0.64079 0.56998 0.80715-0.16169
   3  -3  -8 1485.43 193.610   3 0.96503-0.51005 0.16452-0.09371-0.04742-0.59805
  -3   3   7 121.658 91.8610   0 0.28569-0.71957-0.63516 0.60543 0.82319-0.26577
   3  -3  -7 147.879 83.6784   3 0.94148-0.50760 0.18254-0.15281 0.01135-0.56877
   3  -3  -6 5128.08 246.783   3 0.91132-0.49853 0.19985-0.21118 0.07152-0.54090
  -3   3   6 5354.81 260.468   0 0.25035-0.66314-0.62480 0.63613 0.84824-0.37886
  -3   3   5 18300.6 378.792   0 0.19621-0.58791-0.60670 0.65911 0.88249-0.50117
   3  -3  -5 18740.3 361.667   3 0.87382-0.48213 0.21641-0.26882 0.13341-0.51473
   3  -3  -5 18346.8 312.650   5 0.60819-0.21650 0.84656-0.89896-0.46666 0.08533
  -3   3   4 315.614 117.638   0 0.11765-0.48825-0.57595 0.66943 0.92385-0.63057
   3  -3  -4 241.315 101.077   3 0.82789-0.45730 0.23218-0.32566 0.19739-0.49066
   3  -3  -4 213.313 79.1721   5 0.62939-0.25879 0.83212-0.92559-0.46837 0.17509
  -3   3   3 3546.29 178.777   0 0.00949-0.35899-0.52537 0.65991 0.96546-0.76024
   3  -3  -3 3529.12 163.982   3 0.77199-0.42249 0.24701-0.38156 0.26386-0.46908
   3  -3  -3 3450.08 166.934   5 0.66494-0.31544 0.80568-0.94023-0.47051 0.26528
  -3   3   2 116.785 58.7119   0-0.12900-0.19941-0.44700 0.62261 0.99345-0.87628
   3  -3  -2 190.231 90.6200   5 0.71347-0.38506 0.76454-0.94015-0.47175 0.35457
   3  -3  -1 10107.7 217.030   5 0.77187-0.46457 0.70553-0.92221-0.47009 0.44096
  -3   3   1 10694.0 244.170   0-0.28822-0.01909-0.33710 0.55378 0.98884-0.95971
  -3   3   0 156788. 514.008   2 0.36472-0.65093 0.68270-0.42495 0.19609-0.25501
  -3   3   0 151333. 716.252   0-0.44699 0.16078-0.20253 0.46029 0.93782-0.99674
   3  -3   0 146151. 704.700   5 0.83510-0.54889 0.62580-0.88355-0.46305 0.52197
  -3   3  -1 5932.82 152.734   2 0.36527-0.63038 0.74735-0.44853 0.10602-0.25299
  -3   3  -1 6176.22 201.950   0-0.58239 0.31728-0.06019 0.35901 0.84303-0.98999
  -3   3  -1 5719.19 152.251   1-0.78503 0.51992-0.29859 0.59742 0.78625-0.93321
   3  -3   1 5694.42 182.043   5 0.89634-0.63122 0.52368-0.82250-0.44798 0.59495
  -3   3  -2 1634.01 121.340   2 0.36336-0.60738 0.79292-0.45303 0.03522-0.27024
  -3   3  -2 1525.58 89.0283   1-0.74714 0.50312 0.00015 0.33974 0.71745-0.95247
  -3   3  -2 1465.54 130.953   0-0.68251 0.43849 0.07291 0.26698 0.72117-0.95619
   3  -3   2 1341.03 119.883   5 0.94789-0.70387 0.39954-0.73944-0.42264 0.65766
  -3   3  -3 802.866 115.958   2 0.36007-0.58299 0.82893-0.44797-0.02647-0.29659
  -3   3  -3 714.138 139.990   0-0.74826 0.52534 0.18760 0.19336 0.59044-0.91350
   3  -3   3 712.819 110.834   5 0.98235-0.75943 0.25604-0.63700-0.38565 0.70871
  -3   3  -4 87.9372 110.679   0-0.78678 0.58495 0.28237 0.13966 0.46259-0.87370
  -3   3  -4 82.7543 76.4510   2 0.35569-0.55752 0.85901-0.43698-0.08320-0.32792
   3  -3   4 49.9370 78.0185   5 0.99369-0.79187 0.09772-0.51975-0.33665 0.74776
  -3   3  -5 20336.0 397.707   2 0.35034-0.53107 0.88481-0.42171-0.13695-0.36221
  -3   3  -5 19539.9 402.673   0-0.80564 0.62491 0.35954 0.10357 0.34281-0.84197
  -3   3  -6 10535.1 379.249   0-0.81072 0.65109 0.42240 0.08177 0.23233-0.81954
  -3   3  -6 10038.7 347.227   2 0.34405-0.50368 0.90714-0.40297-0.18879-0.39842
  -3   3  -7 388.854 140.274   2 0.33682-0.47535 0.92643-0.38119-0.23933-0.43593
  -3   3  -8 180.360 142.331   2 0.32862-0.44606 0.94290-0.35659-0.28896-0.47435
   3  -2  -9 996.820 218.045   3 0.98278-0.49770 0.14527 0.06234-0.10652-0.67165
  -3   2   9 1208.89 225.793   0 0.36234-0.84742-0.65340 0.44579 0.76096 0.01721
  -3   2   8 2838.78 269.394   0 0.35992-0.82390-0.65292 0.48638 0.76311-0.07299
   3  -2  -8 2797.91 218.518   3 0.96325-0.49927 0.16610 0.00044-0.04241-0.64771
   3  -2  -7 21605.6 444.674   3 0.93582-0.49293 0.18617-0.06070 0.02365-0.62572
  -3   2   7 22625.1 421.187   0 0.34833-0.79121-0.65053 0.52505 0.77319-0.17112
   3  -2  -6 287.853 104.668   3 0.89958-0.47779 0.20550-0.12110 0.09211-0.60614
  -3   2   6 423.313 149.904   0 0.32458-0.74637-0.64517 0.56077 0.79302-0.27900
   3  -2  -5 40708.9 419.167   5 0.43532-0.03463 0.93438-0.89105-0.44277 0.01679
  -3   2   5 38958.7 469.030   0 0.28415-0.68484-0.63474 0.59140 0.82433-0.39835
   3  -2  -5 42267.2 492.000   3 0.85317-0.45248 0.22400-0.18067 0.16347-0.58945
  -3   2   4 11046.4 253.302   0 0.22053-0.60013-0.61516 0.61289 0.86770-0.52977
   3  -2  -4 10733.3 261.574   3 0.79459-0.41499 0.24149-0.23923 0.23821-0.57614
   3  -2  -3 22389.6 310.956   5 0.47764-0.11914 0.91726-0.95607-0.45007 0.20019
  -3   2   3 23970.8 259.895   4-0.55018 0.19168-0.85916 0.89796 0.32194-0.07206
   3  -2  -3 23186.6 322.487   3 0.72105-0.36255 0.25758-0.29639 0.31673-0.56661
  -3   2   3 22166.7 306.573   0 0.12545-0.48395-0.57923 0.61804 0.92017-0.67029
   3  -2  -2 10069.3 211.924   5 0.52762-0.19022 0.89359-0.97347-0.45755 0.29571
  -3   2   2 9694.94 202.797   0-0.00838-0.32902-0.51612 0.59599 0.97067-0.80884
  -3   2   1 4061.87 145.196   4-0.61788 0.30157-0.80855 0.92950 0.29128-0.21749
  -3   2   1 3718.03 149.876   0-0.17900-0.13731-0.41487 0.53582 0.99643-0.92265
   3  -2  -1 3909.47 145.344   5 0.59667-0.28036 0.85403-0.97497-0.46560 0.39181
  -3   2   0 650.830 124.622   4-0.66536 0.37015-0.76597 0.92799 0.26659-0.28085
  -3   2   0 623.862 101.119   0-0.36538 0.07017-0.27524 0.43726 0.97063-0.98489
   3  -2   0 647.388 117.432   5 0.68149-0.38628 0.79235-0.95437-0.47116 0.48543
   3  -2   1 935.954 97.5925   5 0.77485-0.50074 0.70219-0.90528-0.46990 0.57221
  -3   2  -1 978.264 122.276   0-0.53302 0.25891-0.11588 0.31897 0.88463-0.98694
  -3   2  -1 1075.11 77.4296   2 0.35279-0.62690 0.87404-0.67095-0.11383 0.01151
  -3   2  -2 37078.2 256.167   1-0.77562 0.52260-0.15204 0.39620 0.76130-0.95166
   3  -2   2 36345.0 345.658   5 0.86552-0.61250 0.57909-0.82325-0.45690 0.64726
  -3   2  -2 37583.1 384.698   0-0.65787 0.40485 0.03687 0.20729 0.75727-0.94764
  -3   2  -2 38926.8 327.077   2 0.35180-0.60482 0.87856-0.63440-0.12341-0.06695
  -3   2  -3 9419.29 215.156   2 0.34901-0.58093 0.89010-0.60488-0.14873-0.12968
  -3   2  -3 9057.82 217.496   0-0.73787 0.50595 0.16692 0.11831 0.61586-0.89427
   3  -2   3 9185.40 212.928   5 0.93988-0.70796 0.42283-0.70806-0.42791 0.70631
  -3   2  -4 1909.27 136.826   0-0.78314 0.57231 0.27143 0.05486 0.47836-0.84481
   3  -2   4 2138.82 133.703   5 0.98493-0.77410 0.23847-0.56476-0.38061 0.74707
  -3   2  -4 1997.63 131.319   2 0.34505-0.55588 0.90398-0.57768-0.18109-0.18537
  -3   2  -5 62.9027 45.6337   2 0.34012-0.52985 0.91830-0.55093-0.21722-0.23728
  -3   2  -5 110.429 97.9734   0-0.80472 0.61499 0.35404 0.01333 0.35187-0.80638
  -3   2  -6 6306.62 272.440   0-0.81073 0.64209 0.41964-0.01120 0.23748-0.78003
  -3   2  -6 6245.91 240.273   2 0.33425-0.50288 0.93211-0.52368-0.25562-0.28693
  -3   2  -7 3296.30 228.672   2 0.32745-0.47499 0.94488-0.49537-0.29549-0.33512
  -3   2  -8 3960.08 282.111   2 0.31972-0.44617 0.95623-0.46566-0.33635-0.38230
  -3   2  -9 970.052 229.487   2 0.31101-0.41636 0.96590-0.43425-0.37794-0.42876
   3  -1  -8 1101.43 179.832   3 0.96519-0.49221 0.16437 0.09790-0.04788-0.68689
   3  -1  -7 12990.4 373.347   1 0.31802 0.13387 0.96846-0.74726-0.40982-0.23691
   3  -1  -7 13741.3 352.904   3 0.93509-0.48320 0.18663 0.03458 0.02520-0.67193
   3  -1  -6 6472.29 267.761   1 0.29743 0.13337 0.97097-0.79084-0.39033-0.16835
   3  -1  -6 7073.74 257.832   3 0.89394-0.46315 0.20805-0.02792 0.10158-0.66026
   3  -1  -5 218.651 101.873   3 0.83975-0.43006 0.22848-0.08941 0.18183-0.65246
  -3   1   5 170.430 117.779   0 0.35938-0.76907-0.65281 0.51375 0.76358-0.29295
   3  -1  -4 1069.02 119.864   1 0.27587 0.11273 0.97274-0.87475-0.36984-0.01274
  -3   1   4 1282.74 151.822   0 0.31218-0.70077-0.64214 0.54415 0.80295-0.42036
   3  -1  -4 1244.07 132.933   3 0.76966-0.38106 0.24755-0.14956 0.26642-0.64900
  -3   1   3 29607.8 291.598   4-0.25182-0.11568-0.98300 0.92608 0.41250-0.11796
   3  -1  -3 27597.0 350.538   1 0.28069 0.08681 0.97242-0.91550-0.37444 0.07990
  -3   1   3 28760.7 351.102   0 0.23513-0.60264-0.61998 0.56305 0.85836-0.56382
   3  -1  -2 2681.10 143.229   1 0.30299 0.04341 0.97037-0.95452-0.39561 0.18913
  -3   1   2 2954.86 151.283   0 0.11542-0.46182-0.57500 0.55915 0.92489-0.71840
   3  -1  -1 590.565 80.0711   5 0.35648-0.03117 0.95983-0.98504-0.42703 0.30859
  -3   1   1 625.466 83.9155   4-0.36578 0.04047-0.95168 0.97689 0.38509-0.26665
  -3   1   1 635.359 81.5750   0-0.05671-0.26860-0.48982 0.51504 0.98240-0.86396
   3  -1   0 9997.49 201.629   5 0.44652-0.14231 0.93010-0.99638-0.44478 0.41439
  -3   1   0 10209.1 198.581   4-0.44336 0.13914-0.91976 0.98605 0.36167-0.33128
   3  -1   1 10039.2 201.066   5 0.56318-0.28006 0.87428-0.98164-0.46204 0.51970
  -3   1  -1 9751.87 189.795   4-0.52654 0.24343-0.87443 0.98178 0.33157-0.38922
  -3   1  -1 10232.4 197.083   0-0.47784 0.19472-0.17278 0.28014 0.92120-0.97886
  -3   1  -1 10359.1 126.606   2 0.27735-0.56047 0.98245-0.87509-0.50917 0.45151
   3  -1   2 37596.7 324.590   5 0.69775-0.43573 0.77857-0.92699-0.47158 0.61728
  -3   1  -2 38089.4 286.249   2 0.31155-0.57357 0.96539-0.81697-0.37552 0.22981
  -3   1  -2 37846.5 346.230   0-0.63512 0.37310 0.00576 0.14267 0.78658-0.93228
  -3   1  -3 15761.5 258.065   4-0.68861 0.44769-0.74257 0.93206 0.25336-0.48711
   3  -1   3 16433.7 224.963   5 0.83171-0.59078 0.63061-0.82010-0.46361 0.69736
  -3   1  -3 17266.9 234.371   3 0.31353-0.55446-0.22735 0.41684-0.74823 0.51448
  -3   1  -3 16701.8 259.221   0-0.73171 0.49079 0.15524 0.03425 0.62985-0.86361
  -3   1  -3 17712.3 253.805   2 0.32117-0.56210 0.95433-0.76484-0.32901 0.09526
  -3   1  -4 35820.0 388.480   2 0.32316-0.54299 0.95156-0.72099-0.31872-0.00308
  -3   1  -4 33928.9 318.821   3 0.44678-0.66660-0.19950 0.43006-0.74154 0.41974
  -3   1  -4 35806.9 401.184   0-0.78281 0.56298 0.27048-0.03992 0.47972-0.80152
   3  -1   4 33505.4 304.311   5 0.93853-0.71870 0.42656-0.65712-0.42873 0.75053
  -3   1  -5 41789.3 470.940   2 0.32164-0.52037 0.95369-0.68206-0.32660-0.08325
  -3   1  -5 41117.8 443.996   0-0.80536 0.60663 0.35783-0.08619 0.34564-0.75549
  -3   1  -6 212.599 103.550   0-0.81070 0.63306 0.42488-0.11217 0.22771-0.72560
  -3   1  -6 239.578 110.522   2 0.31802-0.49566 0.95836-0.64566-0.34482-0.15308
  -3   1  -7 16482.1 366.920   2 0.31286-0.46940 0.96409-0.61032-0.36946-0.21648
  -3   1  -8 3059.43 232.763   2 0.30641-0.44186 0.96992-0.57507-0.39837-0.27563
  -3   1  -9 930.225 193.030   2 0.29879-0.41313 0.97517-0.53926-0.43024-0.33181
   3   0  -9 1296.19 272.613   1 0.31626 0.18682 0.96871-0.56963-0.40816-0.45932
   3   0  -8 265.501 116.399   1 0.27899 0.20299 0.97254-0.61453-0.37282-0.40662
   3   0  -7 288.431 122.592   1 0.24361 0.21728 0.97381-0.65687-0.33900-0.35238
   3   0  -6 1912.07 200.731   1 0.21057 0.22923 0.97301-0.69715-0.30720-0.29614
   3   0  -6 1994.23 172.834   3 0.89555-0.45575 0.20733 0.06853 0.09891-0.70225
   3   0  -5 50803.3 554.699   1 0.18054 0.23816 0.97070-0.73590-0.27814-0.23715
   3   0  -5 55275.7 537.200   3 0.83532-0.41663 0.22989 0.00491 0.18771-0.70300
   3   0  -4 1073.29 142.212   1 0.15461 0.24299 0.96751-0.77378-0.25291-0.17433
   3   0  -4 979.756 130.628   3 0.75560-0.35800 0.25068-0.05695 0.28156-0.70880
  -3   0   3 4476.48 155.186   4 0.04878-0.42528-0.98960 0.83694 0.45065-0.11146
  -3   0   3 4430.77 168.266   0 0.33222-0.70872-0.64696 0.49430 0.78676-0.44757
   3   0  -3 4051.46 156.930   1 0.13453 0.24197 0.96431-0.81165-0.23329-0.10590
   3   0  -2 7743.57 134.227   2 0.36443-0.00903 0.67469-0.56310 0.20656-0.45770
   3   0  -2 7291.60 196.589   1 0.12331 0.23209 0.96224-0.85065-0.22230-0.02884
  -3   0   2 7594.27 182.090   0 0.23451-0.58992-0.61978 0.50819 0.85876-0.60762
  -3   0   1 368.306 80.0933   4-0.06593-0.26838-0.99936 0.92884 0.44161-0.27852
   3   0  -1 392.724 103.557   1 0.12666 0.20765 0.96288-0.89236-0.22558 0.06249
  -3   0   1 418.154 76.1115   0 0.07484-0.40915-0.55705 0.48653 0.94240-0.77931
  -3   0   0 54058.0 389.951   4-0.15661-0.15661-0.99648 0.96703 0.42970-0.35465
  -3   0   0 54568.6 350.954   0-0.15661-0.15661-0.42951 0.40006 0.99558-0.92054
  -3   0  -1 4787.74 173.082   4-0.26317-0.02895-0.98065 0.99227 0.41011-0.42312
  -3   0  -1 4553.41 126.469   0-0.41558 0.12346-0.23149 0.24311 0.95226-0.96526
   3   0   1 4556.29 107.385   1 0.24303 0.04909 0.97381-0.98543-0.33844 0.35144
   3   0   2 145.103 57.7279   5 0.41020-0.13918 0.94337-0.99606-0.43805 0.53910
  -3   0  -2 126.782 53.5248   0-0.61760 0.34658-0.01702 0.06971 0.80695-0.90800
  -3   0  -2 64.8979 41.4669   4-0.37843 0.10741-0.94710 0.99979 0.38155-0.48260
  -3   0  -2 138.946 44.2796   2 0.21665-0.48767 0.96378-0.91109-0.67689 0.57584
  -3   0  -3 43222.5 377.678   4-0.49462 0.24469-0.89331 0.98707 0.34378-0.53288
  -3   0  -3 45095.2 359.428   3 0.42270-0.67263-0.20499 0.29875-0.74395 0.55485
  -3   0  -3 42286.0 352.655   0-0.73316 0.48323 0.15794-0.06418 0.62664-0.81574
  -3   0  -3 45867.2 352.766   2 0.26313-0.51306 0.98249-0.88873-0.55473 0.36563
  -3   0  -4 336.083 65.0328   4-0.60483 0.37601-0.81916 0.95399 0.29757-0.57472
  -3   0  -4 401.840 95.6936   3 0.54542-0.77425-0.17459 0.30942-0.72538 0.44823
  -3   0  -4 334.154 72.0401   0-0.78737 0.55854 0.28421-0.14938 0.45990-0.73705
  -3   0  -4 310.015 63.7367   2 0.28247-0.51130 0.98157-0.84674-0.49153 0.21438
   3   0   4 381.838 57.3946   5 0.79659-0.56776 0.67667-0.81150-0.46811 0.74525
  -3   0  -5 12888.8 282.620   0-0.80774 0.60000 0.37420-0.19830 0.31818-0.68338
  -3   0  -5 13203.3 267.530   2 0.29033-0.49807 0.97923-0.80333-0.46305 0.09786
  -3   0  -6 834.101 101.852   3 0.67848-0.86512-0.13358 0.35055-0.68421 0.23096
  -3   0  -6 917.893 125.378   2 0.29239-0.47902 0.97840-0.76143-0.45530 0.00205
  -3   0  -7 1695.36 162.129   2 0.29099-0.45653 0.97897-0.72093-0.46058-0.08071
  -3   0  -8 4495.06 258.276   2 0.28723-0.43168 0.98031-0.68120-0.47450-0.15484
  -3   0  -9 397.881 154.034   2 0.28165-0.40500 0.98175-0.64157-0.49439-0.22299
  -3   0 -10 29.3305 78.8102   2 0.27453-0.37679 0.98272-0.60147-0.51856-0.28687
   3   1  -8 169.889 139.834   1 0.22397 0.26701 0.97356-0.51982-0.32013-0.50396
   3   1  -7 295.404 152.904   1 0.17974 0.29015 0.97062-0.55794-0.27736-0.45868
   3   1  -6 5139.50 254.054   1 0.13634 0.31245 0.96462-0.59302-0.23506-0.41293
   3   1  -5 35868.4 518.502   1 0.09390 0.33380 0.95589-0.62536-0.19338-0.36656
   3   1  -5 40436.1 478.993   3 0.84114-0.41344 0.22803 0.10250 0.17997-0.73991
   3   1  -4 12192.6 284.311   1 0.05258 0.35402 0.94473-0.65527-0.15252-0.31937
   3   1  -4 13331.0 286.462   3 0.75430-0.34770 0.25096 0.03850 0.28294-0.75483
   3   1  -3 27329.5 323.792   2 0.36433 0.02118 0.67198-0.42359 0.21006-0.59390
  -3  -1   3 27373.5 331.603   4 0.26967-0.65518-0.92812 0.67973 0.44889-0.06505
   3   1  -3 24734.5 384.761   1 0.01270 0.37280 0.93151-0.68312-0.11282-0.27103
   3   1  -2 518.873 78.8758   2 0.35222 0.01219 0.52322-0.31589 0.38258-0.67838
  -3  -1   2 562.697 98.1052   4 0.24312-0.60753-0.93862 0.73129 0.45050-0.15470
   3   1  -2 608.240 104.481   1-0.02522 0.38963 0.91672-0.70939-0.07482-0.22098
  -3  -1   2 617.860 88.6543   0 0.33995-0.70436-0.64870 0.44138 0.78032-0.48452
  -3  -1   1 42142.2 347.626   4 0.19313-0.53644-0.95601 0.78975 0.45246-0.24471
   3   1  -1 43377.4 305.139   2 0.31221 0.03110 0.27593-0.10967 0.60574-0.81349
  -3  -1   1 43372.1 327.269   0 0.20663-0.54994-0.61039 0.44413 0.87627-0.66852
  -3  -1   0 51660.0 391.926   4 0.11821-0.44043-0.97645 0.85127 0.45288-0.33317
   3   1   0 52388.4 301.638   2 0.21425 0.10796-0.11129 0.23647 0.84220-0.96190
  -3  -1   0 52032.0 313.318   0-0.02523-0.29699-0.50716 0.38198 0.97515-0.85545
  -3  -1  -1 1435.80 110.352   4 0.01854-0.31966-0.99362 0.90950 0.44892-0.41727
  -3  -1  -1 1418.70 80.0963   0-0.34401 0.04289-0.29300 0.20888 0.97683-0.94518
   3   1   1 1410.39 105.329   1-0.11205 0.41317 0.87465-0.79054 0.01307-0.04473
  -3  -1  -2 835.977 85.9181   4-0.10284-0.17718-0.99933 0.95629 0.43728-0.49367
  -3  -1  -2 16.4972 27.0464   0-0.61218 0.33215-0.02389-0.01915 0.81291-0.86930
  -3  -1  -2 12.6962 31.6054   3 0.32696-0.60699-0.22481 0.18177-0.74826 0.69187
   3   1   2 22.3987 33.2294   1-0.11238 0.39240 0.87447-0.83143 0.01341 0.04299
  -3  -1  -3 3278.02 124.845   4-0.23948-0.01945-0.98537 0.98340 0.41501-0.55946
  -3  -1  -3 3617.98 145.582   3 0.48802-0.74695-0.18957 0.18760-0.73606 0.59162
  -3  -1  -3 3594.95 119.664   0-0.74735 0.48842 0.18573-0.18771 0.59278-0.73722
  -3  -1  -3 3881.39 146.245   2 0.17211-0.43104 0.92604-0.92801-0.76580 0.62136
   3   1   4 52695.2 304.349   5 0.46555-0.22772 0.92241-0.96151-0.44807 0.68056
  -3  -1  -4 56794.4 417.449   4-0.38239 0.14456-0.94561 0.98471 0.38042-0.61291
  -3  -1  -4 54506.6 427.667   3 0.60354-0.84137-0.15787 0.19696-0.71051 0.47802
  -3  -1  -4 60441.7 414.894   0-0.79762 0.55978 0.32036-0.28126 0.40557-0.63807
  -3  -1  -4 59462.0 440.682   2 0.21831-0.45614 0.96485-0.92576-0.67310 0.44061
  -3  -1  -5 13867.1 234.121   4-0.52186 0.30513-0.87732 0.95749 0.33341-0.65395
  -3  -1  -5 13622.1 248.076   0-0.81049 0.59376 0.40773-0.32756 0.25932-0.57986
  -3  -1  -5 13502.3 237.241   3 0.68006-0.89679-0.13303 0.21319-0.68356 0.36302
  -3  -1  -6 75.5887 66.1087   4-0.64937 0.45373-0.78105 0.90228 0.27524-0.68382
  -3  -1  -6 39.7071 46.9443   3 0.72753-0.92316-0.11565 0.23688-0.66168 0.25310
  -3  -1  -6 93.7573 86.2182   2 0.25458-0.45022 0.98104-0.85980-0.58002 0.17143
  -3  -1  -7 5658.14 222.320   3 0.75443-0.92898-0.10498 0.26728-0.64715 0.15051
  -3  -1  -7 5442.76 236.155   2 0.25984-0.43438 0.98205-0.81975-0.56465 0.06801
  -3  -1  -8 9232.08 270.636   3 0.76666-0.92010-0.09991 0.30328-0.63996 0.05527
  -3  -1  -8 9048.32 304.636   2 0.26071-0.41415 0.98219-0.77881-0.56205-0.02263
  -3  -1  -9 5553.32 303.530   2 0.25852-0.39087 0.98184-0.73739-0.56855-0.10418
  -3  -1 -10 1372.08 292.281   2 0.25401-0.36526 0.98090-0.69539-0.58166-0.17912
   3   2  -7 64.1345 92.1715   1 0.12791 0.35099 0.96311-0.45470-0.22680-0.55389
   3   2  -6 224.310 153.961   1 0.07667 0.38112 0.95156-0.48422-0.17638-0.51626
   3   2  -5 1171.44 163.629   1 0.02524 0.41146 0.93593-0.50966-0.12533-0.47927
   3   2  -4 2170.58 172.222   2 0.36532 0.05028 0.70804-0.32285 0.16203-0.67858
   3   2  -4 1987.68 148.942   1-0.02662 0.44222 0.91613-0.53093-0.07341-0.44314
   3   2  -3 36823.4 421.724   2 0.36027 0.03424 0.60469-0.26056 0.29263-0.72114
  -3  -2   3 37337.1 407.864   4 0.40743-0.80194-0.85847 0.51434 0.43373-0.00523
   3   2  -2 21673.9 301.420   2 0.34409 0.02932 0.46050-0.15744 0.44563-0.78608
  -3  -2   2 21400.0 307.514   4 0.39789-0.77130-0.86417 0.56111 0.43517-0.09472
   3   2  -2 19591.0 345.758   1-0.13300 0.50641 0.86277-0.55971 0.03447-0.37492
  -3  -2   1 58.8938 53.2257   0 0.32553-0.67784-0.64540 0.38341 0.79225-0.53985
  -3  -2   1 39.6074 61.4962   4 0.36977-0.72208-0.88018 0.61819 0.43907-0.18667
   3   2  -1 20.8065 43.7701   2 0.30848 0.04384 0.25761 0.00438 0.61981-0.87221
   3   2  -1 20.5657 41.6007   1-0.18861 0.54092 0.82786-0.56587 0.09162-0.34403
  -3  -2   0 2308.02 140.255   4 0.32041-0.65163-0.90552 0.68460 0.44468-0.28032
   3   2   0 2200.91 117.276   1-0.24712 0.57833 0.78562-0.56470 0.15236-0.31671
  -3  -2   0 2419.92 87.9968   0 0.11940-0.45062-0.57669 0.35577 0.92303-0.75868
  -3  -2  -1 14191.0 249.677   4 0.24699-0.55711-0.93715 0.75730 0.45029-0.37398
   3   2   1 13971.5 215.476   1-0.31037 0.62049 0.73316-0.55331 0.21875-0.29506
  -3  -2  -1 14474.8 146.410   0-0.25895-0.05117-0.35900 0.17916 0.99286-0.91655
  -3  -2  -2 1686.22 119.059   4 0.14754-0.43657-0.96923 0.83046 0.45307-0.46481
  -3  -2  -2 1423.72 108.597   3 0.36315-0.65218-0.21768 0.07890-0.74759 0.73585
   3   2   2 1535.27 88.7970   1-0.38169 0.67072 0.66460-0.52582 0.29464-0.28290
  -3  -2  -2 1648.42 65.8597   0-0.63611 0.34708 0.00707-0.14584 0.78538-0.79712
  -3  -2  -3 18481.4 249.794   4 0.02242-0.29035-0.99316 0.89545 0.44917-0.54896
  -3  -2  -3 18287.2 281.474   3 0.52083-0.78876-0.18118 0.08347-0.73041 0.63062
  -3  -2  -3 19892.1 195.636   0-0.78018 0.51225 0.26301-0.36071 0.49032-0.59011
   3   2   3 18578.5 186.701   1-0.46732 0.73525 0.56683-0.46912 0.38743-0.28764
  -3  -2  -4 2535.87 131.224   4-0.12438-0.12245-0.99859 0.94195 0.43442-0.62226
  -3  -2  -4 2471.04 102.616   0-0.80954 0.56271 0.39169-0.44833 0.28794-0.47578
  -3  -2  -4 2329.14 126.508   3 0.63304-0.87987-0.14871 0.09207-0.70120 0.51336
  -3  -2  -5 15874.8 245.283   4-0.28482 0.05908-0.97571 0.96014 0.40536-0.68125
  -3  -2  -5 15532.6 271.518   3 0.70754-0.93327-0.12318 0.10761-0.67144 0.39555
  -3  -2  -5 15399.1 283.085   2 0.17859-0.40433 0.93251-0.94808-0.75425 0.47837
  -3  -2  -6 601.912 106.560   4-0.44797 0.24333-0.91756 0.94306 0.36014-0.72408
  -3  -2  -6 528.479 130.874   3 0.75435-0.95899-0.10501 0.13051-0.64719 0.28326
  -3  -2  -6 475.064 98.3587   2 0.20385-0.40849 0.95463-0.92913-0.70485 0.34092
  -3  -2  -7 342.779 120.326   3 0.78175-0.96529-0.09344 0.16001-0.63053 0.17855
  -3  -2  -7 299.294 141.799   2 0.21836-0.40190 0.96488-0.89831-0.67300 0.22101
  -3  -2  -8 12474.7 315.416   3 0.79539-0.95784-0.08737 0.19501-0.62144 0.08140
  -3  -2  -8 12359.1 327.747   2 0.22585-0.38830 0.96940-0.86176-0.65543 0.11540
  -3  -2  -9 8785.83 319.402   3 0.79886-0.94021-0.08579 0.23450-0.61903-0.00905
  -3  -2  -9 9000.11 356.419   2 0.22854-0.36989 0.97088-0.82217-0.64892 0.02084
  -3  -2 -10 35.0946 94.1422   2 0.22774-0.34800 0.97045-0.78067-0.65086-0.06526
  -3  -2 -11 1262.14 285.840   2 0.22424-0.32340 0.96848-0.73763-0.65927-0.14490
   3   3  -7 2235.47 288.345   1 0.08822 0.39967 0.95451-0.35037-0.18779-0.63756
   3   3  -6 125.442 89.7487   1 0.03143 0.43537 0.93802-0.37495-0.13149-0.60581
   3   3  -5 7319.35 303.760   2 0.36515 0.08055 0.75302-0.23102 0.09759-0.74684
   3   3  -5 6601.89 284.170   1-0.02596 0.47166 0.91640-0.39440-0.07407-0.57518
   3   3  -4 18451.8 406.715   2 0.36439 0.06021 0.67365-0.19272 0.20790-0.76911
   3   3  -4 17522.2 382.806   1-0.08426 0.50887 0.88936-0.40843-0.01519-0.54602
   3   3  -3 5.06165 44.9441   2 0.35738 0.04613 0.57162-0.13176 0.33034-0.80350
  -3  -3   3 28.5155 59.1678   4 0.48800-0.89151-0.80448 0.36461 0.41890 0.05425
   3   3  -3 59.7642 70.6638   1-0.14386 0.54736 0.85634-0.41648 0.04558-0.51874
   3   3  -2 2801.32 191.854   2 0.34104 0.04137 0.43955-0.04076 0.46562-0.85073
  -3  -3   2 2794.85 159.191   4 0.48960-0.87201-0.80329 0.40450 0.41856-0.03345
   3   3  -2 2515.53 166.949   1-0.20520 0.58761 0.81646-0.41767 0.10878-0.49389
   3   3  -1 20601.6 322.758   2 0.31092 0.05039 0.26955 0.08817 0.61067-0.90773
  -3  -3   1 20782.3 343.107   4 0.47700-0.83832-0.81250 0.45477 0.42122-0.12416
   3   3  -1 19712.5 317.081   1-0.26891 0.63022 0.76837-0.41065 0.17514-0.47220
  -3  -3   0 4531.55 178.028   4 0.44812-0.78834-0.83255 0.51590 0.42685-0.21784
   3   3   0 4569.46 166.839   2 0.26192 0.07830 0.05821 0.25845 0.75401-0.96302
   3   3   0 4204.91 193.049   1-0.33573 0.67595 0.70998-0.39333 0.24560-0.45462
  -3  -3  -1 5586.13 186.265   4 0.40007-0.71919-0.86288 0.58730 0.43485-0.31389
   3   3   1 5383.43 186.752   1-0.40655 0.72567 0.63810-0.36252 0.32136-0.44233
  -3  -3  -2 12262.8 238.722   4 0.32950-0.62752-0.90111 0.66660 0.44376-0.41085
  -3  -3  -2 12064.2 243.403   3 0.37100-0.66903-0.21608-0.01843-0.74729 0.78021
   3   3   2 11815.3 213.964   1-0.48211 0.78014 0.54795-0.31344 0.40366-0.43658
  -3  -3  -3 1274.55 103.013   4 0.23328-0.51021-0.94228 0.74884 0.45099-0.50613
  -3  -3  -3 1352.35 113.151   3 0.52857-0.80550-0.17914-0.01431-0.72891 0.67377
   3   3   3 1224.10 81.5549   1-0.56228 0.83921 0.43278-0.23933 0.49310-0.43796
   3   3   4 26578.6 261.859   1-0.64379 0.89962 0.28536-0.13299 0.58732-0.44414
  -3  -3  -4 27265.1 321.415   4 0.10975-0.36558-0.97835 0.82598 0.45274-0.59592
  -3  -3  -5 10604.0 206.935   4-0.03981-0.19493-0.99845 0.88714 0.44426-0.67549
  -3  -3  -5 11023.2 246.820   3 0.71662-0.95136-0.11980 0.00849-0.66711 0.43588
  -3  -3  -6 6506.96 173.746   4-0.20980-0.00384-0.99031 0.92007 0.42070-0.73998
  -3  -3  -6 6859.59 228.257   3 0.76502-0.97866-0.10060 0.03036-0.64094 0.32166
  -3  -3  -7 1633.91 151.683   3 0.79436-0.98691-0.08783 0.05867-0.62214 0.21481
  -3  -3  -8 19075.4 408.116   3 0.81025-0.98170-0.08049 0.09240-0.61085 0.11547
  -3  -3  -8 18952.6 383.624   2 0.18280-0.35425 0.93655-0.92464-0.74652 0.25114
  -3  -3  -9 715.248 168.469   3 0.81629-0.96664-0.07762 0.13060-0.60633 0.02291
  -3  -3  -9 767.389 208.631   2 0.19154-0.34189 0.94449-0.89151-0.72984 0.14642
  -3  -3 -10 1945.79 215.038   3 0.81462-0.94388-0.07842 0.17246-0.60759-0.06388
  -3  -3 -10 2246.47 281.334   2 0.19545-0.32471 0.94785-0.85381-0.72209 0.05062
  -3  -3 -11 74.1247 145.211   3 0.80646-0.91462-0.08227 0.21739-0.61362-0.14590
  -3  -3 -11 89.4823 149.111   2 0.19569-0.30384 0.94805-0.81293-0.72163-0.03790
   3   4  -6 67.2239 151.179   1-0.00060 0.47640 0.92657-0.26776-0.09951-0.68244
   3   4  -5 232.816 158.993   2 0.36542 0.08928 0.73592-0.11819 0.12274-0.81665
   3   4  -5 318.105 137.861   1-0.06171 0.51641 0.90044-0.28270-0.03804-0.65587
   3   4  -4 836.511 228.811   2 0.36367 0.06993 0.65728-0.08062 0.22883-0.83469
   3   4  -4 699.143 168.001   1-0.12358 0.55719 0.86820-0.29153 0.02484-0.63070
   3   4  -3 25125.7 443.483   2 0.35626 0.05625 0.56024-0.02465 0.34292-0.86073
  -3  -4   3 24235.7 428.556   4 0.53299-0.94549-0.76934 0.23374 0.40838 0.10943
   3   4  -3 23047.5 441.931   1-0.18647 0.59898 0.82929-0.29369 0.08942-0.60723
   3   4  -2 48.6670 99.5253   2 0.34121 0.05020 0.44070 0.05383 0.46454-0.89430
  -3  -4   2 66.4558 93.5865   4 0.54148-0.93290-0.76226 0.26773 0.40620 0.02357
   3   4  -2 72.7570 64.7491   1-0.25063 0.64204 0.78290-0.28837 0.15602-0.58579
   3   4  -1 4772.63 195.503   2 0.31597 0.05434 0.29488 0.15858 0.59086-0.93258
  -3  -4   1 5222.44 229.371   4 0.53874-0.90906-0.76456 0.31110 0.40691-0.06520
   3   4  -1 4799.62 208.523   1-0.31627 0.68659 0.72787-0.27442 0.22499-0.56670
  -3  -4   0 74.2117 89.5194   4 0.52342-0.87264-0.77714 0.36475 0.41077-0.15710
   3   4   0 23.4931 55.5509   2 0.27789 0.07133 0.12172 0.29067 0.71491-0.96858
   3   4   0 20.8441 52.1923   1-0.38352 0.73274 0.66270-0.25031 0.29659-0.55026
  -3  -4  -1 28162.3 390.522   4 0.49342-0.82155-0.80045 0.42913 0.41773-0.25211
   3   4   1 28645.4 374.059   2 0.22559 0.10254-0.07327 0.44459 0.82446-0.99008
  -3  -4  -2 8332.12 235.478   4 0.44589-0.75292-0.83404 0.50379 0.42726-0.34969
  -3  -4  -2 8126.20 215.683   3 0.35501-0.66204-0.21932-0.11092-0.74784 0.82541
  -3  -4  -3 303.631 94.7217   4 0.37736-0.66329-0.87597 0.58679 0.43807-0.44855
  -3  -4  -3 331.324 101.651   3 0.51576-0.80170-0.18251-0.10667-0.73136 0.72088
   3   4   3 255.232 92.7127   1-0.59059 0.87653 0.38581-0.09664 0.52537-0.51489
  -3  -4  -4 3672.14 160.774   4 0.28418-0.54902-0.92200 0.67390 0.44784-0.54637
  -3  -4  -4 3532.56 173.679   3 0.63177-0.89661-0.14911-0.09900-0.70163 0.60310
   3   4   4 3628.04 152.989   1-0.65533 0.92016 0.26089-0.01278 0.60105-0.50252
   3   4   5 17847.0 250.600   1-0.71101 0.95475 0.12228 0.08475 0.66953-0.48296
  -3  -4  -5 18167.4 275.057   4 0.16345-0.40718-0.96490 0.75786 0.45298-0.63956
  -3  -4  -5 17935.5 318.040   3 0.71097-0.95471-0.12191-0.08513-0.66982 0.48325
  -3  -4  -6 3021.90 149.043   4 0.01430-0.23694-0.99410 0.82813 0.44864-0.72326
  -3  -4  -6 3064.60 196.780   3 0.76290-0.98554-0.10148-0.06448-0.64221 0.36759
  -3  -4  -7 1750.16 158.876   3 0.79550-0.99705-0.08731-0.03758-0.62136 0.25869
  -3  -4  -8 21338.7 428.134   3 0.81443-0.99488-0.07851-0.00532-0.60773 0.15701
  -3  -4  -9 4465.33 273.928   3 0.82341-0.98277-0.07416 0.03140-0.60083 0.06206
  -3  -4 -10 1623.12 260.569   3 0.82474-0.96300-0.07351 0.07182-0.59978-0.02704
  -3  -4 -11 58.3449 93.0742   3 0.81977-0.93693-0.07594 0.11532-0.60367-0.11120
  -3  -4 -12 318.994 214.813   3 0.80918-0.90525-0.08100 0.16145-0.61164-0.19128
   3   5  -5 2822.82 353.782   2 0.36545 0.09825 0.72986-0.01639 0.13146-0.87002
   3   5  -5 3116.01 319.466   1-0.08432 0.54802 0.88934-0.17587-0.01513-0.72343
   3   5  -4 6169.99 365.841   2 0.36350 0.07910 0.65394 0.01846 0.23304-0.88355
   3   5  -4 5484.04 306.324   1-0.14800 0.59061 0.85384-0.18144 0.04984-0.70035
   3   5  -3 2402.89 198.022   2 0.35654 0.06497 0.56302 0.06831 0.33987-0.90234
   3   5  -3 2220.09 206.975   1-0.21214 0.63365 0.81157-0.18024 0.11597-0.67844
  -3  -5   2 550.778 183.682   4 0.56853-0.96894-0.73871 0.14845 0.39878 0.07563
   3   5  -2 499.050 165.812   1-0.27676 0.67717 0.76195-0.17169 0.18337-0.65778
   3   5  -1 2847.33 224.394   2 0.32216 0.05716 0.32729 0.22190 0.56464-0.95100
   3   5  -1 2714.08 207.925   1-0.34180 0.72112 0.70425-0.15506 0.25205-0.63842
   3   5   0 31907.8 452.029   2 0.29170 0.06652 0.18039 0.32773 0.67580-0.97412
   3   5   0 31485.1 478.526   1-0.40702 0.76524 0.63759-0.12947 0.32187-0.62019
  -3  -5  -1 1477.21 155.371   4 0.54749-0.88461-0.75716 0.29011 0.40461-0.19434
   3   5   1 1373.65 143.901   2 0.25106 0.08607 0.01719 0.44986 0.77750-0.98777
   3   5   1 1412.93 146.082   1-0.47189 0.80901 0.56108-0.09402 0.39243-0.60270
  -3  -5  -2 8462.02 251.103   4 0.51581-0.83184-0.78322 0.35724 0.41261-0.29038
  -3  -5  -2 8229.44 211.474   3 0.31776-0.63379-0.22655-0.19943-0.74826 0.87048
  -3  -5  -3 1412.98 124.835   4 0.46776-0.76269-0.81907 0.43416 0.42309-0.38891
  -3  -5  -3 1332.73 159.905   3 0.48488-0.77982-0.19035-0.19456-0.73654 0.77072
   3   5   3 1309.47 135.968   1-0.59612 0.89106 0.37617 0.00874 0.53172-0.56590
  -3  -5  -4 498.512 105.672   4 0.39990-0.67374-0.86298 0.51914 0.43487-0.48874
  -3  -5  -4 488.515 142.627   3 0.60728-0.88111-0.15673-0.18711-0.70940 0.65553
   3   5   4 490.305 118.937   1-0.65169 0.92553 0.26872 0.07512 0.59671-0.54284
   3   5   5 692.682 127.809   1-0.69943 0.95217 0.15469 0.14809 0.65490-0.51297
  -3  -5  -5 792.990 114.945   4 0.30841-0.56115-0.91117 0.60840 0.44581-0.58773
  -3  -5  -5 649.984 95.6800   3 0.69247-0.94521-0.12865-0.17413-0.67826 0.53634
  -3  -5  -6 4102.14 215.693   3 0.74970-0.98134-0.10690-0.15480-0.64983 0.41986
  -3  -5  -6 4270.25 179.281   4 0.18966-0.42130-0.95710 0.69540 0.45254-0.68251
  -3  -5  -7 623.023 179.322   3 0.78683-0.99738-0.09120-0.12943-0.62721 0.30919
  -3  -5  -8 28639.2 473.415   3 0.80965-0.99910-0.08078-0.09878-0.61129 0.20523
  -3  -5  -9 780.766 196.029   3 0.82207-0.99042-0.07482-0.06367-0.60188 0.10777
  -3  -5 -10 5158.40 294.877   3 0.82658-0.97383-0.07260-0.02482-0.59832 0.01616
  -3  -5 -11 50.1878 108.343   3 0.82472-0.95088-0.07352 0.01717-0.59980-0.07041
   3   6  -4 32.3807 123.709   2 0.36381 0.08780 0.66008 0.10805 0.22529-0.92046
   3   6  -3 1072.92 210.708   2 0.35774 0.07278 0.57541 0.15166 0.32611-0.93323
  -3  -6   3 980.258 226.923   4 0.56316-0.99367-0.74350 0.01644 0.40031 0.20681
   3   6  -3 966.600 185.836   1-0.22478 0.65529 0.80243-0.07537 0.12909-0.73621
  -3  -6   2 191.898 150.918   4 0.57936-0.98877-0.72882 0.04283 0.39561 0.12346
   3   6  -2 236.457 163.093   1-0.28887 0.69828 0.75182-0.06582 0.19609-0.71516
   3   6  -1 190.183 132.697   2 0.32877 0.05955 0.36392 0.28101 0.53376-0.96479
  -3  -6   1 268.855 165.706   4 0.58734-0.97565-0.72137 0.07644 0.39319 0.03783
   3   6  -1 89.2098 124.236   1-0.35249 0.74081 0.69395-0.04903 0.26343-0.69445
   3   6   0 5719.80 275.005   2 0.30401 0.06321 0.23628 0.36758 0.63580-0.97877
   3   6   0 5500.07 259.611   1-0.41525 0.78248 0.62848-0.02462 0.33076-0.67374
  -3  -6  -1 97.0748 100.785   4 0.57657-0.92270-0.73139 0.16861 0.39644-0.14151
   3   6   1 142.943 121.332   1-0.47654 0.82267 0.55514 0.00765 0.39754-0.65246
  -3  -6  -2 35.5515 79.5441   4 0.55555-0.88058-0.75020 0.22849 0.40243-0.23555
   3   6   2 55.9565 92.1519   2 0.23175 0.09328-0.05204 0.57375 0.81404-0.98092
   3   6   2 18.1804 85.4330   1-0.53545 0.86048 0.47396 0.04775 0.46289-0.62976
  -3  -6  -3 1197.40 130.144   4 0.52161-0.82555-0.77859 0.29795 0.41121-0.33238
  -3  -6  -3 1313.80 142.095   3 0.43686-0.74080-0.20178-0.27886-0.74260 0.82143
   3   6   3 1218.70 155.811   1-0.59077 0.89470 0.38551 0.09513 0.52557-0.60440
  -3  -6  -4 1182.86 143.280   4 0.47206-0.75490-0.81603 0.37645 0.42223-0.43145
  -3  -6  -4 1224.36 153.837   3 0.56839-0.85123-0.16818-0.27140-0.72003 0.71081
   3   6   4 1179.51 150.193   1-0.64097 0.92381 0.29117 0.14840 0.58398-0.57476
  -3  -6  -5 17350.9 329.900   4 0.40354-0.66528-0.86081 0.46231 0.43432-0.53159
  -3  -6  -5 17723.5 375.216   3 0.66181-0.92355-0.13928-0.25922-0.69084 0.59357
  -3  -6  -6 18597.1 317.747   4 0.31211-0.55276-0.90945 0.55201 0.44547-0.63079
  -3  -6  -6 18619.4 383.420   3 0.72606-0.96671-0.11621-0.24122-0.66243 0.47711
  -3  -6  -7 8865.33 297.774   3 0.76903-0.98858-0.09891-0.21746-0.63852 0.36516
  -3  -6  -8 2841.70 230.279   3 0.79667-0.99512-0.08678-0.18851-0.62055 0.25914
  -3  -6  -9 9059.74 384.477   3 0.81313-0.99049-0.07913-0.15510-0.60871 0.15925
  -3  -6 -10 3930.39 294.343   3 0.82118-0.97744-0.07525-0.11790-0.60258 0.06507
  -3  -6 -11 380.437 228.254   3 0.82255-0.95772-0.07458-0.07750-0.60150-0.02405
   3   7  -2 95.5076 109.131   2 0.34998 0.06843 0.50470 0.27703 0.40171-0.96544
  -3  -7   2 116.218 182.206   4 0.57886-0.99728-0.72928-0.05245 0.39576 0.16797
   3   7  -1 150.322 143.435   2 0.33539 0.06193 0.40325 0.33741 0.49910-0.97477
   3   7  -1 107.040 128.284   1-0.35259 0.74991 0.69385 0.04681 0.26354-0.73922
   3   7   0 8203.71 389.219   2 0.31510 0.06112 0.29045 0.40914 0.59437-0.98200
  -3  -7   0 8906.84 378.638   4 0.59377-0.97000-0.71524 0.01565 0.39120-0.00357
   3   7   0 7223.10 317.835   1-0.41315 0.78938 0.63081 0.06877 0.32850-0.71612
  -3  -7  -1 1863.99 221.856   4 0.58924-0.94437-0.71956 0.06105 0.39261-0.09303
   3   7   1 1856.07 257.687   2 0.28878 0.06634 0.16766 0.49086 0.68454-0.98412
   3   7   1 1824.52 225.048   1-0.47158 0.82670 0.56147 0.09705 0.39209-0.69167
  -3  -7  -2 56.5067 66.5335   4 0.57561-0.90964-0.73227 0.11483 0.39672-0.18519
   3   7   2 59.9002 116.016   2 0.25658 0.07746 0.03783 0.57962 0.76585-0.97739
   3   7   2 22.6392 90.2263   1-0.52712 0.86115 0.48618 0.13127 0.45356-0.66510
  -3  -7  -3 5193.30 230.964   4 0.55142-0.86436-0.75378 0.17740 0.40355-0.28007
   3   7   3 5335.07 294.106   2 0.21932 0.09361-0.09445 0.67082 0.83449-0.95797
  -3  -7  -3 5219.03 249.143   5 0.67064-0.98357-0.65511 0.07873 0.01189 0.11160
   3   7   3 5281.12 267.627   1-0.57886 0.89179 0.40575 0.17063 0.51194-0.63543
  -3  -7  -4 2109.03 170.808   5 0.67833-0.97016-0.64722 0.11191 0.00691 0.02852
  -3  -7  -4 2055.77 167.682   4 0.51469-0.80653-0.78410 0.24879 0.41287-0.37744
   3   7   4 2174.62 225.202   1-0.62575 0.91759 0.32150 0.21380 0.56609-0.60152
  -3  -7  -5 165.455 100.048   4 0.46277-0.73351-0.82256 0.32832 0.42407-0.47668
  -3  -7  -5 210.588 109.495   5 0.67643-0.94718-0.64917 0.15493 0.00814-0.06075
   3   7   5 217.620 126.016   1-0.66677 0.93752 0.23543 0.25881 0.61480-0.56218
   3   7   6 2110.09 176.597   1-0.70111 0.95076 0.15013 0.30304 0.65700-0.51634
  -3  -7  -6 2298.96 184.706   4 0.39232-0.64196-0.86743 0.41427 0.43599-0.57665
  -3  -7  -6 2356.54 185.509   3 0.69189-0.94154-0.12885-0.32432-0.67851 0.53785
  -3  -7  -7 7542.05 315.426   3 0.74209-0.97064-0.10996-0.30214-0.65403 0.42532
  -3  -7  -8 2535.51 239.579   3 0.77560-0.98306-0.09610-0.27493-0.63445 0.31769
  -3  -7  -9 8424.33 355.461   3 0.79688-0.98324-0.08669-0.24327-0.62041 0.21560
  -3  -7 -10 3.04773 139.345   3 0.80896-0.97422-0.08110-0.20779-0.61180 0.11895
  -3  -7 -11 2577.20 369.138   3 0.81385-0.95801-0.07879-0.16903-0.60817 0.02727
   3   8  -1 5975.03 420.336   2 0.34176 0.06456 0.44443 0.39197 0.46102-0.98135
  -3  -8   1 6468.96 407.755   4 0.58385-0.99017-0.72464-0.11175 0.39426 0.12608
   3   8   0 72.0631 116.619   2 0.32513 0.06010 0.34347 0.45186 0.55117-0.98345
  -3  -8   0 90.8268 118.631   4 0.59082-0.97605-0.71806-0.07726 0.39212 0.04017
   3   8   1 106.448 173.034   2 0.30360 0.06053 0.23438 0.51987 0.63720-0.98144
  -3  -8  -1 94.4541 180.827   4 0.59049-0.95462-0.71838-0.03587 0.39222-0.04798
   3   8   1 62.8271 100.646   1-0.45976 0.82389 0.57624 0.17801 0.37915-0.72338
   3   8   2 329.707 170.113   2 0.27726 0.06577 0.11914 0.59404 0.71656-0.97275
  -3  -8  -2 590.616 161.723   4 0.58222-0.92526-0.72616 0.01298 0.39475-0.13856
  -3  -8  -2 333.875 148.251   5 0.65543-0.99847-0.67029-0.04289 0.02158 0.23461
   3   8   2 355.048 216.862   1-0.51292 0.85596 0.50640 0.20678 0.43774-0.69393
  -3  -8  -3 876.503 172.592   4 0.56502-0.88696-0.74185 0.06974 0.39978-0.23164
   3   8   3 979.563 214.816   2 0.24659 0.07534 0.00078 0.67133 0.78651-0.95465
  -3  -8  -3 913.844 146.195   5 0.67383-0.99577-0.65185-0.02026 0.00983 0.15831
  -3  -8  -4 929.567 167.772   5 0.68527-0.98611-0.63996 0.00892 0.00238 0.07771
  -3  -8  -4 913.681 163.511   4 0.53739-0.83824-0.76568 0.13464 0.40726-0.32717
   3   8   4 1200.71 217.093   2 0.21260 0.08824-0.11674 0.74778 0.84464-0.92473
   3   8   4 723.583 219.683   1-0.60708 0.90792 0.35657 0.27447 0.54436-0.62445
  -3  -8  -5 4492.78 259.346   4 0.49734-0.77709-0.79749 0.20752 0.41686-0.42482
  -3  -8  -5 4429.29 231.684   5 0.68882-0.96856-0.63620 0.04623 0.00004-0.00800
   3   8   5 4439.88 284.638   1-0.64666 0.92640 0.27938 0.31060 0.59072-0.58277
  -3  -8  -6 1252.45 166.211   4 0.44222-0.70086-0.83648 0.28758 0.42792-0.52393
  -3  -8  -6 1270.92 201.622   3 0.64647-0.90511-0.14437-0.40453-0.69653 0.60053
   3   8   6 948.576 172.574   1-0.68047 0.93912 0.20318 0.34572 0.63144-0.53544
  -3  -8  -7 339.259 130.393   3 0.70547-0.94302-0.12394-0.38389-0.67241 0.48835
  -3  -8  -8 654.381 171.897   3 0.74607-0.96252-0.10837-0.35840-0.65185 0.37975
  -3  -8  -9 831.594 260.267   3 0.77308-0.96843-0.09719-0.32851-0.63603 0.27588
  -3  -8 -10 122.343 145.229   3 0.78986-0.96412-0.08985-0.29477-0.62519 0.17699
   3   9   2 889.871 243.024   2 0.29487 0.05717 0.19439 0.61453 0.66604-0.96688
  -3  -9  -2 906.479 181.339   4 0.57907-0.93111-0.72908-0.07983 0.39569-0.09485
   3   9   2 760.069 253.830   1-0.49412 0.84615 0.53212 0.27679 0.41691-0.71775
  -3  -9  -3 26.7551 103.775   4 0.56709-0.89803-0.73999-0.02785 0.39919-0.18640
   3   9   3 60.8651 108.559   2 0.26949 0.06145 0.08779 0.68006 0.73621-0.94901
  -3  -9  -3 6.02127 82.5412   5 0.66743-0.99837-0.65836-0.10949 0.01394 0.19885
   3   9   3 39.9206 110.110   1-0.54190 0.87284 0.46433 0.30352 0.47012-0.68291
  -3  -9  -4 4244.64 297.230   5 0.68149-0.99133-0.64393-0.08285 0.00485 0.11989
  -3  -9  -4 4186.22 285.097   4 0.54616-0.85601-0.75829 0.03151 0.40496-0.28022
   3   9   4 4035.01 333.778   2 0.24104 0.06881-0.01929 0.74607 0.79724-0.92199
  -3  -9  -5 1016.14 213.160   4 0.51476-0.80351-0.78404 0.09833 0.41286-0.37616
   3   9   5 1163.07 244.605   2 0.21048 0.07827-0.12370 0.80940 0.84772-0.88442
  -3  -9  -5 934.960 207.465   5 0.68865-0.97739-0.63638-0.04933 0.00015 0.03654
   3   9   5 815.778 220.872   1-0.62417 0.91291 0.32457 0.36114 0.56423-0.60093
  -3  -9  -6 95.1872 72.6268   4 0.47082-0.73847-0.81691 0.17227 0.42248-0.47383
   3   9   6 288.242 190.809   1-0.65780 0.92545 0.25549 0.38914 0.60401-0.55266
   3   9   7 1641.50 223.008   1-0.68613 0.93268 0.18922 0.41435 0.63839-0.49899
  -3  -9  -8 495.332 163.425   3 0.70726-0.93272-0.12328-0.43922-0.67157 0.44412
  -3  -9  -9 256.718 236.296   3 0.74111-0.94547-0.11034-0.41109-0.65456 0.33906
  -3  -9 -10 1706.38 348.920   3 0.76344-0.94671-0.10126-0.37910-0.64189 0.23834
  -3 -10  -4 1.56807 74.3252   4 0.54465-0.86349-0.75958-0.06293 0.40536-0.23596
   3  10   4 119.848 198.828   1-0.56092 0.87976 0.43494 0.38758 0.49156-0.66096
  -3 -10  -5 95.8613 131.883   4 0.51975-0.81750-0.78008-0.00136 0.41166-0.33031
   3  10   5 94.7948 143.752   2 0.23924 0.05851-0.02571 0.80715 0.80061-0.88196
   3  10   5-13.7737 91.6049   1-0.59927 0.89702 0.37060 0.41084 0.53535-0.61670
  -3 -10  -6-10.1045 46.2217   4 0.48415-0.76080-0.80731 0.06694 0.41973-0.42642
   3  10   6 125.179 135.649   2 0.21202 0.06463-0.11864 0.85901 0.84549-0.83879
   3  10   6 54.4346 93.8203   1-0.63297 0.90962 0.30733 0.43304 0.57455-0.56786
   3  10   7 109.217 168.755   1-0.66187 0.91742 0.24650 0.45281 0.60889-0.51414
  -4   9   7 145.678 246.004   0-0.27702-0.20726-0.34557 0.88043 0.99056-0.67605
  -4   9   6 1561.67 282.472   0-0.34134-0.12185-0.29518 0.87110 0.97754-0.75109
  -4   9   5 3681.34 288.579   1-0.78450 0.34242-0.33261 0.94960 0.78943-0.65102
  -4   9   4 83.7224 160.988   0-0.48267 0.06168-0.16800 0.82606 0.91837-0.86801
  -4   9   4 73.7553 120.778   1-0.78429 0.36330-0.25809 0.91615 0.78114-0.73077
  -4   9   3 2804.43 275.328   1-0.77786 0.37796-0.17101 0.87014 0.76551-0.80320
  -4   9   2 124.988 142.130   1-0.76295 0.38415-0.07208 0.81229 0.74047-0.86621
  -4   8   8 1162.61 265.775   0-0.13527-0.37910-0.44308 0.84113 0.99404-0.54683
   4  -8  -8 753.409 235.207   3 0.99150-0.47713 0.13128-0.52933-0.14739-0.29982
   4  -8  -7 566.025 245.362   3 0.98687-0.49359 0.13935-0.57847-0.12401-0.23516
  -4   8   7 353.248 224.116   0-0.19041-0.30288-0.40724 0.84636 0.99656-0.63740
  -4   8   6 104.899 109.416   0-0.25503-0.21716-0.36188 0.84207 0.99329-0.72217
   4  -8  -6 53.3425 96.9163   5 0.96371-0.49152 0.34574-0.82593-0.40966 0.13855
  -4   8   5 227.240 139.804   0-0.32760-0.12349-0.30630 0.82755 0.98098-0.79791
   4  -8  -5 283.640 161.722   5 0.96897-0.51788 0.32450-0.84576-0.40424 0.22117
  -4   8   4 965.334 200.189   1-0.78261 0.35262-0.37059 0.93292 0.79174-0.69672
   4  -8  -4 825.801 195.758   5 0.97561-0.54562 0.29391-0.85624-0.39613 0.30112
  -4   8   3 8898.37 361.906   0-0.48450 0.07560-0.16618 0.76957 0.91728-0.91031
  -4   8   3 9023.59 357.519   1-0.78494 0.37604-0.28423 0.88763 0.78460-0.77763
   4  -8  -3 9104.57 335.901   5 0.98262-0.57373 0.25426-0.85766-0.38514 0.37817
  -4   8   2 1299.07 229.550   0-0.56062 0.17281-0.08538 0.72985 0.86254-0.94362
  -4   8   2 1117.11 179.734   1-0.77910 0.39130-0.18277 0.82724 0.76798-0.84906
   4  -8  -2 1248.25 196.993   5 0.98882-0.60102 0.20585-0.85032-0.37100 0.45208
   4  -8  -1 19.5639 79.7843   5 0.99290-0.62619 0.14902-0.83455-0.35341 0.52254
  -4   8   1-10.5395 89.0288   0-0.62963 0.26292-0.00149 0.68703 0.79316-0.96229
  -4   8   0 1451.09 306.390   0-0.68849 0.34288 0.08210 0.64450 0.71159-0.96877
   4  -8   0 1101.43 268.012   5 0.99345-0.64784 0.08419-0.81080-0.33210 0.58927
  -4   8  -1 301.110 211.231   0-0.73556 0.41105 0.16248 0.60519 0.62121-0.96643
   4  -8   1 509.623 222.514   5 0.98905-0.66454 0.01189-0.77957-0.30678 0.65201
  -4   8  -2 485.118 230.938   0-0.77050 0.46708 0.23758 0.57117 0.52544-0.95871
  -4   7   8 251.008 193.548   0-0.05288-0.47051-0.49197 0.79429 0.98160-0.48973
   4  -7  -8 402.193 225.656   3 0.98173-0.45835 0.14666-0.44897-0.10237-0.38950
  -4   7   7 668.590 231.384   0-0.10428-0.39801-0.46212 0.80550 0.99056-0.58674
   4  -7  -7 1019.88 228.852   3 0.97269-0.47040 0.15713-0.50051-0.07053-0.33329
   4  -7  -6 2166.14 222.148   3 0.96298-0.48180 0.16633-0.55079-0.04166-0.27410
   4  -7  -6 2206.82 234.609   5 0.92790-0.44671 0.45428-0.83873-0.43465 0.11889
  -4   7   6 2252.62 266.670   0-0.16707-0.31412-0.42273 0.80718 0.99608-0.68031
   4  -7  -5 21931.6 447.300   5 0.93545-0.47536 0.43488-0.86040-0.43054 0.20282
   4  -7  -5 21858.7 474.749   3 0.95340-0.49331 0.17412-0.59964-0.01658-0.21114
  -4   7   5 23689.7 542.440   0-0.24053-0.21956-0.37238 0.79791 0.99463-0.76691
  -4   7   4 3820.39 265.204   0-0.32251-0.11649-0.31037 0.77696 0.98216-0.84249
   4  -7  -4 3875.77 247.850   5 0.94590-0.50690 0.40553-0.87212-0.42401 0.28434
   4  -7  -3 12.9403 66.5205   5 0.95808-0.54018 0.36633-0.87399-0.41476 0.36314
  -4   7   3 65.1080 89.1793   0-0.40923-0.00867-0.23719 0.74485 0.95489-0.90327
  -4   7   2 217.889 116.914   0-0.49569 0.09889-0.15492 0.70365 0.91039-0.94682
  -4   7   2 363.261 140.558   1-0.78503 0.38822-0.30272 0.85145 0.78669-0.82311
   4  -7  -2 201.448 141.903   5 0.97061-0.57381 0.31739-0.86612-0.40238 0.43881
  -4   7   1 45.1498 77.5127   0-0.57659 0.20088-0.06701 0.65681 0.84842-0.97290
   4  -7  -1 71.1052 112.425   5 0.98190-0.60619 0.25889-0.84869-0.38645 0.51093
  -4   7   0 2630.88 245.041   0-0.64748 0.29287 0.02243 0.60844 0.77109-0.98361
   4  -7   0 2732.87 268.690   5 0.99020-0.63559 0.19115-0.82202-0.36655 0.57907
  -4   7  -1 105.446 130.391   0-0.70562 0.37211 0.10952 0.56242 0.68211-0.98268
   4  -7   1 45.2535 132.682   5 0.99373-0.66021 0.11467-0.78661-0.34228 0.64285
  -4   7  -2 27.4010 114.384   0-0.75008 0.43766 0.19138 0.52163 0.58571-0.97433
   4  -7   2 81.1314 148.771   5 0.99066-0.67824 0.03012-0.74313-0.31332 0.70194
  -4   7  -3 2456.78 339.005   0-0.78135 0.49002 0.26628 0.48780 0.48569-0.96236
  -4   7  -4 1282.17 317.019   0-0.80068 0.53046 0.33351 0.46164 0.38497-0.94968
  -4   6   8 33.3620 133.038   0 0.02547-0.55785-0.53343 0.74001 0.96041-0.42389
   4  -6  -8 57.5937 85.8007   3 0.97077-0.43839 0.15908-0.36566-0.06448-0.47204
  -4   6   7 7739.26 390.011   0-0.02053-0.49075-0.50968 0.75733 0.97395-0.52548
   4  -6  -7 8087.61 414.007   3 0.95660-0.44531 0.17164-0.41929-0.02464-0.42383
  -4   6   6 132.644 158.466   0-0.07934-0.41085-0.47687 0.76559 0.98670-0.62628
   4  -6  -6 160.955 97.9414   3 0.94054-0.45035 0.18316-0.47188 0.01344-0.37386
   4  -6  -5 691.308 160.665   3 0.92317-0.45408 0.19359-0.52338 0.04931-0.32168
   4  -6  -5 884.378 174.493   5 0.88303-0.41393 0.54880-0.87859-0.45223 0.17985
  -4   6   5 850.070 215.129   0-0.15125-0.31785-0.43296 0.76275 0.99526-0.72289
   4  -6  -4 12.0627 70.7575   5 0.89719-0.44919 0.52200-0.89286-0.44768 0.26336
   4  -6  -4 24.9136 74.2318   3 0.90523-0.45723 0.20284-0.57370 0.08237-0.26670
  -4   6   4 24.6903 77.2123   0-0.23513-0.21287-0.37625 0.74711 0.99504-0.81071
   4  -6  -3 19726.6 387.932   3 0.88772-0.46082 0.21075-0.62268 0.11172-0.20799
   4  -6  -3 19327.7 430.110   5 0.91499-0.48809 0.48464-0.89657-0.44076 0.34448
  -4   6   2 471.708 118.247   0-0.42403 0.01822-0.22383 0.67683 0.94861-0.94038
   4  -6  -2 360.465 91.9978   5 0.93484-0.52904 0.43650-0.88950-0.43089 0.42266
  -4   6   1 1045.83 168.388   0-0.51726 0.13255-0.13266 0.62673 0.89606-0.97588
  -4   6   1 1144.27 150.197   1-0.78497 0.40026-0.31065 0.80472 0.78749-0.86731
   4  -6  -1 991.423 166.038   5 0.95483-0.57012 0.37743-0.87150-0.41744 0.49726
  -4   6   0 3512.97 264.760   0-0.60129 0.23768-0.03742 0.57256 0.82441-0.99228
   4  -6   0 3681.03 257.312   5 0.97279-0.60918 0.30752-0.84266-0.39978 0.56765
  -4   6  -1 1309.50 215.919   0-0.67177 0.32925 0.05687 0.51934 0.73753-0.99344
   4  -6   1 1179.05 200.381   5 0.98641-0.64390 0.22711-0.80332-0.37730 0.63322
  -4   6  -2 1646.55 251.612   0-0.72679 0.40537 0.14617 0.47111 0.64054-0.98450
   4  -6   2 1291.29 192.814   5 0.99333-0.67191 0.13684-0.75412-0.34951 0.69347
  -4   6  -3 59.6527 143.350   0-0.76654 0.46621 0.22794 0.43040 0.53837-0.97039
   4  -6   3 77.8600 129.019   5 0.99122-0.69090 0.03767-0.69602-0.31600 0.74801
  -4   6  -4 3733.94 349.319   0-0.79248 0.51326 0.30113 0.39829 0.43489-0.95495
  -4   6  -5 29114.5 696.006   0-0.80657 0.54844 0.36564 0.37485 0.33264-0.94075
  -4   6  -5 30017.3 628.405   2 0.35337-0.61150 0.87125-0.13076-0.10800-0.50011
   4  -5  -9 1003.01 222.590   3 0.97617-0.41369 0.15336-0.22314-0.08209-0.58713
  -4   5   9 973.657 273.653   0 0.12566-0.68814-0.57932 0.64910 0.92007-0.25085
   4  -5  -8 83.3580 121.988   3 0.96020-0.41882 0.16870-0.27955-0.03409-0.54708
  -4   5   8 205.220 180.351   0 0.09818-0.63957-0.56754 0.67839 0.93263-0.35145
   4  -5  -7 2901.53 279.844   3 0.94061-0.42032 0.18312-0.33504 0.01329-0.50642
  -4   5   7 3131.23 299.626   0 0.05891-0.57919-0.54964 0.70156 0.94861-0.45548
   4  -5  -6 22.6127 74.2446   3 0.91760-0.41841 0.19661-0.38960 0.05995-0.46503
   4  -5  -6 8.64286 61.0800   5 0.79802-0.29883 0.67493-0.86791-0.46797 0.06289
  -4   5   5 2782.02 214.412   0-0.06175-0.41634-0.48697 0.72102 0.98343-0.66640
   4  -5  -5 2955.17 242.913   3 0.89144-0.41334 0.20915-0.44321 0.10570-0.42273
   4  -5  -5 2730.41 175.392   5 0.80773-0.32963 0.66276-0.89682-0.46691 0.14988
  -4   5   4 2562.02 196.034   0-0.14476-0.31224-0.43710 0.71222 0.99481-0.76583
   4  -5  -4 2350.24 220.834   3 0.86243-0.40544 0.22071-0.49583 0.15027-0.37925
   4  -5  -4 2405.05 178.777   5 0.82474-0.36774 0.64029-0.91541-0.46468 0.23570
   4  -5  -3 694.071 156.685   3 0.83104-0.39513 0.23122-0.54742 0.19332-0.33425
  -4   5   3 856.152 171.766   0-0.24105-0.19485-0.37201 0.68821 0.99459-0.85365
   4  -5  -3 827.151 145.153   5 0.84793-0.41203 0.60690-0.92309-0.46072 0.31979
  -4   5   2 5.01368 59.6774   0-0.34577-0.06903-0.29155 0.64882 0.97636-0.92347
   4  -5  -2 41.8627 83.9022   3 0.79791-0.38310 0.24063-0.59789 0.23432-0.28720
   4  -5  -2 39.6427 45.4626   5 0.87570-0.46089 0.56183-0.91909-0.45430 0.40141
   4  -5  -1 1123.50 173.630   5 0.90585-0.51214 0.50440-0.90274-0.44451 0.47967
  -4   5   1 872.724 143.516   0-0.45147 0.05776-0.19830 0.59663 0.93557-0.97073
  -4   5   0 1526.73 178.046   0-0.54984 0.17723-0.09747 0.53687 0.87150-0.99472
  -4   5   0 1432.37 156.085   1-0.78503 0.41241-0.30266 0.74206 0.78668-0.90989
   4  -5   0 1316.55 155.899   5 0.93573-0.56312 0.43414-0.87354-0.43038 0.55359
   4  -5   1 1985.76 198.990   5 0.96233-0.61081 0.35099-0.83146-0.41097 0.62224
  -4   5  -1 2051.91 188.476   0-0.63422 0.28270 0.00456 0.47591 0.78767-0.99893
  -4   5  -2 7108.93 324.360   0-0.70113 0.37071 0.10216 0.41939 0.69016-0.98947
   4  -5   2 6779.84 285.053   5 0.98245-0.65203 0.25538-0.77692-0.38546 0.68477
  -4   5  -3 295.203 124.869   0-0.75020 0.44088 0.19163 0.37098 0.58539-0.97275
   4  -5   3 155.198 115.739   5 0.99293-0.68360 0.14828-0.71089-0.35317 0.74053
  -4   5  -4 325.770 181.810   0-0.78310 0.49487 0.27132 0.33236 0.47851-0.95392
  -4   5  -4 336.741 136.386   2 0.35618-0.64441 0.85616-0.25247-0.07756-0.39785
  -4   5  -5 222.280 167.515   0-0.80228 0.53514 0.34106 0.30370 0.37294-0.93640
  -4   5  -5 175.406 143.479   2 0.35087-0.61800 0.88261-0.23785-0.13213-0.43132
  -4   5  -6 3703.82 386.248   0-0.81021 0.56417 0.40149 0.28433 0.27056-0.92206
  -4   5  -6 3404.45 297.088   2 0.34450-0.59054 0.90574-0.21992-0.18536-0.46614
  -4   4   9 1079.81 229.853   0 0.18423-0.75571-0.60235 0.57639 0.88943-0.17555
   4  -4  -9 1425.09 224.437   3 0.97127-0.39978 0.15858-0.13262-0.06603-0.64785
  -4   4   8 4789.63 325.894   0 0.16391-0.71430-0.59469 0.60980 0.90066-0.27483
   4  -4  -8 4852.02 303.851   3 0.95138-0.40099 0.17563-0.19074-0.01161-0.61422
  -4   4   7 161.886 110.691   0 0.13223-0.66152-0.58205 0.63823 0.91690-0.37912
   4  -4  -7 38.7188 95.6741   3 0.92643-0.39714 0.19177-0.24795 0.04292-0.58070
   4  -4  -6 6862.64 314.078   3 0.89635-0.38816 0.20697-0.30422 0.09757-0.54730
  -4   4   6 6346.89 332.030   0 0.08692-0.59511-0.56253 0.65979 0.93745-0.48772
   4  -4  -6 6468.62 248.181   5 0.69926-0.19106 0.77725-0.87450-0.47160 0.02187
  -4   4   5 1082.41 179.139   0 0.02560-0.51269-0.53349 0.67182 0.96037-0.59868
   4  -4  -5 1258.79 197.300   3 0.86102-0.37392 0.22122-0.35954 0.15232-0.51400
   4  -4  -5 1234.52 150.300   5 0.70687-0.21977 0.77052-0.90884-0.47170 0.11002
  -4   4   4 9640.47 313.482   0-0.05350-0.41250-0.49162 0.67101 0.98173-0.70809
   4  -4  -4 9818.71 319.775   3 0.82026-0.35427 0.23445-0.41384 0.20709-0.48073
   4  -4  -4 9698.56 288.744   5 0.72446-0.25846 0.75430-0.93369-0.47172 0.19809
   4  -4  -3 4088.58 191.233   3 0.77388-0.32898 0.24657-0.46703 0.26177-0.44735
   4  -4  -3 4421.88 207.629   5 0.75139-0.30648 0.72758-0.94804-0.47112 0.28553
  -4   4   3 4275.46 223.650   0-0.15031-0.29460-0.43356 0.65402 0.99520-0.80961
  -4   4   2 20115.4 362.279   0-0.26138-0.16242-0.35722 0.61875 0.99259-0.89505
   4  -4  -2 20570.2 346.116   5 0.78634-0.36253 0.68897-0.95050-0.46904 0.37150
  -4   4   1 731.853 152.238   0-0.37909-0.02362-0.26359 0.56619 0.96616-0.95667
   4  -4  -1 689.800 102.546   5 0.82720-0.42449 0.63690-0.93950-0.46431 0.45482
   4  -4   0 8588.54 281.296   5 0.87098-0.48936 0.56995-0.91362-0.45554 0.53410
  -4   4   0 8578.60 281.103   0-0.49296 0.11134-0.15769 0.50136 0.91211-0.99066
  -4   4  -1 1691.95 174.192   0-0.59316 0.23264-0.04733 0.43207 0.83262-0.99923
   4  -4   1 1703.76 168.194   5 0.91388-0.55337 0.48710-0.87184-0.44124 0.60784
   4  -4   2 14.8467 59.6512   5 0.95156-0.61214 0.38808-0.81389-0.41997 0.67463
  -4   4  -2 14.6409 57.6079   0-0.67368 0.33426 0.05969 0.36612 0.73469-0.98934
   4  -4   3 3096.28 219.374   5 0.97944-0.66111 0.27354-0.74042-0.39055 0.73326
  -4   4  -3 3095.95 266.524   0-0.73315 0.41482 0.15792 0.30896 0.62666-0.96936
  -4   4  -3 3180.37 185.782   2 0.35591-0.67424 0.85773-0.39085-0.08065-0.26205
  -4   4  -4 56.7332 105.756   0-0.77338 0.47616 0.24485 0.26310 0.51554-0.94629
  -4   4  -4 137.721 89.5368   2 0.35139-0.64862 0.88034-0.37239-0.12723-0.30353
  -4   4  -5 6890.85 321.236   0-0.79756 0.52143 0.32014 0.22888 0.40591-0.92471
  -4   4  -5 6570.73 290.889   2 0.34599-0.62213 0.90091-0.35189-0.17372-0.34508
  -4   4  -6 47.6133 112.919   0-0.80891 0.55388 0.38467 0.20542 0.30020-0.90705
  -4   4  -6 15.7570 67.5750   2 0.33969-0.59472 0.91941-0.32932-0.22018-0.38667
  -4   4  -7 35.1927 86.8041   2 0.33245-0.56639 0.93580-0.30464-0.26662-0.42828
   4  -3  -9 4656.64 292.906   3 0.96867-0.38819 0.16113-0.03944-0.05808-0.70046
  -4   3   9 3758.76 288.130   0 0.23480-0.81528-0.61987 0.49818 0.85857-0.10004
   4  -3  -8 53.9258 95.7382   3 0.94540-0.38601 0.17991-0.09928 0.00252-0.67300
  -4   3   8 26.3741 77.9304   0 0.22164-0.78102-0.61553 0.53490 0.86701-0.19652
  -4   3   7 15.9277 93.3684   0 0.19793-0.73622-0.60732 0.56776 0.88148-0.29905
   4  -3  -7 44.3184 71.7902   3 0.91552-0.37723 0.19770-0.15815 0.06384-0.64627
   4  -3  -6 1263.26 133.792   5 0.57961-0.06242 0.86460-0.86612-0.46388-0.03051
  -4   3   6 1346.44 197.270   0 0.16115-0.67834-0.59362 0.59514 0.90214-0.40775
   4  -3  -5 685.707 141.104   5 0.58148-0.08538 0.86348-0.90606-0.46407 0.05773
   4  -3  -5 736.701 145.272   3 0.83437-0.33827 0.23019-0.27278 0.18896-0.59530
  -4   3   5 741.343 178.028   0 0.10825-0.60435-0.57193 0.61452 0.92816-0.52182
  -4   3   4 22.5003 63.8513   0 0.03603-0.51103-0.53865 0.62230 0.95686-0.63857
   4  -3  -4 11.9988 59.0558   3 0.78192-0.30692 0.24466-0.32831 0.25278-0.57107
   4  -3  -4 7.86505 50.6808   5 0.59566-0.12066 0.85467-0.93832-0.46550 0.14721
  -4   3   3 58.7281 57.2121   4-0.69192 0.23801-0.73909 0.86381 0.25140-0.02116
  -4   3   3 72.5852 78.5133   0-0.05765-0.39625-0.48929 0.61401 0.98260-0.75235
   4  -3  -3 85.6120 84.0522   3 0.72053-0.26662 0.25768-0.38240 0.31725-0.54749
  -4   3   2 47.4224 88.8277   0-0.17186-0.26094-0.41958 0.58538 0.99625-0.85405
   4  -3  -2 13.6498 47.5545   5 0.66117-0.22837 0.80863-0.97442-0.47033 0.32813
  -4   3   1 26713.2 395.392   0-0.30017-0.11154-0.32792 0.53478 0.98676-0.93261
   4  -3  -1 26618.8 385.980   5 0.71073-0.29902 0.76703-0.97390-0.47173 0.41759
  -4   3   0 77316.1 575.403   0-0.43044 0.03983-0.21795 0.46588 0.94573-0.97963
   4  -3   0 77295.2 586.265   5 0.76841-0.37779 0.70937-0.95731-0.47031 0.50421
  -4   3  -1 419.333 96.6651   0-0.54877 0.17925-0.09866 0.38767 0.87237-0.99432
   4  -3   1 276.860 80.7230   5 0.83006-0.46054 0.63293-0.92193-0.46387 0.58582
  -4   3  -2 1943.71 147.411   0-0.64515 0.29673 0.01925 0.31083 0.77408-0.98408
   4  -3   2 2401.30 179.871   5 0.89013-0.54170 0.53565-0.86573-0.45004 0.66004
  -4   3  -3 6840.38 240.041   0-0.71635 0.38903 0.12767 0.24348 0.66183-0.95988
   4  -3   3 6530.26 226.800   5 0.94201-0.61468 0.41684-0.78798-0.42657 0.72462
  -4   3  -3 6613.97 199.191   2 0.34574-0.67307 0.90175-0.53060-0.17571-0.12233
  -4   3  -4 870.150 133.044   0-0.76433 0.45810 0.22274 0.18947 0.54528-0.93138
  -4   3  -4 846.886 132.325   2 0.34203-0.64827 0.91308-0.50086-0.20367-0.18243
  -4   3  -5 6203.92 312.245   0-0.79328 0.50815 0.30395 0.14934 0.43064-0.90479
  -4   3  -5 6034.73 251.262   2 0.33727-0.62240 0.92538-0.47210-0.23640-0.23774
  -4   3  -6 4300.25 293.405   0-0.80752 0.54349 0.37252 0.12184 0.32104-0.88324
  -4   3  -6 4115.71 257.196   2 0.33152-0.59555 0.93761-0.44326-0.27217-0.29002
  -4   3  -7 318.425 131.720   2 0.32480-0.56774 0.94911-0.41369-0.30998-0.34026
  -4   3  -8 453.808 189.311   2 0.31712-0.53896 0.95944-0.38295-0.34925-0.38904
   4  -2  -9 413.547 146.079   3 0.96894-0.37946 0.16087 0.05655-0.05889-0.74430
  -4   2   8 143.107 136.150   0 0.27069-0.83908-0.63091 0.45455 0.83408-0.11894
   4  -2  -8 88.0715 123.386   3 0.94310-0.37472 0.18146-0.00511 0.00773-0.72287
  -4   2   7 6532.19 308.096   0 0.25486-0.80215-0.62618 0.49090 0.84516-0.21807
   4  -2  -7 6544.97 285.559   3 0.90906-0.36177 0.20097-0.06569 0.07558-0.70267
   4  -2  -6 231.792 136.910   3 0.86618-0.33999 0.21933-0.12511 0.14481-0.68385
  -4   2   6 19.1654 58.4655   0 0.22700-0.75319-0.61731 0.52310 0.86361-0.32457
   4  -2  -5 927.142 143.291   5 0.43855 0.06655 0.93317-0.88002-0.44335-0.00764
  -4   2   5 980.170 188.688   0 0.18374-0.68884-0.60217 0.54902 0.88971-0.43871
   4  -2  -5 968.787 122.239   3 0.81356-0.30846 0.23637-0.18323 0.21544-0.66643
   4  -2  -4 1954.54 190.766   5 0.44432 0.03968 0.93095-0.91888-0.44439 0.08145
   4  -2  -4 1952.99 157.499   3 0.75009-0.26609 0.25185-0.23977 0.28736-0.65031
  -4   2   4 1999.66 165.621   0 0.12088-0.60488-0.57732 0.56524 0.92234-0.55939
   4  -2  -3 8379.05 247.380   5 0.46477-0.00186 0.92274-0.95173-0.44794 0.17304
  -4   2   3 9049.46 226.897   4-0.51655 0.05364-0.88055 0.90954 0.33549-0.06059
  -4   2   3 8993.02 267.423   0 0.03408-0.49699-0.53769 0.56668 0.95753-0.68263
   4  -2  -2 4371.73 199.040   5 0.50079-0.05898 0.90678-0.97684-0.45369 0.26684
  -4   2   2 4115.61 163.616   4-0.53628 0.09447-0.86828 0.93834 0.32766-0.14081
  -4   2   2 3835.37 162.926   0-0.07904-0.36277-0.47704 0.54711 0.98665-0.79980
   4  -2  -1 69004.1 546.895   5 0.55266-0.13195 0.88022-0.99135-0.46079 0.36199
  -4   2   1 73134.2 533.752   4-0.56819 0.14748-0.84673 0.95786 0.31424-0.21544
  -4   2   1 68763.3 548.732   0-0.21517-0.20554-0.39030 0.50143 0.99612-0.89732
  -4   2   0 148783. 753.248   4-0.60880 0.20919-0.81598 0.96818 0.29568-0.28493
   4  -2   0 146551. 765.060   5 0.61938-0.21976 0.83906-0.99126-0.46760 0.45685
  -4   2  -1 7719.97 226.029   4-0.65487 0.27635-0.77595 0.96922 0.27230-0.34960
  -4   2  -1 6930.79 209.728   0-0.50130 0.12278-0.14920 0.34248 0.90680-0.98410
   4  -2   1 7775.21 242.539   5 0.69799-0.31947 0.77836-0.97163-0.47158 0.54888
  -4   2  -2 28.6508 41.1803   2 0.31787-0.67530 0.95854-0.72420-0.34553 0.18019
   4  -2   2 29.1404 69.0427   5 0.78290-0.42547 0.69298-0.92733-0.46932 0.63466
  -4   2  -2 41.2686 76.2493   0-0.61651 0.25908-0.01841 0.25275 0.80816-0.97351
  -4   2  -3 796.476 116.707   0-0.70113 0.36480 0.10216 0.17326 0.69016-0.94356
  -4   2  -3 824.794 101.156   2 0.32381-0.66014 0.95060-0.67519-0.31528 0.06189
   4  -2   3 860.653 122.340   5 0.86573-0.52940 0.57875-0.85416-0.45685 0.71024
  -4   2  -4 14.1582 40.0431   0-0.75716 0.44193 0.20652 0.10996 0.56645-0.90789
  -4   2  -4 31.2506 81.2090   2 0.32442-0.63965 0.94969-0.63321-0.31203-0.02941
   4  -2   4 26.6210 67.6135   5 0.93588-0.62065 0.43374-0.75022-0.43029 0.77174
  -4   2  -5 5463.60 233.438   0-0.79038 0.49624 0.29394 0.06361 0.44560-0.87509
  -4   2  -5 5148.26 238.957   2 0.32227-0.61641 0.95281-0.59526-0.32333-0.10616
  -4   2  -6 137.362 99.5429   0-0.80667 0.53363 0.36631 0.03231 0.33152-0.84906
  -4   2  -6 155.374 109.584   2 0.31832-0.59136 0.95800-0.55938-0.34335-0.17419
  -4   2  -7 114.229 97.2550   0-0.81068 0.55874 0.42618 0.01351 0.22525-0.83084
  -4   2  -7 110.197 103.473   2 0.31295-0.56490 0.96399-0.52430-0.36903-0.23656
  -4   2  -8 1790.92 205.259   2 0.30637-0.53721 0.96995-0.48919-0.39857-0.29506
  -4   2  -9 7677.84 352.484   2 0.29862-0.50838 0.97526-0.45343-0.43089-0.35080
   4  -1  -8 1528.27 242.909   3 0.94507-0.36768 0.18013 0.09196 0.00326-0.76306
  -4   1   8 1569.51 229.744   0 0.31077-0.88816-0.64179 0.36970 0.80405-0.04426
  -4   1   7 228.603 155.007   0 0.30234-0.85863-0.63963 0.40861 0.81061-0.13887
   4  -1  -7 140.871 109.634   3 0.90797-0.35168 0.20151 0.02951 0.07753-0.74927
  -4   1   6 196.782 145.402   0 0.28320-0.81839-0.63447 0.44452 0.82502-0.24133
   4  -1  -6 224.889 147.723   1 0.31828 0.21692 0.96842-0.77847-0.41007-0.17363
   4  -1  -6 185.965 109.766   3 0.86012-0.32493 0.22155-0.03159 0.15361-0.73730
   4  -1  -5 967.314 154.764   1 0.30479 0.20931 0.97017-0.82129-0.39732-0.09833
   4  -1  -5 994.101 151.890   3 0.80029-0.28619 0.24000-0.09112 0.23150-0.72714
  -4   1   5 838.369 147.612   0 0.25000-0.76410-0.62469 0.47581 0.84847-0.35283
   4  -1  -4 56.7995 90.5558   1 0.29852 0.19449 0.97086-0.86305-0.39137-0.01623
  -4   1   4 69.5138 63.3634   0 0.19806-0.69107-0.60737 0.49955 0.88140-0.47380
   4  -1  -4 171.295 84.0952   3 0.72699-0.23398 0.25647-0.14866 0.31088-0.71848
  -4   1   3 11573.6 258.170   4-0.29778-0.17413-0.97246 0.90571 0.40238-0.08283
   4  -1  -3 11019.6 303.092   1 0.30213 0.16978 0.97047-0.90373-0.39479 0.07524
  -4   1   3 11339.2 279.030   0 0.12145-0.59335-0.57756 0.51081 0.92207-0.60252
  -4   1   2 1862.08 126.555   4-0.32559-0.12522-0.96473 0.93906 0.39566-0.16415
   4  -1  -2 1636.57 137.658   1 0.31973 0.13108 0.96821-0.94254-0.41144 0.17994
  -4   1   2 1916.01 139.819   0 0.01423-0.46504-0.52778 0.50211 0.96400-0.73250
  -4   1   1 9043.14 222.304   0-0.12536-0.30436-0.44926 0.46465 0.99309-0.84963
  -4   1   1 8835.40 211.865   4-0.36865-0.06107-0.95066 0.96606 0.38430-0.24084
  -4   1   0 29509.5 370.459   4-0.42368 0.01506-0.92874 0.98521 0.36801-0.31260
  -4   1   0 28980.3 339.516   0-0.28808-0.12054-0.33720 0.39367 0.98886-0.93346
   4  -1   1 48065.7 430.502   5 0.51109-0.12357 0.90185-0.99939-0.45522 0.48786
  -4   1  -1 49592.8 454.168   4-0.48716 0.09964-0.89744 0.99498 0.34651-0.37916
  -4   1  -1 48211.4 415.662   0-0.45118 0.06366-0.19857 0.29611 0.93571-0.96835
  -4   1  -2 73786.8 522.467   0-0.58921 0.22278-0.05208 0.19069 0.83650-0.95719
  -4   1  -2 75280.1 405.947   2 0.25005-0.61648 0.97986-0.84125-0.59283 0.47214
   4  -1   2 73288.8 510.759   5 0.61463-0.24820 0.84227-0.98088-0.46721 0.58790
  -4   1  -3 3544.47 169.324   4-0.62517 0.27984-0.80243 0.98211 0.28767-0.49641
  -4   1  -3 3435.00 151.192   0-0.68935 0.34402 0.08343 0.09625 0.71020-0.91894
  -4   1  -3 3632.09 141.506   2 0.28068-0.62601 0.98194-0.80226-0.49779 0.28905
  -4   1  -4 1206.08 145.687   4-0.69311 0.36888-0.73782 0.95857 0.25070-0.54748
  -4   1  -4 968.254 106.689   0-0.75345 0.42921 0.19848 0.02227 0.57674-0.87352
  -4   1  -4 1176.92 137.370   2 0.29315-0.61738 0.97806-0.75732-0.45238 0.15559
   4  -1   4 1167.53 117.158   5 0.84281-0.51858 0.61457-0.83532-0.46169 0.75848
  -4   1  -5 3912.87 170.988   3 0.35363-0.65677-0.21960 0.48142-0.74788 0.36304
  -4   1  -5 4307.67 215.745   0-0.78986 0.48672 0.29222-0.03040 0.44815-0.83299
  -4   1  -5 4215.12 183.564   2 0.29764-0.60078 0.97582-0.71400-0.43481 0.04998
  -4   1  -6 477.802 140.030   0-0.80688 0.52484 0.36774-0.06485 0.32912-0.80201
  -4   1  -6 346.964 91.3901   2 0.29785-0.57989 0.97571-0.67282-0.43400-0.03888
  -4   1  -7 217.304 121.266   2 0.29533-0.55628 0.97704-0.63308-0.44393-0.11700
  -4   1  -8 21777.2 461.457   2 0.29085-0.53069 0.97903-0.59400-0.46113-0.18785
  -4   1  -9 1118.81 184.996   2 0.28476-0.50351 0.98102-0.55493-0.48345-0.25358
   4   0  -8 743.534 211.060   1 0.30351 0.28288 0.97032-0.60249-0.39610-0.40834
  -4   0   8 621.642 187.214   0 0.34183-0.92822-0.64912 0.28130 0.77872 0.02572
   4   0  -7 2175.50 218.369   1 0.27155 0.29375 0.97299-0.64624-0.36572-0.35068
  -4   0   7 2834.21 280.080   0 0.34012-0.90541-0.64874 0.32199 0.78017-0.06377
  -4   0   6 3382.50 249.404   0 0.32904-0.87324-0.64622 0.36054 0.78938-0.16103
   4   0  -6 2642.38 214.716   1 0.24229 0.30191 0.97381-0.68813-0.33773-0.29062
   4   0  -6 3000.59 229.434   3 0.86144-0.31725 0.22107 0.06462 0.15170-0.78006
   4   0  -5 5845.90 254.052   1 0.21648 0.30663 0.97329-0.72868-0.31290-0.22740
  -4   0   5 6092.39 241.172   0 0.30556-0.82866-0.64047 0.39585 0.80812-0.26782
   4   0  -5 5928.42 265.951   3 0.79587-0.27277 0.24116 0.00346 0.23671-0.77701
  -4   0   4 5996.33 243.697   0 0.26507-0.76707-0.62926 0.42571 0.83807-0.38581
   4   0  -4 5936.03 266.315   1 0.19518 0.30683 0.97201-0.76847-0.29232-0.15993
   4   0  -4 6672.53 243.332   3 0.71433-0.21232 0.25881-0.05526 0.32326-0.77552
  -4   0   3 802.309 122.268   4-0.07710-0.40381-0.99952 0.83704 0.44037-0.07617
   4   0  -3 782.969 127.625   1 0.18003 0.30088 0.97065-0.80817-0.27764-0.08657
  -4   0   3 821.479 145.645   0 0.20082-0.68173-0.60834 0.44587 0.87977-0.51556
  -4   0   2 16202.9 271.513   4-0.10379-0.35602-0.99931 0.87790 0.43715-0.16100
   4   0  -2 15205.4 300.272   1 0.17366 0.28615 0.96996-0.84855-0.27146-0.00470
  -4   0   2 16261.3 284.503   0 0.10404-0.56385-0.57010 0.44870 0.93005-0.65389
  -4   0   1 4798.04 191.841   4-0.14832-0.29039-0.99714 0.91680 0.43097-0.24286
  -4   0   1 4765.98 171.651   0-0.03318-0.40553-0.50285 0.42252 0.97712-0.78901
   4   0  -1 4573.65 189.274   1 0.18055 0.25817 0.97070-0.89036-0.27814 0.09003
  -4   0   0 15040.9 297.230   4-0.20881-0.20881-0.99045 0.95119 0.42088-0.32082
   4   0   0 14668.3 236.305   1 0.20881 0.20881 0.97292-0.93365-0.30550 0.20544
  -4   0   0 14743.4 240.588   0-0.20881-0.20881-0.39470 0.35543 0.99633-0.89627
  -4   0  -1 2341.47 158.508   4-0.28257-0.11396-0.97625 0.97805 0.40587-0.39386
   4   0   1 2375.98 113.009   1 0.27474 0.12178 0.97281-0.97462-0.36877 0.35675
  -4   0  -1 2422.26 112.707   0-0.39916 0.00264-0.24613 0.24793 0.95888-0.94687
   4   0   2 10.6650 33.9083   5 0.38647-0.01104 0.95110-0.99397-0.43333 0.50937
  -4   0  -2 72.1945 58.7378   0-0.56563 0.19020-0.07967 0.12255 0.85822-0.93426
  -4   0  -2 10.0699 27.2403   4-0.36609-0.00934-0.95157 0.99444 0.38500-0.46104
   4   0   3 3103.34 151.433   5 0.51757-0.16324 0.89867-0.98261-0.45615 0.62023
  -4   0  -3 3109.34 152.470   4-0.45529 0.10096-0.91401 0.99795 0.35769-0.52177
  -4   0  -3 3132.81 128.392   2 0.20934-0.56367 0.95874-0.87480-0.69311 0.52903
  -4   0  -3 3027.17 151.154   0-0.68385 0.32952 0.07496 0.00898 0.71905-0.88313
  -4   0  -4 3586.05 172.080   4-0.54593 0.21269-0.86199 0.98700 0.32371-0.57584
  -4   0  -4 3923.54 154.602   3 0.35768-0.69092-0.21879 0.34380-0.74776 0.49563
  -4   0  -4 4173.06 176.593   0-0.75522 0.42198 0.20228-0.07727 0.57188-0.82401
  -4   0  -4 4343.33 178.547   2 0.24308-0.57631 0.97754-0.85253-0.61186 0.35973
   4   0   4 3924.52 142.529   5 0.66991-0.33668 0.80175-0.92677-0.47073 0.72286
  -4   0  -5 2373.76 152.019   4-0.63396 0.32182-0.79486 0.96094 0.28324-0.62342
  -4   0  -5 2504.73 160.808   3 0.44639-0.75852-0.19959 0.36567-0.74158 0.40140
  -4   0  -5 2452.15 151.005   0-0.79269 0.48055 0.30184-0.13576 0.43382-0.77400
  -4   0  -5 2519.75 167.641   2 0.25984-0.57198 0.98206-0.81597-0.56463 0.22445
  -4   0  -6 123.221 88.2100   0-0.80832 0.51728 0.37908-0.17193 0.30984-0.73807
  -4   0  -6 154.289 87.2114   2 0.26766-0.55870 0.98283-0.77568-0.54073 0.11250
  -4   0  -7 5290.78 247.628   2 0.27020-0.54014 0.98288-0.73466-0.53267 0.01639
  -4   0  -8 114.784 83.5809   2 0.26928-0.51813 0.98288-0.69358-0.53558-0.06874
  -4   0  -9 5567.89 309.922   2 0.26587-0.49362 0.98274-0.65237-0.54632-0.14606
  -4   0 -10 11740.8 441.679   2 0.26047-0.46713 0.98215-0.61072-0.56276-0.21766
  -4  -1   7 567.821 190.744   0 0.36820-0.94250-0.65454 0.23205 0.75573 0.00533
   4   1  -7 263.841 136.304   1 0.21474 0.35955 0.97322-0.55073-0.31123-0.44982
   4   1  -6 32.4168 113.761   1 0.17658 0.37662 0.97028-0.58886-0.27429-0.39871
  -4  -1   6 111.663 109.388   0 0.36430-0.91750-0.65379 0.27237 0.75922-0.08622
   4   1  -5 18064.5 423.555   1 0.14026 0.39184 0.96529-0.62494-0.23890-0.34606
   4   1  -5 18953.5 367.000   3 0.80125-0.26915 0.23974 0.10061 0.23035-0.81531
   4   1  -4 14802.8 356.118   1 0.10623 0.40477 0.95872-0.65944-0.20553-0.29138
   4   1  -4 16846.6 334.668   3 0.71337-0.20236 0.25898 0.04030 0.32419-0.82110
  -4  -1   4 16908.6 342.370   0 0.32013-0.83113-0.64410 0.34482 0.79662-0.29971
  -4  -1   3 22262.9 345.517   0 0.26898-0.75889-0.63041 0.37220 0.83530-0.42644
  -4  -1   3 21993.2 346.959   4 0.10689-0.59680-0.97898 0.72077 0.45268-0.04382
   4   1  -3 20098.5 374.527   1 0.07518 0.41473 0.95116-0.69295-0.17491-0.23395
  -4  -1   2 8600.21 243.924   4 0.08903-0.55784-0.98265 0.76551 0.45224-0.13143
  -4  -1   2 8654.79 225.414   0 0.18592-0.65474-0.60297 0.38583 0.88846-0.56765
   4   1  -2 7849.04 244.472   1 0.04819 0.42062 0.94340-0.72626-0.14816-0.17265
  -4  -1   1 17586.7 289.503   4 0.05318-0.50090-0.98893 0.81286 0.45087-0.21810
   4   1  -1 16485.5 293.710   1 0.02707 0.42064 0.93655-0.76048-0.12715-0.10561
  -4  -1   1 18370.9 262.554   0 0.05737-0.50509-0.54892 0.37285 0.94919-0.71642
  -4  -1   0 38966.9 336.317   0-0.12587-0.30075-0.44894 0.31394 0.99314-0.84842
  -4  -1   0 37717.1 389.219   4-0.00055-0.42607-0.99562 0.86062 0.44758-0.30287
   4   1   0 35959.2 365.823   1 0.01505 0.41157 0.93235-0.79735-0.11516-0.02956
  -4  -1  -1 799.878 104.250   4-0.07142-0.33411-0.99945 0.90552 0.44101-0.38434
   4   1   1 819.247 98.7169   1 0.01855 0.38697 0.93360-0.83967-0.11866 0.06199
  -4  -1  -1 862.152 90.6923   0-0.34669-0.05884-0.29080 0.19687 0.97611-0.91944
  -4  -1  -2 2207.59 137.473   4-0.15760-0.22683-0.99639 0.94353 0.42955-0.46093
   4   1   2 2104.78 103.862   1 0.05266 0.33177 0.94476-0.89190-0.15260 0.18398
  -4  -1  -3 5217.34 176.778   4-0.25600-0.10734-0.98216 0.97036 0.41163-0.53106
  -4  -1  -3 5418.50 178.349   3 0.30489-0.66823-0.22895 0.21716-0.74813 0.62870
  -4  -1  -3 5384.72 160.711   0-0.68921 0.32587 0.08321-0.09500 0.71043-0.82986
   4   1   4 313.752 61.8484   5 0.40784-0.06561 0.94417-0.97345-0.43759 0.64507
  -4  -1  -4 349.993 93.1162   4-0.36236 0.02012-0.95288 0.98216 0.38603-0.59351
  -4  -1  -4 285.492 80.7588   3 0.41954-0.76177-0.20569 0.23497-0.74423 0.53675
  -4  -1  -4 374.130 82.5790   0-0.76492 0.42269 0.22413-0.19486 0.54344-0.75091
  -4  -1  -4 462.243 104.205   2 0.17439-0.51662 0.92835-0.89907-0.76179 0.55432
  -4  -1  -5 160.973 80.7719   4-0.47174 0.15060-0.90568 0.97603 0.35202-0.64755
  -4  -1  -5 7.29338 48.8892   3 0.50678-0.82792-0.18483 0.25518-0.73298 0.43745
  -4  -1  -5 89.9359 94.5536   0-0.79930 0.47816 0.32740-0.25705 0.39461-0.69013
  -4  -1  -5 7.74425 43.3989   2 0.20739-0.52853 0.95731-0.88696-0.69733 0.40181
  -4  -1  -6 10013.1 263.678   4-0.57902 0.27898-0.83891 0.95033 0.30946-0.69304
  -4  -1  -6 10586.5 269.709   0-0.81030 0.51026 0.40337-0.29196 0.26718-0.65075
  -4  -1  -6 10260.2 277.946   3 0.56921-0.86926-0.16795 0.27936-0.71982 0.33625
  -4  -1  -6 10417.7 278.693   2 0.22613-0.52618 0.96956-0.85814-0.65474 0.27117
  -4  -1  -7 3064.95 199.919   3 0.61098-0.88992-0.15561 0.30809-0.70829 0.23666
  -4  -1  -7 2859.68 211.719   2 0.23617-0.51512 0.97467-0.82218-0.62989 0.15827
  -4  -1  -8 19663.7 391.976   3 0.63609-0.89394-0.14773 0.34129-0.70017 0.14050
  -4  -1  -8 18036.8 393.487   2 0.24058-0.49843 0.97657-0.78301-0.61848 0.05881
  -4  -1  -9 1165.03 207.311   2 0.24109-0.47784 0.97677-0.74214-0.61713-0.03059
  -4  -1 -10 797.007 213.558   2 0.23871-0.45437 0.97579-0.70009-0.62335-0.11241
   4   2  -6 3056.66 296.812   1 0.12276 0.43944 0.96213-0.48498-0.22176-0.49590
   4   2  -5 2547.00 239.917   1 0.07829 0.46281 0.95198-0.51590-0.17798-0.45163
   4   2  -4 886.715 165.947   1 0.03471 0.48530 0.93910-0.54409-0.13476-0.40681
  -4  -2   3 2251.11 192.913   4 0.24157-0.74049-0.93920 0.58526 0.45058 0.00293
   4   2  -3 2073.92 175.572   1-0.00785 0.50677 0.92376-0.56981-0.09225-0.36127
  -4  -2   2 928.686 129.138   4 0.23430-0.71212-0.94191 0.62903 0.45095-0.08548
   4   2  -2 802.769 130.986   1-0.04918 0.52700 0.90625-0.59338-0.05068-0.31478
  -4  -2   1 198.843 85.3318   4 0.21098-0.66770-0.95015 0.67834 0.45192-0.17450
   4   2  -1 180.447 82.3961   2 0.31437 0.14235 0.28675-0.01495 0.59728-0.87470
   4   2  -1 351.978 128.543   1-0.08895 0.54566 0.88697-0.61516-0.01043-0.26699
  -4  -2   0 12701.6 264.414   4 0.17073-0.60635-0.96281 0.73208 0.45290-0.26352
   4   2   0 12975.4 235.994   2 0.25540 0.18022 0.03339 0.19734 0.76839-0.95776
  -4  -2  -1 50286.0 466.118   4 0.11273-0.52725-0.97769 0.78803 0.45279-0.35147
   4   2   1 49123.6 415.367   1-0.16104 0.57557 0.84578-0.65612 0.06322-0.16455
  -4  -2  -2 193.913 77.0061   4 0.03676-0.43019-0.99132 0.84273 0.45002-0.43675
   4   2   2 211.528 72.8979   1-0.19044 0.58387 0.82662-0.67803 0.09351-0.10679
  -4  -2  -3 43197.4 415.984   4-0.05635-0.31599-0.99911 0.89159 0.44262-0.51740
  -4  -2  -3 39088.0 400.514   3 0.34060-0.71294-0.22217 0.11465-0.74814 0.67337
  -4  -2  -3 46509.3 320.698   0-0.71305 0.34072 0.12200-0.22953 0.66823-0.74300
  -4  -2  -4 9477.58 249.613   4-0.16432-0.18692-0.99579 0.92934 0.42849-0.59131
  -4  -2  -4 8989.06 219.383   3 0.45553-0.80677-0.19745 0.13099-0.74052 0.57770
  -4  -2  -4 9390.59 180.087   0-0.78445 0.43322 0.27532-0.34177 0.47279-0.63561
  -4  -2  -5 31650.5 391.496   4-0.28329-0.04685-0.97607 0.95069 0.40570-0.65658
  -4  -2  -5 31227.6 410.760   3 0.54260-0.87274-0.17536 0.14997-0.72600 0.47512
  -4  -2  -6 3008.57 166.691   3 0.60510-0.91414-0.15740 0.17308-0.71005 0.37113
  -4  -2  -6 2846.68 192.032   2 0.17395-0.48299 0.92790-0.91222-0.76258 0.42366
  -4  -2  -7 6387.74 232.741   3 0.64746-0.93540-0.14405 0.20080-0.69618 0.26921
  -4  -2  -7 6073.36 256.095   2 0.19306-0.48101 0.94581-0.88906-0.72685 0.29989
  -4  -2  -8 9840.07 308.628   3 0.67386-0.94072-0.13518 0.23300-0.68609 0.17108
  -4  -2  -8 10085.4 306.798   2 0.20426-0.47111 0.95495-0.85712-0.70399 0.18898
  -4  -2  -9 1.85846 47.0891   3 0.68759-0.93335-0.13038 0.26928-0.68037 0.07731
  -4  -2  -9 5.28709 61.1929   2 0.20991-0.45566 0.95915-0.82025-0.69188 0.08882
  -4  -2 -10 12400.2 399.892   2 0.21150-0.43616 0.96028-0.78031-0.68840-0.00271
  -4  -2 -11 74.4312 128.124   2 0.20996-0.41352 0.95918-0.73815-0.69177-0.08739
   4   3  -6 1065.94 248.612   1 0.08102 0.49018 0.95269-0.37981-0.18068-0.58164
   4   3  -5 642.082 174.818   1 0.03063 0.51948 0.93775-0.40593-0.13070-0.54357
   4   3  -4 6745.72 326.268   1-0.01953 0.54854 0.91907-0.42832-0.08053-0.50569
   4   3  -3 2573.50 231.687   1-0.06956 0.57747 0.89667-0.44699-0.03009-0.46808
  -4  -3   2 15.6433 65.8966   4 0.33451-0.82133-0.89863 0.49002 0.44323-0.03311
   4   3  -2 79.4790 118.620   1-0.11954 0.60635 0.87048-0.46188 0.02071-0.43083
   4   3  -1 21.7617 57.7812   2 0.31579 0.14993 0.29393 0.07361 0.59162-0.91369
  -4  -3   1 38.4626 90.2237   4 0.32255-0.78827-0.90449 0.53695 0.44447-0.12239
   4   3  -1 5.03175 56.8915   1-0.16957 0.63529 0.84037-0.47283 0.07199-0.39407
  -4  -3   0 569.307 122.285   4 0.29595-0.74057-0.91684 0.59037 0.44690-0.21287
   4   3   0 677.397 114.352   2 0.27075 0.17388 0.09280 0.23366 0.73312-0.96715
   4   3   0 475.074 106.824   1-0.21978 0.66440 0.80608-0.47961 0.12390-0.35793
  -4  -3  -1 387.265 106.714   4 0.25340-0.67693-0.93466 0.64926 0.44992-0.30395
   4   3   1 520.578 122.714   2 0.20720 0.21633-0.13435 0.41975 0.85237-0.99835
   4   3   1 394.954 104.921   1-0.27035 0.69388 0.76720-0.48180 0.17665-0.32263
  -4  -3  -2 20862.3 314.204   4 0.19356-0.59599-0.95587 0.71154 0.45245-0.39452
   4   3   2 21062.9 288.061   1-0.32150 0.72393 0.72314-0.47881 0.23052-0.28845
  -4  -3  -3 2938.75 150.613   4 0.11545-0.49679-0.97708 0.77382 0.45283-0.48295
  -4  -3  -3 2747.04 171.153   3 0.35393-0.73526-0.21954 0.01628-0.74787 0.71775
   4   3   3 2893.19 146.014   1-0.37357 0.75490 0.67295-0.46969 0.28593-0.25581
  -4  -3  -4 792.145 104.010   4 0.01896-0.37920-0.99357 0.83138 0.44895-0.56711
  -4  -3  -4 770.602 113.856   3 0.47050-0.83074-0.19387 0.03168-0.73860 0.62043
  -4  -3  -5 5841.35 200.920   4-0.09461-0.24454-0.99947 0.87835 0.43830-0.64452
  -4  -3  -5 6388.03 233.783   3 0.55900-0.89814-0.17083 0.04971-0.72230 0.51608
  -4  -3  -6 2991.77 179.735   4-0.22221-0.09584-0.98838 0.90833 0.41838-0.71265
  -4  -3  -6 2484.82 190.541   3 0.62300-0.94104-0.15188 0.07183-0.70452 0.41025
  -4  -3  -7 6715.06 252.567   3 0.66710-0.96405-0.13749 0.09851-0.68879 0.30648
  -4  -3  -8 7441.15 254.648   3 0.69555-0.97140-0.12754 0.12963-0.67690 0.20654
  -4  -3  -9 1706.52 169.870   3 0.71168-0.96644-0.12164 0.16480-0.66949 0.11108
  -4  -3  -9 1968.41 206.753   2 0.17248-0.42723 0.92641-0.88325-0.76516 0.20675
  -4  -3 -10 10526.6 373.803   3 0.71790-0.95156-0.11932 0.20354-0.66649 0.02003
  -4  -3 -10 9642.57 346.223   2 0.17877-0.41244 0.93269-0.84846-0.75393 0.10747
  -4  -3 -11 1628.43 254.900   3 0.71578-0.92834-0.12011 0.24541-0.66752-0.06699
  -4  -3 -11 1259.19 244.751   2 0.18104-0.39360 0.93487-0.80957-0.74978 0.01528
   4   4  -5 74.5733 113.045   1-0.00381 0.56291 0.92534-0.29778-0.09630-0.62262
   4   4  -4 3613.97 254.539   1-0.05826 0.59627 0.90206-0.31558-0.04152-0.58935
   4   4  -3 579.923 201.147   1-0.11276 0.62967 0.87426-0.32885 0.01379-0.55662
   4   4  -2 6652.34 274.022   2 0.34376 0.15206 0.45817 0.04617 0.44788-0.90266
  -4  -4   2 6716.32 279.699   4 0.39975-0.89556-0.86307 0.35873 0.43489 0.01988
   4   4  -2 6273.74 303.498   1-0.16741 0.66323 0.84175-0.33741 0.06977-0.52455
   4   4  -1 3345.30 193.316   2 0.31998 0.15474 0.31570 0.14757 0.57413-0.94086
  -4  -4   1 3142.08 194.300   4 0.39651-0.87123-0.86498 0.40171 0.43537-0.06865
   4   4  -1 3040.75 190.929   1-0.22233 0.69705 0.80422-0.34095 0.12655-0.49328
  -4  -4   0 14153.8 320.098   4 0.38097-0.83460-0.87394 0.45173 0.43758-0.15890
   4   4   0 14478.0 340.338   2 0.28429 0.16934 0.14842 0.27378 0.69747-0.97615
  -4  -4  -1 2310.68 168.786   4 0.35190-0.78443-0.88974 0.50861 0.44128-0.25065
   4   4   1 2270.70 185.754   2 0.23573 0.19680-0.03813 0.41926 0.80701-0.99764
   4   4   1 2280.10 175.354   1-0.33338 0.76591 0.71218-0.33105 0.24311-0.43375
  -4  -4  -2 103.444 81.5966   4 0.30776-0.71919-0.91147 0.57141 0.44587-0.34329
   4   4   2 106.184 99.1359   1-0.38962 0.80106 0.65630-0.31624 0.30315-0.40573
  -4  -4  -3 34896.9 444.478   4 0.24688-0.63722-0.93719 0.63819 0.45030-0.43576
  -4  -4  -3 34838.6 434.153   3 0.34788-0.73822-0.22074-0.07825-0.74801 0.76255
   4   4   3 34918.0 389.028   1-0.44626 0.83660 0.59264-0.29365 0.36441-0.37895
  -4  -4  -4 1020.43 138.565   4 0.16779-0.53703-0.96366 0.70574 0.45293-0.52645
  -4  -4  -4 614.895 129.442   3 0.46772-0.83696-0.19454-0.06338-0.73898 0.66546
  -4  -4  -5 11406.8 277.538   4 0.06964-0.41778-0.98623 0.76938 0.45158-0.61314
  -4  -4  -5 11210.1 299.346   3 0.55928-0.90742-0.17075-0.04610-0.72223 0.56067
  -4  -4  -6 6086.78 233.945   4-0.04723-0.27981-0.99878 0.82300 0.44354-0.69315
  -4  -4  -6 5875.72 299.419   3 0.62623-0.95328-0.15087-0.02492-0.70347 0.45386
  -4  -4  -7 1336.08 157.760   3 0.67321-0.97916-0.13540 0.00069-0.68636 0.34870
  -4  -4  -8 83.3453 81.9692   3 0.70449-0.98935-0.12430 0.03065-0.67286 0.24715
  -4  -4  -9 3151.83 212.129   3 0.72348-0.98724-0.11720 0.06462-0.66373 0.14997
  -4  -4 -10 4552.49 296.206   3 0.73268-0.97534-0.11366 0.10215-0.65903 0.05723
  -4  -4 -11 429.551 176.668   3 0.73376-0.95533-0.11323 0.14280-0.65847-0.03139
   4   5  -4 1676.01 265.354   1-0.08369 0.63070 0.88966-0.20744-0.01577-0.65976
   4   5  -3 1900.67 255.185   1-0.14071 0.66662 0.85822-0.21708 0.04236-0.62984
   4   5  -2 72.9485 140.102   2 0.34554 0.15928 0.47088 0.12919 0.43553-0.93496
  -4  -5   2 31.1527 110.644   4 0.43969-0.94451-0.83814 0.23807 0.42837 0.07106
   4   5  -2 1.81543 61.5977   1-0.19765 0.70247 0.82170-0.22163 0.10097-0.60040
   4   5  -1 6198.40 300.846   2 0.32549 0.15823 0.34546 0.21355 0.54949-0.96088
  -4  -5   1 6081.60 307.754   4 0.44287-0.92659-0.83605 0.27704 0.42780-0.01642
   4   5  -1 5445.15 267.632   1-0.25452 0.73824 0.77986-0.22085 0.16009-0.57147
  -4  -5   0 1863.71 188.004   4 0.43559-0.89821-0.84082 0.32288 0.42909-0.10576
   4   5   0 1955.13 187.491   2 0.29657 0.16605 0.20204 0.31590 0.66063-0.98396
   4   5   0 1792.52 187.838   1-0.31128 0.77390 0.73235-0.21441 0.21971-0.54304
  -4  -5  -1 860.090 158.156   4 0.41692-0.85845-0.85266 0.37579 0.43223-0.19694
   4   5   1 768.298 147.623   1-0.36778 0.80931 0.67881-0.20195 0.27974-0.51503
  -4  -5  -2 333.155 126.727   4 0.38555-0.80598-0.87134 0.43554 0.43695-0.28971
   4   5   2 268.194 130.045   2 0.21115 0.20929-0.12150 0.55730 0.84676-0.99400
  -4  -5  -3 10240.4 280.120   3 0.32436-0.72370-0.22531-0.16942-0.74827 0.80746
   4   5   3 9974.08 284.045   1-0.47880 0.87814 0.55223-0.15750 0.40003-0.45922
  -4  -5  -4 16073.0 339.471   4 0.27784-0.65608-0.92471 0.57105 0.44832-0.47717
  -4  -5  -4 15387.3 356.541   3 0.44919-0.82743-0.19893-0.15472-0.74127 0.71241
   4   5   4 15613.6 319.580   1-0.53213 0.91037 0.47887-0.12521 0.45916-0.43030
  -4  -5  -5 8413.37 256.628   4 0.19785-0.55500-0.95449 0.64191 0.45233-0.56924
  -4  -5  -5 8254.25 284.966   3 0.54545-0.90259-0.17458-0.13800-0.72538 0.60847
  -4  -5  -6 6492.06 224.791   4 0.09846-0.43451-0.98076 0.70924 0.45250-0.65745
  -4  -5  -6 6543.96 262.210   3 0.61677-0.95282-0.15382-0.11770-0.70650 0.50154
  -4  -5  -7 1543.57 184.767   3 0.66775-0.98270-0.13727-0.09318-0.68853 0.39553
  -4  -5  -8 15.9137 61.3439   3 0.70269-0.99655-0.12495-0.06442-0.67368 0.29263
  -4  -5  -9 166.987 112.210   3 0.72509-0.99785-0.11658-0.03172-0.66292 0.19382
  -4  -5 -10 334.286 131.357   3 0.73754-0.98921-0.11175 0.00451-0.65647 0.09932
  -4  -5 -11 101.199 89.1699   3 0.74186-0.97243-0.11005 0.04388-0.65415 0.00895
  -4  -6   2 40.3204 136.983   4 0.46143-0.97525-0.82349 0.12768 0.42433 0.11975
   4   6  -2 4.43126 89.3403   1-0.21424 0.72806 0.81007-0.11426 0.11815-0.66223
   4   6  -1 12703.9 386.542   2 0.33155 0.16118 0.38006 0.27468 0.51973-0.97577
  -4  -6   1 12588.6 405.622   4 0.46940-0.96212-0.81792 0.16317 0.42276 0.03328
   4   6  -1 12062.9 453.978   1-0.27160 0.76432 0.76618-0.11144 0.17796-0.63400
   4   6   0 459.957 189.917   2 0.30783 0.16380 0.25448 0.35919 0.62218-0.99017
  -4  -6   0 443.325 168.827   4 0.46825-0.93988-0.81873 0.20506 0.42299-0.05500
   4   6   0 401.172 159.601   1-0.32826 0.79989 0.71694-0.10327 0.23768-0.60567
  -4  -6  -1 6160.66 284.556   4 0.45734-0.90787-0.82630 0.25370 0.42512-0.14518
   4   6   1 5903.37 286.556   1-0.38396 0.83449 0.66224-0.08964 0.29707-0.57701
  -4  -6  -2 681.367 147.158   4 0.43567-0.86511-0.84076 0.30923 0.42908-0.23719
   4   6   2 774.743 161.166   2 0.23891 0.19052-0.02687 0.55840 0.80121-0.99310
   4   6   2 579.823 121.502   1-0.43831 0.86775 0.60206-0.07053 0.35576-0.54765
  -4  -6  -3 15983.9 364.061   4 0.40186-0.81020-0.86181 0.37135 0.43458-0.33073
  -4  -6  -3 16243.2 334.837   3 0.28429-0.69263-0.23267-0.25779-0.74765 0.85150
   4   6   3 15626.3 367.603   1-0.49076 0.89910 0.53659-0.04613 0.41320-0.51705
  -4  -6  -4 20980.5 416.399   4 0.35419-0.74144-0.88854 0.43915 0.44101-0.42521
  -4  -6  -4 20295.4 379.602   3 0.41591-0.80315-0.20650-0.24289-0.74453 0.76033
   4   6   4 20306.4 406.690   1-0.54058 0.92782 0.46632-0.01692 0.46864-0.48443
  -4  -6  -5 23655.0 402.489   4 0.29071-0.65685-0.91916 0.51084 0.44733-0.51958
  -4  -6  -5 24437.0 457.413   3 0.51852-0.88467-0.18179-0.22653-0.73085 0.65860
  -4  -6  -6 67.9050 84.4877   4 0.20937-0.55442-0.95069 0.58344 0.45197-0.61227
  -4  -6  -6 97.4158 128.628   3 0.59563-0.94068-0.16025-0.20701-0.71280 0.55250
  -4  -6  -7 2773.88 249.375   3 0.65176-0.97571-0.14263-0.18355-0.69461 0.44626
  -4  -6  -8 352.157 137.256   3 0.69125-0.99411-0.12908-0.15603-0.67879 0.34240
  -4  -6  -9 159.456 118.850   3 0.71768-0.99944-0.11940-0.12465-0.66659 0.24215
  -4  -6 -10 290.037 142.273   3 0.73379-0.99446-0.11322-0.08975-0.65845 0.14596
  -4  -6 -11 860.685 218.082   3 0.74154-0.98111-0.11017-0.05173-0.65433 0.05379
   4   7  -2 1160.89 311.986   2 0.35168 0.17114 0.51866 0.27289 0.38734-0.97608
  -4  -7   2 1086.63 337.327   4 0.46972-0.99255-0.81769 0.02614 0.42270 0.16604
   4   7  -1 1260.60 269.671   2 0.33772 0.16401 0.41784 0.33264 0.48582-0.98651
  -4  -7   1 1207.64 245.414   4 0.48145-0.98318-0.80928 0.05881 0.42029 0.08040
   4   7  -1 1139.62 299.977   1-0.27734 0.77907 0.76147-0.01099 0.18398-0.68468
   4   7   0 79.1889 156.408   2 0.31817 0.16246 0.30619 0.40322 0.58183-0.99447
  -4  -7   0 59.4149 102.185   4 0.48498-0.96561-0.80670 0.09729 0.41955-0.00690
   4   7   0 79.9426 109.591   1-0.33336 0.81399 0.71221-0.00280 0.24308-0.65573
  -4  -7  -1 31.8690 112.097   4 0.47993-0.93947-0.81038 0.14205 0.42061-0.09601
   4   7   1 59.7346 88.5841   1-0.38786 0.84740 0.65815 0.01018 0.30126-0.62585
  -4  -7  -2 5830.49 294.926   4 0.46558-0.90401-0.82060 0.19334 0.42352-0.18697
   4   7   2 6114.65 312.413   2 0.26182 0.17662 0.05781 0.56946 0.75424-0.99079
   4   7   2 5531.70 288.586   1-0.44045 0.87888 0.59955 0.02772 0.35808-0.59463
  -4  -7  -3 4514.51 254.648   4 0.44085-0.85819-0.83738 0.25118 0.42816-0.27966
   4   7   3 4643.32 279.919   2 0.22606 0.19129-0.07167 0.65786 0.82369-0.97219
   4   7   3 4372.24 271.774   1-0.49060 0.90794 0.53681 0.04938 0.41302-0.56152
  -4  -7  -4 2981.09 204.076   4 0.40435-0.80059-0.86032 0.31520 0.43420-0.37375
   4   7   4 2670.36 255.684   1-0.53769 0.93394 0.47064 0.07449 0.46539-0.52585
  -4  -7  -5 6127.79 272.128   3 0.47874-0.85388-0.19186-0.31219-0.73745 0.70985
   4   7   5 5816.10 256.540   1-0.58102 0.95616 0.40213 0.10192 0.51440-0.48681
  -4  -7  -6 5595.09 238.223   4 0.28866-0.64271-0.92006 0.45707 0.44749-0.56314
  -4  -7  -6 5866.21 276.460   3 0.56310-0.91716-0.16968-0.29331-0.72132 0.60567
  -4  -7  -7-13.6141 46.7669   4 0.20522-0.53818-0.95208 0.53016 0.45211-0.65580
  -4  -7  -7 10.9020 85.0521   3 0.62561-0.95856-0.15106-0.27085-0.70367 0.49998
  -4  -7  -8 10856.8 422.462   3 0.67061-0.98246-0.13630-0.24455-0.68740 0.39566
  -4  -7  -9 186.849 223.129   3 0.70180-0.99257-0.12528-0.21450-0.67409 0.29430
  -4  -7 -10 207.132 99.5946   3 0.72208-0.99175-0.11773-0.18097-0.66443 0.19659
  -4  -7 -11 115.971 146.610   3 0.73357-0.98214-0.11331-0.14433-0.65857 0.10268
   4   8   0 710.225 246.604   2 0.32763 0.16200 0.35742 0.44772 0.53934-0.99664
  -4  -8   0 695.685 226.664   4 0.48980-0.97943-0.80315-0.00199 0.41852 0.03878
   4   8   1 1098.94 227.397   2 0.30675 0.16178 0.24931 0.51476 0.62608-0.99533
  -4  -8  -1 1362.69 262.541   4 0.48932-0.95786-0.80350 0.03943 0.41862-0.04937
  -4  -8  -2 92.7909 148.040   4 0.48059-0.92803-0.80990 0.08690 0.42047-0.13927
   4   8   2 23.3895 83.1884   2 0.28121 0.16622 0.13550 0.58750 0.70599-0.98719
   4   8   2 26.6310 137.999   1-0.43401 0.88145 0.60710 0.11590 0.35109-0.63229
  -4  -8  -3 1754.77 246.684   4 0.46282-0.88916-0.82252 0.14059 0.42406-0.23091
   4   8   3 1819.51 228.527   2 0.25152 0.17482 0.01892 0.66301 0.77654-0.96969
   4   8   3 2217.68 288.454   1-0.48237 0.90871 0.54761 0.13432 0.40395-0.59711
  -4  -8  -4 9678.45 327.293   4 0.43489-0.84013-0.84127 0.20041 0.42922-0.32411
   4   8   4 10007.4 437.211   2 0.21865 0.18660-0.09670 0.73756 0.83553-0.94064
   4   8   4 9286.57 427.448   1-0.52751 0.93275 0.48562 0.15524 0.45399-0.55910
  -4  -8  -5 1356.65 207.515   4 0.39534-0.77949-0.86567 0.26588 0.43555-0.41849
   4   8   5 1300.63 186.079   1-0.56887 0.95301 0.42219 0.17760 0.50057-0.51763
  -4  -8  -6 718.543 192.654   4 0.34237-0.70542-0.89466 0.33594 0.44237-0.51336
  -4  -8  -7 2443.95 319.679   3 0.58910-0.93106-0.16218-0.35547-0.71462 0.55558
  -4  -8  -8 78.7934 133.556   3 0.64068-0.96154-0.14625-0.33033-0.69858 0.45149
  -4  -8  -9 4780.95 338.004   3 0.67749-0.97725-0.13392-0.30159-0.68462 0.34948
  -4  -8 -10 1725.42 277.593   3 0.70258-0.98124-0.12500-0.26944-0.67374 0.25055
  -4  -9  -3 71.4837 84.5218   4 0.47197-0.90731-0.81610 0.03843 0.42225-0.18444
   4   9   3 87.6818 175.930   2 0.27319 0.16216 0.10258 0.67508 0.72704-0.96485
   4   9   3 155.650 210.688   1-0.46818 0.90353 0.56575 0.21191 0.38837-0.62618
  -4  -9  -4 4095.78 297.653   4 0.45070-0.86494-0.83082 0.09423 0.42637-0.27661
   4   9   4 3870.61 350.378   2 0.24547 0.16877-0.00330 0.73989 0.78872-0.93848
   4   9   4 4011.74 335.681   1-0.51197 0.92622 0.50773 0.22886 0.43669-0.58645
  -4  -9  -5 114.946 130.152   4 0.41932-0.81247-0.85117 0.15565 0.43184-0.37013
   4   9   5 154.170 181.345   2 0.21571 0.17744-0.10649 0.80201 0.84002-0.90173
  -4  -9  -6 462.610 173.893   4 0.37631-0.74837-0.87655 0.22210 0.43821-0.46455
  -4  -9  -8 1197.05 255.756   3 0.60096-0.93082-0.15865-0.41367-0.71127 0.50884
  -4  -9  -9 785.587 294.662   3 0.64437-0.95314-0.14505-0.38619-0.69728 0.40680
  -5   9   4 127.925 199.972   0-0.48183-0.04357-0.16884 0.81708 0.91887-0.84349
  -5   9   4 192.862 178.134   1-0.78503 0.25964-0.29831 0.94656 0.78622-0.71084
  -5   9   3 2067.59 324.207   0-0.54482 0.04052-0.10302 0.79234 0.87553-0.88820
  -5   9   3 1671.57 266.031   1-0.78196 0.27766-0.21566 0.90498 0.77430-0.78697
  -5   9   2 817.838 333.550   0-0.60492 0.12171-0.03295 0.76334 0.82065-0.92137
  -5   8   6 1256.71 280.553   0-0.28250-0.29409-0.34144 0.81181 0.98975-0.69362
  -5   8   5 24.2997 152.637   0-0.34539-0.21011-0.29187 0.80331 0.97646-0.76838
  -5   8   4 303.015 170.358   0-0.41292-0.12148-0.23388 0.78640 0.95337-0.83334
  -5   8   3 3265.38 332.327   0-0.48233-0.03097-0.16833 0.76191 0.91857-0.88659
  -5   8   3 3456.37 283.869   1-0.78459 0.27129-0.32973 0.92331 0.78920-0.75722
  -5   8   2 212.905 202.580   0-0.55042 0.05821-0.09682 0.73147 0.87103-0.92710
  -5   8   1 107.535 133.039   0-0.61399 0.14288-0.02160 0.69732 0.81093-0.95505
  -5   8   0 495.585 183.602   0-0.67037 0.22036 0.05483 0.66196 0.73958-0.97174
  -5   8  -1 5354.74 450.260   0-0.71773 0.28882 0.13007 0.62779 0.65911-0.97932
   5  -7  -7 37.6061 112.014   3 0.95763-0.35094 0.17081-0.50438-0.02731-0.40152
  -5   7   7 25.6644 107.400   0-0.15129-0.45539-0.43293 0.76650 0.99526-0.56643
   5  -7  -6 744.290 195.412   3 0.94392-0.35832 0.18092-0.55555 0.00590-0.34668
  -5   7   6 869.203 260.461   0-0.20628-0.37932-0.39644 0.77108 0.99640-0.65561
   5  -7  -6 822.165 227.176   5 0.90509-0.31950 0.50597-0.88061-0.44480 0.10401
   5  -7  -5 814.090 205.494   3 0.92980-0.36530 0.18981-0.60552 0.03614-0.28888
  -5   7   5 781.441 260.365   0-0.26991-0.29458-0.35090 0.76660 0.99153-0.73880
   5  -7  -5 949.540 202.539   5 0.91243-0.34793 0.49031-0.90601-0.44185 0.18912
  -5   7   4 17.3784 73.6225   0-0.34055-0.20285-0.29583 0.75260 0.97775-0.81307
   5  -7  -4 9.22247 117.803   5 0.92327-0.37987 0.46554-0.92232-0.43697 0.27228
  -5   7   3 873.102 247.335   0-0.41550-0.10680-0.23156 0.72941 0.95229-0.87566
   5  -7  -3 720.116 199.464   5 0.93667-0.41437 0.43162-0.92946-0.42983 0.35319
  -5   7   2 124.807 116.436   0-0.49122-0.00999-0.15944 0.69836 0.91319-0.92460
   5  -7  -2 45.3364 115.880   5 0.95147-0.45026 0.38838-0.92730-0.42004 0.43145
  -5   7   1 766.582 214.609   0-0.56383 0.08372-0.08172 0.66171 0.85978-0.95924
   5  -7  -1 635.721 227.588   5 0.96626-0.48615 0.33573-0.91572-0.40712 0.50658
   5  -7   0 4806.60 353.793   5 0.97942-0.52040 0.27364-0.89469-0.39058 0.57809
  -5   7   0 4289.42 301.173   0-0.62979 0.17077-0.00128 0.62234 0.79297-0.98048
  -5   7  -1 425.963 244.947   0-0.68644 0.24852 0.07893 0.58319 0.71491-0.99047
   5  -7   1 369.633 162.256   5 0.98918-0.55126 0.20222-0.86435-0.36991 0.64546
  -5   7  -2 1845.68 325.231   0-0.73233 0.31551 0.15639 0.54680 0.62848-0.99208
   5  -7   2 1413.88 253.354   5 0.99366-0.57683 0.12177-0.82496-0.34461 0.70821
  -5   7  -3 565.815 250.427   0-0.76708 0.37136 0.22925 0.51501 0.53663-0.98828
  -5   6   7 451.880 195.859   0-0.07859-0.53710-0.47730 0.71514 0.98657-0.51309
   5  -6  -7 476.341 184.883   3 0.93940-0.32371 0.18391-0.42174 0.01595-0.48943
  -5   6   6 156.098 120.637   0-0.13082-0.46377-0.44586 0.72477 0.99363-0.60819
   5  -6  -6 137.007 129.475   3 0.91908-0.32449 0.19582-0.47472 0.05715-0.44259
   5  -6  -6 123.793 88.0361   5 0.84768-0.25309 0.60728-0.88618-0.46077 0.07533
   5  -6  -5 3654.45 298.139   3 0.89699-0.32349 0.20668-0.52666 0.09649-0.39388
  -5   6   5 3778.21 294.819   0-0.19353-0.37996-0.40513 0.72510 0.99656-0.69917
   5  -6  -5 3496.75 250.346   5 0.85566-0.28216 0.59498-0.91495-0.45914 0.16175
  -5   6   4 707.025 218.168   0-0.26569-0.28671-0.35403 0.71507 0.99207-0.78273
   5  -6  -4 770.898 201.410   3 0.87373-0.32132 0.21645-0.57749 0.13355-0.34289
   5  -6  -4 752.873 201.789   5 0.86885-0.31644 0.57355-0.93459-0.45608 0.24674
  -5   6   3 6713.64 353.925   0-0.34496-0.18634-0.29222 0.69433 0.97658-0.85528
   5  -6  -3 6773.61 323.942   3 0.85009-0.31879 0.22506-0.62717 0.16775-0.28904
   5  -6  -3 6661.26 279.062   5 0.88637-0.35507 0.54267-0.94478-0.45122 0.32993
  -5   6   2 17.2188 69.1202   0-0.42769-0.08252-0.22048 0.66366 0.94698-0.91373
   5  -6  -2 50.4689 97.8682   5 0.90703-0.39682 0.50192-0.94511-0.44405 0.41080
  -5   6   1 4547.70 267.098   0-0.50935 0.02024-0.14091 0.62516 0.90148-0.95628
   5  -6  -1 4875.85 287.149   5 0.92926-0.44015 0.45087-0.93512-0.43394 0.48875
  -5   6   0 235.805 124.711   0-0.58537 0.11735-0.05666 0.58198 0.84020-0.98306
   5  -6   0 79.5780 98.7856   5 0.95123-0.48321 0.38916-0.91448-0.42022 0.56308
  -5   6  -1 585.882 164.283   0-0.65202 0.20510 0.02869 0.53770 0.76514-0.99604
   5  -6   1 568.680 206.030   5 0.97078-0.52386 0.31664-0.88303-0.40218 0.63309
  -5   6  -2 6763.04 325.771   0-0.70704 0.28121 0.11187 0.49559 0.67951-0.99846
   5  -6   2 6399.53 369.813   5 0.98561-0.55979 0.23339-0.84085-0.37914 0.69809
  -5   6  -3 555.204 205.604   0-0.74961 0.34489 0.19040 0.45813 0.58694-0.99393
   5  -6   3 545.840 162.502   5 0.99324-0.58851 0.13976-0.78829-0.35045 0.75744
  -5   6  -4 2883.28 364.573   0-0.78010 0.39647 0.26277 0.42683 0.49065-0.98570
  -5   5   7 95.1705 91.6681   0-0.00960-0.61509-0.51548 0.65758 0.97101-0.45287
   5  -5  -7 125.695 102.719   3 0.92210-0.29741 0.19419-0.33628 0.05138-0.56952
  -5   5   6 800.089 180.572   0-0.05766-0.54593-0.48928 0.67245 0.98260-0.55251
   5  -5  -6 825.861 216.619   3 0.89492-0.29133 0.20761-0.39078 0.09995-0.53004
   5  -5  -6 890.204 177.988   5 0.77326-0.16967 0.70398-0.88714-0.47001 0.03991
  -5   5   5 2512.02 255.994   0-0.11774-0.46476-0.45395 0.67818 0.99225-0.65021
   5  -5  -5 2729.61 295.058   3 0.86437-0.28187 0.22000-0.44424 0.14746-0.48950
   5  -5  -5 2507.25 217.035   5 0.78041-0.19791 0.69587-0.92010-0.46951 0.12746
   5  -5  -4 49.2054 78.6188   3 0.83078-0.26937 0.23130-0.49661 0.19366-0.44766
  -5   5   4 29.3366 114.317   0-0.18960-0.37181-0.40779 0.67309 0.99656-0.74257
   5  -5  -4 7.55076 52.8718   5 0.79468-0.23328 0.67900-0.94430-0.46829 0.21430
  -5   5   3 5386.02 295.846   0-0.27160-0.26870-0.34963 0.65601 0.99131-0.82536
   5  -5  -3 5462.68 272.703   3 0.79458-0.25427 0.24149-0.54787 0.23822-0.40417
   5  -5  -3 5323.12 273.293   5 0.81541-0.27510 0.65281-0.95918-0.46597 0.30002
   5  -5  -2 14298.2 381.684   3 0.75643-0.23722 0.25050-0.59795 0.28069-0.35859
   5  -5  -2 13982.3 375.924   5 0.84151-0.32230 0.61649-0.96394-0.46193 0.38403
  -5   5   1 2660.48 242.033   0-0.45084-0.04727-0.19889 0.58741 0.93588-0.94603
   5  -5  -1 2788.93 258.242   5 0.87142-0.37331 0.56919-0.95771-0.45543 0.46557
  -5   5   0 6624.71 270.992   0-0.53739 0.06037-0.11115 0.54074 0.88132-0.97952
   5  -5   0 6834.53 294.797   5 0.90313-0.42611 0.51003-0.93962-0.44554 0.54374
   5  -5   1 5544.08 271.383   5 0.93414-0.47822 0.43835-0.90901-0.43129 0.61753
  -5   5  -1 6070.37 316.944   0-0.61486 0.15894-0.02050 0.49116 0.80998-0.99622
  -5   5  -2 12.9947 79.6339   0-0.67983 0.24500 0.06886 0.44287 0.72534-0.99964
   5  -5   2 31.7774 102.550   5 0.96157-0.52675 0.35379-0.86552-0.41167 0.68597
  -5   5  -3 4247.18 290.080   0-0.73083 0.31710 0.15359 0.39920 0.63180-0.99414
   5  -5   3 4002.34 259.728   5 0.98229-0.56856 0.25642-0.80921-0.38575 0.74809
  -5   5  -4 523.894 197.156   0-0.76806 0.37543 0.23161 0.36226 0.53348-0.98387
  -5   5  -5 4150.57 391.926   0-0.79272 0.42119 0.30196 0.33297 0.43363-0.97207
   5  -4  -8 435.628 168.768   3 0.93608-0.28129 0.18602-0.19131 0.02311-0.67395
  -5   4   8 877.794 253.832   0 0.08529-0.74008-0.56180 0.56710 0.93813-0.28728
  -5   4   7 5429.35 335.171   0 0.05432-0.68801-0.54747 0.59384 0.95033-0.38753
   5  -4  -7 5156.36 300.245   3 0.90724-0.27355 0.20187-0.24823 0.07882-0.64162
  -5   4   6-4.99326 68.3391   0 0.01162-0.62421-0.52645 0.61389 0.96481-0.49007
   5  -4  -6 39.7361 102.102   5 0.68242-0.06982 0.79159-0.87902-0.47119-0.00356
  -5   4   5 11742.4 339.601   0-0.04418-0.54732-0.49682 0.62532 0.97969-0.59299
   5  -4  -5 11420.2 334.526   5 0.68659-0.09509 0.78811-0.91661-0.47132 0.08462
  -5   4   4 196.504 107.041   0-0.11379-0.45661-0.45636 0.62593 0.99178-0.69313
   5  -4  -4 243.595 129.412   3 0.79024-0.21983 0.24260-0.41217 0.24327-0.54192
   5  -4  -4 266.225 136.383   5 0.69978-0.12938 0.77679-0.94636-0.47161 0.17296
   5  -4  -3 2962.93 214.920   3 0.74129-0.19198 0.25367-0.46431 0.29647-0.50707
  -5   4   3 3099.19 206.602   0-0.19661-0.35270-0.40305 0.61369 0.99655-0.78594
   5  -4  -3 3225.29 199.215   5 0.72172-0.17241 0.75689-0.96753-0.47174 0.26114
  -5   4   2 10845.4 296.456   0-0.28994-0.23827-0.33578 0.58750 0.98856-0.86600
   5  -4  -2 11449.8 331.975   5 0.75168-0.22346 0.72728-0.97899-0.47111 0.34856
  -5   4   1 258.463 129.183   0-0.38872-0.11839-0.25527 0.54805 0.96277-0.92827
   5  -4  -1 184.848 97.9644   5 0.78839-0.28128 0.68654-0.97932-0.46886 0.43436
  -5   4   0 51846.0 587.889   0-0.48615 0.00013-0.16453 0.49838 0.91628-0.96983
   5  -4   0 53065.7 620.315   5 0.82990-0.34388 0.63314-0.96700-0.46389 0.51743
  -5   4  -1 2690.50 192.135   0-0.57538 0.11046-0.06841 0.44333 0.84952-0.99111
   5  -4   1 2667.62 210.255   5 0.87353-0.40861 0.56559-0.94051-0.45488 0.59647
  -5   4  -2 3149.57 199.864   0-0.65131 0.20749 0.02771 0.38828 0.76608-0.99572
   5  -4   2 3589.38 257.195   5 0.91586-0.47203 0.48269-0.89869-0.44038 0.67002
  -5   4  -3 57.8892 124.517   0-0.71148 0.28875 0.11933 0.33773 0.67123-0.98891
   5  -4   3-1.36341 54.8601   5 0.95290-0.53017 0.38378-0.84085-0.41896 0.73664
  -5   4  -4-1.77785 69.0064   0-0.75580 0.35417 0.20355 0.29458 0.57026-0.97599
  -5   4  -5 1342.09 278.413   0-0.78570 0.40516 0.27906 0.26014 0.46739-0.96117
  -5   4  -6 59.6203 80.7416   0-0.80320 0.44375 0.34571 0.23456 0.36545-0.94728
  -5   4  -7 6898.35 399.213   2 0.31797-0.65631 0.95843-0.33708-0.34508-0.32480
  -5   3   8 322.234 164.212   0 0.13673-0.80052-0.58389 0.49345 0.91469-0.21919
   5  -3  -8 289.113 170.295   3 0.92971-0.26592 0.18986-0.09943 0.03632-0.73182
   5  -3  -7 959.548 222.065   3 0.89606-0.25337 0.20710-0.15773 0.09804-0.70549
  -5   3   7 931.334 218.385   0 0.11196-0.75465-0.57352 0.52415 0.92648-0.31903
   5  -3  -6 7024.85 290.651   5 0.57819 0.04341 0.86546-0.85716-0.46372-0.05568
   5  -3  -6 7134.93 304.405   3 0.85578-0.23418 0.22309-0.21479 0.15979-0.67919
  -5   3   6 7573.89 337.527   0 0.07548-0.69708-0.55735 0.54905 0.94215-0.42274
   5  -3  -5 491.962 116.947   5 0.57681 0.02369 0.86629-0.89906-0.46357 0.03222
  -5   3   5 663.878 172.993   0 0.02537-0.62587-0.53338 0.56615 0.96044-0.52909
   5  -3  -5 617.783 166.814   3 0.80868-0.20818 0.23773-0.27050 0.22142-0.65277
   5  -3  -4 7731.50 293.664   5 0.58596-0.00655 0.86073-0.93457-0.46454 0.12123
  -5   3   4 7797.19 301.641   0-0.04007-0.53933-0.49908 0.57292 0.97875-0.63545
   5  -3  -4 8059.55 307.078   3 0.75457-0.17516 0.25090-0.32474 0.28266-0.62596
  -5   3   3 4378.15 236.446   0-0.12152-0.43679-0.45162 0.56653 0.99268-0.73742
   5  -3  -3 4437.74 235.300   5 0.60590-0.04759 0.84807-0.96298-0.46645 0.21120
  -5   3   2 555.265 143.763   4-0.66969 0.13247-0.76175 0.91773 0.26419-0.09698
  -5   3   2 433.385 144.242   0-0.21755-0.31967-0.38864 0.54462 0.99603-0.82882
   5  -3  -2 444.537 120.741   5 0.63655-0.09934 0.82702-0.98300-0.46888 0.30167
  -5   3   1 1328.76 179.108   4-0.68599 0.16987-0.74530 0.94235 0.25489-0.17573
  -5   3   1 1249.42 142.402   0-0.32360-0.19251-0.30950 0.50655 0.98191-0.90275
   5  -3  -1 1346.58 181.742   5 0.67731-0.16119 0.79579-0.99284-0.47102 0.39186
  -5   3   0 459.228 103.498   0-0.43209-0.06294-0.21644 0.45456 0.94497-0.95386
   5  -3   0 569.451 145.488   5 0.72678-0.23176 0.75208-0.99020-0.47170 0.48059
  -5   3  -1 4557.68 215.602   0-0.53411 0.06019-0.11470 0.39389 0.88381-0.98075
   5  -3   1 4291.34 232.915   5 0.78257-0.30864 0.69337-0.97256-0.46934 0.56628
   5  -3   2 22654.6 431.943   5 0.84108-0.38825 0.61712-0.93738-0.46201 0.64699
  -5   3  -2 21922.7 420.777   0-0.62225 0.16942-0.01107 0.33133 0.80171-0.98670
  -5   3  -3 6409.09 268.724   0-0.69248 0.26075 0.08833 0.27300 0.70501-0.97805
   5  -3   3 6337.89 273.732   5 0.89757-0.46584 0.52125-0.88258-0.44755 0.72058
  -5   3  -4 1862.08 175.723   0-0.74425 0.33362 0.17946 0.22294 0.60055-0.96163
  -5   3  -5 159.130 89.7025   0-0.77928 0.38974 0.26051 0.18296 0.49383-0.94296
  -5   3  -6 239.079 127.247   0-0.80019 0.43175 0.33129 0.15325 0.38848-0.92566
  -5   3  -6 118.371 106.790   2 0.31320-0.68164 0.96374-0.47920-0.36788-0.16930
  -5   3  -7 4182.42 291.923   0-0.80961 0.46226 0.39253 0.13308 0.28647-0.91169
  -5   3  -7 4882.94 324.488   2 0.30796-0.65530 0.96865-0.44304-0.39163-0.23359
  -5   3  -8 141.975 215.037   2 0.30142-0.62767 0.97354-0.40686-0.41949-0.29378
  -5   2   8 147.820 115.486   0 0.18074-0.85353-0.60106 0.41488 0.89141-0.15125
   5  -2  -8 153.173 126.147   3 0.92731-0.25452 0.19126-0.00509 0.04116-0.78132
  -5   2   7 1733.61 253.725   0 0.16231-0.81400-0.59407 0.44896 0.90152-0.24942
   5  -2  -7 1880.56 241.492   3 0.88958-0.23788 0.20996-0.06485 0.10872-0.76083
   5  -2  -6 1261.22 177.979   5 0.46628 0.16432 0.92211-0.81808-0.44819-0.11587
  -5   2   6 1182.04 205.979   0 0.13256-0.76316-0.58219 0.47815 0.91673-0.35268
   5  -2  -6 1354.06 225.664   3 0.84366-0.21306 0.22721-0.12317 0.17657-0.74062
   5  -2  -5 8344.83 292.598   5 0.45692 0.15259 0.92596-0.86300-0.44660-0.02941
   5  -2  -5 7952.80 280.967   3 0.78919-0.17968 0.24286-0.17990 0.24448-0.72049
  -5   2   5 7918.70 296.908   0 0.08916-0.69867-0.56354 0.50058 0.93650-0.46049
   5  -2  -4 4326.03 239.462   5 0.45887 0.12954 0.92517-0.90328-0.44693 0.05897
  -5   2   4 4211.05 239.655   0 0.02958-0.61798-0.53547 0.51358 0.95905-0.57109
   5  -2  -4 4547.99 241.826   3 0.72577-0.13736 0.25670-0.23481 0.31209-0.70005
   5  -2  -3 3884.77 199.124   5 0.47290 0.09441 0.91931-0.93848-0.44929 0.14938
  -5   2   3 3556.20 180.735   0-0.04826-0.51905-0.49455 0.51373 0.98060-0.68069
   5  -2  -2 736.108 151.080   5 0.49969 0.04653 0.90730-0.96754-0.45352 0.24166
  -5   2   2 773.423 132.883   0-0.14465-0.40156-0.43716 0.49741 0.99481-0.78294
  -5   2   2 498.191 124.449   4-0.52857-0.01764-0.87316 0.93341 0.33076-0.11890
   5  -2  -1 3368.79 191.068   5 0.53960-0.01448 0.88733-0.98864-0.45914 0.33533
  -5   2   1 3361.82 172.138   4-0.55207 0.02695-0.85789 0.95920 0.32115-0.19733
  -5   2   1 3141.15 168.802   0-0.25643-0.26869-0.36086 0.46217 0.99314-0.86932
  -5   2   0 116.982 63.8125   4-0.58436 0.08034-0.83495 0.97734 0.30706-0.27130
   5  -2   0 166.849 80.8588   5 0.59236-0.08834 0.85675-0.99914-0.46518 0.42941
  -5   2  -1 12566.3 351.726   4-0.62315 0.14022-0.80414 0.98760 0.28868-0.34096
  -5   2  -1 12892.1 312.086   0-0.49176 0.00883-0.15890 0.34235 0.91285-0.96513
   5  -2   1 12141.6 309.362   5 0.65667-0.17374 0.81210-0.99556-0.47010 0.52238
  -5   2  -2 10065.5 285.902   0-0.59362 0.13179-0.04676 0.27129 0.83216-0.97249
  -5   2  -2 9798.15 301.811   4-0.66618 0.20435-0.76517 0.98970 0.26614-0.40647
   5  -2   2 10037.8 279.554   5 0.72969-0.26786 0.74929-0.97382-0.47167 0.61200
  -5   2  -3 20.6846 71.8706   0-0.67500 0.23426 0.06164 0.20396 0.73271-0.96109
   5  -2   3 54.1294 59.7899   5 0.80673-0.36599 0.66404-0.92963-0.46703 0.69541
  -5   2  -4 1332.42 168.967   0-0.73455 0.31492 0.16057 0.14609 0.62349-0.93992
  -5   2  -5 19664.7 391.705   0-0.77443 0.37589 0.24756 0.10018 0.51183-0.91630
  -5   2  -5 19165.3 341.948   2 0.29618-0.69472 0.97660-0.62887-0.44060 0.03613
  -5   2  -6 770.163 167.954   0-0.79813 0.42068 0.32245 0.06636 0.40233-0.89485
  -5   2  -6 648.917 150.008   2 0.29593-0.67337 0.97674-0.58793-0.44162-0.05091
  -5   2  -7 199.556 118.110   0-0.80907 0.45273 0.38633 0.04354 0.29732-0.87789
  -5   2  -7 158.765 153.392   2 0.29314-0.64949 0.97807-0.54819-0.45241-0.12816
  -5   2  -8 306.735 139.325   2 0.28847-0.62372 0.97990-0.50896-0.46997-0.19865
  -5   1   7 933.038 200.186   0 0.20462-0.86532-0.60968 0.36885 0.87749-0.18073
   5  -1  -7 1399.90 250.197   3 0.88853-0.22784 0.21041 0.03043 0.11041-0.80717
  -5   1   6 2153.93 210.102   0 0.18174-0.82134-0.60143 0.40166 0.89084-0.28213
   5  -1  -6 2261.65 225.362   3 0.83795-0.19835 0.22906-0.02929 0.18423-0.79295
  -5   1   5 12559.6 382.457   0 0.14563-0.76413-0.58750 0.42880 0.91022-0.38956
   5  -1  -5 11896.4 349.690   3 0.77709-0.15858 0.24582-0.08712 0.25821-0.77887
   5  -1  -4 132.402 83.6689   3 0.70544-0.10803 0.26037-0.14274 0.33176-0.76438
  -5   1   4 114.083 86.2859   0 0.09315-0.69056-0.56532 0.44769 0.93481-0.50219
  -5   1   3 4865.98 217.741   0 0.02098-0.59729-0.53118 0.45463 0.96187-0.61730
   5  -1  -2 9.92840 46.7406   5 0.35034 0.20487 0.96148-0.92599-0.42570 0.16918
  -5   1   2 28.8138 61.0642   4-0.36214-0.19307-0.95295 0.91747 0.38609-0.12957
  -5   1   2 47.7258 57.6357   0-0.07324-0.48198-0.48040 0.44491 0.98562-0.72910
   5  -1  -1 8499.30 255.559   5 0.38339 0.15073 0.95204-0.95762-0.43270 0.26423
  -5   1   1 8942.68 263.304   4-0.39085-0.14327-0.94237 0.94795 0.37797-0.20950
  -5   1   1 9258.78 264.090   0-0.18860-0.34552-0.40845 0.41404 0.99656-0.82809
   5  -1   0 3653.12 179.049   5 0.43235 0.08067 0.93549-0.98214-0.44223 0.36180
  -5   1   0 3792.08 188.917   0-0.31832-0.19470-0.31370 0.36035 0.98309-0.90267
  -5   1  -1 19749.1 381.842   4-0.47898-0.01295-0.90186 0.98959 0.34946-0.35708
  -5   1  -1 20466.6 326.450   0-0.44936-0.04257-0.20030 0.28802 0.93663-0.94426
   5  -1   2 23.5662 49.6243   5 0.57848-0.10765 0.86528-0.99408-0.46376 0.55943
  -5   1  -2 9.74751 45.4562   4-0.53376 0.06293-0.86989 0.99868 0.32868-0.42435
  -5   1  -3 3316.39 201.075   4-0.59243 0.14270-0.82885 0.99871 0.30338-0.48710
  -5   1  -3 3469.41 189.159   0-0.66067 0.21093 0.04083 0.12903 0.75342-0.93714
   5  -1   3 3376.41 178.278   5 0.67190-0.22216 0.80017-0.97003-0.47081 0.65453
  -5   1  -4 4900.59 220.939   4-0.65257 0.22393-0.77809 0.98902 0.27353-0.54530
  -5   1  -4 4722.30 222.228   0-0.72819 0.29955 0.14872 0.06221 0.63754-0.90931
   5  -1   4 4688.72 194.654   5 0.77188-0.34324 0.70552-0.91645-0.47009 0.74187
  -5   1  -5 335.205 131.350   0-0.77227 0.36473 0.24201 0.00999 0.51942-0.87924
  -5   1  -5 297.285 115.518   2 0.26489-0.67243 0.98266-0.73066-0.54934 0.18952
  -5   1  -6 1247.95 159.663   0-0.79771 0.41127 0.32075-0.02768 0.40496-0.85283
  -5   1  -6 1074.55 161.248   2 0.27076-0.65721 0.98288-0.68981-0.53086 0.08299
  -5   1  -7 173.964 119.304   0-0.80911 0.44376 0.38667-0.05253 0.29673-0.83264
  -5   1  -7 106.537 97.3486   2 0.27213-0.63748 0.98285-0.64871-0.52645-0.00947
  -5   1  -8 3694.94 273.333   2 0.27044-0.61470 0.98288-0.60767-0.53188-0.09208
  -5   1  -9 79.8557 117.602   2 0.26648-0.58964 0.98277-0.56649-0.54441-0.16760
   5   0  -7 499.153 186.675   1 0.30415 0.36555 0.97024-0.63367-0.39671-0.34471
  -5   0   7 471.087 158.828   0 0.23838-0.90808-0.62102 0.28445 0.85623-0.11481
   5   0  -6 1215.87 275.584   1 0.27829 0.37031 0.97259-0.67709-0.37214-0.28122
   5   0  -6 1136.70 187.531   3 0.83940-0.19080 0.22859 0.06691 0.18230-0.83567
  -5   0   6 1248.81 210.618   0 0.22217-0.87077-0.61570 0.32020 0.86667-0.21331
   5   0  -5 26230.4 550.673   1 0.25613 0.37138 0.97362-0.71918-0.35099-0.21433
   5   0  -5 26919.3 485.458   3 0.77337-0.14587 0.24669 0.00774 0.26233-0.82765
  -5   0   4 6909.55 281.963   0 0.14880-0.75521-0.58876 0.37540 0.90860-0.43133
   5   0  -4 6449.60 310.175   1 0.23868 0.36773 0.97381-0.76045-0.33427-0.14300
   5   0  -3 17464.2 403.103   1 0.22745 0.35786 0.97365-0.80136-0.32347-0.06575
  -5   0   3 19594.5 399.882   0 0.08386-0.66917-0.56116 0.38886 0.93872-0.54950
   5   0  -2 496.442 139.272   1 0.22468 0.33954 0.97358-0.84236-0.32081 0.01964
  -5   0   2 426.329 78.3519   0-0.00572-0.55850-0.51751 0.38629 0.96993-0.66875
  -5   0   1 266.440 103.283   0-0.12210-0.42103-0.45127 0.36112 0.99274-0.77962
  -5   0   1 198.771 101.652   4-0.21886-0.32426-0.98892 0.89876 0.41902-0.20589
   5   0  -1 266.689 118.236   1 0.23392 0.30920 0.97377-0.88362-0.32970 0.11657
  -5   0   0 34.8255 74.0828   4-0.26101-0.26101-0.98111 0.93203 0.41057-0.28550
   5   0   0 38.3502 65.0870   1 0.26101 0.26102 0.97347-0.92438-0.35566 0.23058
  -5   0   0 16.3576 45.8961   0-0.26102-0.26101-0.35749 0.30840 0.99263-0.86755
  -5   0  -1 19665.5 337.674   4-0.31453-0.18639-0.96792 0.95991 0.39839-0.36136
  -5   0  -1 20689.4 319.862   0-0.40846-0.09247-0.23788 0.22987 0.95521-0.91818
   5   0   2 4722.30 189.752   5 0.39530 0.08453 0.94831-0.98136-0.43512 0.48614
  -5   0  -2 4712.78 214.012   4-0.37733-0.10250-0.94750 0.98056 0.38186-0.43288
  -5   0  -2 4871.95 182.810   0-0.54407 0.06424-0.10385 0.13691 0.87612-0.92714
   5   0   3 1450.33 143.301   5 0.49356-0.03483 0.91014-0.98427-0.45259 0.59166
  -5   0  -3 1414.41 148.270   4-0.44695-0.01178-0.91805 0.99218 0.36048-0.49955
  -5   0  -3 1425.05 124.877   0-0.65184 0.19310 0.02843 0.04569 0.76539-0.90446
  -5   0  -4 1060.07 124.307   4-0.52069 0.08305-0.87804 0.99324 0.33387-0.56099
  -5   0  -4 1157.04 142.902   0-0.72711 0.28947 0.14676-0.03156 0.63984-0.86696
  -5   0  -4 988.279 128.530   2 0.19387-0.63151 0.94651-0.83131-0.72525 0.49813
   5   0   4 907.679 116.722   5 0.61040-0.17276 0.84510-0.96030-0.46685 0.69397
  -5   0  -5 522.727 106.888   4-0.59572 0.17918-0.82631 0.98258 0.30185-0.61702
  -5   0  -5 612.163 150.561   3 0.28948-0.70603-0.23175 0.38801-0.74780 0.43264
  -5   0  -5 499.619 110.941   0-0.77403 0.35748 0.24650-0.09023 0.51328-0.82844
  -5   0  -5 564.244 114.927   2 0.22108-0.63763 0.96659-0.81033-0.66669 0.35153
  -5   0  -6 1386.87 160.340   4-0.66932 0.27387-0.76212 0.95945 0.26440-0.66761
  -5   0  -6 1541.60 182.471   0-0.79953 0.40408 0.32838-0.13104 0.39306-0.79628
  -5   0  -6 1457.97 164.773   2 0.23604-0.63149 0.97461-0.77728-0.63022 0.22701
  -5   0  -7 1640.31 185.717   0-0.80981 0.43546 0.39521-0.15681 0.28173-0.77299
  -5   0  -7 1941.27 180.551   2 0.24359-0.61795 0.97773-0.73933-0.61048 0.11922
  -5   0  -8 3632.28 268.066   2 0.24633-0.59958 0.97870-0.69922-0.60310 0.02379
  -5   0  -9 384.886 178.206   2 0.24566-0.57782 0.97847-0.65793-0.60491-0.06245
  -5   0 -10 647.093 219.577   2 0.24241-0.55347 0.97729-0.61567-0.61364-0.14177
   5   1  -6 96.3811 102.626   1 0.21962 0.43798 0.97342-0.58218-0.31594-0.38208
   5   1  -5 1658.42 254.874   1 0.18841 0.44810 0.97145-0.62128-0.28577-0.32420
   5   1  -5 1505.57 188.739   3 0.77875-0.14224 0.24542 0.10474 0.25635-0.86632
   5   1  -4 12739.9 399.713   1 0.16022 0.45520 0.96829-0.65920-0.25837-0.26356
   5   1  -3 3433.31 213.204   1 0.13590 0.45842 0.96455-0.69652-0.23462-0.19925
  -5  -1   2 600.240 122.694   4-0.03262-0.54060-0.99806 0.77110 0.44492-0.09910
   5   1  -2 771.468 148.388   1 0.11672 0.45650 0.96093-0.73398-0.21583-0.13000
  -5  -1   2 817.500 132.520   0 0.05519-0.62841-0.54788 0.32093 0.95000-0.60417
  -5  -1   1 12.4009 58.8565   4-0.05697-0.49516-0.99913 0.81325 0.44256-0.18478
  -5  -1   1 12.5198 41.2452   0-0.05952-0.49261-0.48824 0.30235 0.98298-0.72520
   5   1  -1 28.2182 54.8225   1 0.10468 0.44744 0.95837-0.77249-0.20400-0.05378
  -5  -1   0 2722.60 164.545   4-0.09550-0.43553-0.99946 0.85464 0.43819-0.26846
   5   1   0 2921.43 151.373   1 0.10310 0.42793 0.95802-0.81320-0.20244 0.03271
  -5  -1   0 2931.45 161.105   0-0.20606-0.32496-0.39659 0.25177 0.99640-0.82667
  -5  -1  -1 3132.26 203.837   4-0.14742-0.36251-0.99720 0.89346 0.43110-0.34942
   5   1   1 2869.11 163.337   1 0.11792 0.39201 0.96118-0.85743-0.21701 0.13532
  -5  -1  -1 2920.73 135.731   0-0.37144-0.13849-0.27012 0.16637 0.96870-0.88702
  -5  -1  -2 188.287 101.502   4-0.21148-0.27735-0.99006 0.92738 0.42039-0.42676
  -5  -1  -2 167.902 95.6862   0-0.52864 0.03980-0.12059 0.05791 0.88789-0.89426
  -5  -1  -3 3510.19 184.470   4-0.28584-0.18189-0.97546 0.95385 0.40513-0.49954
  -5  -1  -3 3504.52 147.567   0-0.65212 0.18438 0.02882-0.05043 0.76501-0.85943
   5   1   4 2684.33 171.129   5 0.40452 0.04212 0.94529-0.96475-0.43694 0.61940
  -5  -1  -4 2928.94 186.193   4-0.36808-0.07856-0.95086 0.97032 0.38445-0.56691
  -5  -1  -4 3202.28 161.482   0-0.73393 0.28729 0.15939-0.13993 0.62491-0.80738
  -5  -1  -5 32116.3 448.325   3 0.34991-0.77545-0.22034 0.28087-0.74797 0.47746
  -5  -1  -5 32568.0 411.305   0-0.78092 0.35538 0.26509-0.20455 0.48738-0.75789
  -5  -1  -6 777.637 135.400   4-0.54433 0.13988-0.86305 0.96465 0.32437-0.68293
  -5  -1  -6 807.044 122.722   3 0.41688-0.82133-0.20628 0.30789-0.74445 0.38589
  -5  -1  -6 1053.30 131.830   0-0.80370 0.39925 0.34837-0.24676 0.36114-0.71970
  -5  -1  -6 941.362 156.967   2 0.19139-0.59583 0.94436-0.84275-0.73014 0.37158
  -5  -1  -7 51.6053 76.7405   4-0.63182 0.24847-0.79671 0.93939 0.28433-0.73094
  -5  -1  -7 55.8436 67.2160   0-0.81067 0.42732 0.41408-0.27141 0.24773-0.69434
  -5  -1  -7 19.7923 54.1177   3 0.46622-0.84958-0.19490 0.33757-0.73917 0.29257
  -5  -1  -7 41.8510 58.5821   2 0.20688-0.59023 0.95693-0.81426-0.69843 0.25182
  -5  -1  -8 1089.63 173.128   3 0.49986-0.86212-0.18660 0.37034-0.73416 0.19950
  -5  -1  -8 1087.88 134.850   2 0.21544-0.57770 0.96298-0.77924-0.67962 0.14496
  -5  -1  -9 460.046 173.030   2 0.21916-0.56032 0.96540-0.74058-0.67115 0.04844
  -5  -1 -10 1722.71 264.893   2 0.21931-0.53937 0.96549-0.69961-0.67080-0.03995
   5   2  -5 870.122 230.715   1 0.13220 0.51331 0.96390-0.51799-0.23101-0.42362
   5   2  -4 383.741 150.562   1 0.09539 0.52903 0.95625-0.55141-0.19485-0.37173
   5   2  -3 18063.1 445.818   1 0.06076 0.54256 0.94715-0.58339-0.16063-0.31790
  -5  -2   2 6008.02 243.771   4 0.09636-0.67858-0.98119 0.65850 0.45244-0.06196
   5   2  -2 5427.79 287.979   1 0.02890 0.55332 0.93717-0.61448-0.12898-0.26150
  -5  -2   1 23810.0 415.683   4 0.07959-0.64072-0.98445 0.70283 0.45195-0.14951
   5   2  -1 22546.4 419.056   1 0.00069 0.56044 0.92706-0.64544-0.10080-0.20163
  -5  -2   0 2923.66 211.749   4 0.04884-0.58887-0.98959 0.74904 0.45066-0.23627
   5   2   0 3022.82 173.207   1-0.02252 0.56255 0.91784-0.67729-0.07753-0.13686
  -5  -2  -1 12.0848 53.9758   4 0.00407-0.52300-0.99517 0.79569 0.44792-0.32159
   5   2   1 10.7344 35.8983   1-0.03839 0.55732 0.91107-0.71159-0.06157-0.06477
  -5  -2  -2 8225.98 254.322   4-0.05445-0.44339-0.99905 0.84064 0.44282-0.40453
  -5  -2  -3 5168.26 217.238   4-0.12595-0.35079-0.99852 0.88117 0.43420-0.48396
  -5  -2  -4 453.104 117.990   4-0.20896-0.24668-0.99043 0.91416 0.42086-0.55866
  -5  -2  -4 364.543 97.0294   3 0.30066-0.75630-0.22972 0.15345-0.74806 0.61026
  -5  -2  -5 962.727 119.323   4-0.30127-0.13327-0.97154 0.93634 0.40156-0.62742
  -5  -2  -5 1124.57 137.854   3 0.38845-0.82300-0.21244 0.17724-0.74644 0.52058
  -5  -2  -6 1814.67 154.975   4-0.39995-0.01350-0.93876 0.94462 0.37528-0.68919
  -5  -2  -6 1678.05 147.050   3 0.45703-0.87048-0.19709 0.20296-0.74034 0.42644
  -5  -2  -7 1237.05 159.206   4-0.50151 0.10915-0.88940 0.93634 0.34122-0.74317
  -5  -2  -7 1227.38 166.406   3 0.50798-0.90034-0.18452 0.23146-0.73277 0.33082
  -5  -2  -8 15798.2 387.416   3 0.54351-0.91476-0.17511 0.26312-0.72580 0.23580
  -5  -2  -8 14989.6 371.431   2 0.17782-0.54908 0.93175-0.84375-0.75566 0.26566
  -5  -2  -9 725.664 185.964   3 0.56578-0.91594-0.16892 0.29800-0.72067 0.14262
  -5  -2  -9 524.667 159.318   2 0.18680-0.53696 0.94025-0.81118-0.73900 0.16095
  -5  -2 -10 1493.60 264.330   2 0.19110-0.52017 0.94411-0.77396-0.73070 0.06460
   5   3  -5 1050.08 225.738   1 0.08791 0.56660 0.95444-0.41280-0.18747-0.51181
   5   3  -4 9041.32 427.856   1 0.04462 0.58880 0.94228-0.44172-0.14461-0.46662
   5   3  -3 103.468 100.993   1 0.00255 0.60977 0.92776-0.46827-0.10266-0.42052
  -5  -3   2 17720.9 374.308   4 0.19428-0.78550-0.95564 0.53722 0.45243-0.01729
   5   3  -2 16519.3 422.212   1-0.03809 0.62931 0.91121-0.49278-0.06187-0.37327
  -5  -3   1 3156.00 239.756   4 0.18548-0.75561-0.95840 0.58104 0.45264-0.10555
   5   3  -1 2959.84 214.433   1-0.07699 0.64711 0.89302-0.51567-0.02257-0.32452
  -5  -3   0 220.942 120.275   4 0.16379-0.71282-0.96480 0.62852 0.45298-0.19393
   5   3   0 19.7240 89.5444   1-0.11369 0.66272 0.87375-0.53746 0.01475-0.27379
  -5  -3  -1 14050.6 341.136   4 0.12870-0.65663-0.97399 0.67877 0.45299-0.28200
   5   3   1 13408.0 319.867   1-0.14749 0.67542 0.85415-0.55893 0.04931-0.22031
  -5  -3  -2 4193.33 221.017   4 0.07980-0.58663-0.98441 0.73026 0.45195-0.36901
   5   3   2 3951.53 176.308   1-0.17722 0.68406 0.83541-0.58126 0.07988-0.16282
  -5  -3  -3 861.265 124.125   4 0.01689-0.50263-0.99381 0.78073 0.44881-0.45391
  -5  -3  -4 553.867 117.969   4-0.05971-0.40494-0.99921 0.82721 0.44227-0.53542
  -5  -3  -4 589.359 139.471   3 0.31835-0.78300-0.22644 0.05444-0.74826 0.65511
  -5  -3  -5 17495.5 352.392   4-0.14899-0.29456-0.99709 0.86615 0.43087-0.61207
  -5  -3  -5 16854.5 365.315   3 0.40866-0.85221-0.20809 0.07716-0.74510 0.56390
  -5  -3  -6 126.951 96.4618   4-0.24909-0.17336-0.98354 0.89368 0.41306-0.68231
  -5  -3  -6 145.911 97.6754   3 0.47947-0.90192-0.19168 0.10182-0.73734 0.46809
  -5  -3  -7 22.9484 69.7572   4-0.35722-0.04413-0.95465 0.90585 0.38742-0.74472
  -5  -3  -7 66.4908 105.458   3 0.53259-0.93394-0.17807 0.12927-0.72810 0.37080
  -5  -3  -8 18063.2 421.404   3 0.57039-0.95065-0.16761 0.15988-0.71953 0.27418
  -5  -3  -9 1211.15 200.852   3 0.59520-0.95436-0.16037 0.19372-0.71292 0.17953
  -5  -3 -10 5154.42 309.407   3 0.60897-0.94704-0.15622 0.23063-0.70889 0.08745
  -5  -3 -11 1309.93 241.935   3 0.61320-0.93017-0.15492 0.27041-0.70760-0.00189
   5   4  -4 3183.03 293.582   1 0.00706 0.63536 0.92945-0.33315-0.10718-0.54871
   5   4  -3 414.164 218.152   1-0.04009 0.66141 0.91032-0.35509-0.05985-0.50799
  -5  -4   2 5029.49 318.522   4 0.26435-0.86457-0.93030 0.41614 0.44925 0.03055
   5   4  -2 4728.30 323.064   1-0.08639 0.68661 0.88828-0.37412-0.01303-0.46676
  -5  -4   1 109.331 102.091   4 0.26261-0.84174-0.93100 0.45791 0.44936-0.05761
   5   4  -1 117.412 125.385   1-0.13173 0.71085 0.86351-0.39042 0.03317-0.42491
  -5  -4   0 29621.8 471.824   4 0.24932-0.80735-0.93625 0.50423 0.45016-0.14646
   5   4   0 27812.0 451.889   1-0.17596 0.73399 0.83624-0.40422 0.07858-0.38227
  -5  -4  -1 659.883 128.164   4 0.22389-0.76083-0.94567 0.55472 0.45142-0.23577
   5   4   1 844.096 126.930   2 0.25072 0.28621 0.01595 0.37500 0.77819-0.99384
   5   4   1 674.597 119.877   1-0.21886 0.75579 0.80674-0.41579 0.12295-0.33859
  -5  -4  -2 2858.94 226.095   4 0.18560-0.70144-0.95836 0.60848 0.45264-0.32504
   5   4   2 2744.27 181.039   1-0.26009 0.77592 0.77546-0.42558 0.16591-0.29350
  -5  -4  -3 8102.23 241.579   4 0.13372-0.62846-0.97276 0.66395 0.45303-0.41348
  -5  -4  -4 3834.04 210.432   4 0.06770-0.54135-0.98656 0.71882 0.45150-0.50000
  -5  -4  -4 3619.27 251.685   3 0.31941-0.79306-0.22624-0.04150-0.74826 0.69977
  -5  -4  -5 4804.36 236.472   4-0.01255-0.44000-0.99667 0.77000 0.44665-0.58320
  -5  -4  -5 4586.02 238.808   3 0.41304-0.86559-0.20713-0.01954-0.74476 0.60822
  -5  -4  -6 286.830 130.112   4-0.10649-0.32496-0.99924 0.81364 0.43681-0.66140
  -5  -4  -6 383.840 153.478   3 0.48689-0.91835-0.18985 0.00425-0.73623 0.51164
  -5  -4  -7 10314.9 285.695   4-0.21270-0.19766-0.98987 0.84534 0.42017-0.73281
  -5  -4  -7 10537.9 341.840   3 0.54291-0.95327-0.17528 0.03075-0.72593 0.41329
  -5  -4  -8 1796.53 211.235   3 0.58355-0.97281-0.16381 0.06035-0.71612 0.31543
  -5  -4  -9 103.086 109.616   3 0.61123-0.97940-0.15553 0.09313-0.70821 0.21947
  -5  -4 -10 2380.50 273.387   3 0.62801-0.97508-0.15030 0.12898-0.70288 0.12609
  -5  -4 -11 49.4990 129.655   3 0.63547-0.96144-0.14793 0.16768-0.70038 0.03554
   5   5  -3 1406.14 319.362   1-0.06920 0.69952 0.89684-0.24588-0.03045-0.58204
  -5  -5   2 59.7913 128.679   4 0.31169-0.92092-0.90964 0.29975 0.44551 0.07894
   5   5  -2 35.0970 113.425   1-0.11899 0.72822 0.87079-0.26090 0.02015-0.54460
  -5  -5   1 298.173 203.739   4 0.31576-0.90389-0.90773 0.33891 0.44513-0.00873
   5   5  -1 184.715 146.889   1-0.16799 0.75611 0.84138-0.27256 0.07037-0.50676
  -5  -5   0 7165.58 341.724   4 0.30954-0.87657-0.91065 0.38290 0.44571-0.09736
   5   5   0 6455.15 304.380   1-0.21610 0.78313 0.80873-0.28098 0.12008-0.46843
  -5  -5  -1 2730.36 231.943   4 0.29252-0.83845-0.91836 0.43168 0.44718-0.18688
   5   5   1 2630.99 231.708   2 0.26948 0.27645 0.08778 0.39890 0.73622-0.99652
   5   5   1 2736.41 224.884   1-0.26318 0.80911 0.77299-0.28631 0.16914-0.42944
   5   5   2 671.567 196.224   2 0.22591 0.29893-0.07217 0.51778 0.82393-0.99618
   5   5   2 607.596 168.765   1-0.30901 0.83385 0.73436-0.28874 0.21732-0.38957
  -5  -5  -3 47.1625 72.4137   4 0.22296-0.72670-0.94600 0.54146 0.45146-0.36725
   5   5   3 171.201 131.422   1-0.35329 0.85704 0.69317-0.28863 0.26428-0.34849
  -5  -5  -4 2540.87 207.385   4 0.16859-0.65123-0.96343 0.59996 0.45292-0.45677
  -5  -5  -4 2566.83 231.158   3 0.30535-0.78799-0.22886-0.13461-0.74814 0.74430
  -5  -5  -5 14532.7 350.914   4 0.10004-0.56159-0.98043 0.65803 0.45253-0.54442
  -5  -5  -5 13984.9 363.917   3 0.40326-0.86481-0.20927-0.11313-0.74550 0.65361
  -5  -5  -6 4623.85 229.990   4 0.01683-0.45728-0.99381 0.71248 0.44881-0.62875
  -5  -5  -6 4682.95 253.742   3 0.48109-0.92155-0.19129-0.09005-0.73711 0.55717
  -5  -5  -7 1161.91 160.017   4-0.08092-0.33843-0.99954 0.75927 0.43993-0.70792
  -5  -5  -7 1567.68 243.669   3 0.54082-0.96018-0.17584-0.06442-0.72638 0.45839
  -5  -5  -8 255.222 124.081   3 0.58495-0.98322-0.16340-0.03580-0.71575 0.35971
  -5  -5  -9 19702.3 457.498   3 0.61598-0.99314-0.15407-0.00406-0.70674 0.26266
  -5  -5 -10 642.431 198.593   3 0.63602-0.99208-0.14775 0.03070-0.70019 0.16806
  -5  -5 -11 414.286 195.998   3 0.64676-0.98173-0.14428 0.06829-0.69643 0.07625
  -5  -6   2 1063.20 290.586   4 0.34110-0.95933-0.89531 0.18968 0.44251 0.12659
  -5  -6   1 4155.16 353.910   4 0.34989-0.94702-0.89080 0.22624 0.44151 0.03954
   5   6  -1 3181.12 281.276   1-0.18971 0.78684 0.82711-0.16256 0.09276-0.57382
  -5  -6   0 222.303 153.615   4 0.34941-0.92544-0.89104 0.26756 0.44157-0.04856
   5   6   0 95.7090 118.451   1-0.23968 0.81571 0.79131-0.16783 0.14460-0.53760
  -5  -6  -1 754.457 221.909   4 0.33930-0.89423-0.89622 0.31381 0.44271-0.13776
   5   6   1 807.333 207.130   2 0.28562 0.26931 0.15409 0.42833 0.69369-0.99865
   5   6   1 918.344 205.847   1-0.28846 0.84340 0.75216-0.16975 0.19567-0.50062
  -5  -6  -2 1930.68 264.347   4 0.31893-0.85277-0.90623 0.36488 0.44482-0.22791
   5   6   2 1594.21 231.726   2 0.25012 0.28372 0.01374 0.52761 0.77941-0.99632
   5   6   2 1591.99 210.919   1-0.33584 0.86968 0.70988-0.16853 0.24572-0.46262
  -5  -6  -3 1361.84 174.953   4 0.28746-0.80021-0.92058 0.42030 0.44759-0.31873
   5   6   3 1436.83 209.147   2 0.20936 0.30338-0.12733 0.62761 0.84932-0.97818
  -5  -6  -4 27.4019 74.2928   4 0.24387-0.73552-0.93833 0.47913 0.45046-0.40965
  -5  -6  -5 178.256 114.455   4 0.18708-0.65763-0.95790 0.53977 0.45260-0.49984
  -5  -6  -5 128.517 90.3627   3 0.38027-0.85082-0.21416-0.20398-0.74687 0.69964
  -5  -6  -6 5272.92 255.531   4 0.11606-0.56552-0.97694 0.59988 0.45284-0.58813
  -5  -6  -6 5003.51 292.873   3 0.46310-0.91256-0.19565-0.18142-0.73958 0.60430
  -5  -6  -7 111.214 103.419   4 0.03003-0.45839-0.99221 0.65622 0.44963-0.67297
  -5  -6  -7 219.329 179.491   3 0.52743-0.95579-0.17944-0.15656-0.72913 0.50580
  -5  -6  -8 386.485 224.188   3 0.57579-0.98305-0.16606-0.12887-0.71816 0.40678
  -5  -6  -9 1116.30 259.820   3 0.61070-0.99687-0.15569-0.09817-0.70837 0.30894
  -5  -6 -10 52.0882 84.7508   3 0.63438-0.99945-0.14828-0.06451-0.70075 0.21327
  -5  -7   0 6657.83 404.138   4 0.37327-0.95830-0.87825 0.15903 0.43861-0.00095
   5   7   0 5822.21 402.289   1-0.25075 0.83578 0.78280-0.06358 0.15615-0.59381
  -5  -7  -1 4248.69 359.924   4 0.36876-0.93270-0.88073 0.20257 0.43920-0.08959
   5   7   1 4297.56 351.061   2 0.29982 0.26412 0.21680 0.46135 0.65005-0.99966
   5   7   1 4249.34 313.367   1-0.30008 0.86402 0.74220-0.06404 0.20790-0.55751
  -5  -7  -2 3883.37 336.064   4 0.35508-0.89793-0.88807 0.25099 0.44090-0.17934
   5   7   2 3726.70 319.682   2 0.27057 0.27228 0.09208 0.54500 0.73357-0.99514
   5   7   3 1571.88 248.258   2 0.23668 0.28506-0.03476 0.63078 0.80529-0.97880
   5   7   3 1467.79 266.747   1-0.39334 0.91508 0.65236-0.05635 0.30714-0.48066
  -5  -7  -4 1708.04 210.532   4 0.29715-0.79780-0.91630 0.36136 0.44680-0.36133
  -5  -7  -5 508.509 162.213   4 0.25086-0.73041-0.93565 0.42178 0.45007-0.45265
  -5  -7  -5 655.894 181.202   3 0.34443-0.82398-0.22142-0.29245-0.74808 0.74550
  -5  -7  -6 196.193 109.619   4 0.19144-0.64990-0.95654 0.48374 0.45250-0.54313
  -5  -7  -6 132.569 111.814   3 0.43337-0.89183-0.20258-0.27022-0.74295 0.65232
  -5  -7  -7 97.6380 95.5645   4 0.11770-0.55506-0.97657 0.54484 0.45287-0.63155
  -5  -7  -7 62.0487 114.735   3 0.50328-0.94064-0.18573-0.24601-0.73358 0.55491
  -5  -7  -8 2212.32 295.330   3 0.55666-0.97293-0.17148-0.21918-0.72284 0.45612
  -5  -7  -9 1542.64 289.484   3 0.59611-0.99128-0.16010-0.18949-0.71266 0.35789
  -5  -7 -10 44.4046 166.212   3 0.62390-0.99797-0.15160-0.15692-0.70422 0.26140
   5   8   1 121.573 169.569   2 0.31244 0.26050 0.27704 0.49684 0.60487-0.99914
  -5  -8  -2 483.730 208.796   4 0.37633-0.92818-0.87654 0.14373 0.43821-0.13199
   5   8   2 530.874 242.443   2 0.28818 0.26366 0.16505 0.56777 0.68631-0.99253
  -5  -8  -3 486.759 161.871   4 0.35923-0.88997-0.88588 0.19413 0.44040-0.22223
   5   8   3 535.464 222.789   2 0.25987 0.27087 0.05036 0.64139 0.75861-0.97678
  -5  -8  -4 567.179 192.134   4 0.33246-0.84211-0.89965 0.24897 0.44345-0.31333
   5   8   4 372.508 220.805   2 0.22842 0.28123-0.06354 0.71422 0.81973-0.94985
  -5  -8  -5 350.723 171.262   4 0.29504-0.78359-0.91725 0.30764 0.44698-0.40490
  -5  -8  -6 518.385 161.226   4 0.24577-0.71323-0.93761 0.36907 0.45036-0.49633
  -5  -8  -7 1029.16 180.407   4 0.18335-0.62971-0.95905 0.43159 0.45268-0.58671
  -5  -8  -7 789.833 236.633   3 0.46835-0.91471-0.19439-0.33308-0.73889 0.60487
  -5  -8  -8 2001.95 345.315   3 0.52769-0.95295-0.17937-0.30702-0.72908 0.50701
  -5  -8  -9 67.6220 182.931   3 0.57240-0.97657-0.16704-0.27829-0.71902 0.40890
   5   9   4 625.157 206.243   1-0.42874 0.94740 0.61319 0.13322 0.34537-0.52015
  -5  -9  -6 911.508 243.882   4 0.28252-0.75897-0.92272 0.25845 0.44797-0.44929
  -5  -9  -7 14.1998 97.6003   4 0.22988-0.68525-0.94352 0.32032 0.45115-0.54052
  -6   7   5 229.542 194.341   0-0.30389-0.36502-0.32503 0.73092 0.98606-0.70831
   6  -7  -5 86.6543 165.531   3 0.91199-0.24309 0.19951-0.60540 0.07030-0.34805
  -6   7   4 1775.65 282.992   0-0.36519-0.28262-0.27541 0.72237 0.97069-0.78099
  -6   7   3 1015.91 254.817   0-0.43031-0.19640-0.21808 0.70611 0.94579-0.84414
  -6   7   2 328.685 158.209   0-0.49666-0.10896-0.15394 0.68304 0.90978-0.89617
  -6   7   1 15.7053 77.3128   0-0.56132-0.02319-0.08457 0.65474 0.86194-0.93638
  -6   7   0 46.4655 108.349   0-0.62151 0.05809-0.01202 0.62326 0.80255-0.96504
  -6   7  -1 11.3522 116.908   0-0.67490 0.13258 0.06149 0.59081 0.73286-0.98340
   6  -6  -6 1824.87 370.907   3 0.90392-0.20492 0.20347-0.47256 0.08466-0.49511
   6  -6  -5 1830.46 346.477   3 0.87907-0.20117 0.21433-0.52449 0.12536-0.44777
  -6   6   5 1652.03 285.285   0-0.23826-0.43964-0.37401 0.68416 0.99481-0.67240
   6  -6  -5 1616.98 256.993   5 0.83861-0.16071 0.62073-0.93088-0.46245 0.14004
  -6   6   4 112.622 126.511   0-0.30082-0.35599-0.32741 0.67864 0.98664-0.75228
   6  -6  -4 465.942 201.228   3 0.85291-0.19610 0.22409-0.57532 0.16383-0.39819
   6  -6  -4 288.396 191.380   5 0.85005-0.19325 0.60367-0.95490-0.46030 0.22595
  -6   6   3 124.249 160.865   0-0.36921-0.26650-0.27201 0.66431 0.96942-0.82311
   6  -6  -3 46.0194 112.014   3 0.82613-0.19042 0.23271-0.62501 0.19965-0.34596
   6  -6  -3 104.876 93.4679   5 0.86609-0.23038 0.57815-0.97044-0.45676 0.31045
  -6   6   2 426.369 206.241   0-0.44076-0.17385-0.20838 0.64175 0.94088-0.88262
   6  -6  -2 404.123 172.088   5 0.88582-0.27121 0.54369-0.97705-0.45139 0.39313
  -6   6   1 38.3191 121.959   0-0.51222-0.08130-0.13793 0.61236 0.89953-0.92932
   6  -6  -1 51.1547 140.963   5 0.90806-0.31454 0.49974-0.97418-0.44364 0.47343
  -6   6   0 106.985 155.030   0-0.58016 0.00774-0.06282 0.57833 0.84512-0.96296
   6  -6   0 24.6741 113.955   5 0.93128-0.35886 0.44575-0.96125-0.43286 0.55070
   6  -6   1 42.1746 153.816   5 0.95368-0.40236 0.38124-0.93781-0.41835 0.62424
  -6   6  -1 26.8781 96.6953   0-0.64156 0.09023 0.01438 0.54220 0.77863-0.98451
  -6   6  -2 63.0051 121.971   0-0.69424 0.16401 0.09111 0.50653 0.70205-0.99599
   6  -6   2 36.4706 102.014   5 0.97315-0.44292 0.30586-0.90350-0.39934 0.69327
  -6   6  -3 474.741 182.832   0-0.73699 0.22786 0.16522 0.47349 0.61792-0.99990
  -6   5   6 500.033 242.399   0-0.12060-0.58741-0.45219 0.62555 0.99258-0.53747
   6  -5  -6 415.568 149.803   5 0.76234-0.05434 0.71599-0.88934-0.47064 0.01553
   6  -5  -5 2058.06 255.701   3 0.84746-0.16055 0.22595-0.44037 0.17139-0.53845
  -6   5   5 1823.43 231.100   0-0.17381-0.51310-0.41830 0.63272 0.99631-0.62925
   6  -5  -5 1834.75 230.909   5 0.76700-0.08010 0.71092-0.92534-0.47039 0.10333
   6  -5  -4 1270.35 252.822   3 0.81206-0.14625 0.23680-0.49229 0.21729-0.49630
   6  -5  -4 1181.35 190.356   5 0.77839-0.11258 0.69817-0.95367-0.46965 0.19064
  -6   5   3 395.012 140.660   0-0.30693-0.33778-0.32265 0.61922 0.98547-0.79450
   6  -5  -3 336.596 139.681   3 0.77439-0.12968 0.24645-0.54302 0.26121-0.45217
  -6   5   2 719.022 171.441   0-0.38293-0.24068-0.26028 0.59791 0.96483-0.86192
   6  -5  -2 638.767 203.420   3 0.73514-0.11153 0.25489-0.59252 0.30272-0.40564
   6  -5  -2 540.990 160.563   5 0.81930-0.19569 0.64764-0.98527-0.46545 0.36253
  -6   5   1 2211.20 215.587   0-0.46085-0.14167-0.18933 0.56803 0.93067-0.91580
   6  -5  -1 2449.15 249.178   5 0.84702-0.24450 0.60829-0.98699-0.46090 0.44603
  -6   5   0 9519.09 323.557   0-0.53664-0.04478-0.11196 0.53174 0.88189-0.95508
   6  -5   0 9801.60 359.495   5 0.87771-0.29628 0.55831-0.97808-0.45375 0.52693
   6  -5   1 277.673 174.538   5 0.90944-0.34912 0.49678-0.95762-0.44308 0.60431
  -6   5  -1 218.697 141.898   0-0.60643 0.04610-0.03107 0.49191 0.81906-0.98029
  -6   5  -2 165.034 140.478   0-0.66722 0.12799 0.05023 0.45168 0.74416-0.99344
   6  -5   2 293.002 150.045   5 0.93985-0.40062 0.42290-0.92481-0.42792 0.67720
  -6   5  -3 14.6330 106.932   0-0.71724 0.19911 0.12921 0.41377 0.66009-0.99741
   6  -5   3 0.82155 103.276   5 0.96617-0.44803 0.33610-0.87908-0.40722 0.74455
  -6   5  -4 233.932 172.438   0-0.75592 0.25889 0.20381 0.38024 0.56992-0.99530
  -6   4   6 41.6830 72.7309   0-0.06145-0.65555-0.48714 0.56476 0.98337-0.48360
   6  -4  -6 7.31105 119.075   5 0.68050 0.03650 0.79317-0.87079-0.47113-0.02863
  -6   4   5 538.648 178.662   0-0.11179-0.58412-0.45758 0.57626 0.99154-0.57982
   6  -4  -5 588.642 200.637   5 0.68192 0.01399 0.79200-0.91069-0.47118 0.05946
   6  -4  -4-13.9022 98.1449   3 0.77459-0.09978 0.24641-0.40617 0.26099-0.58465
  -6   4   4 183.034 118.152   0-0.17309-0.50172-0.41878 0.57853 0.99629-0.67262
   6  -4  -4 91.0342 140.470   5 0.69143-0.01662 0.78401-0.94377-0.47144 0.14778
  -6   4   3 3414.29 250.002   0-0.24453-0.40918-0.36950 0.57033 0.99429-0.75868
   6  -4  -3 3822.78 288.473   3 0.72621-0.07249 0.25662-0.45744 0.31166-0.54728
   6  -4  -3 3727.04 270.893   5 0.70890-0.05519 0.76869-0.96951-0.47172 0.23610
  -6   4   2 6237.20 278.374   0-0.32399-0.30862-0.30919 0.55108 0.98182-0.83425
   6  -4  -2 6169.70 271.455   5 0.73393-0.10132 0.74517-0.98707-0.47160 0.32403
  -6   4   1 1228.10 240.456   0-0.40788-0.20364-0.23840 0.52137 0.95544-0.89592
   6  -4  -1 1150.06 203.111   5 0.76574-0.15422 0.71230-0.99527-0.47046 0.41094
  -6   4   0 3227.26 254.199   0-0.49153-0.09890-0.15913 0.48317 0.91300-0.94152
   6  -4   0 3232.08 280.917   5 0.80303-0.21260 0.66871-0.99274-0.46744 0.49597
  -6   4  -1 2249.79 220.789   0-0.57009 0.00076-0.07454 0.43965 0.85429-0.97086
   6  -4   1 1807.84 220.698   5 0.84396-0.27463 0.61287-0.97798-0.46148 0.57806
  -6   4  -2 26.2496 77.5549   0-0.63952 0.09128 0.01162 0.39455 0.78118-0.98580
   6  -4   2 18.4018 64.5844   5 0.88603-0.33779 0.54332-0.94949-0.45133 0.65595
  -6   4  -3 364.577 167.073   0-0.69724 0.17010 0.09588 0.35136 0.69694-0.98962
   6  -4   3 253.900 158.630   5 0.92608-0.39894 0.45875-0.90600-0.43558 0.72825
  -6   4  -4 1455.34 207.433   0-0.74230 0.23626 0.17557 0.31275 0.60533-0.98605
  -6   4  -5 4927.28 310.701   0-0.77501 0.29007 0.24905 0.28034 0.50977-0.97854
  -6   4  -6 276.714 120.074   0-0.79641 0.33256 0.31558 0.25488 0.41295-0.96977
   6  -3  -6 6.65314 61.1546   5 0.58984 0.13616 0.85833-0.84021-0.46493-0.07949
   6  -3  -6 2.20087 85.9028   3 0.84271-0.11671 0.22752-0.20940 0.17785-0.72226
   6  -3  -5 886.584 182.526   5 0.58616 0.11875 0.86061-0.88356-0.46456 0.00819
  -6   3   5 1151.72 212.098   0-0.05353-0.65138-0.49161 0.51456 0.98174-0.52537
   6  -3  -5 1123.22 214.274   3 0.79542-0.09052 0.24127-0.26423 0.23724-0.69360
   6  -3  -4 845.205 148.369   5 0.59163 0.09218 0.85721-0.92123-0.46511 0.09679
  -6   3   4 903.157 184.884   0-0.11227-0.57154-0.45728 0.52130 0.99160-0.62328
   6  -3  -4 734.635 166.784   3 0.74238-0.05856 0.25345-0.31747 0.29535-0.66367
  -6   3   3 2559.28 218.806   0-0.18326-0.47946-0.41203 0.51713 0.99651-0.71623
   6  -3  -3 2331.59 206.802   5 0.60647 0.05624 0.84769-0.95279-0.46650 0.18623
  -6   3   2 1719.93 209.902   0-0.26499-0.37663-0.35456 0.50072 0.99216-0.79993
   6  -3  -2 1637.34 175.500   5 0.63071 0.01090 0.83119-0.97735-0.46847 0.27624
  -6   3   1 155.660 122.594   4-0.67182 0.05130-0.75965 0.94689 0.26300-0.15882
  -6   3   1 126.907 115.635   0-0.35412-0.26641-0.28466 0.47190 0.97402-0.86984
  -6   3   0 92599.2 791.210   4-0.69123 0.09181-0.73981 0.96812 0.25181-0.23568
  -6   3   0 88887.7 751.636   0-0.44553-0.15389-0.20391 0.43221 0.93855-0.92242
   6  -3   0 88916.2 810.434   5 0.70576-0.10634 0.77150-0.99981-0.47169 0.45556
  -6   3  -1 1221.29 164.705   0-0.53328-0.04505-0.11560 0.38497 0.88444-0.95636
   6  -3   1 1261.01 178.424   5 0.75434-0.17601 0.72450-0.99387-0.47100 0.54293
   6  -3   2 13.7095 70.3490   5 0.80751-0.25028 0.66304-0.97348-0.46694 0.62691
  -6   3  -2 21.3201 55.3874   0-0.61194 0.05471-0.02418 0.33463 0.81316-0.97313
  -6   3  -3 40.8590 63.5693   0-0.67786 0.14172 0.06590 0.28561 0.72838-0.97640
   6  -3   3 51.4409 97.0681   5 0.86205-0.32591 0.58477-0.93629-0.45772 0.70573
  -6   3  -4 355.421 148.001   0-0.72951 0.21447 0.15116 0.24143 0.63468-0.97074
  -6   3  -5 1214.12 203.727   0-0.76716 0.27322 0.22945 0.20420 0.53637-0.96048
  -6   3  -6 143.494 171.345   0-0.79212 0.31927 0.29984 0.17488 0.43681-0.94897
  -6   3  -7 188.959 108.543   0-0.80607 0.35432 0.36229 0.15350 0.33824-0.93845
   6  -2  -6 475.527 183.148   5 0.49469 0.24031 0.90962-0.79577-0.45276-0.13631
  -6   2   6 361.949 164.596   0 0.04143-0.77643-0.54128 0.42743 0.95498-0.36591
   6  -2  -6 411.846 180.387   3 0.83157-0.09656 0.23106-0.11721 0.19263-0.78170
   6  -2  -5 1992.80 232.181   5 0.48430 0.22961 0.91433-0.84155-0.45114-0.04989
  -6   2   5 1755.29 228.181   0-0.00035-0.71356-0.52030 0.44752 0.96839-0.46737
   6  -2  -5 1555.28 175.012   3 0.77784-0.06393 0.24564-0.17286 0.25736-0.75839
   6  -2  -4 5222.59 276.082   5 0.48363 0.20918 0.91463-0.88292-0.45103 0.03805
  -6   2   4 5592.40 288.108   0-0.05541-0.63740-0.49055 0.45884 0.98213-0.56916
   6  -2  -4 5097.19 259.725   3 0.71694-0.02413 0.25833-0.22662 0.32074-0.73371
   6  -2  -3 1435.43 184.629   5 0.49321 0.17851 0.91030-0.91966-0.45253 0.12761
  -6   2   3 1343.91 209.709   0-0.12455-0.54717-0.44976 0.45912 0.99300-0.66807
   6  -2  -2 46.6864 102.809   5 0.51353 0.13709 0.90066-0.95109-0.45557 0.21869
  -6   2   2 50.2396 88.0421   4-0.53934-0.11128-0.86630 0.91673 0.32642-0.08954
  -6   2   2 92.5759 109.704   0-0.20720-0.44342-0.39581 0.44624 0.99637-0.75950
   6  -2  -1 63.2964 113.415   5 0.54492 0.08461 0.88447-0.97597-0.45982 0.31099
  -6   2   1 40.0360 71.1453   4-0.55573-0.07379-0.85540 0.94690 0.31960-0.17077
  -6   2   1 65.5240 83.9538   0-0.30064-0.32888-0.32755 0.41905 0.98667-0.83784
   6  -2   0 431.685 122.866   5 0.58730 0.02113 0.85990-0.99247-0.46468 0.40389
  -6   2   0 439.650 121.995   4-0.58054-0.02789-0.83779 0.97036 0.30878-0.24800
  -6   2   0 553.155 132.223   0-0.39959-0.20884-0.24575 0.37832 0.95872-0.89793
  -6   2  -1 5235.51 257.054   4-0.61205 0.02472-0.81335 0.98698 0.29411-0.32138
  -6   2  -1 5126.74 230.647   0-0.49693-0.09040-0.15366 0.32730 0.90960-0.93687
   6  -2   1 4876.89 236.741   5 0.64006-0.05273 0.82449-0.99813-0.46911 0.49638
  -6   2  -2 21651.9 386.734   0-0.58554 0.01930-0.05646 0.27117 0.84004-0.95535
   6  -2   2 21978.8 424.740   5 0.70165-0.13541 0.77515-0.98986-0.47164 0.58695
  -6   2  -3 427.411 150.315   4-0.68843 0.14329-0.74276 0.99853 0.25346-0.45682
  -6   2  -3 291.949 101.150   0-0.66021 0.11507 0.04018 0.21560 0.75405-0.95741
   6  -2   3 297.667 106.263   5 0.76933-0.22419 0.70836-0.96413-0.47025 0.67361
  -6   2  -4 182.415 117.973   0-0.71863 0.19459 0.13163 0.16522 0.65732-0.94874
  -6   2  -5 887.369 142.458   0-0.76100 0.25805 0.21508 0.12284 0.55535-0.93481
  -6   2  -6 432.771 205.141   0-0.78899 0.30714 0.28938 0.08960 0.45233-0.91984
  -6   2  -7 1769.14 221.417   0-0.80481 0.34406 0.35459 0.06547 0.35097-0.90653
  -6   2  -8 3903.45 345.252   0-0.81061 0.37095 0.41135 0.04978 0.25274-0.89634
   6  -1  -6 692.523 181.865   3 0.82661-0.08261 0.23257-0.02299 0.19903-0.83276
  -6   1   6 880.189 214.000   0 0.08303-0.82704-0.56078 0.35120 0.93907-0.30534
   6  -1  -5 12.2901 59.6800   5 0.38199 0.34092 0.95247-0.78396-0.43242-0.11326
  -6   1   5 32.9207 88.6989   0 0.04646-0.76937-0.54371 0.37520 0.95319-0.40751
   6  -1  -5 33.2343 77.9034   3 0.76729-0.04438 0.24809-0.07958 0.26901-0.81469
   6  -1  -4 1003.24 168.189   5 0.37362 0.32819 0.95498-0.82753-0.43068-0.02695
  -6   1   4 975.271 175.921   0-0.00400-0.69781-0.51841 0.39096 0.96944-0.51181
   6  -1  -3 9280.54 300.950   5 0.37574 0.30498 0.95435-0.86798-0.43112 0.06154
  -6   1   3 9069.82 330.543   0-0.07003-0.61069-0.48225 0.39587 0.98503-0.61544
   6  -1  -2 18065.4 424.089   5 0.38918 0.27044 0.95025-0.90495-0.43388 0.15235
  -6   1   2 18023.9 374.089   4-0.40398-0.25564-0.93712 0.89181 0.37408-0.09254
  -6   1   2 18828.2 405.960   0-0.15220-0.50742-0.43235 0.38704 0.99532-0.71379
   6  -1  -1 1183.51 157.417   5 0.41478 0.22375 0.94180-0.93756-0.43893 0.24544
  -6   1   1 1442.10 173.332   4-0.42277-0.21576-0.92914 0.92491 0.36829-0.17481
  -6   1   1 1327.76 158.139   0-0.24884-0.38969-0.36639 0.36216 0.99390-0.80042
   6  -1   0 7447.82 269.742   5 0.45326 0.16416 0.92743-0.96427-0.44597 0.34053
  -6   1   0 7501.70 261.479   4-0.45149-0.16594-0.91586 0.95270 0.35897-0.25353
  -6   1   0 7329.29 259.408   0-0.35493-0.26250-0.28399 0.32082 0.97378-0.86834
   6  -1   1 253.134 134.940   5 0.50503 0.09130 0.90477-0.98268-0.45432 0.43694
  -6   1  -1 260.677 115.626   4-0.48856-0.10777-0.89667 0.97458 0.34601-0.32862
  -6   1  -1 103.109 61.9875   0-0.46231-0.13402-0.18793 0.26583 0.92988-0.91250
   6  -1   2 53.1819 65.4175   5 0.56976 0.00547 0.87046-0.98944-0.46280 0.53346
  -6   1  -2 70.3970 64.9948   4-0.53229-0.04295-0.87082 0.98980 0.32927-0.39993
  -6   1  -3 193.034 90.7132   4-0.58089 0.02675-0.83753 0.99757 0.30863-0.46733
  -6   1  -3 211.116 102.028   0-0.64576 0.09162 0.02008 0.13996 0.77330-0.93201
   6  -1   3 113.504 66.4699   5 0.64606-0.09192 0.82009-0.98013-0.46949 0.62820
  -6   1  -4 756.820 151.207   4-0.63256 0.09952-0.79607 0.99719 0.28396-0.53071
  -6   1  -4 943.113 176.021   0-0.71101 0.17797 0.11854 0.08258 0.67211-0.91887
  -6   1  -5 4262.24 238.359   4-0.68546 0.17351-0.74585 0.98803 0.25520-0.59000
  -6   1  -5 4030.02 231.290   0-0.75761 0.24566 0.20750 0.03468 0.56518-0.89998
  -6   1  -6 273.868 154.603   0-0.78782 0.29697 0.28564-0.00238 0.45782-0.88068
  -6   1  -7 872.068 190.453   0-0.80457 0.33482 0.35320-0.02888 0.35325-0.86415
  -6   1  -8 3222.34 284.424   0-0.81060 0.36195 0.41122-0.04582 0.25298-0.85193
  -6   1  -9 769.479 232.078   2 0.24330-0.67086 0.97762-0.57116-0.61127-0.07573
   6   0  -6 134.779 173.055   3 0.82843-0.07543 0.23202 0.07330 0.19669-0.87507
   6   0  -5 2718.97 317.820   1 0.29841 0.43350 0.97087-0.70662-0.39127-0.19906
   6   0  -5 2539.55 266.547   3 0.76454-0.03263 0.24871 0.01554 0.27199-0.86233
   6   0  -4 85.4530 123.648   1 0.28421 0.42661 0.97216-0.74898-0.37778-0.12451
   6   0  -3 72.7943 88.0468   1 0.27614 0.41358 0.97273-0.79062-0.37009-0.04414
  -6   0   3 125.579 69.8187   0-0.02142-0.66830-0.50920 0.32710 0.97418-0.55994
  -6   0   2 545.256 174.485   4-0.26498-0.40365-0.98026 0.83922 0.40973-0.08354
  -6   0   2 673.742 160.725   0-0.10180-0.56682-0.46361 0.32257 0.99022-0.66403
   6   0  -2 650.109 162.149   1 0.27612 0.39250 0.97273-0.83169-0.37008 0.04389
  -6   0   1 1243.71 214.586   4-0.28348-0.36405-0.97603 0.87606 0.40566-0.16752
   6   0  -1 1369.90 182.335   1 0.28702 0.36051 0.97194-0.87197-0.38045 0.14231
  -6   0   0 19367.4 386.267   4-0.31321-0.31322-0.96830 0.90940 0.39871-0.24862
  -6   0   0 21126.2 366.784   0-0.31322-0.31321-0.31773 0.25883 0.98419-0.83410
   6   0   1 5153.20 240.461   5 0.35839 0.24694 0.95931-0.94148-0.42745 0.36540
  -6   0  -1 5512.54 252.326   4-0.35292-0.25241-0.95610 0.93827 0.38858-0.32654
   6   0   2 1873.18 156.808   5 0.41941 0.16483 0.94018-0.96342-0.43981 0.46582
  -6   0  -2 1917.60 171.362   4-0.40117-0.18307-0.93826 0.96150 0.37492-0.40092
  -6   0  -2 2111.60 164.769   0-0.54242-0.04181-0.10565 0.12889 0.87742-0.90342
   6   0   3 10054.4 313.269   5 0.49666 0.06648 0.90871-0.97302-0.45306 0.56712
  -6   0  -3 9960.38 293.113   4-0.45630-0.10684-0.91351 0.97782 0.35735-0.47140
  -6   0  -3 10712.5 282.475   0-0.63655 0.07341 0.00766 0.05665 0.78483-0.89889
   6   0   4 1339.55 147.245   5 0.58919-0.04715 0.85873-0.96411-0.46487 0.66697
  -6   0  -4 1473.37 169.791   4-0.51647-0.02558-0.88060 0.98598 0.33552-0.53762
  -6   0  -4 1597.29 148.596   0-0.70843 0.16639 0.11419-0.00881 0.67695-0.87905
  -6   0  -5 1179.03 169.716   4-0.57970 0.05875-0.83841 0.98486 0.30916-0.59931
  -6   0  -5 1242.03 155.040   0-0.75828 0.23733 0.20898-0.06253 0.56326-0.85341
  -6   0  -6 863.684 171.095   4-0.64393 0.14408-0.78600 0.97352 0.27810-0.65630
  -6   0  -6 997.863 200.685   0-0.78936 0.28951 0.29059-0.10307 0.45055-0.82875
  -6   0  -7 3351.45 242.405   0-0.80567 0.32692 0.35976-0.13117 0.34245-0.80869
  -6   0  -8 7555.42 347.267   0-0.81072 0.35306 0.41809-0.14843 0.24034-0.79464
  -6   0  -8 7397.87 337.878   2 0.21777-0.67543 0.96451-0.69485-0.67432 0.12003
  -6   0  -9 359.614 194.477   2 0.22051-0.65707 0.96624-0.65551-0.66804 0.02569
   6   1  -5 1082.70 246.659   1 0.23789 0.50303 0.97381-0.61382-0.33351-0.30148
   6   1  -4 416.625 184.273   1 0.21447 0.50535 0.97321-0.65429-0.31096-0.23598
   6   1  -3 1715.24 261.548   1 0.19542 0.50330 0.97203-0.69419-0.29256-0.16633
  -6  -1   2 429.585 176.042   4-0.13479-0.54283-0.99804 0.76127 0.43296-0.06211
   6   1  -2 376.788 188.758   1 0.18205 0.49557 0.97085-0.73408-0.27960-0.09124
  -6  -1   1 460.694 176.717   4-0.15019-0.50634-0.99700 0.80129 0.43068-0.14789
   6   1  -1 561.276 147.822   1 0.17630 0.48023 0.97025-0.77455-0.27402-0.00878
  -6  -1   0 196.229 130.126   4-0.17755-0.45788-0.99445 0.83982 0.42634-0.23159
   6   1   0 191.422 115.685   1 0.18117 0.45426 0.97076-0.81613-0.27875 0.08400
  -6  -1  -1 5786.21 264.852   4-0.21612-0.39822-0.98935 0.87578 0.41953-0.31283
  -6  -1  -2 16854.9 396.150   4-0.26491-0.32833-0.98028 0.90778 0.40974-0.39109
  -6  -1  -3 246.951 99.4406   4-0.32268-0.24947-0.96559 0.93416 0.39638-0.46578
   6   1   4 8116.06 278.389   5 0.42325 0.12779 0.93881-0.94845-0.44054 0.59798
  -6  -1  -4 8778.03 293.156   4-0.38784-0.16320-0.94353 0.95318 0.37885-0.53629
  -6  -1  -5 4825.95 256.634   4-0.45853-0.07142-0.91241 0.96312 0.35659-0.60208
  -6  -1  -6-4.49812 59.5399   4-0.53259 0.02373-0.87063 0.96242 0.32915-0.66270
  -6  -1  -7 33.5056 79.0250   4-0.60772 0.11996-0.81685 0.94971 0.29620-0.71779
  -6  -1  -7 42.2567 67.5278   3 0.32936-0.81712-0.22435 0.35720-0.74825 0.32666
  -6  -1  -7 13.9731 90.1836   0-0.80801 0.32025 0.37641-0.24355 0.31442-0.73602
  -6  -1  -7 42.1171 69.2853   2 0.17166-0.65942 0.92558-0.79272-0.76659 0.34499
  -6  -1  -8 6497.73 296.715   3 0.36704-0.83370-0.21689 0.39082-0.74745 0.23781
  -6  -1  -8 7256.99 305.938   2 0.18493-0.65159 0.93854-0.76462-0.74253 0.23289
  -6  -1  -9 217.591 127.207   2 0.19236-0.63793 0.94521-0.73021-0.72822 0.13054
   6   2  -4 1562.90 266.767   1 0.15559 0.57323 0.96765-0.55301-0.25386-0.33774
   6   2  -3 2381.45 301.464   1 0.12736 0.58036 0.96301-0.58943-0.22627-0.27728
  -6  -2   2 38.8505 125.238   4-0.02234-0.66428-0.99740 0.66490 0.44583-0.03033
   6   2  -2 60.1495 107.799   1 0.10288 0.58375 0.95797-0.62546-0.20222-0.21327
  -6  -2   1 10.7314 72.4715   4-0.03272-0.63281-0.99806 0.70663 0.44492-0.11747
   6   2  -1 18.3811 83.0209   1 0.08325 0.58228 0.95326-0.66183-0.18287-0.14458
  -6  -2   0 2553.42 200.006   4-0.05511-0.58932-0.99908 0.74871 0.44275-0.20335
   6   2   0 2491.30 183.516   1 0.07017 0.57426 0.94980-0.69943-0.16995-0.06945
  -6  -2  -1 2549.20 231.860   4-0.08921-0.53413-0.99952 0.79022 0.43896-0.28760
  -6  -2  -2 28.3540 78.0766   4-0.13459-0.46765-0.99805 0.82982 0.43298-0.36968
  -6  -2  -3 11361.6 318.047   4-0.19057-0.39057-0.99293 0.86577 0.42413-0.44887
  -6  -2  -4 4593.25 234.037   4-0.25611-0.30394-0.98213 0.89604 0.41161-0.52440
  -6  -2  -5 2597.74 170.789   4-0.32976-0.20919-0.96348 0.91846 0.39461-0.59545
  -6  -2  -6 582.053 173.361   4-0.40965-0.10820-0.93477 0.93082 0.37235-0.66124
  -6  -2  -6 463.797 159.707   3 0.31887-0.83673-0.22634 0.22240-0.74826 0.45937
  -6  -2  -7 375.492 140.665   4-0.49355-0.00321-0.89391 0.93103 0.34418-0.72112
  -6  -2  -7 242.508 119.387   3 0.37296-0.86972-0.21568 0.25280-0.74721 0.37027
  -6  -2  -8 8307.65 338.682   3 0.41340-0.88906-0.20705 0.28524-0.74474 0.27975
  -6  -2  -9 124.682 110.429   3 0.44132-0.89588-0.20076 0.32002-0.74214 0.18910
   6   3  -3 414.703 227.389   1 0.07291 0.64381 0.95055-0.48124-0.17266-0.37554
  -6  -3   2 112.428 134.841   4 0.06853-0.76415-0.98642 0.55818 0.45154 0.00862
   6   3  -2 79.7054 137.309   1 0.03997 0.65566 0.94081-0.51257-0.13999-0.32016
  -6  -3   1 1456.12 225.323   4 0.06388-0.73841-0.98721 0.60004 0.45135-0.07924
   6   3  -1 1425.89 211.775   1 0.01005 0.66448 0.93055-0.54337-0.11017-0.26194
  -6  -3   0 513.019 159.017   4 0.04773-0.70116-0.98976 0.64366 0.45060-0.16655
   6   3   0 583.177 172.155   1-0.01598 0.66942 0.92052-0.57442-0.08409-0.19996
  -6  -3  -1 1317.24 176.780   4 0.02004-0.65238-0.99344 0.68841 0.44902-0.25301
   6   3   1 1500.05 178.441   1-0.03682 0.66916 0.91176-0.60672-0.06314-0.13287
  -6  -3  -2 837.883 179.791   4-0.01918-0.59206-0.99718 0.73322 0.44610-0.33814
  -6  -3  -3 3624.17 225.964   4-0.06979-0.52036-0.99943 0.77654 0.44119-0.42128
  -6  -3  -4 48.4090 91.4446   4-0.13138-0.43766-0.99823 0.81641 0.43344-0.50158
  -6  -3  -5 1290.06 199.463   4-0.20316-0.34479-0.99126 0.85051 0.42191-0.57809
  -6  -3  -6 212.482 133.600   4-0.28386-0.24300-0.97594 0.87626 0.40558-0.64981
  -6  -3  -6 256.573 137.134   3 0.34326-0.87011-0.22165 0.12197-0.74810 0.50386
  -6  -3  -7 191.902 90.6002   4-0.37169-0.13406-0.94957 0.89095 0.38345-0.71573
  -6  -3  -7 293.059 147.954   3 0.40017-0.90593-0.20994 0.15132-0.74571 0.41343
  -6  -3  -8 748.866 146.398   3 0.44340-0.92806-0.20028 0.18274-0.74191 0.32158
  -6  -3  -9 1947.15 210.363   3 0.47422-0.93779-0.19297 0.21649-0.73809 0.22971
  -6  -3 -10 6113.00 355.071   3 0.49392-0.93640-0.18810 0.25269-0.73513 0.13871
   6   4  -2 2391.67 313.839   1-0.00743 0.71206 0.92393-0.39995-0.09267-0.41214
  -6  -4   1 1624.20 217.168   4 0.13889-0.82242-0.97147 0.48856 0.45306-0.03630
   6   4  -1 1475.93 224.762   1-0.04444 0.72797 0.90839-0.42548-0.05547-0.36129
  -6  -4   0 4377.65 308.762   4 0.12908-0.79151-0.97390 0.53206 0.45300-0.12429
   6   4   0 4304.83 282.910   1-0.07902 0.74145 0.89201-0.45017-0.02051-0.30820
  -6  -4  -1 9936.94 395.908   4 0.10837-0.74971-0.97865 0.57789 0.45271-0.21205
   6   4   1 9272.97 333.107   1-0.11056 0.75189 0.87547-0.47471 0.01155-0.25221
  -6  -4  -2 69.9087 106.109   4 0.07651-0.69676-0.98501 0.62531 0.45184-0.29922
  -6  -4  -3 7975.95 310.603   4 0.03326-0.63241-0.99179 0.67317 0.44982-0.38526
  -6  -4  -4 11179.0 325.463   4-0.02148-0.55657-0.99734 0.71979 0.44591-0.46939
  -6  -4  -5 9901.69 340.350   4-0.08756-0.46939-0.99953 0.76304 0.43915-0.55069
  -6  -4  -6 301.337 143.026   4-0.16444-0.37142-0.99578 0.80036 0.42847-0.62805
  -6  -4  -6 138.831 108.147   3 0.35320-0.88906-0.21968 0.02427-0.74789 0.54831
  -6  -4  -7 5986.37 259.534   4-0.25106-0.26370-0.98315 0.82881 0.41266-0.70028
  -6  -4  -7 5177.86 286.491   3 0.41329-0.92805-0.20708 0.05273-0.74474 0.45712
  -6  -4  -8 1069.55 214.582   3 0.45957-0.95323-0.19649 0.08321-0.74003 0.36435
  -6  -4  -9 541.813 187.131   3 0.49344-0.96601-0.18822 0.11601-0.73521 0.27149
  -6  -4 -10 112.922 113.368   3 0.51630-0.96777-0.18237 0.15123-0.73127 0.17949
  -6  -5   1 14.5363 73.5152   4 0.19409-0.88663-0.95570 0.37706 0.45243 0.00898
   6   5  -1 61.4272 164.738   1-0.08275 0.77528 0.89013-0.31149-0.01672-0.44469
  -6  -5   0 8549.96 379.901   4 0.19013-0.86156-0.95695 0.41938 0.45253-0.07917
   6   5   0 7590.96 352.452   1-0.12269 0.79413 0.86870-0.33113 0.02394-0.39730
  -6  -5  -1 114.099 129.954   4 0.17606-0.82640-0.96125 0.46475 0.45282-0.16750
   6   5   1 108.314 106.609   1-0.16053 0.81087 0.84610-0.34960 0.06270-0.34802
  -6  -5  -2 1994.61 239.946   4 0.15155-0.78079-0.96817 0.51274 0.45306-0.25579
  -6  -5  -3 8752.05 312.064   4 0.11618-0.72433-0.97692 0.56256 0.45285-0.34362
  -6  -5  -4 13682.7 400.827   4 0.06954-0.65659-0.98625 0.61296 0.45158-0.43040
  -6  -5  -5 9536.07 354.028   4 0.01131-0.57726-0.99442 0.66220 0.44843-0.51531
  -6  -5  -6 90.5531 95.1059   4-0.05858-0.48628-0.99918 0.70803 0.44239-0.59731
  -6  -5  -6 100.437 118.152   3 0.35012-0.89498-0.22030-0.07085-0.74796 0.59304
  -6  -5  -7 26.3073 78.7356   4-0.13983-0.38394-0.99773 0.74765 0.43223-0.67520
  -6  -5  -7 21.5433 105.235   3 0.41388-0.93764-0.20695-0.04313-0.74470 0.50172
  -6  -5  -8 1148.60 191.888   3 0.46365-0.96631-0.19552-0.01349-0.73951 0.40849
  -6  -5  -9 77.5056 141.307   3 0.50088-0.98245-0.18634 0.01840-0.73399 0.31492
  -6  -5 -10 157.382 157.658   3 0.52704-0.98751-0.17954 0.05267-0.72921 0.22209
  -6  -6   1 132.983 130.087   4 0.23225-0.93378-0.94266 0.26829 0.45104 0.05503
  -6  -6   0 4040.12 293.873   4 0.23341-0.91385-0.94224 0.30893 0.45099-0.03297
   6   6   0 4113.69 402.300   1-0.15080 0.83123 0.85213-0.21883 0.05270-0.47072
  -6  -6  -1 1343.51 279.961   4 0.22524-0.88458-0.94519 0.35296 0.45136-0.12139
   6   6   1 1233.19 256.437   1-0.19225 0.85159 0.82540-0.23316 0.09539-0.42536
  -6  -6  -2 5575.10 374.266   4 0.20744-0.84569-0.95134 0.40018 0.45204-0.21011
   6   6   2 4962.28 324.424   1-0.23163 0.86987 0.79737-0.24621 0.13621-0.37814
  -6  -6  -3 2127.62 272.466   4 0.17955-0.79670-0.96020 0.45011 0.45276-0.29888
  -6  -6  -4 2534.62 247.603   4 0.14102-0.73707-0.97093 0.50190 0.45306-0.38723
  -6  -6  -5 4629.05 303.710   4 0.09127-0.66623-0.98221 0.55426 0.45231-0.47453
  -6  -6  -6 8142.36 364.434   4 0.02985-0.58371-0.99224 0.60535 0.44962-0.55989
  -6  -6  -6 7967.43 398.438   3 0.33493-0.88879-0.22328-0.16361-0.74821 0.63794
  -6  -6  -7 160.897 108.746   4-0.04355-0.48921-0.99862 0.65281 0.44390-0.64222
  -6  -6  -7 150.085 131.135   3 0.40297-0.93573-0.20933-0.13648-0.74552 0.54720
  -6  -6  -8 2535.69 258.179   3 0.45675-0.96841-0.19716-0.10759-0.74038 0.45401
  -6  -6  -9 2715.95 347.438   3 0.49776-0.98833-0.18713-0.07655-0.73451 0.36009
   6   7   1 2236.60 322.197   1-0.20999 0.87833 0.81309-0.12512 0.11374-0.48837
  -6  -7  -2 170.554 161.013   4 0.24670-0.89395-0.93726 0.29036 0.45031-0.16373
   6   7   2 43.1640 152.470   1-0.25154 0.89878 0.78219-0.13529 0.15697-0.44355
  -6  -7  -3 115.513 147.131   4 0.22546-0.85161-0.94511 0.33928 0.45135-0.25282
  -6  -7  -4 5405.74 293.793   4 0.19437-0.79942-0.95561 0.39085 0.45243-0.34194
   6   7   4 5495.93 332.039   2 0.21557 0.38949-0.10695 0.67171 0.84023-0.95071
  -6  -7  -5 590.174 197.292   4 0.15277-0.73673-0.96784 0.44415 0.45305-0.43062
  -6  -7  -6 87.5265 131.574   4 0.09997-0.66284-0.98044 0.49782 0.45253-0.51815
  -6  -7  -6 36.5218 134.326   3 0.30802-0.87089-0.22837-0.25425-0.74818 0.68256
  -6  -7  -7 869.880 184.814   4 0.03535-0.57711-0.99151 0.54996 0.44994-0.60360
  -6  -7  -7 858.059 242.138   3 0.38107-0.92284-0.21399-0.22756-0.74683 0.59317
  -6  -7  -8 57.8247 107.843   3 0.43949-0.96016-0.20118-0.19930-0.74233 0.50062
  -6  -7  -9 84.3216 197.104   3 0.48480-0.98437-0.19037-0.16904-0.73655 0.40679
   6   8   4 8437.89 453.661   2 0.24138 0.37267-0.01805 0.67854 0.79659-0.95173
  -6  -8  -5 96.0130 88.8665   4 0.19760-0.79056-0.95457 0.33515 0.45234-0.38525
   6   8   5 163.074 133.241   2 0.20961 0.38335-0.12652 0.74594 0.84896-0.91605
  -6  -8  -6 146.696 132.884   4 0.15286-0.72473-0.96782 0.38946 0.45305-0.47401
  -6  -8  -7 96.7190 109.080   4 0.09686-0.64763-0.98108 0.44380 0.45246-0.56146
  -6  -8  -7 240.683 215.923   3 0.34829-0.89906-0.22066-0.31662-0.74800 0.63899
  -6  -8  -8 107.301 185.166   3 0.41208-0.94175-0.20734-0.28887-0.74484 0.54778
   7  -6  -4 81.0435 133.135   3 0.84223-0.08102 0.22768-0.56908 0.17850-0.43787
  -7   6   3 157.834 151.179   0-0.39855-0.34157-0.24667 0.62915 0.95911-0.78779
  -7   6   2-5.85211 100.828   0-0.46066-0.25836-0.18952 0.61306 0.93077-0.84749
  -7   6   1 825.063 244.679   0-0.52317-0.17475-0.12642 0.59104 0.89187-0.89664
  -7   6   0 16486.7 528.127   0-0.58345-0.09337-0.05893 0.56462 0.84202-0.93484
  -7   6  -1 173.533 204.257   0-0.63910-0.01663 0.01107 0.53569 0.78170-0.96257
  -7   5   4 577.889 203.723   0-0.28460-0.48561-0.33985 0.58553 0.98942-0.68539
   7  -5  -4 744.166 259.728   3 0.80445-0.03423 0.23889-0.48456 0.22653-0.53056
  -7   5   3 276.441 129.548   0-0.34563-0.40349-0.29167 0.57841 0.97640-0.76042
   7  -5  -3 274.305 183.645   3 0.76724-0.01812 0.24810-0.53485 0.26906-0.48504
  -7   5   2 762.540 216.492   0-0.41112-0.31690-0.23550 0.56331 0.95412-0.82619
   7  -5  -2 700.458 197.495   3 0.72895-0.00093 0.25610-0.58391 0.30893-0.43686
  -7   5   1 3284.96 299.263   0-0.47848-0.22845-0.17215 0.54104 0.92083-0.88095
   7  -5  -1 3485.92 322.263   5 0.83283-0.12590 0.62903-0.99792-0.46343 0.42354
  -7   5   0 11305.5 451.618   0-0.54471-0.14111-0.10314 0.51309 0.87561-0.92378
   7  -5   0 10811.2 461.735   5 0.86114-0.17531 0.58625-0.99620-0.45792 0.50609
   7  -5   1 1728.55 319.878   5 0.89153-0.22679 0.53299-0.98402-0.44959 0.58581
  -7   5  -1 1297.08 222.220   0-0.60688-0.05785-0.03052 0.48154 0.81858-0.95480
  -7   5  -2 4870.73 316.968   0-0.66248 0.01884 0.04341 0.44868 0.75089-0.97515
   7  -5   2 5575.53 414.645   5 0.92211-0.27848 0.46828-0.96037-0.43752 0.66178
  -7   5  -3 810.344 228.109   0-0.70978 0.08724 0.11646 0.41670 0.67443-0.98674
  -7   4   5 1673.60 274.739   0-0.17780-0.62251-0.41566 0.52454 0.99641-0.55968
   7  -4  -4 94.5701 165.868   3 0.77048 0.00874 0.24736-0.39730 0.26552-0.61421
  -7   4   4 182.179 167.509   0-0.23170-0.54751-0.37869 0.52863 0.99527-0.64659
  -7   4   3 356.968 172.028   0-0.29361-0.46451-0.33297 0.52399 0.98794-0.72730
   7  -4  -3 427.804 201.837   3 0.72422 0.03390 0.25699-0.44800 0.31362-0.57426
   7  -4  -3 387.051 162.286   5 0.70861 0.04951 0.76895-0.95996-0.47172 0.21109
  -7   4   2 101.732 117.676   0-0.36177-0.37525-0.27828 0.51036 0.97174-0.79916
   7  -4  -2 233.534 142.410   5 0.72927 0.00775 0.74970-0.98178-0.47167 0.29909
  -7   4   1 454.042 108.528   0-0.43355-0.28238-0.21509 0.48824 0.94430-0.85976
   7  -4  -1 826.686 238.309   5 0.75637-0.04045 0.72236-0.99551-0.47092 0.38638
  -7   4   0-1.32719 52.1389   0-0.50560-0.18923-0.14479 0.45901 0.90398-0.90750
   7  -4   0 36.5425 106.189   5 0.78905-0.09422 0.68576-0.99998-0.46881 0.47232
  -7   4  -1 989.378 205.199   0-0.57438-0.09936-0.06958 0.42487 0.85044-0.94200
   7  -4   1 685.402 235.471   5 0.82600-0.15227 0.63855-0.99384-0.46449 0.55605
  -7   4  -2 13580.7 441.668   0-0.63672-0.01591 0.00789 0.38847 0.78462-0.96423
   7  -4   2 12967.8 443.204   5 0.86541-0.21278 0.57927-0.97563-0.45692 0.63653
  -7   4  -3 662.412 190.466   0-0.69033 0.05879 0.08496 0.35247 0.70859-0.97624
   7  -4   3 800.379 250.067   5 0.90488-0.27334 0.50642-0.94385-0.44488 0.71254
  -7   4  -4 207.639 143.353   0-0.73392 0.12348 0.15938 0.31912 0.62492-0.98062
  -7   3   5 865.912 248.153   0-0.12934-0.67997-0.44678 0.45992 0.99349-0.51210
   7  -3  -5 646.247 226.434   3 0.79239 0.01692 0.24205-0.25519 0.24078-0.72216
   7  -3  -4 63.7665 107.670   3 0.74180 0.04642 0.25356-0.30777 0.29595-0.68928
  -7   3   4 230.992 149.277   0-0.18166-0.60655-0.41310 0.46730 0.99648-0.60315
   7  -3  -4 78.2627 133.912   5 0.60753 0.18069 0.84700-0.90121-0.46660 0.07326
  -7   3   3 3012.38 222.387   0-0.24354-0.52358-0.37022 0.46549 0.99438-0.68909
   7  -3  -3 2370.84 211.971   5 0.61845 0.14867 0.83969-0.93497-0.46752 0.16224
  -7   3   2 20.8961 106.858   0-0.31360-0.43242-0.31743 0.45377 0.98411-0.76687
   7  -3  -2 82.7640 144.285   5 0.63767 0.10836 0.82622-0.96257-0.46895 0.25171
  -7   3   1 200.923 137.561   4-0.67191-0.05301-0.75956 0.93697 0.26294-0.13375
  -7   3   1 262.191 151.991   0-0.38927-0.33566-0.25479 0.43221 0.96258-0.83339
  -7   3   0 2332.86 223.763   4-0.68723-0.01660-0.74401 0.96250 0.25417-0.21302
  -7   3   0 2374.00 209.954   0-0.46694-0.23690-0.18346 0.40194 0.92737-0.88623
   7  -3   0 2671.18 282.511   5 0.70002 0.00381 0.77658-0.99507-0.47162 0.43047
  -7   3  -1 84.5632 106.725   0-0.54242-0.14031-0.10566 0.36521 0.87742-0.92433
   7  -3   1 38.5368 103.949   5 0.74177-0.05903 0.73740-0.99696-0.47143 0.51833
   7  -3   2 55.4063 91.8199   5 0.78874-0.12711 0.68612-0.98675-0.46883 0.60379
  -7   3  -2 25.9386 110.404   0-0.61174-0.04990-0.02444 0.32507 0.81338-0.94834
  -7   3  -3 458.562 169.430   0-0.67184 0.03130 0.05697 0.28472 0.73742-0.96042
   7  -3   3 252.696 144.266   5 0.83872-0.19818 0.62058-0.96227-0.46243 0.68543
  -7   3  -4 1200.99 211.872   0-0.72099 0.10155 0.13579 0.24698 0.65257-0.96362
  -7   3  -5 2409.46 236.477   0-0.75871 0.16036 0.20994 0.21389 0.56203-0.96112
  -7   3  -6 250.393 131.687   0-0.78543 0.20817 0.27823 0.18667 0.46859-0.95573
  -7   2   5 12493.9 459.609   0-0.08571-0.73260-0.47315 0.39055 0.98778-0.46174
   7  -2  -4 593.730 200.635   5 0.51486 0.28235 0.90001-0.85848-0.45576 0.01777
  -7   2   4 560.436 211.606   0-0.13567-0.66155-0.44283 0.40130 0.99408-0.55609
   7  -2  -4 747.906 166.711   3 0.71958 0.07763 0.25785-0.21632 0.31817-0.75616
   7  -2  -3 600.277 190.855   5 0.52116 0.25496 0.89687-0.89641-0.45665 0.10671
  -7   2   3 525.971 188.693   0-0.19665-0.57947-0.40302 0.40256 0.99655-0.64660
   7  -2  -2 45.9758 103.139   5 0.53671 0.21831 0.88886-0.92947-0.45876 0.19687
  -7   2   2 1.14094 54.1997   0-0.26775-0.48727-0.35250 0.39311 0.99181-0.72992
   7  -2  -1 88.7349 115.951   5 0.56175 0.17218 0.87510-0.95678-0.46188 0.28803
  -7   2   1 15.5886 86.0995   4-0.57164-0.16229-0.84426 0.92595 0.31273-0.13889
  -7   2   1 47.6264 83.3721   0-0.34672-0.38721-0.29077 0.37246 0.97610-0.80225
  -7   2   0 172.984 130.443   4-0.59011-0.12273-0.83062 0.95338 0.30445-0.21865
  -7   2   0 314.391 92.9394   0-0.42976-0.28307-0.21858 0.34133 0.94604-0.86024
   7  -2   0 151.729 94.6021   5 0.59630 0.11653 0.85426-0.97702-0.46556 0.37977
  -7   2  -1 239.296 167.255   4-0.61514-0.07660-0.81082 0.97464 0.29262-0.29487
  -7   2  -1 293.901 154.819   0-0.51203-0.17970-0.13812 0.30194 0.89966-0.90191
   7  -2   1 198.243 113.780   5 0.64000 0.05174 0.82453-0.98836-0.46911 0.47136
  -7   2  -2 10981.3 371.704   0-0.58858-0.08206-0.05283 0.25772 0.83711-0.92741
  -7   2  -2 10804.0 343.207   4-0.64542-0.02522-0.78465 0.98954 0.27732-0.36762
   7  -2   2 11222.0 419.061   5 0.69192-0.02129 0.78359-0.98848-0.47145 0.56175
  -7   2  -3 39.4373 88.9108   4-0.67964 0.03009-0.75182 0.99778 0.25856-0.43691
  -7   2  -3 26.9426 80.2600   0-0.65539 0.00585 0.03338 0.21258 0.76064-0.93899
  -7   2  -4 921.646 211.271   0-0.71009 0.08165 0.11698 0.17005 0.67384-0.94024
  -7   2  -5 44.8477 72.2061   0-0.75199 0.14464 0.19539 0.13271 0.58065-0.93510
  -7   2  -6 1475.93 217.022   0-0.78164 0.19539 0.26713 0.10204 0.48449-0.92698
  -7   2  -7 848.054 228.560   0-0.80027 0.23511 0.33165 0.07859 0.38791-0.91845
   7  -1  -4 1811.56 266.031   5 0.42136 0.38486 0.93949-0.80222-0.44018-0.04247
   7  -1  -4 2452.37 249.825   3 0.70474 0.10148 0.26049-0.12323 0.33243-0.81507
   7  -1  -3 5943.99 345.794   5 0.42153 0.36360 0.93942-0.84323-0.44021 0.04561
  -7   1   3 6638.99 346.669   0-0.15425-0.63087-0.43103 0.33484 0.99545-0.60085
   7  -1  -2 38.4150 101.496   5 0.43141 0.33261 0.93584-0.88072-0.44205 0.13550
  -7   1   2 28.5555 105.295   0-0.22561-0.53842-0.38300 0.32787 0.99564-0.68909
   7  -1  -1 28.2033 98.6662   5 0.45159 0.29134 0.92810-0.91405-0.44567 0.22717
  -7   1   1 44.8441 92.0654   4-0.46022-0.28271-0.91156 0.89751 0.35601-0.13751
   7  -1   0 3444.94 275.436   5 0.48256 0.23928 0.91510-0.94212-0.45086 0.32041
  -7   1   0 3592.75 291.525   4-0.48070-0.24113-0.90095 0.92796 0.34884-0.21839
   7  -1   1 704.209 179.056   5 0.52461 0.17613 0.89513-0.96322-0.45713 0.41473
  -7   1  -1 559.118 175.936   4-0.50898-0.19176-0.88506 0.95314 0.33840-0.29599
  -7   1  -1 627.310 117.737   0-0.48454-0.21619-0.16613 0.23422 0.91725-0.87485
   7  -1   2 1839.22 214.507   5 0.57760 0.10204 0.86581-0.97497-0.46366 0.50930
  -7   1  -2 1568.26 206.143   4-0.54378-0.13586-0.86341 0.97256 0.32460-0.37024
  -7   1  -3 8171.31 327.374   4-0.58378-0.07477-0.83539 0.98562 0.30733-0.44102
  -7   1  -3 8521.62 284.418   0-0.64232-0.01622 0.01541 0.13482 0.77767-0.91136
   7  -1   3 8665.16 323.088   5 0.64077 0.01777 0.82397-0.97420-0.46916 0.60285
  -7   1  -4 26.9385 80.8229   4-0.62758-0.00987-0.80038 0.99167 0.28647-0.50821
  -7   1  -4 137.991 113.211   0-0.70246 0.06502 0.10433 0.08696 0.68779-0.90953
  -7   1  -5 1719.41 209.233   4-0.67374 0.05738-0.75775 0.99012 0.26192-0.57171
  -7   1  -5 1622.09 214.648   0-0.74810 0.13174 0.18726 0.04510 0.59086-0.90065
  -7   1  -6 4.74055 74.7003   0-0.77997 0.18472 0.26242 0.01101 0.49114-0.88897
  -7   1  -7 193.204 115.534   0-0.79973 0.22557 0.32927-0.01476 0.39167-0.87756
  -7   1  -8 893.081 245.665   0-0.80923 0.25617 0.38805-0.03247 0.29432-0.86825
   7   0  -1 1950.67 196.054   5 0.34079 0.41115 0.96396-0.85417-0.42359 0.16043
  -7   0   1 2066.82 235.358   4-0.34474-0.40719-0.95879 0.84901 0.39075-0.12759
   7   0   0 398.645 130.812   5 0.36542 0.36541 0.95734-0.88863-0.42895 0.25384
  -7   0   0 459.163 176.925   4-0.36542-0.36542-0.95181 0.88309 0.38519-0.21008
   7   0   1-4.04900 72.0506   5 0.40221 0.30753 0.94605-0.91841-0.43649 0.34943
  -7   0  -1 12.1190 86.7586   4-0.39501-0.31473-0.94073 0.91309 0.37675-0.28969
   7   0   2 7709.71 314.182   5 0.45184 0.23680 0.92800-0.94143-0.44572 0.44671
  -7   0  -2 8064.72 336.339   4-0.43244-0.25620-0.92482 0.93824 0.36522-0.36621
   7   0   3 121.739 167.775   5 0.51458 0.15297 0.90015-0.95464-0.45572 0.54476
  -7   0  -3 11.1731 80.7104   4-0.47648-0.19106-0.90319 0.95768 0.35035-0.43938
  -7   0  -4 630.983 125.889   4-0.52581-0.12064-0.87488 0.97045 0.33185-0.50894
  -7   0  -5 10382.9 362.575   4-0.57896-0.04639-0.83895 0.97559 0.30949-0.57463
  -7   0  -6 204.204 131.568   4-0.63437 0.03011-0.79450 0.97220 0.28303-0.63622
  -7   0  -6 202.532 124.194   0-0.78122 0.17697 0.26593-0.08823 0.48619-0.83937
  -7   0  -7 378.222 169.230   4-0.69041 0.10724-0.74068 0.95946 0.25230-0.69353
  -7   0  -7 386.805 146.393   0-0.80091 0.21775 0.33455-0.11577 0.38333-0.82456
  -7   0  -8 26.3560 94.4315   0-0.80972 0.24766 0.39398-0.13414 0.28390-0.81318
   7   1  -4 143.014 190.695   1 0.26894 0.55528 0.97313-0.64440-0.36323-0.20873
   7   1  -3 2537.20 314.928   1 0.25414 0.54899 0.97367-0.68601-0.34909-0.13482
   7   1  -2 703.834 222.757   1 0.24524 0.53679 0.97380-0.72721-0.34056-0.05530
  -7  -1   1 73.0245 115.433   4-0.23309-0.52784-0.98653 0.78101 0.41628-0.10847
   7   1  -1 11.7485 103.948   1 0.24401 0.51692 0.97381-0.76829-0.33939 0.03158
  -7  -1   0 8627.09 339.685   4-0.25192-0.48791-0.98298 0.81853 0.41248-0.19272
  -7  -1  -1 147.677 130.804   4-0.28052-0.43822-0.97674 0.85336 0.40633-0.27461
  -7  -1  -2 1954.76 179.575   4-0.31808-0.37957-0.96692 0.88461 0.39752-0.35385
   7   1   3 1815.44 192.508   5 0.38033 0.29622 0.95298-0.91174-0.43207 0.47646
  -7  -1  -3 1943.94 224.869   4-0.36363-0.31292-0.95244 0.91120 0.38568-0.43006
  -7  -1  -4 333.130 153.414   4-0.41604-0.23941-0.93206 0.93189 0.37039-0.50282
  -7  -1  -5 3397.32 266.586   4-0.47399-0.16036-0.90450 0.94540 0.35123-0.57171
  -7  -1  -6 1640.45 204.603   4-0.53595-0.07730-0.86849 0.95045 0.32779-0.63632
  -7  -1  -7 771.433 175.196   4-0.60025 0.00808-0.82279 0.94583 0.29974-0.69632
  -7  -1  -8 9366.45 401.614   4-0.66505 0.09399-0.76627 0.93038 0.26676-0.75139
   7   2  -3 1070.04 293.165   1 0.19249 0.61964 0.97180-0.58840-0.28972-0.23884
   7   2  -2 621.366 243.099   1 0.17385 0.61718 0.96998-0.62766-0.27164-0.16888
  -7  -2   1 652.234 214.227   4-0.13193-0.63800-0.99820 0.69695 0.43336-0.08090
   7   2  -1 763.719 214.027   1 0.16077 0.60916 0.96837-0.66711-0.25891-0.09356
  -7  -2   0 7778.31 366.007   4-0.14724-0.60160-0.99722 0.73703 0.43113-0.16671
  -7  -2  -1 2420.90 250.638   4-0.17274-0.55500-0.99496 0.77585 0.42713-0.25076
  -7  -2  -2 5054.93 303.432   4-0.20793-0.49871-0.99058 0.81254 0.42104-0.33272
  -7  -2  -3 1547.14 249.941   4-0.25221-0.43334-0.98292 0.84595 0.41242-0.41215
  -7  -2  -4 9131.84 306.586   4-0.30477-0.35969-0.97061 0.87471 0.40074-0.48851
  -7  -2  -5 2482.60 238.615   4-0.36455-0.27880-0.95211 0.89728 0.38543-0.56125
  -7  -2  -6 1965.15 244.691   4-0.43026-0.19200-0.92581 0.91204 0.36592-0.62979
  -7  -2  -7 194.559 131.507   4-0.50034-0.10082-0.89007 0.91737 0.34166-0.69358
  -7  -2  -8 4181.19 277.099   4-0.57301-0.00706-0.84328 0.91166 0.31213-0.75210
  -7  -2  -8 4280.15 313.474   3 0.28838-0.86845-0.23194 0.30032-0.74777 0.30780
  -7  -2  -9 271.790 176.985   3 0.31921-0.87818-0.22628 0.33573-0.74826 0.22025
   7   3  -2 551.389 248.278   1 0.11534 0.68469 0.96065-0.52259-0.21448-0.27069
  -7  -3   1 5136.31 333.207   4-0.04546-0.73347-0.99871 0.60172 0.44371-0.04659
   7   3  -1 5060.70 331.691   1 0.09270 0.68623 0.95561-0.55862-0.19220-0.20492
  -7  -3   0 6407.41 327.958   4-0.05622-0.70161-0.99911 0.64319 0.44263-0.13356
  -7  -3  -1 980.122 207.833   4-0.07719-0.65956-0.99952 0.68467 0.44036-0.21934
  -7  -3  -2 41.5030 120.200   4-0.10813-0.60751-0.99920 0.72542 0.43660-0.30362
  -7  -3  -3 1402.92 260.039   4-0.14878-0.54577-0.99710 0.76439 0.43090-0.38597
  -7  -3  -4 47.7759 77.9251   4-0.19869-0.47476-0.99188 0.80024 0.42271-0.46583
  -7  -3  -5 18527.7 442.074   4-0.25721-0.39515-0.98191 0.83134 0.41138-0.54255
  -7  -3  -6 3438.48 249.369   4-0.32340-0.30786-0.96537 0.85587 0.39620-0.61542
  -7  -3  -7 3497.18 263.668   4-0.39603-0.21413-0.94033 0.87190 0.37645-0.68371
  -7  -3  -8 1072.28 209.539   4-0.47354-0.11553-0.90474 0.87738 0.35139-0.74670
  -7  -3  -8 994.400 219.454   3 0.31967-0.90873-0.22620 0.19884-0.74827 0.35295
  -7  -3  -9 1086.54 241.209   3 0.35385-0.92182-0.21956 0.23327-0.74787 0.26451
  -7  -4   1 47.7512 127.037   4 0.02471-0.81264-0.99288 0.50016 0.44931-0.00753
   7   4  -1 62.6422 108.368   1 0.03987 0.74807 0.94078-0.44806-0.13989-0.30188
  -7  -4   0 2943.23 317.155   4 0.01886-0.78570-0.99358 0.54193 0.44894-0.09521
   7   4   0 2657.04 309.596   1 0.01351 0.75333 0.93180-0.48015-0.11362-0.24011
  -7  -4  -1 739.802 207.712   4 0.00311-0.74885-0.99527 0.58469 0.44785-0.18217
  -7  -4  -2 2003.58 240.348   4-0.02253-0.70211-0.99742 0.62790 0.44582-0.26819
  -7  -4  -3 311.139 153.831   4-0.05801-0.64554-0.99916 0.67072 0.44245-0.35287
  -7  -4  -4 446.086 187.312   4-0.10323-0.57923-0.99932 0.71195 0.43723-0.43569
  -7  -4  -5 1734.54 192.922   4-0.15791-0.50344-0.99637 0.75006 0.42950-0.51601
  -7  -4  -6 1334.45 224.893   4-0.22157-0.41869-0.98848 0.78325 0.41850-0.59307
  -7  -4  -7 1694.36 214.083   4-0.29340-0.32577-0.97358 0.80942 0.40340-0.66601
  -7  -4  -7 1610.90 228.677   3 0.28880-0.90797-0.23187 0.06771-0.74779 0.48517
  -7  -4  -8 340.793 170.694   4-0.37225-0.22582-0.94936 0.82627 0.38329-0.73395
  -7  -4  -8 546.453 208.877   3 0.33757-0.93564-0.22277 0.09967-0.74818 0.39752
  -7  -4  -9 5533.21 390.901   3 0.37505-0.95203-0.21524 0.13322-0.74712 0.30841
  -7  -5   0 1495.26 360.431   4 0.07781-0.85366-0.98477 0.43739 0.45188-0.05350
   7   5   0 1403.10 274.938   1-0.03150 0.80734 0.91406-0.36667-0.06851-0.32988
  -7  -5  -1 395.703 224.771   4 0.06733-0.82207-0.98663 0.48031 0.45149-0.14116
  -7  -5  -2 177.819 123.491   4 0.04732-0.78097-0.98982 0.52457 0.45058-0.22830
  -7  -5  -3 31.7843 101.230   4 0.01769-0.73024-0.99372 0.56954 0.44886-0.31463
  -7  -5  -4 179.781 129.986   4-0.02170-0.66976-0.99736 0.61425 0.44589-0.39970
  -7  -5  -5 1116.94 223.361   4-0.07089-0.59947-0.99945 0.65741 0.44107-0.48293
  -7  -5  -6 3989.63 298.657   4-0.12976-0.51950-0.99832 0.69735 0.43367-0.56358
  -7  -5  -7 729.926 169.294   4-0.19798-0.43018-0.99197 0.73207 0.42283-0.64079
  -7  -5  -7 967.187 290.508   3 0.29118-0.91934-0.23144-0.02845-0.74785 0.52989
  -7  -5  -8 475.039 151.609   4-0.27490-0.33217-0.97805 0.75922 0.40757-0.71358
  -7  -5  -8 533.234 185.421   3 0.34350-0.95058-0.22161 0.00278-0.74809 0.44209
  -7  -6  -2 767.387 248.776   4 0.10164-0.84430-0.98009 0.41911 0.45257-0.18563
  -7  -6  -3 138.565 170.013   4 0.07789-0.79945-0.98476 0.46485 0.45189-0.27300
  -7  -6  -4 1561.66 217.319   4 0.04468-0.74514-0.99021 0.51137 0.45045-0.35960
  -7  -6  -5 46.5340 82.0742   4 0.00175-0.68111-0.99540 0.55763 0.44775-0.44496
  -7  -6  -6 5.53829 82.4310   4-0.05106-0.60720-0.99893 0.60223 0.44316-0.52841
  -7  -6  -7 104.426 124.667   4-0.11380-0.52337-0.99902 0.64339 0.43585-0.60916
  -7  -6  -7 86.5049 150.808   3 0.28221-0.91938-0.23304-0.12259-0.74758 0.57428
  -7  -6  -8 77.9963 130.123   4-0.18628-0.42980-0.99345 0.67889 0.42487-0.68622
  -7  -6  -8 61.6632 120.875   3 0.33845-0.95452-0.22259-0.09197-0.74817 0.48682
  -7  -7  -7 18.9098 103.416   4-0.04300-0.60317-0.99860 0.54723 0.44395-0.57260
   8  -5  -2 1071.11 306.069   3 0.73380 0.09863 0.25516-0.57316 0.30408-0.45702
  -8   4   2 1094.52 250.377   0-0.40220-0.43923-0.24345 0.46571 0.95770-0.76010
  -8   4   1 347.986 138.898   0-0.46385-0.35648-0.18645 0.44978 0.92906-0.81951
  -8   4   0 9102.22 396.781   0-0.52598-0.27325-0.12343 0.42783 0.88984-0.86833
  -8   4  -1 1878.54 281.629   0-0.58594-0.19219-0.05597 0.40145 0.83965-0.90620
  -8   4  -2 2334.26 260.059   0-0.64126-0.11578 0.01397 0.37257 0.77901-0.93360
  -8   3   3 4222.63 343.529   0-0.30283-0.56870-0.32585 0.41131 0.98626-0.65596
  -8   3   2 1584.15 271.998   0-0.36304-0.48739-0.27722 0.40375 0.97136-0.72910
  -8   3   1 127.788 178.744   4-0.68214-0.14719-0.74927 0.91687 0.25712-0.10292
  -8   3   1-3.13580 46.8625   0-0.42762-0.40172-0.22055 0.38815 0.94701-0.79280
  -8   3   0 54.1901 128.373   4-0.69354-0.11470-0.73737 0.94604 0.25044-0.18428
  -8   3   0-2.35948 65.8460   0-0.49389-0.31434-0.15674 0.36541 0.91152-0.84536
   8  -3   0 113.387 163.556   5 0.70539 0.10285 0.77184-0.98050-0.47169 0.40553
  -8   3  -1 6364.50 334.335   0-0.55881-0.22833-0.08742 0.33716 0.86408-0.88597
   8  -3   1 6510.49 401.636   5 0.74114 0.04600 0.73804-0.98777-0.47144 0.49333
   8  -3   2 2272.80 321.197   5 0.78215-0.01611 0.69385-0.98466-0.46937 0.57931
  -8   3  -2 2200.13 259.877   0-0.61939-0.14666-0.01474 0.30555 0.80495-0.91489
  -8   3  -3 9.86156 95.2882   0-0.67316-0.07178 0.05892 0.27295 0.73546-0.93344
  -8   3  -4 89.9799 161.196   0-0.71848-0.00537 0.13136 0.24158 0.65763-0.94367
  -8   2   3 1577.20 248.527   0-0.26578-0.61475-0.35397 0.34369 0.99206-0.61710
  -8   2   2 2200.00 251.155   0-0.32697-0.53246-0.30680 0.33760 0.98113-0.69422
   8  -2  -1 21.5184 99.7264   5 0.58619 0.25214 0.86059-0.93246-0.46456 0.26570
  -8   2   1 1.90113 97.1774   4-0.59551-0.24282-0.82648 0.89834 0.30195-0.10309
  -8   2   1 37.3265 109.261   0-0.39405-0.44428-0.25062 0.32248 0.96082-0.76195
  -8   2   0 2394.75 312.498   4-0.60864-0.20859-0.81611 0.92904 0.29575-0.18494
  -8   2   0 2741.24 287.958   0-0.46422-0.35302-0.18609 0.29902 0.92885-0.81804
   8  -2   0 2421.34 322.953   5 0.61464 0.20260 0.84227-0.95520-0.46721 0.35640
  -8   2  -1 77.1284 123.528   4-0.62807-0.16807-0.79995 0.95396 0.28622-0.26346
  -8   2  -1 71.9346 87.7762   0-0.53402-0.26213-0.11481 0.26881 0.88389-0.86112
   8  -2   1 10.4934 90.6903   5 0.65117 0.14498 0.81627-0.97028-0.46979 0.44703
  -8   2  -2 104.222 88.1776   0-0.59986-0.17518-0.03917 0.23425 0.82587-0.89116
  -8   2  -2 194.139 172.112   4-0.65274-0.12230-0.77793 0.97301 0.27344-0.33873
   8  -2   2 318.326 210.159   5 0.69517 0.07988 0.78080-0.97588-0.47153 0.53681
  -8   2  -3 205.946 223.822   4-0.68159-0.07236-0.74983 0.98598 0.25744-0.41077
  -8   2  -3 27.1408 81.7163   0-0.65869-0.09525 0.03803 0.19811 0.75614-0.90947
   8  -2   3 219.809 201.886   5 0.74551 0.00844 0.73362-0.96976-0.47132 0.62465
  -8   2  -4 106.658 135.463   0-0.70840-0.02446 0.11414 0.16308 0.67701-0.91839
  -8   2  -5 1695.53 261.738   0-0.74795 0.03619 0.18696 0.13132 0.59124-0.92067
   8  -1  -1 1708.42 276.903   5 0.49186 0.35547 0.91092-0.88705-0.45233 0.20881
  -8   1   1 1672.93 312.350   4-0.50111-0.34622-0.88962 0.86576 0.34137-0.09785
   8  -1   0 4768.10 374.209   5 0.51714 0.30910 0.89888-0.91608-0.45608 0.30062
  -8   1   0 4861.60 368.350   4-0.51513-0.31111-0.88140 0.89861 0.33604-0.18057
   8  -1   1 534.180 176.887   5 0.55186 0.25328 0.88066-0.93893-0.46069 0.39327
  -8   1  -1 775.454 170.036   4-0.53640-0.26874-0.86820 0.92647 0.32761-0.26019
  -8   1  -2 81.9017 145.666   4-0.56393-0.22012-0.84973 0.94908 0.31610-0.33672
   8  -1   2 32.6698 163.142   5 0.59598 0.18807 0.85447-0.95381-0.46553 0.48616
  -8   1  -3 112.767 153.751   4-0.59665-0.16629-0.82559 0.96600 0.30142-0.41010
   8  -1   3 34.9169 118.556   5 0.64898 0.11397 0.81791-0.95832-0.46967 0.57834
  -8   1  -4 802.310 229.902   4-0.63349-0.10837-0.79527 0.97675 0.28348-0.48021
  -8   1  -5 1766.35 258.496   4-0.67327-0.04748-0.75821 0.98076 0.26218-0.54695
  -8   1  -6 571.823 197.848   0-0.77549 0.07583 0.25030 0.01332 0.50804-0.88086
  -8   1  -7 722.431 260.890   0-0.79623 0.11766 0.31486-0.01017 0.41405-0.87492
  -8   0   1 199.171 200.456   4-0.40392-0.45242-0.93714 0.81754 0.37409-0.08592
   8   0   0 18.2845 81.9127   5 0.41762 0.41762 0.94081-0.86227-0.43947 0.23935
  -8   0   0 17.7943 120.205   4-0.41762-0.41762-0.93138 0.85285 0.36990-0.16978
   8   0   1 5171.28 372.302   5 0.44808 0.36606 0.92949-0.89202-0.44506 0.33298
  -8   0  -1 4627.56 341.426   4-0.43942-0.37472-0.92161 0.88414 0.36296-0.25088
   8   0   2 1438.18 268.453   5 0.48927 0.30378 0.91210-0.91570-0.45192 0.42790
  -8   0  -2 1228.73 256.510   4-0.46845-0.32460-0.90738 0.91099 0.35317-0.32914
   8   0   3 5415.45 362.056   5 0.54138 0.23058 0.88638-0.93106-0.45937 0.52339
  -8   0  -3 5733.94 358.525   4-0.50374-0.26821-0.88811 0.93279 0.34038-0.40440
  -8   0  -4 10.7738 87.2261   4-0.54427-0.20658-0.86308 0.94883 0.32439-0.47646
  -8   0  -5 227.431 138.529   4-0.58891-0.14084-0.83153 0.95835 0.30499-0.54511
  -8   0  -6 34.1017 92.7592   4-0.63646-0.07220-0.79266 0.96055 0.28197-0.61013
  -8   0  -7 165.434 133.868   4-0.68560-0.00196-0.74570 0.95466 0.25512-0.67133
  -8  -1   0 1047.34 203.699   4-0.32139-0.52285-0.96596 0.79169 0.39670-0.15192
   8   1   1 474.199 147.415   5 0.34535 0.47779 0.96279-0.82959-0.42460 0.26787
  -8  -1  -1 556.798 218.730   4-0.34222-0.48093-0.95960 0.82641 0.39141-0.23468
   8   1   2 426.628 156.233   5 0.38098 0.42107 0.95278-0.86065-0.43221 0.36353
  -8  -1  -2 420.014 188.559   4-0.37108-0.43097-0.94979 0.85766 0.38362-0.31494
   8   1   3 27.1394 109.970   5 0.42873 0.35222 0.93682-0.88577-0.44156 0.46093
  -8  -1  -3 96.4372 183.554   4-0.40720-0.37375-0.93579 0.88473 0.37310-0.39247
  -8  -1  -4 595.690 193.780   4-0.44969-0.31017-0.91674 0.90675 0.35957-0.46699
  -8  -1  -5 4605.21 323.564   4-0.49754-0.24122-0.89166 0.92274 0.34270-0.53817
  -8  -1  -6 627.219 196.539   4-0.54961-0.16805-0.85954 0.93169 0.32218-0.60569
  -8  -1  -7 166.725 181.603   4-0.60463-0.09194-0.81933 0.93255 0.29767-0.66923
  -8  -2   0 3867.89 339.508   4-0.23135-0.62190-0.98683 0.71683 0.41662-0.12719
  -8  -2  -1 1046.53 286.595   4-0.24979-0.58235-0.98340 0.75447 0.41292-0.21153
  -8  -2  -2 380.788 203.108   4-0.27685-0.53420-0.97760 0.78974 0.40714-0.29381
  -8  -2  -3 2816.25 249.598   4-0.31194-0.47801-0.96865 0.82186 0.39902-0.37373
  -8  -2  -4 1571.23 245.377   4-0.35440-0.41446-0.95560 0.84988 0.38818-0.45095
  -8  -2  -5 175.666 163.072   4-0.40342-0.34434-0.93735 0.87270 0.37424-0.52505
  -8  -2  -6 684.163 211.052   4-0.45801-0.26866-0.91266 0.88908 0.35676-0.59562
  -8  -2  -7 64.9357 128.749   4-0.51703-0.18854-0.88026 0.89775 0.33530-0.66221
  -8  -2  -8 98.2185 183.042   4-0.57914-0.10533-0.83882 0.89738 0.30941-0.72437
  -8  -3   0 45.6461 175.744   4-0.15120-0.71104-0.99692 0.63118 0.43053-0.09644
  -8  -3  -1 217.951 182.596   4-0.16621-0.67494-0.99561 0.67095 0.42819-0.18215
  -8  -3  -2 3361.50 342.229   4-0.19012-0.62993-0.99299 0.70939 0.42421-0.26622
  -8  -3  -3 5909.71 422.482   4-0.22256-0.57639-0.98832 0.74579 0.41831-0.34837
  -8  -3  -4 5407.04 356.042   4-0.26311-0.51475-0.98066 0.77921 0.41013-0.42823
  -8  -3  -5 3625.60 281.985   4-0.31119-0.44557-0.96886 0.80847 0.39920-0.50535
  -8  -3  -6 748.643 190.056   4-0.36607-0.36959-0.95158 0.83226 0.38501-0.57921
  -8  -3  -7 790.354 252.572   4-0.42683-0.28774-0.92735 0.84910 0.36701-0.64926
  -8  -3  -8 128.308 133.718   4-0.49230-0.20117-0.89461 0.85743 0.34464-0.71494
  -8  -4  -2 632.846 245.315   4-0.11398-0.71507-0.99901 0.61968 0.43583-0.23318
  -8  -4  -3 694.578 294.102   4-0.14261-0.66535-0.99754 0.65929 0.43182-0.31722
  -8  -4  -4 3392.00 332.334   4-0.17976-0.60710-0.99421 0.69702 0.42597-0.39942
  -8  -4  -5 8450.21 418.242   4-0.22510-0.54066-0.98790 0.73178 0.41783-0.47933
  -8  -4  -6 1158.92 236.730   4-0.27819-0.46647-0.97728 0.76223 0.40684-0.55639
  -8  -4  -7 1408.25 251.452   4-0.33838-0.38519-0.96082 0.78684 0.39240-0.63000
  -9   1   0 263.597 209.419   4-0.55303-0.37761-0.85723 0.86462 0.32074-0.14026
  -9   1  -1 13.9954 110.342   4-0.56858-0.34097-0.84645 0.89491 0.31408-0.22164
;
_shelx_hkl_checksum              9691
loop_
_space_group_symop_operation_xyz
'x, y, z'
'-x, -y, -z'
loop_
_atom_site_label
_atom_site_type_symbol
_atom_site_fract_x
_atom_site_fract_y
_atom_site_fract_z
_atom_site_U_iso_or_equiv
_atom_site_adp_type
_atom_site_occupancy
_atom_site_site_symmetry_order
_atom_site_calc_flag
_atom_site_refinement_flags_posn
_atom_site_refinement_flags_adp
_atom_site_refinement_flags_occupancy
_atom_site_disorder_assembly
_atom_site_disorder_group
O1 O 0.22235(6) 0.42389(4) 0.38854(4) 0.02189(11) Uani 1 1 d . . . . .
O2 O 0.21580(6) 0.17148(5) 0.16269(4) 0.02253(11) Uani 1 1 d . . . . .
O3 O 0.33428(6) 0.14745(5) 0.65179(4) 0.02743(11) Uani 1 1 d . . . . .
O4 O 0.08703(6) 0.05841(5) 0.42726(4) 0.02960(11) Uani 1 1 d . . . . .
C1 C 0.26718(8) 0.26692(6) 0.31731(6) 0.01624(13) Uani 1 1 d . . . . .
C2 C 0.38750(8) 0.19316(7) 0.42511(6) 0.02025(14) Uani 1 1 d . . . . .
C3 C 0.26421(8) 0.13092(6) 0.51255(6) 0.01868(14) Uani 1 1 d . . . . .
N1A1 N 0.29114(7) 0.62721(5) 0.71723(5) 0.01849(12) Uani 1 1 d . . . . .
C1A C 0.23165(8) 0.78764(6) 0.78811(6) 0.01830(14) Uani 1 1 d . . . . .
N1A2 N 0.29938(7) 0.85690(5) 0.95114(5) 0.01834(12) Uani 1 1 d . . . . .
C2A C 0.40577(8) 0.73638(7) 0.98651(6) 0.02086(14) Uani 1 1 d . . . . .
C3A C 0.40032(8) 0.59334(7) 0.84027(6) 0.02058(15) Uani 1 1 d . . . . .
N1B1 N 0.07094(13) 0.40792(10) 1.04915(10) 0.0197(2) Uani 0.5 1 d D . P A 1
C1B C 0.00446(17) 0.37792(12) 0.89213(12) 0.0192(3) Uani 0.5 1 d . . P A 1
N1B2 N -0.06134(13) 0.52466(10) 0.89293(10) 0.0173(2) Uani 0.5 1 d D . P A 1
C2B C -0.03820(17) 0.65449(13) 1.05496(12) 0.0197(3) Uani 0.5 1 d . . P A 1
C3B C 0.04367(17) 0.58037(12) 1.15121(12) 0.0191(3) Uani 0.5 1 d . . P A 1
H3B H 0.0755(17) 0.6307(13) 1.2713(12) 0.018(3) Uiso 0.5 1 d . . P B 1
H2B H -0.0765(16) 0.7624(13) 1.0744(12) 0.017(3) Uiso 0.5 1 d . . P C 1
H1B2 H -0.1209(19) 0.5277(16) 0.7917(14) 0.041(4) Uiso 0.5 1 d D . P D 1
H1B1 H 0.123(2) 0.3221(15) 1.0825(15) 0.046(4) Uiso 0.5 1 d D . P E 1
H1B H 0.0135(17) 0.2716(15) 0.7990(14) 0.032(4) Uiso 0.5 1 d . . P F 1
H1A1 H 0.2665(9) 0.5508(8) 0.6007(7) 0.0385(19) Uiso 1 1 d . . . . .
H1A H 0.1513(9) 0.8425(7) 0.7304(7) 0.0280(17) Uiso 1 1 d . . . . .
H1A2 H 0.2749(9) 0.9647(8) 1.0304(7) 0.0360(18) Uiso 1 1 d . . . . .
H2A H 0.4663(9) 0.7641(7) 1.0975(7) 0.0267(16) Uiso 1 1 d . . . . .
H3A H 0.4520(9) 0.4852(7) 0.8159(7) 0.0297(17) Uiso 1 1 d . . . . .
H4 H 0.0000 0.0000 0.5000 0.101(5) Uiso 1 2 d S . P . .
H21 H 0.4932(8) 0.2817(7) 0.5054(7) 0.0248(16) Uiso 1 1 d . . . . .
H22 H 0.4435(8) 0.0882(7) 0.3563(6) 0.0248(16) Uiso 1 1 d . . . . .
loop_
_atom_site_aniso_label
_atom_site_aniso_U_11
_atom_site_aniso_U_22
_atom_site_aniso_U_33
_atom_site_aniso_U_23
_atom_site_aniso_U_13
_atom_site_aniso_U_12
O1 0.0302(2) 0.01590(14) 0.01657(15) 0.00527(11) 0.00415(15) 0.00613(15)
O2 0.0317(2) 0.01995(15) 0.01319(14) 0.00565(11) 0.00393(14) 0.00705(15)
O3 0.0330(2) 0.03204(16) 0.01615(15) 0.01299(11) -0.00064(16) 0.00080(17)
O4 0.0269(2) 0.04083(16) 0.02477(16) 0.02315(11) -0.00412(15) -0.00979(16)
C1 0.0170(2) 0.01767(19) 0.01550(19) 0.00852(13) 0.00485(18) 0.00053(19)
C2 0.0195(3) 0.0225(2) 0.0183(2) 0.01034(15) 0.0012(2) 0.0032(2)
C3 0.0251(3) 0.01442(19) 0.0161(2) 0.00776(14) 0.0017(2) 0.0054(2)
N1A1 0.0219(2) 0.01732(17) 0.01364(17) 0.00523(12) 0.00327(16) 0.00221(17)
C1A 0.0182(3) 0.0188(2) 0.0172(2) 0.00794(14) 0.00333(19) 0.0016(2)
N1A2 0.0218(2) 0.01581(17) 0.01434(17) 0.00430(12) 0.00396(17) 0.00274(17)
C2A 0.0224(3) 0.0219(2) 0.0185(2) 0.01045(14) 0.0022(2) 0.0020(2)
C3A 0.0224(3) 0.0197(2) 0.0197(2) 0.00926(15) 0.0042(2) 0.0046(2)
N1B1 0.0229(5) 0.0151(3) 0.0236(4) 0.0105(2) 0.0064(3) 0.0061(3)
C1B 0.0277(6) 0.0170(4) 0.0204(4) 0.0154(3) 0.0043(4) 0.0082(4)
N1B2 0.0210(5) 0.0162(3) 0.0189(3) 0.0120(2) 0.0036(3) 0.0063(3)
C2B 0.0258(6) 0.0160(4) 0.0190(4) 0.0093(3) 0.0054(4) 0.0081(4)
C3B 0.0267(6) 0.0180(4) 0.0191(4) 0.0139(3) 0.0059(4) 0.0074(4)
loop_
_atom_type_symbol
_atom_type_description
_atom_type_scat_dispersion_real
_atom_type_scat_dispersion_imag
_atom_type_scat_source
C C 0.0033 0.0016 'International Tables Vol C Tables 4.2.6.8 and 6.1.1.4'
H H 0.0000 0.0000 'International Tables Vol C Tables 4.2.6.8 and 6.1.1.4'
N N 0.0061 0.0033 'International Tables Vol C Tables 4.2.6.8 and 6.1.1.4'
O O 0.0106 0.0060 'International Tables Vol C Tables 4.2.6.8 and 6.1.1.4'
loop_
_geom_angle_atom_site_label_1
_geom_angle_atom_site_label_2
_geom_angle_atom_site_label_3
_geom_angle
_geom_angle_site_symmetry_1
_geom_angle_site_symmetry_3
_geom_angle_publ_flag
C3 O4 H4 111.59(4) . . ?
O2 C1 O1 122.60(6) . . ?
O2 C1 C2 119.57(5) . . ?
O1 C1 C2 117.83(5) . . ?
C1 C2 C3 112.60(5) . . ?
C1 C2 H21 110.0(4) . . ?
C3 C2 H21 109.6(4) . . ?
C1 C2 H22 109.8(4) . . ?
C3 C2 H22 106.3(4) . . ?
H21 C2 H22 108.3(5) . . ?
O3 C3 O4 124.49(6) . . ?
O3 C3 C2 120.63(5) . . ?
O4 C3 C2 114.86(5) . . ?
C1A N1A1 C3A 108.36(5) . . ?
C1A N1A1 H1A1 125.7(4) . . ?
C3A N1A1 H1A1 125.9(4) . . ?
N1A2 C1A N1A1 108.70(6) . . ?
N1A2 C1A H1A 126.0(3) . . ?
N1A1 C1A H1A 125.3(3) . . ?
C1A N1A2 C2A 108.73(5) . . ?
C1A N1A2 H1A2 126.7(4) . . ?
C2A N1A2 H1A2 124.4(4) . . ?
C3A C2A N1A2 106.79(6) . . ?
C3A C2A H2A 132.8(4) . . ?
N1A2 C2A H2A 120.4(4) . . ?
C2A C3A N1A1 107.43(6) . . ?
C2A C3A H3A 131.0(4) . . ?
N1A1 C3A H3A 121.5(4) . . ?
N1B2 N1B1 C2B 145.6(2) 2_567 2_567 ?
N1B2 N1B1 C1B 122.52(17) 2_567 . ?
C2B N1B1 C1B 24.32(9) 2_567 . ?
N1B2 N1B1 C3B 15.52(13) 2_567 . ?
C2B N1B1 C3B 131.92(14) 2_567 . ?
C1B N1B1 C3B 107.97(9) . . ?
N1B2 N1B1 C1B 35.86(13) 2_567 2_567 ?
C2B N1B1 C1B 110.83(12) 2_567 2_567 ?
C1B N1B1 C1B 86.92(8) . 2_567 ?
C3B N1B1 C1B 21.09(6) . 2_567 ?
N1B2 N1B1 C3B 108.97(15) 2_567 2_567 ?
C2B N1B1 C3B 37.58(10) 2_567 2_567 ?
C1B N1B1 C3B 13.55(5) . 2_567 ?
C3B N1B1 C3B 94.48(8) . 2_567 ?
C1B N1B1 C3B 73.41(6) 2_567 2_567 ?
N1B2 N1B1 H1B1 112.0(7) 2_567 . ?
C2B N1B1 H1B1 100.9(7) 2_567 . ?
C1B N1B1 H1B1 125.1(7) . . ?
C3B N1B1 H1B1 126.9(7) . . ?
C1B N1B1 H1B1 147.8(7) 2_567 . ?
C3B N1B1 H1B1 138.5(7) 2_567 . ?
C2B C1B C3B 167.5(2) 2_567 2_567 ?
C2B C1B N1B2 139.49(15) 2_567 . ?
C3B C1B N1B2 31.24(9) 2_567 . ?
C2B C1B N1B1 31.55(10) 2_567 . ?
C3B C1B N1B1 139.28(14) 2_567 . ?
N1B2 C1B N1B1 108.42(8) . . ?
C2B C1B N1B2 48.12(11) 2_567 2_567 ?
C3B C1B N1B2 122.32(13) 2_567 2_567 ?
N1B2 C1B N1B2 91.56(8) . 2_567 ?
N1B1 C1B N1B2 16.96(5) . 2_567 ?
C2B C1B N1B1 124.05(13) 2_567 2_567 ?
C3B C1B N1B1 46.34(10) 2_567 2_567 ?
N1B2 C1B N1B1 15.44(5) . 2_567 ?
N1B1 C1B N1B1 93.08(8) . 2_567 ?
N1B2 C1B N1B1 76.17(6) 2_567 2_567 ?
C2B C1B H1B 93.2(9) 2_567 . ?
C3B C1B H1B 96.5(8) 2_567 . ?
N1B2 C1B H1B 127.2(8) . . ?
N1B1 C1B H1B 124.2(8) . . ?
N1B2 C1B H1B 141.1(8) 2_567 . ?
N1B1 C1B H1B 142.7(8) 2_567 . ?
N1B1 N1B2 C3B 153.1(2) 2_567 2_567 ?
N1B1 N1B2 C1B 128.69(17) 2_567 . ?
C3B N1B2 C1B 25.84(9) 2_567 . ?
N1B1 N1B2 C2B 20.17(12) 2_567 . ?
C3B N1B2 C2B 134.90(13) 2_567 . ?
C1B N1B2 C2B 109.37(9) . . ?
N1B1 N1B2 C1B 40.52(13) 2_567 2_567 ?
C3B N1B2 C1B 113.91(12) 2_567 2_567 ?
C1B N1B2 C1B 88.44(8) . 2_567 ?
C2B N1B2 C1B 20.99(6) . 2_567 ?
N1B1 N1B2 C2B 115.38(15) 2_567 2_567 ?
C3B N1B2 C2B 38.87(9) 2_567 2_567 ?
C1B N1B2 C2B 13.31(5) . 2_567 ?
C2B N1B2 C2B 96.14(8) . 2_567 ?
C1B N1B2 C2B 75.18(6) 2_567 2_567 ?
N1B1 N1B2 H1B2 109.8(7) 2_567 . ?
C3B N1B2 H1B2 95.2(7) 2_567 . ?
C1B N1B2 H1B2 120.9(7) . . ?
C2B N1B2 H1B2 129.6(7) . . ?
C1B N1B2 H1B2 150.3(7) 2_567 . ?
C2B N1B2 H1B2 134.0(7) 2_567 . ?
C1B C2B N1B1 124.13(17) 2_567 2_567 ?
C1B C2B C3B 6.34(13) 2_567 . ?
N1B1 C2B C3B 119.85(13) 2_567 . ?
C1B C2B N1B2 110.90(14) 2_567 . ?
N1B1 C2B N1B2 14.18(8) 2_567 . ?
C3B C2B N1B2 106.22(9) . . ?
C1B C2B N1B2 27.20(10) 2_567 2_567 ?
N1B1 C2B N1B2 97.44(11) 2_567 2_567 ?
C3B C2B N1B2 22.41(5) . 2_567 ?
N1B2 C2B N1B2 83.86(8) . 2_567 ?
C1B C2B H2B 129.8(7) 2_567 . ?
N1B1 C2B H2B 105.4(7) 2_567 . ?
C3B C2B H2B 134.7(7) . . ?
N1B2 C2B H2B 119.1(7) . . ?
N1B2 C2B H2B 157.0(7) 2_567 . ?
C1B C3B N1B2 122.92(16) 2_567 2_567 ?
C1B C3B C2B 6.14(12) 2_567 . ?
N1B2 C3B C2B 118.72(12) 2_567 . ?
C1B C3B N1B1 112.57(13) 2_567 . ?
N1B2 C3B N1B1 11.36(9) 2_567 . ?
C2B C3B N1B1 108.02(9) . . ?
C1B C3B N1B1 27.17(10) 2_567 2_567 ?
N1B2 C3B N1B1 96.16(11) 2_567 2_567 ?
C2B C3B N1B1 22.57(5) . 2_567 ?
N1B1 C3B N1B1 85.52(8) . 2_567 ?
C1B C3B H3B 124.2(7) 2_567 . ?
N1B2 C3B H3B 111.9(7) 2_567 . ?
C2B C3B H3B 129.0(7) . . ?
N1B1 C3B H3B 122.9(7) . . ?
N1B1 C3B H3B 151.3(7) 2_567 . ?
loop_
_geom_bond_atom_site_label_1
_geom_bond_atom_site_label_2
_geom_bond_distance
_geom_bond_site_symmetry_2
_geom_bond_publ_flag
O1 C1 1.2643(7) . ?
O2 C1 1.2569(8) . ?
O3 C3 1.2239(8) . ?
O4 C3 1.2930(8) . ?
O4 H4 1.2290(5) . ?
C1 C2 1.5184(9) . ?
C2 C3 1.5205(10) . ?
C2 H21 0.956(5) . ?
C2 H22 0.977(5) . ?
N1A1 C1A 1.3291(8) . ?
N1A1 C3A 1.3768(9) . ?
N1A1 H1A1 0.954(6) . ?
C1A N1A2 1.3252(8) . ?
C1A H1A 0.957(7) . ?
N1A2 C2A 1.3797(8) . ?
N1A2 H1A2 0.925(6) . ?
C2A C3A 1.3460(9) . ?
C2A H2A 0.945(6) . ?
C3A H3A 0.932(6) . ?
N1B1 N1B2 0.5996(11) 2_567 ?
N1B1 C2B 0.8441(13) 2_567 ?
N1B1 C1B 1.3354(14) . ?
N1B1 C3B 1.3767(13) . ?
N1B1 C1B 1.7574(14) 2_567 ?
N1B1 C3B 1.9076(16) 2_567 ?
N1B1 H1B1 0.952(14) . ?
C1B C2B 0.6644(15) 2_567 ?
C1B C3B 0.6850(15) 2_567 ?
C1B N1B2 1.3192(14) . ?
C1B N1B2 1.7331(14) 2_567 ?
C1B N1B1 1.7574(14) 2_567 ?
C1B H1B 0.941(10) . ?
N1B2 N1B1 0.5996(11) 2_567 ?
N1B2 C3B 0.8150(12) 2_567 ?
N1B2 C2B 1.3812(13) . ?
N1B2 C1B 1.7331(14) 2_567 ?
N1B2 C2B 1.8747(16) 2_567 ?
N1B2 H1B2 0.955(13) . ?
C2B C1B 0.6645(15) 2_567 ?
C2B N1B1 0.8440(13) 2_567 ?
C2B C3B 1.3414(17) . ?
C2B N1B2 1.8747(16) 2_567 ?
C2B H2B 0.899(11) . ?
C3B C1B 0.6850(15) 2_567 ?
C3B N1B2 0.8150(12) 2_567 ?
C3B N1B1 1.9076(16) 2_567 ?
C3B H3B 0.970(10) . ?
loop_
_geom_hbond_atom_site_label_D
_geom_hbond_atom_site_label_H
_geom_hbond_atom_site_label_A
_geom_hbond_distance_DH
_geom_hbond_distance_HA
_geom_hbond_distance_DA
_geom_hbond_angle_DHA
_geom_hbond_site_symmetry_A
O4 H4 O3 1.2290(5) 2.4427(11) 3.1611(12) 114.77(3) 2_556
O4 H4 O4 1.2290(5) 1.2290(5) 2.4580(11) 180.0 2_556
C2 H21 O1 0.956(5) 2.805(6) 3.6791(18) 152.5(5) 2_666
C2 H22 O3 0.977(5) 2.523(6) 3.3833(13) 146.8(5) 2_656
N1A1 H1A1 O1 0.954(6) 1.723(6) 2.6764(12) 176.7(7) .
C1A H1A O4 0.957(7) 2.393(7) 3.3416(12) 171.3(5) 2_566
N1A2 H1A2 O2 0.925(6) 1.742(6) 2.6637(12) 174.1(6) 1_566
C2A H2A O3 0.945(6) 2.232(6) 3.1611(14) 167.5(6) 2_667
C3A H3A O3 0.932(6) 2.566(5) 3.3242(14) 138.8(4) .
C3B H3B O1 0.970(10) 2.551(12) 3.0954(15) 115.5(8) 1_556
C2B H2B O2 0.899(11) 2.506(12) 3.0596(15) 120.3(7) 2_566
C2B H2B O4 0.899(11) 3.050(9) 3.524(2) 114.8(8) 1_566
N1B2 H1B2 O1 0.955(13) 1.889(13) 2.8349(13) 170.2(10) 2_566
N1B2 H1B2 O2 0.955(13) 2.493(13) 2.9925(13) 112.6(8) 2_566
N1B1 H1B1 O1 0.952(14) 2.501(13) 3.0410(13) 116.0(8) 1_556
N1B1 H1B1 O2 0.952(14) 1.796(14) 2.7453(13) 174.8(12) 1_556
C1B H1B O3 0.941(10) 2.842(12) 3.5358(17) 131.4(9) .
C1B H1B O4 0.941(10) 2.592(10) 3.4760(19) 156.5(11) 2_556
